# generated using pymatgen
data_Ti27(Cu53Te54)2
_symmetry_space_group_name_H-M   'P 1'
_cell_length_a   17.91735329
_cell_length_b   17.91721429
_cell_length_c   17.91647668
_cell_angle_alpha   90.04297809
_cell_angle_beta   90.03253460
_cell_angle_gamma   89.96480871
_symmetry_Int_Tables_number   1
_chemical_formula_structural   Ti27(Cu53Te54)2
_chemical_formula_sum   'Ti27 Cu106 Te108'
_cell_volume   5751.70601108
_cell_formula_units_Z   1
loop_
 _symmetry_equiv_pos_site_id
 _symmetry_equiv_pos_as_xyz
  1  'x, y, z'
loop_
 _atom_type_symbol
 _atom_type_oxidation_number
  Ti4+  4.0
  Cu+  1.0
  Te2-  -2.0
loop_
 _atom_site_type_symbol
 _atom_site_label
 _atom_site_symmetry_multiplicity
 _atom_site_fract_x
 _atom_site_fract_y
 _atom_site_fract_z
 _atom_site_occupancy
  Ti4+  Ti0  1  0.16867199  0.16663630  0.16334439  1
  Ti4+  Ti1  1  0.17039243  0.16569171  0.50254263  1
  Ti4+  Ti2  1  0.16978250  0.16676349  0.83564337  1
  Ti4+  Ti3  1  0.16285966  0.49471497  0.16626317  1
  Ti4+  Ti4  1  0.16871293  0.49586864  0.49872600  1
  Ti4+  Ti5  1  0.16674195  0.49646952  0.83343646  1
  Ti4+  Ti6  1  0.16441246  0.83180530  0.16486065  1
  Ti4+  Ti7  1  0.16692520  0.83427736  0.49838614  1
  Ti4+  Ti8  1  0.16594141  0.83066574  0.83473289  1
  Ti4+  Ti9  1  0.50083898  0.16546866  0.16659757  1
  Ti4+  Ti10  1  0.49661704  0.16859268  0.49995018  1
  Ti4+  Ti11  1  0.50239663  0.16670030  0.83431908  1
  Ti4+  Ti12  1  0.49837807  0.50033641  0.16788410  1
  Ti4+  Ti13  1  0.50274537  0.50030555  0.49580887  1
  Ti4+  Ti14  1  0.50286715  0.50307564  0.83243037  1
  Ti4+  Ti15  1  0.49731731  0.83200366  0.16708539  1
  Ti4+  Ti16  1  0.49278591  0.83423523  0.50081906  1
  Ti4+  Ti17  1  0.50040010  0.83153930  0.83719726  1
  Ti4+  Ti18  1  0.83310296  0.16654169  0.16645584  1
  Ti4+  Ti19  1  0.83291784  0.16789066  0.49919534  1
  Ti4+  Ti20  1  0.83613050  0.16625532  0.83208122  1
  Ti4+  Ti21  1  0.83162081  0.49886068  0.17005341  1
  Ti4+  Ti22  1  0.83794463  0.50652478  0.49815069  1
  Ti4+  Ti23  1  0.83082255  0.50003777  0.83175295  1
  Ti4+  Ti24  1  0.83119827  0.83434611  0.16767836  1
  Ti4+  Ti25  1  0.83049462  0.83826450  0.50184580  1
  Ti4+  Ti26  1  0.83295828  0.83353741  0.83351868  1
  Cu+  Cu27  1  0.16995764  0.16702891  -0.00316829  1
  Cu+  Cu28  1  0.16774452  0.16436353  0.33079359  1
  Cu+  Cu29  1  0.17036703  0.17273606  0.66992212  1
  Cu+  Cu30  1  0.16291221  0.49043064  -0.00152764  1
  Cu+  Cu31  1  0.16435641  0.49495569  0.33739364  1
  Cu+  Cu32  1  0.16790657  0.49824448  0.66705939  1
  Cu+  Cu33  1  0.16463332  0.83120356  0.00122002  1
  Cu+  Cu34  1  0.16518128  0.83264860  0.32782944  1
  Cu+  Cu35  1  0.16681622  0.83122062  0.66812231  1
  Cu+  Cu36  1  0.50104684  0.16438143  0.00078239  1
  Cu+  Cu37  1  0.49988331  0.16817308  0.33269025  1
  Cu+  Cu38  1  0.49928664  0.16505508  0.66728854  1
  Cu+  Cu39  1  0.50207920  0.50038350  0.00054419  1
  Cu+  Cu40  1  0.50141118  0.50840682  0.33113448  1
  Cu+  Cu41  1  0.50473502  0.50105140  0.66469480  1
  Cu+  Cu42  1  0.49713917  0.82783082  0.00181557  1
  Cu+  Cu43  1  0.49288994  0.83492318  0.33496144  1
  Cu+  Cu44  1  0.49964406  0.83275565  0.67131201  1
  Cu+  Cu45  1  0.83575366  0.16639443  -0.00131178  1
  Cu+  Cu46  1  0.83161494  0.16491871  0.33143249  1
  Cu+  Cu47  1  0.83299630  0.16917126  0.66569960  1
  Cu+  Cu48  1  0.83232190  0.49661947  0.00440854  1
  Cu+  Cu49  1  0.84443247  0.50582481  0.33202550  1
  Cu+  Cu50  1  0.82861149  0.50513351  0.66498281  1
  Cu+  Cu51  1  0.83116855  0.83183417  -0.00016843  1
  Cu+  Cu52  1  0.83070761  0.83670009  0.33604631  1
  Cu+  Cu53  1  0.83133137  0.83857846  0.66606065  1
  Cu+  Cu54  1  0.16665591  -0.00130463  0.16295104  1
  Cu+  Cu55  1  0.17209652  -0.00185686  0.50314727  1
  Cu+  Cu56  1  0.16554126  -0.00102597  0.83640215  1
  Cu+  Cu57  1  0.16848208  0.33256674  0.16131746  1
  Cu+  Cu58  1  0.17597333  0.32990931  0.50110768  1
  Cu+  Cu59  1  0.16525647  0.33133385  0.83593675  1
  Cu+  Cu60  1  0.16240962  0.66542570  0.16590327  1
  Cu+  Cu61  1  0.16460599  0.66598164  0.49895552  1
  Cu+  Cu62  1  0.16647670  0.66333367  0.83254365  1
  Cu+  Cu63  1  0.50141716  -0.00276083  0.16652327  1
  Cu+  Cu64  1  0.48962354  0.00098369  0.49909337  1
  Cu+  Cu65  1  0.50101970  -0.00118490  0.83720326  1
  Cu+  Cu66  1  0.50045842  0.33169201  0.16635884  1
  Cu+  Cu67  1  0.49878033  0.33786563  0.50206883  1
  Cu+  Cu68  1  0.50590168  0.33632897  0.83203540  1
  Cu+  Cu69  1  0.50080865  0.66534528  0.17060914  1
  Cu+  Cu70  1  0.49632556  0.66617395  0.49505666  1
  Cu+  Cu71  1  0.49961198  0.66805855  0.83754164  1
  Cu+  Cu72  1  0.83067489  0.00206337  0.16909917  1
  Cu+  Cu73  1  0.83003981  0.00114535  0.50169340  1
  Cu+  Cu74  1  0.83693286  -0.00039227  0.83245746  1
  Cu+  Cu75  1  0.83141662  0.33154599  0.16517369  1
  Cu+  Cu76  1  0.83690445  0.33648095  0.50055070  1
  Cu+  Cu77  1  0.83001456  0.32834551  0.82768146  1
  Cu+  Cu78  1  0.83122591  0.66690187  0.16930631  1
  Cu+  Cu79  1  0.83875786  0.67836370  0.49505457  1
  Cu+  Cu80  1  0.82815569  0.66627939  0.83288553  1
  Cu+  Cu81  1  0.00135546  0.16817912  0.16479527  1
  Cu+  Cu82  1  0.00133758  0.16550239  0.50049772  1
  Cu+  Cu83  1  0.00401037  0.16525338  0.83201673  1
  Cu+  Cu84  1  -0.00558951  0.49571936  0.16695280  1
  Cu+  Cu85  1  0.00272933  0.50062762  0.49222178  1
  Cu+  Cu86  1  -0.00177731  0.49567527  0.83510337  1
  Cu+  Cu87  1  -0.00003978  0.83449185  0.16501662  1
  Cu+  Cu88  1  -0.00046810  0.83655472  0.49988663  1
  Cu+  Cu89  1  -0.00119174  0.83135381  0.83173432  1
  Cu+  Cu90  1  0.33488219  0.16586562  0.16513987  1
  Cu+  Cu91  1  0.33441113  0.16722686  0.50811575  1
  Cu+  Cu92  1  0.33888906  0.16550072  0.84096593  1
  Cu+  Cu93  1  0.33106430  0.49609584  0.16521010  1
  Cu+  Cu94  1  0.33538779  0.49433815  0.49302880  1
  Cu+  Cu95  1  0.33544870  0.50196256  0.83052678  1
  Cu+  Cu96  1  0.32912189  0.83084601  0.16533238  1
  Cu+  Cu97  1  0.32998224  0.84042069  0.49937413  1
  Cu+  Cu98  1  0.33318028  0.82909741  0.83837774  1
  Cu+  Cu99  1  0.66752710  0.16238438  0.16825455  1
  Cu+  Cu100  1  0.66217827  0.16942384  0.49929052  1
  Cu+  Cu101  1  0.66794995  0.16655967  0.83091075  1
  Cu+  Cu102  1  0.66447955  0.50245561  0.17283178  1
  Cu+  Cu103  1  0.67354899  0.50254617  0.50076953  1
  Cu+  Cu104  1  0.66796137  0.50551886  0.82796526  1
  Cu+  Cu105  1  0.66371981  0.83316463  0.16718974  1
  Cu+  Cu106  1  0.66128177  0.83639498  0.50396769  1
  Cu+  Cu107  1  0.66885071  0.83120936  0.83883666  1
  Cu+  Cu108  1  0.40873979  0.41842046  0.59526501  1
  Cu+  Cu109  1  0.59463019  0.59773023  0.25995264  1
  Cu+  Cu110  1  0.92567698  0.40420715  0.40729044  1
  Cu+  Cu111  1  0.91674928  0.40196240  0.07222188  1
  Cu+  Cu112  1  0.41433339  0.06976238  0.93169573  1
  Cu+  Cu113  1  0.74297086  0.73740361  0.93106268  1
  Cu+  Cu114  1  0.06750029  0.40546864  0.92435306  1
  Cu+  Cu115  1  0.74606888  0.40852125  0.58808990  1
  Cu+  Cu116  1  0.26181858  0.26063869  0.59775658  1
  Cu+  Cu117  1  0.92904020  0.75914081  0.40430586  1
  Cu+  Cu118  1  0.07972295  0.59498145  0.40703763  1
  Cu+  Cu119  1  0.40358528  0.93161885  0.40132069  1
  Cu+  Cu120  1  0.73878141  0.59979193  0.73522726  1
  Cu+  Cu121  1  0.73603935  0.25085122  0.73761667  1
  Cu+  Cu122  1  0.26393690  0.41094253  0.07059285  1
  Cu+  Cu123  1  0.25587455  0.92091191  0.60045476  1
  Cu+  Cu124  1  0.07278692  0.06978592  0.92609112  1
  Cu+  Cu125  1  0.92990823  0.59846610  0.24721869  1
  Cu+  Cu126  1  0.73758425  0.07308514  0.26233571  1
  Cu+  Cu127  1  0.40172708  0.73572672  0.92920996  1
  Cu+  Cu128  1  0.07429805  0.25892149  0.74026102  1
  Cu+  Cu129  1  0.40592090  0.59316976  0.40487260  1
  Cu+  Cu130  1  0.41034754  0.07264506  0.59751650  1
  Cu+  Cu131  1  0.26427049  0.39949976  0.40505964  1
  Cu+  Cu132  1  0.26692654  0.25987354  0.92536136  1
  Te2-  Te133  1  0.25817827  0.25375574  0.07754889  1
  Te2-  Te134  1  0.25738309  0.24710832  0.41134651  1
  Te2-  Te135  1  0.26042959  0.25440327  0.75220363  1
  Te2-  Te136  1  0.24559329  0.58077716  0.08071427  1
  Te2-  Te137  1  0.25192990  0.58589399  0.41237693  1
  Te2-  Te138  1  0.25105193  0.58342645  0.74788030  1
  Te2-  Te139  1  0.25097591  0.91659541  0.07921985  1
  Te2-  Te140  1  0.24949654  0.92045758  0.40770148  1
  Te2-  Te141  1  0.25365027  0.91768686  0.75279204  1
  Te2-  Te142  1  0.58698710  0.24935692  0.08217779  1
  Te2-  Te143  1  0.58168448  0.25462417  0.41543954  1
  Te2-  Te144  1  0.58495034  0.25272408  0.74459237  1
  Te2-  Te145  1  0.58538727  0.58556507  0.08313745  1
  Te2-  Te146  1  0.59177577  0.58919406  0.41500388  1
  Te2-  Te147  1  0.58469915  0.59167659  0.74462692  1
  Te2-  Te148  1  0.58277420  0.91499135  0.08056665  1
  Te2-  Te149  1  0.57904709  0.92003230  0.41698412  1
  Te2-  Te150  1  0.58591407  0.91681642  0.75270187  1
  Te2-  Te151  1  0.92005453  0.25157493  0.07893391  1
  Te2-  Te152  1  0.92020077  0.25045209  0.41321456  1
  Te2-  Te153  1  0.92258591  0.25259648  0.74512669  1
  Te2-  Te154  1  0.91664115  0.58621337  0.08260627  1
  Te2-  Te155  1  0.92527170  0.59688438  0.41065251  1
  Te2-  Te156  1  0.91878976  0.58402532  0.75033026  1
  Te2-  Te157  1  0.91490308  0.91863041  0.08217927  1
  Te2-  Te158  1  0.91771365  0.92367900  0.41515411  1
  Te2-  Te159  1  0.91971781  0.91797165  0.74779073  1
  Te2-  Te160  1  0.25202502  0.08028867  0.24782496  1
  Te2-  Te161  1  0.25472408  0.07834895  0.59375975  1
  Te2-  Te162  1  0.25614111  0.07643707  0.92146166  1
  Te2-  Te163  1  0.25055473  0.41128226  0.25332252  1
  Te2-  Te164  1  0.25695143  0.41327055  0.59146215  1
  Te2-  Te165  1  0.26006056  0.41243659  0.91794685  1
  Te2-  Te166  1  0.24965197  0.74464593  0.25017351  1
  Te2-  Te167  1  0.25115677  0.74677385  0.58272908  1
  Te2-  Te168  1  0.24912644  0.74301175  0.92212142  1
  Te2-  Te169  1  0.58390103  0.07829004  0.25473037  1
  Te2-  Te170  1  0.58238170  0.08041166  0.58270871  1
  Te2-  Te171  1  0.58952055  0.08195952  0.91817612  1
  Te2-  Te172  1  0.58251276  0.41392917  0.25370481  1
  Te2-  Te173  1  0.59090744  0.41602385  0.58380439  1
  Te2-  Te174  1  0.58937183  0.41928996  0.91655180  1
  Te2-  Te175  1  0.58381480  0.75049418  0.25698108  1
  Te2-  Te176  1  0.57857405  0.74793521  0.58390146  1
  Te2-  Te177  1  0.58798218  0.74500592  0.92336407  1
  Te2-  Te178  1  0.92135520  0.08248328  0.25088554  1
  Te2-  Te179  1  0.91682048  0.08332762  0.58440185  1
  Te2-  Te180  1  0.92101041  0.07992108  0.91901237  1
  Te2-  Te181  1  0.91914532  0.40766452  0.25430603  1
  Te2-  Te182  1  0.92129381  0.42129078  0.58638455  1
  Te2-  Te183  1  0.91431027  0.40866252  0.91807490  1
  Te2-  Te184  1  0.92128324  0.74978669  0.25342244  1
  Te2-  Te185  1  0.91901065  0.75404128  0.58816624  1
  Te2-  Te186  1  0.91757021  0.74595250  0.91790560  1
  Te2-  Te187  1  0.08471972  0.25125122  0.24935406  1
  Te2-  Te188  1  0.08167919  0.25382551  0.58467483  1
  Te2-  Te189  1  0.07804317  0.25244991  0.92261217  1
  Te2-  Te190  1  0.07965428  0.58403767  0.25331138  1
  Te2-  Te191  1  0.08286625  0.58152470  0.58463404  1
  Te2-  Te192  1  0.08112574  0.58194136  0.91855470  1
  Te2-  Te193  1  0.08036854  0.92027086  0.24951145  1
  Te2-  Te194  1  0.08201081  0.91841028  0.58582082  1
  Te2-  Te195  1  0.07835651  0.91595658  0.92015808  1
  Te2-  Te196  1  0.41451742  0.25134387  0.25051498  1
  Te2-  Te197  1  0.41491003  0.25859846  0.59146051  1
  Te2-  Te198  1  0.42130791  0.25780361  0.92110204  1
  Te2-  Te199  1  0.40658546  0.58683143  0.25026959  1
  Te2-  Te200  1  0.41417915  0.58258680  0.58277633  1
  Te2-  Te201  1  0.41387671  0.58407750  0.92099004  1
  Te2-  Te202  1  0.40955411  0.91982403  0.24922837  1
  Te2-  Te203  1  0.41007749  0.91984995  0.59513885  1
  Te2-  Te204  1  0.41329264  0.91779815  0.92286389  1
  Te2-  Te205  1  0.74682434  0.25273052  0.25148830  1
  Te2-  Te206  1  0.74459762  0.25527732  0.58425729  1
  Te2-  Te207  1  0.74914298  0.25001831  0.91863390  1
  Te2-  Te208  1  0.74770096  0.58765400  0.25785731  1
  Te2-  Te209  1  0.75075016  0.59698509  0.58087959  1
  Te2-  Te210  1  0.74731629  0.58242767  0.92354531  1
  Te2-  Te211  1  0.74457480  0.91855748  0.25372709  1
  Te2-  Te212  1  0.74343901  0.92233313  0.58693990  1
  Te2-  Te213  1  0.74969475  0.92190704  0.91871969  1
  Te2-  Te214  1  0.08159180  0.08156037  0.07858975  1
  Te2-  Te215  1  0.08622455  0.08107371  0.41806175  1
  Te2-  Te216  1  0.08643170  0.08122678  0.74615145  1
  Te2-  Te217  1  0.07315440  0.40819832  0.08062096  1
  Te2-  Te218  1  0.08202934  0.40424539  0.41574444  1
  Te2-  Te219  1  0.07977650  0.41253594  0.74498004  1
  Te2-  Te220  1  0.07754202  0.74597505  0.08018076  1
  Te2-  Te221  1  0.08029483  0.74861593  0.41013495  1
  Te2-  Te222  1  0.08196056  0.74624947  0.74866157  1
  Te2-  Te223  1  0.41457986  0.07780582  0.08206867  1
  Te2-  Te224  1  0.40858869  0.08573920  0.41085054  1
  Te2-  Te225  1  0.41438894  0.07941773  0.75045434  1
  Te2-  Te226  1  0.41693192  0.41254046  0.07919594  1
  Te2-  Te227  1  0.41926830  0.41209347  0.40554776  1
  Te2-  Te228  1  0.41746103  0.41530841  0.74771359  1
  Te2-  Te229  1  0.41177454  0.74248454  0.08388516  1
  Te2-  Te230  1  0.40682680  0.74781889  0.41399661  1
  Te2-  Te231  1  0.41435911  0.74689057  0.75017396  1
  Te2-  Te232  1  0.74919849  0.08173814  0.07840973  1
  Te2-  Te233  1  0.74444702  0.08234297  0.41630593  1
  Te2-  Te234  1  0.75075885  0.08003124  0.74708068  1
  Te2-  Te235  1  0.74248456  0.41543619  0.08554084  1
  Te2-  Te236  1  0.75419529  0.42013463  0.41101171  1
  Te2-  Te237  1  0.74433254  0.41222015  0.74407919  1
  Te2-  Te238  1  0.74575672  0.74630754  0.08438919  1
  Te2-  Te239  1  0.74248857  0.75324982  0.41631610  1
  Te2-  Te240  1  0.74526473  0.75063515  0.74383152  1
