# generated using pymatgen
data_Ti27(Cu53Te54)2
_symmetry_space_group_name_H-M   'P 1'
_cell_length_a   17.90503161
_cell_length_b   17.90256838
_cell_length_c   17.90219929
_cell_angle_alpha   89.97134126
_cell_angle_beta   90.03175820
_cell_angle_gamma   89.91840887
_symmetry_Int_Tables_number   1
_chemical_formula_structural   Ti27(Cu53Te54)2
_chemical_formula_sum   'Ti27 Cu106 Te108'
_cell_volume   5738.47189913
_cell_formula_units_Z   1
loop_
 _symmetry_equiv_pos_site_id
 _symmetry_equiv_pos_as_xyz
  1  'x, y, z'
loop_
 _atom_type_symbol
 _atom_type_oxidation_number
  Ti4+  4.0
  Cu+  1.0
  Te2-  -2.0
loop_
 _atom_site_type_symbol
 _atom_site_label
 _atom_site_symmetry_multiplicity
 _atom_site_fract_x
 _atom_site_fract_y
 _atom_site_fract_z
 _atom_site_occupancy
  Ti4+  Ti0  1  0.16921557  0.16761742  0.16664779  1
  Ti4+  Ti1  1  0.16917730  0.16702885  0.50260902  1
  Ti4+  Ti2  1  0.16830479  0.16572923  0.83502947  1
  Ti4+  Ti3  1  0.16500085  0.49875573  0.16587012  1
  Ti4+  Ti4  1  0.16502980  0.49827280  0.50254594  1
  Ti4+  Ti5  1  0.16474273  0.50376401  0.83513714  1
  Ti4+  Ti6  1  0.16308501  0.83452071  0.17171532  1
  Ti4+  Ti7  1  0.16415725  0.82940502  0.49888734  1
  Ti4+  Ti8  1  0.17040402  0.83367516  0.83508597  1
  Ti4+  Ti9  1  0.50183893  0.16641146  0.16659901  1
  Ti4+  Ti10  1  0.50162979  0.17059447  0.49827587  1
  Ti4+  Ti11  1  0.49824638  0.16710788  0.83057271  1
  Ti4+  Ti12  1  0.49958675  0.50126351  0.16671624  1
  Ti4+  Ti13  1  0.49973998  0.50011701  0.49754092  1
  Ti4+  Ti14  1  0.49927013  0.50118287  0.83426478  1
  Ti4+  Ti15  1  0.49610706  0.83357750  0.16470004  1
  Ti4+  Ti16  1  0.49935869  0.83259952  0.49837663  1
  Ti4+  Ti17  1  0.50068694  0.83443162  0.83346298  1
  Ti4+  Ti18  1  0.83460120  0.16440526  0.16561442  1
  Ti4+  Ti19  1  0.83858190  0.16468463  0.50199931  1
  Ti4+  Ti20  1  0.83085780  0.16892110  0.83074685  1
  Ti4+  Ti21  1  0.83197659  0.49929721  0.16454082  1
  Ti4+  Ti22  1  0.83557512  0.49871303  0.49803849  1
  Ti4+  Ti23  1  0.83602878  0.49865630  0.83289802  1
  Ti4+  Ti24  1  0.82868226  0.83384919  0.16397414  1
  Ti4+  Ti25  1  0.83287234  0.83473245  0.50046815  1
  Ti4+  Ti26  1  0.83498035  0.83431226  0.83241178  1
  Cu+  Cu27  1  0.16934494  0.16786255  0.00268444  1
  Cu+  Cu28  1  0.16788696  0.16732067  0.33210723  1
  Cu+  Cu29  1  0.17197225  0.16494550  0.67196834  1
  Cu+  Cu30  1  0.16262281  0.50211877  -0.00223369  1
  Cu+  Cu31  1  0.16406792  0.49739020  0.33471670  1
  Cu+  Cu32  1  0.16446956  0.50032708  0.67163367  1
  Cu+  Cu33  1  0.16726678  0.83604849  0.00630041  1
  Cu+  Cu34  1  0.15893893  0.83323817  0.33781803  1
  Cu+  Cu35  1  0.17125300  0.82917202  0.66615104  1
  Cu+  Cu36  1  0.49976458  0.16613730  -0.00109766  1
  Cu+  Cu37  1  0.50457155  0.16926114  0.33277379  1
  Cu+  Cu38  1  0.49622544  0.16806725  0.66181130  1
  Cu+  Cu39  1  0.49989871  0.49906435  0.00227727  1
  Cu+  Cu40  1  0.50320182  0.50090764  0.33285759  1
  Cu+  Cu41  1  0.49755017  0.50083359  0.66733943  1
  Cu+  Cu42  1  0.49770991  0.82679042  -0.00135933  1
  Cu+  Cu43  1  0.49606402  0.83412636  0.33127946  1
  Cu+  Cu44  1  0.50243897  0.83534791  0.66769595  1
  Cu+  Cu45  1  0.83048358  0.16837315  -0.00239815  1
  Cu+  Cu46  1  0.83540789  0.16509642  0.33498247  1
  Cu+  Cu47  1  0.83835742  0.16217672  0.66692876  1
  Cu+  Cu48  1  0.83791305  0.49532855  0.00019418  1
  Cu+  Cu49  1  0.83223123  0.49715741  0.32921000  1
  Cu+  Cu50  1  0.83788102  0.50303928  0.66302545  1
  Cu+  Cu51  1  0.83029453  0.83445039  -0.00215339  1
  Cu+  Cu52  1  0.83055557  0.83519964  0.33002365  1
  Cu+  Cu53  1  0.83487035  0.83568265  0.66671645  1
  Cu+  Cu54  1  0.16475931  0.00470538  0.17310327  1
  Cu+  Cu55  1  0.16820699  -0.00617310  0.50272666  1
  Cu+  Cu56  1  0.17094737  -0.00111848  0.83166487  1
  Cu+  Cu57  1  0.16844357  0.33052273  0.16555763  1
  Cu+  Cu58  1  0.17054752  0.33529858  0.49957244  1
  Cu+  Cu59  1  0.16452294  0.33352264  0.83387429  1
  Cu+  Cu60  1  0.16336568  0.66833490  0.16794124  1
  Cu+  Cu61  1  0.16021640  0.66134800  0.49586536  1
  Cu+  Cu62  1  0.17183813  0.66667813  0.83753867  1
  Cu+  Cu63  1  0.50214298  -0.00132689  0.16698092  1
  Cu+  Cu64  1  0.50009061  0.00160173  0.49638352  1
  Cu+  Cu65  1  0.49826990  0.00190785  0.83528384  1
  Cu+  Cu66  1  0.50081364  0.33205031  0.16547864  1
  Cu+  Cu67  1  0.50264694  0.33918197  0.49637161  1
  Cu+  Cu68  1  0.49845432  0.33226647  0.83145424  1
  Cu+  Cu69  1  0.49742908  0.66945151  0.16444758  1
  Cu+  Cu70  1  0.49966009  0.66540641  0.49934032  1
  Cu+  Cu71  1  0.49927088  0.66697140  0.83448300  1
  Cu+  Cu72  1  0.83218875  -0.00132480  0.16646900  1
  Cu+  Cu73  1  0.83384749  -0.00020831  0.50945036  1
  Cu+  Cu74  1  0.83351714  0.00240000  0.82772285  1
  Cu+  Cu75  1  0.83312198  0.32998320  0.16274279  1
  Cu+  Cu76  1  0.83875108  0.33000929  0.50027113  1
  Cu+  Cu77  1  0.82598280  0.33658114  0.83332675  1
  Cu+  Cu78  1  0.82643039  0.66770205  0.16420109  1
  Cu+  Cu79  1  0.83649426  0.66524769  0.49888682  1
  Cu+  Cu80  1  0.83716829  0.66766812  0.83317891  1
  Cu+  Cu81  1  0.00415099  0.16589760  0.16707938  1
  Cu+  Cu82  1  0.00237841  0.17185495  0.50616202  1
  Cu+  Cu83  1  -0.00140792  0.16890169  0.83048973  1
  Cu+  Cu84  1  -0.00390101  0.49739304  0.16151932  1
  Cu+  Cu85  1  0.00010469  0.50519117  0.49976694  1
  Cu+  Cu86  1  0.00056049  0.50246259  0.84193883  1
  Cu+  Cu87  1  -0.00609034  0.83518813  0.16745498  1
  Cu+  Cu88  1  -0.00130978  0.83545401  0.49832856  1
  Cu+  Cu89  1  0.00681154  0.83349231  0.83483712  1
  Cu+  Cu90  1  0.33491927  0.16847600  0.16686123  1
  Cu+  Cu91  1  0.33723310  0.16800622  0.50108394  1
  Cu+  Cu92  1  0.33390794  0.16260373  0.83517650  1
  Cu+  Cu93  1  0.33373134  0.50174970  0.16706815  1
  Cu+  Cu94  1  0.33246393  0.49262585  0.50162503  1
  Cu+  Cu95  1  0.32854214  0.50421543  0.83533586  1
  Cu+  Cu96  1  0.33015094  0.83034017  0.17321478  1
  Cu+  Cu97  1  0.33022240  0.83059234  0.49844317  1
  Cu+  Cu98  1  0.33832493  0.83080212  0.83522260  1
  Cu+  Cu99  1  0.66869770  0.16563872  0.16477735  1
  Cu+  Cu100  1  0.67157454  0.16690584  0.50078434  1
  Cu+  Cu101  1  0.66264013  0.17133281  0.82742282  1
  Cu+  Cu102  1  0.66652746  0.50216175  0.16519772  1
  Cu+  Cu103  1  0.66782752  0.49718045  0.49505063  1
  Cu+  Cu104  1  0.66713642  0.49826863  0.83278375  1
  Cu+  Cu105  1  0.65972187  0.83464440  0.16219750  1
  Cu+  Cu106  1  0.66573055  0.83142699  0.49752739  1
  Cu+  Cu107  1  0.66943879  0.83537557  0.83097902  1
  Cu+  Cu108  1  0.92813813  0.92247610  0.59509061  1
  Cu+  Cu109  1  0.92664763  0.39850286  0.07709805  1
  Cu+  Cu110  1  0.07848570  0.40207532  0.92495174  1
  Cu+  Cu111  1  0.59926671  0.40850978  0.40194052  1
  Cu+  Cu112  1  0.07409912  0.08186868  0.26320162  1
  Cu+  Cu113  1  0.26002054  0.59105294  0.93221105  1
  Cu+  Cu114  1  0.73541632  0.41198099  0.92867867  1
  Cu+  Cu115  1  0.59238907  0.73825923  0.07121175  1
  Cu+  Cu116  1  0.58779428  0.92549649  0.26072763  1
  Cu+  Cu117  1  0.40398288  0.73895766  0.26238420  1
  Cu+  Cu118  1  0.40658389  0.41096358  0.59880062  1
  Cu+  Cu119  1  0.92652041  0.59592609  0.59336438  1
  Cu+  Cu120  1  0.26331063  0.07218044  0.74538314  1
  Cu+  Cu121  1  0.92073312  0.92470267  0.25645684  1
  Cu+  Cu122  1  0.92775828  0.26235359  0.59676291  1
  Cu+  Cu123  1  0.41081054  0.07160156  0.58510303  1
  Cu+  Cu124  1  0.40818102  0.07476969  0.93219674  1
  Cu+  Cu125  1  0.07125070  0.58729201  0.40123007  1
  Cu+  Cu126  1  0.40834550  0.73674868  0.92455556  1
  Cu+  Cu127  1  0.73794532  0.07433970  0.59442722  1
  Cu+  Cu128  1  0.93029412  0.07281251  0.74627682  1
  Cu+  Cu129  1  0.25845995  0.40775084  0.40359948  1
  Cu+  Cu130  1  0.07210022  0.93023631  0.41460297  1
  Cu+  Cu131  1  0.92074970  0.59845148  0.93048893  1
  Cu+  Cu132  1  0.26229430  0.91474426  0.59266121  1
  Te2-  Te133  1  0.25545474  0.25310523  0.08035985  1
  Te2-  Te134  1  0.25365609  0.25057321  0.41478492  1
  Te2-  Te135  1  0.25379352  0.25394010  0.75207366  1
  Te2-  Te136  1  0.25040740  0.58737264  0.08369741  1
  Te2-  Te137  1  0.25250516  0.58203658  0.41605720  1
  Te2-  Te138  1  0.25124558  0.58755288  0.74635809  1
  Te2-  Te139  1  0.25015701  0.91991623  0.09023509  1
  Te2-  Te140  1  0.25110763  0.91652526  0.41200380  1
  Te2-  Te141  1  0.25929673  0.91706722  0.74669562  1
  Te2-  Te142  1  0.58595593  0.25053642  0.08000813  1
  Te2-  Te143  1  0.59156596  0.25350305  0.41379312  1
  Te2-  Te144  1  0.58081520  0.25397725  0.74260159  1
  Te2-  Te145  1  0.58555935  0.58635723  0.07943046  1
  Te2-  Te146  1  0.58681299  0.58731945  0.41373889  1
  Te2-  Te147  1  0.58389153  0.58452792  0.74920886  1
  Te2-  Te148  1  0.58062450  0.91905525  0.07478427  1
  Te2-  Te149  1  0.58532237  0.91892706  0.41377030  1
  Te2-  Te150  1  0.58552457  0.92128893  0.74939925  1
  Te2-  Te151  1  0.92163529  0.24751054  0.07832134  1
  Te2-  Te152  1  0.92285673  0.24994355  0.41332184  1
  Te2-  Te153  1  0.91808716  0.25840918  0.74852569  1
  Te2-  Te154  1  0.91786860  0.59020088  0.08106195  1
  Te2-  Te155  1  0.91781607  0.58535051  0.40752455  1
  Te2-  Te156  1  0.92314974  0.58636779  0.74809046  1
  Te2-  Te157  1  0.91563114  0.91916605  0.07829217  1
  Te2-  Te158  1  0.91702052  0.92398745  0.41246048  1
  Te2-  Te159  1  0.92555444  0.91949410  0.74762996  1
  Te2-  Te160  1  0.25622724  0.08286303  0.25392098  1
  Te2-  Te161  1  0.25595544  0.07740051  0.58745333  1
  Te2-  Te162  1  0.25266902  0.07828917  0.92366888  1
  Te2-  Te163  1  0.25216380  0.41371991  0.25059898  1
  Te2-  Te164  1  0.25024286  0.41295228  0.59322485  1
  Te2-  Te165  1  0.25084467  0.41447916  0.92005328  1
  Te2-  Te166  1  0.24647823  0.74589901  0.25855184  1
  Te2-  Te167  1  0.25021158  0.74077816  0.58137693  1
  Te2-  Te168  1  0.25472252  0.74897878  0.92594305  1
  Te2-  Te169  1  0.58872413  0.08093360  0.25277020  1
  Te2-  Te170  1  0.58597191  0.08142022  0.58463196  1
  Te2-  Te171  1  0.58695112  0.08362092  0.91566074  1
  Te2-  Te172  1  0.58741100  0.41405214  0.24958923  1
  Te2-  Te173  1  0.58668970  0.41712860  0.58652998  1
  Te2-  Te174  1  0.58289119  0.41260863  0.91940132  1
  Te2-  Te175  1  0.58412243  0.74787146  0.25190763  1
  Te2-  Te176  1  0.58395416  0.74821071  0.58415562  1
  Te2-  Te177  1  0.59011709  0.74676450  0.91637141  1
  Te2-  Te178  1  0.92085714  0.07906661  0.25470474  1
  Te2-  Te179  1  0.92971181  0.07646912  0.58981501  1
  Te2-  Te180  1  0.91677950  0.08359817  0.91624726  1
  Te2-  Te181  1  0.91790068  0.41190510  0.24913765  1
  Te2-  Te182  1  0.92355267  0.41413515  0.58536463  1
  Te2-  Te183  1  0.92253014  0.40577458  0.91989999  1
  Te2-  Te184  1  0.91336064  0.74656624  0.25003664  1
  Te2-  Te185  1  0.92032546  0.74839438  0.58596121  1
  Te2-  Te186  1  0.92170194  0.75131538  0.92044971  1
  Te2-  Te187  1  0.08179065  0.25424612  0.25289603  1
  Te2-  Te188  1  0.08772854  0.25373034  0.59049229  1
  Te2-  Te189  1  0.08014539  0.24898219  0.92094133  1
  Te2-  Te190  1  0.07721818  0.58343216  0.24917280  1
  Te2-  Te191  1  0.08029903  0.58685091  0.59106858  1
  Te2-  Te192  1  0.07846725  0.59417121  0.92278860  1
  Te2-  Te193  1  0.07478860  0.92338972  0.25755055  1
  Te2-  Te194  1  0.08094850  0.91657351  0.59046876  1
  Te2-  Te195  1  0.08635497  0.91981473  0.91941999  1
  Te2-  Te196  1  0.41708650  0.25192128  0.25210780  1
  Te2-  Te197  1  0.41467060  0.25917702  0.58330673  1
  Te2-  Te198  1  0.41370385  0.25226322  0.91794095  1
  Te2-  Te199  1  0.41376319  0.58604790  0.25386359  1
  Te2-  Te200  1  0.41263559  0.58485531  0.58348437  1
  Te2-  Te201  1  0.41316955  0.58590698  0.92391255  1
  Te2-  Te202  1  0.41152060  0.92184337  0.25162197  1
  Te2-  Te203  1  0.41380763  0.91873784  0.58619160  1
  Te2-  Te204  1  0.41369230  0.92036071  0.92151621  1
  Te2-  Te205  1  0.75062056  0.24935661  0.25149530  1
  Te2-  Te206  1  0.75211878  0.25154473  0.58691553  1
  Te2-  Te207  1  0.74273640  0.25307036  0.91766684  1
  Te2-  Te208  1  0.74702171  0.58466037  0.25125455  1
  Te2-  Te209  1  0.74786676  0.58387634  0.58123640  1
  Te2-  Te210  1  0.75043937  0.58425192  0.91816992  1
  Te2-  Te211  1  0.74162721  0.92021755  0.25057201  1
  Te2-  Te212  1  0.74274711  0.91714316  0.58778713  1
  Te2-  Te213  1  0.74970406  0.92166240  0.91486731  1
  Te2-  Te214  1  0.08337021  0.08086537  0.07996569  1
  Te2-  Te215  1  0.08032984  0.08246276  0.41809471  1
  Te2-  Te216  1  0.08212766  0.07950044  0.74789146  1
  Te2-  Te217  1  0.08055279  0.41000535  0.07904496  1
  Te2-  Te218  1  0.07821286  0.41212709  0.41719151  1
  Te2-  Te219  1  0.07782121  0.41629883  0.75093810  1
  Te2-  Te220  1  0.07880304  0.75141704  0.08431832  1
  Te2-  Te221  1  0.07386557  0.74331675  0.41305709  1
  Te2-  Te222  1  0.08696384  0.74758375  0.75042431  1
  Te2-  Te223  1  0.41439981  0.07983567  0.08330093  1
  Te2-  Te224  1  0.41630251  0.08475325  0.41184255  1
  Te2-  Te225  1  0.41366739  0.07710490  0.74211602  1
  Te2-  Te226  1  0.41418015  0.41487774  0.08282727  1
  Te2-  Te227  1  0.41328684  0.41353579  0.40780349  1
  Te2-  Te228  1  0.41039329  0.41608545  0.75163951  1
  Te2-  Te229  1  0.40613647  0.74603289  0.08028669  1
  Te2-  Te230  1  0.41267686  0.74604238  0.41480902  1
  Te2-  Te231  1  0.41675987  0.74802421  0.74623288  1
  Te2-  Te232  1  0.74930605  0.08055769  0.07968151  1
  Te2-  Te233  1  0.75160401  0.07921848  0.41697124  1
  Te2-  Te234  1  0.74290282  0.08173372  0.74609066  1
  Te2-  Te235  1  0.74349710  0.41203924  0.08028692  1
  Te2-  Te236  1  0.75231503  0.40936275  0.41260009  1
  Te2-  Te237  1  0.74969983  0.41906830  0.74239048  1
  Te2-  Te238  1  0.74398611  0.74799189  0.07632904  1
  Te2-  Te239  1  0.75030431  0.74826453  0.41439327  1
  Te2-  Te240  1  0.75093502  0.74808491  0.74743839  1
