# generated using pymatgen
data_Ti27(Cu53Te54)2
_symmetry_space_group_name_H-M   'P 1'
_cell_length_a   17.91751128
_cell_length_b   17.91617871
_cell_length_c   17.91953414
_cell_angle_alpha   89.96675438
_cell_angle_beta   89.91667549
_cell_angle_gamma   89.98480171
_symmetry_Int_Tables_number   1
_chemical_formula_structural   Ti27(Cu53Te54)2
_chemical_formula_sum   'Ti27 Cu106 Te108'
_cell_volume   5752.40214864
_cell_formula_units_Z   1
loop_
 _symmetry_equiv_pos_site_id
 _symmetry_equiv_pos_as_xyz
  1  'x, y, z'
loop_
 _atom_type_symbol
 _atom_type_oxidation_number
  Ti4+  4.0
  Cu+  1.0
  Te2-  -2.0
loop_
 _atom_site_type_symbol
 _atom_site_label
 _atom_site_symmetry_multiplicity
 _atom_site_fract_x
 _atom_site_fract_y
 _atom_site_fract_z
 _atom_site_occupancy
  Ti4+  Ti0  1  0.16450968  0.16525423  0.16547924  1
  Ti4+  Ti1  1  0.16560920  0.16390367  0.50148197  1
  Ti4+  Ti2  1  0.16719808  0.16467249  0.83349429  1
  Ti4+  Ti3  1  0.16746243  0.49722659  0.16620786  1
  Ti4+  Ti4  1  0.16929236  0.50170080  0.49858697  1
  Ti4+  Ti5  1  0.17127995  0.50027812  0.83370145  1
  Ti4+  Ti6  1  0.16635222  0.83641499  0.16633147  1
  Ti4+  Ti7  1  0.16643734  0.83339295  0.49515779  1
  Ti4+  Ti8  1  0.16699357  0.83879926  0.83373202  1
  Ti4+  Ti9  1  0.49432707  0.16897057  0.16929921  1
  Ti4+  Ti10  1  0.50177372  0.16687151  0.50056388  1
  Ti4+  Ti11  1  0.50104429  0.16754180  0.83271980  1
  Ti4+  Ti12  1  0.49677536  0.49848075  0.17003641  1
  Ti4+  Ti13  1  0.49812151  0.50030927  0.50148910  1
  Ti4+  Ti14  1  0.50157428  0.50041527  0.83494138  1
  Ti4+  Ti15  1  0.50060513  0.83472880  0.16635993  1
  Ti4+  Ti16  1  0.50103468  0.83293845  0.49958445  1
  Ti4+  Ti17  1  0.49898174  0.83498804  0.83235165  1
  Ti4+  Ti18  1  0.82695161  0.16846882  0.16738657  1
  Ti4+  Ti19  1  0.83456046  0.16206443  0.50010206  1
  Ti4+  Ti20  1  0.83405928  0.16530589  0.83284664  1
  Ti4+  Ti21  1  0.83473122  0.50090729  0.16382153  1
  Ti4+  Ti22  1  0.83655473  0.49934535  0.50068795  1
  Ti4+  Ti23  1  0.83774648  0.50094804  0.83120895  1
  Ti4+  Ti24  1  0.83208181  0.83278046  0.16725487  1
  Ti4+  Ti25  1  0.83633668  0.82910788  0.50253614  1
  Ti4+  Ti26  1  0.82812677  0.83092075  0.83302636  1
  Cu+  Cu27  1  0.16056267  0.16182539  -0.00145975  1
  Cu+  Cu28  1  0.16295132  0.16654746  0.33491338  1
  Cu+  Cu29  1  0.16776689  0.16160522  0.66890977  1
  Cu+  Cu30  1  0.17155419  0.49574324  0.00048208  1
  Cu+  Cu31  1  0.16679212  0.50459895  0.33218408  1
  Cu+  Cu32  1  0.17174537  0.50043465  0.66734223  1
  Cu+  Cu33  1  0.16824169  0.83872054  -0.00012957  1
  Cu+  Cu34  1  0.16487236  0.84034533  0.33026584  1
  Cu+  Cu35  1  0.16568543  0.83692441  0.66181927  1
  Cu+  Cu36  1  0.49678897  0.16682081  0.00077261  1
  Cu+  Cu37  1  0.50096711  0.17109438  0.33488967  1
  Cu+  Cu38  1  0.50312154  0.16777565  0.66574624  1
  Cu+  Cu39  1  0.50166339  0.49854491  -0.00001326  1
  Cu+  Cu40  1  0.49212542  0.49886801  0.33652725  1
  Cu+  Cu41  1  0.49756580  0.50301145  0.66952468  1
  Cu+  Cu42  1  0.49915739  0.83272231  -0.00115894  1
  Cu+  Cu43  1  0.50396327  0.83351136  0.33218771  1
  Cu+  Cu44  1  0.49940313  0.83268840  0.66583783  1
  Cu+  Cu45  1  0.83029146  0.16743892  -0.00017623  1
  Cu+  Cu46  1  0.82694616  0.16741523  0.33587022  1
  Cu+  Cu47  1  0.83792415  0.16355811  0.66563318  1
  Cu+  Cu48  1  0.83724968  0.50100118  -0.00266142  1
  Cu+  Cu49  1  0.83455841  0.49916586  0.32999237  1
  Cu+  Cu50  1  0.83932765  0.50376927  0.66542229  1
  Cu+  Cu51  1  0.82914525  0.83605055  0.00141093  1
  Cu+  Cu52  1  0.83506994  0.82941717  0.33518088  1
  Cu+  Cu53  1  0.82887201  0.82158234  0.66834715  1
  Cu+  Cu54  1  0.16684918  -0.00007267  0.16820122  1
  Cu+  Cu55  1  0.16605996  -0.00401382  0.49838439  1
  Cu+  Cu56  1  0.17046968  0.00326041  0.83677897  1
  Cu+  Cu57  1  0.17009220  0.33090951  0.16391035  1
  Cu+  Cu58  1  0.16568412  0.33567044  0.50118682  1
  Cu+  Cu59  1  0.16879406  0.33201310  0.83382135  1
  Cu+  Cu60  1  0.16673235  0.66810119  0.16501758  1
  Cu+  Cu61  1  0.16691699  0.66972327  0.49748318  1
  Cu+  Cu62  1  0.16754357  0.66859296  0.83434427  1
  Cu+  Cu63  1  0.49878043  0.00459232  0.16361859  1
  Cu+  Cu64  1  0.50338979  0.00245159  0.49967613  1
  Cu+  Cu65  1  0.50095336  0.00179662  0.83406338  1
  Cu+  Cu66  1  0.49296313  0.33477234  0.17578418  1
  Cu+  Cu67  1  0.50161419  0.33317000  0.50403356  1
  Cu+  Cu68  1  0.50379449  0.33391443  0.83431402  1
  Cu+  Cu69  1  0.49936278  0.66930962  0.16680815  1
  Cu+  Cu70  1  0.49853650  0.66630373  0.49775773  1
  Cu+  Cu71  1  0.49761787  0.66658899  0.83180396  1
  Cu+  Cu72  1  0.82658735  0.00021646  0.16580184  1
  Cu+  Cu73  1  0.83140996  -0.00423308  0.50005723  1
  Cu+  Cu74  1  0.83113694  -0.00467239  0.83416729  1
  Cu+  Cu75  1  0.82802581  0.33787403  0.16756632  1
  Cu+  Cu76  1  0.83861658  0.32895262  0.50085248  1
  Cu+  Cu77  1  0.83702857  0.33497272  0.83052783  1
  Cu+  Cu78  1  0.83531228  0.66493102  0.16482838  1
  Cu+  Cu79  1  0.84034208  0.66428908  0.50601570  1
  Cu+  Cu80  1  0.83655887  0.66710541  0.82933961  1
  Cu+  Cu81  1  -0.00503385  0.16653215  0.16518930  1
  Cu+  Cu82  1  -0.00181091  0.16522484  0.50589003  1
  Cu+  Cu83  1  0.00153675  0.16245172  0.83504597  1
  Cu+  Cu84  1  0.00019198  0.49883112  0.16274479  1
  Cu+  Cu85  1  0.00321899  0.50238783  0.50206999  1
  Cu+  Cu86  1  0.00723763  0.50027269  0.83423037  1
  Cu+  Cu87  1  -0.00007969  0.83206363  0.16531882  1
  Cu+  Cu88  1  0.00128393  0.82782408  0.49039468  1
  Cu+  Cu89  1  -0.00404768  0.83538466  0.83511505  1
  Cu+  Cu90  1  0.32691024  0.17052458  0.17026756  1
  Cu+  Cu91  1  0.33679445  0.16459900  0.50021798  1
  Cu+  Cu92  1  0.33591116  0.16502360  0.83086990  1
  Cu+  Cu93  1  0.33026410  0.49396578  0.17024067  1
  Cu+  Cu94  1  0.33424396  0.50428499  0.49696494  1
  Cu+  Cu95  1  0.33756550  0.50332242  0.83308609  1
  Cu+  Cu96  1  0.33537606  0.83630769  0.16798415  1
  Cu+  Cu97  1  0.33402103  0.83426696  0.49907778  1
  Cu+  Cu98  1  0.33287271  0.83908478  0.83401243  1
  Cu+  Cu99  1  0.65705521  0.16887374  0.16560637  1
  Cu+  Cu100  1  0.66896568  0.16538278  0.49801821  1
  Cu+  Cu101  1  0.66780626  0.16752623  0.83404006  1
  Cu+  Cu102  1  0.66846116  0.49875279  0.16732911  1
  Cu+  Cu103  1  0.66294798  0.49779837  0.49881418  1
  Cu+  Cu104  1  0.66967733  0.49966457  0.83205454  1
  Cu+  Cu105  1  0.66780333  0.83550315  0.16501531  1
  Cu+  Cu106  1  0.66882569  0.83011061  0.50250597  1
  Cu+  Cu107  1  0.66325096  0.83429542  0.82820910  1
  Cu+  Cu108  1  0.73564361  0.73332079  0.59104550  1
  Cu+  Cu109  1  0.07234625  0.92938785  0.40395083  1
  Cu+  Cu110  1  0.93544501  0.59104307  0.59447134  1
  Cu+  Cu111  1  0.58518834  0.07728947  0.07064171  1
  Cu+  Cu112  1  0.74135497  0.41453842  0.26005102  1
  Cu+  Cu113  1  0.26554578  0.92846047  0.25702351  1
  Cu+  Cu114  1  0.26643592  0.07869936  0.73892008  1
  Cu+  Cu115  1  0.93079969  0.74246882  0.74575067  1
  Cu+  Cu116  1  0.92779345  0.25778457  0.59617636  1
  Cu+  Cu117  1  0.26400731  0.92802478  0.92862031  1
  Cu+  Cu118  1  0.40216786  0.40694364  0.26814836  1
  Cu+  Cu119  1  0.40722153  0.59586310  0.74216315  1
  Cu+  Cu120  1  0.26266349  0.92126152  0.58963361  1
  Cu+  Cu121  1  0.26090384  0.40279345  0.06883992  1
  Cu+  Cu122  1  0.92046800  0.92175373  0.92891239  1
  Cu+  Cu123  1  0.74211325  0.26138956  0.41786192  1
  Cu+  Cu124  1  0.73874075  0.92631755  0.07325843  1
  Cu+  Cu125  1  0.07059511  0.07469509  0.92802896  1
  Cu+  Cu126  1  0.92571015  0.73483123  0.40225396  1
  Cu+  Cu127  1  0.25474549  0.59711881  0.25427005  1
  Cu+  Cu128  1  0.73802556  0.92820447  0.74042826  1
  Cu+  Cu129  1  0.24686780  0.25893350  0.26612277  1
  Cu+  Cu130  1  0.58862786  0.26075146  0.25932191  1
  Cu+  Cu131  1  0.74025327  0.91784160  0.40795780  1
  Cu+  Cu132  1  0.40886081  0.59858856  0.40637548  1
  Te2-  Te133  1  0.25058193  0.24784179  0.07397636  1
  Te2-  Te134  1  0.25117561  0.25093449  0.41876038  1
  Te2-  Te135  1  0.25268802  0.25061248  0.74704981  1
  Te2-  Te136  1  0.25442248  0.58456513  0.08227889  1
  Te2-  Te137  1  0.25442540  0.59173942  0.41090450  1
  Te2-  Te138  1  0.25430994  0.58939609  0.74759463  1
  Te2-  Te139  1  0.25493112  0.92287170  0.08148366  1
  Te2-  Te140  1  0.25633740  0.92124712  0.41072776  1
  Te2-  Te141  1  0.25412219  0.92285389  0.74348013  1
  Te2-  Te142  1  0.57724136  0.25801383  0.08285812  1
  Te2-  Te143  1  0.58845018  0.25751172  0.41499497  1
  Te2-  Te144  1  0.58722356  0.25215693  0.74832332  1
  Te2-  Te145  1  0.58272340  0.58248309  0.08576802  1
  Te2-  Te146  1  0.58372709  0.58366250  0.41277394  1
  Te2-  Te147  1  0.58714394  0.58596918  0.74871754  1
  Te2-  Te148  1  0.58533299  0.92149157  0.07725256  1
  Te2-  Te149  1  0.58777942  0.91818836  0.41518047  1
  Te2-  Te150  1  0.58325375  0.92191932  0.74399758  1
  Te2-  Te151  1  0.91250440  0.25327526  0.08309173  1
  Te2-  Te152  1  0.92123055  0.24726258  0.41262166  1
  Te2-  Te153  1  0.92262576  0.24989342  0.74903899  1
  Te2-  Te154  1  0.92115651  0.58618304  0.07875847  1
  Te2-  Te155  1  0.92149858  0.58276383  0.41108062  1
  Te2-  Te156  1  0.92892896  0.58805509  0.74645600  1
  Te2-  Te157  1  0.91897062  0.92135953  0.08313181  1
  Te2-  Te158  1  0.91896846  0.91976648  0.41302977  1
  Te2-  Te159  1  0.91445129  0.91555124  0.74396388  1
  Te2-  Te160  1  0.25079422  0.08062006  0.25520493  1
  Te2-  Te161  1  0.25499312  0.07721312  0.58443496  1
  Te2-  Te162  1  0.25762848  0.08225143  0.92324768  1
  Te2-  Te163  1  0.25014672  0.40950606  0.26023597  1
  Te2-  Te164  1  0.25452258  0.41673274  0.58298149  1
  Te2-  Te165  1  0.25837841  0.41219373  0.91628755  1
  Te2-  Te166  1  0.25220504  0.75073808  0.25275280  1
  Te2-  Te167  1  0.25172750  0.74908212  0.58371136  1
  Te2-  Te168  1  0.25145220  0.75219270  0.91793342  1
  Te2-  Te169  1  0.58204352  0.08179589  0.25418399  1
  Te2-  Te170  1  0.58859832  0.08252445  0.58494846  1
  Te2-  Te171  1  0.58691361  0.08168854  0.91910976  1
  Te2-  Te172  1  0.58613658  0.41520003  0.25855046  1
  Te2-  Te173  1  0.58342644  0.41685857  0.58855420  1
  Te2-  Te174  1  0.58868662  0.41525084  0.91886912  1
  Te2-  Te175  1  0.58714151  0.74927472  0.24973446  1
  Te2-  Te176  1  0.58324157  0.74453650  0.58604715  1
  Te2-  Te177  1  0.58361590  0.74866003  0.91586288  1
  Te2-  Te178  1  0.91136336  0.08316472  0.25100988  1
  Te2-  Te179  1  0.91855813  0.07375817  0.58569865  1
  Te2-  Te180  1  0.91674417  0.07760041  0.92268145  1
  Te2-  Te181  1  0.92092607  0.41401601  0.24974544  1
  Te2-  Te182  1  0.92289793  0.41282305  0.58595513  1
  Te2-  Te183  1  0.92222847  0.41571442  0.91610092  1
  Te2-  Te184  1  0.92015228  0.74537644  0.24997854  1
  Te2-  Te185  1  0.92960390  0.74568503  0.58965541  1
  Te2-  Te186  1  0.91594158  0.74821690  0.92129405  1
  Te2-  Te187  1  0.07903687  0.25129411  0.24959999  1
  Te2-  Te188  1  0.08367616  0.25112402  0.58850984  1
  Te2-  Te189  1  0.08081938  0.25227796  0.91762239  1
  Te2-  Te190  1  0.07981798  0.58501303  0.24846068  1
  Te2-  Te191  1  0.08698215  0.58817591  0.58723581  1
  Te2-  Te192  1  0.08726071  0.58437892  0.92119546  1
  Te2-  Te193  1  0.07473886  0.92228443  0.24981797  1
  Te2-  Te194  1  0.07569161  0.91604616  0.58023875  1
  Te2-  Te195  1  0.07677511  0.92185189  0.92168499  1
  Te2-  Te196  1  0.40543225  0.25336727  0.26034628  1
  Te2-  Te197  1  0.41548151  0.25083575  0.58600904  1
  Te2-  Te198  1  0.41475962  0.25206631  0.91671740  1
  Te2-  Te199  1  0.41052459  0.59050788  0.25284636  1
  Te2-  Te200  1  0.41219816  0.58868589  0.58688816  1
  Te2-  Te201  1  0.41629322  0.58616959  0.92250883  1
  Te2-  Te202  1  0.41828913  0.92266527  0.25372697  1
  Te2-  Te203  1  0.41696354  0.92081394  0.58468488  1
  Te2-  Te204  1  0.41624203  0.92245220  0.92064037  1
  Te2-  Te205  1  0.74115903  0.25628672  0.25549911  1
  Te2-  Te206  1  0.74940486  0.24954606  0.58664789  1
  Te2-  Te207  1  0.75070155  0.25358554  0.91540535  1
  Te2-  Te208  1  0.74887558  0.58679825  0.25155957  1
  Te2-  Te209  1  0.74565470  0.58195694  0.58503052  1
  Te2-  Te210  1  0.75211200  0.58569260  0.91556845  1
  Te2-  Te211  1  0.74666993  0.91757287  0.25593563  1
  Te2-  Te212  1  0.74845038  0.91654970  0.58900778  1
  Te2-  Te213  1  0.73992793  0.91929162  0.91917377  1
  Te2-  Te214  1  0.07628886  0.07762266  0.08345449  1
  Te2-  Te215  1  0.07794435  0.08180087  0.41543646  1
  Te2-  Te216  1  0.08026957  0.07692050  0.74816435  1
  Te2-  Te217  1  0.08232636  0.41188167  0.08028299  1
  Te2-  Te218  1  0.08255020  0.41778037  0.41464406  1
  Te2-  Te219  1  0.08663657  0.41509452  0.74796860  1
  Te2-  Te220  1  0.08380185  0.75043219  0.07948358  1
  Te2-  Te221  1  0.08371070  0.74338725  0.40574760  1
  Te2-  Te222  1  0.08379601  0.75148006  0.74825245  1
  Te2-  Te223  1  0.40803782  0.08473158  0.08321706  1
  Te2-  Te224  1  0.41783005  0.08183100  0.41368563  1
  Te2-  Te225  1  0.41836445  0.07975219  0.74445871  1
  Te2-  Te226  1  0.41452556  0.41273691  0.08027464  1
  Te2-  Te227  1  0.41138043  0.40862067  0.41930189  1
  Te2-  Te228  1  0.41625276  0.41312627  0.74993685  1
  Te2-  Te229  1  0.41406663  0.75022289  0.08215478  1
  Te2-  Te230  1  0.41406381  0.75108327  0.41151294  1
  Te2-  Te231  1  0.41117011  0.75097787  0.74724952  1
  Te2-  Te232  1  0.74089331  0.08272730  0.07892540  1
  Te2-  Te233  1  0.74572092  0.07527800  0.41362741  1
  Te2-  Te234  1  0.74775880  0.08143940  0.74680936  1
  Te2-  Te235  1  0.74804850  0.41739984  0.07634030  1
  Te2-  Te236  1  0.74791316  0.41359768  0.41510297  1
  Te2-  Te237  1  0.75285182  0.41719173  0.74529495  1
  Te2-  Te238  1  0.74793045  0.74620920  0.08194406  1
  Te2-  Te239  1  0.75050922  0.74183156  0.41778036  1
  Te2-  Te240  1  0.73992981  0.73940537  0.74888408  1
