# generated using pymatgen
data_Ti27(Cu53Te54)2
_symmetry_space_group_name_H-M   'P 1'
_cell_length_a   17.89891307
_cell_length_b   17.89155015
_cell_length_c   17.89715398
_cell_angle_alpha   89.99068554
_cell_angle_beta   90.02753395
_cell_angle_gamma   89.95955423
_symmetry_Int_Tables_number   1
_chemical_formula_structural   Ti27(Cu53Te54)2
_chemical_formula_sum   'Ti27 Cu106 Te108'
_cell_volume   5731.36990880
_cell_formula_units_Z   1
loop_
 _symmetry_equiv_pos_site_id
 _symmetry_equiv_pos_as_xyz
  1  'x, y, z'
loop_
 _atom_type_symbol
 _atom_type_oxidation_number
  Ti4+  4.0
  Cu+  1.0
  Te2-  -2.0
loop_
 _atom_site_type_symbol
 _atom_site_label
 _atom_site_symmetry_multiplicity
 _atom_site_fract_x
 _atom_site_fract_y
 _atom_site_fract_z
 _atom_site_occupancy
  Ti4+  Ti0  1  0.16659366  0.16843376  0.16689837  1
  Ti4+  Ti1  1  0.17383551  0.16688808  0.50019899  1
  Ti4+  Ti2  1  0.16696802  0.16823256  0.82942939  1
  Ti4+  Ti3  1  0.16734597  0.50254971  0.16808756  1
  Ti4+  Ti4  1  0.16408332  0.50168194  0.50127137  1
  Ti4+  Ti5  1  0.16682722  0.49982150  0.83304465  1
  Ti4+  Ti6  1  0.16718842  0.83595014  0.16727448  1
  Ti4+  Ti7  1  0.16543011  0.83328193  0.50322498  1
  Ti4+  Ti8  1  0.16573368  0.83545045  0.83390813  1
  Ti4+  Ti9  1  0.50058494  0.16730939  0.16991803  1
  Ti4+  Ti10  1  0.50227822  0.16511385  0.49682015  1
  Ti4+  Ti11  1  0.50031508  0.16610551  0.83373695  1
  Ti4+  Ti12  1  0.49619785  0.49589806  0.16386110  1
  Ti4+  Ti13  1  0.49998462  0.50030431  0.49903301  1
  Ti4+  Ti14  1  0.50277428  0.49849363  0.82871882  1
  Ti4+  Ti15  1  0.49760791  0.83219878  0.16591764  1
  Ti4+  Ti16  1  0.50075783  0.83076304  0.50079386  1
  Ti4+  Ti17  1  0.49745098  0.83216961  0.83312023  1
  Ti4+  Ti18  1  0.83449229  0.16732242  0.16940340  1
  Ti4+  Ti19  1  0.83580506  0.16529774  0.50149008  1
  Ti4+  Ti20  1  0.83124588  0.16376837  0.83677977  1
  Ti4+  Ti21  1  0.83094438  0.49979034  0.16366373  1
  Ti4+  Ti22  1  0.83484823  0.50118857  0.49804616  1
  Ti4+  Ti23  1  0.83449300  0.50112983  0.83199076  1
  Ti4+  Ti24  1  0.83274974  0.83229644  0.16800332  1
  Ti4+  Ti25  1  0.82948437  0.83185257  0.50175234  1
  Ti4+  Ti26  1  0.83266196  0.83806825  0.83394254  1
  Cu+  Cu27  1  0.16369905  0.17008377  -0.00405725  1
  Cu+  Cu28  1  0.16759772  0.17148988  0.33602647  1
  Cu+  Cu29  1  0.17449514  0.16014418  0.66520996  1
  Cu+  Cu30  1  0.16922312  0.50164245  0.00165689  1
  Cu+  Cu31  1  0.16388197  0.50562674  0.33628068  1
  Cu+  Cu32  1  0.16737899  0.49867673  0.66880134  1
  Cu+  Cu33  1  0.16955709  0.83494244  0.00301469  1
  Cu+  Cu34  1  0.16560565  0.83573873  0.33196812  1
  Cu+  Cu35  1  0.16436795  0.83378657  0.66591665  1
  Cu+  Cu36  1  0.50037179  0.16868533  0.00372182  1
  Cu+  Cu37  1  0.50408936  0.16658341  0.32989952  1
  Cu+  Cu38  1  0.50166967  0.16520172  0.66518483  1
  Cu+  Cu39  1  0.49747035  0.49502024  -0.00683902  1
  Cu+  Cu40  1  0.49564455  0.49720847  0.33205439  1
  Cu+  Cu41  1  0.50614986  0.50342512  0.66237122  1
  Cu+  Cu42  1  0.50017023  0.83538737  -0.00228703  1
  Cu+  Cu43  1  0.49742343  0.83189074  0.33431835  1
  Cu+  Cu44  1  0.49632419  0.82627666  0.66664887  1
  Cu+  Cu45  1  0.83097814  0.16763757  0.00655122  1
  Cu+  Cu46  1  0.83814702  0.16657976  0.33480084  1
  Cu+  Cu47  1  0.82944212  0.16132512  0.66939828  1
  Cu+  Cu48  1  0.82985804  0.49781925  -0.00365952  1
  Cu+  Cu49  1  0.83180724  0.50358368  0.32919626  1
  Cu+  Cu50  1  0.83622704  0.50325585  0.66721899  1
  Cu+  Cu51  1  0.83193121  0.83572546  0.00249078  1
  Cu+  Cu52  1  0.83258135  0.83032363  0.33564622  1
  Cu+  Cu53  1  0.83156916  0.83882081  0.66636909  1
  Cu+  Cu54  1  0.16642134  0.00036159  0.16723203  1
  Cu+  Cu55  1  0.17397488  0.00015159  0.50780312  1
  Cu+  Cu56  1  0.16483245  0.00504587  0.83284383  1
  Cu+  Cu57  1  0.16757494  0.33568081  0.16886921  1
  Cu+  Cu58  1  0.16522324  0.33203418  0.49754438  1
  Cu+  Cu59  1  0.16926175  0.33532102  0.82630776  1
  Cu+  Cu60  1  0.16948222  0.67193111  0.16461973  1
  Cu+  Cu61  1  0.16003727  0.66781592  0.50558815  1
  Cu+  Cu62  1  0.16510183  0.66534682  0.83416544  1
  Cu+  Cu63  1  0.49900254  0.00135690  0.16947961  1
  Cu+  Cu64  1  0.49927239  -0.00401395  0.49429982  1
  Cu+  Cu65  1  0.50097500  -0.00320287  0.83703217  1
  Cu+  Cu66  1  0.49516662  0.33037668  0.17128504  1
  Cu+  Cu67  1  0.50336471  0.33325358  0.49635413  1
  Cu+  Cu68  1  0.49868834  0.33342337  0.83180152  1
  Cu+  Cu69  1  0.49684041  0.66345671  0.16344753  1
  Cu+  Cu70  1  0.50153004  0.66387996  0.50518486  1
  Cu+  Cu71  1  0.50215340  0.66526999  0.82910965  1
  Cu+  Cu72  1  0.83126097  0.00122621  0.17045485  1
  Cu+  Cu73  1  0.83023313  -0.00124524  0.50681727  1
  Cu+  Cu74  1  0.83854347  0.00015459  0.83637395  1
  Cu+  Cu75  1  0.83294922  0.33398531  0.16534991  1
  Cu+  Cu76  1  0.83426407  0.33487369  0.49952275  1
  Cu+  Cu77  1  0.83041429  0.33316834  0.83559700  1
  Cu+  Cu78  1  0.83368579  0.66334676  0.16708818  1
  Cu+  Cu79  1  0.83558446  0.66953910  0.49466389  1
  Cu+  Cu80  1  0.83325056  0.67023011  0.83092253  1
  Cu+  Cu81  1  -0.00178663  0.16713791  0.16753236  1
  Cu+  Cu82  1  0.00931325  0.16878765  0.49797338  1
  Cu+  Cu83  1  -0.00200946  0.16302667  0.83441491  1
  Cu+  Cu84  1  -0.00118098  0.50451956  0.16636548  1
  Cu+  Cu85  1  -0.00081085  0.50090693  0.50075588  1
  Cu+  Cu86  1  -0.00064388  0.50258861  0.83534595  1
  Cu+  Cu87  1  0.00275623  0.83442282  0.16829850  1
  Cu+  Cu88  1  -0.00386240  0.82874437  0.50387919  1
  Cu+  Cu89  1  -0.00040898  0.83918667  0.83481257  1
  Cu+  Cu90  1  0.33446976  0.16829247  0.16822817  1
  Cu+  Cu91  1  0.33894165  0.16803959  0.49647889  1
  Cu+  Cu92  1  0.33403627  0.16751708  0.82960966  1
  Cu+  Cu93  1  0.33031565  0.49226815  0.16622303  1
  Cu+  Cu94  1  0.32947642  0.50165316  0.49811859  1
  Cu+  Cu95  1  0.33445939  0.49674080  0.82647746  1
  Cu+  Cu96  1  0.33000345  0.83141064  0.16306363  1
  Cu+  Cu97  1  0.33667289  0.83257649  0.50252990  1
  Cu+  Cu98  1  0.33395089  0.83268141  0.83195643  1
  Cu+  Cu99  1  0.66776600  0.17123931  0.17193320  1
  Cu+  Cu100  1  0.67032705  0.16268952  0.50031320  1
  Cu+  Cu101  1  0.66404641  0.16627421  0.83423417  1
  Cu+  Cu102  1  0.66384772  0.49826892  0.16050303  1
  Cu+  Cu103  1  0.66732680  0.50422120  0.49708367  1
  Cu+  Cu104  1  0.67253218  0.49765107  0.83229932  1
  Cu+  Cu105  1  0.66603724  0.83070222  0.16798956  1
  Cu+  Cu106  1  0.66488634  0.83151573  0.49939847  1
  Cu+  Cu107  1  0.66316493  0.83749895  0.83552701  1
  Cu+  Cu108  1  0.92434948  0.07668760  0.74151073  1
  Cu+  Cu109  1  0.92471225  0.92395085  0.58895788  1
  Cu+  Cu110  1  0.59191761  0.92755833  0.92961894  1
  Cu+  Cu111  1  0.26115726  0.74081042  0.07009042  1
  Cu+  Cu112  1  0.40476257  0.40845073  0.91701741  1
  Cu+  Cu113  1  0.26321595  0.40870337  0.73289353  1
  Cu+  Cu114  1  0.92735471  0.59039379  0.25737882  1
  Cu+  Cu115  1  0.40624865  0.25269936  0.07268949  1
  Cu+  Cu116  1  0.74133448  0.40416782  0.92688019  1
  Cu+  Cu117  1  0.26549379  0.92086821  0.59518442  1
  Cu+  Cu118  1  0.07416586  0.07903770  0.92954374  1
  Cu+  Cu119  1  0.26632583  0.07127532  0.74684260  1
  Cu+  Cu120  1  0.06774777  0.73710871  0.59858418  1
  Cu+  Cu121  1  0.40165592  0.40760061  0.26589892  1
  Cu+  Cu122  1  0.40568163  0.92048165  0.40596239  1
  Cu+  Cu123  1  0.24948599  0.40443617  0.07268263  1
  Cu+  Cu124  1  0.40346375  0.07120776  0.25489344  1
  Cu+  Cu125  1  0.07851080  0.07820100  0.58767279  1
  Cu+  Cu126  1  0.73488361  0.07338481  0.59769829  1
  Cu+  Cu127  1  0.92788960  0.74465581  0.40495341  1
  Cu+  Cu128  1  0.92945307  0.91849883  0.93527546  1
  Cu+  Cu129  1  0.07558419  0.26323964  0.40495276  1
  Cu+  Cu130  1  0.60116349  0.59302381  0.59279379  1
  Cu+  Cu131  1  0.40531174  0.73391324  0.59367171  1
  Cu+  Cu132  1  0.59870445  0.26319612  0.26132052  1
  Te2-  Te133  1  0.25187243  0.25290521  0.07784583  1
  Te2-  Te134  1  0.25705683  0.25463011  0.41444453  1
  Te2-  Te135  1  0.25593579  0.25423390  0.74279503  1
  Te2-  Te136  1  0.25570445  0.58710478  0.08140514  1
  Te2-  Te137  1  0.24794702  0.59028448  0.41811386  1
  Te2-  Te138  1  0.25167422  0.58729219  0.74765665  1
  Te2-  Te139  1  0.25315822  0.92358548  0.08125394  1
  Te2-  Te140  1  0.25183937  0.91814328  0.41473274  1
  Te2-  Te141  1  0.25385719  0.92002796  0.74746196  1
  Te2-  Te142  1  0.58629179  0.25463463  0.08383388  1
  Te2-  Te143  1  0.59071527  0.25122052  0.41452615  1
  Te2-  Te144  1  0.58458753  0.25080211  0.74779221  1
  Te2-  Te145  1  0.57950678  0.58088729  0.07697109  1
  Te2-  Te146  1  0.58191993  0.58552986  0.41046052  1
  Te2-  Te147  1  0.59181860  0.58590973  0.74707402  1
  Te2-  Te148  1  0.58523498  0.91955668  0.08405357  1
  Te2-  Te149  1  0.58674153  0.91550053  0.41248961  1
  Te2-  Te150  1  0.58140694  0.91683905  0.74491206  1
  Te2-  Te151  1  0.91906911  0.25313866  0.08228360  1
  Te2-  Te152  1  0.92208317  0.25279207  0.41639490  1
  Te2-  Te153  1  0.91459795  0.24945423  0.75046133  1
  Te2-  Te154  1  0.91617506  0.58424488  0.07618619  1
  Te2-  Te155  1  0.92310073  0.58781039  0.41125638  1
  Te2-  Te156  1  0.92056007  0.58876925  0.74885530  1
  Te2-  Te157  1  0.91969216  0.92109182  0.08605115  1
  Te2-  Te158  1  0.91650001  0.91856245  0.41743714  1
  Te2-  Te159  1  0.92254846  0.92294937  0.74387760  1
  Te2-  Te160  1  0.24988808  0.08228537  0.25384178  1
  Te2-  Te161  1  0.26680664  0.07919598  0.58710691  1
  Te2-  Te162  1  0.25346284  0.08389046  0.91814553  1
  Te2-  Te163  1  0.24865134  0.41488267  0.25982043  1
  Te2-  Te164  1  0.25132493  0.41317190  0.58277036  1
  Te2-  Te165  1  0.25333738  0.41050197  0.91987277  1
  Te2-  Te166  1  0.25263980  0.74963370  0.25510472  1
  Te2-  Te167  1  0.25219987  0.74552637  0.58865134  1
  Te2-  Te168  1  0.25153072  0.74813014  0.91687503  1
  Te2-  Te169  1  0.58925706  0.07896453  0.25237349  1
  Te2-  Te170  1  0.58394330  0.07706620  0.58374341  1
  Te2-  Te171  1  0.58492790  0.08209266  0.92295805  1
  Te2-  Te172  1  0.58638533  0.41508741  0.25173122  1
  Te2-  Te173  1  0.58852002  0.41446607  0.58159702  1
  Te2-  Te174  1  0.58837439  0.41158338  0.91600782  1
  Te2-  Te175  1  0.58046304  0.74586903  0.25031721  1
  Te2-  Te176  1  0.58952907  0.74624704  0.58893623  1
  Te2-  Te177  1  0.58419679  0.74625667  0.91778931  1
  Te2-  Te178  1  0.92040577  0.08042111  0.25361837  1
  Te2-  Te179  1  0.92593059  0.07898421  0.58826698  1
  Te2-  Te180  1  0.91924307  0.07997023  0.92894049  1
  Te2-  Te181  1  0.91817949  0.41581876  0.25022560  1
  Te2-  Te182  1  0.91832526  0.41599651  0.58517385  1
  Te2-  Te183  1  0.91976378  0.41390963  0.91797834  1
  Te2-  Te184  1  0.92243977  0.74593742  0.25252908  1
  Te2-  Te185  1  0.91463411  0.74396260  0.59264986  1
  Te2-  Te186  1  0.91790328  0.75133339  0.91839801  1
  Te2-  Te187  1  0.08010332  0.25410242  0.25135906  1
  Te2-  Te188  1  0.08767403  0.25051070  0.58964470  1
  Te2-  Te189  1  0.08063212  0.25574497  0.91246796  1
  Te2-  Te190  1  0.08258265  0.59147991  0.25161764  1
  Te2-  Te191  1  0.07726379  0.58370429  0.59112817  1
  Te2-  Te192  1  0.08253511  0.58468846  0.92094560  1
  Te2-  Te193  1  0.08046762  0.92162921  0.25354084  1
  Te2-  Te194  1  0.07749548  0.92218816  0.58885826  1
  Te2-  Te195  1  0.08273547  0.92276820  0.92326774  1
  Te2-  Te196  1  0.40933980  0.25320528  0.25991569  1
  Te2-  Te197  1  0.41944606  0.25161238  0.58263162  1
  Te2-  Te198  1  0.41132900  0.25252791  0.91845286  1
  Te2-  Te199  1  0.41164027  0.58234573  0.24868593  1
  Te2-  Te200  1  0.40982839  0.58275760  0.58719203  1
  Te2-  Te201  1  0.41510469  0.58375024  0.91251373  1
  Te2-  Te202  1  0.40883772  0.91758252  0.25190513  1
  Te2-  Te203  1  0.41769428  0.92118891  0.58942513  1
  Te2-  Te204  1  0.41063044  0.91848304  0.91899678  1
  Te2-  Te205  1  0.75190706  0.25585094  0.25758814  1
  Te2-  Te206  1  0.75015731  0.25141952  0.58542438  1
  Te2-  Te207  1  0.74512823  0.24948606  0.92190081  1
  Te2-  Te208  1  0.74185645  0.58438705  0.24780789  1
  Te2-  Te209  1  0.75194149  0.58889212  0.58442625  1
  Te2-  Te210  1  0.74867250  0.58907932  0.91653979  1
  Te2-  Te211  1  0.74778104  0.91598903  0.25394297  1
  Te2-  Te212  1  0.73988134  0.91863009  0.58812136  1
  Te2-  Te213  1  0.74588919  0.92278563  0.92187567  1
  Te2-  Te214  1  0.08097363  0.08264437  0.08238997  1
  Te2-  Te215  1  0.08877705  0.07741820  0.41601697  1
  Te2-  Te216  1  0.07837052  0.07900769  0.74238976  1
  Te2-  Te217  1  0.08095944  0.41723390  0.08290142  1
  Te2-  Te218  1  0.07871926  0.41646268  0.41345796  1
  Te2-  Te219  1  0.07773590  0.41610194  0.74857377  1
  Te2-  Te220  1  0.08063252  0.75019272  0.08036506  1
  Te2-  Te221  1  0.08115065  0.74890742  0.41301494  1
  Te2-  Te222  1  0.07859519  0.74881117  0.75110280  1
  Te2-  Te223  1  0.41382599  0.08108794  0.08168335  1
  Te2-  Te224  1  0.41388152  0.07915104  0.40967754  1
  Te2-  Te225  1  0.41818321  0.07811273  0.74748298  1
  Te2-  Te226  1  0.40924723  0.40749763  0.07408412  1
  Te2-  Te227  1  0.41115397  0.41258346  0.41666480  1
  Te2-  Te228  1  0.41860023  0.41264166  0.73866431  1
  Te2-  Te229  1  0.41451584  0.74697472  0.07720677  1
  Te2-  Te230  1  0.41507734  0.74325232  0.41625178  1
  Te2-  Te231  1  0.41038292  0.74275457  0.74788177  1
  Te2-  Te232  1  0.74541504  0.08279322  0.08654002  1
  Te2-  Te233  1  0.75294375  0.07968991  0.41382639  1
  Te2-  Te234  1  0.74317010  0.07612320  0.75240645  1
  Te2-  Te235  1  0.74491075  0.41076897  0.07906397  1
  Te2-  Te236  1  0.74927662  0.41699486  0.41347142  1
  Te2-  Te237  1  0.75128777  0.41407747  0.74366866  1
  Te2-  Te238  1  0.74880429  0.74738087  0.08225711  1
  Te2-  Te239  1  0.74392919  0.74674265  0.41405512  1
  Te2-  Te240  1  0.74673101  0.75375893  0.74947017  1
