# generated using pymatgen
data_Ti27(Cu53Te54)2
_symmetry_space_group_name_H-M   'P 1'
_cell_length_a   17.87270232
_cell_length_b   17.87622439
_cell_length_c   17.87253547
_cell_angle_alpha   90.01113473
_cell_angle_beta   90.01084902
_cell_angle_gamma   90.00150522
_symmetry_Int_Tables_number   1
_chemical_formula_structural   Ti27(Cu53Te54)2
_chemical_formula_sum   'Ti27 Cu106 Te108'
_cell_volume   5710.21119352
_cell_formula_units_Z   1
loop_
 _symmetry_equiv_pos_site_id
 _symmetry_equiv_pos_as_xyz
  1  'x, y, z'
loop_
 _atom_type_symbol
 _atom_type_oxidation_number
  Ti4+  4.0
  Cu+  1.0
  Te2-  -2.0
loop_
 _atom_site_type_symbol
 _atom_site_label
 _atom_site_symmetry_multiplicity
 _atom_site_fract_x
 _atom_site_fract_y
 _atom_site_fract_z
 _atom_site_occupancy
  Ti4+  Ti0  1  0.16756221  0.16932444  0.16739547  1
  Ti4+  Ti1  1  0.16517754  0.16594221  0.49666609  1
  Ti4+  Ti2  1  0.16613972  0.16643639  0.83290903  1
  Ti4+  Ti3  1  0.16618577  0.49940224  0.16673595  1
  Ti4+  Ti4  1  0.16560762  0.50086204  0.49834859  1
  Ti4+  Ti5  1  0.16646873  0.50017339  0.82966200  1
  Ti4+  Ti6  1  0.16598606  0.83681914  0.16551067  1
  Ti4+  Ti7  1  0.16717610  0.82987518  0.50019954  1
  Ti4+  Ti8  1  0.17047633  0.82990618  0.83566600  1
  Ti4+  Ti9  1  0.49727640  0.16942044  0.17018905  1
  Ti4+  Ti10  1  0.50161654  0.16047254  0.50134906  1
  Ti4+  Ti11  1  0.49828930  0.16717935  0.83263090  1
  Ti4+  Ti12  1  0.49912722  0.50207977  0.16446545  1
  Ti4+  Ti13  1  0.50052962  0.49801608  0.50096133  1
  Ti4+  Ti14  1  0.50140127  0.50221439  0.83127590  1
  Ti4+  Ti15  1  0.49878055  0.83411025  0.16736185  1
  Ti4+  Ti16  1  0.50038806  0.83404054  0.50119349  1
  Ti4+  Ti17  1  0.50039742  0.83616174  0.83344147  1
  Ti4+  Ti18  1  0.83203878  0.16624100  0.16735576  1
  Ti4+  Ti19  1  0.83500370  0.16779691  0.50061107  1
  Ti4+  Ti20  1  0.83362816  0.16562592  0.83547898  1
  Ti4+  Ti21  1  0.83313846  0.50023771  0.16601331  1
  Ti4+  Ti22  1  0.83210466  0.50080089  0.49934464  1
  Ti4+  Ti23  1  0.83233345  0.50050608  0.83350058  1
  Ti4+  Ti24  1  0.83360141  0.83295522  0.16568985  1
  Ti4+  Ti25  1  0.83729418  0.83369849  0.50107829  1
  Ti4+  Ti26  1  0.83094878  0.83274788  0.83106241  1
  Cu+  Cu27  1  0.16758083  0.16663162  0.00051898  1
  Cu+  Cu28  1  0.16424812  0.17382061  0.33276037  1
  Cu+  Cu29  1  0.16594166  0.16432292  0.66550924  1
  Cu+  Cu30  1  0.16316006  0.49743369  -0.00373748  1
  Cu+  Cu31  1  0.16659048  0.50264532  0.33389013  1
  Cu+  Cu32  1  0.16627677  0.49890098  0.66326520  1
  Cu+  Cu33  1  0.17521685  0.83659919  0.00283076  1
  Cu+  Cu34  1  0.16032180  0.83251035  0.33066321  1
  Cu+  Cu35  1  0.16897676  0.82378965  0.66685840  1
  Cu+  Cu36  1  0.49821059  0.17120709  0.00029957  1
  Cu+  Cu37  1  0.49409000  0.16201646  0.33795733  1
  Cu+  Cu38  1  0.50154154  0.16339828  0.66631942  1
  Cu+  Cu39  1  0.50322365  0.50375128  -0.00213761  1
  Cu+  Cu40  1  0.49680630  0.50247595  0.33389723  1
  Cu+  Cu41  1  0.50402297  0.49395487  0.66738591  1
  Cu+  Cu42  1  0.49659344  0.83587604  0.00184050  1
  Cu+  Cu43  1  0.50090843  0.83230663  0.33359376  1
  Cu+  Cu44  1  0.50444973  0.84248395  0.66550035  1
  Cu+  Cu45  1  0.83183289  0.16484087  0.00230799  1
  Cu+  Cu46  1  0.83511713  0.16613134  0.33282211  1
  Cu+  Cu47  1  0.83392183  0.16708095  0.66835666  1
  Cu+  Cu48  1  0.83351366  0.49984374  0.00249441  1
  Cu+  Cu49  1  0.83251669  0.50006948  0.33256464  1
  Cu+  Cu50  1  0.83028170  0.50287940  0.66511680  1
  Cu+  Cu51  1  0.83153518  0.83466611  -0.00226369  1
  Cu+  Cu52  1  0.83502714  0.83423179  0.33248979  1
  Cu+  Cu53  1  0.83984202  0.83176126  0.66857140  1
  Cu+  Cu54  1  0.16670588  0.00476196  0.16771082  1
  Cu+  Cu55  1  0.16586326  -0.00443333  0.49700104  1
  Cu+  Cu56  1  0.16721007  -0.00079321  0.83752286  1
  Cu+  Cu57  1  0.17127260  0.33251488  0.16832729  1
  Cu+  Cu58  1  0.16245548  0.33498693  0.49643418  1
  Cu+  Cu59  1  0.16244029  0.33402446  0.83259075  1
  Cu+  Cu60  1  0.16298446  0.66959535  0.16589519  1
  Cu+  Cu61  1  0.16489803  0.66659504  0.50362641  1
  Cu+  Cu62  1  0.17608811  0.66168996  0.83105572  1
  Cu+  Cu63  1  0.49656243  0.00140226  0.17052567  1
  Cu+  Cu64  1  0.50711851  -0.00471701  0.50514772  1
  Cu+  Cu65  1  0.49670822  0.00179511  0.82818851  1
  Cu+  Cu66  1  0.49366697  0.33760395  0.16428718  1
  Cu+  Cu67  1  0.50204594  0.32691103  0.50141616  1
  Cu+  Cu68  1  0.50292881  0.33614520  0.83101112  1
  Cu+  Cu69  1  0.50248467  0.66694044  0.16700014  1
  Cu+  Cu70  1  0.49634359  0.66270258  0.49969871  1
  Cu+  Cu71  1  0.50188130  0.67426617  0.83298565  1
  Cu+  Cu72  1  0.83162309  -0.00060604  0.16538702  1
  Cu+  Cu73  1  0.83954942  0.00394290  0.49988084  1
  Cu+  Cu74  1  0.83307626  -0.00047825  0.83603012  1
  Cu+  Cu75  1  0.83278109  0.33320125  0.16763106  1
  Cu+  Cu76  1  0.83135524  0.33591970  0.50224373  1
  Cu+  Cu77  1  0.83423329  0.32973147  0.83597609  1
  Cu+  Cu78  1  0.83393237  0.66445994  0.16562405  1
  Cu+  Cu79  1  0.83333564  0.66694631  0.50009870  1
  Cu+  Cu80  1  0.82535746  0.66440362  0.82776550  1
  Cu+  Cu81  1  -0.00091336  0.16732055  0.16712534  1
  Cu+  Cu82  1  -0.00200775  0.16727789  0.49306511  1
  Cu+  Cu83  1  0.00031026  0.16365078  0.83336826  1
  Cu+  Cu84  1  -0.00234780  0.49931313  0.16436469  1
  Cu+  Cu85  1  -0.00452587  0.50138909  0.49913593  1
  Cu+  Cu86  1  0.00321701  0.49728062  0.83579245  1
  Cu+  Cu87  1  0.00126328  0.83137611  0.16759075  1
  Cu+  Cu88  1  0.00654812  0.83331909  0.50192179  1
  Cu+  Cu89  1  -0.00509561  0.83294719  0.83386232  1
  Cu+  Cu90  1  0.33338505  0.17114518  0.17058238  1
  Cu+  Cu91  1  0.33488446  0.16154677  0.49769250  1
  Cu+  Cu92  1  0.33092440  0.16912603  0.83182370  1
  Cu+  Cu93  1  0.33747626  0.49655046  0.16792831  1
  Cu+  Cu94  1  0.33238784  0.50276749  0.49812725  1
  Cu+  Cu95  1  0.33302002  0.50520316  0.83233585  1
  Cu+  Cu96  1  0.33059258  0.83518538  0.16316505  1
  Cu+  Cu97  1  0.33284406  0.83222997  0.49923132  1
  Cu+  Cu98  1  0.33538408  0.83538681  0.83501170  1
  Cu+  Cu99  1  0.66538052  0.16757874  0.16866068  1
  Cu+  Cu100  1  0.66976936  0.16459294  0.50154433  1
  Cu+  Cu101  1  0.66726602  0.16501405  0.83578916  1
  Cu+  Cu102  1  0.66667261  0.50032695  0.16610961  1
  Cu+  Cu103  1  0.66613873  0.49748460  0.50051008  1
  Cu+  Cu104  1  0.66697759  0.50205962  0.82621528  1
  Cu+  Cu105  1  0.66477172  0.83562659  0.16489172  1
  Cu+  Cu106  1  0.66991848  0.83649891  0.50434693  1
  Cu+  Cu107  1  0.66731050  0.82496205  0.83391418  1
  Cu+  Cu108  1  0.40369927  0.92910432  0.73685424  1
  Cu+  Cu109  1  0.73774311  0.59142168  0.73305745  1
  Cu+  Cu110  1  0.41061889  0.41277744  0.26293230  1
  Cu+  Cu111  1  0.40697153  0.26210824  0.06853958  1
  Cu+  Cu112  1  0.92269974  0.92724621  0.92687594  1
  Cu+  Cu113  1  0.40911140  0.25688976  0.41812569  1
  Cu+  Cu114  1  0.40452123  0.59600814  0.40621800  1
  Cu+  Cu115  1  0.26012189  0.58004855  0.93019799  1
  Cu+  Cu116  1  0.25849643  0.73736014  0.08409187  1
  Cu+  Cu117  1  0.07698535  0.92437644  0.40505956  1
  Cu+  Cu118  1  0.58905422  0.74649244  0.73490509  1
  Cu+  Cu119  1  0.60406150  0.92825372  0.59630392  1
  Cu+  Cu120  1  0.41156423  0.74332680  0.92740656  1
  Cu+  Cu121  1  0.92312414  0.07368110  0.40177088  1
  Cu+  Cu122  1  0.07236795  0.40317807  0.92646501  1
  Cu+  Cu123  1  0.40476306  0.06851232  0.26193794  1
  Cu+  Cu124  1  0.07078605  0.73778827  0.25803162  1
  Cu+  Cu125  1  0.92613598  0.73553844  0.74675121  1
  Cu+  Cu126  1  0.74686790  0.73585247  0.93109207  1
  Cu+  Cu127  1  0.26466904  0.73763720  0.73783651  1
  Cu+  Cu128  1  0.59747312  0.40136925  0.74043299  1
  Cu+  Cu129  1  0.07425691  0.73724501  0.59656788  1
  Cu+  Cu130  1  0.26221363  0.93223681  0.92791542  1
  Cu+  Cu131  1  0.25770451  0.26155275  0.26286389  1
  Cu+  Cu132  1  0.06723416  0.26661156  0.40717488  1
  Te2-  Te133  1  0.25363212  0.25443199  0.07780682  1
  Te2-  Te134  1  0.25533476  0.25588031  0.41542380  1
  Te2-  Te135  1  0.24849261  0.25337062  0.74647593  1
  Te2-  Te136  1  0.25415523  0.58374325  0.08206503  1
  Te2-  Te137  1  0.25063545  0.58997953  0.41292028  1
  Te2-  Te138  1  0.25596756  0.58375367  0.73827800  1
  Te2-  Te139  1  0.25487305  0.92859331  0.08258280  1
  Te2-  Te140  1  0.25157777  0.91432109  0.41139211  1
  Te2-  Te141  1  0.25011998  0.91833308  0.74587578  1
  Te2-  Te142  1  0.58393929  0.25431280  0.08476447  1
  Te2-  Te143  1  0.58693181  0.24607738  0.41465917  1
  Te2-  Te144  1  0.58756544  0.24940200  0.74668884  1
  Te2-  Te145  1  0.58689092  0.58704471  0.08101729  1
  Te2-  Te146  1  0.58574239  0.58353103  0.41509887  1
  Te2-  Te147  1  0.58453132  0.59170848  0.74244124  1
  Te2-  Te148  1  0.58138980  0.92201995  0.08257142  1
  Te2-  Te149  1  0.58759343  0.91617031  0.41390846  1
  Te2-  Te150  1  0.59335968  0.92261782  0.75139854  1
  Te2-  Te151  1  0.91752239  0.25159300  0.08190919  1
  Te2-  Te152  1  0.91590278  0.25900092  0.41171993  1
  Te2-  Te153  1  0.91975545  0.25091114  0.74988172  1
  Te2-  Te154  1  0.91975395  0.58633417  0.07940433  1
  Te2-  Te155  1  0.91661994  0.58681889  0.41304336  1
  Te2-  Te156  1  0.92191762  0.58327575  0.74779512  1
  Te2-  Te157  1  0.92036998  0.91870094  0.08066562  1
  Te2-  Te158  1  0.92338701  0.91853401  0.41264631  1
  Te2-  Te159  1  0.91951668  0.92214512  0.74828638  1
  Te2-  Te160  1  0.25165931  0.08174889  0.25636983  1
  Te2-  Te161  1  0.24951620  0.07961142  0.58133320  1
  Te2-  Te162  1  0.25471507  0.08322091  0.92062195  1
  Te2-  Te163  1  0.25347182  0.41585396  0.25697352  1
  Te2-  Te164  1  0.25088196  0.41391130  0.58145287  1
  Te2-  Te165  1  0.25386701  0.41432236  0.91551471  1
  Te2-  Te166  1  0.25143957  0.74992979  0.25233646  1
  Te2-  Te167  1  0.25842347  0.74263072  0.58397693  1
  Te2-  Te168  1  0.25797200  0.74162952  0.92471929  1
  Te2-  Te169  1  0.58383370  0.08297091  0.25414276  1
  Te2-  Te170  1  0.59150041  0.07963407  0.58953533  1
  Te2-  Te171  1  0.58080682  0.08170895  0.91920027  1
  Te2-  Te172  1  0.58281516  0.41612433  0.25108033  1
  Te2-  Te173  1  0.58790283  0.40890103  0.58423890  1
  Te2-  Te174  1  0.58801273  0.41828525  0.91672584  1
  Te2-  Te175  1  0.58593037  0.74937659  0.25120276  1
  Te2-  Te176  1  0.58552965  0.74476991  0.58351608  1
  Te2-  Te177  1  0.58526176  0.74899285  0.92592666  1
  Te2-  Te178  1  0.92062445  0.07811309  0.25028226  1
  Te2-  Te179  1  0.92277110  0.08484312  0.58750898  1
  Te2-  Te180  1  0.92051085  0.08020985  0.92297958  1
  Te2-  Te181  1  0.91847186  0.41475799  0.25203484  1
  Te2-  Te182  1  0.91728293  0.41635993  0.58676917  1
  Te2-  Te183  1  0.91725656  0.41398074  0.92025859  1
  Te2-  Te184  1  0.91800758  0.74551011  0.25283012  1
  Te2-  Te185  1  0.92247665  0.74362544  0.58677479  1
  Te2-  Te186  1  0.91464554  0.74212381  0.91687533  1
  Te2-  Te187  1  0.07667738  0.25689146  0.25058925  1
  Te2-  Te188  1  0.08043555  0.24989196  0.58278350  1
  Te2-  Te189  1  0.07934199  0.25047019  0.92076869  1
  Te2-  Te190  1  0.07900610  0.58434855  0.25096029  1
  Te2-  Te191  1  0.07757781  0.58371711  0.58640612  1
  Te2-  Te192  1  0.08210100  0.58919396  0.91655100  1
  Te2-  Te193  1  0.07824532  0.92478642  0.24980561  1
  Te2-  Te194  1  0.08612832  0.91688568  0.59085401  1
  Te2-  Te195  1  0.08112818  0.91448222  0.92002172  1
  Te2-  Te196  1  0.41118846  0.25917808  0.26123698  1
  Te2-  Te197  1  0.41423092  0.24711041  0.58617786  1
  Te2-  Te198  1  0.41310046  0.25704391  0.91504211  1
  Te2-  Te199  1  0.41196812  0.59061222  0.25126277  1
  Te2-  Te200  1  0.41581153  0.58111720  0.58928931  1
  Te2-  Te201  1  0.41563071  0.58962898  0.91980497  1
  Te2-  Te202  1  0.41063006  0.91572394  0.25473833  1
  Te2-  Te203  1  0.40987306  0.92096716  0.58452043  1
  Te2-  Te204  1  0.41491654  0.92487946  0.92148911  1
  Te2-  Te205  1  0.74782889  0.25185256  0.25373219  1
  Te2-  Te206  1  0.74858141  0.25168994  0.58647299  1
  Te2-  Te207  1  0.74751094  0.25082757  0.92104313  1
  Te2-  Te208  1  0.74722010  0.58560337  0.25182722  1
  Te2-  Te209  1  0.74340481  0.58871894  0.58286939  1
  Te2-  Te210  1  0.74432477  0.58333430  0.92155203  1
  Te2-  Te211  1  0.74837715  0.91753939  0.25122974  1
  Te2-  Te212  1  0.75607697  0.92209029  0.58842348  1
  Te2-  Te213  1  0.74295577  0.91830930  0.91648989  1
  Te2-  Te214  1  0.08156359  0.08400796  0.08217693  1
  Te2-  Te215  1  0.08044896  0.07850306  0.40794386  1
  Te2-  Te216  1  0.08252132  0.07826269  0.74880135  1
  Te2-  Te217  1  0.08158376  0.41171663  0.08264623  1
  Te2-  Te218  1  0.07684062  0.41847213  0.41101533  1
  Te2-  Te219  1  0.08020575  0.41475828  0.74372737  1
  Te2-  Te220  1  0.08176078  0.75128250  0.07595159  1
  Te2-  Te221  1  0.07896303  0.74223776  0.41293878  1
  Te2-  Te222  1  0.07977974  0.74258136  0.75183012  1
  Te2-  Te223  1  0.41294836  0.08421269  0.08272846  1
  Te2-  Te224  1  0.41434776  0.06928733  0.41826080  1
  Te2-  Te225  1  0.40984452  0.08333113  0.74443662  1
  Te2-  Te226  1  0.41275434  0.41777703  0.07214095  1
  Te2-  Te227  1  0.41178835  0.41071441  0.41608400  1
  Te2-  Te228  1  0.41256486  0.41661806  0.74971625  1
  Te2-  Te229  1  0.41254814  0.74384756  0.08123816  1
  Te2-  Te230  1  0.41397087  0.74872153  0.41376266  1
  Te2-  Te231  1  0.41548324  0.75047586  0.74206784  1
  Te2-  Te232  1  0.74477765  0.08113774  0.08269340  1
  Te2-  Te233  1  0.74964045  0.08055979  0.41459328  1
  Te2-  Te234  1  0.74888505  0.08032540  0.74936093  1
  Te2-  Te235  1  0.74709501  0.41360543  0.08155946  1
  Te2-  Te236  1  0.74737104  0.41459895  0.41373193  1
  Te2-  Te237  1  0.75061261  0.41034475  0.74665425  1
  Te2-  Te238  1  0.74624966  0.74684042  0.08196476  1
  Te2-  Te239  1  0.74978318  0.75168211  0.41686567  1
  Te2-  Te240  1  0.74363602  0.74685127  0.73694852  1
