# generated using pymatgen
data_Ti27(Cu53Te54)2
_symmetry_space_group_name_H-M   'P 1'
_cell_length_a   17.87191247
_cell_length_b   17.87032668
_cell_length_c   17.86979514
_cell_angle_alpha   89.99980679
_cell_angle_beta   90.02750925
_cell_angle_gamma   90.02605601
_symmetry_Int_Tables_number   1
_chemical_formula_structural   Ti27(Cu53Te54)2
_chemical_formula_sum   'Ti27 Cu106 Te108'
_cell_volume   5707.19878088
_cell_formula_units_Z   1
loop_
 _symmetry_equiv_pos_site_id
 _symmetry_equiv_pos_as_xyz
  1  'x, y, z'
loop_
 _atom_type_symbol
 _atom_type_oxidation_number
  Ti4+  4.0
  Cu+  1.0
  Te2-  -2.0
loop_
 _atom_site_type_symbol
 _atom_site_label
 _atom_site_symmetry_multiplicity
 _atom_site_fract_x
 _atom_site_fract_y
 _atom_site_fract_z
 _atom_site_occupancy
  Ti4+  Ti0  1  0.16547457  0.16579653  0.16784713  1
  Ti4+  Ti1  1  0.16526964  0.16701401  0.49745007  1
  Ti4+  Ti2  1  0.16682384  0.16389007  0.83426978  1
  Ti4+  Ti3  1  0.16700155  0.50091668  0.16558864  1
  Ti4+  Ti4  1  0.16798776  0.50038065  0.49862970  1
  Ti4+  Ti5  1  0.16428158  0.49784984  0.83175857  1
  Ti4+  Ti6  1  0.16580178  0.83607522  0.16432888  1
  Ti4+  Ti7  1  0.16746521  0.83560970  0.49968600  1
  Ti4+  Ti8  1  0.16754285  0.83468689  0.83534908  1
  Ti4+  Ti9  1  0.50097171  0.16758677  0.16510434  1
  Ti4+  Ti10  1  0.49945229  0.16957203  0.49957592  1
  Ti4+  Ti11  1  0.49990822  0.16700717  0.83292795  1
  Ti4+  Ti12  1  0.49952523  0.49978800  0.16509790  1
  Ti4+  Ti13  1  0.49943782  0.50038126  0.50129231  1
  Ti4+  Ti14  1  0.49639542  0.50044020  0.83246944  1
  Ti4+  Ti15  1  0.50315635  0.82975875  0.17147620  1
  Ti4+  Ti16  1  0.49806520  0.83546932  0.49949100  1
  Ti4+  Ti17  1  0.50161950  0.83401980  0.83298940  1
  Ti4+  Ti18  1  0.83213516  0.16859879  0.16951413  1
  Ti4+  Ti19  1  0.83344795  0.16328091  0.50289873  1
  Ti4+  Ti20  1  0.83271052  0.16648781  0.83228936  1
  Ti4+  Ti21  1  0.83309667  0.49804017  0.16676289  1
  Ti4+  Ti22  1  0.83486281  0.49945149  0.50107737  1
  Ti4+  Ti23  1  0.83225259  0.50065617  0.83355369  1
  Ti4+  Ti24  1  0.83054168  0.83458991  0.16329390  1
  Ti4+  Ti25  1  0.83254817  0.83582835  0.49930359  1
  Ti4+  Ti26  1  0.83722387  0.83249691  0.83468422  1
  Cu+  Cu27  1  0.16694323  0.16232601  0.00216334  1
  Cu+  Cu28  1  0.17037692  0.16355800  0.33428829  1
  Cu+  Cu29  1  0.16344723  0.16567657  0.66441760  1
  Cu+  Cu30  1  0.17001805  0.50141405  -0.00329252  1
  Cu+  Cu31  1  0.16660440  0.49845388  0.33010127  1
  Cu+  Cu32  1  0.16451408  0.49953889  0.66575491  1
  Cu+  Cu33  1  0.16299111  0.84017403  -0.00165898  1
  Cu+  Cu34  1  0.16525007  0.83560457  0.33507256  1
  Cu+  Cu35  1  0.16875706  0.83441357  0.66941979  1
  Cu+  Cu36  1  0.49820848  0.16541090  -0.00366146  1
  Cu+  Cu37  1  0.50137125  0.17000721  0.33008625  1
  Cu+  Cu38  1  0.50005190  0.16868195  0.66760657  1
  Cu+  Cu39  1  0.49532796  0.50045180  0.00097119  1
  Cu+  Cu40  1  0.50010569  0.50338563  0.33237443  1
  Cu+  Cu41  1  0.49513679  0.49774132  0.66570089  1
  Cu+  Cu42  1  0.50298858  0.83176579  0.00320072  1
  Cu+  Cu43  1  0.50282641  0.82951296  0.33872720  1
  Cu+  Cu44  1  0.49868459  0.83565558  0.66479144  1
  Cu+  Cu45  1  0.83239923  0.16980646  -0.00075727  1
  Cu+  Cu46  1  0.83122422  0.16924157  0.33784160  1
  Cu+  Cu47  1  0.83826354  0.16004088  0.66927852  1
  Cu+  Cu48  1  0.83246146  0.50320785  0.00010038  1
  Cu+  Cu49  1  0.83597020  0.49745518  0.33564421  1
  Cu+  Cu50  1  0.83474966  0.49755953  0.66749061  1
  Cu+  Cu51  1  0.83705576  0.82696916  -0.00088806  1
  Cu+  Cu52  1  0.82661192  0.83826615  0.33105557  1
  Cu+  Cu53  1  0.83377804  0.83806649  0.66826500  1
  Cu+  Cu54  1  0.16612176  0.00159772  0.15876065  1
  Cu+  Cu55  1  0.16318708  0.00214645  0.49571815  1
  Cu+  Cu56  1  0.17187510  -0.00268508  0.83728352  1
  Cu+  Cu57  1  0.16377363  0.33532171  0.17023641  1
  Cu+  Cu58  1  0.16785693  0.33224754  0.49874570  1
  Cu+  Cu59  1  0.16162989  0.32858022  0.83136874  1
  Cu+  Cu60  1  0.16708109  0.66710481  0.16753162  1
  Cu+  Cu61  1  0.17032986  0.66656811  0.49882497  1
  Cu+  Cu62  1  0.16658240  0.66432793  0.83574708  1
  Cu+  Cu63  1  0.50133041  -0.00183788  0.17092196  1
  Cu+  Cu64  1  0.49662618  0.00324542  0.50216586  1
  Cu+  Cu65  1  0.50232907  0.00254313  0.83256673  1
  Cu+  Cu66  1  0.50226069  0.33442954  0.16397362  1
  Cu+  Cu67  1  0.49740240  0.33656851  0.50214135  1
  Cu+  Cu68  1  0.49720724  0.33139028  0.83337827  1
  Cu+  Cu69  1  0.50505877  0.66344317  0.16622078  1
  Cu+  Cu70  1  0.50008021  0.66789511  0.49902578  1
  Cu+  Cu71  1  0.49874041  0.66710985  0.83127204  1
  Cu+  Cu72  1  0.83307522  0.00428503  0.16867250  1
  Cu+  Cu73  1  0.83036280  -0.00272183  0.49738562  1
  Cu+  Cu74  1  0.83411990  -0.00184478  0.82837570  1
  Cu+  Cu75  1  0.82942640  0.33069158  0.16477063  1
  Cu+  Cu76  1  0.83232836  0.32930357  0.50211571  1
  Cu+  Cu77  1  0.83558432  0.33744277  0.83146368  1
  Cu+  Cu78  1  0.83371368  0.66702354  0.16653718  1
  Cu+  Cu79  1  0.83712099  0.66486917  0.50309807  1
  Cu+  Cu80  1  0.83283359  0.66540326  0.83667257  1
  Cu+  Cu81  1  -0.00379662  0.16814837  0.17302104  1
  Cu+  Cu82  1  0.00163777  0.16061090  0.50717597  1
  Cu+  Cu83  1  -0.00094341  0.16356365  0.83215200  1
  Cu+  Cu84  1  0.00310119  0.49647515  0.16996202  1
  Cu+  Cu85  1  0.00079485  0.50055663  0.49905755  1
  Cu+  Cu86  1  -0.00452724  0.49655194  0.82882620  1
  Cu+  Cu87  1  -0.00214881  0.83866989  0.15779933  1
  Cu+  Cu88  1  0.00072270  0.83807021  0.49888301  1
  Cu+  Cu89  1  0.00579074  0.82857201  0.83852160  1
  Cu+  Cu90  1  0.33418436  0.16601303  0.16537412  1
  Cu+  Cu91  1  0.33213516  0.16882804  0.49647951  1
  Cu+  Cu92  1  0.33542854  0.16610053  0.83074761  1
  Cu+  Cu93  1  0.33479764  0.50339685  0.16144491  1
  Cu+  Cu94  1  0.33595964  0.49905871  0.50223875  1
  Cu+  Cu95  1  0.32830679  0.49886086  0.83487516  1
  Cu+  Cu96  1  0.33604369  0.83392689  0.17168457  1
  Cu+  Cu97  1  0.33094345  0.83292096  0.49963098  1
  Cu+  Cu98  1  0.33564895  0.83505252  0.83595459  1
  Cu+  Cu99  1  0.66839732  0.17148778  0.16596378  1
  Cu+  Cu100  1  0.66614530  0.17004801  0.50002564  1
  Cu+  Cu101  1  0.66407308  0.16889586  0.83405182  1
  Cu+  Cu102  1  0.66278026  0.49768175  0.16569466  1
  Cu+  Cu103  1  0.66926721  0.49866997  0.50301996  1
  Cu+  Cu104  1  0.66416992  0.50286300  0.83300242  1
  Cu+  Cu105  1  0.66741661  0.82447003  0.16873262  1
  Cu+  Cu106  1  0.66641513  0.83803148  0.49544385  1
  Cu+  Cu107  1  0.66986118  0.83553385  0.83325936  1
  Cu+  Cu108  1  0.92793645  0.73558219  0.07868287  1
  Cu+  Cu109  1  0.59531996  0.58504835  0.26168447  1
  Cu+  Cu110  1  0.26820388  0.92733860  0.92474672  1
  Cu+  Cu111  1  0.73872498  0.92744105  0.74144885  1
  Cu+  Cu112  1  0.08017088  0.73368454  0.92723112  1
  Cu+  Cu113  1  0.93009500  0.06767738  0.74474659  1
  Cu+  Cu114  1  0.73825811  0.26265531  0.41118291  1
  Cu+  Cu115  1  0.26539862  0.07860360  0.07317324  1
  Cu+  Cu116  1  0.25971578  0.59330436  0.92208917  1
  Cu+  Cu117  1  0.26488675  0.07483039  0.40790237  1
  Cu+  Cu118  1  0.58715701  0.40575112  0.06799899  1
  Cu+  Cu119  1  0.40760465  0.59699276  0.07452014  1
  Cu+  Cu120  1  0.74946559  0.73683129  0.26207057  1
  Cu+  Cu121  1  0.59769896  0.73718271  0.41978476  1
  Cu+  Cu122  1  0.73801370  0.73911513  0.91838276  1
  Cu+  Cu123  1  0.07152818  0.92844031  0.40348752  1
  Cu+  Cu124  1  0.59116144  0.73933926  0.07084036  1
  Cu+  Cu125  1  0.73334467  0.93023078  0.40014921  1
  Cu+  Cu126  1  0.07865862  0.06970279  0.59488470  1
  Cu+  Cu127  1  0.40425710  0.40443534  0.59546259  1
  Cu+  Cu128  1  0.74084427  0.25651302  0.06763452  1
  Cu+  Cu129  1  0.92570732  0.40530090  0.73589499  1
  Cu+  Cu130  1  0.06740745  0.93387275  0.06879275  1
  Cu+  Cu131  1  0.25735263  0.73657363  0.40596117  1
  Cu+  Cu132  1  0.07185675  0.40548193  0.26296109  1
  Te2-  Te133  1  0.24894219  0.25329617  0.08321351  1
  Te2-  Te134  1  0.25208648  0.25450280  0.41183665  1
  Te2-  Te135  1  0.24942403  0.24863311  0.74689441  1
  Te2-  Te136  1  0.25277985  0.59157210  0.07783149  1
  Te2-  Te137  1  0.25543803  0.58297193  0.41134820  1
  Te2-  Te138  1  0.25000722  0.58530757  0.74693190  1
  Te2-  Te139  1  0.25956618  0.91894853  0.07990935  1
  Te2-  Te140  1  0.25487989  0.92255586  0.41242277  1
  Te2-  Te141  1  0.25507042  0.91890903  0.74838828  1
  Te2-  Te142  1  0.58674033  0.25317539  0.07455218  1
  Te2-  Te143  1  0.58381803  0.25730275  0.41390370  1
  Te2-  Te144  1  0.58508162  0.25448639  0.74757888  1
  Te2-  Te145  1  0.58940763  0.58574020  0.07482492  1
  Te2-  Te146  1  0.59083145  0.58535318  0.41541113  1
  Te2-  Te147  1  0.58127237  0.58396159  0.74593173  1
  Te2-  Te148  1  0.58755835  0.91662766  0.08640608  1
  Te2-  Te149  1  0.58221728  0.92615943  0.41287023  1
  Te2-  Te150  1  0.58601132  0.91973226  0.74633348  1
  Te2-  Te151  1  0.91982454  0.25225837  0.08251509  1
  Te2-  Te152  1  0.92225830  0.24774978  0.42044058  1
  Te2-  Te153  1  0.92060315  0.25247662  0.74656587  1
  Te2-  Te154  1  0.92152988  0.58268349  0.08370053  1
  Te2-  Te155  1  0.91963421  0.58546658  0.41438488  1
  Te2-  Te156  1  0.91698074  0.58827581  0.74757329  1
  Te2-  Te157  1  0.91334706  0.92600402  0.07652403  1
  Te2-  Te158  1  0.91824818  0.92027171  0.40962047  1
  Te2-  Te159  1  0.92815161  0.91496250  0.74848545  1
  Te2-  Te160  1  0.25362399  0.07700908  0.25091950  1
  Te2-  Te161  1  0.25197158  0.08085608  0.58352424  1
  Te2-  Te162  1  0.25862208  0.08050569  0.92081298  1
  Te2-  Te163  1  0.25667702  0.41696284  0.24867162  1
  Te2-  Te164  1  0.25121304  0.41298439  0.58656085  1
  Te2-  Te165  1  0.24809936  0.40878038  0.91630277  1
  Te2-  Te166  1  0.25057760  0.74977739  0.25205610  1
  Te2-  Te167  1  0.25131746  0.74923526  0.58731102  1
  Te2-  Te168  1  0.25390832  0.74846442  0.92340730  1
  Te2-  Te169  1  0.58749770  0.08422237  0.25042303  1
  Te2-  Te170  1  0.58442001  0.08429639  0.58456442  1
  Te2-  Te171  1  0.58703266  0.08134766  0.91924695  1
  Te2-  Te172  1  0.58438095  0.41344022  0.25501823  1
  Te2-  Te173  1  0.58581079  0.41509859  0.58702241  1
  Te2-  Te174  1  0.58335209  0.41514946  0.91702331  1
  Te2-  Te175  1  0.59047493  0.74060092  0.26149809  1
  Te2-  Te176  1  0.58645329  0.75100716  0.58394830  1
  Te2-  Te177  1  0.58704239  0.74442738  0.91796553  1
  Te2-  Te178  1  0.91587618  0.08248267  0.25725823  1
  Te2-  Te179  1  0.92000104  0.07078737  0.58808325  1
  Te2-  Te180  1  0.91542442  0.08064484  0.91966931  1
  Te2-  Te181  1  0.91670508  0.41040310  0.25191755  1
  Te2-  Te182  1  0.92135731  0.41120915  0.58394908  1
  Te2-  Te183  1  0.91779095  0.41590618  0.92205556  1
  Te2-  Te184  1  0.91903145  0.75387189  0.25102140  1
  Te2-  Te185  1  0.91903029  0.75290373  0.58520856  1
  Te2-  Te186  1  0.92477567  0.74074140  0.92145082  1
  Te2-  Te187  1  0.08101757  0.25072155  0.25697372  1
  Te2-  Te188  1  0.08100254  0.25432939  0.58467157  1
  Te2-  Te189  1  0.08039789  0.24662836  0.91969797  1
  Te2-  Te190  1  0.08160598  0.58753118  0.25217286  1
  Te2-  Te191  1  0.08285395  0.58650391  0.58299643  1
  Te2-  Te192  1  0.07498551  0.58125161  0.91890429  1
  Te2-  Te193  1  0.07929306  0.92099267  0.24916325  1
  Te2-  Te194  1  0.08148991  0.91889804  0.58974216  1
  Te2-  Te195  1  0.07584602  0.92616651  0.91816687  1
  Te2-  Te196  1  0.41511611  0.25390991  0.24828754  1
  Te2-  Te197  1  0.41082038  0.25180178  0.58657074  1
  Te2-  Te198  1  0.41200484  0.25183561  0.91881723  1
  Te2-  Te199  1  0.41292929  0.58765114  0.25132110  1
  Te2-  Te200  1  0.41505688  0.58930358  0.58522547  1
  Te2-  Te201  1  0.41147522  0.58977961  0.91947444  1
  Te2-  Te202  1  0.41846002  0.91632287  0.25655543  1
  Te2-  Te203  1  0.41177963  0.91987611  0.58460856  1
  Te2-  Te204  1  0.42039378  0.92011323  0.92239222  1
  Te2-  Te205  1  0.74512868  0.25567401  0.25702841  1
  Te2-  Te206  1  0.75011534  0.24770012  0.59113829  1
  Te2-  Te207  1  0.74750865  0.25649382  0.91486395  1
  Te2-  Te208  1  0.74824042  0.58382267  0.25496672  1
  Te2-  Te209  1  0.75007499  0.58477369  0.58742188  1
  Te2-  Te210  1  0.74372424  0.58576783  0.92130633  1
  Te2-  Te211  1  0.74186889  0.92366626  0.24748875  1
  Te2-  Te212  1  0.74468990  0.92031460  0.58673600  1
  Te2-  Te213  1  0.75275557  0.91927340  0.92109895  1
  Te2-  Te214  1  0.07275732  0.08440594  0.08157005  1
  Te2-  Te215  1  0.07498144  0.08187004  0.40864198  1
  Te2-  Te216  1  0.08250116  0.07435215  0.74822553  1
  Te2-  Te217  1  0.08335694  0.41561646  0.07791936  1
  Te2-  Te218  1  0.08092098  0.41300573  0.41452507  1
  Te2-  Te219  1  0.07969612  0.41098880  0.74423620  1
  Te2-  Te220  1  0.08113877  0.74406441  0.07933211  1
  Te2-  Te221  1  0.08059922  0.74807861  0.41594687  1
  Te2-  Te222  1  0.08431357  0.74688841  0.74783627  1
  Te2-  Te223  1  0.41778472  0.07758407  0.08089086  1
  Te2-  Te224  1  0.41626967  0.08296212  0.41083672  1
  Te2-  Te225  1  0.41547149  0.08028350  0.74603204  1
  Te2-  Te226  1  0.41195475  0.41136429  0.08007762  1
  Te2-  Te227  1  0.41553572  0.41683735  0.41130120  1
  Te2-  Te228  1  0.40934152  0.41291555  0.74980528  1
  Te2-  Te229  1  0.41318866  0.74796632  0.08302716  1
  Te2-  Te230  1  0.41096214  0.74612296  0.41398392  1
  Te2-  Te231  1  0.41467834  0.75077386  0.74831030  1
  Te2-  Te232  1  0.74768239  0.08302474  0.08128589  1
  Te2-  Te233  1  0.74425956  0.08073478  0.41422004  1
  Te2-  Te234  1  0.74290627  0.08146614  0.74702864  1
  Te2-  Te235  1  0.74534354  0.41440956  0.07783716  1
  Te2-  Te236  1  0.74732273  0.41378567  0.41489158  1
  Te2-  Te237  1  0.74461490  0.41581371  0.74851207  1
  Te2-  Te238  1  0.74535358  0.74201810  0.07577470  1
  Te2-  Te239  1  0.74951391  0.74232976  0.41484420  1
  Te2-  Te240  1  0.75090701  0.74740272  0.74774333  1
