# generated using pymatgen
data_Ti27(Cu53Te54)2
_symmetry_space_group_name_H-M   'P 1'
_cell_length_a   17.92457419
_cell_length_b   17.92349436
_cell_length_c   17.93090676
_cell_angle_alpha   89.98904890
_cell_angle_beta   89.99844911
_cell_angle_gamma   90.01667099
_symmetry_Int_Tables_number   1
_chemical_formula_structural   Ti27(Cu53Te54)2
_chemical_formula_sum   'Ti27 Cu106 Te108'
_cell_volume   5760.68007325
_cell_formula_units_Z   1
loop_
 _symmetry_equiv_pos_site_id
 _symmetry_equiv_pos_as_xyz
  1  'x, y, z'
loop_
 _atom_type_symbol
 _atom_type_oxidation_number
  Ti4+  4.0
  Cu+  1.0
  Te2-  -2.0
loop_
 _atom_site_type_symbol
 _atom_site_label
 _atom_site_symmetry_multiplicity
 _atom_site_fract_x
 _atom_site_fract_y
 _atom_site_fract_z
 _atom_site_occupancy
  Ti4+  Ti0  1  0.16766816  0.16663566  0.16539263  1
  Ti4+  Ti1  1  0.16617388  0.16788104  0.49958307  1
  Ti4+  Ti2  1  0.16265397  0.16605790  0.83279663  1
  Ti4+  Ti3  1  0.16665300  0.49916467  0.16506118  1
  Ti4+  Ti4  1  0.16773759  0.50007355  0.50081145  1
  Ti4+  Ti5  1  0.16462291  0.50017776  0.83147618  1
  Ti4+  Ti6  1  0.17251524  0.83085928  0.16835193  1
  Ti4+  Ti7  1  0.16806615  0.83558722  0.50193520  1
  Ti4+  Ti8  1  0.16647906  0.83096214  0.83268534  1
  Ti4+  Ti9  1  0.50022847  0.16583199  0.16475598  1
  Ti4+  Ti10  1  0.50007600  0.16858654  0.50232217  1
  Ti4+  Ti11  1  0.49983893  0.16543427  0.83689346  1
  Ti4+  Ti12  1  0.49942376  0.49947881  0.17072790  1
  Ti4+  Ti13  1  0.49922351  0.50415979  0.50234531  1
  Ti4+  Ti14  1  0.49795839  0.50064345  0.83621280  1
  Ti4+  Ti15  1  0.50187091  0.83176016  0.16374281  1
  Ti4+  Ti16  1  0.50081295  0.83776318  0.49986174  1
  Ti4+  Ti17  1  0.49984690  0.83848369  0.83113279  1
  Ti4+  Ti18  1  0.83265789  0.16440267  0.16376712  1
  Ti4+  Ti19  1  0.83124403  0.16574793  0.49605384  1
  Ti4+  Ti20  1  0.83226218  0.16626649  0.83358006  1
  Ti4+  Ti21  1  0.83381111  0.49923202  0.16765634  1
  Ti4+  Ti22  1  0.82914955  0.50024811  0.49777235  1
  Ti4+  Ti23  1  0.83159654  0.50199116  0.83036476  1
  Ti4+  Ti24  1  0.83840541  0.83227820  0.16658136  1
  Ti4+  Ti25  1  0.83519026  0.83307128  0.50205722  1
  Ti4+  Ti26  1  0.83413392  0.83010063  0.83534613  1
  Cu+  Cu27  1  0.16329185  0.16722285  -0.00169240  1
  Cu+  Cu28  1  0.16797437  0.16807265  0.33231015  1
  Cu+  Cu29  1  0.16316902  0.16653930  0.66630545  1
  Cu+  Cu30  1  0.16679949  0.49855055  -0.00172828  1
  Cu+  Cu31  1  0.16611548  0.49955928  0.33258618  1
  Cu+  Cu32  1  0.16827761  0.50440462  0.66452347  1
  Cu+  Cu33  1  0.16978768  0.82959641  0.00228307  1
  Cu+  Cu34  1  0.17262436  0.83174606  0.33788899  1
  Cu+  Cu35  1  0.16481554  0.83468805  0.66655878  1
  Cu+  Cu36  1  0.50371988  0.17010584  0.00142542  1
  Cu+  Cu37  1  0.50133924  0.16529077  0.33364225  1
  Cu+  Cu38  1  0.50153297  0.16621970  0.67022434  1
  Cu+  Cu39  1  0.49751405  0.50064269  0.00504158  1
  Cu+  Cu40  1  0.50658287  0.50259959  0.33608030  1
  Cu+  Cu41  1  0.49422804  0.50012664  0.67013761  1
  Cu+  Cu42  1  0.49627573  0.83756411  -0.00296378  1
  Cu+  Cu43  1  0.50234114  0.83277541  0.33073662  1
  Cu+  Cu44  1  0.49938906  0.84416081  0.66678774  1
  Cu+  Cu45  1  0.82942689  0.16268812  -0.00215248  1
  Cu+  Cu46  1  0.83124129  0.16540500  0.32799658  1
  Cu+  Cu47  1  0.83225559  0.16751880  0.66268297  1
  Cu+  Cu48  1  0.83217826  0.50162549  -0.00068685  1
  Cu+  Cu49  1  0.83540043  0.49669050  0.33510592  1
  Cu+  Cu50  1  0.82751743  0.49856025  0.66263241  1
  Cu+  Cu51  1  0.83979355  0.83526314  0.00141722  1
  Cu+  Cu52  1  0.83744583  0.83422357  0.33309041  1
  Cu+  Cu53  1  0.83270888  0.82532955  0.66767156  1
  Cu+  Cu54  1  0.17077016  0.00068252  0.16704783  1
  Cu+  Cu55  1  0.16507649  0.00317947  0.50209237  1
  Cu+  Cu56  1  0.16254488  0.00123751  0.83365343  1
  Cu+  Cu57  1  0.16651675  0.33354889  0.16493049  1
  Cu+  Cu58  1  0.16592708  0.33119691  0.49994183  1
  Cu+  Cu59  1  0.16126349  0.33247557  0.83103189  1
  Cu+  Cu60  1  0.17109033  0.66362206  0.17144943  1
  Cu+  Cu61  1  0.17139189  0.66782831  0.50366318  1
  Cu+  Cu62  1  0.16422854  0.66142747  0.82991258  1
  Cu+  Cu63  1  0.50156774  -0.00207218  0.16055213  1
  Cu+  Cu64  1  0.50310030  0.00389809  0.49861184  1
  Cu+  Cu65  1  0.50015856  0.00216312  0.82428326  1
  Cu+  Cu66  1  0.49579218  0.33047069  0.16609033  1
  Cu+  Cu67  1  0.49825064  0.33716949  0.50397644  1
  Cu+  Cu68  1  0.50153241  0.33190049  0.84079823  1
  Cu+  Cu69  1  0.49983140  0.66378707  0.17084968  1
  Cu+  Cu70  1  0.50012303  0.67133258  0.50191276  1
  Cu+  Cu71  1  0.49613747  0.67155326  0.83429210  1
  Cu+  Cu72  1  0.83692865  -0.00177588  0.16531907  1
  Cu+  Cu73  1  0.83132890  -0.00321471  0.49673631  1
  Cu+  Cu74  1  0.83250349  -0.00329144  0.83798108  1
  Cu+  Cu75  1  0.83229151  0.33137302  0.16460321  1
  Cu+  Cu76  1  0.83151692  0.33297192  0.49367651  1
  Cu+  Cu77  1  0.83129350  0.33592815  0.82886563  1
  Cu+  Cu78  1  0.83635328  0.66765769  0.16800120  1
  Cu+  Cu79  1  0.82869891  0.66795376  0.50459651  1
  Cu+  Cu80  1  0.83862220  0.66540037  0.83199245  1
  Cu+  Cu81  1  0.00061031  0.16631174  0.16439244  1
  Cu+  Cu82  1  -0.00023026  0.16750171  0.49757973  1
  Cu+  Cu83  1  -0.00131215  0.16709292  0.82970609  1
  Cu+  Cu84  1  0.00182433  0.49710735  0.16653208  1
  Cu+  Cu85  1  -0.00490630  0.49716677  0.49600053  1
  Cu+  Cu86  1  -0.00261431  0.50554012  0.83051544  1
  Cu+  Cu87  1  0.00632229  0.83178990  0.16810413  1
  Cu+  Cu88  1  0.00332267  0.83398908  0.50265682  1
  Cu+  Cu89  1  -0.00211321  0.83031521  0.83501847  1
  Cu+  Cu90  1  0.33309754  0.16900363  0.16358164  1
  Cu+  Cu91  1  0.33229607  0.17016358  0.50243885  1
  Cu+  Cu92  1  0.32632059  0.16646059  0.83572129  1
  Cu+  Cu93  1  0.33219214  0.50242225  0.16729715  1
  Cu+  Cu94  1  0.33531620  0.50145715  0.50925299  1
  Cu+  Cu95  1  0.33056385  0.49843672  0.83710172  1
  Cu+  Cu96  1  0.33996467  0.83126568  0.16658264  1
  Cu+  Cu97  1  0.33120939  0.83468311  0.49834028  1
  Cu+  Cu98  1  0.33522773  0.83600850  0.83070808  1
  Cu+  Cu99  1  0.66588447  0.16225784  0.16233291  1
  Cu+  Cu100  1  0.66508720  0.16378174  0.49699450  1
  Cu+  Cu101  1  0.66776262  0.16338616  0.83961433  1
  Cu+  Cu102  1  0.66728300  0.49924245  0.17366500  1
  Cu+  Cu103  1  0.66199476  0.50023658  0.49582303  1
  Cu+  Cu104  1  0.66480913  0.50113497  0.83279906  1
  Cu+  Cu105  1  0.67205679  0.83096541  0.16452695  1
  Cu+  Cu106  1  0.67177073  0.83640248  0.50170357  1
  Cu+  Cu107  1  0.66576487  0.83448501  0.83337580  1
  Cu+  Cu108  1  0.40654573  0.92737475  0.07306655  1
  Cu+  Cu109  1  0.59957590  0.59369918  0.26234430  1
  Cu+  Cu110  1  0.40237114  0.26040527  0.07378186  1
  Cu+  Cu111  1  0.26226730  0.59744957  0.59474258  1
  Cu+  Cu112  1  0.59323617  0.06956369  0.07461084  1
  Cu+  Cu113  1  0.92839007  0.40296346  0.40533885  1
  Cu+  Cu114  1  0.40064706  0.93119379  0.73479492  1
  Cu+  Cu115  1  0.59066989  0.07530726  0.40417407  1
  Cu+  Cu116  1  0.73708933  0.73862906  0.59499643  1
  Cu+  Cu117  1  0.40809835  0.59051278  0.07851009  1
  Cu+  Cu118  1  0.40783677  0.40505768  0.59894708  1
  Cu+  Cu119  1  0.58778371  0.40551564  0.40970273  1
  Cu+  Cu120  1  0.92399542  0.58823936  0.93103738  1
  Cu+  Cu121  1  0.59792462  0.07925017  0.73999041  1
  Cu+  Cu122  1  0.74256163  0.06690059  0.92590544  1
  Cu+  Cu123  1  0.25538850  0.59011920  0.92502319  1
  Cu+  Cu124  1  0.40686427  0.74712674  0.92108295  1
  Cu+  Cu125  1  0.41398227  0.74144127  0.26160572  1
  Cu+  Cu126  1  0.74597706  0.92135158  0.40240495  1
  Cu+  Cu127  1  0.25710499  0.58557870  0.26237317  1
  Cu+  Cu128  1  0.59718799  0.26360408  0.92708715  1
  Cu+  Cu129  1  0.92970049  0.92773189  0.92762085  1
  Cu+  Cu130  1  0.25859290  0.73968733  0.41226803  1
  Cu+  Cu131  1  0.06847056  0.58401695  0.73243368  1
  Cu+  Cu132  1  0.92777270  0.74246913  0.73813490  1
  Te2-  Te133  1  0.25044870  0.25434930  0.07691289  1
  Te2-  Te134  1  0.25269705  0.25325046  0.41439499  1
  Te2-  Te135  1  0.24838830  0.25189855  0.74784627  1
  Te2-  Te136  1  0.25347013  0.58873148  0.07721013  1
  Te2-  Te137  1  0.25710604  0.58476608  0.41469955  1
  Te2-  Te138  1  0.25722514  0.58636942  0.74720663  1
  Te2-  Te139  1  0.25536635  0.91771081  0.08077384  1
  Te2-  Te140  1  0.25182268  0.92413110  0.41678482  1
  Te2-  Te141  1  0.24863617  0.92061577  0.74805035  1
  Te2-  Te142  1  0.58936032  0.25664557  0.08242782  1
  Te2-  Te143  1  0.58432499  0.25438926  0.41503611  1
  Te2-  Te144  1  0.58653261  0.25157278  0.75268628  1
  Te2-  Te145  1  0.58680333  0.58357791  0.08491995  1
  Te2-  Te146  1  0.58638120  0.59427059  0.41631222  1
  Te2-  Te147  1  0.57983459  0.58672453  0.75091220  1
  Te2-  Te148  1  0.59110324  0.91482710  0.07752405  1
  Te2-  Te149  1  0.58825512  0.92000260  0.41130179  1
  Te2-  Te150  1  0.59224720  0.92205019  0.74578173  1
  Te2-  Te151  1  0.91651460  0.24922037  0.07823214  1
  Te2-  Te152  1  0.91808700  0.24993048  0.40922363  1
  Te2-  Te153  1  0.91506507  0.25122198  0.74683615  1
  Te2-  Te154  1  0.92095731  0.58498679  0.08360429  1
  Te2-  Te155  1  0.91472247  0.58894845  0.41609131  1
  Te2-  Te156  1  0.91698017  0.58679754  0.73625835  1
  Te2-  Te157  1  0.92664303  0.91951368  0.08270998  1
  Te2-  Te158  1  0.92276685  0.91748368  0.41619851  1
  Te2-  Te159  1  0.91683816  0.91687050  0.74817274  1
  Te2-  Te160  1  0.25484131  0.08375279  0.25099156  1
  Te2-  Te161  1  0.25143510  0.08351172  0.58638170  1
  Te2-  Te162  1  0.24746383  0.08016825  0.91962639  1
  Te2-  Te163  1  0.25225130  0.41368376  0.25116625  1
  Te2-  Te164  1  0.25062543  0.41132369  0.58755898  1
  Te2-  Te165  1  0.24773890  0.41085471  0.91662387  1
  Te2-  Te166  1  0.26025021  0.74353644  0.25698205  1
  Te2-  Te167  1  0.25580447  0.75075876  0.59142700  1
  Te2-  Te168  1  0.25359311  0.74558195  0.91810442  1
  Te2-  Te169  1  0.58574596  0.07787851  0.25064291  1
  Te2-  Te170  1  0.58720467  0.08136690  0.58779045  1
  Te2-  Te171  1  0.58499341  0.07317225  0.92235853  1
  Te2-  Te172  1  0.58423408  0.40867197  0.25321655  1
  Te2-  Te173  1  0.58463913  0.41887380  0.58925124  1
  Te2-  Te174  1  0.58568090  0.41871984  0.92329833  1
  Te2-  Te175  1  0.59043599  0.74787665  0.25146715  1
  Te2-  Te176  1  0.58420811  0.75350995  0.58775725  1
  Te2-  Te177  1  0.58384295  0.75125362  0.91841576  1
  Te2-  Te178  1  0.91935120  0.08145774  0.24961943  1
  Te2-  Te179  1  0.91609078  0.08135662  0.58059245  1
  Te2-  Te180  1  0.92180656  0.08144215  0.91900705  1
  Te2-  Te181  1  0.91981057  0.41107029  0.25111201  1
  Te2-  Te182  1  0.91381672  0.41364600  0.58318197  1
  Te2-  Te183  1  0.91779822  0.41653788  0.91478960  1
  Te2-  Te184  1  0.92258684  0.74833874  0.25327296  1
  Te2-  Te185  1  0.92405465  0.74452399  0.58445293  1
  Te2-  Te186  1  0.92124567  0.74353371  0.92331316  1
  Te2-  Te187  1  0.08201238  0.25176495  0.24971413  1
  Te2-  Te188  1  0.07888652  0.25231595  0.58458762  1
  Te2-  Te189  1  0.07700537  0.25221616  0.91750481  1
  Te2-  Te190  1  0.08049656  0.58394004  0.25191392  1
  Te2-  Te191  1  0.07666574  0.58590435  0.58035665  1
  Te2-  Te192  1  0.07944365  0.58668469  0.92180521  1
  Te2-  Te193  1  0.08914096  0.91584248  0.25315217  1
  Te2-  Te194  1  0.08163112  0.92067305  0.58667247  1
  Te2-  Te195  1  0.08306520  0.91510075  0.92048132  1
  Te2-  Te196  1  0.41502441  0.24879599  0.25355985  1
  Te2-  Te197  1  0.41440981  0.25255314  0.59040648  1
  Te2-  Te198  1  0.40995311  0.25099382  0.92032823  1
  Te2-  Te199  1  0.41172835  0.58562469  0.26069624  1
  Te2-  Te200  1  0.41575840  0.59347085  0.59018126  1
  Te2-  Te201  1  0.41072717  0.58884766  0.92270486  1
  Te2-  Te202  1  0.41855237  0.92029448  0.25077272  1
  Te2-  Te203  1  0.41233802  0.92452606  0.58120101  1
  Te2-  Te204  1  0.41241219  0.92699905  0.91693718  1
  Te2-  Te205  1  0.74537012  0.24923239  0.24739214  1
  Te2-  Te206  1  0.74669840  0.25116006  0.58031295  1
  Te2-  Te207  1  0.74930416  0.25661207  0.91976272  1
  Te2-  Te208  1  0.75193590  0.58693586  0.25564219  1
  Te2-  Te209  1  0.74052553  0.58434323  0.58539818  1
  Te2-  Te210  1  0.74694368  0.58737825  0.91643070  1
  Te2-  Te211  1  0.74948708  0.91879348  0.24982342  1
  Te2-  Te212  1  0.75172627  0.91909381  0.59108837  1
  Te2-  Te213  1  0.74557441  0.91413223  0.92281182  1
  Te2-  Te214  1  0.08295606  0.07969460  0.08178643  1
  Te2-  Te215  1  0.08200987  0.08256628  0.41321199  1
  Te2-  Te216  1  0.07830262  0.08005029  0.74630225  1
  Te2-  Te217  1  0.08186684  0.41412989  0.07953087  1
  Te2-  Te218  1  0.08304246  0.41374098  0.41399747  1
  Te2-  Te219  1  0.07911741  0.41705540  0.74442679  1
  Te2-  Te220  1  0.08712825  0.74504068  0.08523049  1
  Te2-  Te221  1  0.08363313  0.74728687  0.41725539  1
  Te2-  Te222  1  0.08050293  0.74565436  0.74468522  1
  Te2-  Te223  1  0.41248536  0.08112400  0.07723766  1
  Te2-  Te224  1  0.41374065  0.08452952  0.41705286  1
  Te2-  Te225  1  0.40849493  0.08525677  0.74783942  1
  Te2-  Te226  1  0.41126757  0.41426942  0.08269567  1
  Te2-  Te227  1  0.41395697  0.41938266  0.41544144  1
  Te2-  Te228  1  0.41305722  0.41106273  0.75424619  1
  Te2-  Te229  1  0.41385888  0.74330460  0.07684365  1
  Te2-  Te230  1  0.41511548  0.74858337  0.41488086  1
  Te2-  Te231  1  0.41599459  0.75175035  0.74335004  1
  Te2-  Te232  1  0.74665402  0.07293096  0.07857437  1
  Te2-  Te233  1  0.74534044  0.07787147  0.40802518  1
  Te2-  Te234  1  0.74983358  0.07896669  0.74582850  1
  Te2-  Te235  1  0.74740037  0.41720387  0.08233399  1
  Te2-  Te236  1  0.74264576  0.41356996  0.41107713  1
  Te2-  Te237  1  0.74445312  0.41648727  0.74703745  1
  Te2-  Te238  1  0.75371968  0.74746204  0.07995860  1
  Te2-  Te239  1  0.74903509  0.74934656  0.41334566  1
  Te2-  Te240  1  0.74358079  0.74390461  0.75131003  1
