# generated using pymatgen
data_Ti27(Cu53Te54)2
_symmetry_space_group_name_H-M   'P 1'
_cell_length_a   17.92783654
_cell_length_b   17.93681921
_cell_length_c   17.92325237
_cell_angle_alpha   90.07768726
_cell_angle_beta   90.00595274
_cell_angle_gamma   89.94201267
_symmetry_Int_Tables_number   1
_chemical_formula_structural   Ti27(Cu53Te54)2
_chemical_formula_sum   'Ti27 Cu106 Te108'
_cell_volume   5763.54264210
_cell_formula_units_Z   1
loop_
 _symmetry_equiv_pos_site_id
 _symmetry_equiv_pos_as_xyz
  1  'x, y, z'
loop_
 _atom_type_symbol
 _atom_type_oxidation_number
  Ti4+  4.0
  Cu+  1.0
  Te2-  -2.0
loop_
 _atom_site_type_symbol
 _atom_site_label
 _atom_site_symmetry_multiplicity
 _atom_site_fract_x
 _atom_site_fract_y
 _atom_site_fract_z
 _atom_site_occupancy
  Ti4+  Ti0  1  0.16823709  0.16517031  0.16564515  1
  Ti4+  Ti1  1  0.16520105  0.16654181  0.49869929  1
  Ti4+  Ti2  1  0.16965965  0.16163327  0.83433368  1
  Ti4+  Ti3  1  0.16760191  0.49715271  0.16918831  1
  Ti4+  Ti4  1  0.16358305  0.50347142  0.50203269  1
  Ti4+  Ti5  1  0.16892150  0.49497646  0.83377362  1
  Ti4+  Ti6  1  0.16706524  0.83307204  0.16807655  1
  Ti4+  Ti7  1  0.16531936  0.83550058  0.50062766  1
  Ti4+  Ti8  1  0.16883609  0.83296888  0.83726737  1
  Ti4+  Ti9  1  0.50151030  0.16592022  0.16405980  1
  Ti4+  Ti10  1  0.49629325  0.16388463  0.49654184  1
  Ti4+  Ti11  1  0.50188847  0.16966195  0.83133630  1
  Ti4+  Ti12  1  0.49712563  0.50129567  0.16706884  1
  Ti4+  Ti13  1  0.49459900  0.50037256  0.49781001  1
  Ti4+  Ti14  1  0.49921448  0.50269692  0.83461679  1
  Ti4+  Ti15  1  0.50561958  0.83008480  0.16565666  1
  Ti4+  Ti16  1  0.49933901  0.82967770  0.49843052  1
  Ti4+  Ti17  1  0.50092925  0.83440983  0.83112690  1
  Ti4+  Ti18  1  0.83329346  0.17013440  0.16486454  1
  Ti4+  Ti19  1  0.82755066  0.16825290  0.49943077  1
  Ti4+  Ti20  1  0.83527242  0.16546965  0.83136254  1
  Ti4+  Ti21  1  0.83473589  0.50010055  0.16760674  1
  Ti4+  Ti22  1  0.83128592  0.50075627  0.50873511  1
  Ti4+  Ti23  1  0.83828761  0.50111518  0.83165403  1
  Ti4+  Ti24  1  0.83578382  0.83572720  0.16492241  1
  Ti4+  Ti25  1  0.83076706  0.83388670  0.49842574  1
  Ti4+  Ti26  1  0.83445382  0.83573684  0.83044192  1
  Cu+  Cu27  1  0.16706558  0.16047441  -0.00093335  1
  Cu+  Cu28  1  0.16904253  0.16231590  0.33300738  1
  Cu+  Cu29  1  0.16919372  0.16605820  0.66665377  1
  Cu+  Cu30  1  0.17031110  0.49503373  0.00251944  1
  Cu+  Cu31  1  0.16779613  0.49843468  0.33660751  1
  Cu+  Cu32  1  0.16002705  0.49747271  0.66724203  1
  Cu+  Cu33  1  0.16799193  0.83114782  0.00526805  1
  Cu+  Cu34  1  0.16545791  0.83446565  0.33361334  1
  Cu+  Cu35  1  0.16611137  0.83881844  0.67009292  1
  Cu+  Cu36  1  0.49767281  0.16801511  -0.00099292  1
  Cu+  Cu37  1  0.49967146  0.16319303  0.33168716  1
  Cu+  Cu38  1  0.50244787  0.16969052  0.66205682  1
  Cu+  Cu39  1  0.50194577  0.50271741  0.00067713  1
  Cu+  Cu40  1  0.49041520  0.50047340  0.33207967  1
  Cu+  Cu41  1  0.49711271  0.50206390  0.66779800  1
  Cu+  Cu42  1  0.50388635  0.83141348  -0.00136371  1
  Cu+  Cu43  1  0.50503106  0.82600053  0.33234739  1
  Cu+  Cu44  1  0.49681774  0.83182328  0.66526401  1
  Cu+  Cu45  1  0.83713895  0.16879682  -0.00096322  1
  Cu+  Cu46  1  0.82697731  0.16770755  0.33074719  1
  Cu+  Cu47  1  0.83124765  0.17139300  0.66780251  1
  Cu+  Cu48  1  0.83752486  0.49791689  -0.00064838  1
  Cu+  Cu49  1  0.83296332  0.49910434  0.33925461  1
  Cu+  Cu50  1  0.83534126  0.50933384  0.66960889  1
  Cu+  Cu51  1  0.83747166  0.83690211  -0.00112795  1
  Cu+  Cu52  1  0.83155981  0.83268403  0.32987282  1
  Cu+  Cu53  1  0.82812778  0.83771850  0.66584118  1
  Cu+  Cu54  1  0.16731671  -0.00231069  0.16687252  1
  Cu+  Cu55  1  0.16704427  0.00220586  0.49607224  1
  Cu+  Cu56  1  0.16406439  -0.00171814  0.83674656  1
  Cu+  Cu57  1  0.16886878  0.32970709  0.16758918  1
  Cu+  Cu58  1  0.16306878  0.33686577  0.50086705  1
  Cu+  Cu59  1  0.17161338  0.32672820  0.83337842  1
  Cu+  Cu60  1  0.16644441  0.66476754  0.16831208  1
  Cu+  Cu61  1  0.16381839  0.67281827  0.50194218  1
  Cu+  Cu62  1  0.17319089  0.66249351  0.83712714  1
  Cu+  Cu63  1  0.50713366  -0.00545941  0.16403481  1
  Cu+  Cu64  1  0.49794674  -0.00244728  0.49605535  1
  Cu+  Cu65  1  0.50235095  0.00424992  0.83302593  1
  Cu+  Cu66  1  0.49704513  0.33257250  0.16432852  1
  Cu+  Cu67  1  0.49533657  0.32860393  0.49874431  1
  Cu+  Cu68  1  0.50192307  0.33873827  0.83245288  1
  Cu+  Cu69  1  0.49896276  0.66819094  0.16915860  1
  Cu+  Cu70  1  0.49705826  0.66506948  0.49650846  1
  Cu+  Cu71  1  0.49819532  0.67057499  0.83462320  1
  Cu+  Cu72  1  0.83278536  0.00407910  0.16645567  1
  Cu+  Cu73  1  0.82893965  0.00193187  0.49560960  1
  Cu+  Cu74  1  0.83228876  -0.00073572  0.82930549  1
  Cu+  Cu75  1  0.83445652  0.33586869  0.16537971  1
  Cu+  Cu76  1  0.83397926  0.33174412  0.50658097  1
  Cu+  Cu77  1  0.83805716  0.33401411  0.82851519  1
  Cu+  Cu78  1  0.83679521  0.66418294  0.16493101  1
  Cu+  Cu79  1  0.83035678  0.66907990  0.50832839  1
  Cu+  Cu80  1  0.83762131  0.66858273  0.83230630  1
  Cu+  Cu81  1  -0.00105487  0.16967506  0.16513240  1
  Cu+  Cu82  1  -0.00425180  0.16923389  0.49871754  1
  Cu+  Cu83  1  0.00350307  0.15870186  0.83631629  1
  Cu+  Cu84  1  0.00036955  0.49636820  0.16905605  1
  Cu+  Cu85  1  -0.00142972  0.50017332  0.51205373  1
  Cu+  Cu86  1  0.00581393  0.49909318  0.82853465  1
  Cu+  Cu87  1  0.00037169  0.83596033  0.16551917  1
  Cu+  Cu88  1  -0.00171355  0.83795104  0.49863306  1
  Cu+  Cu89  1  0.00197197  0.83762521  0.83030631  1
  Cu+  Cu90  1  0.33631370  0.16760928  0.16001450  1
  Cu+  Cu91  1  0.33053929  0.16176021  0.49373439  1
  Cu+  Cu92  1  0.33743283  0.16223789  0.83569306  1
  Cu+  Cu93  1  0.33474119  0.49459347  0.17120047  1
  Cu+  Cu94  1  0.32816363  0.50309459  0.49260360  1
  Cu+  Cu95  1  0.33058844  0.50193964  0.83807742  1
  Cu+  Cu96  1  0.33307738  0.83304227  0.16747803  1
  Cu+  Cu97  1  0.33177251  0.83243778  0.50280765  1
  Cu+  Cu98  1  0.33535494  0.83111458  0.83860984  1
  Cu+  Cu99  1  0.66860556  0.16521196  0.16708307  1
  Cu+  Cu100  1  0.65975632  0.16875090  0.49951646  1
  Cu+  Cu101  1  0.66855276  0.17114577  0.82962718  1
  Cu+  Cu102  1  0.66635336  0.50119389  0.16736434  1
  Cu+  Cu103  1  0.66140222  0.50105471  0.50574336  1
  Cu+  Cu104  1  0.66750608  0.50077723  0.83328400  1
  Cu+  Cu105  1  0.67311184  0.82952131  0.16628841  1
  Cu+  Cu106  1  0.66493803  0.82636008  0.49706202  1
  Cu+  Cu107  1  0.66696428  0.83960668  0.82855862  1
  Cu+  Cu108  1  0.73923631  0.74740248  0.59558323  1
  Cu+  Cu109  1  0.39820730  0.59307298  0.40500011  1
  Cu+  Cu110  1  0.41194364  0.74167131  0.92843246  1
  Cu+  Cu111  1  0.58120425  0.59215452  0.59520213  1
  Cu+  Cu112  1  0.07108141  0.07036993  0.93208265  1
  Cu+  Cu113  1  0.25950523  0.06947492  0.40256219  1
  Cu+  Cu114  1  0.73606419  0.93002313  0.73692070  1
  Cu+  Cu115  1  0.40301036  0.74915195  0.25768496  1
  Cu+  Cu116  1  0.41020046  0.39987964  0.25882132  1
  Cu+  Cu117  1  0.41157615  0.07370033  0.92629804  1
  Cu+  Cu118  1  0.75010389  0.73395314  0.25257363  1
  Cu+  Cu119  1  0.58651037  0.26035569  0.58862376  1
  Cu+  Cu120  1  0.25623446  0.58761853  0.93366462  1
  Cu+  Cu121  1  0.40105124  0.74305106  0.59363997  1
  Cu+  Cu122  1  0.92783766  0.25175695  0.59449237  1
  Cu+  Cu123  1  0.74100609  0.26383836  0.74496476  1
  Cu+  Cu124  1  0.07601129  0.92796580  0.73986397  1
  Cu+  Cu125  1  0.74040448  0.07479818  0.25871240  1
  Cu+  Cu126  1  0.07477687  0.40440537  0.59586861  1
  Cu+  Cu127  1  0.40674229  0.26285124  0.06942035  1
  Cu+  Cu128  1  0.25251377  0.40544974  0.40991936  1
  Cu+  Cu129  1  0.92779045  0.60049551  0.59136898  1
  Cu+  Cu130  1  0.73710481  0.59685297  0.75608735  1
  Cu+  Cu131  1  0.08384626  0.59516642  0.74533154  1
  Cu+  Cu132  1  0.59376669  0.73427004  0.40544659  1
  Te2-  Te133  1  0.25159100  0.25133225  0.07661365  1
  Te2-  Te134  1  0.24968180  0.25380669  0.41396124  1
  Te2-  Te135  1  0.25628251  0.24616123  0.74934834  1
  Te2-  Te136  1  0.25485616  0.58335353  0.08570819  1
  Te2-  Te137  1  0.24548027  0.59344331  0.41356086  1
  Te2-  Te138  1  0.25174250  0.58132249  0.74416447  1
  Te2-  Te139  1  0.25383610  0.91797112  0.08257000  1
  Te2-  Te140  1  0.25384830  0.91710251  0.41340765  1
  Te2-  Te141  1  0.25502167  0.91821099  0.75400628  1
  Te2-  Te142  1  0.58679477  0.25161423  0.08126140  1
  Te2-  Te143  1  0.58121741  0.25188327  0.41078464  1
  Te2-  Te144  1  0.58654793  0.25925664  0.74437237  1
  Te2-  Te145  1  0.58411976  0.58649091  0.08439000  1
  Te2-  Te146  1  0.58551107  0.58105769  0.41024851  1
  Te2-  Te147  1  0.58442100  0.59047329  0.74853090  1
  Te2-  Te148  1  0.59119663  0.91318038  0.07997688  1
  Te2-  Te149  1  0.58526277  0.91563925  0.41422828  1
  Te2-  Te150  1  0.58240162  0.92214724  0.74250751  1
  Te2-  Te151  1  0.91975243  0.25536818  0.08004458  1
  Te2-  Te152  1  0.91209908  0.25245095  0.41295330  1
  Te2-  Te153  1  0.92702972  0.24926114  0.74923861  1
  Te2-  Te154  1  0.92211165  0.58260077  0.08171958  1
  Te2-  Te155  1  0.91658356  0.58499328  0.42348702  1
  Te2-  Te156  1  0.92730362  0.59166922  0.74686678  1
  Te2-  Te157  1  0.91965813  0.92298041  0.08164507  1
  Te2-  Te158  1  0.91412222  0.91893859  0.41320945  1
  Te2-  Te159  1  0.91991964  0.92118740  0.74289864  1
  Te2-  Te160  1  0.25659813  0.07931541  0.24852245  1
  Te2-  Te161  1  0.25094820  0.08115713  0.58397776  1
  Te2-  Te162  1  0.25621722  0.07574491  0.92073916  1
  Te2-  Te163  1  0.25375364  0.40814448  0.25639651  1
  Te2-  Te164  1  0.25262717  0.41837100  0.58495812  1
  Te2-  Te165  1  0.25391934  0.40909872  0.91955762  1
  Te2-  Te166  1  0.25078284  0.74608805  0.25504289  1
  Te2-  Te167  1  0.24867925  0.74951098  0.59012464  1
  Te2-  Te168  1  0.25481443  0.74527211  0.92564213  1
  Te2-  Te169  1  0.58577359  0.07887549  0.25127571  1
  Te2-  Te170  1  0.58240875  0.07796186  0.58185700  1
  Te2-  Te171  1  0.58898950  0.08670219  0.91676083  1
  Te2-  Te172  1  0.58177768  0.41607348  0.25207801  1
  Te2-  Te173  1  0.57835750  0.41348382  0.58551311  1
  Te2-  Te174  1  0.58627755  0.41838872  0.91859660  1
  Te2-  Te175  1  0.59390357  0.74099654  0.25175977  1
  Te2-  Te176  1  0.58565293  0.74396162  0.58984461  1
  Te2-  Te177  1  0.59018939  0.75052351  0.91411675  1
  Te2-  Te178  1  0.91858507  0.08527796  0.25197915  1
  Te2-  Te179  1  0.91308151  0.08242959  0.58340259  1
  Te2-  Te180  1  0.91666487  0.07695284  0.91942996  1
  Te2-  Te181  1  0.91724168  0.41481316  0.25549024  1
  Te2-  Te182  1  0.91794045  0.41062480  0.59545078  1
  Te2-  Te183  1  0.92285827  0.41516062  0.91481782  1
  Te2-  Te184  1  0.92028106  0.74885623  0.25064915  1
  Te2-  Te185  1  0.92015145  0.75424969  0.58798732  1
  Te2-  Te186  1  0.92076569  0.75223003  0.91552057  1
  Te2-  Te187  1  0.08407063  0.24856635  0.25218775  1
  Te2-  Te188  1  0.08047211  0.25214503  0.58872404  1
  Te2-  Te189  1  0.08367908  0.24864144  0.91838148  1
  Te2-  Te190  1  0.08260832  0.58164265  0.25354390  1
  Te2-  Te191  1  0.07988479  0.59511147  0.59025947  1
  Te2-  Te192  1  0.08407548  0.58142970  0.92083288  1
  Te2-  Te193  1  0.08125597  0.91915969  0.25230100  1
  Te2-  Te194  1  0.08009895  0.92334464  0.58440102  1
  Te2-  Te195  1  0.08093628  0.91611944  0.92501761  1
  Te2-  Te196  1  0.41353757  0.24847579  0.25293232  1
  Te2-  Te197  1  0.40843717  0.24790766  0.58199982  1
  Te2-  Te198  1  0.41500749  0.25696347  0.91588402  1
  Te2-  Te199  1  0.40776511  0.59147924  0.25258452  1
  Te2-  Te200  1  0.40814973  0.58601991  0.58596832  1
  Te2-  Te201  1  0.41326586  0.58836457  0.92316941  1
  Te2-  Te202  1  0.42100452  0.91544297  0.25176338  1
  Te2-  Te203  1  0.41552313  0.91818881  0.58305284  1
  Te2-  Te204  1  0.41805558  0.92037537  0.91977966  1
  Te2-  Te205  1  0.74632837  0.25691874  0.24906144  1
  Te2-  Te206  1  0.74002277  0.25582099  0.58800704  1
  Te2-  Te207  1  0.75252372  0.25378973  0.91593911  1
  Te2-  Te208  1  0.74831943  0.58362576  0.25562010  1
  Te2-  Te209  1  0.73922035  0.58963076  0.59309493  1
  Te2-  Te210  1  0.75285901  0.58549773  0.91821974  1
  Te2-  Te211  1  0.74727005  0.92138652  0.25154375  1
  Te2-  Te212  1  0.74147745  0.92145203  0.58106345  1
  Te2-  Te213  1  0.74945615  0.91935545  0.91787373  1
  Te2-  Te214  1  0.07937625  0.07873239  0.08344921  1
  Te2-  Te215  1  0.07719451  0.08330381  0.41471917  1
  Te2-  Te216  1  0.08252350  0.07927487  0.74395067  1
  Te2-  Te217  1  0.08376343  0.41244281  0.08390797  1
  Te2-  Te218  1  0.07526257  0.41920021  0.41758874  1
  Te2-  Te219  1  0.08240189  0.40457633  0.74965157  1
  Te2-  Te220  1  0.08124845  0.74659752  0.08409282  1
  Te2-  Te221  1  0.07927387  0.75150939  0.41551409  1
  Te2-  Te222  1  0.08488204  0.74712657  0.75079703  1
  Te2-  Te223  1  0.41735317  0.07465823  0.08087647  1
  Te2-  Te224  1  0.41333596  0.07602734  0.40826763  1
  Te2-  Te225  1  0.41922585  0.08396001  0.74389227  1
  Te2-  Te226  1  0.41323934  0.41633188  0.07680349  1
  Te2-  Te227  1  0.40905613  0.40812063  0.41311936  1
  Te2-  Te228  1  0.41281759  0.41886530  0.75022876  1
  Te2-  Te229  1  0.41527782  0.74762673  0.08056429  1
  Te2-  Te230  1  0.40754705  0.74617605  0.41101613  1
  Te2-  Te231  1  0.41153104  0.74696116  0.74682549  1
  Te2-  Te232  1  0.74940912  0.08394180  0.07726059  1
  Te2-  Te233  1  0.74090465  0.08277420  0.41413482  1
  Te2-  Te234  1  0.74641376  0.08132238  0.74455046  1
  Te2-  Te235  1  0.74834197  0.41720915  0.08102935  1
  Te2-  Te236  1  0.74747342  0.41621908  0.42319894  1
  Te2-  Te237  1  0.74983603  0.41719833  0.74554852  1
  Te2-  Te238  1  0.75408461  0.74771402  0.07764306  1
  Te2-  Te239  1  0.74859891  0.74153281  0.41048056  1
  Te2-  Te240  1  0.74444877  0.74640881  0.74707144  1
