# generated using pymatgen
data_Ti27(Cu53Te54)2
_symmetry_space_group_name_H-M   'P 1'
_cell_length_a   17.85516096
_cell_length_b   17.85607193
_cell_length_c   17.85676572
_cell_angle_alpha   90.01260306
_cell_angle_beta   90.00257007
_cell_angle_gamma   90.01510859
_symmetry_Int_Tables_number   1
_chemical_formula_structural   Ti27(Cu53Te54)2
_chemical_formula_sum   'Ti27 Cu106 Te108'
_cell_volume   5693.14796059
_cell_formula_units_Z   1
loop_
 _symmetry_equiv_pos_site_id
 _symmetry_equiv_pos_as_xyz
  1  'x, y, z'
loop_
 _atom_type_symbol
 _atom_type_oxidation_number
  Ti4+  4.0
  Cu+  1.0
  Te2-  -2.0
loop_
 _atom_site_type_symbol
 _atom_site_label
 _atom_site_symmetry_multiplicity
 _atom_site_fract_x
 _atom_site_fract_y
 _atom_site_fract_z
 _atom_site_occupancy
  Ti4+  Ti0  1  0.16763517  0.16474376  0.16632511  1
  Ti4+  Ti1  1  0.16441746  0.16634867  0.50205254  1
  Ti4+  Ti2  1  0.16525055  0.16345244  0.83172765  1
  Ti4+  Ti3  1  0.16633095  0.50298990  0.16645254  1
  Ti4+  Ti4  1  0.16772182  0.49886062  0.49769902  1
  Ti4+  Ti5  1  0.16552585  0.50043453  0.83224661  1
  Ti4+  Ti6  1  0.16623937  0.83287670  0.16945010  1
  Ti4+  Ti7  1  0.16779698  0.83563712  0.50157313  1
  Ti4+  Ti8  1  0.17012312  0.83378186  0.83339518  1
  Ti4+  Ti9  1  0.49993290  0.16791412  0.16649206  1
  Ti4+  Ti10  1  0.50241677  0.16773388  0.50065210  1
  Ti4+  Ti11  1  0.50101845  0.16807527  0.83404175  1
  Ti4+  Ti12  1  0.49793457  0.49890039  0.16889992  1
  Ti4+  Ti13  1  0.50162447  0.49934343  0.50155765  1
  Ti4+  Ti14  1  0.49956789  0.50012644  0.83548718  1
  Ti4+  Ti15  1  0.50051033  0.83133934  0.16859965  1
  Ti4+  Ti16  1  0.50031842  0.83314615  0.49857469  1
  Ti4+  Ti17  1  0.50016043  0.83266413  0.83155492  1
  Ti4+  Ti18  1  0.83227320  0.16372213  0.16639133  1
  Ti4+  Ti19  1  0.83277563  0.16731022  0.50025484  1
  Ti4+  Ti20  1  0.83334862  0.16574308  0.83253500  1
  Ti4+  Ti21  1  0.83466395  0.49912726  0.16562866  1
  Ti4+  Ti22  1  0.83566309  0.50139650  0.50010664  1
  Ti4+  Ti23  1  0.83385066  0.50121503  0.83498500  1
  Ti4+  Ti24  1  0.83428200  0.83781987  0.16708233  1
  Ti4+  Ti25  1  0.83175232  0.83065303  0.49747209  1
  Ti4+  Ti26  1  0.83252494  0.83315698  0.83316844  1
  Cu+  Cu27  1  0.16994840  0.16425814  -0.00270121  1
  Cu+  Cu28  1  0.16398579  0.16364930  0.33304746  1
  Cu+  Cu29  1  0.15945286  0.16535359  0.66768300  1
  Cu+  Cu30  1  0.16384098  0.50275222  -0.00156999  1
  Cu+  Cu31  1  0.16576370  0.50596566  0.33401397  1
  Cu+  Cu32  1  0.16649674  0.49692421  0.66329284  1
  Cu+  Cu33  1  0.16862055  0.83220429  0.00153277  1
  Cu+  Cu34  1  0.17281803  0.83812435  0.33177806  1
  Cu+  Cu35  1  0.17223525  0.83787444  0.66883326  1
  Cu+  Cu36  1  0.49655393  0.16782093  0.00155492  1
  Cu+  Cu37  1  0.50129232  0.17108493  0.33268188  1
  Cu+  Cu38  1  0.50754921  0.16778832  0.66706017  1
  Cu+  Cu39  1  0.49934607  0.49982439  0.00244238  1
  Cu+  Cu40  1  0.49891574  0.49716821  0.33632948  1
  Cu+  Cu41  1  0.49915402  0.50010420  0.66909738  1
  Cu+  Cu42  1  0.49968864  0.83418434  -0.00284444  1
  Cu+  Cu43  1  0.50083279  0.82447133  0.33392885  1
  Cu+  Cu44  1  0.49838358  0.83482159  0.66549633  1
  Cu+  Cu45  1  0.83562891  0.16317268  -0.00129145  1
  Cu+  Cu46  1  0.83124729  0.16599248  0.33423973  1
  Cu+  Cu47  1  0.83274281  0.16700878  0.66553557  1
  Cu+  Cu48  1  0.83300742  0.50037021  -0.00140253  1
  Cu+  Cu49  1  0.83878597  0.49856733  0.33372285  1
  Cu+  Cu50  1  0.83442990  0.50216162  0.67047532  1
  Cu+  Cu51  1  0.83316881  0.83832751  -0.00160514  1
  Cu+  Cu52  1  0.82568194  0.83576321  0.33234966  1
  Cu+  Cu53  1  0.83146738  0.82872215  0.66479517  1
  Cu+  Cu54  1  0.16625871  0.00018422  0.17414615  1
  Cu+  Cu55  1  0.16799013  0.00094306  0.50780471  1
  Cu+  Cu56  1  0.16330684  -0.00354229  0.82991410  1
  Cu+  Cu57  1  0.16898502  0.33548728  0.16771304  1
  Cu+  Cu58  1  0.16438051  0.33468302  0.50437748  1
  Cu+  Cu59  1  0.16499330  0.33162201  0.83071101  1
  Cu+  Cu60  1  0.16331310  0.66498346  0.16196367  1
  Cu+  Cu61  1  0.16499564  0.66546940  0.49576563  1
  Cu+  Cu62  1  0.17203480  0.66923166  0.83186368  1
  Cu+  Cu63  1  0.50228355  -0.00031117  0.16597679  1
  Cu+  Cu64  1  0.49896949  0.00098885  0.49700227  1
  Cu+  Cu65  1  0.50179046  0.00001728  0.83025158  1
  Cu+  Cu66  1  0.50313601  0.33304673  0.16415010  1
  Cu+  Cu67  1  0.50349264  0.33343503  0.50493702  1
  Cu+  Cu68  1  0.49845274  0.33516021  0.83633199  1
  Cu+  Cu69  1  0.49165297  0.66698739  0.17070173  1
  Cu+  Cu70  1  0.50179537  0.66588577  0.49613974  1
  Cu+  Cu71  1  0.49977588  0.66577172  0.83528100  1
  Cu+  Cu72  1  0.83595623  0.00144811  0.15785685  1
  Cu+  Cu73  1  0.83121081  -0.00181403  0.49564947  1
  Cu+  Cu74  1  0.83353912  0.00045107  0.83313279  1
  Cu+  Cu75  1  0.83201545  0.33137948  0.16730934  1
  Cu+  Cu76  1  0.83848195  0.33448452  0.49635792  1
  Cu+  Cu77  1  0.83367673  0.33393742  0.83572161  1
  Cu+  Cu78  1  0.83603747  0.66638670  0.16899492  1
  Cu+  Cu79  1  0.83114551  0.66713328  0.50603277  1
  Cu+  Cu80  1  0.83361325  0.66654112  0.83429165  1
  Cu+  Cu81  1  0.00073889  0.16008828  0.16673829  1
  Cu+  Cu82  1  -0.00081034  0.16283823  0.50210754  1
  Cu+  Cu83  1  -0.00027873  0.16950300  0.83100124  1
  Cu+  Cu84  1  0.00082143  0.50277743  0.16524218  1
  Cu+  Cu85  1  -0.00000585  0.49674467  0.49308834  1
  Cu+  Cu86  1  -0.00242326  0.50089708  0.83489084  1
  Cu+  Cu87  1  -0.00107608  0.83383131  0.16731287  1
  Cu+  Cu88  1  -0.00170765  0.83181607  0.49745234  1
  Cu+  Cu89  1  -0.00121493  0.83498359  0.83398700  1
  Cu+  Cu90  1  0.33549853  0.16980420  0.16302949  1
  Cu+  Cu91  1  0.33387904  0.16857629  0.49717903  1
  Cu+  Cu92  1  0.33172001  0.16445373  0.83468648  1
  Cu+  Cu93  1  0.33344998  0.50480223  0.16641346  1
  Cu+  Cu94  1  0.33573193  0.50027101  0.50048394  1
  Cu+  Cu95  1  0.33158066  0.49869852  0.83471815  1
  Cu+  Cu96  1  0.33272680  0.83120541  0.17426778  1
  Cu+  Cu97  1  0.33087580  0.83786749  0.50455871  1
  Cu+  Cu98  1  0.33544262  0.82803766  0.83052714  1
  Cu+  Cu99  1  0.66293907  0.16572737  0.16879883  1
  Cu+  Cu100  1  0.66623153  0.17177418  0.50577792  1
  Cu+  Cu101  1  0.66700794  0.16305204  0.83158076  1
  Cu+  Cu102  1  0.66597871  0.49656254  0.16497572  1
  Cu+  Cu103  1  0.66882756  0.50059399  0.50061831  1
  Cu+  Cu104  1  0.66807440  0.50162219  0.83504408  1
  Cu+  Cu105  1  0.67185097  0.83532425  0.16862376  1
  Cu+  Cu106  1  0.66697668  0.82868465  0.49446062  1
  Cu+  Cu107  1  0.66492892  0.83298902  0.83450578  1
  Cu+  Cu108  1  0.06880008  0.59218871  0.06627844  1
  Cu+  Cu109  1  0.40066263  0.73731129  0.26528796  1
  Cu+  Cu110  1  0.40408318  0.26106695  0.07165781  1
  Cu+  Cu111  1  0.59537461  0.40904086  0.07137333  1
  Cu+  Cu112  1  0.74563292  0.73508487  0.25524816  1
  Cu+  Cu113  1  0.26396592  0.93273336  0.59888957  1
  Cu+  Cu114  1  0.93325679  0.07571005  0.06737632  1
  Cu+  Cu115  1  0.26604007  0.93273887  0.25841514  1
  Cu+  Cu116  1  0.07107847  0.59722059  0.40706304  1
  Cu+  Cu117  1  0.74029274  0.92443633  0.06832828  1
  Cu+  Cu118  1  0.59386064  0.73504807  0.40656574  1
  Cu+  Cu119  1  0.73587678  0.93151426  0.40773174  1
  Cu+  Cu120  1  0.06786729  0.07091506  0.59473219  1
  Cu+  Cu121  1  0.58762202  0.07206041  0.07251392  1
  Cu+  Cu122  1  0.07093242  0.26283738  0.74322406  1
  Cu+  Cu123  1  0.06953009  0.41359708  0.59255681  1
  Cu+  Cu124  1  0.59428308  0.26587324  0.59987516  1
  Cu+  Cu125  1  0.06909469  0.07233382  0.26267538  1
  Cu+  Cu126  1  0.59346745  0.07016295  0.73717505  1
  Cu+  Cu127  1  0.06842841  0.91869931  0.74106999  1
  Cu+  Cu128  1  0.59336414  0.26151058  0.26178757  1
  Cu+  Cu129  1  0.73670110  0.73956934  0.59817623  1
  Cu+  Cu130  1  0.26350621  0.73603204  0.73810115  1
  Cu+  Cu131  1  0.92899518  0.40217701  0.40166117  1
  Cu+  Cu132  1  0.40878361  0.59702531  0.07080491  1
  Te2-  Te133  1  0.25038568  0.25376528  0.07870452  1
  Te2-  Te134  1  0.24737256  0.25203583  0.41561753  1
  Te2-  Te135  1  0.25144124  0.24887781  0.74643319  1
  Te2-  Te136  1  0.25370031  0.58805485  0.07762789  1
  Te2-  Te137  1  0.25612197  0.58600485  0.41486747  1
  Te2-  Te138  1  0.25321347  0.58281511  0.74422302  1
  Te2-  Te139  1  0.25289620  0.91817196  0.08558477  1
  Te2-  Te140  1  0.25372184  0.92399454  0.41593805  1
  Te2-  Te141  1  0.26029598  0.92384315  0.74938315  1
  Te2-  Te142  1  0.58996440  0.25356881  0.07633260  1
  Te2-  Te143  1  0.58864820  0.25572478  0.41478737  1
  Te2-  Te144  1  0.58905785  0.25772633  0.75169313  1
  Te2-  Te145  1  0.58305120  0.58808659  0.08526877  1
  Te2-  Te146  1  0.58824633  0.58271223  0.41196199  1
  Te2-  Te147  1  0.58510730  0.58500178  0.74998955  1
  Te2-  Te148  1  0.58660134  0.91694364  0.07909956  1
  Te2-  Te149  1  0.58418637  0.91982315  0.41008811  1
  Te2-  Te150  1  0.58792953  0.91745672  0.74455369  1
  Te2-  Te151  1  0.91908407  0.24932347  0.08269328  1
  Te2-  Te152  1  0.92225654  0.24857901  0.41228785  1
  Te2-  Te153  1  0.91686742  0.25444443  0.74587526  1
  Te2-  Te154  1  0.91743514  0.58819258  0.07921482  1
  Te2-  Te155  1  0.91837281  0.59190099  0.41384431  1
  Te2-  Te156  1  0.92004528  0.58783569  0.74891654  1
  Te2-  Te157  1  0.92492421  0.91990953  0.07735712  1
  Te2-  Te158  1  0.91809803  0.91691190  0.41197018  1
  Te2-  Te159  1  0.91528483  0.91881578  0.74388943  1
  Te2-  Te160  1  0.25896024  0.08436400  0.25396472  1
  Te2-  Te161  1  0.25567546  0.08569152  0.58905778  1
  Te2-  Te162  1  0.25094280  0.07620011  0.91604005  1
  Te2-  Te163  1  0.25215123  0.41882944  0.25322844  1
  Te2-  Te164  1  0.25544853  0.41387425  0.58448338  1
  Te2-  Te165  1  0.24748138  0.41415600  0.91788487  1
  Te2-  Te166  1  0.24892059  0.74074915  0.25436335  1
  Te2-  Te167  1  0.25135571  0.74427609  0.58449841  1
  Te2-  Te168  1  0.25502912  0.74800450  0.92162017  1
  Te2-  Te169  1  0.58404234  0.07988537  0.25511995  1
  Te2-  Te170  1  0.58873776  0.07652776  0.58397231  1
  Te2-  Te171  1  0.58508445  0.08024716  0.92067124  1
  Te2-  Te172  1  0.58676882  0.41390834  0.25580124  1
  Te2-  Te173  1  0.58936453  0.41692425  0.59002164  1
  Te2-  Te174  1  0.58751951  0.41418934  0.92042134  1
  Te2-  Te175  1  0.59045921  0.74268227  0.25088288  1
  Te2-  Te176  1  0.58440190  0.74651071  0.58685188  1
  Te2-  Te177  1  0.58473605  0.74742846  0.91925772  1
  Te2-  Te178  1  0.91596264  0.07726655  0.25560331  1
  Te2-  Te179  1  0.91462696  0.07687096  0.58574818  1
  Te2-  Te180  1  0.92291449  0.07919935  0.91594337  1
  Te2-  Te181  1  0.92213258  0.41222129  0.24907032  1
  Te2-  Te182  1  0.91856117  0.41478126  0.58881867  1
  Te2-  Te183  1  0.91971644  0.41417894  0.92071346  1
  Te2-  Te184  1  0.91838801  0.75092982  0.25488921  1
  Te2-  Te185  1  0.92102927  0.74769830  0.58469338  1
  Te2-  Te186  1  0.91809746  0.75026052  0.91934427  1
  Te2-  Te187  1  0.08144061  0.25118758  0.24956113  1
  Te2-  Te188  1  0.07470934  0.25533401  0.58749423  1
  Te2-  Te189  1  0.08205958  0.25012318  0.91959271  1
  Te2-  Te190  1  0.07795983  0.58950300  0.25341356  1
  Te2-  Te191  1  0.07969305  0.58435037  0.58308551  1
  Te2-  Te192  1  0.08019634  0.59070922  0.91484631  1
  Te2-  Te193  1  0.07693767  0.91807376  0.25611777  1
  Te2-  Te194  1  0.07497095  0.91805513  0.58740195  1
  Te2-  Te195  1  0.08268078  0.91734551  0.92109076  1
  Te2-  Te196  1  0.41365422  0.25564567  0.25195690  1
  Te2-  Te197  1  0.41535379  0.25073552  0.58717586  1
  Te2-  Te198  1  0.41089797  0.25338440  0.91866069  1
  Te2-  Te199  1  0.41160674  0.58378140  0.25983740  1
  Te2-  Te200  1  0.41677825  0.58661753  0.58510471  1
  Te2-  Te201  1  0.41157896  0.58647950  0.91985304  1
  Te2-  Te202  1  0.41885554  0.92021753  0.25611742  1
  Te2-  Te203  1  0.41633402  0.92232694  0.58574258  1
  Te2-  Te204  1  0.41439449  0.91889616  0.91539375  1
  Te2-  Te205  1  0.74715239  0.25158886  0.25301975  1
  Te2-  Te206  1  0.75111692  0.25777332  0.58659540  1
  Te2-  Te207  1  0.74877347  0.24890945  0.91866129  1
  Te2-  Te208  1  0.74760240  0.58120636  0.25272017  1
  Te2-  Te209  1  0.74678715  0.58443887  0.58920621  1
  Te2-  Te210  1  0.74753696  0.58747888  0.92058270  1
  Te2-  Te211  1  0.74683794  0.92896176  0.25190250  1
  Te2-  Te212  1  0.74562072  0.91619814  0.58305099  1
  Te2-  Te213  1  0.74489281  0.92190363  0.91639968  1
  Te2-  Te214  1  0.08543321  0.07656852  0.07767187  1
  Te2-  Te215  1  0.08022845  0.07668374  0.41615060  1
  Te2-  Te216  1  0.07357183  0.07467983  0.74607565  1
  Te2-  Te217  1  0.08168361  0.41472852  0.08156107  1
  Te2-  Te218  1  0.08313899  0.40933614  0.40792797  1
  Te2-  Te219  1  0.07639452  0.41499735  0.74671223  1
  Te2-  Te220  1  0.07873521  0.74935671  0.07990717  1
  Te2-  Te221  1  0.08298035  0.75220592  0.41137946  1
  Te2-  Te222  1  0.08247231  0.74961490  0.74689526  1
  Te2-  Te223  1  0.41364234  0.07806468  0.08137515  1
  Te2-  Te224  1  0.41592138  0.08447967  0.41237264  1
  Te2-  Te225  1  0.41616810  0.08426771  0.74669306  1
  Te2-  Te226  1  0.41031188  0.41335299  0.08138399  1
  Te2-  Te227  1  0.41607507  0.41128801  0.41826026  1
  Te2-  Te228  1  0.41378964  0.41462193  0.74952879  1
  Te2-  Te229  1  0.41207052  0.75111877  0.07928755  1
  Te2-  Te230  1  0.40802989  0.74707057  0.41774494  1
  Te2-  Te231  1  0.41676168  0.74352716  0.74380436  1
  Te2-  Te232  1  0.74217285  0.08041948  0.07657636  1
  Te2-  Te233  1  0.74280028  0.08438555  0.41542732  1
  Te2-  Te234  1  0.74836316  0.07876089  0.74463405  1
  Te2-  Te235  1  0.74962262  0.41238900  0.07911756  1
  Te2-  Te236  1  0.74954755  0.41574974  0.41435434  1
  Te2-  Te237  1  0.74830939  0.41506917  0.74948565  1
  Te2-  Te238  1  0.75079784  0.74858796  0.08097175  1
  Te2-  Te239  1  0.74624392  0.73762237  0.40865150  1
  Te2-  Te240  1  0.74501073  0.74543848  0.74989458  1
