# generated using pymatgen
data_Ti27(Cu53Te54)2
_symmetry_space_group_name_H-M   'P 1'
_cell_length_a   17.89448286
_cell_length_b   17.89132812
_cell_length_c   17.89624987
_cell_angle_alpha   89.97592479
_cell_angle_beta   90.05218991
_cell_angle_gamma   90.01003098
_symmetry_Int_Tables_number   1
_chemical_formula_structural   Ti27(Cu53Te54)2
_chemical_formula_sum   'Ti27 Cu106 Te108'
_cell_volume   5729.58995556
_cell_formula_units_Z   1
loop_
 _symmetry_equiv_pos_site_id
 _symmetry_equiv_pos_as_xyz
  1  'x, y, z'
loop_
 _atom_type_symbol
 _atom_type_oxidation_number
  Ti4+  4.0
  Cu+  1.0
  Te2-  -2.0
loop_
 _atom_site_type_symbol
 _atom_site_label
 _atom_site_symmetry_multiplicity
 _atom_site_fract_x
 _atom_site_fract_y
 _atom_site_fract_z
 _atom_site_occupancy
  Ti4+  Ti0  1  0.16764108  0.16683052  0.16588972  1
  Ti4+  Ti1  1  0.16460235  0.16686664  0.49624452  1
  Ti4+  Ti2  1  0.16644529  0.16559690  0.83390573  1
  Ti4+  Ti3  1  0.16837045  0.50305964  0.16589515  1
  Ti4+  Ti4  1  0.16690180  0.49868691  0.50057823  1
  Ti4+  Ti5  1  0.16793432  0.49965356  0.83476270  1
  Ti4+  Ti6  1  0.16847424  0.83471116  0.16662683  1
  Ti4+  Ti7  1  0.16807467  0.83556960  0.50207268  1
  Ti4+  Ti8  1  0.16676427  0.83564106  0.83579620  1
  Ti4+  Ti9  1  0.49877690  0.16959245  0.16594207  1
  Ti4+  Ti10  1  0.49783325  0.16812524  0.49785866  1
  Ti4+  Ti11  1  0.50124536  0.16642032  0.83090828  1
  Ti4+  Ti12  1  0.50109233  0.49949001  0.16866822  1
  Ti4+  Ti13  1  0.49913867  0.49768900  0.49865632  1
  Ti4+  Ti14  1  0.50098312  0.49684530  0.83089075  1
  Ti4+  Ti15  1  0.49988149  0.83270419  0.16940255  1
  Ti4+  Ti16  1  0.49758949  0.83402046  0.49981929  1
  Ti4+  Ti17  1  0.50033576  0.83269711  0.83843844  1
  Ti4+  Ti18  1  0.83269298  0.16689434  0.16920859  1
  Ti4+  Ti19  1  0.83290612  0.16639841  0.50324785  1
  Ti4+  Ti20  1  0.83167724  0.16795136  0.83520598  1
  Ti4+  Ti21  1  0.83540225  0.50144613  0.16824446  1
  Ti4+  Ti22  1  0.83390851  0.50105299  0.50048852  1
  Ti4+  Ti23  1  0.83457590  0.50109946  0.83079033  1
  Ti4+  Ti24  1  0.83385636  0.83320444  0.16417547  1
  Ti4+  Ti25  1  0.83765177  0.83269132  0.50038653  1
  Ti4+  Ti26  1  0.82722159  0.83053613  0.82862107  1
  Cu+  Cu27  1  0.16990031  0.16433687  -0.00070378  1
  Cu+  Cu28  1  0.16709154  0.16182860  0.33061722  1
  Cu+  Cu29  1  0.16356174  0.16524607  0.66495355  1
  Cu+  Cu30  1  0.17083548  0.49883638  0.00046103  1
  Cu+  Cu31  1  0.16463913  0.50153079  0.33283851  1
  Cu+  Cu32  1  0.16803298  0.49833307  0.67046240  1
  Cu+  Cu33  1  0.16730947  0.83693516  0.00343641  1
  Cu+  Cu34  1  0.16708918  0.83758466  0.33634740  1
  Cu+  Cu35  1  0.16743009  0.83537688  0.66812928  1
  Cu+  Cu36  1  0.50130785  0.17003332  -0.00393572  1
  Cu+  Cu37  1  0.49612279  0.17561894  0.33175638  1
  Cu+  Cu38  1  0.49917720  0.16519618  0.66366796  1
  Cu+  Cu39  1  0.50033498  0.49946299  -0.00090148  1
  Cu+  Cu40  1  0.50335624  0.50320426  0.33047478  1
  Cu+  Cu41  1  0.50016897  0.48945053  0.66392817  1
  Cu+  Cu42  1  0.50519862  0.83095223  0.00676095  1
  Cu+  Cu43  1  0.49505573  0.82937958  0.33381696  1
  Cu+  Cu44  1  0.49733347  0.83863940  0.67002885  1
  Cu+  Cu45  1  0.83147839  0.16667283  0.00402286  1
  Cu+  Cu46  1  0.83375335  0.16561080  0.33881390  1
  Cu+  Cu47  1  0.83288166  0.16862248  0.67104455  1
  Cu+  Cu48  1  0.83407415  0.50100491  0.00282208  1
  Cu+  Cu49  1  0.83485901  0.50096457  0.33608592  1
  Cu+  Cu50  1  0.83543133  0.50852104  0.66461317  1
  Cu+  Cu51  1  0.83058011  0.83410433  -0.00811861  1
  Cu+  Cu52  1  0.83597044  0.83355885  0.33130888  1
  Cu+  Cu53  1  0.83225852  0.82451489  0.66245369  1
  Cu+  Cu54  1  0.16643202  0.00138917  0.16348808  1
  Cu+  Cu55  1  0.16646054  0.00371514  0.50024039  1
  Cu+  Cu56  1  0.16572207  0.00133540  0.83494430  1
  Cu+  Cu57  1  0.16768384  0.33882118  0.16668259  1
  Cu+  Cu58  1  0.16377651  0.33234193  0.49832229  1
  Cu+  Cu59  1  0.16648891  0.33086483  0.83514559  1
  Cu+  Cu60  1  0.17179351  0.66947643  0.16490450  1
  Cu+  Cu61  1  0.16901473  0.66817862  0.50055527  1
  Cu+  Cu62  1  0.16835499  0.66502738  0.83632094  1
  Cu+  Cu63  1  0.49656806  0.00207784  0.16901527  1
  Cu+  Cu64  1  0.49920060  -0.00043779  0.49784420  1
  Cu+  Cu65  1  0.49671672  -0.00219057  0.83395370  1
  Cu+  Cu66  1  0.50258194  0.33226043  0.16938663  1
  Cu+  Cu67  1  0.49046728  0.33324021  0.49798207  1
  Cu+  Cu68  1  0.50789297  0.33139616  0.83004055  1
  Cu+  Cu69  1  0.50192782  0.66602603  0.17297116  1
  Cu+  Cu70  1  0.49685282  0.66281924  0.50054508  1
  Cu+  Cu71  1  0.50144021  0.66636947  0.83398877  1
  Cu+  Cu72  1  0.83119351  -0.00069149  0.16517821  1
  Cu+  Cu73  1  0.83723137  0.00002813  0.50032064  1
  Cu+  Cu74  1  0.82971660  0.00056985  0.83252837  1
  Cu+  Cu75  1  0.83425429  0.33426949  0.16893870  1
  Cu+  Cu76  1  0.83323804  0.33380521  0.50399816  1
  Cu+  Cu77  1  0.83275390  0.33417510  0.83439525  1
  Cu+  Cu78  1  0.83633959  0.66677453  0.16580041  1
  Cu+  Cu79  1  0.83777146  0.66589331  0.50603449  1
  Cu+  Cu80  1  0.82592413  0.66410102  0.82246998  1
  Cu+  Cu81  1  0.00000887  0.16721576  0.17145638  1
  Cu+  Cu82  1  -0.00356645  0.16080593  0.50001915  1
  Cu+  Cu83  1  -0.00107768  0.16596563  0.83587655  1
  Cu+  Cu84  1  0.00310822  0.50147877  0.17017760  1
  Cu+  Cu85  1  -0.00004902  0.50192591  0.50150393  1
  Cu+  Cu86  1  0.00459232  0.49999086  0.83610628  1
  Cu+  Cu87  1  0.00110620  0.83782864  0.16191768  1
  Cu+  Cu88  1  0.00558172  0.83781612  0.49993239  1
  Cu+  Cu89  1  -0.00528410  0.83434033  0.83441268  1
  Cu+  Cu90  1  0.33162042  0.16534715  0.16170415  1
  Cu+  Cu91  1  0.33264410  0.17130427  0.49016071  1
  Cu+  Cu92  1  0.33381821  0.16664590  0.83095180  1
  Cu+  Cu93  1  0.33309320  0.49940315  0.16217795  1
  Cu+  Cu94  1  0.33193026  0.49465864  0.50146383  1
  Cu+  Cu95  1  0.33346359  0.49902748  0.83279236  1
  Cu+  Cu96  1  0.33468373  0.82837188  0.16896358  1
  Cu+  Cu97  1  0.33201818  0.83466272  0.50332179  1
  Cu+  Cu98  1  0.33700479  0.83909822  0.83690798  1
  Cu+  Cu99  1  0.66595303  0.16990545  0.17077872  1
  Cu+  Cu100  1  0.66788068  0.16834242  0.50088629  1
  Cu+  Cu101  1  0.66587860  0.16967555  0.83756640  1
  Cu+  Cu102  1  0.66922828  0.50249558  0.17164428  1
  Cu+  Cu103  1  0.66627854  0.49738763  0.49601600  1
  Cu+  Cu104  1  0.66595651  0.49687558  0.82628395  1
  Cu+  Cu105  1  0.66615785  0.83151393  0.16422242  1
  Cu+  Cu106  1  0.66768843  0.83533193  0.49742005  1
  Cu+  Cu107  1  0.66369348  0.82303818  0.83502138  1
  Cu+  Cu108  1  0.40010370  0.40391901  0.59565254  1
  Cu+  Cu109  1  0.40300952  0.73589757  0.26553826  1
  Cu+  Cu110  1  0.93494093  0.59164091  0.59263040  1
  Cu+  Cu111  1  0.93048347  0.74233229  0.74204798  1
  Cu+  Cu112  1  0.57862283  0.74116005  0.73634389  1
  Cu+  Cu113  1  0.59855927  0.40029545  0.73304932  1
  Cu+  Cu114  1  0.07292342  0.92983573  0.07390382  1
  Cu+  Cu115  1  0.73375209  0.73749655  0.57660460  1
  Cu+  Cu116  1  0.59673565  0.25789253  0.26442441  1
  Cu+  Cu117  1  0.92011114  0.92886859  0.91903476  1
  Cu+  Cu118  1  0.59510958  0.26159301  0.92833776  1
  Cu+  Cu119  1  0.26299477  0.07124545  0.40918562  1
  Cu+  Cu120  1  0.26018177  0.74125143  0.07130322  1
  Cu+  Cu121  1  0.26294017  0.07293780  0.06939968  1
  Cu+  Cu122  1  0.59973585  0.59555958  0.26306731  1
  Cu+  Cu123  1  0.07451358  0.40899569  0.26063885  1
  Cu+  Cu124  1  0.40525578  0.92819867  0.74064649  1
  Cu+  Cu125  1  0.07333284  0.07089307  0.25469530  1
  Cu+  Cu126  1  0.26224691  0.40642460  0.07154335  1
  Cu+  Cu127  1  0.92104972  0.07083788  0.40645648  1
  Cu+  Cu128  1  0.74670759  0.73256771  0.92598104  1
  Cu+  Cu129  1  0.40070294  0.26557500  0.39908013  1
  Cu+  Cu130  1  0.59441301  0.73568052  0.08117912  1
  Cu+  Cu131  1  0.07077276  0.07540736  0.59685341  1
  Cu+  Cu132  1  0.73373983  0.58517114  0.73472009  1
  Te2-  Te133  1  0.25216473  0.25468197  0.07904737  1
  Te2-  Te134  1  0.24752392  0.25690874  0.40771458  1
  Te2-  Te135  1  0.24960758  0.25019043  0.74670644  1
  Te2-  Te136  1  0.25621399  0.58888115  0.07746502  1
  Te2-  Te137  1  0.25177840  0.58327974  0.41672461  1
  Te2-  Te138  1  0.25327747  0.58548201  0.74912944  1
  Te2-  Te139  1  0.25885274  0.92000431  0.08127386  1
  Te2-  Te140  1  0.25495847  0.92073472  0.41482292  1
  Te2-  Te141  1  0.25188930  0.92155590  0.74934227  1
  Te2-  Te142  1  0.58739722  0.25450718  0.08037741  1
  Te2-  Te143  1  0.58692961  0.25596721  0.41657443  1
  Te2-  Te144  1  0.58956805  0.24894613  0.74093451  1
  Te2-  Te145  1  0.58739939  0.58323588  0.08096850  1
  Te2-  Te146  1  0.58648669  0.58714873  0.41531605  1
  Te2-  Te147  1  0.58261752  0.58550068  0.74059417  1
  Te2-  Te148  1  0.58472824  0.92228633  0.08564267  1
  Te2-  Te149  1  0.58293329  0.91638058  0.41313259  1
  Te2-  Te150  1  0.58786615  0.91811596  0.75265881  1
  Te2-  Te151  1  0.91881977  0.25157754  0.08466911  1
  Te2-  Te152  1  0.91851697  0.25340364  0.41816899  1
  Te2-  Te153  1  0.91911531  0.25252240  0.75121339  1
  Te2-  Te154  1  0.92151653  0.58511516  0.08240196  1
  Te2-  Te155  1  0.92005938  0.58733747  0.41508783  1
  Te2-  Te156  1  0.92746389  0.58754934  0.74725477  1
  Te2-  Te157  1  0.91701945  0.92217606  0.07535791  1
  Te2-  Te158  1  0.92252584  0.91800680  0.41254431  1
  Te2-  Te159  1  0.91324595  0.91778776  0.74469715  1
  Te2-  Te160  1  0.25642449  0.07862070  0.25121400  1
  Te2-  Te161  1  0.25482121  0.08613018  0.58211199  1
  Te2-  Te162  1  0.25612051  0.07873430  0.91768981  1
  Te2-  Te163  1  0.25440340  0.41756279  0.25369163  1
  Te2-  Te164  1  0.24870675  0.40934832  0.58775048  1
  Te2-  Te165  1  0.25516616  0.41103079  0.91852802  1
  Te2-  Te166  1  0.25097953  0.74812082  0.25832364  1
  Te2-  Te167  1  0.25210215  0.74935809  0.58803696  1
  Te2-  Te168  1  0.25395947  0.75002895  0.91892628  1
  Te2-  Te169  1  0.58153764  0.08437662  0.25392416  1
  Te2-  Te170  1  0.58371458  0.08168506  0.58145488  1
  Te2-  Te171  1  0.58419563  0.07958989  0.91767229  1
  Te2-  Te172  1  0.58857921  0.41299387  0.25473550  1
  Te2-  Te173  1  0.58811962  0.40842424  0.57992654  1
  Te2-  Te174  1  0.58911203  0.41521755  0.92032109  1
  Te2-  Te175  1  0.59012861  0.74860496  0.25768479  1
  Te2-  Te176  1  0.58253660  0.74568035  0.58523138  1
  Te2-  Te177  1  0.58685501  0.74036200  0.92602039  1
  Te2-  Te178  1  0.91859774  0.07656126  0.25398473  1
  Te2-  Te179  1  0.91710054  0.07924487  0.59318173  1
  Te2-  Te180  1  0.91694062  0.08142580  0.92152077  1
  Te2-  Te181  1  0.92005133  0.41481553  0.25529451  1
  Te2-  Te182  1  0.91901484  0.41603856  0.58757544  1
  Te2-  Te183  1  0.91782540  0.41737480  0.91819399  1
  Te2-  Te184  1  0.92163747  0.75052248  0.24809280  1
  Te2-  Te185  1  0.93013833  0.74710325  0.58674212  1
  Te2-  Te186  1  0.91310694  0.74141044  0.91407789  1
  Te2-  Te187  1  0.08268305  0.25436616  0.25305766  1
  Te2-  Te188  1  0.07822849  0.25057887  0.58253743  1
  Te2-  Te189  1  0.08195563  0.24985506  0.92061285  1
  Te2-  Te190  1  0.08416230  0.59123769  0.25121663  1
  Te2-  Te191  1  0.08579965  0.58647187  0.58817338  1
  Te2-  Te192  1  0.08392311  0.58512431  0.92210876  1
  Te2-  Te193  1  0.08030431  0.91949428  0.25381502  1
  Te2-  Te194  1  0.08200876  0.92240968  0.58882758  1
  Te2-  Te195  1  0.07801943  0.92222289  0.92056320  1
  Te2-  Te196  1  0.40653738  0.25607011  0.24734945  1
  Te2-  Te197  1  0.40931625  0.25033641  0.58712342  1
  Te2-  Te198  1  0.41521702  0.25353130  0.91406856  1
  Te2-  Te199  1  0.41006154  0.58353217  0.25289331  1
  Te2-  Te200  1  0.41395964  0.58040290  0.58663342  1
  Te2-  Te201  1  0.41679064  0.58319579  0.91634266  1
  Te2-  Te202  1  0.41292314  0.91894958  0.25320350  1
  Te2-  Te203  1  0.41315622  0.92195605  0.58558776  1
  Te2-  Te204  1  0.41838749  0.91806596  0.92757125  1
  Te2-  Te205  1  0.75035363  0.25394869  0.25735153  1
  Te2-  Te206  1  0.74809213  0.25245156  0.58827426  1
  Te2-  Te207  1  0.74841457  0.25551512  0.92300402  1
  Te2-  Te208  1  0.75187455  0.58960148  0.25579339  1
  Te2-  Te209  1  0.73977760  0.58649010  0.58410074  1
  Te2-  Te210  1  0.74513446  0.58114272  0.91881960  1
  Te2-  Te211  1  0.74804856  0.91623988  0.25006266  1
  Te2-  Te212  1  0.75070888  0.91811676  0.58433181  1
  Te2-  Te213  1  0.74146592  0.91806498  0.91404549  1
  Te2-  Te214  1  0.07692217  0.08369273  0.07852130  1
  Te2-  Te215  1  0.07676059  0.07648305  0.40949283  1
  Te2-  Te216  1  0.07814378  0.07960271  0.74967300  1
  Te2-  Te217  1  0.08053018  0.41730860  0.08013383  1
  Te2-  Te218  1  0.07793221  0.41494534  0.41512477  1
  Te2-  Te219  1  0.08229207  0.41312779  0.75038744  1
  Te2-  Te220  1  0.08199592  0.74803876  0.08108667  1
  Te2-  Te221  1  0.08362019  0.74972395  0.41572733  1
  Te2-  Te222  1  0.08360811  0.74850375  0.75030507  1
  Te2-  Te223  1  0.41669449  0.08187592  0.07712785  1
  Te2-  Te224  1  0.41577455  0.07982878  0.40910508  1
  Te2-  Te225  1  0.41336936  0.08062189  0.74532021  1
  Te2-  Te226  1  0.41748522  0.41257912  0.08023175  1
  Te2-  Te227  1  0.41212556  0.41720124  0.40725867  1
  Te2-  Te228  1  0.41206144  0.40913919  0.74913739  1
  Te2-  Te229  1  0.41550262  0.74335603  0.08092611  1
  Te2-  Te230  1  0.40994611  0.74502663  0.41827562  1
  Te2-  Te231  1  0.41301668  0.74789571  0.75081874  1
  Te2-  Te232  1  0.74494730  0.08320488  0.08493245  1
  Te2-  Te233  1  0.74680425  0.07956605  0.41741954  1
  Te2-  Te234  1  0.74536315  0.08388247  0.74985535  1
  Te2-  Te235  1  0.74880070  0.41610141  0.08474394  1
  Te2-  Te236  1  0.75042174  0.41355850  0.41477230  1
  Te2-  Te237  1  0.75180604  0.41294059  0.74189052  1
  Te2-  Te238  1  0.74834959  0.74367030  0.07855781  1
  Te2-  Te239  1  0.75244219  0.74719179  0.41474527  1
  Te2-  Te240  1  0.73683459  0.74204741  0.73668754  1
