# generated using pymatgen
data_Ti27(Cu53Te54)2
_symmetry_space_group_name_H-M   'P 1'
_cell_length_a   17.87381249
_cell_length_b   17.87305476
_cell_length_c   17.87483081
_cell_angle_alpha   90.01981777
_cell_angle_beta   90.01805858
_cell_angle_gamma   89.99159233
_symmetry_Int_Tables_number   1
_chemical_formula_structural   Ti27(Cu53Te54)2
_chemical_formula_sum   'Ti27 Cu106 Te108'
_cell_volume   5710.28614000
_cell_formula_units_Z   1
loop_
 _symmetry_equiv_pos_site_id
 _symmetry_equiv_pos_as_xyz
  1  'x, y, z'
loop_
 _atom_type_symbol
 _atom_type_oxidation_number
  Ti4+  4.0
  Cu+  1.0
  Te2-  -2.0
loop_
 _atom_site_type_symbol
 _atom_site_label
 _atom_site_symmetry_multiplicity
 _atom_site_fract_x
 _atom_site_fract_y
 _atom_site_fract_z
 _atom_site_occupancy
  Ti4+  Ti0  1  0.16938470  0.16305150  0.16935469  1
  Ti4+  Ti1  1  0.16605415  0.16626877  0.50177835  1
  Ti4+  Ti2  1  0.16456757  0.17063239  0.83630830  1
  Ti4+  Ti3  1  0.16615410  0.50272843  0.16588968  1
  Ti4+  Ti4  1  0.16688081  0.49943630  0.49682029  1
  Ti4+  Ti5  1  0.16699708  0.50218690  0.82798059  1
  Ti4+  Ti6  1  0.16550708  0.83401365  0.17013807  1
  Ti4+  Ti7  1  0.16696452  0.83499145  0.49785964  1
  Ti4+  Ti8  1  0.16500658  0.83541280  0.83280038  1
  Ti4+  Ti9  1  0.50209537  0.16756705  0.16614792  1
  Ti4+  Ti10  1  0.50233562  0.16651018  0.50265448  1
  Ti4+  Ti11  1  0.50046530  0.16741729  0.83565649  1
  Ti4+  Ti12  1  0.49954605  0.50370637  0.16652401  1
  Ti4+  Ti13  1  0.50228324  0.50051141  0.50103094  1
  Ti4+  Ti14  1  0.49924266  0.50195661  0.83456233  1
  Ti4+  Ti15  1  0.50013103  0.83019528  0.16587481  1
  Ti4+  Ti16  1  0.49864129  0.83172176  0.49917776  1
  Ti4+  Ti17  1  0.49822394  0.83443627  0.83251766  1
  Ti4+  Ti18  1  0.83064516  0.16771040  0.16765741  1
  Ti4+  Ti19  1  0.83038377  0.16733626  0.50034212  1
  Ti4+  Ti20  1  0.83513582  0.16483664  0.83383016  1
  Ti4+  Ti21  1  0.83651828  0.49646543  0.16510804  1
  Ti4+  Ti22  1  0.83461362  0.49768724  0.49809081  1
  Ti4+  Ti23  1  0.83344153  0.49810987  0.83369017  1
  Ti4+  Ti24  1  0.83110608  0.83411242  0.16611741  1
  Ti4+  Ti25  1  0.83268224  0.83210162  0.49864443  1
  Ti4+  Ti26  1  0.83244373  0.83147825  0.83047012  1
  Cu+  Cu27  1  0.16203112  0.16623659  0.00290917  1
  Cu+  Cu28  1  0.17037391  0.15752590  0.33913198  1
  Cu+  Cu29  1  0.16558982  0.17055417  0.66922583  1
  Cu+  Cu30  1  0.16797820  0.50167981  -0.00609835  1
  Cu+  Cu31  1  0.16203868  0.50343770  0.33246409  1
  Cu+  Cu32  1  0.16749983  0.50256387  0.66104388  1
  Cu+  Cu33  1  0.16632287  0.83389129  0.00443619  1
  Cu+  Cu34  1  0.17165540  0.83763532  0.33190786  1
  Cu+  Cu35  1  0.16572959  0.83553986  0.66566759  1
  Cu+  Cu36  1  0.50306562  0.16394550  0.00162303  1
  Cu+  Cu37  1  0.50141631  0.16909378  0.33252008  1
  Cu+  Cu38  1  0.50206863  0.16577301  0.66988909  1
  Cu+  Cu39  1  0.49622586  0.50530841  0.00048560  1
  Cu+  Cu40  1  0.50223650  0.50159402  0.33640539  1
  Cu+  Cu41  1  0.50006669  0.50257610  0.66871031  1
  Cu+  Cu42  1  0.49916511  0.83520885  -0.00423780  1
  Cu+  Cu43  1  0.49975972  0.82401600  0.33398828  1
  Cu+  Cu44  1  0.49729690  0.83345599  0.66505073  1
  Cu+  Cu45  1  0.83363888  0.17183742  0.00084214  1
  Cu+  Cu46  1  0.82493744  0.16775224  0.33396936  1
  Cu+  Cu47  1  0.82988711  0.16387671  0.66541821  1
  Cu+  Cu48  1  0.83341076  0.50451209  0.00355622  1
  Cu+  Cu49  1  0.83969870  0.49015470  0.33171248  1
  Cu+  Cu50  1  0.83473114  0.49319896  0.66811529  1
  Cu+  Cu51  1  0.83327970  0.83235803  -0.00346999  1
  Cu+  Cu52  1  0.83187437  0.83492141  0.33236355  1
  Cu+  Cu53  1  0.83244017  0.83034911  0.66550178  1
  Cu+  Cu54  1  0.16953734  -0.00164367  0.17645394  1
  Cu+  Cu55  1  0.17010451  0.00260942  0.49788504  1
  Cu+  Cu56  1  0.16444017  0.00317026  0.83446071  1
  Cu+  Cu57  1  0.16901569  0.33362576  0.16777743  1
  Cu+  Cu58  1  0.16888238  0.32939768  0.50216516  1
  Cu+  Cu59  1  0.16356435  0.33974139  0.83436966  1
  Cu+  Cu60  1  0.16490622  0.66972973  0.16414248  1
  Cu+  Cu61  1  0.16485057  0.66743828  0.49545616  1
  Cu+  Cu62  1  0.16740113  0.66883912  0.83001167  1
  Cu+  Cu63  1  0.50352190  0.00074979  0.16339381  1
  Cu+  Cu64  1  0.50061928  -0.00451560  0.49996908  1
  Cu+  Cu65  1  0.50028979  0.00005591  0.83285056  1
  Cu+  Cu66  1  0.50175696  0.33583029  0.16683779  1
  Cu+  Cu67  1  0.50141433  0.33319909  0.50284251  1
  Cu+  Cu68  1  0.49828928  0.33505084  0.83722921  1
  Cu+  Cu69  1  0.49184109  0.66615799  0.16652583  1
  Cu+  Cu70  1  0.50352215  0.66662828  0.49693238  1
  Cu+  Cu71  1  0.49972934  0.66944420  0.83182526  1
  Cu+  Cu72  1  0.83268446  -0.00028155  0.17301667  1
  Cu+  Cu73  1  0.83097674  -0.00034219  0.50090365  1
  Cu+  Cu74  1  0.83715808  -0.00642446  0.83504454  1
  Cu+  Cu75  1  0.82694449  0.33246030  0.16575953  1
  Cu+  Cu76  1  0.83105443  0.33464464  0.49743660  1
  Cu+  Cu77  1  0.83948155  0.33274530  0.83030888  1
  Cu+  Cu78  1  0.83402602  0.66401245  0.16116422  1
  Cu+  Cu79  1  0.83555877  0.66527311  0.49948737  1
  Cu+  Cu80  1  0.83138775  0.66627509  0.83238216  1
  Cu+  Cu81  1  0.00661223  0.16523076  0.16740398  1
  Cu+  Cu82  1  -0.00243895  0.16961959  0.50136633  1
  Cu+  Cu83  1  -0.00098347  0.16806316  0.84115747  1
  Cu+  Cu84  1  0.00307769  0.49493382  0.17168695  1
  Cu+  Cu85  1  0.00193104  0.50058773  0.48992192  1
  Cu+  Cu86  1  -0.00009324  0.49566028  0.82877580  1
  Cu+  Cu87  1  -0.00464398  0.83668298  0.16858122  1
  Cu+  Cu88  1  0.00111071  0.83452584  0.49929546  1
  Cu+  Cu89  1  -0.00223278  0.83458215  0.83248828  1
  Cu+  Cu90  1  0.33726020  0.16871597  0.16793271  1
  Cu+  Cu91  1  0.33544933  0.16515082  0.50300933  1
  Cu+  Cu92  1  0.33243343  0.17158542  0.83632307  1
  Cu+  Cu93  1  0.33218825  0.50676812  0.16269981  1
  Cu+  Cu94  1  0.33538404  0.50008745  0.49955011  1
  Cu+  Cu95  1  0.33250367  0.50416666  0.82863051  1
  Cu+  Cu96  1  0.33484000  0.82863330  0.17211468  1
  Cu+  Cu97  1  0.33302396  0.83261153  0.50120692  1
  Cu+  Cu98  1  0.33149723  0.83556998  0.83308606  1
  Cu+  Cu99  1  0.66558837  0.16330728  0.16142623  1
  Cu+  Cu100  1  0.67003659  0.16761134  0.50250023  1
  Cu+  Cu101  1  0.66386626  0.16295773  0.82834141  1
  Cu+  Cu102  1  0.66860011  0.50168346  0.16387962  1
  Cu+  Cu103  1  0.66729233  0.49952598  0.50579714  1
  Cu+  Cu104  1  0.66313608  0.50020820  0.83672879  1
  Cu+  Cu105  1  0.66591156  0.83167985  0.16548377  1
  Cu+  Cu106  1  0.66366927  0.82994691  0.49616981  1
  Cu+  Cu107  1  0.66702041  0.83160076  0.83053541  1
  Cu+  Cu108  1  0.26863808  0.07402426  0.41471034  1
  Cu+  Cu109  1  0.73890634  0.59555648  0.07366714  1
  Cu+  Cu110  1  0.74363009  0.06734415  0.59412111  1
  Cu+  Cu111  1  0.73600311  0.26213120  0.41001179  1
  Cu+  Cu112  1  0.73537368  0.41515645  0.25822304  1
  Cu+  Cu113  1  0.40104182  0.59615212  0.06735173  1
  Cu+  Cu114  1  0.92280228  0.92459711  0.26485490  1
  Cu+  Cu115  1  0.73595769  0.41061244  0.60007593  1
  Cu+  Cu116  1  0.92685245  0.91819927  0.92744754  1
  Cu+  Cu117  1  0.93103158  0.40342075  0.73512063  1
  Cu+  Cu118  1  0.07299704  0.60094392  0.40396487  1
  Cu+  Cu119  1  0.40326951  0.73489742  0.26517855  1
  Cu+  Cu120  1  0.26992531  0.92521027  0.25668473  1
  Cu+  Cu121  1  0.59700955  0.73732475  0.40390828  1
  Cu+  Cu122  1  0.07484841  0.07258870  0.26652565  1
  Cu+  Cu123  1  0.59395965  0.06792695  0.07019394  1
  Cu+  Cu124  1  0.93048457  0.40058525  0.40704593  1
  Cu+  Cu125  1  0.07670019  0.07139382  0.92733512  1
  Cu+  Cu126  1  0.73592745  0.25883647  0.06803649  1
  Cu+  Cu127  1  0.73567084  0.07161701  0.25940746  1
  Cu+  Cu128  1  0.07294419  0.41867104  0.92564410  1
  Cu+  Cu129  1  0.58504418  0.06854759  0.73817679  1
  Cu+  Cu130  1  0.08275998  0.40298253  0.26132317  1
  Cu+  Cu131  1  0.92139341  0.26257579  0.92834897  1
  Cu+  Cu132  1  0.08004685  0.26156113  0.07928283  1
  Te2-  Te133  1  0.25275557  0.25034163  0.08251544  1
  Te2-  Te134  1  0.25379144  0.24990175  0.41542442  1
  Te2-  Te135  1  0.24995254  0.25574379  0.75118470  1
  Te2-  Te136  1  0.24758734  0.58985383  0.07642891  1
  Te2-  Te137  1  0.25345709  0.58427795  0.41272052  1
  Te2-  Te138  1  0.25131881  0.58852412  0.74273959  1
  Te2-  Te139  1  0.25387507  0.91791957  0.08648234  1
  Te2-  Te140  1  0.25918776  0.92149724  0.41280165  1
  Te2-  Te141  1  0.24928263  0.92191921  0.74878623  1
  Te2-  Te142  1  0.58548775  0.25666157  0.07879272  1
  Te2-  Te143  1  0.58561193  0.25334613  0.41540701  1
  Te2-  Te144  1  0.58432607  0.25566342  0.75037528  1
  Te2-  Te145  1  0.58583226  0.59008585  0.08093033  1
  Te2-  Te146  1  0.59186388  0.58434920  0.41417447  1
  Te2-  Te147  1  0.58607359  0.58682481  0.74928248  1
  Te2-  Te148  1  0.58685072  0.91564759  0.07833809  1
  Te2-  Te149  1  0.58357007  0.91656022  0.41083422  1
  Te2-  Te150  1  0.58624849  0.91738336  0.74455911  1
  Te2-  Te151  1  0.92326051  0.25449092  0.08439253  1
  Te2-  Te152  1  0.91865840  0.24995344  0.41135483  1
  Te2-  Te153  1  0.92131137  0.24746080  0.74344293  1
  Te2-  Te154  1  0.92622591  0.58239339  0.08342455  1
  Te2-  Te155  1  0.91703540  0.58739603  0.40845915  1
  Te2-  Te156  1  0.91736589  0.58383883  0.74727183  1
  Te2-  Te157  1  0.91645116  0.92189570  0.08066123  1
  Te2-  Te158  1  0.91855548  0.92139307  0.41584998  1
  Te2-  Te159  1  0.91850962  0.91735437  0.74288547  1
  Te2-  Te160  1  0.26307542  0.07976975  0.25571990  1
  Te2-  Te161  1  0.25116920  0.08270880  0.58982100  1
  Te2-  Te162  1  0.25099765  0.08454884  0.92085105  1
  Te2-  Te163  1  0.25316466  0.41892383  0.25093717  1
  Te2-  Te164  1  0.25296082  0.41507373  0.58307645  1
  Te2-  Te165  1  0.25515731  0.41791525  0.91485798  1
  Te2-  Te166  1  0.25024467  0.74228075  0.25519719  1
  Te2-  Te167  1  0.24875322  0.74755109  0.58363499  1
  Te2-  Te168  1  0.24961333  0.75051659  0.91874074  1
  Te2-  Te169  1  0.58552373  0.07994162  0.25492523  1
  Te2-  Te170  1  0.58902013  0.07669173  0.58644415  1
  Te2-  Te171  1  0.58893340  0.07792720  0.91975535  1
  Te2-  Te172  1  0.58500776  0.41685479  0.25237616  1
  Te2-  Te173  1  0.58454674  0.41327686  0.59061803  1
  Te2-  Te174  1  0.58248063  0.41672701  0.92308358  1
  Te2-  Te175  1  0.58834382  0.74168142  0.24901615  1
  Te2-  Te176  1  0.58433497  0.74770384  0.58681119  1
  Te2-  Te177  1  0.58512735  0.74903238  0.91733850  1
  Te2-  Te178  1  0.92035160  0.08413654  0.25628866  1
  Te2-  Te179  1  0.91803178  0.08130084  0.58455307  1
  Te2-  Te180  1  0.91857050  0.07743741  0.92512081  1
  Te2-  Te181  1  0.92441875  0.40280900  0.25067745  1
  Te2-  Te182  1  0.92439160  0.41182934  0.58173285  1
  Te2-  Te183  1  0.91926337  0.41464730  0.92613290  1
  Te2-  Te184  1  0.91502597  0.74593471  0.25035227  1
  Te2-  Te185  1  0.91984018  0.74804973  0.58329115  1
  Te2-  Te186  1  0.91886247  0.74521298  0.91710574  1
  Te2-  Te187  1  0.08541137  0.24931654  0.25860224  1
  Te2-  Te188  1  0.07967171  0.25269684  0.58641753  1
  Te2-  Te189  1  0.07668644  0.26140264  0.92481604  1
  Te2-  Te190  1  0.07827784  0.59132206  0.24995968  1
  Te2-  Te191  1  0.07910179  0.58486664  0.58050498  1
  Te2-  Te192  1  0.07922220  0.58651512  0.91378698  1
  Te2-  Te193  1  0.07594131  0.92001621  0.25846863  1
  Te2-  Te194  1  0.08298238  0.92162871  0.58254018  1
  Te2-  Te195  1  0.07889670  0.92014722  0.92416821  1
  Te2-  Te196  1  0.41731377  0.25465602  0.25194397  1
  Te2-  Te197  1  0.41693554  0.24990167  0.58747321  1
  Te2-  Te198  1  0.41624594  0.25164824  0.92346615  1
  Te2-  Te199  1  0.41137461  0.58335944  0.25797597  1
  Te2-  Te200  1  0.41646962  0.58690848  0.58391870  1
  Te2-  Te201  1  0.41080610  0.59090306  0.91613928  1
  Te2-  Te202  1  0.42107459  0.92010773  0.25390811  1
  Te2-  Te203  1  0.41302859  0.91876387  0.58513760  1
  Te2-  Te204  1  0.41301412  0.92138717  0.91773601  1
  Te2-  Te205  1  0.73952554  0.25507399  0.25314072  1
  Te2-  Te206  1  0.74728557  0.25686136  0.58975054  1
  Te2-  Te207  1  0.74544227  0.25302195  0.91380929  1
  Te2-  Te208  1  0.75397522  0.58210442  0.25358001  1
  Te2-  Te209  1  0.75302599  0.58401300  0.58738069  1
  Te2-  Te210  1  0.74700859  0.58578705  0.91852481  1
  Te2-  Te211  1  0.74130896  0.91787943  0.25392967  1
  Te2-  Te212  1  0.74410473  0.91447979  0.58490175  1
  Te2-  Te213  1  0.74524712  0.91702916  0.91725355  1
  Te2-  Te214  1  0.08269321  0.07314254  0.08382650  1
  Te2-  Te215  1  0.07443996  0.07906878  0.41813387  1
  Te2-  Te216  1  0.07885792  0.08582844  0.74976734  1
  Te2-  Te217  1  0.08078158  0.41447835  0.07805230  1
  Te2-  Te218  1  0.08253858  0.40475510  0.41197498  1
  Te2-  Te219  1  0.08252634  0.41316792  0.73876779  1
  Te2-  Te220  1  0.07737396  0.75192189  0.08382792  1
  Te2-  Te221  1  0.08025339  0.75248631  0.40939513  1
  Te2-  Te222  1  0.08002548  0.75063366  0.74722768  1
  Te2-  Te223  1  0.41426376  0.08160999  0.08230065  1
  Te2-  Te224  1  0.41962871  0.08053227  0.41430151  1
  Te2-  Te225  1  0.41212278  0.08350140  0.75086702  1
  Te2-  Te226  1  0.41431628  0.41628211  0.08285428  1
  Te2-  Te227  1  0.41731451  0.41403252  0.41573818  1
  Te2-  Te228  1  0.41508780  0.41573700  0.74852615  1
  Te2-  Te229  1  0.41138111  0.75009589  0.07589268  1
  Te2-  Te230  1  0.40857032  0.74283005  0.41639645  1
  Te2-  Te231  1  0.41218713  0.74941264  0.74740040  1
  Te2-  Te232  1  0.75118314  0.07781154  0.07766216  1
  Te2-  Te233  1  0.74398561  0.07679512  0.41403130  1
  Te2-  Te234  1  0.74890528  0.07460754  0.74903225  1
  Te2-  Te235  1  0.74613420  0.41290772  0.07530389  1
  Te2-  Te236  1  0.74108948  0.41457007  0.41103110  1
  Te2-  Te237  1  0.74362965  0.41118490  0.75238699  1
  Te2-  Te238  1  0.74685068  0.74841815  0.07779602  1
  Te2-  Te239  1  0.74963891  0.74428080  0.41143754  1
  Te2-  Te240  1  0.74659613  0.74511025  0.74529494  1
