# generated using pymatgen
data_Ti27(Cu53Te54)2
_symmetry_space_group_name_H-M   'P 1'
_cell_length_a   17.92502867
_cell_length_b   17.94340997
_cell_length_c   17.92957458
_cell_angle_alpha   89.99242557
_cell_angle_beta   90.00268829
_cell_angle_gamma   89.99708004
_symmetry_Int_Tables_number   1
_chemical_formula_structural   Ti27(Cu53Te54)2
_chemical_formula_sum   'Ti27 Cu106 Te108'
_cell_volume   5766.79906063
_cell_formula_units_Z   1
loop_
 _symmetry_equiv_pos_site_id
 _symmetry_equiv_pos_as_xyz
  1  'x, y, z'
loop_
 _atom_type_symbol
 _atom_type_oxidation_number
  Ti4+  4.0
  Cu+  1.0
  Te2-  -2.0
loop_
 _atom_site_type_symbol
 _atom_site_label
 _atom_site_symmetry_multiplicity
 _atom_site_fract_x
 _atom_site_fract_y
 _atom_site_fract_z
 _atom_site_occupancy
  Ti4+  Ti0  1  0.16423599  0.16691713  0.16654027  1
  Ti4+  Ti1  1  0.16604576  0.16753950  0.50060942  1
  Ti4+  Ti2  1  0.16720117  0.17148048  0.83306697  1
  Ti4+  Ti3  1  0.16605384  0.49981426  0.16798651  1
  Ti4+  Ti4  1  0.16591993  0.50051539  0.49865298  1
  Ti4+  Ti5  1  0.16343069  0.50546033  0.83409589  1
  Ti4+  Ti6  1  0.16836962  0.83193599  0.16755066  1
  Ti4+  Ti7  1  0.16719137  0.83472873  0.49698446  1
  Ti4+  Ti8  1  0.16823173  0.83307139  0.83094668  1
  Ti4+  Ti9  1  0.49976554  0.16689637  0.16773595  1
  Ti4+  Ti10  1  0.49698937  0.16386978  0.50100078  1
  Ti4+  Ti11  1  0.49931877  0.16497418  0.83276797  1
  Ti4+  Ti12  1  0.50033823  0.49941165  0.16590798  1
  Ti4+  Ti13  1  0.50063493  0.49820598  0.49815160  1
  Ti4+  Ti14  1  0.49854798  0.49907431  0.83121930  1
  Ti4+  Ti15  1  0.50258757  0.83342770  0.16807501  1
  Ti4+  Ti16  1  0.50395975  0.83353442  0.49577763  1
  Ti4+  Ti17  1  0.50021556  0.83136734  0.83354968  1
  Ti4+  Ti18  1  0.83397297  0.16848394  0.16207095  1
  Ti4+  Ti19  1  0.83126755  0.16831195  0.50315228  1
  Ti4+  Ti20  1  0.83926408  0.15971100  0.83616706  1
  Ti4+  Ti21  1  0.83250062  0.50047382  0.16865964  1
  Ti4+  Ti22  1  0.83371207  0.50183581  0.49900070  1
  Ti4+  Ti23  1  0.83334948  0.50024107  0.82997316  1
  Ti4+  Ti24  1  0.83059568  0.83366876  0.16733739  1
  Ti4+  Ti25  1  0.83316371  0.83603669  0.50326716  1
  Ti4+  Ti26  1  0.83267286  0.82774560  0.83519492  1
  Cu+  Cu27  1  0.16011559  0.17207991  0.00012263  1
  Cu+  Cu28  1  0.16543811  0.16559469  0.33408799  1
  Cu+  Cu29  1  0.16986734  0.16738924  0.66670917  1
  Cu+  Cu30  1  0.16497737  0.50498175  0.00175791  1
  Cu+  Cu31  1  0.16447411  0.49586671  0.33261844  1
  Cu+  Cu32  1  0.16429990  0.50332775  0.66532374  1
  Cu+  Cu33  1  0.16911289  0.83100535  0.00104802  1
  Cu+  Cu34  1  0.16747658  0.83429335  0.33166057  1
  Cu+  Cu35  1  0.16915701  0.83584105  0.66089459  1
  Cu+  Cu36  1  0.49893032  0.16481782  0.00002027  1
  Cu+  Cu37  1  0.49688968  0.16364483  0.33604652  1
  Cu+  Cu38  1  0.49587231  0.16842857  0.66950336  1
  Cu+  Cu39  1  0.49726614  0.49750476  -0.00328925  1
  Cu+  Cu40  1  0.50337795  0.49953774  0.33174630  1
  Cu+  Cu41  1  0.49925724  0.50026554  0.66451079  1
  Cu+  Cu42  1  0.50339387  0.83055887  0.00081239  1
  Cu+  Cu43  1  0.50029226  0.83756089  0.32983838  1
  Cu+  Cu44  1  0.50330653  0.83334931  0.66660902  1
  Cu+  Cu45  1  0.84667490  0.16139903  0.00017725  1
  Cu+  Cu46  1  0.83206030  0.16844710  0.33152544  1
  Cu+  Cu47  1  0.83139741  0.16665555  0.67319544  1
  Cu+  Cu48  1  0.83226403  0.50263905  0.00170269  1
  Cu+  Cu49  1  0.83390075  0.50226104  0.33563151  1
  Cu+  Cu50  1  0.83021124  0.49649904  0.66240066  1
  Cu+  Cu51  1  0.82635740  0.83459252  0.00368056  1
  Cu+  Cu52  1  0.83518699  0.83439917  0.33708350  1
  Cu+  Cu53  1  0.83041512  0.82619808  0.66882286  1
  Cu+  Cu54  1  0.16990938  -0.00425086  0.16691427  1
  Cu+  Cu55  1  0.16685218  0.00131814  0.49908446  1
  Cu+  Cu56  1  0.17033597  0.00248845  0.83058014  1
  Cu+  Cu57  1  0.16118518  0.33449862  0.16843274  1
  Cu+  Cu58  1  0.16652057  0.33282841  0.50177324  1
  Cu+  Cu59  1  0.16826583  0.34496468  0.82820166  1
  Cu+  Cu60  1  0.16844483  0.66422143  0.16781452  1
  Cu+  Cu61  1  0.16745245  0.66702129  0.49678399  1
  Cu+  Cu62  1  0.16302554  0.66972466  0.83589374  1
  Cu+  Cu63  1  0.50201434  0.00285164  0.17045321  1
  Cu+  Cu64  1  0.50358188  -0.00267517  0.49393438  1
  Cu+  Cu65  1  0.50002680  -0.00239402  0.83586841  1
  Cu+  Cu66  1  0.49891132  0.33322598  0.16667153  1
  Cu+  Cu67  1  0.49705718  0.32950312  0.49936344  1
  Cu+  Cu68  1  0.49711891  0.33186715  0.83062062  1
  Cu+  Cu69  1  0.50527837  0.66481345  0.17064776  1
  Cu+  Cu70  1  0.50141338  0.66433618  0.49614181  1
  Cu+  Cu71  1  0.49801958  0.66457330  0.83068002  1
  Cu+  Cu72  1  0.83026920  0.00029378  0.16068860  1
  Cu+  Cu73  1  0.83069175  0.00256969  0.50448604  1
  Cu+  Cu74  1  0.83731294  -0.00736661  0.83673291  1
  Cu+  Cu75  1  0.83230572  0.33655683  0.16617456  1
  Cu+  Cu76  1  0.83157792  0.33428695  0.50205712  1
  Cu+  Cu77  1  0.83583554  0.33054904  0.83098221  1
  Cu+  Cu78  1  0.83217074  0.66651622  0.16971536  1
  Cu+  Cu79  1  0.83364893  0.67138308  0.50008526  1
  Cu+  Cu80  1  0.84015714  0.66565512  0.83127911  1
  Cu+  Cu81  1  0.00094448  0.16920824  0.15792367  1
  Cu+  Cu82  1  -0.00115904  0.16780274  0.50279080  1
  Cu+  Cu83  1  0.00409794  0.16467050  0.84574549  1
  Cu+  Cu84  1  0.00081206  0.49750023  0.17254880  1
  Cu+  Cu85  1  -0.00004861  0.50320020  0.49806954  1
  Cu+  Cu86  1  -0.00518266  0.50859352  0.83627080  1
  Cu+  Cu87  1  0.00175423  0.83243070  0.16888295  1
  Cu+  Cu88  1  0.00001382  0.83542594  0.49572348  1
  Cu+  Cu89  1  0.00309151  0.82368639  0.83547955  1
  Cu+  Cu90  1  0.33135919  0.16532828  0.16823148  1
  Cu+  Cu91  1  0.33215408  0.16872857  0.49796536  1
  Cu+  Cu92  1  0.33167159  0.16748442  0.82756307  1
  Cu+  Cu93  1  0.33209676  0.49833846  0.16445704  1
  Cu+  Cu94  1  0.33329782  0.50015646  0.49817480  1
  Cu+  Cu95  1  0.33040761  0.50113456  0.83158967  1
  Cu+  Cu96  1  0.33481487  0.82925552  0.17053914  1
  Cu+  Cu97  1  0.33449985  0.83402031  0.49278455  1
  Cu+  Cu98  1  0.33588587  0.83481424  0.83128450  1
  Cu+  Cu99  1  0.66744084  0.16930491  0.16393544  1
  Cu+  Cu100  1  0.66184629  0.16558828  0.50562920  1
  Cu+  Cu101  1  0.67112835  0.16070272  0.83369515  1
  Cu+  Cu102  1  0.66575214  0.50300269  0.16938782  1
  Cu+  Cu103  1  0.66910249  0.49705914  0.49979576  1
  Cu+  Cu104  1  0.66439923  0.49812601  0.83078824  1
  Cu+  Cu105  1  0.66625345  0.83732222  0.16242139  1
  Cu+  Cu106  1  0.66766192  0.83633920  0.50876057  1
  Cu+  Cu107  1  0.66517012  0.82992918  0.83496661  1
  Cu+  Cu108  1  0.08533250  0.06971137  0.92642331  1
  Cu+  Cu109  1  0.58284309  0.25969040  0.59496894  1
  Cu+  Cu110  1  0.59590459  0.07920279  0.40669184  1
  Cu+  Cu111  1  0.25879077  0.42240361  0.73488913  1
  Cu+  Cu112  1  0.07103384  0.40377762  0.26491412  1
  Cu+  Cu113  1  0.92759189  0.74249374  0.40594638  1
  Cu+  Cu114  1  0.74039294  0.40636843  0.58869008  1
  Cu+  Cu115  1  0.40403761  0.26160788  0.74349559  1
  Cu+  Cu116  1  0.40355516  0.92387125  0.40348172  1
  Cu+  Cu117  1  0.93150130  0.06622066  0.08181852  1
  Cu+  Cu118  1  0.40564879  0.73431108  0.25569349  1
  Cu+  Cu119  1  0.40390800  0.25977734  0.40362673  1
  Cu+  Cu120  1  0.92499289  0.26285162  0.92342318  1
  Cu+  Cu121  1  0.08011191  0.74174789  0.93262847  1
  Cu+  Cu122  1  0.91855284  0.59384004  0.93302744  1
  Cu+  Cu123  1  0.93164136  0.74005569  0.73784981  1
  Cu+  Cu124  1  0.74335545  0.25510213  0.75109909  1
  Cu+  Cu125  1  0.07666946  0.26745424  0.07227153  1
  Cu+  Cu126  1  0.58974086  0.73519828  0.07069763  1
  Cu+  Cu127  1  0.59137798  0.92538121  0.59784666  1
  Cu+  Cu128  1  0.59616671  0.59133966  0.26294766  1
  Cu+  Cu129  1  0.59613675  0.93025218  0.25428364  1
  Cu+  Cu130  1  0.25931100  0.07234403  0.73659404  1
  Cu+  Cu131  1  0.73837784  0.73869814  0.59434778  1
  Cu+  Cu132  1  0.73685522  0.93179468  0.06980039  1
  Te2-  Te133  1  0.25008513  0.25274809  0.08301335  1
  Te2-  Te134  1  0.25050322  0.25430836  0.41227633  1
  Te2-  Te135  1  0.25129972  0.26014827  0.74434211  1
  Te2-  Te136  1  0.25231813  0.58545272  0.08235429  1
  Te2-  Te137  1  0.25085145  0.58290252  0.41170893  1
  Te2-  Te138  1  0.24908982  0.59013564  0.74832558  1
  Te2-  Te139  1  0.25572512  0.91443397  0.08217802  1
  Te2-  Te140  1  0.25122512  0.92240053  0.41051075  1
  Te2-  Te141  1  0.25439314  0.91887158  0.74501548  1
  Te2-  Te142  1  0.58232679  0.25150823  0.08093310  1
  Te2-  Te143  1  0.58487155  0.24975127  0.41487194  1
  Te2-  Te144  1  0.58983926  0.25228282  0.74843558  1
  Te2-  Te145  1  0.58556966  0.58311145  0.07661083  1
  Te2-  Te146  1  0.58930933  0.58404290  0.41504975  1
  Te2-  Te147  1  0.58425508  0.58407652  0.74621259  1
  Te2-  Te148  1  0.58391099  0.92461384  0.07860085  1
  Te2-  Te149  1  0.59531653  0.91953575  0.40999195  1
  Te2-  Te150  1  0.58766946  0.91924466  0.75034888  1
  Te2-  Te151  1  0.92081547  0.26170973  0.07763232  1
  Te2-  Te152  1  0.91540617  0.25123287  0.41751534  1
  Te2-  Te153  1  0.92557816  0.24644113  0.75138040  1
  Te2-  Te154  1  0.92083090  0.58634428  0.08611485  1
  Te2-  Te155  1  0.91933549  0.58908896  0.41369382  1
  Te2-  Te156  1  0.91821610  0.58408868  0.73914714  1
  Te2-  Te157  1  0.92109701  0.91425093  0.08081707  1
  Te2-  Te158  1  0.91593681  0.92430537  0.41736791  1
  Te2-  Te159  1  0.91968278  0.91053531  0.74987779  1
  Te2-  Te160  1  0.24908550  0.08166161  0.25157498  1
  Te2-  Te161  1  0.25423140  0.08060583  0.58424883  1
  Te2-  Te162  1  0.25124215  0.08716687  0.92096112  1
  Te2-  Te163  1  0.25229466  0.41236900  0.25063051  1
  Te2-  Te164  1  0.25258638  0.41535451  0.58446638  1
  Te2-  Te165  1  0.24908346  0.42042689  0.92073802  1
  Te2-  Te166  1  0.25170735  0.74434350  0.25538420  1
  Te2-  Te167  1  0.25460579  0.74980099  0.57954620  1
  Te2-  Te168  1  0.25485349  0.74894509  0.91604044  1
  Te2-  Te169  1  0.59116449  0.08312649  0.25425115  1
  Te2-  Te170  1  0.58193011  0.07780127  0.59078138  1
  Te2-  Te171  1  0.58495742  0.08138094  0.91823978  1
  Te2-  Te172  1  0.58578511  0.41228522  0.25046540  1
  Te2-  Te173  1  0.58537062  0.41208964  0.58713802  1
  Te2-  Te174  1  0.58313776  0.41250811  0.91559977  1
  Te2-  Te175  1  0.59174158  0.74914646  0.25551118  1
  Te2-  Te176  1  0.58408145  0.74349411  0.58525762  1
  Te2-  Te177  1  0.58558680  0.74238106  0.91778273  1
  Te2-  Te178  1  0.91811869  0.08288032  0.24727507  1
  Te2-  Te179  1  0.91596797  0.08451908  0.58840767  1
  Te2-  Te180  1  0.92641425  0.06772954  0.92265088  1
  Te2-  Te181  1  0.91651700  0.41316639  0.25614874  1
  Te2-  Te182  1  0.92067477  0.41585720  0.58278265  1
  Te2-  Te183  1  0.91729856  0.41565728  0.91860071  1
  Te2-  Te184  1  0.91832021  0.74842171  0.25240388  1
  Te2-  Te185  1  0.92346752  0.74858527  0.58555466  1
  Te2-  Te186  1  0.91850543  0.74637802  0.92871743  1
  Te2-  Te187  1  0.07633023  0.24949168  0.25463077  1
  Te2-  Te188  1  0.08196725  0.25176245  0.58735238  1
  Te2-  Te189  1  0.08207976  0.26512393  0.91750474  1
  Te2-  Te190  1  0.08173492  0.58660115  0.25375277  1
  Te2-  Te191  1  0.08177707  0.58755288  0.58269078  1
  Te2-  Te192  1  0.07641498  0.59037543  0.92472720  1
  Te2-  Te193  1  0.08217668  0.91843585  0.25140735  1
  Te2-  Te194  1  0.08127918  0.91937867  0.58196067  1
  Te2-  Te195  1  0.08325849  0.91740543  0.91759818  1
  Te2-  Te196  1  0.41282313  0.25194066  0.25243864  1
  Te2-  Te197  1  0.40989004  0.25295939  0.58760559  1
  Te2-  Te198  1  0.41332529  0.24954687  0.91783881  1
  Te2-  Te199  1  0.41236329  0.58288865  0.25288864  1
  Te2-  Te200  1  0.41601734  0.58476789  0.58131119  1
  Te2-  Te201  1  0.41314552  0.58382792  0.91589311  1
  Te2-  Te202  1  0.41190095  0.92295968  0.25043264  1
  Te2-  Te203  1  0.41735711  0.91658514  0.58176775  1
  Te2-  Te204  1  0.41640221  0.91560660  0.92119351  1
  Te2-  Te205  1  0.74917577  0.25244737  0.24867454  1
  Te2-  Te206  1  0.74293389  0.25371246  0.59225305  1
  Te2-  Te207  1  0.75326092  0.24644074  0.92060297  1
  Te2-  Te208  1  0.74821639  0.58739633  0.25609810  1
  Te2-  Te209  1  0.74639262  0.58740402  0.58504400  1
  Te2-  Te210  1  0.74804343  0.58495918  0.91429600  1
  Te2-  Te211  1  0.74983567  0.92171849  0.25483499  1
  Te2-  Te212  1  0.74902826  0.92265867  0.59345769  1
  Te2-  Te213  1  0.74503142  0.91735184  0.91751679  1
  Te2-  Te214  1  0.08252572  0.07332084  0.07917023  1
  Te2-  Te215  1  0.07976098  0.08318903  0.41656295  1
  Te2-  Te216  1  0.08109156  0.08531872  0.74905866  1
  Te2-  Te217  1  0.07799186  0.41826933  0.07821125  1
  Te2-  Te218  1  0.07840885  0.41167349  0.41659086  1
  Te2-  Te219  1  0.07506558  0.42262193  0.74896244  1
  Te2-  Te220  1  0.08100346  0.74537040  0.08409661  1
  Te2-  Te221  1  0.08160724  0.74794151  0.41131253  1
  Te2-  Te222  1  0.08527231  0.74688285  0.74079497  1
  Te2-  Te223  1  0.41494078  0.08104402  0.08418703  1
  Te2-  Te224  1  0.40961755  0.07736718  0.41431682  1
  Te2-  Te225  1  0.41440508  0.07613390  0.74747662  1
  Te2-  Te226  1  0.41473884  0.41400374  0.08149797  1
  Te2-  Te227  1  0.41446960  0.41397882  0.41193842  1
  Te2-  Te228  1  0.41146557  0.41406892  0.74227494  1
  Te2-  Te229  1  0.41760714  0.74568397  0.08370653  1
  Te2-  Te230  1  0.41766631  0.74598802  0.41041804  1
  Te2-  Te231  1  0.41595576  0.74911026  0.74526271  1
  Te2-  Te232  1  0.74543289  0.08458758  0.07500324  1
  Te2-  Te233  1  0.74775096  0.08291291  0.41585596  1
  Te2-  Te234  1  0.75267212  0.07353133  0.75166330  1
  Te2-  Te235  1  0.74658699  0.41866520  0.08236197  1
  Te2-  Te236  1  0.74951274  0.41416072  0.41313024  1
  Te2-  Te237  1  0.74555981  0.41109209  0.74647285  1
  Te2-  Te238  1  0.74584186  0.74357534  0.08279289  1
  Te2-  Te239  1  0.74499489  0.75277409  0.41725474  1
  Te2-  Te240  1  0.74367948  0.74193660  0.75112573  1
