# generated using pymatgen
data_Ti27(Cu53Te54)2
_symmetry_space_group_name_H-M   'P 1'
_cell_length_a   17.90180865
_cell_length_b   17.89694675
_cell_length_c   17.89802258
_cell_angle_alpha   89.96818421
_cell_angle_beta   89.97272560
_cell_angle_gamma   89.96918499
_symmetry_Int_Tables_number   1
_chemical_formula_structural   Ti27(Cu53Te54)2
_chemical_formula_sum   'Ti27 Cu106 Te108'
_cell_volume   5734.30421425
_cell_formula_units_Z   1
loop_
 _symmetry_equiv_pos_site_id
 _symmetry_equiv_pos_as_xyz
  1  'x, y, z'
loop_
 _atom_type_symbol
 _atom_type_oxidation_number
  Ti4+  4.0
  Cu+  1.0
  Te2-  -2.0
loop_
 _atom_site_type_symbol
 _atom_site_label
 _atom_site_symmetry_multiplicity
 _atom_site_fract_x
 _atom_site_fract_y
 _atom_site_fract_z
 _atom_site_occupancy
  Ti4+  Ti0  1  0.16576045  0.16318940  0.16640048  1
  Ti4+  Ti1  1  0.16390941  0.16550287  0.49948669  1
  Ti4+  Ti2  1  0.17206725  0.16637203  0.82836017  1
  Ti4+  Ti3  1  0.16707509  0.49864844  0.16527233  1
  Ti4+  Ti4  1  0.16837107  0.49934055  0.49801932  1
  Ti4+  Ti5  1  0.16508946  0.49972814  0.83285149  1
  Ti4+  Ti6  1  0.16715333  0.83257189  0.16507071  1
  Ti4+  Ti7  1  0.16614655  0.83282375  0.50029016  1
  Ti4+  Ti8  1  0.16627682  0.83293800  0.83206853  1
  Ti4+  Ti9  1  0.49707563  0.16092586  0.16339304  1
  Ti4+  Ti10  1  0.50151588  0.16698611  0.50088134  1
  Ti4+  Ti11  1  0.50360692  0.16415677  0.83321752  1
  Ti4+  Ti12  1  0.49863415  0.49694358  0.16747556  1
  Ti4+  Ti13  1  0.50418429  0.50364016  0.50220042  1
  Ti4+  Ti14  1  0.50008271  0.50170767  0.83568439  1
  Ti4+  Ti15  1  0.49770315  0.83080636  0.16699679  1
  Ti4+  Ti16  1  0.49968540  0.83293940  0.50242149  1
  Ti4+  Ti17  1  0.50100285  0.83281501  0.83230314  1
  Ti4+  Ti18  1  0.83260651  0.17142604  0.16806136  1
  Ti4+  Ti19  1  0.82919800  0.16482036  0.50270403  1
  Ti4+  Ti20  1  0.83868021  0.17003291  0.83561151  1
  Ti4+  Ti21  1  0.83091742  0.50245518  0.16658286  1
  Ti4+  Ti22  1  0.83074676  0.49934050  0.50181977  1
  Ti4+  Ti23  1  0.83148141  0.49944304  0.83652948  1
  Ti4+  Ti24  1  0.83215913  0.83539417  0.16555115  1
  Ti4+  Ti25  1  0.83253258  0.83328984  0.49954042  1
  Ti4+  Ti26  1  0.83471274  0.83429079  0.83220443  1
  Cu+  Cu27  1  0.16841674  0.16108083  -0.00308759  1
  Cu+  Cu28  1  0.16305778  0.16241873  0.33409139  1
  Cu+  Cu29  1  0.16867328  0.17250824  0.66301332  1
  Cu+  Cu30  1  0.16434935  0.49905674  -0.00190781  1
  Cu+  Cu31  1  0.16866801  0.49877015  0.33112218  1
  Cu+  Cu32  1  0.16826641  0.49997221  0.66421783  1
  Cu+  Cu33  1  0.16720624  0.83224909  -0.00434658  1
  Cu+  Cu34  1  0.16839911  0.83369219  0.33296436  1
  Cu+  Cu35  1  0.16466071  0.83545805  0.66733957  1
  Cu+  Cu36  1  0.49934761  0.15876735  -0.00200293  1
  Cu+  Cu37  1  0.49831502  0.16193489  0.32989884  1
  Cu+  Cu38  1  0.50317000  0.16826329  0.66889956  1
  Cu+  Cu39  1  0.49508004  0.50081211  0.00407766  1
  Cu+  Cu40  1  0.50592038  0.50290450  0.33231812  1
  Cu+  Cu41  1  0.50358137  0.50752110  0.66930728  1
  Cu+  Cu42  1  0.49854267  0.82959864  -0.00005270  1
  Cu+  Cu43  1  0.49802495  0.82845881  0.33722566  1
  Cu+  Cu44  1  0.49769299  0.83406143  0.66578331  1
  Cu+  Cu45  1  0.83893445  0.16957921  0.00434551  1
  Cu+  Cu46  1  0.82610586  0.16865677  0.33759575  1
  Cu+  Cu47  1  0.84071046  0.16952028  0.66723710  1
  Cu+  Cu48  1  0.83153207  0.49634886  0.00128026  1
  Cu+  Cu49  1  0.82911135  0.50094043  0.33291572  1
  Cu+  Cu50  1  0.82802732  0.49643242  0.66854913  1
  Cu+  Cu51  1  0.83335451  0.83658885  -0.00112325  1
  Cu+  Cu52  1  0.83222991  0.83526513  0.33057093  1
  Cu+  Cu53  1  0.83438854  0.83150288  0.66585494  1
  Cu+  Cu54  1  0.16873203  -0.00466708  0.16670073  1
  Cu+  Cu55  1  0.16429870  0.00081524  0.49963231  1
  Cu+  Cu56  1  0.16700398  -0.00164473  0.83330534  1
  Cu+  Cu57  1  0.16621342  0.32930240  0.16616885  1
  Cu+  Cu58  1  0.16678590  0.33301738  0.49951422  1
  Cu+  Cu59  1  0.17330138  0.33662350  0.82383685  1
  Cu+  Cu60  1  0.16681814  0.66556288  0.16369929  1
  Cu+  Cu61  1  0.16755801  0.66549901  0.49792605  1
  Cu+  Cu62  1  0.16187891  0.66714685  0.83577229  1
  Cu+  Cu63  1  0.49669776  -0.00332986  0.16575236  1
  Cu+  Cu64  1  0.50171202  -0.00114501  0.50268969  1
  Cu+  Cu65  1  0.50347177  -0.00042497  0.83273456  1
  Cu+  Cu66  1  0.49918166  0.32573055  0.16566410  1
  Cu+  Cu67  1  0.50484363  0.33420591  0.50179233  1
  Cu+  Cu68  1  0.49994503  0.33205419  0.83484392  1
  Cu+  Cu69  1  0.49554556  0.66304073  0.16694307  1
  Cu+  Cu70  1  0.50554649  0.66965240  0.50452534  1
  Cu+  Cu71  1  0.49964391  0.66926700  0.83463951  1
  Cu+  Cu72  1  0.83207779  0.00288491  0.16783778  1
  Cu+  Cu73  1  0.82922667  -0.00144146  0.49889913  1
  Cu+  Cu74  1  0.83950248  0.00056904  0.83487193  1
  Cu+  Cu75  1  0.83217496  0.34091311  0.16709886  1
  Cu+  Cu76  1  0.82496726  0.33226124  0.50463422  1
  Cu+  Cu77  1  0.83417037  0.33804120  0.83552221  1
  Cu+  Cu78  1  0.83176746  0.67062517  0.16464948  1
  Cu+  Cu79  1  0.83329216  0.66778257  0.49788293  1
  Cu+  Cu80  1  0.83323327  0.66584506  0.83463690  1
  Cu+  Cu81  1  -0.00202934  0.16510111  0.16523633  1
  Cu+  Cu82  1  -0.00495032  0.16393322  0.50164878  1
  Cu+  Cu83  1  0.00928406  0.16706477  0.83313751  1
  Cu+  Cu84  1  0.00013675  0.50180996  0.16427381  1
  Cu+  Cu85  1  0.00293123  0.49815088  0.49807262  1
  Cu+  Cu86  1  -0.00270368  0.49962374  0.83171388  1
  Cu+  Cu87  1  -0.00060869  0.83424090  0.16410049  1
  Cu+  Cu88  1  -0.00172278  0.83287492  0.49727927  1
  Cu+  Cu89  1  0.00141746  0.83277631  0.83128459  1
  Cu+  Cu90  1  0.33219051  0.15973773  0.16349997  1
  Cu+  Cu91  1  0.33170748  0.16429066  0.49934414  1
  Cu+  Cu92  1  0.34184747  0.16667389  0.82653418  1
  Cu+  Cu93  1  0.33330577  0.49779183  0.16325718  1
  Cu+  Cu94  1  0.33704230  0.50174179  0.49755563  1
  Cu+  Cu95  1  0.33072071  0.50165990  0.83526756  1
  Cu+  Cu96  1  0.33088192  0.83331796  0.16827747  1
  Cu+  Cu97  1  0.33336440  0.83064063  0.50282654  1
  Cu+  Cu98  1  0.33235362  0.83538039  0.83304956  1
  Cu+  Cu99  1  0.66135047  0.16789767  0.16771576  1
  Cu+  Cu100  1  0.66589878  0.17122355  0.50130854  1
  Cu+  Cu101  1  0.67118983  0.16687660  0.83549446  1
  Cu+  Cu102  1  0.66478771  0.50043686  0.17202849  1
  Cu+  Cu103  1  0.66744151  0.50301443  0.50860527  1
  Cu+  Cu104  1  0.66652424  0.49902179  0.84096895  1
  Cu+  Cu105  1  0.66744389  0.83346292  0.16630955  1
  Cu+  Cu106  1  0.66552483  0.83416004  0.50021919  1
  Cu+  Cu107  1  0.66941576  0.83326625  0.83224003  1
  Cu+  Cu108  1  0.73531541  0.40472169  0.93043606  1
  Cu+  Cu109  1  0.07850899  0.07329297  0.92493766  1
  Cu+  Cu110  1  0.59415515  0.92856431  0.59455703  1
  Cu+  Cu111  1  0.59099703  0.25987868  0.59818895  1
  Cu+  Cu112  1  0.26068678  0.92468382  0.26477349  1
  Cu+  Cu113  1  0.26303199  0.26182607  0.58018608  1
  Cu+  Cu114  1  0.92616664  0.26112891  0.58244801  1
  Cu+  Cu115  1  0.58400785  0.25395770  0.25820496  1
  Cu+  Cu116  1  0.07769903  0.26156784  0.74182332  1
  Cu+  Cu117  1  0.93014829  0.41300377  0.07426274  1
  Cu+  Cu118  1  0.73736015  0.40591004  0.59991139  1
  Cu+  Cu119  1  0.07001564  0.73881633  0.92751167  1
  Cu+  Cu120  1  0.40280587  0.59403778  0.07509038  1
  Cu+  Cu121  1  0.92363356  0.07137264  0.07852233  1
  Cu+  Cu122  1  0.26434429  0.92755922  0.92456703  1
  Cu+  Cu123  1  0.26575495  0.42102044  0.73556395  1
  Cu+  Cu124  1  0.07120369  0.92564294  0.73651244  1
  Cu+  Cu125  1  0.41695690  0.26371065  0.73918377  1
  Cu+  Cu126  1  0.59662792  0.74473466  0.40702353  1
  Cu+  Cu127  1  0.59211904  0.59599957  0.25428078  1
  Cu+  Cu128  1  0.92472946  0.41508184  0.73781551  1
  Cu+  Cu129  1  0.40252793  0.73964088  0.59549986  1
  Cu+  Cu130  1  0.73880860  0.26180554  0.40839088  1
  Cu+  Cu131  1  0.74036846  0.41151774  0.26183677  1
  Cu+  Cu132  1  0.59833132  0.59852746  0.60202937  1
  Te2-  Te133  1  0.25077741  0.24702612  0.08031924  1
  Te2-  Te134  1  0.25044710  0.24966967  0.41267494  1
  Te2-  Te135  1  0.26229590  0.25588538  0.74030994  1
  Te2-  Te136  1  0.25106409  0.58515443  0.07705103  1
  Te2-  Te137  1  0.25340881  0.58453159  0.41294070  1
  Te2-  Te138  1  0.24958278  0.58803342  0.74877929  1
  Te2-  Te139  1  0.25396043  0.91837456  0.07690196  1
  Te2-  Te140  1  0.25396609  0.91939276  0.41772746  1
  Te2-  Te141  1  0.25310572  0.91979613  0.74558876  1
  Te2-  Te142  1  0.58250372  0.24775315  0.07629193  1
  Te2-  Te143  1  0.58499871  0.25418979  0.41048845  1
  Te2-  Te144  1  0.59148440  0.25479566  0.75093526  1
  Te2-  Te145  1  0.58560584  0.58401100  0.08229351  1
  Te2-  Te146  1  0.59207548  0.58832440  0.41397404  1
  Te2-  Te147  1  0.58986735  0.58839620  0.75439746  1
  Te2-  Te148  1  0.58268452  0.91535654  0.08174757  1
  Te2-  Te149  1  0.58401299  0.91882369  0.41304069  1
  Te2-  Te150  1  0.58775265  0.91855157  0.74730019  1
  Te2-  Te151  1  0.92048720  0.25889923  0.08390552  1
  Te2-  Te152  1  0.91453758  0.25339479  0.41728877  1
  Te2-  Te153  1  0.92449149  0.25778929  0.74751442  1
  Te2-  Te154  1  0.91604271  0.58712410  0.08000400  1
  Te2-  Te155  1  0.91659172  0.58189561  0.41542779  1
  Te2-  Te156  1  0.91557525  0.58439591  0.74662902  1
  Te2-  Te157  1  0.91946601  0.92087869  0.07959889  1
  Te2-  Te158  1  0.91630247  0.91925818  0.41383909  1
  Te2-  Te159  1  0.91986874  0.92035570  0.74467770  1
  Te2-  Te160  1  0.25204047  0.07853990  0.25406598  1
  Te2-  Te161  1  0.25039747  0.07995355  0.58542668  1
  Te2-  Te162  1  0.25961124  0.08163783  0.91435920  1
  Te2-  Te163  1  0.25220625  0.41243853  0.24907207  1
  Te2-  Te164  1  0.25874929  0.41383496  0.58435529  1
  Te2-  Te165  1  0.25090662  0.41393572  0.91898436  1
  Te2-  Te166  1  0.25077643  0.74501230  0.25125414  1
  Te2-  Te167  1  0.24889884  0.74608225  0.58836125  1
  Te2-  Te168  1  0.25357749  0.74542860  0.91662671  1
  Te2-  Te169  1  0.58436163  0.07594616  0.25032343  1
  Te2-  Te170  1  0.58820274  0.08158215  0.58754478  1
  Te2-  Te171  1  0.59008487  0.07879805  0.91791493  1
  Te2-  Te172  1  0.58545948  0.40776093  0.25540475  1
  Te2-  Te173  1  0.58649295  0.41356105  0.59311378  1
  Te2-  Te174  1  0.58089278  0.41348576  0.92363139  1
  Te2-  Te175  1  0.58688916  0.74636789  0.25247399  1
  Te2-  Te176  1  0.59109729  0.74873906  0.59268696  1
  Te2-  Te177  1  0.58685057  0.74921099  0.91824208  1
  Te2-  Te178  1  0.91457623  0.08572939  0.25621929  1
  Te2-  Te179  1  0.91569183  0.07664788  0.58582128  1
  Te2-  Te180  1  0.92447629  0.08213770  0.92079622  1
  Te2-  Te181  1  0.91910362  0.41860627  0.25391476  1
  Te2-  Te182  1  0.92184233  0.41338916  0.58558086  1
  Te2-  Te183  1  0.92311560  0.41336848  0.92184984  1
  Te2-  Te184  1  0.91825525  0.74961262  0.25019568  1
  Te2-  Te185  1  0.91890127  0.74744980  0.58329133  1
  Te2-  Te186  1  0.91853848  0.74768409  0.91989205  1
  Te2-  Te187  1  0.08068567  0.24850244  0.25124980  1
  Te2-  Te188  1  0.07636933  0.25633023  0.58560219  1
  Te2-  Te189  1  0.09105703  0.25525129  0.91539930  1
  Te2-  Te190  1  0.08242440  0.58443726  0.25007251  1
  Te2-  Te191  1  0.08233196  0.58419626  0.58352802  1
  Te2-  Te192  1  0.07643368  0.58363625  0.91948368  1
  Te2-  Te193  1  0.08023227  0.91691541  0.25118277  1
  Te2-  Te194  1  0.07807734  0.91933430  0.58314522  1
  Te2-  Te195  1  0.07763554  0.92031809  0.92069524  1
  Te2-  Te196  1  0.41055761  0.24671046  0.25020338  1
  Te2-  Te197  1  0.41422983  0.25544494  0.58556268  1
  Te2-  Te198  1  0.41611207  0.24879660  0.91982935  1
  Te2-  Te199  1  0.41143861  0.58144558  0.25430155  1
  Te2-  Te200  1  0.41358898  0.58686537  0.58724624  1
  Te2-  Te201  1  0.41251553  0.58758170  0.91876891  1
  Te2-  Te202  1  0.41460209  0.91666741  0.25567900  1
  Te2-  Te203  1  0.41189120  0.92082939  0.58610884  1
  Te2-  Te204  1  0.41712032  0.91944847  0.91918991  1
  Te2-  Te205  1  0.74190348  0.25774571  0.25463444  1
  Te2-  Te206  1  0.74287448  0.25244151  0.59685074  1
  Te2-  Te207  1  0.75051042  0.25255510  0.92220166  1
  Te2-  Te208  1  0.74675062  0.59197126  0.25379790  1
  Te2-  Te209  1  0.75057035  0.59109571  0.58960528  1
  Te2-  Te210  1  0.74837850  0.58726476  0.92263348  1
  Te2-  Te211  1  0.74640919  0.92079845  0.25100138  1
  Te2-  Te212  1  0.74737105  0.91889219  0.58779774  1
  Te2-  Te213  1  0.74966543  0.92092172  0.91629546  1
  Te2-  Te214  1  0.07993409  0.07555428  0.07966651  1
  Te2-  Te215  1  0.07642492  0.08038188  0.41588351  1
  Te2-  Te216  1  0.08432148  0.08059430  0.74204168  1
  Te2-  Te217  1  0.08200654  0.41150213  0.07968783  1
  Te2-  Te218  1  0.08337218  0.41330355  0.41269385  1
  Te2-  Te219  1  0.07798634  0.41484793  0.74187312  1
  Te2-  Te220  1  0.07975582  0.74676117  0.07942095  1
  Te2-  Te221  1  0.08228474  0.74844014  0.41368489  1
  Te2-  Te222  1  0.08051274  0.74581499  0.74516101  1
  Te2-  Te223  1  0.41211997  0.07470979  0.07783732  1
  Te2-  Te224  1  0.41636030  0.08038277  0.41719875  1
  Te2-  Te225  1  0.41973674  0.07727359  0.74450565  1
  Te2-  Te226  1  0.41474280  0.40851303  0.08233206  1
  Te2-  Te227  1  0.42162154  0.41718559  0.41573804  1
  Te2-  Te228  1  0.41641827  0.41715176  0.74548881  1
  Te2-  Te229  1  0.41073234  0.74697351  0.08081911  1
  Te2-  Te230  1  0.41327042  0.74374325  0.41813131  1
  Te2-  Te231  1  0.41204973  0.74725606  0.74868247  1
  Te2-  Te232  1  0.74725397  0.08638851  0.08253816  1
  Te2-  Te233  1  0.74244539  0.08015474  0.41660641  1
  Te2-  Te234  1  0.75539369  0.08461515  0.75055035  1
  Te2-  Te235  1  0.74028674  0.41462804  0.08174534  1
  Te2-  Te236  1  0.74056016  0.41530649  0.41516596  1
  Te2-  Te237  1  0.74125598  0.41184230  0.75125739  1
  Te2-  Te238  1  0.74740091  0.75045001  0.07861363  1
  Te2-  Te239  1  0.74808495  0.74764177  0.41163606  1
  Te2-  Te240  1  0.75009284  0.74716671  0.74835442  1
