# generated using pymatgen
data_Ti27(Cu53Te54)2
_symmetry_space_group_name_H-M   'P 1'
_cell_length_a   17.87254872
_cell_length_b   17.86944571
_cell_length_c   17.87263726
_cell_angle_alpha   89.99467946
_cell_angle_beta   89.96429409
_cell_angle_gamma   90.00649075
_symmetry_Int_Tables_number   1
_chemical_formula_structural   Ti27(Cu53Te54)2
_chemical_formula_sum   'Ti27 Cu106 Te108'
_cell_volume   5708.02837413
_cell_formula_units_Z   1
loop_
 _symmetry_equiv_pos_site_id
 _symmetry_equiv_pos_as_xyz
  1  'x, y, z'
loop_
 _atom_type_symbol
 _atom_type_oxidation_number
  Ti4+  4.0
  Cu+  1.0
  Te2-  -2.0
loop_
 _atom_site_type_symbol
 _atom_site_label
 _atom_site_symmetry_multiplicity
 _atom_site_fract_x
 _atom_site_fract_y
 _atom_site_fract_z
 _atom_site_occupancy
  Ti4+  Ti0  1  0.16484927  0.16989880  0.16605699  1
  Ti4+  Ti1  1  0.16545904  0.16948032  0.49912647  1
  Ti4+  Ti2  1  0.16806158  0.16728071  0.83153513  1
  Ti4+  Ti3  1  0.16615225  0.50196775  0.16843880  1
  Ti4+  Ti4  1  0.16632063  0.49887126  0.49734642  1
  Ti4+  Ti5  1  0.16368399  0.49929746  0.83390241  1
  Ti4+  Ti6  1  0.17012058  0.83484204  0.16823648  1
  Ti4+  Ti7  1  0.16544364  0.83102773  0.49917563  1
  Ti4+  Ti8  1  0.16668415  0.83194519  0.83460967  1
  Ti4+  Ti9  1  0.49828072  0.16768301  0.16912634  1
  Ti4+  Ti10  1  0.50301589  0.16507173  0.50114756  1
  Ti4+  Ti11  1  0.50257594  0.16690055  0.83501366  1
  Ti4+  Ti12  1  0.49670774  0.49973170  0.16581994  1
  Ti4+  Ti13  1  0.50238221  0.50051336  0.50048155  1
  Ti4+  Ti14  1  0.49800534  0.49690434  0.83157502  1
  Ti4+  Ti15  1  0.49999763  0.83267724  0.16405701  1
  Ti4+  Ti16  1  0.50030411  0.83195728  0.50137336  1
  Ti4+  Ti17  1  0.49810234  0.83396141  0.83316000  1
  Ti4+  Ti18  1  0.83310904  0.16833168  0.16672601  1
  Ti4+  Ti19  1  0.83739331  0.16229386  0.50054206  1
  Ti4+  Ti20  1  0.83352024  0.16846932  0.83115867  1
  Ti4+  Ti21  1  0.83119339  0.50046148  0.16873829  1
  Ti4+  Ti22  1  0.83019112  0.50022380  0.50147876  1
  Ti4+  Ti23  1  0.83281408  0.49855593  0.83545715  1
  Ti4+  Ti24  1  0.83483769  0.83284480  0.16412657  1
  Ti4+  Ti25  1  0.83406753  0.83343864  0.49696858  1
  Ti4+  Ti26  1  0.83283626  0.83360314  0.83270532  1
  Cu+  Cu27  1  0.16688391  0.16525932  -0.00059666  1
  Cu+  Cu28  1  0.16573925  0.17448886  0.33196098  1
  Cu+  Cu29  1  0.16309066  0.16776438  0.66772754  1
  Cu+  Cu30  1  0.16305746  0.50122042  -0.00081073  1
  Cu+  Cu31  1  0.16551729  0.50094495  0.33005610  1
  Cu+  Cu32  1  0.16770363  0.49663036  0.66359511  1
  Cu+  Cu33  1  0.17527277  0.83481855  0.00063732  1
  Cu+  Cu34  1  0.16088834  0.83343073  0.33505082  1
  Cu+  Cu35  1  0.16619467  0.82987916  0.66910447  1
  Cu+  Cu36  1  0.49843904  0.16724584  0.00368708  1
  Cu+  Cu37  1  0.49843803  0.16671096  0.33746946  1
  Cu+  Cu38  1  0.50198724  0.16556619  0.66684238  1
  Cu+  Cu39  1  0.49468820  0.49748059  -0.00220023  1
  Cu+  Cu40  1  0.50361573  0.50289511  0.32982153  1
  Cu+  Cu41  1  0.50515550  0.49596068  0.66712667  1
  Cu+  Cu42  1  0.50319507  0.83545707  -0.00243636  1
  Cu+  Cu43  1  0.50046571  0.83286898  0.33407491  1
  Cu+  Cu44  1  0.49481616  0.83036971  0.66648800  1
  Cu+  Cu45  1  0.83283616  0.17026508  -0.00098107  1
  Cu+  Cu46  1  0.83015949  0.16530595  0.33285113  1
  Cu+  Cu47  1  0.84400587  0.16043475  0.66712510  1
  Cu+  Cu48  1  0.83182889  0.49690154  0.00248147  1
  Cu+  Cu49  1  0.82823693  0.50379547  0.33847004  1
  Cu+  Cu50  1  0.83286546  0.49851576  0.66930197  1
  Cu+  Cu51  1  0.83438672  0.83466048  0.00020127  1
  Cu+  Cu52  1  0.83490808  0.83337119  0.32808283  1
  Cu+  Cu53  1  0.83235074  0.83272407  0.66463052  1
  Cu+  Cu54  1  0.16743804  0.00536890  0.16567789  1
  Cu+  Cu55  1  0.16460289  0.00048841  0.49802375  1
  Cu+  Cu56  1  0.16972346  -0.00296111  0.83920113  1
  Cu+  Cu57  1  0.16687609  0.33373009  0.17285966  1
  Cu+  Cu58  1  0.16201361  0.33354627  0.49558645  1
  Cu+  Cu59  1  0.16784420  0.33628283  0.82687041  1
  Cu+  Cu60  1  0.17140436  0.67085622  0.16963806  1
  Cu+  Cu61  1  0.16743510  0.66327653  0.49825355  1
  Cu+  Cu62  1  0.16330940  0.66408917  0.83414879  1
  Cu+  Cu63  1  0.49953875  0.00081515  0.16846659  1
  Cu+  Cu64  1  0.50504104  -0.00180331  0.50220526  1
  Cu+  Cu65  1  0.50470973  -0.00105597  0.83848519  1
  Cu+  Cu66  1  0.49375586  0.33331667  0.16163973  1
  Cu+  Cu67  1  0.50218409  0.33304140  0.49928665  1
  Cu+  Cu68  1  0.50104972  0.33320581  0.82786000  1
  Cu+  Cu69  1  0.50011905  0.66593911  0.16516024  1
  Cu+  Cu70  1  0.49694013  0.66882152  0.50449783  1
  Cu+  Cu71  1  0.49612178  0.66463054  0.83260421  1
  Cu+  Cu72  1  0.83470975  -0.00017934  0.16426015  1
  Cu+  Cu73  1  0.84078748  -0.00466734  0.50270696  1
  Cu+  Cu74  1  0.83232579  0.00320757  0.82831285  1
  Cu+  Cu75  1  0.83502616  0.33774772  0.16619166  1
  Cu+  Cu76  1  0.83203222  0.33105654  0.49957910  1
  Cu+  Cu77  1  0.83516490  0.33054453  0.83990648  1
  Cu+  Cu78  1  0.83263276  0.66710994  0.16542850  1
  Cu+  Cu79  1  0.82661736  0.66927292  0.50243840  1
  Cu+  Cu80  1  0.83087217  0.66510788  0.83467303  1
  Cu+  Cu81  1  -0.00232913  0.16470453  0.16456718  1
  Cu+  Cu82  1  0.00088847  0.17122289  0.50167864  1
  Cu+  Cu83  1  0.00111990  0.16816572  0.82917217  1
  Cu+  Cu84  1  -0.00234530  0.49695653  0.16860773  1
  Cu+  Cu85  1  -0.00238711  0.49998994  0.50032717  1
  Cu+  Cu86  1  -0.00142330  0.50130246  0.83425172  1
  Cu+  Cu87  1  0.00184123  0.83367117  0.16978568  1
  Cu+  Cu88  1  0.00123583  0.83836314  0.49424023  1
  Cu+  Cu89  1  0.00201587  0.83088966  0.83523723  1
  Cu+  Cu90  1  0.33208573  0.17295836  0.16595707  1
  Cu+  Cu91  1  0.33511135  0.16565724  0.49928621  1
  Cu+  Cu92  1  0.33843953  0.16836306  0.83129256  1
  Cu+  Cu93  1  0.33076902  0.50431549  0.16856420  1
  Cu+  Cu94  1  0.33511675  0.49914373  0.49896619  1
  Cu+  Cu95  1  0.32846499  0.49538187  0.83126441  1
  Cu+  Cu96  1  0.33521313  0.82927596  0.16145285  1
  Cu+  Cu97  1  0.33352707  0.82992146  0.50290419  1
  Cu+  Cu98  1  0.33014812  0.83669725  0.83623279  1
  Cu+  Cu99  1  0.66583718  0.16538396  0.16920893  1
  Cu+  Cu100  1  0.67144828  0.16361089  0.49931092  1
  Cu+  Cu101  1  0.66821022  0.16464119  0.83373676  1
  Cu+  Cu102  1  0.66123274  0.50212356  0.16972679  1
  Cu+  Cu103  1  0.66834648  0.50474012  0.49770257  1
  Cu+  Cu104  1  0.66586968  0.49618250  0.83352711  1
  Cu+  Cu105  1  0.66946855  0.83194872  0.16295101  1
  Cu+  Cu106  1  0.66715742  0.82902703  0.50159837  1
  Cu+  Cu107  1  0.66413519  0.83705737  0.83308084  1
  Cu+  Cu108  1  0.73929389  0.74098496  0.59731457  1
  Cu+  Cu109  1  0.41264396  0.25666724  0.73667653  1
  Cu+  Cu110  1  0.93053193  0.91551151  0.59572993  1
  Cu+  Cu111  1  0.07217039  0.26520222  0.74413794  1
  Cu+  Cu112  1  0.59151955  0.59806331  0.25585046  1
  Cu+  Cu113  1  0.40099955  0.73774841  0.59665439  1
  Cu+  Cu114  1  0.26222142  0.26022940  0.26036576  1
  Cu+  Cu115  1  0.07159502  0.74131375  0.26076202  1
  Cu+  Cu116  1  0.07396934  0.93209346  0.40381894  1
  Cu+  Cu117  1  0.26108238  0.93155886  0.93081633  1
  Cu+  Cu118  1  0.92237057  0.26423850  0.59054007  1
  Cu+  Cu119  1  0.06952309  0.26162781  0.40439859  1
  Cu+  Cu120  1  0.59871252  0.92623439  0.92919356  1
  Cu+  Cu121  1  0.40312634  0.26054153  0.06943205  1
  Cu+  Cu122  1  0.26224783  0.73751949  0.06953347  1
  Cu+  Cu123  1  0.40912892  0.26186909  0.41120062  1
  Cu+  Cu124  1  0.74055964  0.25572194  0.40601228  1
  Cu+  Cu125  1  0.25800580  0.40947239  0.73413457  1
  Cu+  Cu126  1  0.06901000  0.40692781  0.25753896  1
  Cu+  Cu127  1  0.25978958  0.59892878  0.26265153  1
  Cu+  Cu128  1  0.74067170  0.59949342  0.40744480  1
  Cu+  Cu129  1  0.60038513  0.40553242  0.73856274  1
  Cu+  Cu130  1  0.93251293  0.06999078  0.74551008  1
  Cu+  Cu131  1  0.93113319  0.25241434  0.92864474  1
  Cu+  Cu132  1  0.92748394  0.41193441  0.07338978  1
  Te2-  Te133  1  0.24893325  0.25738178  0.07697381  1
  Te2-  Te134  1  0.25601954  0.25703855  0.41468207  1
  Te2-  Te135  1  0.25636282  0.25234594  0.74286753  1
  Te2-  Te136  1  0.25139855  0.58579168  0.07808471  1
  Te2-  Te137  1  0.25420439  0.58484629  0.41341493  1
  Te2-  Te138  1  0.24916519  0.58455889  0.74722171  1
  Te2-  Te139  1  0.25634173  0.92514507  0.08395875  1
  Te2-  Te140  1  0.25256364  0.91604893  0.41580977  1
  Te2-  Te141  1  0.25055105  0.91845672  0.74633088  1
  Te2-  Te142  1  0.58599815  0.25175714  0.08360962  1
  Te2-  Te143  1  0.58944709  0.25175759  0.41416789  1
  Te2-  Te144  1  0.59051540  0.25071791  0.74587315  1
  Te2-  Te145  1  0.58203611  0.58283885  0.07723942  1
  Te2-  Te146  1  0.58502294  0.59204999  0.41396829  1
  Te2-  Te147  1  0.58528370  0.58501842  0.74981590  1
  Te2-  Te148  1  0.58741721  0.92144196  0.08206935  1
  Te2-  Te149  1  0.58767404  0.91584556  0.41579609  1
  Te2-  Te150  1  0.58179833  0.91842189  0.74443842  1
  Te2-  Te151  1  0.92216184  0.25566908  0.08034555  1
  Te2-  Te152  1  0.91864223  0.25265249  0.41070076  1
  Te2-  Te153  1  0.92045791  0.25961244  0.74392348  1
  Te2-  Te154  1  0.91837990  0.58402208  0.08248126  1
  Te2-  Te155  1  0.91611321  0.58831632  0.41878840  1
  Te2-  Te156  1  0.91665004  0.58506743  0.74927832  1
  Te2-  Te157  1  0.92238292  0.91838702  0.08105052  1
  Te2-  Te158  1  0.91921478  0.92093540  0.40617240  1
  Te2-  Te159  1  0.92315120  0.91797773  0.74731290  1
  Te2-  Te160  1  0.25121940  0.08591033  0.25242967  1
  Te2-  Te161  1  0.24927446  0.08316744  0.58391673  1
  Te2-  Te162  1  0.25655725  0.08506196  0.91892804  1
  Te2-  Te163  1  0.25578376  0.41486578  0.25459209  1
  Te2-  Te164  1  0.25308522  0.41054863  0.58037121  1
  Te2-  Te165  1  0.24824242  0.41292129  0.92116473  1
  Te2-  Te166  1  0.25699819  0.75184805  0.25910107  1
  Te2-  Te167  1  0.24933808  0.74378623  0.58689300  1
  Te2-  Te168  1  0.25432102  0.74159749  0.91735254  1
  Te2-  Te169  1  0.58349494  0.08200318  0.25486584  1
  Te2-  Te170  1  0.58926727  0.08117416  0.58694956  1
  Te2-  Te171  1  0.58823548  0.08285874  0.92398948  1
  Te2-  Te172  1  0.58134495  0.41051182  0.24928681  1
  Te2-  Te173  1  0.59080182  0.41289038  0.58272116  1
  Te2-  Te174  1  0.58238528  0.41205979  0.91951530  1
  Te2-  Te175  1  0.58702722  0.74949804  0.25115691  1
  Te2-  Te176  1  0.58653906  0.74516940  0.59036595  1
  Te2-  Te177  1  0.58433070  0.74586990  0.91571933  1
  Te2-  Te178  1  0.91721806  0.08173498  0.25174434  1
  Te2-  Te179  1  0.92974276  0.07430024  0.58622110  1
  Te2-  Te180  1  0.91973934  0.08244024  0.91788923  1
  Te2-  Te181  1  0.91487877  0.41593158  0.26069572  1
  Te2-  Te182  1  0.91826033  0.41517513  0.58635396  1
  Te2-  Te183  1  0.92327940  0.41238437  0.92156623  1
  Te2-  Te184  1  0.91947588  0.74433324  0.25232436  1
  Te2-  Te185  1  0.92166157  0.74830542  0.58195759  1
  Te2-  Te186  1  0.91648774  0.74795192  0.91781244  1
  Te2-  Te187  1  0.07109465  0.25428931  0.25196711  1
  Te2-  Te188  1  0.07949807  0.25787011  0.58928014  1
  Te2-  Te189  1  0.08374954  0.25427365  0.91827759  1
  Te2-  Te190  1  0.07722729  0.58882976  0.25163325  1
  Te2-  Te191  1  0.08209510  0.58285495  0.58436668  1
  Te2-  Te192  1  0.07785930  0.58571598  0.91997850  1
  Te2-  Te193  1  0.08213668  0.92499033  0.25097260  1
  Te2-  Te194  1  0.08324492  0.91833424  0.58867182  1
  Te2-  Te195  1  0.08144920  0.91619275  0.92296015  1
  Te2-  Te196  1  0.41367557  0.25733489  0.25792019  1
  Te2-  Te197  1  0.41470825  0.25285095  0.58538378  1
  Te2-  Te198  1  0.41545274  0.25518496  0.91926591  1
  Te2-  Te199  1  0.41274761  0.58925665  0.25404306  1
  Te2-  Te200  1  0.41466809  0.58188277  0.58902191  1
  Te2-  Te201  1  0.41010166  0.58165397  0.91538263  1
  Te2-  Te202  1  0.41419570  0.91569262  0.25036497  1
  Te2-  Te203  1  0.41427467  0.92001998  0.58465475  1
  Te2-  Te204  1  0.41290790  0.92147797  0.92161385  1
  Te2-  Te205  1  0.74684768  0.25534920  0.25146025  1
  Te2-  Te206  1  0.75274696  0.24601718  0.58932569  1
  Te2-  Te207  1  0.74437969  0.25159641  0.91905585  1
  Te2-  Te208  1  0.74450729  0.59029152  0.25368546  1
  Te2-  Te209  1  0.74548110  0.58510138  0.59216226  1
  Te2-  Te210  1  0.74637344  0.58185853  0.92021108  1
  Te2-  Te211  1  0.74843496  0.91860200  0.24874659  1
  Te2-  Te212  1  0.74710483  0.91923442  0.58336369  1
  Te2-  Te213  1  0.75048525  0.92264546  0.91843068  1
  Te2-  Te214  1  0.08065676  0.08243678  0.08002857  1
  Te2-  Te215  1  0.07985747  0.08469809  0.41164089  1
  Te2-  Te216  1  0.08492096  0.07471687  0.74945433  1
  Te2-  Te217  1  0.08260850  0.41253880  0.08140867  1
  Te2-  Te218  1  0.07511759  0.41564964  0.41066345  1
  Te2-  Te219  1  0.07509740  0.41682195  0.74388568  1
  Te2-  Te220  1  0.08535699  0.75049267  0.08116473  1
  Te2-  Te221  1  0.07763082  0.74198286  0.41545352  1
  Te2-  Te222  1  0.08042250  0.74588446  0.74881808  1
  Te2-  Te223  1  0.41185634  0.08181392  0.08432576  1
  Te2-  Te224  1  0.41695943  0.07729251  0.41807078  1
  Te2-  Te225  1  0.41926096  0.07853328  0.75013618  1
  Te2-  Te226  1  0.40634139  0.41639016  0.07934373  1
  Te2-  Te227  1  0.41754399  0.41673285  0.41209257  1
  Te2-  Te228  1  0.41021927  0.41125592  0.74117684  1
  Te2-  Te229  1  0.41754986  0.74472714  0.07518151  1
  Te2-  Te230  1  0.41445532  0.74741036  0.41395592  1
  Te2-  Te231  1  0.40872126  0.74655936  0.75037070  1
  Te2-  Te232  1  0.74928738  0.08370278  0.08080677  1
  Te2-  Te233  1  0.75243007  0.07467533  0.41676036  1
  Te2-  Te234  1  0.74667193  0.08326908  0.74379098  1
  Te2-  Te235  1  0.74258168  0.41641072  0.08518821  1
  Te2-  Te236  1  0.74500441  0.41134162  0.41486066  1
  Te2-  Te237  1  0.75069944  0.40923924  0.74871082  1
  Te2-  Te238  1  0.74922607  0.74682754  0.07811688  1
  Te2-  Te239  1  0.74607094  0.75038151  0.40798081  1
  Te2-  Te240  1  0.74542645  0.74800437  0.74943107  1
