# generated using pymatgen
data_Ti27(Cu53Te54)2
_symmetry_space_group_name_H-M   'P 1'
_cell_length_a   17.91089611
_cell_length_b   17.91589363
_cell_length_c   17.91996456
_cell_angle_alpha   89.93870245
_cell_angle_beta   89.97929047
_cell_angle_gamma   89.92184573
_symmetry_Int_Tables_number   1
_chemical_formula_structural   Ti27(Cu53Te54)2
_chemical_formula_sum   'Ti27 Cu106 Te108'
_cell_volume   5750.32320910
_cell_formula_units_Z   1
loop_
 _symmetry_equiv_pos_site_id
 _symmetry_equiv_pos_as_xyz
  1  'x, y, z'
loop_
 _atom_type_symbol
 _atom_type_oxidation_number
  Ti4+  4.0
  Cu+  1.0
  Te2-  -2.0
loop_
 _atom_site_type_symbol
 _atom_site_label
 _atom_site_symmetry_multiplicity
 _atom_site_fract_x
 _atom_site_fract_y
 _atom_site_fract_z
 _atom_site_occupancy
  Ti4+  Ti0  1  0.16997143  0.16697229  0.16744058  1
  Ti4+  Ti1  1  0.16527616  0.16360888  0.50213937  1
  Ti4+  Ti2  1  0.16354984  0.16471723  0.83649484  1
  Ti4+  Ti3  1  0.16878345  0.49972537  0.16701746  1
  Ti4+  Ti4  1  0.16896751  0.49889539  0.49717105  1
  Ti4+  Ti5  1  0.16647144  0.49785982  0.83121155  1
  Ti4+  Ti6  1  0.16705036  0.83551455  0.16556836  1
  Ti4+  Ti7  1  0.16628925  0.83427519  0.49361392  1
  Ti4+  Ti8  1  0.16458491  0.82951545  0.82966110  1
  Ti4+  Ti9  1  0.49971743  0.16564160  0.16679477  1
  Ti4+  Ti10  1  0.50135814  0.16479468  0.50142925  1
  Ti4+  Ti11  1  0.49863553  0.16934645  0.83405890  1
  Ti4+  Ti12  1  0.49779037  0.50093733  0.16894093  1
  Ti4+  Ti13  1  0.50125127  0.49669431  0.50160986  1
  Ti4+  Ti14  1  0.49670601  0.50399616  0.83534345  1
  Ti4+  Ti15  1  0.50050738  0.83376282  0.16812737  1
  Ti4+  Ti16  1  0.50114549  0.83575579  0.50050529  1
  Ti4+  Ti17  1  0.50058647  0.83558459  0.83263619  1
  Ti4+  Ti18  1  0.83424601  0.16767604  0.16794192  1
  Ti4+  Ti19  1  0.83409711  0.16950284  0.50156867  1
  Ti4+  Ti20  1  0.83258921  0.17122958  0.83614438  1
  Ti4+  Ti21  1  0.83201261  0.49849961  0.16628627  1
  Ti4+  Ti22  1  0.83318807  0.49952236  0.49500629  1
  Ti4+  Ti23  1  0.83420322  0.50038362  0.83313373  1
  Ti4+  Ti24  1  0.83347082  0.83305489  0.16819753  1
  Ti4+  Ti25  1  0.83315784  0.83248247  0.49792835  1
  Ti4+  Ti26  1  0.83462461  0.83228844  0.83227931  1
  Cu+  Cu27  1  0.17200330  0.16670279  0.00203614  1
  Cu+  Cu28  1  0.16876463  0.16211417  0.33760840  1
  Cu+  Cu29  1  0.15876031  0.16428797  0.67086101  1
  Cu+  Cu30  1  0.16631132  0.49866375  -0.00167267  1
  Cu+  Cu31  1  0.17075927  0.50325635  0.33289900  1
  Cu+  Cu32  1  0.16710909  0.49826492  0.66115095  1
  Cu+  Cu33  1  0.16759309  0.83346898  -0.00454439  1
  Cu+  Cu34  1  0.15965732  0.83863475  0.32869330  1
  Cu+  Cu35  1  0.16637126  0.83262298  0.66086896  1
  Cu+  Cu36  1  0.49884070  0.16793919  -0.00092524  1
  Cu+  Cu37  1  0.49836136  0.16342032  0.33322850  1
  Cu+  Cu38  1  0.50133640  0.16793122  0.66680211  1
  Cu+  Cu39  1  0.49561871  0.50523369  0.00374882  1
  Cu+  Cu40  1  0.49598217  0.49620546  0.33523311  1
  Cu+  Cu41  1  0.50065138  0.49942686  0.67102860  1
  Cu+  Cu42  1  0.49876919  0.83352391  0.00095228  1
  Cu+  Cu43  1  0.50325650  0.83728920  0.33399866  1
  Cu+  Cu44  1  0.50276215  0.83692654  0.66711458  1
  Cu+  Cu45  1  0.83103197  0.17203903  0.00376006  1
  Cu+  Cu46  1  0.83521508  0.17372759  0.33417738  1
  Cu+  Cu47  1  0.83825417  0.16723123  0.67287720  1
  Cu+  Cu48  1  0.83062776  0.50030201  0.00028045  1
  Cu+  Cu49  1  0.83478748  0.49834663  0.33078862  1
  Cu+  Cu50  1  0.83493434  0.50046690  0.66170790  1
  Cu+  Cu51  1  0.83504077  0.83347722  0.00047224  1
  Cu+  Cu52  1  0.82987858  0.82889268  0.33124917  1
  Cu+  Cu53  1  0.83698949  0.82880141  0.66615574  1
  Cu+  Cu54  1  0.17302485  0.00298940  0.16420283  1
  Cu+  Cu55  1  0.16791456  -0.00120730  0.49480062  1
  Cu+  Cu56  1  0.16455072  -0.00779580  0.83742767  1
  Cu+  Cu57  1  0.16709411  0.33287077  0.16635143  1
  Cu+  Cu58  1  0.16662351  0.33328799  0.50018600  1
  Cu+  Cu59  1  0.16017744  0.33078288  0.83606959  1
  Cu+  Cu60  1  0.16820429  0.66615000  0.16882999  1
  Cu+  Cu61  1  0.16675894  0.66521757  0.49448961  1
  Cu+  Cu62  1  0.16793771  0.66405203  0.82941865  1
  Cu+  Cu63  1  0.50321414  -0.00158226  0.16811600  1
  Cu+  Cu64  1  0.50523161  -0.00201777  0.50526620  1
  Cu+  Cu65  1  0.49820068  0.00358651  0.83242095  1
  Cu+  Cu66  1  0.49531197  0.33479438  0.16983163  1
  Cu+  Cu67  1  0.50299038  0.32791589  0.50458873  1
  Cu+  Cu68  1  0.49808337  0.33857178  0.83215292  1
  Cu+  Cu69  1  0.49836031  0.66808708  0.16610142  1
  Cu+  Cu70  1  0.50025459  0.66606027  0.49951633  1
  Cu+  Cu71  1  0.49826999  0.67085785  0.83483968  1
  Cu+  Cu72  1  0.83608395  0.00161136  0.16684428  1
  Cu+  Cu73  1  0.83365850  0.00168311  0.50140971  1
  Cu+  Cu74  1  0.83604885  0.00200711  0.83344230  1
  Cu+  Cu75  1  0.83440420  0.32941834  0.16621700  1
  Cu+  Cu76  1  0.82786670  0.33349525  0.49613820  1
  Cu+  Cu77  1  0.82911455  0.33929824  0.84053261  1
  Cu+  Cu78  1  0.82968032  0.66684992  0.16832261  1
  Cu+  Cu79  1  0.83522512  0.66388471  0.49519001  1
  Cu+  Cu80  1  0.83688905  0.66648237  0.82839978  1
  Cu+  Cu81  1  0.00178476  0.16832686  0.17253639  1
  Cu+  Cu82  1  -0.00060579  0.16622398  0.50399687  1
  Cu+  Cu83  1  -0.00247318  0.16886017  0.83002269  1
  Cu+  Cu84  1  -0.00214969  0.49969263  0.16274073  1
  Cu+  Cu85  1  0.00204283  0.49949419  0.49411126  1
  Cu+  Cu86  1  0.00324808  0.49562491  0.83425271  1
  Cu+  Cu87  1  0.00149643  0.83042610  0.16776943  1
  Cu+  Cu88  1  -0.00020880  0.83494560  0.49191208  1
  Cu+  Cu89  1  -0.00227288  0.82425747  0.82611509  1
  Cu+  Cu90  1  0.33478182  0.16360399  0.16163819  1
  Cu+  Cu91  1  0.33364933  0.15950834  0.50226837  1
  Cu+  Cu92  1  0.33187235  0.16859783  0.83731640  1
  Cu+  Cu93  1  0.33380129  0.50076887  0.17346883  1
  Cu+  Cu94  1  0.33531059  0.49804997  0.50020362  1
  Cu+  Cu95  1  0.33074268  0.50598887  0.83646366  1
  Cu+  Cu96  1  0.33442290  0.83616186  0.16770641  1
  Cu+  Cu97  1  0.33408653  0.83608443  0.49939779  1
  Cu+  Cu98  1  0.33485340  0.83445006  0.83157807  1
  Cu+  Cu99  1  0.66649246  0.16646063  0.16351483  1
  Cu+  Cu100  1  0.66792025  0.17161320  0.50082679  1
  Cu+  Cu101  1  0.66625972  0.16980869  0.83646184  1
  Cu+  Cu102  1  0.66184165  0.49981797  0.16623851  1
  Cu+  Cu103  1  0.66901604  0.49609878  0.50098479  1
  Cu+  Cu104  1  0.66330239  0.50097308  0.83354287  1
  Cu+  Cu105  1  0.66735695  0.83290718  0.17225312  1
  Cu+  Cu106  1  0.66726874  0.83440153  0.50130117  1
  Cu+  Cu107  1  0.66899921  0.83511228  0.83329144  1
  Cu+  Cu108  1  0.25945762  0.26061853  0.92563221  1
  Cu+  Cu109  1  0.93305304  0.26045165  0.26210010  1
  Cu+  Cu110  1  0.40611578  0.40207684  0.26513557  1
  Cu+  Cu111  1  0.73643527  0.25781702  0.07546522  1
  Cu+  Cu112  1  0.25460809  0.59354677  0.92662424  1
  Cu+  Cu113  1  0.59431348  0.25511938  0.59671821  1
  Cu+  Cu114  1  0.73619526  0.73544798  0.26048334  1
  Cu+  Cu115  1  0.73274498  0.41926050  0.93019289  1
  Cu+  Cu116  1  0.06681235  0.93012376  0.40259641  1
  Cu+  Cu117  1  0.59981831  0.92122069  0.59874210  1
  Cu+  Cu118  1  0.59090696  0.41029958  0.74580796  1
  Cu+  Cu119  1  0.26534183  0.07561370  0.40971368  1
  Cu+  Cu120  1  0.25782625  0.92446234  0.59103231  1
  Cu+  Cu121  1  0.59736174  0.92854064  0.25955112  1
  Cu+  Cu122  1  0.92694379  0.73307722  0.73279976  1
  Cu+  Cu123  1  0.26182094  0.59570866  0.26246349  1
  Cu+  Cu124  1  0.73693096  0.26027313  0.40507700  1
  Cu+  Cu125  1  0.26197557  0.91986238  0.92218743  1
  Cu+  Cu126  1  0.07360489  0.40505789  0.93053586  1
  Cu+  Cu127  1  0.07258921  0.73631004  0.25575434  1
  Cu+  Cu128  1  0.74840938  0.40746772  0.59259152  1
  Cu+  Cu129  1  0.26049544  0.92704837  0.25589748  1
  Cu+  Cu130  1  0.07134955  0.26138111  0.73843264  1
  Cu+  Cu131  1  0.26415345  0.07396239  0.07120824  1
  Cu+  Cu132  1  0.92556445  0.07145365  0.74217080  1
  Te2-  Te133  1  0.25569104  0.25612171  0.08138167  1
  Te2-  Te134  1  0.25259003  0.24871503  0.41857460  1
  Te2-  Te135  1  0.24803334  0.24955890  0.74930225  1
  Te2-  Te136  1  0.25410760  0.58551531  0.08123524  1
  Te2-  Te137  1  0.25814044  0.58704957  0.41445429  1
  Te2-  Te138  1  0.25069700  0.58285344  0.74296427  1
  Te2-  Te139  1  0.25617639  0.91931407  0.07599554  1
  Te2-  Te140  1  0.25749120  0.92024282  0.40768087  1
  Te2-  Te141  1  0.25086863  0.91793550  0.74530416  1
  Te2-  Te142  1  0.58133228  0.25495658  0.08167250  1
  Te2-  Te143  1  0.58385427  0.25187054  0.41079247  1
  Te2-  Te144  1  0.58796932  0.25592085  0.74888827  1
  Te2-  Te145  1  0.58353706  0.58704190  0.08276145  1
  Te2-  Te146  1  0.58437314  0.58087481  0.41611213  1
  Te2-  Te147  1  0.58338741  0.58913653  0.75018316  1
  Te2-  Te148  1  0.58715529  0.91652502  0.08168699  1
  Te2-  Te149  1  0.58995525  0.92215219  0.41429743  1
  Te2-  Te150  1  0.58823935  0.92351597  0.74985095  1
  Te2-  Te151  1  0.92351605  0.25161489  0.08208521  1
  Te2-  Te152  1  0.92348888  0.25569748  0.41768124  1
  Te2-  Te153  1  0.91658891  0.26191452  0.75072324  1
  Te2-  Te154  1  0.91432912  0.58583377  0.08162119  1
  Te2-  Te155  1  0.91989175  0.58380147  0.40996394  1
  Te2-  Te156  1  0.92254198  0.58088281  0.74476032  1
  Te2-  Te157  1  0.92008322  0.91713962  0.08329620  1
  Te2-  Te158  1  0.91401538  0.92063231  0.40979207  1
  Te2-  Te159  1  0.92063531  0.91898998  0.74515560  1
  Te2-  Te160  1  0.25833270  0.08072425  0.25547151  1
  Te2-  Te161  1  0.24934219  0.07913135  0.59176036  1
  Te2-  Te162  1  0.25401056  0.07528362  0.91915762  1
  Te2-  Te163  1  0.25191590  0.41053385  0.25452605  1
  Te2-  Te164  1  0.25358215  0.41288995  0.58352840  1
  Te2-  Te165  1  0.25372342  0.41198522  0.91876227  1
  Te2-  Te166  1  0.25357078  0.75032610  0.25415061  1
  Te2-  Te167  1  0.25116762  0.74740080  0.57917604  1
  Te2-  Te168  1  0.25358515  0.74600261  0.91641651  1
  Te2-  Te169  1  0.58822139  0.08231633  0.25269957  1
  Te2-  Te170  1  0.59047694  0.08130155  0.58868282  1
  Te2-  Te171  1  0.58412101  0.08344972  0.91825883  1
  Te2-  Te172  1  0.58416201  0.41408316  0.25326104  1
  Te2-  Te173  1  0.58958696  0.41030563  0.59097194  1
  Te2-  Te174  1  0.58080350  0.41669155  0.92448265  1
  Te2-  Te175  1  0.58370565  0.74440700  0.25534913  1
  Te2-  Te176  1  0.58513929  0.74789875  0.58510174  1
  Te2-  Te177  1  0.58556459  0.75109214  0.91837288  1
  Te2-  Te178  1  0.91843405  0.08213330  0.25529601  1
  Te2-  Te179  1  0.91893522  0.08088182  0.58745212  1
  Te2-  Te180  1  0.91698988  0.08649765  0.92184822  1
  Te2-  Te181  1  0.92045963  0.41313359  0.25060878  1
  Te2-  Te182  1  0.91959028  0.41371304  0.57960839  1
  Te2-  Te183  1  0.92038922  0.41558028  0.92249812  1
  Te2-  Te184  1  0.91962337  0.74451941  0.25344233  1
  Te2-  Te185  1  0.92210957  0.74577132  0.57924396  1
  Te2-  Te186  1  0.91811551  0.74578314  0.91949877  1
  Te2-  Te187  1  0.08680057  0.25245285  0.25678050  1
  Te2-  Te188  1  0.07984067  0.25329978  0.58566991  1
  Te2-  Te189  1  0.07646383  0.24832175  0.92546814  1
  Te2-  Te190  1  0.07849965  0.58296484  0.25142558  1
  Te2-  Te191  1  0.08186829  0.58442565  0.58072253  1
  Te2-  Te192  1  0.08168332  0.58612752  0.91695988  1
  Te2-  Te193  1  0.07765772  0.92728464  0.24632682  1
  Te2-  Te194  1  0.07967149  0.91802422  0.58078117  1
  Te2-  Te195  1  0.07440448  0.91027454  0.91521475  1
  Te2-  Te196  1  0.41100172  0.24808744  0.25334148  1
  Te2-  Te197  1  0.41167889  0.24830408  0.58513517  1
  Te2-  Te198  1  0.41458717  0.25663120  0.92026195  1
  Te2-  Te199  1  0.41491105  0.59065935  0.25689328  1
  Te2-  Te200  1  0.41706058  0.58299196  0.58554542  1
  Te2-  Te201  1  0.41229863  0.59160765  0.92196525  1
  Te2-  Te202  1  0.41438848  0.92188172  0.25452949  1
  Te2-  Te203  1  0.41302886  0.92128012  0.58761173  1
  Te2-  Te204  1  0.41510489  0.92141134  0.91964145  1
  Te2-  Te205  1  0.74291866  0.25409051  0.25218919  1
  Te2-  Te206  1  0.74902297  0.25362335  0.59377178  1
  Te2-  Te207  1  0.74246029  0.25766319  0.92281129  1
  Te2-  Te208  1  0.74483697  0.58215643  0.25280606  1
  Te2-  Te209  1  0.74892366  0.58648477  0.58198798  1
  Te2-  Te210  1  0.74873463  0.58749025  0.91543609  1
  Te2-  Te211  1  0.75002956  0.92348063  0.25424101  1
  Te2-  Te212  1  0.75159484  0.91820463  0.58764463  1
  Te2-  Te213  1  0.75168482  0.91945277  0.91789054  1
  Te2-  Te214  1  0.08184282  0.08418910  0.08372849  1
  Te2-  Te215  1  0.07544254  0.08142858  0.41419350  1
  Te2-  Te216  1  0.07901672  0.07449403  0.75196127  1
  Te2-  Te217  1  0.08134298  0.41351917  0.08220233  1
  Te2-  Te218  1  0.08463091  0.41406395  0.41070022  1
  Te2-  Te219  1  0.08036772  0.41376760  0.74221079  1
  Te2-  Te220  1  0.08467859  0.74791269  0.07998991  1
  Te2-  Te221  1  0.07958237  0.74487330  0.40924029  1
  Te2-  Te222  1  0.08303711  0.74263285  0.73994480  1
  Te2-  Te223  1  0.41824656  0.07731039  0.07890036  1
  Te2-  Te224  1  0.41830871  0.07547048  0.41600393  1
  Te2-  Te225  1  0.41311513  0.08601470  0.74841555  1
  Te2-  Te226  1  0.41150751  0.41703250  0.08244545  1
  Te2-  Te227  1  0.41482057  0.40803477  0.41894461  1
  Te2-  Te228  1  0.40930485  0.41896474  0.75045579  1
  Te2-  Te229  1  0.41327058  0.75006103  0.08268809  1
  Te2-  Te230  1  0.41688929  0.75073996  0.41481918  1
  Te2-  Te231  1  0.41618072  0.75102832  0.74595558  1
  Te2-  Te232  1  0.74959895  0.08049190  0.08155833  1
  Te2-  Te233  1  0.74992430  0.08489870  0.41578913  1
  Te2-  Te234  1  0.74743185  0.08497695  0.75140519  1
  Te2-  Te235  1  0.74287546  0.41250116  0.08176311  1
  Te2-  Te236  1  0.74419149  0.41410227  0.40700227  1
  Te2-  Te237  1  0.74688244  0.41432231  0.74561804  1
  Te2-  Te238  1  0.74727499  0.75027644  0.08158269  1
  Te2-  Te239  1  0.74511373  0.74552115  0.41552447  1
  Te2-  Te240  1  0.74737344  0.74770049  0.74709006  1
