# generated using pymatgen
data_Ti27(Cu53Te54)2
_symmetry_space_group_name_H-M   'P 1'
_cell_length_a   17.93288680
_cell_length_b   17.92631980
_cell_length_c   17.92589547
_cell_angle_alpha   89.99700744
_cell_angle_beta   89.97255931
_cell_angle_gamma   89.94968625
_symmetry_Int_Tables_number   1
_chemical_formula_structural   Ti27(Cu53Te54)2
_chemical_formula_sum   'Ti27 Cu106 Te108'
_cell_volume   5762.64662084
_cell_formula_units_Z   1
loop_
 _symmetry_equiv_pos_site_id
 _symmetry_equiv_pos_as_xyz
  1  'x, y, z'
loop_
 _atom_type_symbol
 _atom_type_oxidation_number
  Ti4+  4.0
  Cu+  1.0
  Te2-  -2.0
loop_
 _atom_site_type_symbol
 _atom_site_label
 _atom_site_symmetry_multiplicity
 _atom_site_fract_x
 _atom_site_fract_y
 _atom_site_fract_z
 _atom_site_occupancy
  Ti4+  Ti0  1  0.16672594  0.16473195  0.16865543  1
  Ti4+  Ti1  1  0.16766633  0.16688033  0.50046428  1
  Ti4+  Ti2  1  0.16421976  0.16134956  0.83338417  1
  Ti4+  Ti3  1  0.16849561  0.50086158  0.16764801  1
  Ti4+  Ti4  1  0.16570290  0.50150525  0.50086232  1
  Ti4+  Ti5  1  0.16732639  0.49867739  0.83649485  1
  Ti4+  Ti6  1  0.16846585  0.83358204  0.16441785  1
  Ti4+  Ti7  1  0.16790852  0.83381208  0.49988111  1
  Ti4+  Ti8  1  0.16972558  0.83096657  0.83148864  1
  Ti4+  Ti9  1  0.49525811  0.16982914  0.16680487  1
  Ti4+  Ti10  1  0.49957108  0.16874989  0.50200677  1
  Ti4+  Ti11  1  0.49867942  0.16600678  0.83381087  1
  Ti4+  Ti12  1  0.49692189  0.49789497  0.16444491  1
  Ti4+  Ti13  1  0.49881612  0.50217648  0.50252679  1
  Ti4+  Ti14  1  0.50286904  0.49999134  0.83643724  1
  Ti4+  Ti15  1  0.50065711  0.83244904  0.16862559  1
  Ti4+  Ti16  1  0.50196523  0.83449553  0.50014529  1
  Ti4+  Ti17  1  0.50115919  0.83218320  0.83373348  1
  Ti4+  Ti18  1  0.82907363  0.17058158  0.16556756  1
  Ti4+  Ti19  1  0.83357261  0.16720276  0.49652352  1
  Ti4+  Ti20  1  0.83130870  0.16832962  0.83267570  1
  Ti4+  Ti21  1  0.83266422  0.49619822  0.16834410  1
  Ti4+  Ti22  1  0.82985559  0.49801733  0.49753865  1
  Ti4+  Ti23  1  0.83977955  0.50162796  0.83154787  1
  Ti4+  Ti24  1  0.83276232  0.83471487  0.16657700  1
  Ti4+  Ti25  1  0.83445652  0.83299131  0.49870237  1
  Ti4+  Ti26  1  0.83438798  0.83570145  0.83282167  1
  Cu+  Cu27  1  0.16452724  0.15538082  0.00295373  1
  Cu+  Cu28  1  0.16932074  0.16784086  0.33535776  1
  Cu+  Cu29  1  0.16412104  0.16421172  0.66554906  1
  Cu+  Cu30  1  0.17275753  0.50184255  0.00252512  1
  Cu+  Cu31  1  0.16565395  0.50424757  0.33518784  1
  Cu+  Cu32  1  0.16366754  0.49817975  0.66900222  1
  Cu+  Cu33  1  0.17047313  0.82981903  -0.00553047  1
  Cu+  Cu34  1  0.16960589  0.83527647  0.33269681  1
  Cu+  Cu35  1  0.16628265  0.83487635  0.66565866  1
  Cu+  Cu36  1  0.49393059  0.16934359  -0.00012124  1
  Cu+  Cu37  1  0.49812979  0.16818727  0.33560428  1
  Cu+  Cu38  1  0.50093357  0.16725027  0.66670259  1
  Cu+  Cu39  1  0.49918192  0.49113986  -0.00151004  1
  Cu+  Cu40  1  0.49988014  0.50189223  0.33415390  1
  Cu+  Cu41  1  0.50110415  0.50335814  0.67148379  1
  Cu+  Cu42  1  0.50179835  0.83060678  0.00368816  1
  Cu+  Cu43  1  0.50233687  0.83200616  0.33447020  1
  Cu+  Cu44  1  0.49756132  0.83159312  0.66546351  1
  Cu+  Cu45  1  0.82994397  0.17099093  -0.00287795  1
  Cu+  Cu46  1  0.82918763  0.17486671  0.33289993  1
  Cu+  Cu47  1  0.83484378  0.16585632  0.66388708  1
  Cu+  Cu48  1  0.83556254  0.49724967  -0.00122313  1
  Cu+  Cu49  1  0.83000941  0.48933672  0.33305763  1
  Cu+  Cu50  1  0.83901105  0.50351904  0.66217054  1
  Cu+  Cu51  1  0.83344936  0.83654425  0.00183661  1
  Cu+  Cu52  1  0.83239740  0.83540817  0.33245375  1
  Cu+  Cu53  1  0.83470481  0.83223578  0.66575148  1
  Cu+  Cu54  1  0.17238207  -0.00201943  0.16799823  1
  Cu+  Cu55  1  0.16909414  0.00180535  0.50063788  1
  Cu+  Cu56  1  0.16716532  -0.00618981  0.82985502  1
  Cu+  Cu57  1  0.17034790  0.33279622  0.16931227  1
  Cu+  Cu58  1  0.16530410  0.33424741  0.50170515  1
  Cu+  Cu59  1  0.16455596  0.32774247  0.83666579  1
  Cu+  Cu60  1  0.16596585  0.66778402  0.16438202  1
  Cu+  Cu61  1  0.16565921  0.66825466  0.49973274  1
  Cu+  Cu62  1  0.16590463  0.66417884  0.83886466  1
  Cu+  Cu63  1  0.49940082  -0.00068575  0.16836267  1
  Cu+  Cu64  1  0.50373525  0.00372348  0.49994957  1
  Cu+  Cu65  1  0.49881734  -0.00091204  0.83249798  1
  Cu+  Cu66  1  0.49000441  0.33410378  0.16068418  1
  Cu+  Cu67  1  0.49942599  0.33610435  0.50434781  1
  Cu+  Cu68  1  0.49985796  0.33380789  0.83547738  1
  Cu+  Cu69  1  0.50330691  0.66439086  0.16803160  1
  Cu+  Cu70  1  0.49776135  0.67046059  0.50433271  1
  Cu+  Cu71  1  0.50550403  0.66607467  0.83565284  1
  Cu+  Cu72  1  0.83052071  0.00290589  0.16498419  1
  Cu+  Cu73  1  0.83115385  -0.00239689  0.49509526  1
  Cu+  Cu74  1  0.83183426  0.00446316  0.83115640  1
  Cu+  Cu75  1  0.83206969  0.33258985  0.17437461  1
  Cu+  Cu76  1  0.83113719  0.33234586  0.48981984  1
  Cu+  Cu77  1  0.83770238  0.33528009  0.83621774  1
  Cu+  Cu78  1  0.83253727  0.66706487  0.16632634  1
  Cu+  Cu79  1  0.83347182  0.66545581  0.49987052  1
  Cu+  Cu80  1  0.83819198  0.66889594  0.83066283  1
  Cu+  Cu81  1  -0.00194023  0.16956062  0.16670978  1
  Cu+  Cu82  1  0.00393711  0.16523835  0.49952415  1
  Cu+  Cu83  1  -0.00493562  0.16379448  0.83151623  1
  Cu+  Cu84  1  0.00443126  0.49923010  0.16624956  1
  Cu+  Cu85  1  -0.00409448  0.50141090  0.49963995  1
  Cu+  Cu86  1  0.00560104  0.50438053  0.82862825  1
  Cu+  Cu87  1  -0.00142606  0.83382066  0.16349471  1
  Cu+  Cu88  1  0.00157159  0.83211710  0.49921086  1
  Cu+  Cu89  1  0.00233884  0.83219776  0.83180713  1
  Cu+  Cu90  1  0.32983965  0.17034214  0.16523910  1
  Cu+  Cu91  1  0.33502786  0.16844553  0.50294564  1
  Cu+  Cu92  1  0.32976979  0.16306844  0.83234481  1
  Cu+  Cu93  1  0.33306207  0.49745862  0.16863007  1
  Cu+  Cu94  1  0.33105201  0.50325305  0.50201906  1
  Cu+  Cu95  1  0.33251053  0.50159147  0.84007709  1
  Cu+  Cu96  1  0.33491646  0.83453517  0.16904322  1
  Cu+  Cu97  1  0.33539787  0.83132709  0.50267496  1
  Cu+  Cu98  1  0.33930833  0.83686294  0.82911961  1
  Cu+  Cu99  1  0.66071883  0.16741966  0.16413540  1
  Cu+  Cu100  1  0.66588959  0.16799625  0.49824937  1
  Cu+  Cu101  1  0.66531408  0.16466870  0.83625138  1
  Cu+  Cu102  1  0.66233218  0.49658166  0.16775852  1
  Cu+  Cu103  1  0.66206792  0.50160479  0.50203845  1
  Cu+  Cu104  1  0.67380290  0.49990536  0.83407804  1
  Cu+  Cu105  1  0.66703973  0.83247015  0.16699858  1
  Cu+  Cu106  1  0.66909624  0.83632644  0.49699747  1
  Cu+  Cu107  1  0.66699830  0.83412330  0.83339378  1
  Cu+  Cu108  1  0.25640969  0.26060448  0.26551853  1
  Cu+  Cu109  1  0.26485647  0.92262764  0.92092859  1
  Cu+  Cu110  1  0.73920710  0.92388309  0.40259530  1
  Cu+  Cu111  1  0.26100641  0.07103985  0.07611282  1
  Cu+  Cu112  1  0.41527339  0.93019161  0.73542720  1
  Cu+  Cu113  1  0.92909757  0.25442192  0.26089746  1
  Cu+  Cu114  1  0.73413960  0.40786985  0.26041191  1
  Cu+  Cu115  1  0.40209564  0.40359788  0.91653227  1
  Cu+  Cu116  1  0.92777367  0.25974243  0.92469518  1
  Cu+  Cu117  1  0.92084984  0.07552241  0.73458705  1
  Cu+  Cu118  1  0.07102190  0.74132190  0.92704395  1
  Cu+  Cu119  1  0.40529428  0.41446147  0.26688213  1
  Cu+  Cu120  1  0.59286530  0.40527275  0.07368841  1
  Cu+  Cu121  1  0.93082014  0.40799587  0.40948911  1
  Cu+  Cu122  1  0.40455971  0.73992322  0.59479378  1
  Cu+  Cu123  1  0.73287772  0.25954256  0.40923957  1
  Cu+  Cu124  1  0.26439524  0.59188433  0.93145137  1
  Cu+  Cu125  1  0.26316971  0.92232298  0.26423293  1
  Cu+  Cu126  1  0.59164915  0.59294329  0.26179873  1
  Cu+  Cu127  1  0.07283262  0.92205100  0.73743720  1
  Cu+  Cu128  1  0.08184818  0.59318337  0.73911917  1
  Cu+  Cu129  1  0.73842398  0.07284731  0.92750973  1
  Cu+  Cu130  1  0.39855934  0.25779013  0.06934536  1
  Cu+  Cu131  1  0.74639815  0.40996337  0.92326375  1
  Cu+  Cu132  1  0.92413786  0.59603794  0.58719817  1
  Te2-  Te133  1  0.24674306  0.25226236  0.07535634  1
  Te2-  Te134  1  0.25447086  0.25539859  0.41765538  1
  Te2-  Te135  1  0.24747374  0.24770236  0.74950210  1
  Te2-  Te136  1  0.25698551  0.58822175  0.08458952  1
  Te2-  Te137  1  0.25090109  0.58703706  0.41653859  1
  Te2-  Te138  1  0.25220225  0.58375497  0.74929365  1
  Te2-  Te139  1  0.25758484  0.91768220  0.07601356  1
  Te2-  Te140  1  0.25609238  0.91982024  0.41705797  1
  Te2-  Te141  1  0.25637922  0.91909614  0.74250326  1
  Te2-  Te142  1  0.58345986  0.25321167  0.07832651  1
  Te2-  Te143  1  0.58199471  0.25635363  0.41433278  1
  Te2-  Te144  1  0.58446757  0.25157450  0.75094938  1
  Te2-  Te145  1  0.58388155  0.58168103  0.07791487  1
  Te2-  Te146  1  0.58381544  0.58923917  0.41659472  1
  Te2-  Te147  1  0.58958570  0.58386369  0.75214133  1
  Te2-  Te148  1  0.58494653  0.91833235  0.08365393  1
  Te2-  Te149  1  0.58568348  0.92171767  0.41230600  1
  Te2-  Te150  1  0.58502182  0.91780732  0.74682439  1
  Te2-  Te151  1  0.91672247  0.25614860  0.08019358  1
  Te2-  Te152  1  0.92655175  0.25258114  0.41226427  1
  Te2-  Te153  1  0.91831178  0.25345855  0.74588184  1
  Te2-  Te154  1  0.91689548  0.58120508  0.08454962  1
  Te2-  Te155  1  0.91385592  0.58281035  0.40877902  1
  Te2-  Te156  1  0.92421467  0.59081644  0.74362794  1
  Te2-  Te157  1  0.91759116  0.92213245  0.08227948  1
  Te2-  Te158  1  0.92137000  0.91769605  0.41351426  1
  Te2-  Te159  1  0.91995865  0.92089269  0.74433792  1
  Te2-  Te160  1  0.25583504  0.08032323  0.25567869  1
  Te2-  Te161  1  0.25310538  0.08227939  0.58625555  1
  Te2-  Te162  1  0.25343701  0.07536638  0.91877185  1
  Te2-  Te163  1  0.25275752  0.41439700  0.25895683  1
  Te2-  Te164  1  0.24986790  0.41680132  0.58658540  1
  Te2-  Te165  1  0.24999478  0.40819133  0.92201785  1
  Te2-  Te166  1  0.25182853  0.74722081  0.25034749  1
  Te2-  Te167  1  0.25109429  0.74634148  0.58783566  1
  Te2-  Te168  1  0.26082446  0.74570254  0.91624190  1
  Te2-  Te169  1  0.58091875  0.08487585  0.25131782  1
  Te2-  Te170  1  0.58767804  0.08413965  0.58563453  1
  Te2-  Te171  1  0.58121658  0.08014584  0.92177185  1
  Te2-  Te172  1  0.57998948  0.40801033  0.25323931  1
  Te2-  Te173  1  0.58313777  0.41771190  0.58881840  1
  Te2-  Te174  1  0.59234106  0.41024921  0.91899049  1
  Te2-  Te175  1  0.58844383  0.74687998  0.25405452  1
  Te2-  Te176  1  0.58945624  0.75109695  0.58468132  1
  Te2-  Te177  1  0.58760598  0.74926412  0.92009354  1
  Te2-  Te178  1  0.91320454  0.08563884  0.25152043  1
  Te2-  Te179  1  0.91898677  0.07880995  0.58011049  1
  Te2-  Te180  1  0.91636730  0.08137392  0.92149348  1
  Te2-  Te181  1  0.92622836  0.41152484  0.25332544  1
  Te2-  Te182  1  0.91569067  0.40956256  0.58099325  1
  Te2-  Te183  1  0.92814086  0.41716180  0.91828411  1
  Te2-  Te184  1  0.91788352  0.74924975  0.25129098  1
  Te2-  Te185  1  0.92141123  0.74801309  0.58552724  1
  Te2-  Te186  1  0.91848484  0.74992719  0.91985698  1
  Te2-  Te187  1  0.08207099  0.25324091  0.25421427  1
  Te2-  Te188  1  0.08098915  0.25159685  0.58567505  1
  Te2-  Te189  1  0.08020090  0.24497057  0.92220245  1
  Te2-  Te190  1  0.08234569  0.58686842  0.25068820  1
  Te2-  Te191  1  0.07832009  0.58862854  0.58578234  1
  Te2-  Te192  1  0.07916648  0.58412112  0.92563724  1
  Te2-  Te193  1  0.08213825  0.91734517  0.24902404  1
  Te2-  Te194  1  0.08037992  0.92101202  0.58376314  1
  Te2-  Te195  1  0.08211353  0.91696037  0.91845787  1
  Te2-  Te196  1  0.41023800  0.25527409  0.25757442  1
  Te2-  Te197  1  0.41489234  0.25377967  0.58844685  1
  Te2-  Te198  1  0.40735245  0.25218614  0.91694688  1
  Te2-  Te199  1  0.41336313  0.58558274  0.25139396  1
  Te2-  Te200  1  0.41287804  0.58612456  0.58991166  1
  Te2-  Te201  1  0.41894298  0.58844175  0.92335516  1
  Te2-  Te202  1  0.41611014  0.91964124  0.25600617  1
  Te2-  Te203  1  0.41516237  0.92346220  0.58368334  1
  Te2-  Te204  1  0.41775636  0.91877301  0.92369290  1
  Te2-  Te205  1  0.73620295  0.25430698  0.25229486  1
  Te2-  Te206  1  0.75043478  0.25222220  0.58338656  1
  Te2-  Te207  1  0.74328539  0.25679396  0.91828691  1
  Te2-  Te208  1  0.74708744  0.58373219  0.25274876  1
  Te2-  Te209  1  0.74656657  0.58491688  0.58469466  1
  Te2-  Te210  1  0.75483439  0.58715502  0.91750057  1
  Te2-  Te211  1  0.74536324  0.92203099  0.25084041  1
  Te2-  Te212  1  0.74987503  0.91846535  0.58596632  1
  Te2-  Te213  1  0.74773282  0.92015792  0.91828513  1
  Te2-  Te214  1  0.07762374  0.07764099  0.08831722  1
  Te2-  Te215  1  0.08407695  0.08080122  0.41338012  1
  Te2-  Te216  1  0.07824105  0.07734302  0.74503659  1
  Te2-  Te217  1  0.08663084  0.41427273  0.08184422  1
  Te2-  Te218  1  0.08187609  0.41547129  0.41417214  1
  Te2-  Te219  1  0.08298409  0.41037698  0.75107812  1
  Te2-  Te220  1  0.08123164  0.74837572  0.07928526  1
  Te2-  Te221  1  0.08387602  0.75026090  0.41291504  1
  Te2-  Te222  1  0.08214842  0.74530781  0.74479634  1
  Te2-  Te223  1  0.41329142  0.07918641  0.08156782  1
  Te2-  Te224  1  0.41455067  0.08264431  0.41687616  1
  Te2-  Te225  1  0.41379476  0.08231114  0.74644402  1
  Te2-  Te226  1  0.40337465  0.41296781  0.07422971  1
  Te2-  Te227  1  0.41258341  0.41582504  0.41830958  1
  Te2-  Te228  1  0.41431057  0.41734137  0.75128785  1
  Te2-  Te229  1  0.41564439  0.74637538  0.08499153  1
  Te2-  Te230  1  0.41572332  0.74907436  0.41449485  1
  Te2-  Te231  1  0.41587297  0.74213404  0.74939089  1
  Te2-  Te232  1  0.74413025  0.08345933  0.07997703  1
  Te2-  Te233  1  0.74642954  0.08199708  0.41089659  1
  Te2-  Te234  1  0.74515959  0.08372092  0.74476652  1
  Te2-  Te235  1  0.74752033  0.40931094  0.07942955  1
  Te2-  Te236  1  0.73461834  0.41269228  0.41319132  1
  Te2-  Te237  1  0.75582912  0.41685209  0.74510959  1
  Te2-  Te238  1  0.74842177  0.74867553  0.08091476  1
  Te2-  Te239  1  0.74946972  0.74603049  0.41413495  1
  Te2-  Te240  1  0.75001634  0.74995488  0.74912870  1
