# generated using pymatgen
data_Ti27(Cu53Te54)2
_symmetry_space_group_name_H-M   'P 1'
_cell_length_a   17.87139890
_cell_length_b   17.86619459
_cell_length_c   17.87057162
_cell_angle_alpha   90.00910050
_cell_angle_beta   90.01719274
_cell_angle_gamma   89.97553288
_symmetry_Int_Tables_number   1
_chemical_formula_structural   Ti27(Cu53Te54)2
_chemical_formula_sum   'Ti27 Cu106 Te108'
_cell_volume   5705.96348773
_cell_formula_units_Z   1
loop_
 _symmetry_equiv_pos_site_id
 _symmetry_equiv_pos_as_xyz
  1  'x, y, z'
loop_
 _atom_type_symbol
 _atom_type_oxidation_number
  Ti4+  4.0
  Cu+  1.0
  Te2-  -2.0
loop_
 _atom_site_type_symbol
 _atom_site_label
 _atom_site_symmetry_multiplicity
 _atom_site_fract_x
 _atom_site_fract_y
 _atom_site_fract_z
 _atom_site_occupancy
  Ti4+  Ti0  1  0.16769550  0.16820377  0.16776093  1
  Ti4+  Ti1  1  0.16874557  0.16502973  0.49772439  1
  Ti4+  Ti2  1  0.16886249  0.16546576  0.83355605  1
  Ti4+  Ti3  1  0.16483993  0.49995952  0.16571583  1
  Ti4+  Ti4  1  0.16462985  0.49940386  0.49952577  1
  Ti4+  Ti5  1  0.16706304  0.50003485  0.83174901  1
  Ti4+  Ti6  1  0.16750910  0.83290099  0.17011284  1
  Ti4+  Ti7  1  0.16383400  0.83464726  0.49881738  1
  Ti4+  Ti8  1  0.16619501  0.83519983  0.83385761  1
  Ti4+  Ti9  1  0.50239415  0.16644031  0.16489653  1
  Ti4+  Ti10  1  0.50108163  0.16637096  0.50000097  1
  Ti4+  Ti11  1  0.50104717  0.16506488  0.83224989  1
  Ti4+  Ti12  1  0.50080749  0.49823757  0.16908847  1
  Ti4+  Ti13  1  0.49904889  0.50232425  0.50259948  1
  Ti4+  Ti14  1  0.50011500  0.50143168  0.83420260  1
  Ti4+  Ti15  1  0.50012087  0.83198106  0.16922369  1
  Ti4+  Ti16  1  0.49881766  0.83122630  0.49982658  1
  Ti4+  Ti17  1  0.49700888  0.83245793  0.83437174  1
  Ti4+  Ti18  1  0.83199491  0.16759956  0.16955275  1
  Ti4+  Ti19  1  0.83334470  0.16410420  0.50169232  1
  Ti4+  Ti20  1  0.83391150  0.16544823  0.83035673  1
  Ti4+  Ti21  1  0.83112637  0.50044742  0.16356762  1
  Ti4+  Ti22  1  0.83363372  0.50034686  0.50135062  1
  Ti4+  Ti23  1  0.83474416  0.49819887  0.83304728  1
  Ti4+  Ti24  1  0.83536245  0.83654796  0.16441572  1
  Ti4+  Ti25  1  0.83182810  0.83583365  0.49596795  1
  Ti4+  Ti26  1  0.83164408  0.83540501  0.83303561  1
  Cu+  Cu27  1  0.16830287  0.16875649  0.00139825  1
  Cu+  Cu28  1  0.16423602  0.17081452  0.33306881  1
  Cu+  Cu29  1  0.17179327  0.16063347  0.66763294  1
  Cu+  Cu30  1  0.16618889  0.50080582  -0.00298800  1
  Cu+  Cu31  1  0.16603767  0.49914068  0.33263642  1
  Cu+  Cu32  1  0.16660529  0.50034703  0.66347869  1
  Cu+  Cu33  1  0.16560390  0.83643545  0.00350787  1
  Cu+  Cu34  1  0.16711273  0.83249563  0.33263950  1
  Cu+  Cu35  1  0.16453919  0.83432902  0.66783962  1
  Cu+  Cu36  1  0.49711215  0.16376331  -0.00331281  1
  Cu+  Cu37  1  0.50247440  0.16881996  0.33465767  1
  Cu+  Cu38  1  0.50189360  0.16690936  0.66437920  1
  Cu+  Cu39  1  0.50281255  0.49799306  0.00251432  1
  Cu+  Cu40  1  0.49798760  0.50085564  0.33702536  1
  Cu+  Cu41  1  0.49983975  0.50853419  0.66843712  1
  Cu+  Cu42  1  0.50075243  0.83179741  0.00211006  1
  Cu+  Cu43  1  0.49760834  0.82559677  0.33512736  1
  Cu+  Cu44  1  0.49670470  0.83326746  0.66729651  1
  Cu+  Cu45  1  0.83004792  0.16532475  -0.00122425  1
  Cu+  Cu46  1  0.83288359  0.15975295  0.33514195  1
  Cu+  Cu47  1  0.82590101  0.16734567  0.66744712  1
  Cu+  Cu48  1  0.83686371  0.49712521  -0.00048693  1
  Cu+  Cu49  1  0.82898301  0.50153831  0.33439992  1
  Cu+  Cu50  1  0.83706978  0.49628323  0.66791026  1
  Cu+  Cu51  1  0.83826196  0.83998387  -0.00373075  1
  Cu+  Cu52  1  0.83276882  0.83487678  0.32669854  1
  Cu+  Cu53  1  0.83068821  0.83553237  0.66498864  1
  Cu+  Cu54  1  0.17000498  0.00101733  0.16805412  1
  Cu+  Cu55  1  0.16340930  0.00171190  0.50298296  1
  Cu+  Cu56  1  0.17284701  0.00277462  0.82924325  1
  Cu+  Cu57  1  0.16625691  0.33434719  0.16616541  1
  Cu+  Cu58  1  0.16593693  0.33187590  0.49579338  1
  Cu+  Cu59  1  0.16917822  0.33174404  0.83407193  1
  Cu+  Cu60  1  0.16393689  0.66514919  0.16871668  1
  Cu+  Cu61  1  0.16413124  0.66647740  0.49840890  1
  Cu+  Cu62  1  0.16464254  0.66894128  0.83395242  1
  Cu+  Cu63  1  0.50193596  -0.00231506  0.16509755  1
  Cu+  Cu64  1  0.49799925  -0.00199782  0.49804025  1
  Cu+  Cu65  1  0.49708628  -0.00126361  0.83780342  1
  Cu+  Cu66  1  0.50775795  0.33166422  0.16486184  1
  Cu+  Cu67  1  0.50056334  0.33543145  0.50086854  1
  Cu+  Cu68  1  0.50060710  0.33323407  0.83198248  1
  Cu+  Cu69  1  0.49568837  0.66490517  0.17090700  1
  Cu+  Cu70  1  0.50571409  0.66571557  0.50359402  1
  Cu+  Cu71  1  0.49430246  0.66606242  0.83171468  1
  Cu+  Cu72  1  0.83438309  0.00278611  0.17163644  1
  Cu+  Cu73  1  0.83642138  0.00048621  0.50254747  1
  Cu+  Cu74  1  0.83347752  -0.00016545  0.83933280  1
  Cu+  Cu75  1  0.83044804  0.33685017  0.16580610  1
  Cu+  Cu76  1  0.83455361  0.33232488  0.50034769  1
  Cu+  Cu77  1  0.83717321  0.33372451  0.82437241  1
  Cu+  Cu78  1  0.83125564  0.66817982  0.16355200  1
  Cu+  Cu79  1  0.83217666  0.66649802  0.49777436  1
  Cu+  Cu80  1  0.83140885  0.66689595  0.83222145  1
  Cu+  Cu81  1  0.00058154  0.16942449  0.16528175  1
  Cu+  Cu82  1  0.00451844  0.16399012  0.49704234  1
  Cu+  Cu83  1  0.00160428  0.16884519  0.83318542  1
  Cu+  Cu84  1  -0.00292756  0.49988748  0.16208126  1
  Cu+  Cu85  1  -0.00049263  0.50088989  0.49970126  1
  Cu+  Cu86  1  0.00090214  0.49618278  0.83002378  1
  Cu+  Cu87  1  0.00382308  0.83776472  0.16661378  1
  Cu+  Cu88  1  -0.00242720  0.83787495  0.49879106  1
  Cu+  Cu89  1  -0.00072057  0.83714778  0.83491729  1
  Cu+  Cu90  1  0.33501553  0.16658766  0.16457320  1
  Cu+  Cu91  1  0.33631750  0.16837492  0.49886098  1
  Cu+  Cu92  1  0.33432633  0.15993534  0.83257580  1
  Cu+  Cu93  1  0.33127856  0.50046213  0.16521122  1
  Cu+  Cu94  1  0.33020318  0.49969389  0.50010448  1
  Cu+  Cu95  1  0.33421738  0.50400282  0.83127459  1
  Cu+  Cu96  1  0.33479332  0.83152993  0.17603998  1
  Cu+  Cu97  1  0.33090870  0.83301540  0.49956932  1
  Cu+  Cu98  1  0.33074498  0.83354433  0.83639515  1
  Cu+  Cu99  1  0.66507217  0.17031551  0.17269676  1
  Cu+  Cu100  1  0.66709834  0.16361324  0.50367552  1
  Cu+  Cu101  1  0.66979647  0.16590482  0.83050109  1
  Cu+  Cu102  1  0.66498307  0.49428440  0.16639412  1
  Cu+  Cu103  1  0.66618649  0.50391013  0.50585774  1
  Cu+  Cu104  1  0.66832363  0.50004885  0.83734209  1
  Cu+  Cu105  1  0.66913949  0.83070542  0.16508000  1
  Cu+  Cu106  1  0.66270881  0.82940150  0.49304192  1
  Cu+  Cu107  1  0.66274872  0.83256983  0.83223055  1
  Cu+  Cu108  1  0.40136535  0.59556327  0.73804494  1
  Cu+  Cu109  1  0.74271890  0.40900090  0.26497912  1
  Cu+  Cu110  1  0.93399494  0.40626856  0.73467302  1
  Cu+  Cu111  1  0.26715410  0.07110288  0.73442445  1
  Cu+  Cu112  1  0.92485280  0.92153145  0.59602133  1
  Cu+  Cu113  1  0.07963584  0.93076212  0.07571825  1
  Cu+  Cu114  1  0.92957062  0.40482308  0.07355998  1
  Cu+  Cu115  1  0.73565564  0.06970895  0.59460740  1
  Cu+  Cu116  1  0.40305047  0.07026975  0.92866027  1
  Cu+  Cu117  1  0.73980082  0.07295378  0.92949085  1
  Cu+  Cu118  1  0.07272564  0.26279722  0.40483808  1
  Cu+  Cu119  1  0.07477895  0.07883073  0.59787406  1
  Cu+  Cu120  1  0.58865141  0.26081580  0.26650764  1
  Cu+  Cu121  1  0.73525748  0.07243611  0.26202795  1
  Cu+  Cu122  1  0.40407953  0.73394939  0.26479090  1
  Cu+  Cu123  1  0.93095875  0.92983021  0.92441656  1
  Cu+  Cu124  1  0.73677993  0.26482835  0.74173874  1
  Cu+  Cu125  1  0.74253335  0.73919940  0.25335754  1
  Cu+  Cu126  1  0.59139333  0.73536125  0.40530045  1
  Cu+  Cu127  1  0.07307847  0.73580736  0.26175607  1
  Cu+  Cu128  1  0.59157885  0.40245108  0.06845259  1
  Cu+  Cu129  1  0.93085595  0.07472904  0.40791664  1
  Cu+  Cu130  1  0.92969474  0.92662920  0.25762802  1
  Cu+  Cu131  1  0.26433720  0.93192243  0.26081346  1
  Cu+  Cu132  1  0.59927933  0.59542379  0.60072862  1
  Te2-  Te133  1  0.25282450  0.25337532  0.08256634  1
  Te2-  Te134  1  0.25498397  0.25166298  0.41320846  1
  Te2-  Te135  1  0.25490447  0.24975785  0.74785334  1
  Te2-  Te136  1  0.24966469  0.58617158  0.08076095  1
  Te2-  Te137  1  0.24987608  0.58522744  0.41413887  1
  Te2-  Te138  1  0.24939215  0.58911614  0.74529454  1
  Te2-  Te139  1  0.25715353  0.91664199  0.08527348  1
  Te2-  Te140  1  0.25126599  0.92129655  0.41500578  1
  Te2-  Te141  1  0.25497168  0.91740287  0.74501766  1
  Te2-  Te142  1  0.58916111  0.24826388  0.07388107  1
  Te2-  Te143  1  0.58995752  0.25419422  0.41865932  1
  Te2-  Te144  1  0.58548795  0.25251686  0.74568836  1
  Te2-  Te145  1  0.58456405  0.58685511  0.08541789  1
  Te2-  Te146  1  0.58850033  0.58451651  0.41225550  1
  Te2-  Te147  1  0.59066887  0.58941558  0.75241018  1
  Te2-  Te148  1  0.58674468  0.91544468  0.08248309  1
  Te2-  Te149  1  0.58159660  0.91773572  0.41143037  1
  Te2-  Te150  1  0.58123084  0.91904515  0.74882988  1
  Te2-  Te151  1  0.91587561  0.25138308  0.08004495  1
  Te2-  Te152  1  0.91820649  0.25139155  0.41358403  1
  Te2-  Te153  1  0.92327222  0.24896841  0.74167829  1
  Te2-  Te154  1  0.91700137  0.58841733  0.07931689  1
  Te2-  Te155  1  0.91740712  0.58484521  0.41355387  1
  Te2-  Te156  1  0.91892877  0.58595440  0.74861624  1
  Te2-  Te157  1  0.92237634  0.92701979  0.07904759  1
  Te2-  Te158  1  0.92025549  0.92174531  0.40856519  1
  Te2-  Te159  1  0.91828481  0.92267458  0.74740073  1
  Te2-  Te160  1  0.25470650  0.08457230  0.25521260  1
  Te2-  Te161  1  0.25912783  0.07789844  0.58190856  1
  Te2-  Te162  1  0.25192150  0.07887880  0.92478492  1
  Te2-  Te163  1  0.25130768  0.41506507  0.25079241  1
  Te2-  Te164  1  0.25004410  0.41209101  0.58368070  1
  Te2-  Te165  1  0.25444859  0.41637094  0.91658192  1
  Te2-  Te166  1  0.25194980  0.74102200  0.25668019  1
  Te2-  Te167  1  0.24731029  0.74951745  0.58384089  1
  Te2-  Te168  1  0.24866157  0.74944874  0.92156716  1
  Te2-  Te169  1  0.58436451  0.07754926  0.25444655  1
  Te2-  Te170  1  0.58375413  0.07602873  0.58651171  1
  Te2-  Te171  1  0.58865661  0.08013739  0.91878140  1
  Te2-  Te172  1  0.58723953  0.41315276  0.26127761  1
  Te2-  Te173  1  0.58333525  0.41689676  0.58922420  1
  Te2-  Te174  1  0.58679212  0.41196505  0.91767285  1
  Te2-  Te175  1  0.58934189  0.74255277  0.25245773  1
  Te2-  Te176  1  0.58837060  0.74971165  0.59079744  1
  Te2-  Te177  1  0.58233451  0.74571923  0.91790522  1
  Te2-  Te178  1  0.92639737  0.08229645  0.25267934  1
  Te2-  Te179  1  0.92172243  0.08086096  0.59188357  1
  Te2-  Te180  1  0.92304373  0.08386905  0.92077753  1
  Te2-  Te181  1  0.91663004  0.41667120  0.25263397  1
  Te2-  Te182  1  0.92204758  0.41167026  0.58347855  1
  Te2-  Te183  1  0.92116260  0.40931041  0.91793930  1
  Te2-  Te184  1  0.92090493  0.74662366  0.24958042  1
  Te2-  Te185  1  0.91594962  0.75010077  0.58227617  1
  Te2-  Te186  1  0.91784928  0.74817716  0.91656732  1
  Te2-  Te187  1  0.07862648  0.25611089  0.25050480  1
  Te2-  Te188  1  0.08416887  0.24848896  0.58678190  1
  Te2-  Te189  1  0.08319935  0.25162338  0.91886169  1
  Te2-  Te190  1  0.07595638  0.58271398  0.25333407  1
  Te2-  Te191  1  0.07963334  0.58630773  0.58483591  1
  Te2-  Te192  1  0.07923443  0.58420835  0.91576357  1
  Te2-  Te193  1  0.08198323  0.92416788  0.25665240  1
  Te2-  Te194  1  0.07813365  0.92118925  0.58958220  1
  Te2-  Te195  1  0.08283785  0.92649557  0.92003669  1
  Te2-  Te196  1  0.41729376  0.25295876  0.24953607  1
  Te2-  Te197  1  0.41616741  0.25285065  0.58525296  1
  Te2-  Te198  1  0.41378615  0.25146879  0.91484625  1
  Te2-  Te199  1  0.41059817  0.58186370  0.25552772  1
  Te2-  Te200  1  0.40911133  0.58997103  0.58434170  1
  Te2-  Te201  1  0.41565510  0.58384979  0.92356859  1
  Te2-  Te202  1  0.41775063  0.92176480  0.25752215  1
  Te2-  Te203  1  0.41307432  0.91755893  0.58390978  1
  Te2-  Te204  1  0.41166906  0.91688358  0.92419045  1
  Te2-  Te205  1  0.74843955  0.25570690  0.25924186  1
  Te2-  Te206  1  0.74570039  0.25567424  0.58420054  1
  Te2-  Te207  1  0.75077578  0.25480826  0.91476872  1
  Te2-  Te208  1  0.74432368  0.58657841  0.25060054  1
  Te2-  Te209  1  0.75211817  0.58794602  0.59050522  1
  Te2-  Te210  1  0.75105320  0.58429350  0.92016037  1
  Te2-  Te211  1  0.74339877  0.92073151  0.25117035  1
  Te2-  Te212  1  0.74164890  0.91706152  0.58151410  1
  Te2-  Te213  1  0.74153052  0.91876915  0.92083445  1
  Te2-  Te214  1  0.08170856  0.08296012  0.08071256  1
  Te2-  Te215  1  0.08335372  0.07618457  0.40818755  1
  Te2-  Te216  1  0.07806383  0.07904909  0.74938539  1
  Te2-  Te217  1  0.08145040  0.41283770  0.07758239  1
  Te2-  Te218  1  0.07736211  0.41444140  0.41177085  1
  Te2-  Te219  1  0.08483376  0.41035948  0.74444513  1
  Te2-  Te220  1  0.08077779  0.74802291  0.08205551  1
  Te2-  Te221  1  0.07677499  0.74809502  0.41456653  1
  Te2-  Te222  1  0.07901761  0.75096604  0.74949913  1
  Te2-  Te223  1  0.41460859  0.07801786  0.08209400  1
  Te2-  Te224  1  0.41592022  0.08259978  0.41279927  1
  Te2-  Te225  1  0.41833302  0.07773959  0.74334959  1
  Te2-  Te226  1  0.41560610  0.41278165  0.08390434  1
  Te2-  Te227  1  0.41408740  0.41545932  0.41712277  1
  Te2-  Te228  1  0.41639820  0.41652091  0.74649386  1
  Te2-  Te229  1  0.41316879  0.74853176  0.08401328  1
  Te2-  Te230  1  0.41008339  0.74121077  0.41820191  1
  Te2-  Te231  1  0.40874805  0.74893497  0.74670783  1
  Te2-  Te232  1  0.74558827  0.08144412  0.08414648  1
  Te2-  Te233  1  0.74415507  0.07680605  0.41586744  1
  Te2-  Te234  1  0.74718648  0.07344484  0.74680765  1
  Te2-  Te235  1  0.74498271  0.41237796  0.07514429  1
  Te2-  Te236  1  0.74451298  0.41399783  0.41893791  1
  Te2-  Te237  1  0.74331095  0.41619989  0.74552797  1
  Te2-  Te238  1  0.75199096  0.75244801  0.07514281  1
  Te2-  Te239  1  0.74863312  0.74495319  0.40883034  1
  Te2-  Te240  1  0.74729297  0.74987483  0.74713630  1
