# generated using pymatgen
data_Ti27(Cu53Te54)2
_symmetry_space_group_name_H-M   'P 1'
_cell_length_a   17.87271775
_cell_length_b   17.87285302
_cell_length_c   17.87027254
_cell_angle_alpha   89.98685603
_cell_angle_beta   89.98887771
_cell_angle_gamma   89.96833633
_symmetry_Int_Tables_number   1
_chemical_formula_structural   Ti27(Cu53Te54)2
_chemical_formula_sum   'Ti27 Cu106 Te108'
_cell_volume   5708.41542173
_cell_formula_units_Z   1
loop_
 _symmetry_equiv_pos_site_id
 _symmetry_equiv_pos_as_xyz
  1  'x, y, z'
loop_
 _atom_type_symbol
 _atom_type_oxidation_number
  Ti4+  4.0
  Cu+  1.0
  Te2-  -2.0
loop_
 _atom_site_type_symbol
 _atom_site_label
 _atom_site_symmetry_multiplicity
 _atom_site_fract_x
 _atom_site_fract_y
 _atom_site_fract_z
 _atom_site_occupancy
  Ti4+  Ti0  1  0.16720508  0.16561969  0.16420803  1
  Ti4+  Ti1  1  0.16448233  0.16677219  0.50049071  1
  Ti4+  Ti2  1  0.16871282  0.16761996  0.83266248  1
  Ti4+  Ti3  1  0.16719505  0.49785622  0.16620780  1
  Ti4+  Ti4  1  0.16692932  0.49838714  0.50230614  1
  Ti4+  Ti5  1  0.16476800  0.50291073  0.83056569  1
  Ti4+  Ti6  1  0.16850050  0.83299901  0.16686506  1
  Ti4+  Ti7  1  0.16460634  0.83476503  0.50074248  1
  Ti4+  Ti8  1  0.16905845  0.83230009  0.83157337  1
  Ti4+  Ti9  1  0.50045234  0.17020333  0.16879453  1
  Ti4+  Ti10  1  0.49933187  0.16347778  0.49945509  1
  Ti4+  Ti11  1  0.50040218  0.16603482  0.83557058  1
  Ti4+  Ti12  1  0.49774663  0.49940872  0.16803992  1
  Ti4+  Ti13  1  0.49529147  0.50129897  0.50212810  1
  Ti4+  Ti14  1  0.50185486  0.50042447  0.83232344  1
  Ti4+  Ti15  1  0.49962055  0.83386262  0.16794832  1
  Ti4+  Ti16  1  0.50159879  0.83143338  0.50120227  1
  Ti4+  Ti17  1  0.50005666  0.83366930  0.83514105  1
  Ti4+  Ti18  1  0.83375312  0.16982818  0.16260074  1
  Ti4+  Ti19  1  0.83405104  0.16773388  0.49671777  1
  Ti4+  Ti20  1  0.83205064  0.16103971  0.83147739  1
  Ti4+  Ti21  1  0.83466635  0.50109298  0.16733704  1
  Ti4+  Ti22  1  0.83100059  0.49630893  0.49987200  1
  Ti4+  Ti23  1  0.83653868  0.49925507  0.83248817  1
  Ti4+  Ti24  1  0.83404772  0.83460898  0.16724982  1
  Ti4+  Ti25  1  0.83484209  0.83122237  0.50012722  1
  Ti4+  Ti26  1  0.83503724  0.83658193  0.83451649  1
  Cu+  Cu27  1  0.16572992  0.16676074  -0.00220819  1
  Cu+  Cu28  1  0.16561565  0.16724628  0.33365369  1
  Cu+  Cu29  1  0.16909143  0.17060705  0.66367849  1
  Cu+  Cu30  1  0.16668403  0.50050280  -0.00072896  1
  Cu+  Cu31  1  0.16896662  0.50238497  0.33034075  1
  Cu+  Cu32  1  0.16885472  0.49556520  0.66696513  1
  Cu+  Cu33  1  0.17191407  0.83177460  -0.00077567  1
  Cu+  Cu34  1  0.16497002  0.83163567  0.33438101  1
  Cu+  Cu35  1  0.16408909  0.83715135  0.66921504  1
  Cu+  Cu36  1  0.49831182  0.17347771  0.00429122  1
  Cu+  Cu37  1  0.49851442  0.16156605  0.33238409  1
  Cu+  Cu38  1  0.50331110  0.16381235  0.66988396  1
  Cu+  Cu39  1  0.50313878  0.50000546  -0.00086010  1
  Cu+  Cu40  1  0.49254840  0.49513129  0.33486550  1
  Cu+  Cu41  1  0.49755796  0.50754514  0.66876144  1
  Cu+  Cu42  1  0.50062224  0.83372290  0.00211485  1
  Cu+  Cu43  1  0.49907424  0.83444483  0.33659555  1
  Cu+  Cu44  1  0.50037805  0.83195472  0.66596792  1
  Cu+  Cu45  1  0.83655177  0.16119206  -0.00249813  1
  Cu+  Cu46  1  0.83307527  0.17065393  0.33041713  1
  Cu+  Cu47  1  0.82616973  0.16293983  0.66053515  1
  Cu+  Cu48  1  0.83939042  0.50091122  0.00044011  1
  Cu+  Cu49  1  0.83082744  0.49261967  0.33437828  1
  Cu+  Cu50  1  0.83423399  0.50012990  0.66599888  1
  Cu+  Cu51  1  0.83206114  0.83532305  0.00301461  1
  Cu+  Cu52  1  0.83237153  0.83287706  0.33327056  1
  Cu+  Cu53  1  0.83981872  0.83630513  0.66644193  1
  Cu+  Cu54  1  0.16715319  -0.00117902  0.16561387  1
  Cu+  Cu55  1  0.16590499  0.00357305  0.49892003  1
  Cu+  Cu56  1  0.17035665  -0.00098501  0.83260448  1
  Cu+  Cu57  1  0.16514424  0.33019714  0.16525095  1
  Cu+  Cu58  1  0.16420770  0.33096697  0.50714120  1
  Cu+  Cu59  1  0.16645493  0.33772497  0.82706238  1
  Cu+  Cu60  1  0.16964122  0.66355137  0.16798456  1
  Cu+  Cu61  1  0.16575799  0.66908426  0.50067529  1
  Cu+  Cu62  1  0.16142607  0.67162283  0.83616107  1
  Cu+  Cu63  1  0.50128106  0.00234676  0.17134775  1
  Cu+  Cu64  1  0.49865755  -0.00637821  0.49626249  1
  Cu+  Cu65  1  0.50153587  0.00039434  0.83390385  1
  Cu+  Cu66  1  0.49236698  0.33498637  0.16773353  1
  Cu+  Cu67  1  0.49798378  0.33250216  0.49917333  1
  Cu+  Cu68  1  0.50306302  0.33284781  0.83546930  1
  Cu+  Cu69  1  0.50154994  0.66812163  0.16756662  1
  Cu+  Cu70  1  0.50338131  0.66579982  0.50357117  1
  Cu+  Cu71  1  0.49998751  0.66762559  0.83180179  1
  Cu+  Cu72  1  0.83499076  0.00050449  0.16360947  1
  Cu+  Cu73  1  0.83371036  -0.00047621  0.49981108  1
  Cu+  Cu74  1  0.82856388  0.00137643  0.83798338  1
  Cu+  Cu75  1  0.83314263  0.33925456  0.16471171  1
  Cu+  Cu76  1  0.83488339  0.33369258  0.49112336  1
  Cu+  Cu77  1  0.83479521  0.32654440  0.83358134  1
  Cu+  Cu78  1  0.83226164  0.66926849  0.16867208  1
  Cu+  Cu79  1  0.83368820  0.66332654  0.50165333  1
  Cu+  Cu80  1  0.83709826  0.66812704  0.83274031  1
  Cu+  Cu81  1  0.00049052  0.16425013  0.16052532  1
  Cu+  Cu82  1  0.00026790  0.16774236  0.49638135  1
  Cu+  Cu83  1  0.00064434  0.16791294  0.83157129  1
  Cu+  Cu84  1  0.00172086  0.49808246  0.16141160  1
  Cu+  Cu85  1  -0.00040655  0.49351063  0.50260753  1
  Cu+  Cu86  1  -0.00320129  0.50673229  0.83632169  1
  Cu+  Cu87  1  0.00108546  0.83336845  0.16741918  1
  Cu+  Cu88  1  -0.00193880  0.83483696  0.50375809  1
  Cu+  Cu89  1  0.00535372  0.83318892  0.82993805  1
  Cu+  Cu90  1  0.33434802  0.17024070  0.16675859  1
  Cu+  Cu91  1  0.33126876  0.16631176  0.49968800  1
  Cu+  Cu92  1  0.33608885  0.16702226  0.83412767  1
  Cu+  Cu93  1  0.33220240  0.49738810  0.17264240  1
  Cu+  Cu94  1  0.32940535  0.50423162  0.50286756  1
  Cu+  Cu95  1  0.33652922  0.50271790  0.82699241  1
  Cu+  Cu96  1  0.33405398  0.83054854  0.16610453  1
  Cu+  Cu97  1  0.33435322  0.83315705  0.49918282  1
  Cu+  Cu98  1  0.33168600  0.83610882  0.83669465  1
  Cu+  Cu99  1  0.66495977  0.17282957  0.16521777  1
  Cu+  Cu100  1  0.66798990  0.16502527  0.49923609  1
  Cu+  Cu101  1  0.66362057  0.15591216  0.83215478  1
  Cu+  Cu102  1  0.66731312  0.50038727  0.17084190  1
  Cu+  Cu103  1  0.65973231  0.50166294  0.50122439  1
  Cu+  Cu104  1  0.67167834  0.49702323  0.83206397  1
  Cu+  Cu105  1  0.66675046  0.83563101  0.16842733  1
  Cu+  Cu106  1  0.66825868  0.82810256  0.49953614  1
  Cu+  Cu107  1  0.66775008  0.83291299  0.83416152  1
  Cu+  Cu108  1  0.92003224  0.59944513  0.93132838  1
  Cu+  Cu109  1  0.58865534  0.06766185  0.73806054  1
  Cu+  Cu110  1  0.06874051  0.40346251  0.59751519  1
  Cu+  Cu111  1  0.40307365  0.92114993  0.40803768  1
  Cu+  Cu112  1  0.92988539  0.06789153  0.07300764  1
  Cu+  Cu113  1  0.73781975  0.06825452  0.58319485  1
  Cu+  Cu114  1  0.07497532  0.74864353  0.93108025  1
  Cu+  Cu115  1  0.73387485  0.07453786  0.93248591  1
  Cu+  Cu116  1  0.40010763  0.40457148  0.26622071  1
  Cu+  Cu117  1  0.92792091  0.25351248  0.92276435  1
  Cu+  Cu118  1  0.92921874  0.40904384  0.07105677  1
  Cu+  Cu119  1  0.26638950  0.40666557  0.74418828  1
  Cu+  Cu120  1  0.40318833  0.07258533  0.25340455  1
  Cu+  Cu121  1  0.73583865  0.40770469  0.26069106  1
  Cu+  Cu122  1  0.59452508  0.59264543  0.59761068  1
  Cu+  Cu123  1  0.26290743  0.59622897  0.25789679  1
  Cu+  Cu124  1  0.92772719  0.59100637  0.58956297  1
  Cu+  Cu125  1  0.40581561  0.60104364  0.74319185  1
  Cu+  Cu126  1  0.26572454  0.25533898  0.59122689  1
  Cu+  Cu127  1  0.26041354  0.92871112  0.92863176  1
  Cu+  Cu128  1  0.07691143  0.93155638  0.74362120  1
  Cu+  Cu129  1  0.25345824  0.59953326  0.59342911  1
  Cu+  Cu130  1  0.93241348  0.40827547  0.40381502  1
  Cu+  Cu131  1  0.40372062  0.26443437  0.07157695  1
  Cu+  Cu132  1  0.92610607  0.93166280  0.59050139  1
  Te2-  Te133  1  0.25163625  0.25332534  0.07769124  1
  Te2-  Te134  1  0.24927682  0.25395046  0.41531117  1
  Te2-  Te135  1  0.25727315  0.25369812  0.74679070  1
  Te2-  Te136  1  0.25479693  0.58210297  0.08089534  1
  Te2-  Te137  1  0.25071105  0.58811425  0.41421570  1
  Te2-  Te138  1  0.24977885  0.59378422  0.74621751  1
  Te2-  Te139  1  0.25553314  0.91966666  0.08159616  1
  Te2-  Te140  1  0.24942604  0.91976205  0.41387129  1
  Te2-  Te141  1  0.25584261  0.91985347  0.74502092  1
  Te2-  Te142  1  0.58443416  0.25935641  0.08305099  1
  Te2-  Te143  1  0.58328522  0.24870933  0.41498021  1
  Te2-  Te144  1  0.58805881  0.25091441  0.75062131  1
  Te2-  Te145  1  0.58583356  0.58419313  0.08437926  1
  Te2-  Te146  1  0.57981367  0.58286089  0.41126976  1
  Te2-  Te147  1  0.59192181  0.58772108  0.75017335  1
  Te2-  Te148  1  0.58407691  0.92080712  0.08392137  1
  Te2-  Te149  1  0.59015958  0.91579415  0.41520590  1
  Te2-  Te150  1  0.58705915  0.91660690  0.74712509  1
  Te2-  Te151  1  0.92132070  0.25623410  0.07642385  1
  Te2-  Te152  1  0.92234805  0.25249774  0.40869023  1
  Te2-  Te153  1  0.91507236  0.24588854  0.74244166  1
  Te2-  Te154  1  0.92140356  0.59146770  0.08356757  1
  Te2-  Te155  1  0.91872527  0.58008250  0.41421521  1
  Te2-  Te156  1  0.92015571  0.58820246  0.74429120  1
  Te2-  Te157  1  0.92295225  0.91801191  0.07902444  1
  Te2-  Te158  1  0.91826515  0.91846479  0.41399629  1
  Te2-  Te159  1  0.92181301  0.92556306  0.74931920  1
  Te2-  Te160  1  0.25135130  0.08124124  0.25246272  1
  Te2-  Te161  1  0.25177432  0.08004152  0.58589038  1
  Te2-  Te162  1  0.25452050  0.08241342  0.91936687  1
  Te2-  Te163  1  0.24885530  0.40739546  0.25484768  1
  Te2-  Te164  1  0.25814482  0.40997062  0.58798811  1
  Te2-  Te165  1  0.25282304  0.41858928  0.91440912  1
  Te2-  Te166  1  0.25354058  0.74812175  0.25513040  1
  Te2-  Te167  1  0.25190177  0.75233623  0.58781447  1
  Te2-  Te168  1  0.25568975  0.74407495  0.91850237  1
  Te2-  Te169  1  0.59020611  0.08396473  0.25174352  1
  Te2-  Te170  1  0.58541489  0.07476588  0.58398755  1
  Te2-  Te171  1  0.58120704  0.07962571  0.92817804  1
  Te2-  Te172  1  0.58289964  0.41222345  0.25404221  1
  Te2-  Te173  1  0.57998420  0.41512274  0.58759556  1
  Te2-  Te174  1  0.58833991  0.41549087  0.91811096  1
  Te2-  Te175  1  0.58486580  0.75000683  0.25404387  1
  Te2-  Te176  1  0.58921807  0.74660146  0.58972906  1
  Te2-  Te177  1  0.58525338  0.74780215  0.91896820  1
  Te2-  Te178  1  0.91735579  0.08424204  0.24978254  1
  Te2-  Te179  1  0.92193245  0.08331774  0.58511028  1
  Te2-  Te180  1  0.92548971  0.07640983  0.91717985  1
  Te2-  Te181  1  0.92426161  0.41330389  0.25175557  1
  Te2-  Te182  1  0.91522145  0.40767610  0.58818790  1
  Te2-  Te183  1  0.92318280  0.40932823  0.91781657  1
  Te2-  Te184  1  0.91966335  0.74867107  0.25284590  1
  Te2-  Te185  1  0.92094416  0.74426842  0.58741774  1
  Te2-  Te186  1  0.92164951  0.75104137  0.92208085  1
  Te2-  Te187  1  0.07950346  0.24898113  0.24907884  1
  Te2-  Te188  1  0.07372874  0.25071906  0.58910660  1
  Te2-  Te189  1  0.08399715  0.25595552  0.91626993  1
  Te2-  Te190  1  0.07895955  0.58329482  0.25007873  1
  Te2-  Te191  1  0.08040798  0.58565251  0.58722970  1
  Te2-  Te192  1  0.07960901  0.58803276  0.92331928  1
  Te2-  Te193  1  0.08281260  0.91834885  0.25201475  1
  Te2-  Te194  1  0.07964978  0.92490342  0.58702332  1
  Te2-  Te195  1  0.08301821  0.91911221  0.92006029  1
  Te2-  Te196  1  0.41151413  0.25333824  0.25938498  1
  Te2-  Te197  1  0.41764340  0.24962108  0.58831703  1
  Te2-  Te198  1  0.41283792  0.25576326  0.91828844  1
  Te2-  Te199  1  0.41464549  0.58902722  0.25439855  1
  Te2-  Te200  1  0.40831728  0.59252022  0.58818798  1
  Te2-  Te201  1  0.41542829  0.58474971  0.91834989  1
  Te2-  Te202  1  0.40986645  0.91988716  0.25475940  1
  Te2-  Te203  1  0.41450313  0.91766962  0.58721852  1
  Te2-  Te204  1  0.41588375  0.92136082  0.92155811  1
  Te2-  Te205  1  0.74793319  0.25532899  0.25002471  1
  Te2-  Te206  1  0.74843872  0.25591368  0.58022898  1
  Te2-  Te207  1  0.74499583  0.24516989  0.91692513  1
  Te2-  Te208  1  0.75012318  0.58588665  0.25533587  1
  Te2-  Te209  1  0.74578796  0.58406432  0.58649670  1
  Te2-  Te210  1  0.75150295  0.58476053  0.91822193  1
  Te2-  Te211  1  0.74971274  0.92147085  0.25195683  1
  Te2-  Te212  1  0.74617619  0.91561042  0.58636843  1
  Te2-  Te213  1  0.74493280  0.91801232  0.92208213  1
  Te2-  Te214  1  0.08331948  0.07792301  0.07679217  1
  Te2-  Te215  1  0.08005702  0.08116133  0.41265779  1
  Te2-  Te216  1  0.08324704  0.08393454  0.74616102  1
  Te2-  Te217  1  0.08341389  0.41091673  0.07670896  1
  Te2-  Te218  1  0.08517857  0.41253751  0.41223736  1
  Te2-  Te219  1  0.07375257  0.41724053  0.74878151  1
  Te2-  Te220  1  0.08318678  0.74582726  0.08286705  1
  Te2-  Te221  1  0.07856212  0.74909744  0.41710449  1
  Te2-  Te222  1  0.08073372  0.74556555  0.74288246  1
  Te2-  Te223  1  0.41582473  0.08179486  0.08311510  1
  Te2-  Te224  1  0.40959342  0.07837646  0.41368525  1
  Te2-  Te225  1  0.41422345  0.08031672  0.74885120  1
  Te2-  Te226  1  0.41069429  0.41807138  0.07740228  1
  Te2-  Te227  1  0.40676855  0.41250581  0.41949613  1
  Te2-  Te228  1  0.41886960  0.41064543  0.74497198  1
  Te2-  Te229  1  0.41607325  0.74703067  0.08166443  1
  Te2-  Te230  1  0.41573713  0.74438627  0.41637913  1
  Te2-  Te231  1  0.41152308  0.75143134  0.74786583  1
  Te2-  Te232  1  0.74408528  0.08210580  0.08263670  1
  Te2-  Te233  1  0.74999275  0.08075598  0.41085880  1
  Te2-  Te234  1  0.74489735  0.07324335  0.74174777  1
  Te2-  Te235  1  0.74739094  0.41958759  0.07839337  1
  Te2-  Te236  1  0.73821096  0.41291773  0.41626280  1
  Te2-  Te237  1  0.75262919  0.41140145  0.74804272  1
  Te2-  Te238  1  0.74684771  0.74907065  0.08278920  1
  Te2-  Te239  1  0.75050368  0.74434367  0.41469368  1
  Te2-  Te240  1  0.75254437  0.75115804  0.74858083  1
