# generated using pymatgen
data_Ti27(Cu53Te54)2
_symmetry_space_group_name_H-M   'P 1'
_cell_length_a   17.90073311
_cell_length_b   17.90360536
_cell_length_c   17.90616534
_cell_angle_alpha   89.99408303
_cell_angle_beta   89.95980668
_cell_angle_gamma   89.96116344
_symmetry_Int_Tables_number   1
_chemical_formula_structural   Ti27(Cu53Te54)2
_chemical_formula_sum   'Ti27 Cu106 Te108'
_cell_volume   5738.70229069
_cell_formula_units_Z   1
loop_
 _symmetry_equiv_pos_site_id
 _symmetry_equiv_pos_as_xyz
  1  'x, y, z'
loop_
 _atom_type_symbol
 _atom_type_oxidation_number
  Ti4+  4.0
  Cu+  1.0
  Te2-  -2.0
loop_
 _atom_site_type_symbol
 _atom_site_label
 _atom_site_symmetry_multiplicity
 _atom_site_fract_x
 _atom_site_fract_y
 _atom_site_fract_z
 _atom_site_occupancy
  Ti4+  Ti0  1  0.16201555  0.16387844  0.16711797  1
  Ti4+  Ti1  1  0.16945291  0.16902103  0.49939811  1
  Ti4+  Ti2  1  0.16818261  0.16526568  0.83551241  1
  Ti4+  Ti3  1  0.16271521  0.49999168  0.16697364  1
  Ti4+  Ti4  1  0.16552033  0.50077844  0.49906680  1
  Ti4+  Ti5  1  0.16652089  0.50012154  0.83432829  1
  Ti4+  Ti6  1  0.16887711  0.83318912  0.16688929  1
  Ti4+  Ti7  1  0.16762052  0.83527164  0.49908678  1
  Ti4+  Ti8  1  0.16809121  0.83402637  0.82897916  1
  Ti4+  Ti9  1  0.49881004  0.16780667  0.16733439  1
  Ti4+  Ti10  1  0.50141103  0.16491892  0.50123414  1
  Ti4+  Ti11  1  0.49768813  0.16581629  0.83229297  1
  Ti4+  Ti12  1  0.50192292  0.49112132  0.16711793  1
  Ti4+  Ti13  1  0.50056957  0.50132106  0.49783519  1
  Ti4+  Ti14  1  0.49660930  0.50078395  0.83461121  1
  Ti4+  Ti15  1  0.49880114  0.83165985  0.16473618  1
  Ti4+  Ti16  1  0.50417952  0.83055130  0.49944114  1
  Ti4+  Ti17  1  0.50069252  0.83377558  0.83314368  1
  Ti4+  Ti18  1  0.83453025  0.16789572  0.16700133  1
  Ti4+  Ti19  1  0.83560452  0.16548870  0.50182338  1
  Ti4+  Ti20  1  0.83258225  0.16740128  0.83447881  1
  Ti4+  Ti21  1  0.82917757  0.50266812  0.16693267  1
  Ti4+  Ti22  1  0.83136459  0.50081770  0.50350162  1
  Ti4+  Ti23  1  0.83187770  0.50096447  0.83555147  1
  Ti4+  Ti24  1  0.83318766  0.83794721  0.16344809  1
  Ti4+  Ti25  1  0.83412979  0.83484587  0.49884308  1
  Ti4+  Ti26  1  0.83570662  0.83312252  0.83198240  1
  Cu+  Cu27  1  0.16341323  0.16296065  0.00553566  1
  Cu+  Cu28  1  0.16756233  0.17051367  0.33040407  1
  Cu+  Cu29  1  0.16996700  0.16503573  0.66718795  1
  Cu+  Cu30  1  0.16494695  0.49837491  0.00032948  1
  Cu+  Cu31  1  0.16168577  0.50139712  0.33319230  1
  Cu+  Cu32  1  0.16545549  0.49952208  0.66786168  1
  Cu+  Cu33  1  0.16842669  0.83713206  -0.00243464  1
  Cu+  Cu34  1  0.17102117  0.83132919  0.33631950  1
  Cu+  Cu35  1  0.16333098  0.83265867  0.66165210  1
  Cu+  Cu36  1  0.49534680  0.16537872  -0.00416517  1
  Cu+  Cu37  1  0.49796183  0.16927270  0.33749140  1
  Cu+  Cu38  1  0.49959508  0.16653797  0.66649806  1
  Cu+  Cu39  1  0.49619256  0.49736226  0.00376678  1
  Cu+  Cu40  1  0.50515195  0.49779775  0.32912383  1
  Cu+  Cu41  1  0.49800124  0.50026551  0.66715286  1
  Cu+  Cu42  1  0.49612871  0.82979241  -0.00150631  1
  Cu+  Cu43  1  0.50081726  0.82909570  0.33178466  1
  Cu+  Cu44  1  0.50499396  0.83533697  0.66654615  1
  Cu+  Cu45  1  0.83209232  0.16815162  0.00167696  1
  Cu+  Cu46  1  0.83842602  0.16521765  0.33857461  1
  Cu+  Cu47  1  0.83571741  0.16532153  0.66968245  1
  Cu+  Cu48  1  0.83590041  0.50695966  -0.00167524  1
  Cu+  Cu49  1  0.82725151  0.50063967  0.33792190  1
  Cu+  Cu50  1  0.83215312  0.49877988  0.67220932  1
  Cu+  Cu51  1  0.83250959  0.83154183  -0.00553655  1
  Cu+  Cu52  1  0.83189877  0.84224988  0.32863987  1
  Cu+  Cu53  1  0.83813711  0.83255025  0.66456977  1
  Cu+  Cu54  1  0.16790995  -0.00038253  0.16483024  1
  Cu+  Cu55  1  0.16995788  0.00312098  0.49701249  1
  Cu+  Cu56  1  0.17356671  -0.00069855  0.83070755  1
  Cu+  Cu57  1  0.15919611  0.33302850  0.16756144  1
  Cu+  Cu58  1  0.16627697  0.33590935  0.49989143  1
  Cu+  Cu59  1  0.16572292  0.33484374  0.83658619  1
  Cu+  Cu60  1  0.16479518  0.66735652  0.16713611  1
  Cu+  Cu61  1  0.16648726  0.66850318  0.49805437  1
  Cu+  Cu62  1  0.16610549  0.66501318  0.82948517  1
  Cu+  Cu63  1  0.49891897  -0.00045289  0.16701776  1
  Cu+  Cu64  1  0.50608275  -0.00290907  0.50233325  1
  Cu+  Cu65  1  0.50085358  0.00137033  0.83102146  1
  Cu+  Cu66  1  0.50579557  0.32662358  0.17077406  1
  Cu+  Cu67  1  0.49963537  0.33469056  0.49662658  1
  Cu+  Cu68  1  0.49581649  0.33287626  0.83278502  1
  Cu+  Cu69  1  0.49848086  0.65884920  0.16018037  1
  Cu+  Cu70  1  0.50484432  0.66311319  0.50262543  1
  Cu+  Cu71  1  0.49484192  0.66927424  0.83599257  1
  Cu+  Cu72  1  0.84165001  0.00132720  0.16765759  1
  Cu+  Cu73  1  0.83682210  -0.00171252  0.49909763  1
  Cu+  Cu74  1  0.83302407  0.00077233  0.83064829  1
  Cu+  Cu75  1  0.82575252  0.33563403  0.16531303  1
  Cu+  Cu76  1  0.83486258  0.33127262  0.50413621  1
  Cu+  Cu77  1  0.83301410  0.33444452  0.83506313  1
  Cu+  Cu78  1  0.82963100  0.67527220  0.16800903  1
  Cu+  Cu79  1  0.82650756  0.66594199  0.49927989  1
  Cu+  Cu80  1  0.83553815  0.66580322  0.83913577  1
  Cu+  Cu81  1  -0.00160079  0.16528517  0.15829919  1
  Cu+  Cu82  1  0.00380374  0.16674174  0.50157265  1
  Cu+  Cu83  1  0.00039737  0.16680641  0.83579299  1
  Cu+  Cu84  1  -0.00486842  0.50192512  0.16733894  1
  Cu+  Cu85  1  -0.00267759  0.50040114  0.50081077  1
  Cu+  Cu86  1  -0.00031079  0.50163389  0.83681507  1
  Cu+  Cu87  1  0.00222949  0.83981220  0.16466116  1
  Cu+  Cu88  1  0.00256340  0.83499081  0.50602137  1
  Cu+  Cu89  1  0.00301435  0.83404099  0.82765768  1
  Cu+  Cu90  1  0.32806533  0.16654176  0.17026852  1
  Cu+  Cu91  1  0.33835002  0.16877036  0.49568054  1
  Cu+  Cu92  1  0.33215596  0.16205025  0.82966115  1
  Cu+  Cu93  1  0.33257938  0.49211794  0.16301059  1
  Cu+  Cu94  1  0.33209052  0.50070316  0.49787562  1
  Cu+  Cu95  1  0.33044013  0.49972440  0.83419569  1
  Cu+  Cu96  1  0.33537857  0.83122222  0.16886429  1
  Cu+  Cu97  1  0.33473625  0.82966882  0.49528116  1
  Cu+  Cu98  1  0.33311068  0.83664335  0.83398311  1
  Cu+  Cu99  1  0.66780458  0.17133879  0.16565123  1
  Cu+  Cu100  1  0.67087036  0.16238928  0.50326508  1
  Cu+  Cu101  1  0.66377780  0.16711130  0.83370691  1
  Cu+  Cu102  1  0.66819347  0.49230227  0.17463383  1
  Cu+  Cu103  1  0.66514359  0.50530230  0.50030998  1
  Cu+  Cu104  1  0.66309605  0.49976107  0.83409596  1
  Cu+  Cu105  1  0.66440690  0.83474627  0.16339274  1
  Cu+  Cu106  1  0.66903699  0.83679482  0.50122145  1
  Cu+  Cu107  1  0.66981537  0.82997500  0.83301751  1
  Cu+  Cu108  1  0.59353120  0.93025536  0.59790588  1
  Cu+  Cu109  1  0.59835832  0.24580552  0.26845792  1
  Cu+  Cu110  1  0.73905006  0.75355682  0.25743305  1
  Cu+  Cu111  1  0.74336358  0.74483166  0.59484966  1
  Cu+  Cu112  1  0.74785912  0.40308922  0.26842894  1
  Cu+  Cu113  1  0.93029168  0.92938836  0.59487918  1
  Cu+  Cu114  1  0.74006830  0.73907871  0.92535319  1
  Cu+  Cu115  1  0.07369555  0.26378978  0.07234835  1
  Cu+  Cu116  1  0.93427695  0.92833850  0.25872404  1
  Cu+  Cu117  1  0.73917785  0.59330798  0.40903903  1
  Cu+  Cu118  1  0.73713532  0.26194716  0.06874839  1
  Cu+  Cu119  1  0.40695443  0.26516608  0.41058795  1
  Cu+  Cu120  1  0.26089934  0.92636162  0.92632564  1
  Cu+  Cu121  1  0.58867907  0.59274928  0.25038429  1
  Cu+  Cu122  1  0.40111437  0.74105056  0.92223200  1
  Cu+  Cu123  1  0.26098101  0.07236868  0.73432729  1
  Cu+  Cu124  1  0.92148750  0.07255385  0.06732570  1
  Cu+  Cu125  1  0.93249252  0.59501719  0.92813843  1
  Cu+  Cu126  1  0.25280635  0.26303919  0.25395826  1
  Cu+  Cu127  1  0.26240575  0.07421178  0.08005886  1
  Cu+  Cu128  1  0.73980828  0.93058475  0.40469097  1
  Cu+  Cu129  1  0.26255970  0.73751199  0.40799120  1
  Cu+  Cu130  1  0.40250022  0.58423725  0.07736313  1
  Cu+  Cu131  1  0.07695370  0.73529837  0.59143926  1
  Cu+  Cu132  1  0.59044635  0.58629635  0.60043307  1
  Te2-  Te133  1  0.24909640  0.25339497  0.08219853  1
  Te2-  Te134  1  0.25396007  0.25788789  0.41180892  1
  Te2-  Te135  1  0.25082149  0.25340276  0.75068140  1
  Te2-  Te136  1  0.24977394  0.58446151  0.08138352  1
  Te2-  Te137  1  0.25170648  0.58552628  0.41123232  1
  Te2-  Te138  1  0.25200936  0.58416057  0.74697766  1
  Te2-  Te139  1  0.25798273  0.91915083  0.08075101  1
  Te2-  Te140  1  0.25514061  0.92058380  0.41399127  1
  Te2-  Te141  1  0.25465695  0.91689521  0.73946144  1
  Te2-  Te142  1  0.58372277  0.25083271  0.07517773  1
  Te2-  Te143  1  0.59192483  0.25161569  0.41896684  1
  Te2-  Te144  1  0.58268208  0.25261790  0.74841912  1
  Te2-  Te145  1  0.59032920  0.57672308  0.08222424  1
  Te2-  Te146  1  0.58715843  0.58906094  0.40772152  1
  Te2-  Te147  1  0.58290727  0.58861360  0.75176965  1
  Te2-  Te148  1  0.58141996  0.91762299  0.07894178  1
  Te2-  Te149  1  0.58668555  0.91786559  0.40947313  1
  Te2-  Te150  1  0.59008486  0.91969223  0.74993596  1
  Te2-  Te151  1  0.91702987  0.25862700  0.07995841  1
  Te2-  Te152  1  0.92133060  0.25267242  0.41831159  1
  Te2-  Te153  1  0.91941149  0.25254244  0.75075979  1
  Te2-  Te154  1  0.91628092  0.59173463  0.08459621  1
  Te2-  Te155  1  0.91587866  0.58563586  0.41590935  1
  Te2-  Te156  1  0.91844137  0.58563875  0.74943534  1
  Te2-  Te157  1  0.92050804  0.91904940  0.07328275  1
  Te2-  Te158  1  0.92456772  0.91934621  0.41310579  1
  Te2-  Te159  1  0.92120757  0.92103746  0.74629651  1
  Te2-  Te160  1  0.24999820  0.07793357  0.25453604  1
  Te2-  Te161  1  0.25739597  0.08224575  0.58168668  1
  Te2-  Te162  1  0.25625079  0.07963818  0.92447932  1
  Te2-  Te163  1  0.24862026  0.41497498  0.25298051  1
  Te2-  Te164  1  0.25166566  0.41678445  0.58460897  1
  Te2-  Te165  1  0.25145337  0.41462037  0.92085419  1
  Te2-  Te166  1  0.25378011  0.74520613  0.25217109  1
  Te2-  Te167  1  0.25383002  0.74798185  0.58493604  1
  Te2-  Te168  1  0.25020994  0.74579116  0.91727445  1
  Te2-  Te169  1  0.58455823  0.08294165  0.25219276  1
  Te2-  Te170  1  0.58863797  0.08076745  0.58936646  1
  Te2-  Te171  1  0.58391352  0.08113450  0.91838192  1
  Te2-  Te172  1  0.59040145  0.40342206  0.25874286  1
  Te2-  Te173  1  0.58449751  0.41545043  0.58425766  1
  Te2-  Te174  1  0.58104242  0.41414165  0.91872119  1
  Te2-  Te175  1  0.58577648  0.74432242  0.25031258  1
  Te2-  Te176  1  0.59016537  0.74414052  0.58936379  1
  Te2-  Te177  1  0.58631969  0.74641276  0.91997424  1
  Te2-  Te178  1  0.92377126  0.08346000  0.25519952  1
  Te2-  Te179  1  0.92256348  0.08153985  0.58763074  1
  Te2-  Te180  1  0.91894568  0.07973043  0.91814370  1
  Te2-  Te181  1  0.91322718  0.41681814  0.25285570  1
  Te2-  Te182  1  0.91702739  0.41620692  0.58821578  1
  Te2-  Te183  1  0.91784864  0.41501780  0.92088355  1
  Te2-  Te184  1  0.92024673  0.75370872  0.25027513  1
  Te2-  Te185  1  0.91926678  0.74260926  0.58329705  1
  Te2-  Te186  1  0.92614778  0.74967855  0.91848344  1
  Te2-  Te187  1  0.07375830  0.25007053  0.25203328  1
  Te2-  Te188  1  0.08525497  0.25180877  0.58645982  1
  Te2-  Te189  1  0.08095161  0.25176955  0.92123852  1
  Te2-  Te190  1  0.07781954  0.58663175  0.25137480  1
  Te2-  Te191  1  0.07964371  0.58472302  0.58614548  1
  Te2-  Te192  1  0.08257415  0.58892434  0.92172727  1
  Te2-  Te193  1  0.08624203  0.91994236  0.25489706  1
  Te2-  Te194  1  0.08368136  0.92693259  0.58570292  1
  Te2-  Te195  1  0.08249451  0.91984440  0.91398057  1
  Te2-  Te196  1  0.40990117  0.25469896  0.25460155  1
  Te2-  Te197  1  0.41640294  0.25345637  0.58493508  1
  Te2-  Te198  1  0.40993061  0.25051518  0.91600668  1
  Te2-  Te199  1  0.41338554  0.57905598  0.24990935  1
  Te2-  Te200  1  0.41311286  0.58517011  0.58335516  1
  Te2-  Te201  1  0.40868360  0.58598276  0.92274723  1
  Te2-  Te202  1  0.41641278  0.91642089  0.25287150  1
  Te2-  Te203  1  0.41585049  0.91454882  0.58250410  1
  Te2-  Te204  1  0.41577727  0.92281089  0.91940223  1
  Te2-  Te205  1  0.74987805  0.25146871  0.26039963  1
  Te2-  Te206  1  0.74988667  0.24932752  0.58824065  1
  Te2-  Te207  1  0.74502684  0.25352324  0.91842023  1
  Te2-  Te208  1  0.74359213  0.59282147  0.25508985  1
  Te2-  Te209  1  0.74489779  0.58721440  0.59421157  1
  Te2-  Te210  1  0.74167266  0.58675297  0.92092586  1
  Te2-  Te211  1  0.74252143  0.92618934  0.24677102  1
  Te2-  Te212  1  0.74904943  0.92217230  0.58940392  1
  Te2-  Te213  1  0.74877723  0.91970051  0.91569559  1
  Te2-  Te214  1  0.07678428  0.07269571  0.07873418  1
  Te2-  Te215  1  0.08438729  0.08435951  0.41324502  1
  Te2-  Te216  1  0.08222707  0.08154044  0.74986742  1
  Te2-  Te217  1  0.07521692  0.41649861  0.08034950  1
  Te2-  Te218  1  0.07855344  0.41556504  0.41531654  1
  Te2-  Te219  1  0.07997108  0.41525089  0.75062943  1
  Te2-  Te220  1  0.08317034  0.75207425  0.08090332  1
  Te2-  Te221  1  0.07844241  0.75041712  0.41429390  1
  Te2-  Te222  1  0.08093828  0.74594353  0.74454116  1
  Te2-  Te223  1  0.41380854  0.08183057  0.08236328  1
  Te2-  Te224  1  0.41843735  0.07637701  0.41620654  1
  Te2-  Te225  1  0.41424456  0.07756431  0.74327754  1
  Te2-  Te226  1  0.41637682  0.40418232  0.08279313  1
  Te2-  Te227  1  0.41397986  0.41710034  0.41031059  1
  Te2-  Te228  1  0.41295162  0.41668032  0.74815464  1
  Te2-  Te229  1  0.41051041  0.74318376  0.07969558  1
  Te2-  Te230  1  0.41907437  0.74243479  0.41397221  1
  Te2-  Te231  1  0.41471675  0.75113180  0.74572311  1
  Te2-  Te232  1  0.74861956  0.08013153  0.08451126  1
  Te2-  Te233  1  0.74893484  0.07988904  0.41378670  1
  Te2-  Te234  1  0.74688563  0.08278728  0.74888243  1
  Te2-  Te235  1  0.74597258  0.41859163  0.07537148  1
  Te2-  Te236  1  0.74469526  0.41037003  0.42092315  1
  Te2-  Te237  1  0.74563626  0.41454996  0.75112947  1
  Te2-  Te238  1  0.74531095  0.75002196  0.07745612  1
  Te2-  Te239  1  0.74477491  0.74930574  0.40979439  1
  Te2-  Te240  1  0.75070155  0.74465716  0.74701666  1
