# generated using pymatgen
data_Ti27(Cu53Te54)2
_symmetry_space_group_name_H-M   'P 1'
_cell_length_a   17.87026466
_cell_length_b   17.87155520
_cell_length_c   17.87244559
_cell_angle_alpha   89.99251609
_cell_angle_beta   89.95310354
_cell_angle_gamma   89.95127637
_symmetry_Int_Tables_number   1
_chemical_formula_structural   Ti27(Cu53Te54)2
_chemical_formula_sum   'Ti27 Cu106 Te108'
_cell_volume   5707.90858362
_cell_formula_units_Z   1
loop_
 _symmetry_equiv_pos_site_id
 _symmetry_equiv_pos_as_xyz
  1  'x, y, z'
loop_
 _atom_type_symbol
 _atom_type_oxidation_number
  Ti4+  4.0
  Cu+  1.0
  Te2-  -2.0
loop_
 _atom_site_type_symbol
 _atom_site_label
 _atom_site_symmetry_multiplicity
 _atom_site_fract_x
 _atom_site_fract_y
 _atom_site_fract_z
 _atom_site_occupancy
  Ti4+  Ti0  1  0.16628970  0.16471935  0.17059862  1
  Ti4+  Ti1  1  0.16835623  0.16555541  0.49824192  1
  Ti4+  Ti2  1  0.16872081  0.16811495  0.83448311  1
  Ti4+  Ti3  1  0.16512503  0.50044250  0.16637339  1
  Ti4+  Ti4  1  0.16789842  0.49985290  0.49699257  1
  Ti4+  Ti5  1  0.16452019  0.49713822  0.82882018  1
  Ti4+  Ti6  1  0.16263476  0.83397342  0.16459060  1
  Ti4+  Ti7  1  0.16716695  0.83149139  0.49907359  1
  Ti4+  Ti8  1  0.17068422  0.83606072  0.83431338  1
  Ti4+  Ti9  1  0.50022705  0.16721756  0.16883084  1
  Ti4+  Ti10  1  0.50218254  0.16796586  0.50243578  1
  Ti4+  Ti11  1  0.50190655  0.16700449  0.83015057  1
  Ti4+  Ti12  1  0.50029786  0.50108571  0.16592936  1
  Ti4+  Ti13  1  0.49936838  0.50053152  0.50070133  1
  Ti4+  Ti14  1  0.49821573  0.49894882  0.83539456  1
  Ti4+  Ti15  1  0.49873648  0.83348873  0.16655525  1
  Ti4+  Ti16  1  0.49894526  0.83444351  0.49863846  1
  Ti4+  Ti17  1  0.49669521  0.83542989  0.83313720  1
  Ti4+  Ti18  1  0.83244855  0.16479518  0.16877045  1
  Ti4+  Ti19  1  0.83500674  0.16886725  0.50044126  1
  Ti4+  Ti20  1  0.83565657  0.16620925  0.83488604  1
  Ti4+  Ti21  1  0.83458437  0.49855914  0.16363835  1
  Ti4+  Ti22  1  0.83243032  0.50076683  0.49788988  1
  Ti4+  Ti23  1  0.83306025  0.49877475  0.83677118  1
  Ti4+  Ti24  1  0.83334304  0.83178689  0.16395689  1
  Ti4+  Ti25  1  0.83157784  0.83300043  0.50055160  1
  Ti4+  Ti26  1  0.83438641  0.83182340  0.83278072  1
  Cu+  Cu27  1  0.16520199  0.16651034  0.00685453  1
  Cu+  Cu28  1  0.16666725  0.16398835  0.33083404  1
  Cu+  Cu29  1  0.16834757  0.16709656  0.66879929  1
  Cu+  Cu30  1  0.16419280  0.49685619  -0.00091129  1
  Cu+  Cu31  1  0.16481666  0.50009670  0.33316752  1
  Cu+  Cu32  1  0.16709211  0.49821266  0.66076892  1
  Cu+  Cu33  1  0.16740319  0.83687106  -0.00225760  1
  Cu+  Cu34  1  0.16529970  0.83413378  0.33121421  1
  Cu+  Cu35  1  0.17035644  0.83539260  0.66543717  1
  Cu+  Cu36  1  0.50244475  0.16500215  0.00137812  1
  Cu+  Cu37  1  0.49702049  0.16608333  0.33737696  1
  Cu+  Cu38  1  0.50398393  0.17587159  0.66593426  1
  Cu+  Cu39  1  0.49950513  0.49910595  0.00192314  1
  Cu+  Cu40  1  0.49912923  0.50279531  0.33262711  1
  Cu+  Cu41  1  0.50088857  0.49933672  0.67008311  1
  Cu+  Cu42  1  0.49588542  0.83292896  0.00167408  1
  Cu+  Cu43  1  0.50278939  0.83613736  0.32987386  1
  Cu+  Cu44  1  0.49774105  0.83459515  0.66511057  1
  Cu+  Cu45  1  0.83475327  0.16386099  0.00282742  1
  Cu+  Cu46  1  0.83333727  0.17299261  0.33523078  1
  Cu+  Cu47  1  0.83602819  0.16560439  0.66837143  1
  Cu+  Cu48  1  0.82436176  0.49803311  -0.00020281  1
  Cu+  Cu49  1  0.83661355  0.50106806  0.33072977  1
  Cu+  Cu50  1  0.83420866  0.49930562  0.66650421  1
  Cu+  Cu51  1  0.83967260  0.83095931  -0.00279769  1
  Cu+  Cu52  1  0.83038137  0.83223245  0.33624238  1
  Cu+  Cu53  1  0.83207990  0.83136641  0.66756005  1
  Cu+  Cu54  1  0.16312024  -0.00070998  0.17412308  1
  Cu+  Cu55  1  0.16881789  -0.00377242  0.50021387  1
  Cu+  Cu56  1  0.17698810  0.00285271  0.83322684  1
  Cu+  Cu57  1  0.16732174  0.33372647  0.16780201  1
  Cu+  Cu58  1  0.16900071  0.33541691  0.49876035  1
  Cu+  Cu59  1  0.15605030  0.33339128  0.83146895  1
  Cu+  Cu60  1  0.16230810  0.66712520  0.16218664  1
  Cu+  Cu61  1  0.16657239  0.66603416  0.49694069  1
  Cu+  Cu62  1  0.16989915  0.66510845  0.83105112  1
  Cu+  Cu63  1  0.50166869  -0.00120880  0.16871793  1
  Cu+  Cu64  1  0.50794455  0.00041412  0.50479122  1
  Cu+  Cu65  1  0.49589944  0.00514706  0.83276637  1
  Cu+  Cu66  1  0.50235352  0.33658706  0.16853145  1
  Cu+  Cu67  1  0.50174894  0.33216966  0.50319339  1
  Cu+  Cu68  1  0.49893939  0.33148301  0.82879902  1
  Cu+  Cu69  1  0.49915018  0.66795333  0.16528931  1
  Cu+  Cu70  1  0.49227647  0.66712602  0.49776097  1
  Cu+  Cu71  1  0.49626988  0.66667687  0.83452198  1
  Cu+  Cu72  1  0.83128728  0.00016083  0.16570993  1
  Cu+  Cu73  1  0.83326942  0.00182667  0.50076345  1
  Cu+  Cu74  1  0.83729946  -0.00226059  0.83581576  1
  Cu+  Cu75  1  0.83660147  0.32896891  0.16902066  1
  Cu+  Cu76  1  0.83034632  0.33487072  0.49382180  1
  Cu+  Cu77  1  0.83141682  0.33397346  0.83759901  1
  Cu+  Cu78  1  0.83793112  0.66562828  0.16006865  1
  Cu+  Cu79  1  0.83145682  0.66756029  0.50032714  1
  Cu+  Cu80  1  0.83361507  0.66470783  0.83176601  1
  Cu+  Cu81  1  -0.00099922  0.16338725  0.17424383  1
  Cu+  Cu82  1  0.00150739  0.16429683  0.49940480  1
  Cu+  Cu83  1  0.00247630  0.16978906  0.83249131  1
  Cu+  Cu84  1  -0.00166346  0.50325008  0.16895461  1
  Cu+  Cu85  1  0.00053558  0.49908132  0.49730189  1
  Cu+  Cu86  1  0.00060025  0.49263678  0.83431305  1
  Cu+  Cu87  1  -0.00344929  0.82815800  0.15914971  1
  Cu+  Cu88  1  -0.00104297  0.83218774  0.49854399  1
  Cu+  Cu89  1  0.00139700  0.83671986  0.83517836  1
  Cu+  Cu90  1  0.33232627  0.16721637  0.17070394  1
  Cu+  Cu91  1  0.33723281  0.16632702  0.49752853  1
  Cu+  Cu92  1  0.33697185  0.16301852  0.82920453  1
  Cu+  Cu93  1  0.33379174  0.49878687  0.16481277  1
  Cu+  Cu94  1  0.33461551  0.50411200  0.49596944  1
  Cu+  Cu95  1  0.32696356  0.50140725  0.83417690  1
  Cu+  Cu96  1  0.32927147  0.83564875  0.16675326  1
  Cu+  Cu97  1  0.33329687  0.83028649  0.50291670  1
  Cu+  Cu98  1  0.33559083  0.83372069  0.84059877  1
  Cu+  Cu99  1  0.66528264  0.16420252  0.16658762  1
  Cu+  Cu100  1  0.67042856  0.17334379  0.50171603  1
  Cu+  Cu101  1  0.66928016  0.16488409  0.83282011  1
  Cu+  Cu102  1  0.66730141  0.50149866  0.16090076  1
  Cu+  Cu103  1  0.66642321  0.49963223  0.50003739  1
  Cu+  Cu104  1  0.66528461  0.49702984  0.83863078  1
  Cu+  Cu105  1  0.66433558  0.83384601  0.16743142  1
  Cu+  Cu106  1  0.66591475  0.83535627  0.50151064  1
  Cu+  Cu107  1  0.66685653  0.83348538  0.83109840  1
  Cu+  Cu108  1  0.73717613  0.59833008  0.07459044  1
  Cu+  Cu109  1  0.92896247  0.73324904  0.06552265  1
  Cu+  Cu110  1  0.40791497  0.26058722  0.40919038  1
  Cu+  Cu111  1  0.25913473  0.92378580  0.26214600  1
  Cu+  Cu112  1  0.92728411  0.92913321  0.92802849  1
  Cu+  Cu113  1  0.59659407  0.92268939  0.59770597  1
  Cu+  Cu114  1  0.26126741  0.26526180  0.25509292  1
  Cu+  Cu115  1  0.40467482  0.26339694  0.74048003  1
  Cu+  Cu116  1  0.26134729  0.92947877  0.93093120  1
  Cu+  Cu117  1  0.41337044  0.73605263  0.93208448  1
  Cu+  Cu118  1  0.60118080  0.26535031  0.59503597  1
  Cu+  Cu119  1  0.73335018  0.40069691  0.92743524  1
  Cu+  Cu120  1  0.06611624  0.06691427  0.26305023  1
  Cu+  Cu121  1  0.73804101  0.26434638  0.40249394  1
  Cu+  Cu122  1  0.07250317  0.40586365  0.93208226  1
  Cu+  Cu123  1  0.25070427  0.58883908  0.92784764  1
  Cu+  Cu124  1  0.41000536  0.08221231  0.93166291  1
  Cu+  Cu125  1  0.25945111  0.92565158  0.59244433  1
  Cu+  Cu126  1  0.40654977  0.73739211  0.59540696  1
  Cu+  Cu127  1  0.40585736  0.59691370  0.40058549  1
  Cu+  Cu128  1  0.92468366  0.59736324  0.26150537  1
  Cu+  Cu129  1  0.26294277  0.07575980  0.73659726  1
  Cu+  Cu130  1  0.92906877  0.26000999  0.26321695  1
  Cu+  Cu131  1  0.59726655  0.92869709  0.25771003  1
  Cu+  Cu132  1  0.06975498  0.25834334  0.73504399  1
  Te2-  Te133  1  0.25233895  0.25144351  0.08379035  1
  Te2-  Te134  1  0.25329295  0.25329809  0.41145599  1
  Te2-  Te135  1  0.25321657  0.25700408  0.74886242  1
  Te2-  Te136  1  0.25131076  0.58515089  0.08038862  1
  Te2-  Te137  1  0.25221409  0.58834748  0.40910144  1
  Te2-  Te138  1  0.25048288  0.58355123  0.74233165  1
  Te2-  Te139  1  0.24989562  0.92387433  0.08206590  1
  Te2-  Te140  1  0.25552168  0.91753717  0.41335986  1
  Te2-  Te141  1  0.26088460  0.92007999  0.74535034  1
  Te2-  Te142  1  0.58434492  0.25143246  0.08293747  1
  Te2-  Te143  1  0.58629336  0.25495663  0.41196867  1
  Te2-  Te144  1  0.59404882  0.25547551  0.74900226  1
  Te2-  Te145  1  0.58382589  0.58912784  0.07745727  1
  Te2-  Te146  1  0.58455460  0.58745028  0.41646829  1
  Te2-  Te147  1  0.58469752  0.58448990  0.75316196  1
  Te2-  Te148  1  0.58417558  0.91815783  0.07896318  1
  Te2-  Te149  1  0.58778984  0.92074009  0.41287286  1
  Te2-  Te150  1  0.58377857  0.92150938  0.74915445  1
  Te2-  Te151  1  0.92132145  0.24740812  0.08337178  1
  Te2-  Te152  1  0.92518484  0.25536694  0.41596131  1
  Te2-  Te153  1  0.91786723  0.25564297  0.74822266  1
  Te2-  Te154  1  0.92207175  0.58108708  0.07234113  1
  Te2-  Te155  1  0.91978247  0.58838800  0.41450185  1
  Te2-  Te156  1  0.92024808  0.58121654  0.74999457  1
  Te2-  Te157  1  0.91944374  0.92298754  0.08069243  1
  Te2-  Te158  1  0.91691698  0.91860314  0.41507593  1
  Te2-  Te159  1  0.91938485  0.91718569  0.74585329  1
  Te2-  Te160  1  0.25656121  0.07730309  0.25611443  1
  Te2-  Te161  1  0.25613322  0.08103668  0.58470123  1
  Te2-  Te162  1  0.25568563  0.08433566  0.92691558  1
  Te2-  Te163  1  0.25299211  0.41726404  0.25342467  1
  Te2-  Te164  1  0.25608523  0.41555092  0.58179256  1
  Te2-  Te165  1  0.24861897  0.40925418  0.91613060  1
  Te2-  Te166  1  0.24790565  0.74637975  0.24857984  1
  Te2-  Te167  1  0.25134268  0.74223502  0.58699893  1
  Te2-  Te168  1  0.25370137  0.74433164  0.92262329  1
  Te2-  Te169  1  0.58564405  0.08233118  0.25638995  1
  Te2-  Te170  1  0.59127707  0.08398059  0.58930239  1
  Te2-  Te171  1  0.58725783  0.08104102  0.91730150  1
  Te2-  Te172  1  0.58803359  0.41915848  0.25215978  1
  Te2-  Te173  1  0.58694714  0.41640117  0.58795779  1
  Te2-  Te174  1  0.58096303  0.40939085  0.92124053  1
  Te2-  Te175  1  0.58471294  0.74591539  0.25116331  1
  Te2-  Te176  1  0.58239740  0.74600418  0.58353647  1
  Te2-  Te177  1  0.58319738  0.75049106  0.91774138  1
  Te2-  Te178  1  0.91395919  0.07626237  0.25870164  1
  Te2-  Te179  1  0.91993782  0.08170377  0.58549026  1
  Te2-  Te180  1  0.92390681  0.08262139  0.92072627  1
  Te2-  Te181  1  0.92115304  0.41283627  0.25282803  1
  Te2-  Te182  1  0.91715121  0.41396891  0.58187135  1
  Te2-  Te183  1  0.91890489  0.41183310  0.92488017  1
  Te2-  Te184  1  0.91825300  0.74830569  0.25387337  1
  Te2-  Te185  1  0.91811057  0.74779765  0.58514135  1
  Te2-  Te186  1  0.92402984  0.74188383  0.91484786  1
  Te2-  Te187  1  0.08086591  0.25554186  0.25595296  1
  Te2-  Te188  1  0.08323304  0.25172203  0.58308458  1
  Te2-  Te189  1  0.08005766  0.25027209  0.92539531  1
  Te2-  Te190  1  0.08107070  0.58857009  0.25328499  1
  Te2-  Te191  1  0.08126315  0.58493618  0.58214369  1
  Te2-  Te192  1  0.08062954  0.58522347  0.91545314  1
  Te2-  Te193  1  0.07142763  0.91396748  0.25247682  1
  Te2-  Te194  1  0.08047579  0.91682779  0.58450138  1
  Te2-  Te195  1  0.08379098  0.92523451  0.91747541  1
  Te2-  Te196  1  0.41465197  0.25682697  0.25524385  1
  Te2-  Te197  1  0.41002153  0.25535317  0.58666818  1
  Te2-  Te198  1  0.41501398  0.25010734  0.91840401  1
  Te2-  Te199  1  0.41153017  0.58771483  0.24923212  1
  Te2-  Te200  1  0.41312746  0.58396933  0.59044071  1
  Te2-  Te201  1  0.40996710  0.58448438  0.92308115  1
  Te2-  Te202  1  0.41197242  0.92044577  0.25341550  1
  Te2-  Te203  1  0.41308661  0.92358794  0.58499353  1
  Te2-  Te204  1  0.41373778  0.92579109  0.92396971  1
  Te2-  Te205  1  0.74249380  0.25367193  0.25063445  1
  Te2-  Te206  1  0.75285683  0.25682217  0.59075299  1
  Te2-  Te207  1  0.74715703  0.24867954  0.92264024  1
  Te2-  Te208  1  0.74994015  0.58672746  0.24801116  1
  Te2-  Te209  1  0.74783526  0.58444423  0.58587015  1
  Te2-  Te210  1  0.74449691  0.58968343  0.91878621  1
  Te2-  Te211  1  0.74924653  0.91842123  0.25227643  1
  Te2-  Te212  1  0.74810314  0.92127327  0.58859153  1
  Te2-  Te213  1  0.74836889  0.91623597  0.91937935  1
  Te2-  Te214  1  0.07938191  0.07993143  0.08499158  1
  Te2-  Te215  1  0.08240762  0.07766404  0.41549813  1
  Te2-  Te216  1  0.08381655  0.07985048  0.75052739  1
  Te2-  Te217  1  0.07814158  0.41263558  0.08421879  1
  Te2-  Te218  1  0.08136703  0.41325483  0.41299714  1
  Te2-  Te219  1  0.07741929  0.41351189  0.73802505  1
  Te2-  Te220  1  0.08168563  0.74666859  0.07329653  1
  Te2-  Te221  1  0.08105960  0.74832321  0.41284300  1
  Te2-  Te222  1  0.08537944  0.75136815  0.74953929  1
  Te2-  Te223  1  0.41359643  0.08062184  0.08538688  1
  Te2-  Te224  1  0.41877274  0.07634562  0.41900230  1
  Te2-  Te225  1  0.41775674  0.08071907  0.73716096  1
  Te2-  Te226  1  0.41473717  0.41304866  0.08182460  1
  Te2-  Te227  1  0.41563043  0.41294440  0.41403804  1
  Te2-  Te228  1  0.41013016  0.41662599  0.74813910  1
  Te2-  Te229  1  0.40884803  0.74710659  0.08336056  1
  Te2-  Te230  1  0.41237709  0.75173748  0.40788358  1
  Te2-  Te231  1  0.41118754  0.74822022  0.74728731  1
  Te2-  Te232  1  0.74661394  0.08032077  0.08154959  1
  Te2-  Te233  1  0.74836230  0.08423783  0.41566763  1
  Te2-  Te234  1  0.75204278  0.07920029  0.75015574  1
  Te2-  Te235  1  0.74698096  0.40618043  0.08323662  1
  Te2-  Te236  1  0.74490694  0.41808757  0.40822976  1
  Te2-  Te237  1  0.74799497  0.41556929  0.74913081  1
  Te2-  Te238  1  0.74496549  0.74993312  0.07765134  1
  Te2-  Te239  1  0.74430195  0.74756924  0.41609059  1
  Te2-  Te240  1  0.74730870  0.74595228  0.74812339  1
