# generated using pymatgen
data_Ti27(Cu53Te54)2
_symmetry_space_group_name_H-M   'P 1'
_cell_length_a   17.93066486
_cell_length_b   17.93033001
_cell_length_c   17.92396319
_cell_angle_alpha   90.03566485
_cell_angle_beta   90.06354921
_cell_angle_gamma   89.99847780
_symmetry_Int_Tables_number   1
_chemical_formula_structural   Ti27(Cu53Te54)2
_chemical_formula_sum   'Ti27 Cu106 Te108'
_cell_volume   5762.59858409
_cell_formula_units_Z   1
loop_
 _symmetry_equiv_pos_site_id
 _symmetry_equiv_pos_as_xyz
  1  'x, y, z'
loop_
 _atom_type_symbol
 _atom_type_oxidation_number
  Ti4+  4.0
  Cu+  1.0
  Te2-  -2.0
loop_
 _atom_site_type_symbol
 _atom_site_label
 _atom_site_symmetry_multiplicity
 _atom_site_fract_x
 _atom_site_fract_y
 _atom_site_fract_z
 _atom_site_occupancy
  Ti4+  Ti0  1  0.16773274  0.16680407  0.16582601  1
  Ti4+  Ti1  1  0.16582282  0.16626717  0.50098287  1
  Ti4+  Ti2  1  0.16665448  0.17102538  0.83203210  1
  Ti4+  Ti3  1  0.16502421  0.50062310  0.16801118  1
  Ti4+  Ti4  1  0.16754204  0.49934048  0.49814271  1
  Ti4+  Ti5  1  0.16682703  0.50204759  0.83346752  1
  Ti4+  Ti6  1  0.16905625  0.83288348  0.16701604  1
  Ti4+  Ti7  1  0.16614169  0.83097466  0.49916578  1
  Ti4+  Ti8  1  0.16657414  0.83362841  0.83338796  1
  Ti4+  Ti9  1  0.50234122  0.17227092  0.16713381  1
  Ti4+  Ti10  1  0.49991635  0.16417650  0.50165052  1
  Ti4+  Ti11  1  0.50168288  0.17126372  0.83326753  1
  Ti4+  Ti12  1  0.49866002  0.49559456  0.16648672  1
  Ti4+  Ti13  1  0.49821952  0.50051867  0.50031743  1
  Ti4+  Ti14  1  0.50386244  0.50120822  0.83308694  1
  Ti4+  Ti15  1  0.50048147  0.83638922  0.17025156  1
  Ti4+  Ti16  1  0.49765635  0.83261711  0.50131348  1
  Ti4+  Ti17  1  0.49615576  0.83536520  0.83568522  1
  Ti4+  Ti18  1  0.83598237  0.16975655  0.16661473  1
  Ti4+  Ti19  1  0.83399902  0.16512607  0.50100047  1
  Ti4+  Ti20  1  0.83732392  0.16042388  0.83467143  1
  Ti4+  Ti21  1  0.83151484  0.50062737  0.16827734  1
  Ti4+  Ti22  1  0.83160195  0.49999932  0.49811154  1
  Ti4+  Ti23  1  0.83356538  0.50045727  0.82817613  1
  Ti4+  Ti24  1  0.83379471  0.83596700  0.16586416  1
  Ti4+  Ti25  1  0.83108415  0.82748186  0.49942550  1
  Ti4+  Ti26  1  0.82966321  0.83155911  0.83114715  1
  Cu+  Cu27  1  0.16446931  0.16725129  -0.00247920  1
  Cu+  Cu28  1  0.16644087  0.16534987  0.33496185  1
  Cu+  Cu29  1  0.16937138  0.17244387  0.66483514  1
  Cu+  Cu30  1  0.16544596  0.50157402  0.00194019  1
  Cu+  Cu31  1  0.16180252  0.50322824  0.33449941  1
  Cu+  Cu32  1  0.16852225  0.50121061  0.66872448  1
  Cu+  Cu33  1  0.16857881  0.83366145  0.00225165  1
  Cu+  Cu34  1  0.17011112  0.83014957  0.33255530  1
  Cu+  Cu35  1  0.16609564  0.83383247  0.66689487  1
  Cu+  Cu36  1  0.50202320  0.17488276  -0.00025970  1
  Cu+  Cu37  1  0.49923264  0.16495326  0.33269899  1
  Cu+  Cu38  1  0.50204368  0.16673696  0.66823227  1
  Cu+  Cu39  1  0.50237111  0.49228312  -0.00166276  1
  Cu+  Cu40  1  0.49534143  0.49640983  0.33235650  1
  Cu+  Cu41  1  0.50418557  0.50112616  0.66657130  1
  Cu+  Cu42  1  0.49816826  0.83804659  0.00313012  1
  Cu+  Cu43  1  0.50002127  0.83880593  0.33838629  1
  Cu+  Cu44  1  0.49362125  0.83213522  0.66887909  1
  Cu+  Cu45  1  0.84539995  0.16445291  0.00287707  1
  Cu+  Cu46  1  0.83518723  0.16869151  0.33500094  1
  Cu+  Cu47  1  0.82904947  0.15822069  0.66464240  1
  Cu+  Cu48  1  0.83391950  0.50262446  -0.00370994  1
  Cu+  Cu49  1  0.82832243  0.49422210  0.33374014  1
  Cu+  Cu50  1  0.83028533  0.50720730  0.66570581  1
  Cu+  Cu51  1  0.83036532  0.83594716  -0.00125063  1
  Cu+  Cu52  1  0.82929669  0.83049405  0.32945892  1
  Cu+  Cu53  1  0.83241804  0.82586214  0.66625928  1
  Cu+  Cu54  1  0.17040518  -0.00276366  0.16704883  1
  Cu+  Cu55  1  0.16336734  0.00019816  0.50226878  1
  Cu+  Cu56  1  0.16621988  0.00265753  0.83127627  1
  Cu+  Cu57  1  0.16423272  0.33356554  0.16683674  1
  Cu+  Cu58  1  0.16992510  0.33050707  0.50376967  1
  Cu+  Cu59  1  0.16578963  0.33799308  0.83075448  1
  Cu+  Cu60  1  0.16765277  0.66668198  0.16723638  1
  Cu+  Cu61  1  0.16790225  0.66614247  0.49199863  1
  Cu+  Cu62  1  0.16733822  0.66603197  0.83563679  1
  Cu+  Cu63  1  0.50032522  0.00588767  0.17084850  1
  Cu+  Cu64  1  0.49748597  -0.00237069  0.49899933  1
  Cu+  Cu65  1  0.49821244  0.00308105  0.83618951  1
  Cu+  Cu66  1  0.49853928  0.33493297  0.16136074  1
  Cu+  Cu67  1  0.50049916  0.32993393  0.49961949  1
  Cu+  Cu68  1  0.50432196  0.33902204  0.83332956  1
  Cu+  Cu69  1  0.50174376  0.66405345  0.16758097  1
  Cu+  Cu70  1  0.49756877  0.66964018  0.50245839  1
  Cu+  Cu71  1  0.50036986  0.66886235  0.83618189  1
  Cu+  Cu72  1  0.83574663  0.00354410  0.16483328  1
  Cu+  Cu73  1  0.83049583  -0.00297800  0.50162236  1
  Cu+  Cu74  1  0.83798132  -0.00858550  0.83771249  1
  Cu+  Cu75  1  0.83078839  0.33562704  0.16977973  1
  Cu+  Cu76  1  0.83678023  0.33498544  0.49867011  1
  Cu+  Cu77  1  0.83585570  0.32769471  0.83088286  1
  Cu+  Cu78  1  0.83123489  0.66994669  0.16773436  1
  Cu+  Cu79  1  0.83316155  0.65911089  0.50027481  1
  Cu+  Cu80  1  0.83268379  0.66972260  0.82332830  1
  Cu+  Cu81  1  0.00047655  0.16700573  0.16390776  1
  Cu+  Cu82  1  0.00061688  0.16548612  0.50078714  1
  Cu+  Cu83  1  0.00277255  0.16552180  0.84028247  1
  Cu+  Cu84  1  -0.00165795  0.50291727  0.16649995  1
  Cu+  Cu85  1  0.00101351  0.50123175  0.49439140  1
  Cu+  Cu86  1  0.00337334  0.50035555  0.83339772  1
  Cu+  Cu87  1  0.00410967  0.83461408  0.16596132  1
  Cu+  Cu88  1  -0.00152411  0.83097813  0.50048924  1
  Cu+  Cu89  1  -0.00085076  0.83171963  0.83183229  1
  Cu+  Cu90  1  0.33458815  0.17087292  0.16745577  1
  Cu+  Cu91  1  0.33028319  0.16724041  0.50430931  1
  Cu+  Cu92  1  0.33286161  0.17231215  0.83128232  1
  Cu+  Cu93  1  0.32999085  0.49662749  0.16952404  1
  Cu+  Cu94  1  0.33406607  0.50004257  0.50170686  1
  Cu+  Cu95  1  0.33380059  0.50173807  0.83506434  1
  Cu+  Cu96  1  0.33549817  0.83490007  0.16940527  1
  Cu+  Cu97  1  0.33183868  0.82784939  0.49810525  1
  Cu+  Cu98  1  0.33128543  0.83718049  0.83550893  1
  Cu+  Cu99  1  0.67002218  0.17134149  0.16678048  1
  Cu+  Cu100  1  0.66862197  0.16085942  0.50424281  1
  Cu+  Cu101  1  0.67169511  0.16743416  0.83114254  1
  Cu+  Cu102  1  0.66645205  0.49279727  0.16857162  1
  Cu+  Cu103  1  0.66314148  0.50249336  0.49769885  1
  Cu+  Cu104  1  0.66893796  0.50172352  0.82370696  1
  Cu+  Cu105  1  0.66732683  0.83767085  0.16923313  1
  Cu+  Cu106  1  0.66290522  0.82715207  0.49973759  1
  Cu+  Cu107  1  0.65926161  0.83394057  0.83278668  1
  Cu+  Cu108  1  0.73781929  0.06442953  0.59302698  1
  Cu+  Cu109  1  0.73829448  0.74269748  0.25148494  1
  Cu+  Cu110  1  0.40227566  0.25569225  0.07080638  1
  Cu+  Cu111  1  0.08372370  0.07022216  0.92570605  1
  Cu+  Cu112  1  0.74838614  0.25344604  0.73783543  1
  Cu+  Cu113  1  0.59220863  0.40751803  0.73447659  1
  Cu+  Cu114  1  0.39755041  0.41095307  0.26507934  1
  Cu+  Cu115  1  0.40570363  0.07698674  0.25619015  1
  Cu+  Cu116  1  0.40088462  0.92728128  0.41379713  1
  Cu+  Cu117  1  0.26334579  0.26175843  0.59514004  1
  Cu+  Cu118  1  0.73564474  0.58520332  0.40388346  1
  Cu+  Cu119  1  0.92687791  0.26333722  0.92723103  1
  Cu+  Cu120  1  0.93063155  0.74501736  0.73793675  1
  Cu+  Cu121  1  0.93368774  0.58250625  0.59316735  1
  Cu+  Cu122  1  0.40333008  0.74088262  0.60021607  1
  Cu+  Cu123  1  0.59794813  0.40704305  0.07064849  1
  Cu+  Cu124  1  0.92990377  0.91001059  0.92907759  1
  Cu+  Cu125  1  0.25938708  0.73764279  0.40173188  1
  Cu+  Cu126  1  0.58770088  0.74105790  0.40792742  1
  Cu+  Cu127  1  0.73790390  0.40210477  0.26159234  1
  Cu+  Cu128  1  0.93089905  0.07094062  0.08200950  1
  Cu+  Cu129  1  0.73700555  0.59905384  0.73882521  1
  Cu+  Cu130  1  0.92899532  0.40394602  0.40703320  1
  Cu+  Cu131  1  0.07262501  0.59574161  0.40377158  1
  Cu+  Cu132  1  0.40323704  0.41088195  0.91992486  1
  Te2-  Te133  1  0.24954997  0.25411114  0.07895758  1
  Te2-  Te134  1  0.25236453  0.25096410  0.41422827  1
  Te2-  Te135  1  0.25357047  0.25863694  0.74776781  1
  Te2-  Te136  1  0.25247847  0.58386318  0.08370196  1
  Te2-  Te137  1  0.25705917  0.58274988  0.41150807  1
  Te2-  Te138  1  0.25402796  0.58668193  0.74942049  1
  Te2-  Te139  1  0.25541658  0.91792512  0.08182795  1
  Te2-  Te140  1  0.24961468  0.92108858  0.41518791  1
  Te2-  Te141  1  0.25002632  0.91974913  0.74831576  1
  Te2-  Te142  1  0.59218296  0.25570237  0.07945675  1
  Te2-  Te143  1  0.58635843  0.24656569  0.41737453  1
  Te2-  Te144  1  0.59005883  0.25472477  0.74478489  1
  Te2-  Te145  1  0.58561983  0.58040465  0.08252851  1
  Te2-  Te146  1  0.58077589  0.58651618  0.40997349  1
  Te2-  Te147  1  0.58433495  0.59249211  0.74553833  1
  Te2-  Te148  1  0.58367832  0.92239764  0.08590382  1
  Te2-  Te149  1  0.58839454  0.91987555  0.41822784  1
  Te2-  Te150  1  0.57900585  0.91989820  0.74760818  1
  Te2-  Te151  1  0.92202887  0.26038727  0.08324878  1
  Te2-  Te152  1  0.92179835  0.25131432  0.41503550  1
  Te2-  Te153  1  0.92034109  0.24335277  0.74542224  1
  Te2-  Te154  1  0.91443969  0.58668788  0.08288513  1
  Te2-  Te155  1  0.91740339  0.58598107  0.40724366  1
  Te2-  Te156  1  0.92579728  0.58712978  0.74561376  1
  Te2-  Te157  1  0.92360529  0.91959529  0.07973952  1
  Te2-  Te158  1  0.91357712  0.91366467  0.41568281  1
  Te2-  Te159  1  0.91771959  0.91526902  0.74330694  1
  Te2-  Te160  1  0.25297307  0.08204457  0.25223945  1
  Te2-  Te161  1  0.25011364  0.07902970  0.58739289  1
  Te2-  Te162  1  0.25336494  0.08490113  0.91627408  1
  Te2-  Te163  1  0.24684806  0.41264081  0.25677367  1
  Te2-  Te164  1  0.25354387  0.41651187  0.58739596  1
  Te2-  Te165  1  0.25025806  0.41479718  0.92084139  1
  Te2-  Te166  1  0.25660568  0.74486475  0.25098021  1
  Te2-  Te167  1  0.24982960  0.74417807  0.58725744  1
  Te2-  Te168  1  0.25143731  0.74968863  0.91884412  1
  Te2-  Te169  1  0.58948195  0.08636910  0.25137885  1
  Te2-  Te170  1  0.58341862  0.07631982  0.58812896  1
  Te2-  Te171  1  0.58557500  0.08694341  0.91837786  1
  Te2-  Te172  1  0.58434780  0.40962075  0.25615609  1
  Te2-  Te173  1  0.58638478  0.41339038  0.58202215  1
  Te2-  Te174  1  0.59635024  0.41542903  0.91626202  1
  Te2-  Te175  1  0.58579883  0.74669971  0.25500445  1
  Te2-  Te176  1  0.58306809  0.74757286  0.59010900  1
  Te2-  Te177  1  0.58183527  0.75125117  0.92234438  1
  Te2-  Te178  1  0.92016908  0.08361845  0.25312985  1
  Te2-  Te179  1  0.91968991  0.07813201  0.58419362  1
  Te2-  Te180  1  0.92599249  0.07123751  0.92276686  1
  Te2-  Te181  1  0.92099602  0.41513901  0.25251032  1
  Te2-  Te182  1  0.91874104  0.41881970  0.58704240  1
  Te2-  Te183  1  0.91860477  0.41617866  0.91566754  1
  Te2-  Te184  1  0.92060277  0.75029760  0.24980316  1
  Te2-  Te185  1  0.92067567  0.74134616  0.58408378  1
  Te2-  Te186  1  0.91516565  0.74610692  0.91852882  1
  Te2-  Te187  1  0.08183119  0.24922278  0.25115952  1
  Te2-  Te188  1  0.07844751  0.25286398  0.58528741  1
  Te2-  Te189  1  0.08171500  0.25937490  0.91985381  1
  Te2-  Te190  1  0.07804938  0.58929957  0.25128074  1
  Te2-  Te191  1  0.08507049  0.58695273  0.58462104  1
  Te2-  Te192  1  0.08111106  0.58604561  0.91997398  1
  Te2-  Te193  1  0.08456776  0.91808749  0.25358423  1
  Te2-  Te194  1  0.08024536  0.91534996  0.58426879  1
  Te2-  Te195  1  0.08106987  0.91856115  0.92167699  1
  Te2-  Te196  1  0.41495978  0.25744611  0.25548681  1
  Te2-  Te197  1  0.41638269  0.25196514  0.58778867  1
  Te2-  Te198  1  0.41277521  0.25842364  0.91763009  1
  Te2-  Te199  1  0.41398965  0.58393167  0.25035606  1
  Te2-  Te200  1  0.41410598  0.58512025  0.58830512  1
  Te2-  Te201  1  0.41875552  0.58413762  0.92124897  1
  Te2-  Te202  1  0.41236043  0.92302400  0.25632066  1
  Te2-  Te203  1  0.40959076  0.91849625  0.58514039  1
  Te2-  Te204  1  0.41287555  0.92198426  0.92096221  1
  Te2-  Te205  1  0.74832534  0.25210988  0.25601415  1
  Te2-  Te206  1  0.74848583  0.25491407  0.58448379  1
  Te2-  Te207  1  0.75443698  0.24678765  0.92182266  1
  Te2-  Te208  1  0.74186670  0.58752027  0.25242487  1
  Te2-  Te209  1  0.74063276  0.58737016  0.58475527  1
  Te2-  Te210  1  0.75004654  0.58673118  0.91264959  1
  Te2-  Te211  1  0.75073515  0.92461546  0.25086362  1
  Te2-  Te212  1  0.74549759  0.91130467  0.58588275  1
  Te2-  Te213  1  0.74273560  0.91706373  0.91672149  1
  Te2-  Te214  1  0.08302568  0.07689649  0.08046010  1
  Te2-  Te215  1  0.08054581  0.08045847  0.41508721  1
  Te2-  Te216  1  0.08237699  0.08649379  0.74544125  1
  Te2-  Te217  1  0.07956547  0.41653455  0.08265007  1
  Te2-  Te218  1  0.08329377  0.40909320  0.41482265  1
  Te2-  Te219  1  0.08106720  0.41723526  0.74593667  1
  Te2-  Te220  1  0.08320973  0.74783919  0.08145231  1
  Te2-  Te221  1  0.07697456  0.74847729  0.41083015  1
  Te2-  Te222  1  0.08283086  0.74583610  0.74726329  1
  Te2-  Te223  1  0.41742895  0.08636086  0.08008152  1
  Te2-  Te224  1  0.40964757  0.08159911  0.41467913  1
  Te2-  Te225  1  0.41555901  0.08565220  0.75071544  1
  Te2-  Te226  1  0.40691968  0.41230109  0.07702313  1
  Te2-  Te227  1  0.41271334  0.41157416  0.41780859  1
  Te2-  Te228  1  0.41589893  0.41703652  0.74702320  1
  Te2-  Te229  1  0.41789351  0.74974896  0.08571580  1
  Te2-  Te230  1  0.41358708  0.74422252  0.40897893  1
  Te2-  Te231  1  0.40920632  0.74602000  0.75246989  1
  Te2-  Te232  1  0.74950019  0.08560162  0.08056841  1
  Te2-  Te233  1  0.74992266  0.08074069  0.41342427  1
  Te2-  Te234  1  0.74887442  0.07180582  0.75142138  1
  Te2-  Te235  1  0.75103303  0.41455307  0.07667889  1
  Te2-  Te236  1  0.74117512  0.40986765  0.41644423  1
  Te2-  Te237  1  0.75008843  0.40960011  0.74158996  1
  Te2-  Te238  1  0.74627451  0.75146171  0.08049053  1
  Te2-  Te239  1  0.74408451  0.74091269  0.41089707  1
  Te2-  Te240  1  0.73782708  0.74966114  0.74453045  1
