# generated using pymatgen
data_Ti27(Cu53Te54)2
_symmetry_space_group_name_H-M   'P 1'
_cell_length_a   17.88784355
_cell_length_b   17.89224284
_cell_length_c   17.88325592
_cell_angle_alpha   89.96406029
_cell_angle_beta   89.93021447
_cell_angle_gamma   89.96298022
_symmetry_Int_Tables_number   1
_chemical_formula_structural   Ti27(Cu53Te54)2
_chemical_formula_sum   'Ti27 Cu106 Te108'
_cell_volume   5723.59459850
_cell_formula_units_Z   1
loop_
 _symmetry_equiv_pos_site_id
 _symmetry_equiv_pos_as_xyz
  1  'x, y, z'
loop_
 _atom_type_symbol
 _atom_type_oxidation_number
  Ti4+  4.0
  Cu+  1.0
  Te2-  -2.0
loop_
 _atom_site_type_symbol
 _atom_site_label
 _atom_site_symmetry_multiplicity
 _atom_site_fract_x
 _atom_site_fract_y
 _atom_site_fract_z
 _atom_site_occupancy
  Ti4+  Ti0  1  0.16900748  0.16945700  0.16736931  1
  Ti4+  Ti1  1  0.16758995  0.16385333  0.49805919  1
  Ti4+  Ti2  1  0.16551910  0.16437331  0.83106788  1
  Ti4+  Ti3  1  0.16677510  0.49882132  0.16671541  1
  Ti4+  Ti4  1  0.16623664  0.49766420  0.50342013  1
  Ti4+  Ti5  1  0.17146654  0.49852785  0.83476233  1
  Ti4+  Ti6  1  0.16387602  0.83651510  0.16613646  1
  Ti4+  Ti7  1  0.16709662  0.83110875  0.49594794  1
  Ti4+  Ti8  1  0.16596948  0.83249704  0.83380848  1
  Ti4+  Ti9  1  0.50088847  0.16510188  0.17001678  1
  Ti4+  Ti10  1  0.49820738  0.16800142  0.49616550  1
  Ti4+  Ti11  1  0.49896954  0.16690959  0.83098887  1
  Ti4+  Ti12  1  0.49856443  0.49833705  0.16570011  1
  Ti4+  Ti13  1  0.49929601  0.50321190  0.49966679  1
  Ti4+  Ti14  1  0.50083933  0.50183479  0.83346721  1
  Ti4+  Ti15  1  0.49914133  0.83162764  0.16623169  1
  Ti4+  Ti16  1  0.50130825  0.83543190  0.49898954  1
  Ti4+  Ti17  1  0.50031018  0.83456513  0.83357180  1
  Ti4+  Ti18  1  0.83369787  0.16864482  0.16643149  1
  Ti4+  Ti19  1  0.83316120  0.17087455  0.50066406  1
  Ti4+  Ti20  1  0.83016697  0.16594949  0.83447021  1
  Ti4+  Ti21  1  0.83072239  0.49582085  0.16518211  1
  Ti4+  Ti22  1  0.83262349  0.50436329  0.50082146  1
  Ti4+  Ti23  1  0.83501842  0.49495189  0.83275226  1
  Ti4+  Ti24  1  0.83522731  0.83227105  0.16704827  1
  Ti4+  Ti25  1  0.83211041  0.83782871  0.50251237  1
  Ti4+  Ti26  1  0.83346448  0.83055606  0.83519536  1
  Cu+  Cu27  1  0.16962510  0.16972580  -0.00375673  1
  Cu+  Cu28  1  0.17103182  0.16306909  0.33153324  1
  Cu+  Cu29  1  0.16559585  0.16233471  0.66666993  1
  Cu+  Cu30  1  0.17225144  0.49945921  -0.00091838  1
  Cu+  Cu31  1  0.16425637  0.49494879  0.33681883  1
  Cu+  Cu32  1  0.16912084  0.50238819  0.66950126  1
  Cu+  Cu33  1  0.16600832  0.83506950  0.00190082  1
  Cu+  Cu34  1  0.15923822  0.83752706  0.33243817  1
  Cu+  Cu35  1  0.16674104  0.82952918  0.66544370  1
  Cu+  Cu36  1  0.49765009  0.16435891  0.00142389  1
  Cu+  Cu37  1  0.50804271  0.16665726  0.33359178  1
  Cu+  Cu38  1  0.49445891  0.16652748  0.66209500  1
  Cu+  Cu39  1  0.49867429  0.49732571  0.00139149  1
  Cu+  Cu40  1  0.49824577  0.50276927  0.33280004  1
  Cu+  Cu41  1  0.50224468  0.50342883  0.66512387  1
  Cu+  Cu42  1  0.49859690  0.83231217  -0.00033528  1
  Cu+  Cu43  1  0.50320262  0.83515564  0.32999598  1
  Cu+  Cu44  1  0.49935204  0.83604839  0.66767930  1
  Cu+  Cu45  1  0.83100970  0.16437841  0.00077788  1
  Cu+  Cu46  1  0.83633543  0.17301318  0.33325708  1
  Cu+  Cu47  1  0.82843499  0.17028336  0.66728222  1
  Cu+  Cu48  1  0.83320949  0.48545094  -0.00100599  1
  Cu+  Cu49  1  0.83281991  0.50363273  0.33149684  1
  Cu+  Cu50  1  0.83211643  0.50308175  0.66744408  1
  Cu+  Cu51  1  0.83823579  0.83275025  -0.00018096  1
  Cu+  Cu52  1  0.83517010  0.83309330  0.33737417  1
  Cu+  Cu53  1  0.82857734  0.83733120  0.66982037  1
  Cu+  Cu54  1  0.16238927  0.00454975  0.16721178  1
  Cu+  Cu55  1  0.16990024  -0.00283555  0.49059886  1
  Cu+  Cu56  1  0.16438980  -0.00034373  0.83069999  1
  Cu+  Cu57  1  0.17100539  0.33234454  0.16826594  1
  Cu+  Cu58  1  0.16768166  0.33287628  0.50238220  1
  Cu+  Cu59  1  0.17227395  0.32834393  0.83500741  1
  Cu+  Cu60  1  0.16593132  0.66913489  0.16515177  1
  Cu+  Cu61  1  0.16638175  0.65922100  0.50221942  1
  Cu+  Cu62  1  0.16802905  0.66545863  0.83557354  1
  Cu+  Cu63  1  0.50006585  -0.00355369  0.16943019  1
  Cu+  Cu64  1  0.49777827  0.00377266  0.49849452  1
  Cu+  Cu65  1  0.49977557  0.00088894  0.83399235  1
  Cu+  Cu66  1  0.50057284  0.33135855  0.16887453  1
  Cu+  Cu67  1  0.49538653  0.33687661  0.49742263  1
  Cu+  Cu68  1  0.49808570  0.33437620  0.82983142  1
  Cu+  Cu69  1  0.49922277  0.66477566  0.16504877  1
  Cu+  Cu70  1  0.50298765  0.66939443  0.50108854  1
  Cu+  Cu71  1  0.50074223  0.67129271  0.83381035  1
  Cu+  Cu72  1  0.83390706  0.00067968  0.16596722  1
  Cu+  Cu73  1  0.83251862  0.00578031  0.50378676  1
  Cu+  Cu74  1  0.83244297  -0.00369161  0.83457015  1
  Cu+  Cu75  1  0.83850597  0.33259940  0.16301129  1
  Cu+  Cu76  1  0.83132451  0.33969160  0.50004435  1
  Cu+  Cu77  1  0.82712050  0.33045937  0.83635712  1
  Cu+  Cu78  1  0.83198973  0.66331079  0.16494216  1
  Cu+  Cu79  1  0.83434694  0.67458051  0.50292208  1
  Cu+  Cu80  1  0.83378834  0.66214679  0.83300344  1
  Cu+  Cu81  1  0.00074269  0.17140061  0.16923337  1
  Cu+  Cu82  1  -0.00225419  0.16861172  0.49969416  1
  Cu+  Cu83  1  -0.00097854  0.16392001  0.83257484  1
  Cu+  Cu84  1  -0.00378079  0.49407553  0.16277908  1
  Cu+  Cu85  1  0.00113057  0.50118542  0.50041168  1
  Cu+  Cu86  1  0.00694500  0.49664974  0.83104164  1
  Cu+  Cu87  1  0.00250701  0.83068092  0.16923524  1
  Cu+  Cu88  1  -0.00307985  0.83542484  0.49746111  1
  Cu+  Cu89  1  -0.00216998  0.83034494  0.83826841  1
  Cu+  Cu90  1  0.33531981  0.17004457  0.16896887  1
  Cu+  Cu91  1  0.33307428  0.15906233  0.49678265  1
  Cu+  Cu92  1  0.33079329  0.16631973  0.83308420  1
  Cu+  Cu93  1  0.33529484  0.49669116  0.16491465  1
  Cu+  Cu94  1  0.33118518  0.50138033  0.50430979  1
  Cu+  Cu95  1  0.33577380  0.50288187  0.83776034  1
  Cu+  Cu96  1  0.33005682  0.83369241  0.16430319  1
  Cu+  Cu97  1  0.33628477  0.83068799  0.49810962  1
  Cu+  Cu98  1  0.33405095  0.83417218  0.83270210  1
  Cu+  Cu99  1  0.66705084  0.16904565  0.16992179  1
  Cu+  Cu100  1  0.66567136  0.17020055  0.49654713  1
  Cu+  Cu101  1  0.66372693  0.16988491  0.82905777  1
  Cu+  Cu102  1  0.66173364  0.49954994  0.16668728  1
  Cu+  Cu103  1  0.66434815  0.50479150  0.50307095  1
  Cu+  Cu104  1  0.66885486  0.49651711  0.83322236  1
  Cu+  Cu105  1  0.66869206  0.83281290  0.16601532  1
  Cu+  Cu106  1  0.66840094  0.83714945  0.50267307  1
  Cu+  Cu107  1  0.66662600  0.83382150  0.83130957  1
  Cu+  Cu108  1  0.26243948  0.59823924  0.93055481  1
  Cu+  Cu109  1  0.26372711  0.26171279  0.26412934  1
  Cu+  Cu110  1  0.73717872  0.92910322  0.74426800  1
  Cu+  Cu111  1  0.92738439  0.92749232  0.92774245  1
  Cu+  Cu112  1  0.07756386  0.58437355  0.40721712  1
  Cu+  Cu113  1  0.92293602  0.74309359  0.41102996  1
  Cu+  Cu114  1  0.59923505  0.07327478  0.41307665  1
  Cu+  Cu115  1  0.58755749  0.59449019  0.25890412  1
  Cu+  Cu116  1  0.73388090  0.40247004  0.92842932  1
  Cu+  Cu117  1  0.26425080  0.06666928  0.40080668  1
  Cu+  Cu118  1  0.07014105  0.07970574  0.25734436  1
  Cu+  Cu119  1  0.08151972  0.73841527  0.25765729  1
  Cu+  Cu120  1  0.73616177  0.26063446  0.73697463  1
  Cu+  Cu121  1  0.06758637  0.92941306  0.41115743  1
  Cu+  Cu122  1  0.93046888  0.26125947  0.26411780  1
  Cu+  Cu123  1  0.40409235  0.07278950  0.59466307  1
  Cu+  Cu124  1  0.93310017  0.40265019  0.06794550  1
  Cu+  Cu125  1  0.74085829  0.59260683  0.74615953  1
  Cu+  Cu126  1  0.92445126  0.58999351  0.24943440  1
  Cu+  Cu127  1  0.59685974  0.26321223  0.25838433  1
  Cu+  Cu128  1  0.26401489  0.25736483  0.92533758  1
  Cu+  Cu129  1  0.59267518  0.59865763  0.59449588  1
  Cu+  Cu130  1  0.26195953  0.59260308  0.59603396  1
  Cu+  Cu131  1  0.07704403  0.59490422  0.74482923  1
  Cu+  Cu132  1  0.59781880  0.92404538  0.25422445  1
  Te2-  Te133  1  0.25639426  0.25385257  0.07968222  1
  Te2-  Te134  1  0.25397646  0.25343410  0.41583315  1
  Te2-  Te135  1  0.25230067  0.24886551  0.74325591  1
  Te2-  Te136  1  0.25385942  0.58633718  0.08431395  1
  Te2-  Te137  1  0.25156899  0.58256426  0.41304469  1
  Te2-  Te138  1  0.25798013  0.58841056  0.74893387  1
  Te2-  Te139  1  0.24915871  0.92256804  0.08229487  1
  Te2-  Te140  1  0.25726035  0.91323716  0.40888210  1
  Te2-  Te141  1  0.24992666  0.91666775  0.74716016  1
  Te2-  Te142  1  0.58395002  0.24981062  0.08143501  1
  Te2-  Te143  1  0.58607818  0.25979347  0.41411841  1
  Te2-  Te144  1  0.58118981  0.25391859  0.74139286  1
  Te2-  Te145  1  0.58434930  0.58432126  0.07849518  1
  Te2-  Te146  1  0.58657373  0.58903237  0.41274237  1
  Te2-  Te147  1  0.58814399  0.58974047  0.74865138  1
  Te2-  Te148  1  0.58527905  0.91755310  0.08057093  1
  Te2-  Te149  1  0.58956478  0.92127782  0.41311250  1
  Te2-  Te150  1  0.58497833  0.92237566  0.74633057  1
  Te2-  Te151  1  0.92178917  0.25018274  0.07548797  1
  Te2-  Te152  1  0.92026478  0.25889514  0.41704439  1
  Te2-  Te153  1  0.91644571  0.25159777  0.75074408  1
  Te2-  Te154  1  0.91514174  0.58073408  0.07636439  1
  Te2-  Te155  1  0.92099047  0.59000287  0.41230053  1
  Te2-  Te156  1  0.92242929  0.58345058  0.74835787  1
  Te2-  Te157  1  0.92206588  0.91907491  0.08381376  1
  Te2-  Te158  1  0.91578835  0.92655896  0.41408432  1
  Te2-  Te159  1  0.92058836  0.91669129  0.74932382  1
  Te2-  Te160  1  0.25717809  0.07732158  0.24918189  1
  Te2-  Te161  1  0.24991002  0.07515561  0.58572109  1
  Te2-  Te162  1  0.25095478  0.07782967  0.91750943  1
  Te2-  Te163  1  0.25378260  0.41609259  0.25450364  1
  Te2-  Te164  1  0.25257048  0.41258612  0.58893103  1
  Te2-  Te165  1  0.25799194  0.41133912  0.92079961  1
  Te2-  Te166  1  0.24883099  0.75070820  0.25301316  1
  Te2-  Te167  1  0.25289348  0.74655590  0.58318061  1
  Te2-  Te168  1  0.25358272  0.74994719  0.92134083  1
  Te2-  Te169  1  0.59153135  0.07640216  0.25415867  1
  Te2-  Te170  1  0.58590895  0.08391310  0.58324346  1
  Te2-  Te171  1  0.58457355  0.08385985  0.91719053  1
  Te2-  Te172  1  0.58509905  0.41406922  0.25554450  1
  Te2-  Te173  1  0.58340299  0.41402160  0.58382986  1
  Te2-  Te174  1  0.58315461  0.41208138  0.91875709  1
  Te2-  Te175  1  0.58803871  0.74575612  0.25160039  1
  Te2-  Te176  1  0.58731317  0.75222983  0.58800717  1
  Te2-  Te177  1  0.58707698  0.74983802  0.91923313  1
  Te2-  Te178  1  0.91768039  0.08099972  0.25357902  1
  Te2-  Te179  1  0.91721097  0.08654666  0.58781193  1
  Te2-  Te180  1  0.91776135  0.08034757  0.91995462  1
  Te2-  Te181  1  0.91896908  0.41276384  0.25645202  1
  Te2-  Te182  1  0.91742643  0.41867148  0.58541384  1
  Te2-  Te183  1  0.92552184  0.40776379  0.91443918  1
  Te2-  Te184  1  0.92154578  0.74351497  0.25536762  1
  Te2-  Te185  1  0.91868181  0.75418142  0.59020378  1
  Te2-  Te186  1  0.91795496  0.74095271  0.91991616  1
  Te2-  Te187  1  0.08323609  0.25635357  0.25684576  1
  Te2-  Te188  1  0.08332951  0.24860185  0.58435248  1
  Te2-  Te189  1  0.07923376  0.25108341  0.91653063  1
  Te2-  Te190  1  0.07720879  0.58424287  0.25260465  1
  Te2-  Te191  1  0.07733472  0.58578407  0.59063821  1
  Te2-  Te192  1  0.08226964  0.58262924  0.92092997  1
  Te2-  Te193  1  0.07380339  0.92558957  0.25367156  1
  Te2-  Te194  1  0.08434103  0.91757202  0.58134549  1
  Te2-  Te195  1  0.08105005  0.91979189  0.91988041  1
  Te2-  Te196  1  0.41593827  0.25297148  0.25744585  1
  Te2-  Te197  1  0.41006378  0.25281875  0.58004633  1
  Te2-  Te198  1  0.41546445  0.25257359  0.91905192  1
  Te2-  Te199  1  0.41178386  0.58542406  0.25034868  1
  Te2-  Te200  1  0.41433270  0.59046986  0.58709038  1
  Te2-  Te201  1  0.41789466  0.58890102  0.92194379  1
  Te2-  Te202  1  0.41122978  0.91615621  0.25177037  1
  Te2-  Te203  1  0.41302762  0.91932337  0.58484093  1
  Te2-  Te204  1  0.41435128  0.91935982  0.91901486  1
  Te2-  Te205  1  0.74912158  0.25734767  0.25292858  1
  Te2-  Te206  1  0.74402113  0.25700037  0.58299295  1
  Te2-  Te207  1  0.74207388  0.24935245  0.92371873  1
  Te2-  Te208  1  0.74450594  0.58538184  0.25085598  1
  Te2-  Te209  1  0.74769196  0.59252139  0.58748974  1
  Te2-  Te210  1  0.75110760  0.57979648  0.92157916  1
  Te2-  Te211  1  0.75170721  0.91852624  0.25372127  1
  Te2-  Te212  1  0.74533518  0.92530831  0.58763212  1
  Te2-  Te213  1  0.74681001  0.91601225  0.92167944  1
  Te2-  Te214  1  0.08186483  0.08799956  0.07947787  1
  Te2-  Te215  1  0.07522566  0.08158542  0.41169804  1
  Te2-  Te216  1  0.07827794  0.07900568  0.74613010  1
  Te2-  Te217  1  0.08564548  0.41148250  0.07911608  1
  Te2-  Te218  1  0.07925851  0.41039744  0.41785517  1
  Te2-  Te219  1  0.08875810  0.40993314  0.74870976  1
  Te2-  Te220  1  0.08014039  0.74825693  0.07925273  1
  Te2-  Te221  1  0.07724755  0.74034840  0.41237327  1
  Te2-  Te222  1  0.07924161  0.74728624  0.74840835  1
  Te2-  Te223  1  0.41501000  0.08019616  0.08556147  1
  Te2-  Te224  1  0.41527889  0.07920542  0.40558830  1
  Te2-  Te225  1  0.41172367  0.07967884  0.74791188  1
  Te2-  Te226  1  0.41491408  0.40983153  0.08122650  1
  Te2-  Te227  1  0.41138937  0.41983376  0.41460714  1
  Te2-  Te228  1  0.41505698  0.41973954  0.74717078  1
  Te2-  Te229  1  0.41312127  0.74716651  0.08138797  1
  Te2-  Te230  1  0.41956309  0.74866643  0.41291423  1
  Te2-  Te231  1  0.41473867  0.74938956  0.74715237  1
  Te2-  Te232  1  0.74649958  0.08194767  0.08435847  1
  Te2-  Te233  1  0.75097975  0.08406130  0.41191644  1
  Te2-  Te234  1  0.74543081  0.07996152  0.74752831  1
  Te2-  Te235  1  0.74082608  0.40851457  0.08347594  1
  Te2-  Te236  1  0.74656894  0.42138950  0.41561956  1
  Te2-  Te237  1  0.74666501  0.41205422  0.74305706  1
  Te2-  Te238  1  0.75057590  0.74848488  0.08073557  1
  Te2-  Te239  1  0.74597005  0.75068174  0.41649136  1
  Te2-  Te240  1  0.74672496  0.74489655  0.74757711  1
