# generated using pymatgen
data_Ti27(Cu53Te54)2
_symmetry_space_group_name_H-M   'P 1'
_cell_length_a   17.87654237
_cell_length_b   17.87401136
_cell_length_c   17.87765246
_cell_angle_alpha   90.00451284
_cell_angle_beta   89.96686647
_cell_angle_gamma   89.95554087
_symmetry_Int_Tables_number   1
_chemical_formula_structural   Ti27(Cu53Te54)2
_chemical_formula_sum   'Ti27 Cu106 Te108'
_cell_volume   5712.36352744
_cell_formula_units_Z   1
loop_
 _symmetry_equiv_pos_site_id
 _symmetry_equiv_pos_as_xyz
  1  'x, y, z'
loop_
 _atom_type_symbol
 _atom_type_oxidation_number
  Ti4+  4.0
  Cu+  1.0
  Te2-  -2.0
loop_
 _atom_site_type_symbol
 _atom_site_label
 _atom_site_symmetry_multiplicity
 _atom_site_fract_x
 _atom_site_fract_y
 _atom_site_fract_z
 _atom_site_occupancy
  Ti4+  Ti0  1  0.16589268  0.16608694  0.16615098  1
  Ti4+  Ti1  1  0.16531549  0.16712605  0.49850477  1
  Ti4+  Ti2  1  0.16687700  0.16754638  0.83434445  1
  Ti4+  Ti3  1  0.16757000  0.50029291  0.16861136  1
  Ti4+  Ti4  1  0.16876431  0.49744854  0.50209790  1
  Ti4+  Ti5  1  0.16583076  0.50157180  0.83604294  1
  Ti4+  Ti6  1  0.16617890  0.83099358  0.16560443  1
  Ti4+  Ti7  1  0.16704862  0.83185155  0.49847291  1
  Ti4+  Ti8  1  0.16319558  0.83434736  0.83035434  1
  Ti4+  Ti9  1  0.49900703  0.16450113  0.16415520  1
  Ti4+  Ti10  1  0.49717685  0.16858505  0.49921711  1
  Ti4+  Ti11  1  0.50269795  0.16812075  0.83426198  1
  Ti4+  Ti12  1  0.50200655  0.49729540  0.16751297  1
  Ti4+  Ti13  1  0.50329108  0.50177565  0.50260519  1
  Ti4+  Ti14  1  0.50205502  0.50098014  0.83448434  1
  Ti4+  Ti15  1  0.50037334  0.83134423  0.16314585  1
  Ti4+  Ti16  1  0.50106629  0.83363983  0.50058648  1
  Ti4+  Ti17  1  0.49667324  0.83494087  0.83359676  1
  Ti4+  Ti18  1  0.83517201  0.16862744  0.16262752  1
  Ti4+  Ti19  1  0.83088466  0.16641556  0.49695355  1
  Ti4+  Ti20  1  0.83311292  0.16590028  0.83160073  1
  Ti4+  Ti21  1  0.83428139  0.50037125  0.17108980  1
  Ti4+  Ti22  1  0.83090604  0.49767581  0.50154254  1
  Ti4+  Ti23  1  0.83413564  0.50081604  0.83286954  1
  Ti4+  Ti24  1  0.83488458  0.83381248  0.16903933  1
  Ti4+  Ti25  1  0.83319286  0.83394354  0.50004380  1
  Ti4+  Ti26  1  0.83215969  0.83276576  0.83313895  1
  Cu+  Cu27  1  0.16364510  0.16561651  -0.00198055  1
  Cu+  Cu28  1  0.16857667  0.16570071  0.33182366  1
  Cu+  Cu29  1  0.16786195  0.16840623  0.66597417  1
  Cu+  Cu30  1  0.16519446  0.50522957  0.00520765  1
  Cu+  Cu31  1  0.16987163  0.49551847  0.33664300  1
  Cu+  Cu32  1  0.16452623  0.50146156  0.67142081  1
  Cu+  Cu33  1  0.16355687  0.82931910  -0.00604673  1
  Cu+  Cu34  1  0.16735592  0.82920915  0.33250784  1
  Cu+  Cu35  1  0.16626998  0.83599475  0.66415565  1
  Cu+  Cu36  1  0.50031075  0.16454010  -0.00368473  1
  Cu+  Cu37  1  0.49633281  0.16387345  0.33227944  1
  Cu+  Cu38  1  0.50222311  0.16910475  0.66698846  1
  Cu+  Cu39  1  0.49878772  0.50024438  0.00275205  1
  Cu+  Cu40  1  0.50730863  0.49693688  0.33528998  1
  Cu+  Cu41  1  0.50268790  0.50233094  0.66691455  1
  Cu+  Cu42  1  0.49752863  0.84072259  -0.00002738  1
  Cu+  Cu43  1  0.50206867  0.83143221  0.33208464  1
  Cu+  Cu44  1  0.49566541  0.83131811  0.66655944  1
  Cu+  Cu45  1  0.83728510  0.16908343  -0.00556537  1
  Cu+  Cu46  1  0.83043190  0.16576580  0.32804269  1
  Cu+  Cu47  1  0.83313662  0.16590670  0.66489677  1
  Cu+  Cu48  1  0.83442886  0.49946041  -0.00007060  1
  Cu+  Cu49  1  0.82774457  0.50245233  0.33812229  1
  Cu+  Cu50  1  0.83391608  0.49706323  0.66809348  1
  Cu+  Cu51  1  0.83477043  0.83614558  0.00407536  1
  Cu+  Cu52  1  0.83534016  0.83575980  0.33481878  1
  Cu+  Cu53  1  0.83121444  0.83096775  0.66587512  1
  Cu+  Cu54  1  0.16652416  -0.00153157  0.16269326  1
  Cu+  Cu55  1  0.16552709  -0.00076380  0.49556012  1
  Cu+  Cu56  1  0.16180373  0.00169117  0.83305033  1
  Cu+  Cu57  1  0.16838077  0.32993094  0.16888683  1
  Cu+  Cu58  1  0.16948838  0.33189925  0.50385616  1
  Cu+  Cu59  1  0.17452885  0.33634868  0.83749400  1
  Cu+  Cu60  1  0.16165176  0.66738697  0.16934273  1
  Cu+  Cu61  1  0.16998114  0.66233797  0.49927699  1
  Cu+  Cu62  1  0.15894752  0.66771775  0.83055351  1
  Cu+  Cu63  1  0.49749726  -0.00308363  0.16184908  1
  Cu+  Cu64  1  0.49753087  0.00033531  0.49686733  1
  Cu+  Cu65  1  0.50078550  -0.00088848  0.83813868  1
  Cu+  Cu66  1  0.50170117  0.33154325  0.16658318  1
  Cu+  Cu67  1  0.50441648  0.33449886  0.50391079  1
  Cu+  Cu68  1  0.50525314  0.33504463  0.83423217  1
  Cu+  Cu69  1  0.49875538  0.66253937  0.16479072  1
  Cu+  Cu70  1  0.50167595  0.67057862  0.50870798  1
  Cu+  Cu71  1  0.49944737  0.66872806  0.83298650  1
  Cu+  Cu72  1  0.83153305  0.00166460  0.16686332  1
  Cu+  Cu73  1  0.83068511  -0.00051837  0.49641937  1
  Cu+  Cu74  1  0.83080756  -0.00129805  0.82806314  1
  Cu+  Cu75  1  0.84185427  0.33744210  0.16731105  1
  Cu+  Cu76  1  0.83427749  0.33048444  0.50269704  1
  Cu+  Cu77  1  0.83541626  0.33316365  0.83342019  1
  Cu+  Cu78  1  0.83363633  0.66855361  0.17029860  1
  Cu+  Cu79  1  0.82961391  0.66665608  0.49839436  1
  Cu+  Cu80  1  0.83328310  0.66626297  0.83381928  1
  Cu+  Cu81  1  0.00113162  0.17433617  0.16351350  1
  Cu+  Cu82  1  -0.00122133  0.16692175  0.49794059  1
  Cu+  Cu83  1  0.00003240  0.16458211  0.83627129  1
  Cu+  Cu84  1  -0.00144959  0.49893318  0.16793393  1
  Cu+  Cu85  1  0.00033203  0.49495350  0.50130638  1
  Cu+  Cu86  1  0.00334202  0.50378577  0.82808269  1
  Cu+  Cu87  1  -0.00029146  0.83169622  0.17158813  1
  Cu+  Cu88  1  -0.00147140  0.83070802  0.49902408  1
  Cu+  Cu89  1  -0.00299564  0.83165638  0.83420372  1
  Cu+  Cu90  1  0.32989604  0.16611083  0.16816006  1
  Cu+  Cu91  1  0.33035091  0.16869846  0.50086181  1
  Cu+  Cu92  1  0.33635181  0.16757398  0.83623022  1
  Cu+  Cu93  1  0.33833365  0.49988183  0.16588525  1
  Cu+  Cu94  1  0.33657699  0.49661726  0.50427873  1
  Cu+  Cu95  1  0.33261906  0.49984303  0.83526861  1
  Cu+  Cu96  1  0.33250746  0.83215586  0.16127258  1
  Cu+  Cu97  1  0.33351251  0.83105253  0.50001707  1
  Cu+  Cu98  1  0.32667809  0.83484646  0.82835135  1
  Cu+  Cu99  1  0.66929008  0.16126565  0.16492444  1
  Cu+  Cu100  1  0.66306605  0.16790993  0.49831362  1
  Cu+  Cu101  1  0.66686497  0.16923926  0.83241884  1
  Cu+  Cu102  1  0.66767394  0.49884753  0.17011480  1
  Cu+  Cu103  1  0.66668494  0.50392909  0.49543237  1
  Cu+  Cu104  1  0.66983665  0.49889666  0.83354980  1
  Cu+  Cu105  1  0.66765119  0.83207686  0.16672004  1
  Cu+  Cu106  1  0.66695401  0.83652662  0.49941708  1
  Cu+  Cu107  1  0.66496440  0.83505933  0.83415256  1
  Cu+  Cu108  1  0.40787827  0.59165712  0.07176895  1
  Cu+  Cu109  1  0.92662430  0.41492421  0.07023573  1
  Cu+  Cu110  1  0.06950968  0.07107355  0.92808817  1
  Cu+  Cu111  1  0.40013283  0.92805762  0.07653444  1
  Cu+  Cu112  1  0.92393889  0.26109855  0.26225946  1
  Cu+  Cu113  1  0.07193164  0.59763656  0.73397241  1
  Cu+  Cu114  1  0.40643375  0.07299155  0.92251835  1
  Cu+  Cu115  1  0.59507006  0.40275800  0.40698050  1
  Cu+  Cu116  1  0.73868763  0.07199927  0.25787925  1
  Cu+  Cu117  1  0.07134936  0.74118420  0.26588631  1
  Cu+  Cu118  1  0.26214337  0.25877215  0.26208329  1
  Cu+  Cu119  1  0.40111541  0.74392503  0.59523824  1
  Cu+  Cu120  1  0.41141796  0.40796026  0.59594330  1
  Cu+  Cu121  1  0.92736206  0.25529518  0.59382558  1
  Cu+  Cu122  1  0.26509214  0.26290953  0.92781271  1
  Cu+  Cu123  1  0.08075457  0.26117905  0.07124428  1
  Cu+  Cu124  1  0.59660442  0.59856928  0.59778294  1
  Cu+  Cu125  1  0.92793516  0.26221561  0.91827138  1
  Cu+  Cu126  1  0.59841686  0.92378296  0.92821204  1
  Cu+  Cu127  1  0.06792934  0.73855057  0.92227092  1
  Cu+  Cu128  1  0.25871082  0.25681775  0.59610910  1
  Cu+  Cu129  1  0.59581095  0.25813004  0.59365502  1
  Cu+  Cu130  1  0.06784365  0.59548249  0.08230143  1
  Cu+  Cu131  1  0.59554172  0.26395466  0.93013551  1
  Cu+  Cu132  1  0.73819645  0.59999805  0.40575183  1
  Te2-  Te133  1  0.25361029  0.25218763  0.07801410  1
  Te2-  Te134  1  0.25319959  0.25443599  0.41277933  1
  Te2-  Te135  1  0.25583831  0.25287424  0.74933109  1
  Te2-  Te136  1  0.25386568  0.58851634  0.08491654  1
  Te2-  Te137  1  0.25634415  0.58047233  0.41657397  1
  Te2-  Te138  1  0.25166494  0.58699776  0.75118467  1
  Te2-  Te139  1  0.24782820  0.91711976  0.07495060  1
  Te2-  Te140  1  0.25286507  0.91552128  0.41298899  1
  Te2-  Te141  1  0.24754877  0.92290345  0.74611507  1
  Te2-  Te142  1  0.58766226  0.24954849  0.08138621  1
  Te2-  Te143  1  0.58375191  0.25113387  0.40931415  1
  Te2-  Te144  1  0.58860656  0.25565706  0.74645025  1
  Te2-  Te145  1  0.58889542  0.58288139  0.08214773  1
  Te2-  Te146  1  0.58394563  0.59350216  0.41346848  1
  Te2-  Te147  1  0.58865153  0.58786876  0.75054688  1
  Te2-  Te148  1  0.59075407  0.92047526  0.08103129  1
  Te2-  Te149  1  0.58425238  0.91950821  0.41330796  1
  Te2-  Te150  1  0.58133189  0.91884299  0.74639585  1
  Te2-  Te151  1  0.92335812  0.25848056  0.07246724  1
  Te2-  Te152  1  0.91766548  0.25246033  0.41167187  1
  Te2-  Te153  1  0.92171241  0.25152509  0.74688582  1
  Te2-  Te154  1  0.91687518  0.58863461  0.08198496  1
  Te2-  Te155  1  0.91900952  0.58259360  0.41856457  1
  Te2-  Te156  1  0.91747693  0.58790919  0.74468399  1
  Te2-  Te157  1  0.92078526  0.92003824  0.08559885  1
  Te2-  Te158  1  0.92023824  0.91964940  0.41524142  1
  Te2-  Te159  1  0.91775723  0.91641485  0.74614300  1
  Te2-  Te160  1  0.25023079  0.07709564  0.25029768  1
  Te2-  Te161  1  0.24991449  0.07986545  0.58378986  1
  Te2-  Te162  1  0.25177993  0.07865065  0.91993924  1
  Te2-  Te163  1  0.25574373  0.41402025  0.25141583  1
  Te2-  Te164  1  0.25417969  0.41327160  0.59400299  1
  Te2-  Te165  1  0.25429400  0.41908898  0.92631019  1
  Te2-  Te166  1  0.25455298  0.74636979  0.24888277  1
  Te2-  Te167  1  0.25046414  0.74525147  0.58748881  1
  Te2-  Te168  1  0.24992783  0.74621084  0.91318901  1
  Te2-  Te169  1  0.58239673  0.07785532  0.25063302  1
  Te2-  Te170  1  0.58210899  0.08068324  0.58289656  1
  Te2-  Te171  1  0.59137718  0.07994876  0.91938408  1
  Te2-  Te172  1  0.58986323  0.40919407  0.25220449  1
  Te2-  Te173  1  0.59295449  0.41528935  0.58905611  1
  Te2-  Te174  1  0.58821306  0.41729146  0.92279198  1
  Te2-  Te175  1  0.58439254  0.74581232  0.24877546  1
  Te2-  Te176  1  0.59184513  0.75187186  0.59051920  1
  Te2-  Te177  1  0.58205314  0.75039851  0.92015835  1
  Te2-  Te178  1  0.92226578  0.08347751  0.24789360  1
  Te2-  Te179  1  0.91642766  0.08043200  0.58160809  1
  Te2-  Te180  1  0.91663522  0.07488973  0.91769939  1
  Te2-  Te181  1  0.92107596  0.41778065  0.26188605  1
  Te2-  Te182  1  0.91957368  0.41225944  0.58772800  1
  Te2-  Te183  1  0.92539594  0.41588447  0.91749589  1
  Te2-  Te184  1  0.91875002  0.74547753  0.25755021  1
  Te2-  Te185  1  0.91646976  0.74540650  0.58411592  1
  Te2-  Te186  1  0.91602546  0.74668389  0.92233455  1
  Te2-  Te187  1  0.08047923  0.25368967  0.25638258  1
  Te2-  Te188  1  0.07920211  0.25313248  0.58688526  1
  Te2-  Te189  1  0.07986250  0.25920697  0.91823694  1
  Te2-  Te190  1  0.08040001  0.58203630  0.25772513  1
  Te2-  Te191  1  0.07981095  0.58456941  0.58353756  1
  Te2-  Te192  1  0.07556030  0.58678352  0.92427874  1
  Te2-  Te193  1  0.08404958  0.91887227  0.25196800  1
  Te2-  Te194  1  0.08020998  0.91831858  0.58155330  1
  Te2-  Te195  1  0.07682888  0.91972044  0.91947222  1
  Te2-  Te196  1  0.41493470  0.25157359  0.25087908  1
  Te2-  Te197  1  0.41145141  0.25485396  0.58964944  1
  Te2-  Te198  1  0.41642474  0.25807566  0.92046885  1
  Te2-  Te199  1  0.41834055  0.58172124  0.25674777  1
  Te2-  Te200  1  0.41242973  0.58735999  0.58911180  1
  Te2-  Te201  1  0.41436387  0.58688499  0.91845518  1
  Te2-  Te202  1  0.41432691  0.91537600  0.25036096  1
  Te2-  Te203  1  0.41386941  0.91998592  0.58435691  1
  Te2-  Te204  1  0.40393420  0.92023291  0.91895155  1
  Te2-  Te205  1  0.74814689  0.25552084  0.24628787  1
  Te2-  Te206  1  0.74594262  0.25173115  0.58638987  1
  Te2-  Te207  1  0.74746229  0.25451571  0.91893354  1
  Te2-  Te208  1  0.74551381  0.58826276  0.25299802  1
  Te2-  Te209  1  0.74771640  0.58533414  0.58951381  1
  Te2-  Te210  1  0.74944536  0.58453586  0.91975551  1
  Te2-  Te211  1  0.74614546  0.91891359  0.25406758  1
  Te2-  Te212  1  0.74801910  0.92004874  0.58565806  1
  Te2-  Te213  1  0.74965496  0.92079386  0.92053902  1
  Te2-  Te214  1  0.07749774  0.07869062  0.08113858  1
  Te2-  Te215  1  0.08080962  0.08276156  0.41237891  1
  Te2-  Te216  1  0.08097122  0.08509731  0.74567423  1
  Te2-  Te217  1  0.08137686  0.41226381  0.08095789  1
  Te2-  Te218  1  0.08348666  0.41159488  0.41732192  1
  Te2-  Te219  1  0.08446187  0.41050376  0.75126092  1
  Te2-  Te220  1  0.07529866  0.74717405  0.07793084  1
  Te2-  Te221  1  0.08060750  0.74264713  0.41608202  1
  Te2-  Te222  1  0.07620064  0.75063657  0.74124818  1
  Te2-  Te223  1  0.40865187  0.08085035  0.07808206  1
  Te2-  Te224  1  0.41080987  0.08260460  0.41565296  1
  Te2-  Te225  1  0.41713048  0.08246032  0.74864377  1
  Te2-  Te226  1  0.41596356  0.41066554  0.08137953  1
  Te2-  Te227  1  0.41836434  0.41444591  0.41636935  1
  Te2-  Te228  1  0.41591739  0.41492821  0.74964244  1
  Te2-  Te229  1  0.41430724  0.74529243  0.07600349  1
  Te2-  Te230  1  0.41769480  0.74583716  0.41502931  1
  Te2-  Te231  1  0.41000923  0.74631953  0.74914665  1
  Te2-  Te232  1  0.75207555  0.08218872  0.07477639  1
  Te2-  Te233  1  0.74357863  0.08129826  0.41202864  1
  Te2-  Te234  1  0.74640725  0.08282001  0.74599488  1
  Te2-  Te235  1  0.74977781  0.41499146  0.08417949  1
  Te2-  Te236  1  0.74709676  0.40842484  0.41505441  1
  Te2-  Te237  1  0.74932089  0.41256422  0.74890461  1
  Te2-  Te238  1  0.75019631  0.74804316  0.08257656  1
  Te2-  Te239  1  0.74512543  0.75082090  0.41170742  1
  Te2-  Te240  1  0.74551534  0.74775066  0.74997689  1
