# generated using pymatgen
data_Ti27(Cu53Te54)2
_symmetry_space_group_name_H-M   'P 1'
_cell_length_a   17.86952539
_cell_length_b   17.87181421
_cell_length_c   17.87265482
_cell_angle_alpha   89.99522904
_cell_angle_beta   89.96278181
_cell_angle_gamma   90.00690924
_symmetry_Int_Tables_number   1
_chemical_formula_structural   Ti27(Cu53Te54)2
_chemical_formula_sum   'Ti27 Cu106 Te108'
_cell_volume   5707.82475047
_cell_formula_units_Z   1
loop_
 _symmetry_equiv_pos_site_id
 _symmetry_equiv_pos_as_xyz
  1  'x, y, z'
loop_
 _atom_type_symbol
 _atom_type_oxidation_number
  Ti4+  4.0
  Cu+  1.0
  Te2-  -2.0
loop_
 _atom_site_type_symbol
 _atom_site_label
 _atom_site_symmetry_multiplicity
 _atom_site_fract_x
 _atom_site_fract_y
 _atom_site_fract_z
 _atom_site_occupancy
  Ti4+  Ti0  1  0.16145084  0.16592594  0.16525619  1
  Ti4+  Ti1  1  0.16627230  0.16492915  0.49959568  1
  Ti4+  Ti2  1  0.16569537  0.16744585  0.83202680  1
  Ti4+  Ti3  1  0.16778508  0.50028651  0.16670717  1
  Ti4+  Ti4  1  0.16954350  0.49788538  0.49953662  1
  Ti4+  Ti5  1  0.16935479  0.49994504  0.83311280  1
  Ti4+  Ti6  1  0.16613642  0.83258942  0.17016109  1
  Ti4+  Ti7  1  0.16580677  0.82870003  0.50225464  1
  Ti4+  Ti8  1  0.16937947  0.83458889  0.83360379  1
  Ti4+  Ti9  1  0.49647614  0.16649302  0.16622270  1
  Ti4+  Ti10  1  0.50136925  0.16462605  0.49741635  1
  Ti4+  Ti11  1  0.50010543  0.16717894  0.83605189  1
  Ti4+  Ti12  1  0.49744689  0.50221753  0.16816916  1
  Ti4+  Ti13  1  0.50197335  0.49861251  0.49650315  1
  Ti4+  Ti14  1  0.49691482  0.49977445  0.83287969  1
  Ti4+  Ti15  1  0.50190716  0.83025262  0.16394168  1
  Ti4+  Ti16  1  0.49904834  0.83493470  0.49747547  1
  Ti4+  Ti17  1  0.50312202  0.83254231  0.83227480  1
  Ti4+  Ti18  1  0.83284890  0.17122139  0.16678955  1
  Ti4+  Ti19  1  0.83060699  0.16789903  0.50171643  1
  Ti4+  Ti20  1  0.83383085  0.16330831  0.83478844  1
  Ti4+  Ti21  1  0.83422055  0.50025172  0.16825801  1
  Ti4+  Ti22  1  0.83602039  0.50174145  0.49937738  1
  Ti4+  Ti23  1  0.83352169  0.50014938  0.83352426  1
  Ti4+  Ti24  1  0.83352721  0.83306426  0.16624269  1
  Ti4+  Ti25  1  0.83256242  0.83730843  0.49932026  1
  Ti4+  Ti26  1  0.83514985  0.83428478  0.83483242  1
  Cu+  Cu27  1  0.16014465  0.17043071  -0.00290917  1
  Cu+  Cu28  1  0.16496736  0.16230535  0.33329040  1
  Cu+  Cu29  1  0.16625513  0.16702139  0.66415905  1
  Cu+  Cu30  1  0.16783060  0.50344224  -0.00083572  1
  Cu+  Cu31  1  0.17134246  0.50056885  0.33136114  1
  Cu+  Cu32  1  0.17289897  0.49623830  0.66598410  1
  Cu+  Cu33  1  0.16751756  0.83429300  0.00150930  1
  Cu+  Cu34  1  0.15788030  0.82722491  0.33591509  1
  Cu+  Cu35  1  0.17491682  0.83150671  0.66938250  1
  Cu+  Cu36  1  0.49870924  0.16742566  0.00375324  1
  Cu+  Cu37  1  0.50054163  0.16703337  0.33033494  1
  Cu+  Cu38  1  0.50067471  0.16479212  0.66868306  1
  Cu+  Cu39  1  0.49060270  0.50107471  -0.00143156  1
  Cu+  Cu40  1  0.49536777  0.50325735  0.33402919  1
  Cu+  Cu41  1  0.50108233  0.49913730  0.66602763  1
  Cu+  Cu42  1  0.50741631  0.83004769  -0.00231438  1
  Cu+  Cu43  1  0.49816220  0.82974725  0.33003233  1
  Cu+  Cu44  1  0.50199804  0.83556025  0.66091723  1
  Cu+  Cu45  1  0.83597530  0.16249970  0.00201477  1
  Cu+  Cu46  1  0.83359663  0.17236791  0.33367274  1
  Cu+  Cu47  1  0.83173237  0.16380252  0.67171008  1
  Cu+  Cu48  1  0.83207640  0.49839593  0.00136055  1
  Cu+  Cu49  1  0.83595448  0.50223009  0.33517085  1
  Cu+  Cu50  1  0.83448647  0.50010347  0.66535762  1
  Cu+  Cu51  1  0.83531797  0.83239742  -0.00149468  1
  Cu+  Cu52  1  0.83214843  0.83812837  0.33343010  1
  Cu+  Cu53  1  0.83124274  0.83627688  0.66901105  1
  Cu+  Cu54  1  0.16222703  -0.00350890  0.16427412  1
  Cu+  Cu55  1  0.16636657  -0.00187789  0.50126688  1
  Cu+  Cu56  1  0.16630588  0.00221098  0.83484515  1
  Cu+  Cu57  1  0.16143512  0.33113578  0.16248249  1
  Cu+  Cu58  1  0.16818900  0.33093792  0.49747516  1
  Cu+  Cu59  1  0.17031137  0.33446885  0.83048659  1
  Cu+  Cu60  1  0.16692524  0.66849642  0.17398238  1
  Cu+  Cu61  1  0.16654358  0.66316221  0.50231771  1
  Cu+  Cu62  1  0.17135889  0.66812800  0.83199285  1
  Cu+  Cu63  1  0.49751605  0.00003969  0.16365183  1
  Cu+  Cu64  1  0.50112265  -0.00066558  0.49879912  1
  Cu+  Cu65  1  0.50377089  0.00081233  0.83763506  1
  Cu+  Cu66  1  0.49646129  0.33160812  0.17361081  1
  Cu+  Cu67  1  0.50328758  0.32965648  0.49888812  1
  Cu+  Cu68  1  0.49542802  0.33610194  0.83714078  1
  Cu+  Cu69  1  0.50552528  0.66664167  0.16079368  1
  Cu+  Cu70  1  0.50004256  0.66840819  0.49523562  1
  Cu+  Cu71  1  0.49851016  0.66517479  0.83153778  1
  Cu+  Cu72  1  0.83354880  0.00407261  0.16621538  1
  Cu+  Cu73  1  0.82810535  0.00129709  0.49495842  1
  Cu+  Cu74  1  0.83538928  -0.00154917  0.82910524  1
  Cu+  Cu75  1  0.83598479  0.33552101  0.17147333  1
  Cu+  Cu76  1  0.83119018  0.33868564  0.50435610  1
  Cu+  Cu77  1  0.83380938  0.33205013  0.83543959  1
  Cu+  Cu78  1  0.83446821  0.66552369  0.16624110  1
  Cu+  Cu79  1  0.83616926  0.66938173  0.49996947  1
  Cu+  Cu80  1  0.83318288  0.66666581  0.83472162  1
  Cu+  Cu81  1  -0.00307914  0.17345637  0.16257033  1
  Cu+  Cu82  1  -0.00098984  0.16607200  0.50303846  1
  Cu+  Cu83  1  -0.00133907  0.16123615  0.83200852  1
  Cu+  Cu84  1  -0.00083595  0.49909533  0.16494380  1
  Cu+  Cu85  1  0.00266072  0.50048750  0.49750286  1
  Cu+  Cu86  1  0.00107692  0.50178964  0.83313827  1
  Cu+  Cu87  1  0.00263810  0.83254443  0.16936343  1
  Cu+  Cu88  1  0.00052204  0.83569651  0.49814356  1
  Cu+  Cu89  1  0.00238459  0.83232298  0.83588224  1
  Cu+  Cu90  1  0.32836353  0.16285798  0.16441337  1
  Cu+  Cu91  1  0.33542436  0.16313378  0.49560207  1
  Cu+  Cu92  1  0.33316716  0.16694350  0.83434169  1
  Cu+  Cu93  1  0.33272693  0.50350151  0.17084894  1
  Cu+  Cu94  1  0.33739042  0.49949953  0.49667553  1
  Cu+  Cu95  1  0.33317906  0.49166784  0.83387425  1
  Cu+  Cu96  1  0.33414315  0.82998380  0.16674503  1
  Cu+  Cu97  1  0.32877588  0.83416808  0.50434428  1
  Cu+  Cu98  1  0.33521842  0.83044966  0.82946307  1
  Cu+  Cu99  1  0.66332371  0.17076618  0.16832114  1
  Cu+  Cu100  1  0.66358038  0.16870787  0.50266434  1
  Cu+  Cu101  1  0.66882729  0.16773605  0.83493481  1
  Cu+  Cu102  1  0.66726253  0.50231967  0.16992133  1
  Cu+  Cu103  1  0.67193093  0.49878443  0.49942700  1
  Cu+  Cu104  1  0.66315575  0.50098998  0.83456455  1
  Cu+  Cu105  1  0.66665849  0.82849520  0.16181380  1
  Cu+  Cu106  1  0.66568929  0.83884794  0.49663595  1
  Cu+  Cu107  1  0.66829990  0.83957893  0.83669117  1
  Cu+  Cu108  1  0.73499989  0.92796817  0.39914935  1
  Cu+  Cu109  1  0.74329416  0.26142409  0.74880999  1
  Cu+  Cu110  1  0.40371909  0.59562795  0.07011667  1
  Cu+  Cu111  1  0.25469823  0.93031971  0.59651571  1
  Cu+  Cu112  1  0.07604610  0.92877619  0.41058100  1
  Cu+  Cu113  1  0.07034152  0.26584819  0.06540058  1
  Cu+  Cu114  1  0.06747863  0.73502702  0.26255568  1
  Cu+  Cu115  1  0.59349702  0.92744701  0.58912143  1
  Cu+  Cu116  1  0.40593673  0.59847320  0.41171361  1
  Cu+  Cu117  1  0.07484818  0.92060830  0.07077830  1
  Cu+  Cu118  1  0.59681272  0.59413123  0.26159529  1
  Cu+  Cu119  1  0.25917195  0.59711561  0.26066899  1
  Cu+  Cu120  1  0.92956631  0.26232826  0.26559159  1
  Cu+  Cu121  1  0.59301037  0.25957741  0.25944179  1
  Cu+  Cu122  1  0.26463061  0.73577000  0.74063683  1
  Cu+  Cu123  1  0.93032127  0.07118600  0.73583469  1
  Cu+  Cu124  1  0.58213353  0.26055906  0.59862566  1
  Cu+  Cu125  1  0.26081347  0.40076246  0.73403188  1
  Cu+  Cu126  1  0.92506530  0.07353559  0.07755609  1
  Cu+  Cu127  1  0.40294840  0.40244942  0.93077766  1
  Cu+  Cu128  1  0.59533592  0.93117023  0.93065696  1
  Cu+  Cu129  1  0.40368689  0.40263295  0.26269151  1
  Cu+  Cu130  1  0.74162333  0.41478439  0.59531106  1
  Cu+  Cu131  1  0.59922228  0.73460009  0.06646698  1
  Cu+  Cu132  1  0.73958349  0.92493268  0.74153953  1
  Te2-  Te133  1  0.24916184  0.24994678  0.08038462  1
  Te2-  Te134  1  0.25181200  0.24818940  0.41237966  1
  Te2-  Te135  1  0.25479993  0.24961018  0.74462293  1
  Te2-  Te136  1  0.25128376  0.59022900  0.08125425  1
  Te2-  Te137  1  0.25477596  0.58902294  0.41338217  1
  Te2-  Te138  1  0.25822840  0.58409259  0.74717788  1
  Te2-  Te139  1  0.25369260  0.91713717  0.08365178  1
  Te2-  Te140  1  0.24845540  0.91401521  0.41210825  1
  Te2-  Te141  1  0.25627059  0.92497175  0.75011829  1
  Te2-  Te142  1  0.58181898  0.25624489  0.08276122  1
  Te2-  Te143  1  0.58824199  0.25271461  0.41103657  1
  Te2-  Te144  1  0.58580330  0.25699883  0.75066218  1
  Te2-  Te145  1  0.58765958  0.58051685  0.07496632  1
  Te2-  Te146  1  0.59069420  0.58555896  0.41419755  1
  Te2-  Te147  1  0.58414263  0.58452687  0.74684448  1
  Te2-  Te148  1  0.58756366  0.92153881  0.08171432  1
  Te2-  Te149  1  0.58273780  0.92073083  0.40636614  1
  Te2-  Te150  1  0.58624735  0.92290996  0.74420119  1
  Te2-  Te151  1  0.91637423  0.25955087  0.07541668  1
  Te2-  Te152  1  0.91824774  0.25542648  0.42033409  1
  Te2-  Te153  1  0.91916701  0.25117032  0.74881703  1
  Te2-  Te154  1  0.91883880  0.58457507  0.08052366  1
  Te2-  Te155  1  0.92153042  0.58829595  0.41470161  1
  Te2-  Te156  1  0.91760241  0.58565101  0.74789692  1
  Te2-  Te157  1  0.92085011  0.91877995  0.07989618  1
  Te2-  Te158  1  0.92011818  0.92336555  0.41269877  1
  Te2-  Te159  1  0.92541124  0.91728368  0.74641347  1
  Te2-  Te160  1  0.24696099  0.07842490  0.24893902  1
  Te2-  Te161  1  0.25463494  0.08121221  0.58559336  1
  Te2-  Te162  1  0.24970949  0.08413570  0.92024415  1
  Te2-  Te163  1  0.25067012  0.40857087  0.25039823  1
  Te2-  Te164  1  0.25795450  0.41073318  0.58085960  1
  Te2-  Te165  1  0.25086227  0.41126335  0.92491948  1
  Te2-  Te166  1  0.25578925  0.74990253  0.25849077  1
  Te2-  Te167  1  0.25509020  0.74031676  0.58647221  1
  Te2-  Te168  1  0.25397919  0.74995549  0.92119839  1
  Te2-  Te169  1  0.58370525  0.07917112  0.24890061  1
  Te2-  Te170  1  0.58680996  0.07944588  0.58742389  1
  Te2-  Te171  1  0.58829223  0.08475349  0.92372785  1
  Te2-  Te172  1  0.58510938  0.41618614  0.25530698  1
  Te2-  Te173  1  0.58748870  0.41341579  0.58703273  1
  Te2-  Te174  1  0.58258822  0.41707938  0.92178942  1
  Te2-  Te175  1  0.58828121  0.74610843  0.25397037  1
  Te2-  Te176  1  0.58656113  0.74785032  0.58020042  1
  Te2-  Te177  1  0.59058294  0.74236526  0.91407596  1
  Te2-  Te178  1  0.91937265  0.08552288  0.25275475  1
  Te2-  Te179  1  0.91582106  0.07899973  0.58423784  1
  Te2-  Te180  1  0.92040814  0.07545277  0.92057549  1
  Te2-  Te181  1  0.92278458  0.41649396  0.25621936  1
  Te2-  Te182  1  0.92314002  0.41624282  0.58549403  1
  Te2-  Te183  1  0.91899417  0.41518269  0.91810841  1
  Te2-  Te184  1  0.91634894  0.74775854  0.25454820  1
  Te2-  Te185  1  0.91775362  0.75354123  0.58605874  1
  Te2-  Te186  1  0.92045081  0.74670563  0.91863304  1
  Te2-  Te187  1  0.08045725  0.25291048  0.25617709  1
  Te2-  Te188  1  0.08174319  0.25279385  0.58428842  1
  Te2-  Te189  1  0.07646539  0.25597712  0.91264722  1
  Te2-  Te190  1  0.07779642  0.58254805  0.25396906  1
  Te2-  Te191  1  0.08422284  0.58063535  0.58737164  1
  Te2-  Te192  1  0.08401494  0.58792058  0.91645175  1
  Te2-  Te193  1  0.07846089  0.92156060  0.25629649  1
  Te2-  Te194  1  0.08288464  0.91510257  0.59030432  1
  Te2-  Te195  1  0.08109947  0.92042376  0.91889737  1
  Te2-  Te196  1  0.40526750  0.24829260  0.25402117  1
  Te2-  Te197  1  0.41494284  0.24898066  0.58385385  1
  Te2-  Te198  1  0.41189670  0.25069450  0.92256715  1
  Te2-  Te199  1  0.41302840  0.59566434  0.25477842  1
  Te2-  Te200  1  0.41832230  0.58474051  0.58343088  1
  Te2-  Te201  1  0.40784764  0.58932394  0.91563624  1
  Te2-  Te202  1  0.41589550  0.91649014  0.24885696  1
  Te2-  Te203  1  0.41216299  0.92172649  0.58494691  1
  Te2-  Te204  1  0.41617106  0.91459027  0.91841626  1
  Te2-  Te205  1  0.74572382  0.25687976  0.25430780  1
  Te2-  Te206  1  0.74411603  0.25452360  0.59127705  1
  Te2-  Te207  1  0.75033333  0.25027400  0.92308318  1
  Te2-  Te208  1  0.74995474  0.58832674  0.25528619  1
  Te2-  Te209  1  0.74939359  0.58853258  0.58503223  1
  Te2-  Te210  1  0.74756195  0.58407366  0.91894216  1
  Te2-  Te211  1  0.74533079  0.92081284  0.24714059  1
  Te2-  Te212  1  0.74587191  0.92462371  0.58784077  1
  Te2-  Te213  1  0.75105127  0.92371523  0.92379905  1
  Te2-  Te214  1  0.07652388  0.07793158  0.07688580  1
  Te2-  Te215  1  0.07741695  0.08012631  0.41534652  1
  Te2-  Te216  1  0.08272971  0.07885957  0.74424070  1
  Te2-  Te217  1  0.08027467  0.41813276  0.07763646  1
  Te2-  Te218  1  0.08494379  0.41510952  0.41247248  1
  Te2-  Te219  1  0.08222571  0.41588301  0.74769420  1
  Te2-  Te220  1  0.08289400  0.74521397  0.08238673  1
  Te2-  Te221  1  0.07618828  0.73916431  0.41871758  1
  Te2-  Te222  1  0.08332165  0.74941840  0.74790893  1
  Te2-  Te223  1  0.41169189  0.08016336  0.07983068  1
  Te2-  Te224  1  0.41722898  0.07909692  0.41102218  1
  Te2-  Te225  1  0.41674036  0.08081035  0.75165761  1
  Te2-  Te226  1  0.41064665  0.41212547  0.08475386  1
  Te2-  Te227  1  0.41512451  0.40804684  0.41430364  1
  Te2-  Te228  1  0.41482575  0.41122736  0.74172719  1
  Te2-  Te229  1  0.41338230  0.74741280  0.07663382  1
  Te2-  Te230  1  0.40952697  0.75096513  0.41320981  1
  Te2-  Te231  1  0.41897725  0.74755236  0.74257526  1
  Te2-  Te232  1  0.74397723  0.08499212  0.08390846  1
  Te2-  Te233  1  0.74474865  0.08593651  0.41132467  1
  Te2-  Te234  1  0.74239782  0.07812142  0.74795571  1
  Te2-  Te235  1  0.74723066  0.41446616  0.08522787  1
  Te2-  Te236  1  0.75019849  0.41484174  0.41159275  1
  Te2-  Te237  1  0.74368503  0.41374363  0.74797454  1
  Te2-  Te238  1  0.75157253  0.74494280  0.07813237  1
  Te2-  Te239  1  0.74818457  0.74988432  0.41517204  1
  Te2-  Te240  1  0.74725101  0.74938026  0.75098686  1
