# generated using pymatgen
data_Ti27(Cu53Te54)2
_symmetry_space_group_name_H-M   'P 1'
_cell_length_a   17.90397723
_cell_length_b   17.90107358
_cell_length_c   17.90121213
_cell_angle_alpha   89.91915925
_cell_angle_beta   90.04827346
_cell_angle_gamma   90.04010138
_symmetry_Int_Tables_number   1
_chemical_formula_structural   Ti27(Cu53Te54)2
_chemical_formula_sum   'Ti27 Cu106 Te108'
_cell_volume   5737.33674786
_cell_formula_units_Z   1
loop_
 _symmetry_equiv_pos_site_id
 _symmetry_equiv_pos_as_xyz
  1  'x, y, z'
loop_
 _atom_type_symbol
 _atom_type_oxidation_number
  Ti4+  4.0
  Cu+  1.0
  Te2-  -2.0
loop_
 _atom_site_type_symbol
 _atom_site_label
 _atom_site_symmetry_multiplicity
 _atom_site_fract_x
 _atom_site_fract_y
 _atom_site_fract_z
 _atom_site_occupancy
  Ti4+  Ti0  1  0.16577321  0.16500911  0.16668462  1
  Ti4+  Ti1  1  0.16751175  0.16939655  0.49783956  1
  Ti4+  Ti2  1  0.16718662  0.16561845  0.83235952  1
  Ti4+  Ti3  1  0.16665313  0.50021863  0.16853447  1
  Ti4+  Ti4  1  0.16536098  0.50332075  0.49714003  1
  Ti4+  Ti5  1  0.16501085  0.49911075  0.83115341  1
  Ti4+  Ti6  1  0.16444694  0.83132012  0.16392676  1
  Ti4+  Ti7  1  0.16458926  0.83485720  0.49987923  1
  Ti4+  Ti8  1  0.16841054  0.83234602  0.83237424  1
  Ti4+  Ti9  1  0.50066676  0.16504162  0.16692633  1
  Ti4+  Ti10  1  0.50116890  0.16914115  0.49705936  1
  Ti4+  Ti11  1  0.50003578  0.16606760  0.83400105  1
  Ti4+  Ti12  1  0.50267695  0.50321614  0.16430817  1
  Ti4+  Ti13  1  0.49835459  0.50008059  0.50415317  1
  Ti4+  Ti14  1  0.49694472  0.49897281  0.83666185  1
  Ti4+  Ti15  1  0.49725614  0.83283001  0.16693474  1
  Ti4+  Ti16  1  0.50051079  0.83216846  0.49867974  1
  Ti4+  Ti17  1  0.50198660  0.83111592  0.83450088  1
  Ti4+  Ti18  1  0.83453820  0.16439250  0.16833126  1
  Ti4+  Ti19  1  0.83209451  0.16956885  0.50122461  1
  Ti4+  Ti20  1  0.83419118  0.16576905  0.83526081  1
  Ti4+  Ti21  1  0.83541424  0.49802150  0.16622471  1
  Ti4+  Ti22  1  0.83024286  0.50203752  0.49845287  1
  Ti4+  Ti23  1  0.83479239  0.49919770  0.83140217  1
  Ti4+  Ti24  1  0.83610391  0.83226934  0.16865789  1
  Ti4+  Ti25  1  0.83186680  0.83762738  0.50350320  1
  Ti4+  Ti26  1  0.83372113  0.83382306  0.83201569  1
  Cu+  Cu27  1  0.16650270  0.16457890  -0.00157074  1
  Cu+  Cu28  1  0.16783877  0.17233276  0.32887009  1
  Cu+  Cu29  1  0.16599950  0.16745053  0.66395381  1
  Cu+  Cu30  1  0.16307100  0.50073724  -0.00107592  1
  Cu+  Cu31  1  0.17189217  0.49547986  0.33741083  1
  Cu+  Cu32  1  0.16394436  0.50035008  0.66344904  1
  Cu+  Cu33  1  0.16813298  0.82941960  -0.00147435  1
  Cu+  Cu34  1  0.16688835  0.83115860  0.33459359  1
  Cu+  Cu35  1  0.16629196  0.83770267  0.66702705  1
  Cu+  Cu36  1  0.50061549  0.16707038  -0.00000720  1
  Cu+  Cu37  1  0.50051615  0.15983559  0.33128342  1
  Cu+  Cu38  1  0.50100953  0.17081690  0.66635079  1
  Cu+  Cu39  1  0.50519885  0.50501713  -0.00195775  1
  Cu+  Cu40  1  0.49886722  0.50048384  0.33046784  1
  Cu+  Cu41  1  0.49193099  0.50145557  0.67492685  1
  Cu+  Cu42  1  0.49921157  0.82763142  0.00063140  1
  Cu+  Cu43  1  0.49922995  0.83431890  0.33193651  1
  Cu+  Cu44  1  0.50125149  0.83265814  0.66521961  1
  Cu+  Cu45  1  0.83487836  0.16308874  0.00253104  1
  Cu+  Cu46  1  0.83356531  0.16713562  0.33578081  1
  Cu+  Cu47  1  0.83421839  0.16576663  0.67224377  1
  Cu+  Cu48  1  0.83452728  0.49621271  -0.00190212  1
  Cu+  Cu49  1  0.83739133  0.49713826  0.33093393  1
  Cu+  Cu50  1  0.83216133  0.50348456  0.66529403  1
  Cu+  Cu51  1  0.83544213  0.83369674  -0.00252431  1
  Cu+  Cu52  1  0.83458390  0.83456091  0.33693875  1
  Cu+  Cu53  1  0.82685779  0.83513653  0.66590759  1
  Cu+  Cu54  1  0.16687924  -0.00402578  0.16655247  1
  Cu+  Cu55  1  0.16435964  0.00287529  0.49925914  1
  Cu+  Cu56  1  0.16921085  -0.00180712  0.83329862  1
  Cu+  Cu57  1  0.16850502  0.33072294  0.17004758  1
  Cu+  Cu58  1  0.16503530  0.33488756  0.49692918  1
  Cu+  Cu59  1  0.16556037  0.33212331  0.83191127  1
  Cu+  Cu60  1  0.15828107  0.66462752  0.16136969  1
  Cu+  Cu61  1  0.16773272  0.67166640  0.49800504  1
  Cu+  Cu62  1  0.16490847  0.66583009  0.83107945  1
  Cu+  Cu63  1  0.49354398  0.00035242  0.16922534  1
  Cu+  Cu64  1  0.50313960  -0.00067514  0.49631313  1
  Cu+  Cu65  1  0.50124745  0.00072983  0.83150603  1
  Cu+  Cu66  1  0.50065949  0.33434249  0.16407623  1
  Cu+  Cu67  1  0.50876647  0.33497150  0.50289173  1
  Cu+  Cu68  1  0.49889291  0.33269170  0.83585596  1
  Cu+  Cu69  1  0.50510583  0.67024455  0.16239681  1
  Cu+  Cu70  1  0.49540413  0.66361413  0.50049547  1
  Cu+  Cu71  1  0.49615508  0.66417306  0.83991090  1
  Cu+  Cu72  1  0.83691199  -0.00178180  0.16701615  1
  Cu+  Cu73  1  0.83401849  0.00504497  0.50090749  1
  Cu+  Cu74  1  0.83573680  0.00057489  0.83099978  1
  Cu+  Cu75  1  0.83533674  0.33202199  0.16762795  1
  Cu+  Cu76  1  0.82568230  0.33336745  0.49502749  1
  Cu+  Cu77  1  0.83195195  0.33236884  0.83475790  1
  Cu+  Cu78  1  0.83729427  0.66215378  0.16882271  1
  Cu+  Cu79  1  0.83179787  0.67001103  0.50877946  1
  Cu+  Cu80  1  0.83462004  0.66735489  0.83025871  1
  Cu+  Cu81  1  -0.00150666  0.15998728  0.16448704  1
  Cu+  Cu82  1  0.00207804  0.16798908  0.49895935  1
  Cu+  Cu83  1  0.00098681  0.16354318  0.83189630  1
  Cu+  Cu84  1  0.00160460  0.50338980  0.16655514  1
  Cu+  Cu85  1  -0.00380251  0.50331282  0.50057888  1
  Cu+  Cu86  1  -0.00008080  0.49686370  0.82956299  1
  Cu+  Cu87  1  0.00493813  0.82834668  0.16995819  1
  Cu+  Cu88  1  -0.00369324  0.83618255  0.49961684  1
  Cu+  Cu89  1  0.00159919  0.83422685  0.83175218  1
  Cu+  Cu90  1  0.33505682  0.16502169  0.16938887  1
  Cu+  Cu91  1  0.33419384  0.16938980  0.49853537  1
  Cu+  Cu92  1  0.33431614  0.16644252  0.83080026  1
  Cu+  Cu93  1  0.33818282  0.50074097  0.16730931  1
  Cu+  Cu94  1  0.33472263  0.50532317  0.49671354  1
  Cu+  Cu95  1  0.32966833  0.50193920  0.83267491  1
  Cu+  Cu96  1  0.32370717  0.83381974  0.16628424  1
  Cu+  Cu97  1  0.33366279  0.83334609  0.49919826  1
  Cu+  Cu98  1  0.33595740  0.83076155  0.83668608  1
  Cu+  Cu99  1  0.66748815  0.16571149  0.16841915  1
  Cu+  Cu100  1  0.66412411  0.17515588  0.49948614  1
  Cu+  Cu101  1  0.66726789  0.16631547  0.83724923  1
  Cu+  Cu102  1  0.67209059  0.50021848  0.16470759  1
  Cu+  Cu103  1  0.66009291  0.49534693  0.50103390  1
  Cu+  Cu104  1  0.66777117  0.49812093  0.83398569  1
  Cu+  Cu105  1  0.66854265  0.83515912  0.16539329  1
  Cu+  Cu106  1  0.66866369  0.83410902  0.50547172  1
  Cu+  Cu107  1  0.66938997  0.83532055  0.83314702  1
  Cu+  Cu108  1  0.26407581  0.40503282  0.41896240  1
  Cu+  Cu109  1  0.92570912  0.06850160  0.07160938  1
  Cu+  Cu110  1  0.40442393  0.07200204  0.26166943  1
  Cu+  Cu111  1  0.08108513  0.73784874  0.26335889  1
  Cu+  Cu112  1  0.26505041  0.26128996  0.25321187  1
  Cu+  Cu113  1  0.91748493  0.74190593  0.41384194  1
  Cu+  Cu114  1  0.58868563  0.41411151  0.40153548  1
  Cu+  Cu115  1  0.92962585  0.07663649  0.40931197  1
  Cu+  Cu116  1  0.41285828  0.59113730  0.40107828  1
  Cu+  Cu117  1  0.92748086  0.59427868  0.59620984  1
  Cu+  Cu118  1  0.73541657  0.73974398  0.59637581  1
  Cu+  Cu119  1  0.25080693  0.92431708  0.26241146  1
  Cu+  Cu120  1  0.40471807  0.73836515  0.92880608  1
  Cu+  Cu121  1  0.92801032  0.58807202  0.25913132  1
  Cu+  Cu122  1  0.59345705  0.06865618  0.40593269  1
  Cu+  Cu123  1  0.60062401  0.59145131  0.91958950  1
  Cu+  Cu124  1  0.40121707  0.59545583  0.74569701  1
  Cu+  Cu125  1  0.06950696  0.58937400  0.06552341  1
  Cu+  Cu126  1  0.26186355  0.74638513  0.40907192  1
  Cu+  Cu127  1  0.25306169  0.73497067  0.07223219  1
  Cu+  Cu128  1  0.59560547  0.26033620  0.60108469  1
  Cu+  Cu129  1  0.73878269  0.25737513  0.40101449  1
  Cu+  Cu130  1  0.60071544  0.74790639  0.07473847  1
  Cu+  Cu131  1  0.92571402  0.40709802  0.41139635  1
  Cu+  Cu132  1  0.92971043  0.07236582  0.74002782  1
  Te2-  Te133  1  0.25219340  0.24951778  0.08163065  1
  Te2-  Te134  1  0.25631325  0.25507787  0.41027987  1
  Te2-  Te135  1  0.25126097  0.25127013  0.74666779  1
  Te2-  Te136  1  0.25345352  0.58272277  0.08082128  1
  Te2-  Te137  1  0.25419245  0.59196192  0.41001648  1
  Te2-  Te138  1  0.24927821  0.58702397  0.74386692  1
  Te2-  Te139  1  0.24985836  0.91950010  0.07668837  1
  Te2-  Te140  1  0.25246689  0.92220811  0.41520872  1
  Te2-  Te141  1  0.25595491  0.91720735  0.74947035  1
  Te2-  Te142  1  0.58625118  0.25039832  0.08243049  1
  Te2-  Te143  1  0.58560451  0.25732445  0.40454692  1
  Te2-  Te144  1  0.58828159  0.25454340  0.75174155  1
  Te2-  Te145  1  0.59311603  0.58906068  0.07902081  1
  Te2-  Te146  1  0.58399898  0.58562010  0.41569412  1
  Te2-  Te147  1  0.58412674  0.58561076  0.75122017  1
  Te2-  Te148  1  0.58112626  0.91939614  0.08237615  1
  Te2-  Te149  1  0.58918232  0.91525185  0.41245744  1
  Te2-  Te150  1  0.58513042  0.91688916  0.74796813  1
  Te2-  Te151  1  0.91948749  0.25071746  0.08252973  1
  Te2-  Te152  1  0.92083107  0.25489183  0.41416197  1
  Te2-  Te153  1  0.91962961  0.25333010  0.75030642  1
  Te2-  Te154  1  0.91898454  0.58523555  0.07637853  1
  Te2-  Te155  1  0.91811895  0.59067393  0.41314440  1
  Te2-  Te156  1  0.92116319  0.58694640  0.74632493  1
  Te2-  Te157  1  0.92346401  0.91487947  0.08176488  1
  Te2-  Te158  1  0.91887663  0.92405345  0.41458709  1
  Te2-  Te159  1  0.91998770  0.91788209  0.74428649  1
  Te2-  Te160  1  0.25190516  0.07716815  0.25577638  1
  Te2-  Te161  1  0.25229042  0.08353176  0.58250826  1
  Te2-  Te162  1  0.25360650  0.08121425  0.91733584  1
  Te2-  Te163  1  0.25774104  0.41470545  0.25358023  1
  Te2-  Te164  1  0.25160151  0.41777691  0.58172931  1
  Te2-  Te165  1  0.24877185  0.41519044  0.91815581  1
  Te2-  Te166  1  0.25010377  0.74052265  0.25175787  1
  Te2-  Te167  1  0.25084328  0.75105292  0.58640683  1
  Te2-  Te168  1  0.25309282  0.74089141  0.91893128  1
  Te2-  Te169  1  0.58909285  0.07558340  0.25117009  1
  Te2-  Te170  1  0.58526741  0.08362569  0.58381967  1
  Te2-  Te171  1  0.58489049  0.08043985  0.91970395  1
  Te2-  Te172  1  0.58760310  0.41561656  0.24843587  1
  Te2-  Te173  1  0.58381902  0.41708360  0.59678630  1
  Te2-  Te174  1  0.58578485  0.41310480  0.91983492  1
  Te2-  Te175  1  0.58606261  0.75025953  0.25215545  1
  Te2-  Te176  1  0.58319951  0.74427046  0.58538047  1
  Te2-  Te177  1  0.59311679  0.74555708  0.92087842  1
  Te2-  Te178  1  0.92021386  0.07826213  0.25673941  1
  Te2-  Te179  1  0.92062705  0.08405554  0.58682391  1
  Te2-  Te180  1  0.92170205  0.07781915  0.92047394  1
  Te2-  Te181  1  0.92396174  0.41048631  0.25153093  1
  Te2-  Te182  1  0.91363284  0.41365570  0.58274213  1
  Te2-  Te183  1  0.91975860  0.41337318  0.91653056  1
  Te2-  Te184  1  0.92271989  0.74414554  0.25724618  1
  Te2-  Te185  1  0.92127179  0.75173477  0.59160398  1
  Te2-  Te186  1  0.91978143  0.74835792  0.91577558  1
  Te2-  Te187  1  0.07635447  0.25004912  0.24880850  1
  Te2-  Te188  1  0.08212183  0.25400622  0.58321867  1
  Te2-  Te189  1  0.08128229  0.25000746  0.91767138  1
  Te2-  Te190  1  0.08187507  0.58439450  0.26086114  1
  Te2-  Te191  1  0.08120498  0.58977962  0.58408339  1
  Te2-  Te192  1  0.07742510  0.58608796  0.91497800  1
  Te2-  Te193  1  0.08075439  0.91863907  0.25376894  1
  Te2-  Te194  1  0.07994852  0.92090877  0.58409472  1
  Te2-  Te195  1  0.08363899  0.91697025  0.91817304  1
  Te2-  Te196  1  0.41772030  0.25498787  0.25370768  1
  Te2-  Te197  1  0.41569274  0.25463920  0.58242673  1
  Te2-  Te198  1  0.41379068  0.25052910  0.91909093  1
  Te2-  Te199  1  0.41641240  0.59052100  0.24899104  1
  Te2-  Te200  1  0.41055562  0.58703138  0.58980617  1
  Te2-  Te201  1  0.40724832  0.58408290  0.92503636  1
  Te2-  Te202  1  0.40805343  0.91747329  0.25500304  1
  Te2-  Te203  1  0.41708787  0.91834203  0.58286379  1
  Te2-  Te204  1  0.41818422  0.91810980  0.91884773  1
  Te2-  Te205  1  0.74759780  0.25323338  0.25164708  1
  Te2-  Te206  1  0.74890179  0.25478684  0.59176216  1
  Te2-  Te207  1  0.74975220  0.25024660  0.92217495  1
  Te2-  Te208  1  0.74935739  0.58402355  0.25301112  1
  Te2-  Te209  1  0.74051538  0.58413568  0.58553899  1
  Te2-  Te210  1  0.75193493  0.58630325  0.91891264  1
  Te2-  Te211  1  0.75083046  0.91721510  0.25205264  1
  Te2-  Te212  1  0.74654893  0.92632642  0.58650827  1
  Te2-  Te213  1  0.75045278  0.92010981  0.91817684  1
  Te2-  Te214  1  0.08265851  0.07664058  0.07944581  1
  Te2-  Te215  1  0.08289865  0.08348998  0.41017886  1
  Te2-  Te216  1  0.08340209  0.07781218  0.74486167  1
  Te2-  Te217  1  0.08288021  0.41312649  0.08469762  1
  Te2-  Te218  1  0.07722126  0.41552851  0.41333844  1
  Te2-  Te219  1  0.08167482  0.41324035  0.74457218  1
  Te2-  Te220  1  0.07523747  0.74613920  0.07370640  1
  Te2-  Te221  1  0.07449090  0.74628256  0.41472925  1
  Te2-  Te222  1  0.08214363  0.74922449  0.74610005  1
  Te2-  Te223  1  0.41399314  0.08217437  0.07987458  1
  Te2-  Te224  1  0.41171404  0.07957981  0.41513189  1
  Te2-  Te225  1  0.41660004  0.08229623  0.74552936  1
  Te2-  Te226  1  0.41803903  0.41796168  0.07926135  1
  Te2-  Te227  1  0.41599072  0.41184459  0.41487742  1
  Te2-  Te228  1  0.41039848  0.41136436  0.75280186  1
  Te2-  Te229  1  0.40792189  0.74482485  0.08218495  1
  Te2-  Te230  1  0.41362179  0.74621328  0.41025514  1
  Te2-  Te231  1  0.41472482  0.74728976  0.74622436  1
  Te2-  Te232  1  0.74781166  0.07873845  0.08389773  1
  Te2-  Te233  1  0.74448966  0.08241552  0.41566063  1
  Te2-  Te234  1  0.74566062  0.08143498  0.75007279  1
  Te2-  Te235  1  0.75064178  0.41215705  0.08083146  1
  Te2-  Te236  1  0.74208287  0.41588243  0.40899328  1
  Te2-  Te237  1  0.74863162  0.41466961  0.74728831  1
  Te2-  Te238  1  0.75324481  0.74641828  0.08137720  1
  Te2-  Te239  1  0.74783432  0.74926296  0.41669924  1
  Te2-  Te240  1  0.74534010  0.74611281  0.74786345  1
