# generated using pymatgen
data_Ti27(Cu53Te54)2
_symmetry_space_group_name_H-M   'P 1'
_cell_length_a   17.91380027
_cell_length_b   17.91780736
_cell_length_c   17.91083922
_cell_angle_alpha   90.01321694
_cell_angle_beta   89.98580407
_cell_angle_gamma   90.03306195
_symmetry_Int_Tables_number   1
_chemical_formula_structural   Ti27(Cu53Te54)2
_chemical_formula_sum   'Ti27 Cu106 Te108'
_cell_volume   5748.94864509
_cell_formula_units_Z   1
loop_
 _symmetry_equiv_pos_site_id
 _symmetry_equiv_pos_as_xyz
  1  'x, y, z'
loop_
 _atom_type_symbol
 _atom_type_oxidation_number
  Ti4+  4.0
  Cu+  1.0
  Te2-  -2.0
loop_
 _atom_site_type_symbol
 _atom_site_label
 _atom_site_symmetry_multiplicity
 _atom_site_fract_x
 _atom_site_fract_y
 _atom_site_fract_z
 _atom_site_occupancy
  Ti4+  Ti0  1  0.16851500  0.16502234  0.16736197  1
  Ti4+  Ti1  1  0.16512782  0.16564165  0.50111960  1
  Ti4+  Ti2  1  0.16393855  0.16708170  0.83332388  1
  Ti4+  Ti3  1  0.16852051  0.49976198  0.16324943  1
  Ti4+  Ti4  1  0.16600183  0.49752259  0.49923569  1
  Ti4+  Ti5  1  0.16892287  0.50251945  0.82731279  1
  Ti4+  Ti6  1  0.16768380  0.83394949  0.16594010  1
  Ti4+  Ti7  1  0.16701049  0.83398338  0.50216900  1
  Ti4+  Ti8  1  0.16134985  0.83075435  0.83178841  1
  Ti4+  Ti9  1  0.50126445  0.16604972  0.16513178  1
  Ti4+  Ti10  1  0.49954295  0.16615532  0.50104584  1
  Ti4+  Ti11  1  0.50257338  0.16391159  0.83269842  1
  Ti4+  Ti12  1  0.49798913  0.49837116  0.16723607  1
  Ti4+  Ti13  1  0.49872731  0.49911128  0.50147432  1
  Ti4+  Ti14  1  0.50063569  0.49809667  0.83078632  1
  Ti4+  Ti15  1  0.50002026  0.83377560  0.17042613  1
  Ti4+  Ti16  1  0.50315063  0.83636669  0.49977739  1
  Ti4+  Ti17  1  0.50105883  0.83103643  0.83684193  1
  Ti4+  Ti18  1  0.83298359  0.16900380  0.16841616  1
  Ti4+  Ti19  1  0.83490121  0.16571321  0.50109595  1
  Ti4+  Ti20  1  0.83315829  0.17236603  0.83517297  1
  Ti4+  Ti21  1  0.83613077  0.49719864  0.16888960  1
  Ti4+  Ti22  1  0.82974178  0.49931913  0.49779828  1
  Ti4+  Ti23  1  0.82910226  0.50420035  0.83359395  1
  Ti4+  Ti24  1  0.83495408  0.83337352  0.16779580  1
  Ti4+  Ti25  1  0.83506036  0.83199281  0.49811902  1
  Ti4+  Ti26  1  0.82929338  0.83581536  0.83224110  1
  Cu+  Cu27  1  0.16399897  0.16616588  0.00113254  1
  Cu+  Cu28  1  0.16845406  0.16366607  0.33520475  1
  Cu+  Cu29  1  0.16238823  0.16908100  0.66791214  1
  Cu+  Cu30  1  0.16981680  0.50097761  -0.00602782  1
  Cu+  Cu31  1  0.16701723  0.49860583  0.33063871  1
  Cu+  Cu32  1  0.17027868  0.50384910  0.66027574  1
  Cu+  Cu33  1  0.16383678  0.83276382  -0.00162208  1
  Cu+  Cu34  1  0.17041271  0.83588865  0.33289117  1
  Cu+  Cu35  1  0.15824412  0.83039241  0.66725546  1
  Cu+  Cu36  1  0.50396325  0.16644365  -0.00241272  1
  Cu+  Cu37  1  0.49942790  0.16572843  0.33343780  1
  Cu+  Cu38  1  0.49987507  0.16335923  0.66718535  1
  Cu+  Cu39  1  0.50084336  0.49923851  0.00198865  1
  Cu+  Cu40  1  0.49680967  0.49994452  0.33380472  1
  Cu+  Cu41  1  0.49539897  0.49341130  0.66601694  1
  Cu+  Cu42  1  0.49533098  0.83361083  0.00531928  1
  Cu+  Cu43  1  0.50855642  0.83543522  0.33482129  1
  Cu+  Cu44  1  0.50338650  0.83444162  0.66634064  1
  Cu+  Cu45  1  0.82911936  0.17021539  0.00131634  1
  Cu+  Cu46  1  0.83415412  0.16685802  0.33878691  1
  Cu+  Cu47  1  0.83535938  0.16978255  0.66759853  1
  Cu+  Cu48  1  0.83624250  0.50158186  0.00222491  1
  Cu+  Cu49  1  0.83295984  0.49154629  0.33272419  1
  Cu+  Cu50  1  0.82584133  0.50525363  0.66454549  1
  Cu+  Cu51  1  0.83172229  0.83457207  0.00314738  1
  Cu+  Cu52  1  0.83635466  0.83325053  0.33226430  1
  Cu+  Cu53  1  0.83610693  0.83336909  0.66619441  1
  Cu+  Cu54  1  0.17103802  -0.00190456  0.17059220  1
  Cu+  Cu55  1  0.16742953  0.00136588  0.50295454  1
  Cu+  Cu56  1  0.16001456  -0.00219341  0.83264505  1
  Cu+  Cu57  1  0.16566045  0.33122479  0.16286306  1
  Cu+  Cu58  1  0.16408102  0.32899128  0.49886913  1
  Cu+  Cu59  1  0.16478560  0.33477787  0.82823267  1
  Cu+  Cu60  1  0.17039418  0.66744513  0.16266439  1
  Cu+  Cu61  1  0.16532951  0.66550603  0.50247207  1
  Cu+  Cu62  1  0.17171045  0.66901505  0.82689789  1
  Cu+  Cu63  1  0.50031320  -0.00187608  0.16655809  1
  Cu+  Cu64  1  0.49965193  0.00253551  0.50022170  1
  Cu+  Cu65  1  0.50128468  -0.00292356  0.83374787  1
  Cu+  Cu66  1  0.49858801  0.33359608  0.16562743  1
  Cu+  Cu67  1  0.49615344  0.33239532  0.50400839  1
  Cu+  Cu68  1  0.50653878  0.32989478  0.83071849  1
  Cu+  Cu69  1  0.49689743  0.66500695  0.17010828  1
  Cu+  Cu70  1  0.50343558  0.67170769  0.49745327  1
  Cu+  Cu71  1  0.50240962  0.66340883  0.83645047  1
  Cu+  Cu72  1  0.83654830  -0.00069073  0.16771963  1
  Cu+  Cu73  1  0.83917873  -0.00061482  0.49860840  1
  Cu+  Cu74  1  0.83162102  0.00733131  0.83823102  1
  Cu+  Cu75  1  0.82923015  0.33418776  0.17011078  1
  Cu+  Cu76  1  0.83270427  0.33272929  0.49617521  1
  Cu+  Cu77  1  0.83455900  0.33935379  0.83449235  1
  Cu+  Cu78  1  0.83673327  0.66415698  0.16767227  1
  Cu+  Cu79  1  0.83219419  0.66501095  0.49733836  1
  Cu+  Cu80  1  0.82311249  0.66846719  0.83011908  1
  Cu+  Cu81  1  0.00280042  0.16916052  0.16490023  1
  Cu+  Cu82  1  -0.00151585  0.15988951  0.49999158  1
  Cu+  Cu83  1  -0.00011754  0.17405132  0.83184490  1
  Cu+  Cu84  1  0.00688347  0.49506657  0.17005923  1
  Cu+  Cu85  1  -0.00625067  0.49664780  0.49610559  1
  Cu+  Cu86  1  0.00099370  0.50357192  0.83075586  1
  Cu+  Cu87  1  0.00115565  0.83272264  0.16591341  1
  Cu+  Cu88  1  0.00321108  0.83032235  0.50322091  1
  Cu+  Cu89  1  -0.00569433  0.83358738  0.82487933  1
  Cu+  Cu90  1  0.33466947  0.16343619  0.16580250  1
  Cu+  Cu91  1  0.33092561  0.16544492  0.50082231  1
  Cu+  Cu92  1  0.33279451  0.16252970  0.83386488  1
  Cu+  Cu93  1  0.33252493  0.49907950  0.16293151  1
  Cu+  Cu94  1  0.33332310  0.49666790  0.50549283  1
  Cu+  Cu95  1  0.33675664  0.50212392  0.82582774  1
  Cu+  Cu96  1  0.33231376  0.84061437  0.16837513  1
  Cu+  Cu97  1  0.33882885  0.83698561  0.50155852  1
  Cu+  Cu98  1  0.33138591  0.83180433  0.83596818  1
  Cu+  Cu99  1  0.66883913  0.16965495  0.16384912  1
  Cu+  Cu100  1  0.66616124  0.16720234  0.50047549  1
  Cu+  Cu101  1  0.66771645  0.16820438  0.84098172  1
  Cu+  Cu102  1  0.66470144  0.49801721  0.16990551  1
  Cu+  Cu103  1  0.66337033  0.50145182  0.50004875  1
  Cu+  Cu104  1  0.66362228  0.50564524  0.82942891  1
  Cu+  Cu105  1  0.66723259  0.83425826  0.17243027  1
  Cu+  Cu106  1  0.66876236  0.83229868  0.49513874  1
  Cu+  Cu107  1  0.66732431  0.82922879  0.84165421  1
  Cu+  Cu108  1  0.74068929  0.07533710  0.93053046  1
  Cu+  Cu109  1  0.58868941  0.58981761  0.93232299  1
  Cu+  Cu110  1  0.59440206  0.40142183  0.73760928  1
  Cu+  Cu111  1  0.41376696  0.59544937  0.73986524  1
  Cu+  Cu112  1  0.06820620  0.93009065  0.74021642  1
  Cu+  Cu113  1  0.08555165  0.40173171  0.26006208  1
  Cu+  Cu114  1  0.07506669  0.25992021  0.07279901  1
  Cu+  Cu115  1  0.73713245  0.59790688  0.73256306  1
  Cu+  Cu116  1  0.07337230  0.26620897  0.73602016  1
  Cu+  Cu117  1  0.73328320  0.40911608  0.25939310  1
  Cu+  Cu118  1  0.26299843  0.75479719  0.73711624  1
  Cu+  Cu119  1  0.74122021  0.26399783  0.07420196  1
  Cu+  Cu120  1  0.74641593  0.74126559  0.93459298  1
  Cu+  Cu121  1  0.59861306  0.93121127  0.25884414  1
  Cu+  Cu122  1  0.59085607  0.26039124  0.92696813  1
  Cu+  Cu123  1  0.59825240  0.73761228  0.40658136  1
  Cu+  Cu124  1  0.91808341  0.73804360  0.74178979  1
  Cu+  Cu125  1  0.26346686  0.59664529  0.58151810  1
  Cu+  Cu126  1  0.26007827  0.92825028  0.26594938  1
  Cu+  Cu127  1  0.92612706  0.40418353  0.40799628  1
  Cu+  Cu128  1  0.07173304  0.73402144  0.59002525  1
  Cu+  Cu129  1  0.40146730  0.39892652  0.59337561  1
  Cu+  Cu130  1  0.92822369  0.06885815  0.40489529  1
  Cu+  Cu131  1  0.40403529  0.92779885  0.07352391  1
  Cu+  Cu132  1  0.73514921  0.25715997  0.41459593  1
  Te2-  Te133  1  0.25424022  0.24932625  0.08076415  1
  Te2-  Te134  1  0.25136143  0.25037646  0.41528435  1
  Te2-  Te135  1  0.25271807  0.24983209  0.74883391  1
  Te2-  Te136  1  0.25346137  0.58475998  0.07742865  1
  Te2-  Te137  1  0.25184589  0.58281701  0.41547344  1
  Te2-  Te138  1  0.25775398  0.59099868  0.73887989  1
  Te2-  Te139  1  0.25073264  0.92131774  0.07515457  1
  Te2-  Te140  1  0.25430942  0.92094097  0.41891482  1
  Te2-  Te141  1  0.24938718  0.91704777  0.74753342  1
  Te2-  Te142  1  0.58693359  0.25671730  0.07959138  1
  Te2-  Te143  1  0.58213205  0.25441643  0.41442348  1
  Te2-  Te144  1  0.59082115  0.24735228  0.74367527  1
  Te2-  Te145  1  0.58630218  0.58651106  0.08544661  1
  Te2-  Te146  1  0.58393294  0.58402346  0.41286187  1
  Te2-  Te147  1  0.58287191  0.58843824  0.73999209  1
  Te2-  Te148  1  0.58740004  0.91660218  0.08242154  1
  Te2-  Te149  1  0.58990776  0.92616554  0.41524395  1
  Te2-  Te150  1  0.58788822  0.91416198  0.75302996  1
  Te2-  Te151  1  0.91814952  0.25557730  0.08212810  1
  Te2-  Te152  1  0.92461189  0.25218483  0.41442153  1
  Te2-  Te153  1  0.91781813  0.25905273  0.74683148  1
  Te2-  Te154  1  0.92316063  0.58189373  0.08553100  1
  Te2-  Te155  1  0.91518778  0.58403133  0.41085561  1
  Te2-  Te156  1  0.91634660  0.58649930  0.74595551  1
  Te2-  Te157  1  0.91976734  0.91821740  0.08129226  1
  Te2-  Te158  1  0.92434641  0.91508664  0.41376031  1
  Te2-  Te159  1  0.91307783  0.92722921  0.74701262  1
  Te2-  Te160  1  0.25634582  0.08088441  0.25504604  1
  Te2-  Te161  1  0.24983543  0.08311599  0.58907815  1
  Te2-  Te162  1  0.24678157  0.07926682  0.91745627  1
  Te2-  Te163  1  0.25283992  0.41253144  0.24921486  1
  Te2-  Te164  1  0.24903508  0.40780491  0.58624968  1
  Te2-  Te165  1  0.25364623  0.41644387  0.91045426  1
  Te2-  Te166  1  0.25380646  0.74839957  0.25075924  1
  Te2-  Te167  1  0.25829209  0.74891674  0.58631845  1
  Te2-  Te168  1  0.24945749  0.74757289  0.91964676  1
  Te2-  Te169  1  0.58810387  0.08337545  0.25152989  1
  Te2-  Te170  1  0.58684365  0.08149312  0.58513648  1
  Te2-  Te171  1  0.58688712  0.07545615  0.92091100  1
  Te2-  Te172  1  0.58159631  0.41153385  0.25538635  1
  Te2-  Te173  1  0.58766455  0.41227152  0.58517322  1
  Te2-  Te174  1  0.58828064  0.41495402  0.92007989  1
  Te2-  Te175  1  0.58711973  0.74273533  0.25319928  1
  Te2-  Te176  1  0.58864159  0.74998957  0.58538164  1
  Te2-  Te177  1  0.58449508  0.74527598  0.92772619  1
  Te2-  Te178  1  0.92078706  0.08338418  0.25175952  1
  Te2-  Te179  1  0.91796612  0.08030337  0.59010487  1
  Te2-  Te180  1  0.92026016  0.08896832  0.92053765  1
  Te2-  Te181  1  0.92487257  0.40758344  0.25336865  1
  Te2-  Te182  1  0.91244342  0.41602440  0.58741244  1
  Te2-  Te183  1  0.91923959  0.42107710  0.91664853  1
  Te2-  Te184  1  0.92060693  0.74756083  0.25156334  1
  Te2-  Te185  1  0.91890061  0.74254916  0.58557976  1
  Te2-  Te186  1  0.91435506  0.74858271  0.91650666  1
  Te2-  Te187  1  0.08222845  0.24991014  0.25600581  1
  Te2-  Te188  1  0.07537398  0.25199260  0.58386088  1
  Te2-  Te189  1  0.08081690  0.25636540  0.92001678  1
  Te2-  Te190  1  0.08577370  0.58769533  0.24987883  1
  Te2-  Te191  1  0.07430071  0.58103855  0.58286404  1
  Te2-  Te192  1  0.08555348  0.58761528  0.91312381  1
  Te2-  Te193  1  0.08091186  0.91805537  0.25219632  1
  Te2-  Te194  1  0.07916044  0.92239536  0.58628567  1
  Te2-  Te195  1  0.07458895  0.91498207  0.91753840  1
  Te2-  Te196  1  0.41552936  0.24969403  0.24980750  1
  Te2-  Te197  1  0.41157241  0.24819493  0.58920533  1
  Te2-  Te198  1  0.41620329  0.25070340  0.91608425  1
  Te2-  Te199  1  0.41110502  0.58247594  0.25198668  1
  Te2-  Te200  1  0.41592798  0.59241602  0.58543980  1
  Te2-  Te201  1  0.41418146  0.58254723  0.91909583  1
  Te2-  Te202  1  0.41566748  0.92152578  0.25882736  1
  Te2-  Te203  1  0.41824792  0.92086793  0.58772399  1
  Te2-  Te204  1  0.41280021  0.91818214  0.91854019  1
  Te2-  Te205  1  0.74454533  0.25268609  0.25853128  1
  Te2-  Te206  1  0.74899450  0.25307721  0.58563871  1
  Te2-  Te207  1  0.74647204  0.26298759  0.92122334  1
  Te2-  Te208  1  0.75035194  0.58304139  0.25312837  1
  Te2-  Te209  1  0.74258145  0.58980089  0.58098076  1
  Te2-  Te210  1  0.74389444  0.58732129  0.92642175  1
  Te2-  Te211  1  0.75120160  0.92157748  0.25526311  1
  Te2-  Te212  1  0.75101852  0.91755660  0.58198904  1
  Te2-  Te213  1  0.74684860  0.92176258  0.92256777  1
  Te2-  Te214  1  0.08272271  0.07764275  0.08429719  1
  Te2-  Te215  1  0.08186421  0.07701794  0.41322997  1
  Te2-  Te216  1  0.07582643  0.08207844  0.74724303  1
  Te2-  Te217  1  0.08221533  0.41486558  0.07361825  1
  Te2-  Te218  1  0.08003984  0.41044916  0.41256020  1
  Te2-  Te219  1  0.08051208  0.41931188  0.74186718  1
  Te2-  Te220  1  0.08196983  0.74793570  0.08120124  1
  Te2-  Te221  1  0.08519237  0.74878691  0.41365976  1
  Te2-  Te222  1  0.07369242  0.73888370  0.74481542  1
  Te2-  Te223  1  0.41629750  0.08109428  0.07807712  1
  Te2-  Te224  1  0.41388633  0.08219216  0.41533877  1
  Te2-  Te225  1  0.41591875  0.07842162  0.74951084  1
  Te2-  Te226  1  0.41435743  0.41349958  0.07933386  1
  Te2-  Te227  1  0.41316989  0.41430251  0.41621612  1
  Te2-  Te228  1  0.41229674  0.40575349  0.74807552  1
  Te2-  Te229  1  0.41209831  0.74782051  0.08718697  1
  Te2-  Te230  1  0.41613071  0.75226110  0.41342375  1
  Te2-  Te231  1  0.41632729  0.74777570  0.74639860  1
  Te2-  Te232  1  0.74875748  0.07858269  0.08379643  1
  Te2-  Te233  1  0.74799648  0.07891183  0.41637379  1
  Te2-  Te234  1  0.74816923  0.08706890  0.74934039  1
  Te2-  Te235  1  0.74673528  0.41631660  0.07968211  1
  Te2-  Te236  1  0.73888016  0.41181223  0.41345031  1
  Te2-  Te237  1  0.74621665  0.41457719  0.74699330  1
  Te2-  Te238  1  0.74659623  0.74562711  0.08621889  1
  Te2-  Te239  1  0.75079124  0.74638666  0.41013771  1
  Te2-  Te240  1  0.74089424  0.75189127  0.74204766  1
