# generated using pymatgen
data_Ti27(Cu53Te54)2
_symmetry_space_group_name_H-M   'P 1'
_cell_length_a   17.92642167
_cell_length_b   17.92740034
_cell_length_c   17.92612574
_cell_angle_alpha   89.96280918
_cell_angle_beta   90.04721992
_cell_angle_gamma   90.00019232
_symmetry_Int_Tables_number   1
_chemical_formula_structural   Ti27(Cu53Te54)2
_chemical_formula_sum   'Ti27 Cu106 Te108'
_cell_volume   5760.99003676
_cell_formula_units_Z   1
loop_
 _symmetry_equiv_pos_site_id
 _symmetry_equiv_pos_as_xyz
  1  'x, y, z'
loop_
 _atom_type_symbol
 _atom_type_oxidation_number
  Ti4+  4.0
  Cu+  1.0
  Te2-  -2.0
loop_
 _atom_site_type_symbol
 _atom_site_label
 _atom_site_symmetry_multiplicity
 _atom_site_fract_x
 _atom_site_fract_y
 _atom_site_fract_z
 _atom_site_occupancy
  Ti4+  Ti0  1  0.16716482  0.16331381  0.16476055  1
  Ti4+  Ti1  1  0.16861880  0.16595463  0.49925070  1
  Ti4+  Ti2  1  0.16500731  0.16532895  0.83255297  1
  Ti4+  Ti3  1  0.16646776  0.49833111  0.16694311  1
  Ti4+  Ti4  1  0.16560037  0.49603892  0.50182530  1
  Ti4+  Ti5  1  0.16704919  0.50119026  0.83386051  1
  Ti4+  Ti6  1  0.16652617  0.83297484  0.16663768  1
  Ti4+  Ti7  1  0.16603302  0.83154657  0.49706662  1
  Ti4+  Ti8  1  0.16489014  0.83168890  0.83073105  1
  Ti4+  Ti9  1  0.50255707  0.16946456  0.16568972  1
  Ti4+  Ti10  1  0.50100233  0.16677652  0.50253938  1
  Ti4+  Ti11  1  0.49917692  0.16513207  0.83748269  1
  Ti4+  Ti12  1  0.49947891  0.49806638  0.17099984  1
  Ti4+  Ti13  1  0.49291686  0.50201089  0.50403885  1
  Ti4+  Ti14  1  0.50085840  0.49712766  0.83401896  1
  Ti4+  Ti15  1  0.50036353  0.83450300  0.16534878  1
  Ti4+  Ti16  1  0.50025557  0.83479594  0.49451693  1
  Ti4+  Ti17  1  0.50213592  0.83518507  0.83085491  1
  Ti4+  Ti18  1  0.83946102  0.16822501  0.16514283  1
  Ti4+  Ti19  1  0.83698669  0.16902698  0.49849409  1
  Ti4+  Ti20  1  0.83291316  0.16467180  0.83184672  1
  Ti4+  Ti21  1  0.82914639  0.50189726  0.17171372  1
  Ti4+  Ti22  1  0.83150987  0.50093508  0.49679902  1
  Ti4+  Ti23  1  0.83158515  0.50050884  0.83291410  1
  Ti4+  Ti24  1  0.83756291  0.83347675  0.16662151  1
  Ti4+  Ti25  1  0.83486530  0.83206321  0.49803594  1
  Ti4+  Ti26  1  0.83192661  0.83247403  0.83657763  1
  Cu+  Cu27  1  0.16377303  0.16545897  -0.00260360  1
  Cu+  Cu28  1  0.16791289  0.16383630  0.33225900  1
  Cu+  Cu29  1  0.16848046  0.16601833  0.66618239  1
  Cu+  Cu30  1  0.16692646  0.50099671  -0.00134696  1
  Cu+  Cu31  1  0.16814460  0.49537865  0.33337817  1
  Cu+  Cu32  1  0.16783371  0.50257215  0.66749877  1
  Cu+  Cu33  1  0.16436882  0.83197930  -0.00123983  1
  Cu+  Cu34  1  0.17057285  0.83452978  0.33032146  1
  Cu+  Cu35  1  0.16035427  0.83043690  0.66349288  1
  Cu+  Cu36  1  0.50312603  0.17269755  0.00029816  1
  Cu+  Cu37  1  0.50124449  0.16946151  0.33214190  1
  Cu+  Cu38  1  0.49996114  0.16351315  0.67239394  1
  Cu+  Cu39  1  0.50233064  0.49741902  0.00303453  1
  Cu+  Cu40  1  0.49906466  0.49818102  0.33859661  1
  Cu+  Cu41  1  0.48894389  0.50059540  0.66989989  1
  Cu+  Cu42  1  0.50103196  0.83435314  -0.00054006  1
  Cu+  Cu43  1  0.50045661  0.83637846  0.33087037  1
  Cu+  Cu44  1  0.50390855  0.83613501  0.66052276  1
  Cu+  Cu45  1  0.83891146  0.16336056  0.00035682  1
  Cu+  Cu46  1  0.83866056  0.16900717  0.33346634  1
  Cu+  Cu47  1  0.83298602  0.16590113  0.66281737  1
  Cu+  Cu48  1  0.83214198  0.50249495  -0.00052496  1
  Cu+  Cu49  1  0.82478791  0.50079046  0.33683502  1
  Cu+  Cu50  1  0.83016616  0.50231342  0.66416253  1
  Cu+  Cu51  1  0.83408166  0.83162810  0.00103619  1
  Cu+  Cu52  1  0.83950793  0.83128323  0.33104048  1
  Cu+  Cu53  1  0.83586873  0.82732520  0.67315563  1
  Cu+  Cu54  1  0.17039272  -0.00349683  0.16965213  1
  Cu+  Cu55  1  0.16654118  0.00035248  0.49905503  1
  Cu+  Cu56  1  0.16364596  -0.00168004  0.82921258  1
  Cu+  Cu57  1  0.16392033  0.32928212  0.16469937  1
  Cu+  Cu58  1  0.17071452  0.33041155  0.49672338  1
  Cu+  Cu59  1  0.16788646  0.33453172  0.83353069  1
  Cu+  Cu60  1  0.16528347  0.66553413  0.16601721  1
  Cu+  Cu61  1  0.16266130  0.66449991  0.50302142  1
  Cu+  Cu62  1  0.16637646  0.66696336  0.83486068  1
  Cu+  Cu63  1  0.50115441  0.00470757  0.16516188  1
  Cu+  Cu64  1  0.50265788  -0.00086020  0.49666963  1
  Cu+  Cu65  1  0.50493209  0.00003388  0.83649454  1
  Cu+  Cu66  1  0.50287899  0.33492819  0.16468294  1
  Cu+  Cu67  1  0.49630013  0.33408466  0.50616105  1
  Cu+  Cu68  1  0.50137402  0.32795823  0.84004477  1
  Cu+  Cu69  1  0.49813236  0.66506506  0.16865646  1
  Cu+  Cu70  1  0.49010773  0.67517483  0.50343685  1
  Cu+  Cu71  1  0.50170579  0.66476720  0.83009195  1
  Cu+  Cu72  1  0.84382887  0.00110293  0.16515563  1
  Cu+  Cu73  1  0.83402540  0.00456861  0.50096017  1
  Cu+  Cu74  1  0.82764575  -0.00441210  0.83249074  1
  Cu+  Cu75  1  0.83556258  0.33813002  0.16679083  1
  Cu+  Cu76  1  0.83699007  0.33388140  0.49608598  1
  Cu+  Cu77  1  0.83251242  0.33377314  0.83228493  1
  Cu+  Cu78  1  0.82795818  0.66892578  0.17395904  1
  Cu+  Cu79  1  0.83332280  0.66687512  0.49069453  1
  Cu+  Cu80  1  0.83142334  0.66604808  0.83383795  1
  Cu+  Cu81  1  0.00376684  0.16594131  0.15662737  1
  Cu+  Cu82  1  0.00442292  0.16862063  0.49945973  1
  Cu+  Cu83  1  -0.00066588  0.16561530  0.83107269  1
  Cu+  Cu84  1  -0.00118476  0.50108410  0.16845025  1
  Cu+  Cu85  1  -0.00178934  0.49732857  0.49649750  1
  Cu+  Cu86  1  0.00096736  0.50227692  0.83382393  1
  Cu+  Cu87  1  0.00185499  0.83650027  0.16894636  1
  Cu+  Cu88  1  0.00053658  0.82598008  0.49677979  1
  Cu+  Cu89  1  -0.00243117  0.83005118  0.83342761  1
  Cu+  Cu90  1  0.33540338  0.16690027  0.16551044  1
  Cu+  Cu91  1  0.33458538  0.16556601  0.50070756  1
  Cu+  Cu92  1  0.33091094  0.16381579  0.83544712  1
  Cu+  Cu93  1  0.33305666  0.50010070  0.16885609  1
  Cu+  Cu94  1  0.32760359  0.49610535  0.50783732  1
  Cu+  Cu95  1  0.33597613  0.50086079  0.83313446  1
  Cu+  Cu96  1  0.33331027  0.83435798  0.16668800  1
  Cu+  Cu97  1  0.33480419  0.83293673  0.49440876  1
  Cu+  Cu98  1  0.33005344  0.83369365  0.82906511  1
  Cu+  Cu99  1  0.67106469  0.16778237  0.16677787  1
  Cu+  Cu100  1  0.67239544  0.16766882  0.50002104  1
  Cu+  Cu101  1  0.66530199  0.16442365  0.83503148  1
  Cu+  Cu102  1  0.66481470  0.49533543  0.17393870  1
  Cu+  Cu103  1  0.66052099  0.50442459  0.49760010  1
  Cu+  Cu104  1  0.66797355  0.49752833  0.83180206  1
  Cu+  Cu105  1  0.66903956  0.83484228  0.16593349  1
  Cu+  Cu106  1  0.66352870  0.83876816  0.49804189  1
  Cu+  Cu107  1  0.66629207  0.83982673  0.83720387  1
  Cu+  Cu108  1  0.59255031  0.41121274  0.07390455  1
  Cu+  Cu109  1  0.92649925  0.73474352  0.75267365  1
  Cu+  Cu110  1  0.74051220  0.40144553  0.26096233  1
  Cu+  Cu111  1  0.40569923  0.59700117  0.75073207  1
  Cu+  Cu112  1  0.40459072  0.75769542  0.59448395  1
  Cu+  Cu113  1  0.58760305  0.40457893  0.41892142  1
  Cu+  Cu114  1  0.25243544  0.59463686  0.59306292  1
  Cu+  Cu115  1  0.92698695  0.42130158  0.07048938  1
  Cu+  Cu116  1  0.59200095  0.92525343  0.93222724  1
  Cu+  Cu117  1  0.92721066  0.40451237  0.40904280  1
  Cu+  Cu118  1  0.93091481  0.06881948  0.06706682  1
  Cu+  Cu119  1  0.08036672  0.26078780  0.06700872  1
  Cu+  Cu120  1  0.74359104  0.91725395  0.73900454  1
  Cu+  Cu121  1  0.73639682  0.75000513  0.25849947  1
  Cu+  Cu122  1  0.92743640  0.93088166  0.26186365  1
  Cu+  Cu123  1  0.07121007  0.73721546  0.59266345  1
  Cu+  Cu124  1  0.58978715  0.07675284  0.74455017  1
  Cu+  Cu125  1  0.25720271  0.40315371  0.40273760  1
  Cu+  Cu126  1  0.74476407  0.07723367  0.58893695  1
  Cu+  Cu127  1  0.72759903  0.59890812  0.41399403  1
  Cu+  Cu128  1  0.59780761  0.25928356  0.92586231  1
  Cu+  Cu129  1  0.26563581  0.92611836  0.25994670  1
  Cu+  Cu130  1  0.40227796  0.40136608  0.60013357  1
  Cu+  Cu131  1  0.93026228  0.73781252  0.40291862  1
  Cu+  Cu132  1  0.58971173  0.92802022  0.58539381  1
  Te2-  Te133  1  0.25165808  0.24966469  0.07933478  1
  Te2-  Te134  1  0.25640715  0.24937073  0.41078395  1
  Te2-  Te135  1  0.25208760  0.25060587  0.74969788  1
  Te2-  Te136  1  0.25123217  0.58354682  0.08289528  1
  Te2-  Te137  1  0.25032031  0.58328732  0.41700784  1
  Te2-  Te138  1  0.25411932  0.59038990  0.74763053  1
  Te2-  Te139  1  0.25117282  0.91685687  0.07867901  1
  Te2-  Te140  1  0.25304869  0.92021949  0.41444160  1
  Te2-  Te141  1  0.24726887  0.91640374  0.74295539  1
  Te2-  Te142  1  0.59348177  0.25600745  0.08025937  1
  Te2-  Te143  1  0.58561726  0.25203685  0.41806866  1
  Te2-  Te144  1  0.58579022  0.25167453  0.74963260  1
  Te2-  Te145  1  0.58632198  0.58340070  0.08652429  1
  Te2-  Te146  1  0.57503754  0.59325819  0.41733738  1
  Te2-  Te147  1  0.58546527  0.58057623  0.74579859  1
  Te2-  Te148  1  0.58792415  0.92130214  0.08292113  1
  Te2-  Te149  1  0.58694008  0.92188959  0.40831747  1
  Te2-  Te150  1  0.58936566  0.92291491  0.74115989  1
  Te2-  Te151  1  0.92126570  0.25878035  0.07647637  1
  Te2-  Te152  1  0.92528753  0.25303181  0.41190766  1
  Te2-  Te153  1  0.91579701  0.25001406  0.74730438  1
  Te2-  Te154  1  0.91417423  0.58780441  0.08632618  1
  Te2-  Te155  1  0.92180696  0.58507919  0.40879701  1
  Te2-  Te156  1  0.91832762  0.58442184  0.74579490  1
  Te2-  Te157  1  0.92401159  0.91629600  0.07576098  1
  Te2-  Te158  1  0.92036550  0.92136188  0.41693754  1
  Te2-  Te159  1  0.91850424  0.91894721  0.74925052  1
  Te2-  Te160  1  0.25606121  0.08100803  0.25208081  1
  Te2-  Te161  1  0.25269468  0.07991983  0.58484386  1
  Te2-  Te162  1  0.24814564  0.07779512  0.91778324  1
  Te2-  Te163  1  0.25249854  0.40914497  0.24943283  1
  Te2-  Te164  1  0.24879960  0.40768058  0.59270210  1
  Te2-  Te165  1  0.25326614  0.41670607  0.91792983  1
  Te2-  Te166  1  0.25264658  0.74567145  0.25020776  1
  Te2-  Te167  1  0.25386583  0.74787505  0.58652932  1
  Te2-  Te168  1  0.25176853  0.74946408  0.91731381  1
  Te2-  Te169  1  0.58734615  0.08433712  0.25114899  1
  Te2-  Te170  1  0.59028628  0.07954935  0.58831708  1
  Te2-  Te171  1  0.58864456  0.07976105  0.92602508  1
  Te2-  Te172  1  0.58509686  0.40888477  0.26137222  1
  Te2-  Te173  1  0.58267410  0.42006568  0.58871056  1
  Te2-  Te174  1  0.59052870  0.41242638  0.92053564  1
  Te2-  Te175  1  0.58444832  0.74828655  0.25210554  1
  Te2-  Te176  1  0.58794831  0.74780505  0.58194058  1
  Te2-  Te177  1  0.58449064  0.74707551  0.91568606  1
  Te2-  Te178  1  0.92630532  0.08511880  0.25359214  1
  Te2-  Te179  1  0.92321057  0.08316078  0.58430283  1
  Te2-  Te180  1  0.91928287  0.07667546  0.91412056  1
  Te2-  Te181  1  0.91852595  0.41722825  0.25732499  1
  Te2-  Te182  1  0.91622592  0.41692821  0.58503057  1
  Te2-  Te183  1  0.91923403  0.41506327  0.91764432  1
  Te2-  Te184  1  0.92569000  0.74333949  0.25080230  1
  Te2-  Te185  1  0.91652215  0.74247527  0.58633869  1
  Te2-  Te186  1  0.91783418  0.74509437  0.92108049  1
  Te2-  Te187  1  0.08113558  0.24737711  0.25103759  1
  Te2-  Te188  1  0.08507207  0.25288711  0.58475183  1
  Te2-  Te189  1  0.07827985  0.25406481  0.91586246  1
  Te2-  Te190  1  0.08317968  0.58269842  0.25350426  1
  Te2-  Te191  1  0.07509713  0.58182861  0.58656245  1
  Te2-  Te192  1  0.08142209  0.58626582  0.91920225  1
  Te2-  Te193  1  0.08081141  0.92104809  0.25578098  1
  Te2-  Te194  1  0.07919289  0.91685589  0.57987037  1
  Te2-  Te195  1  0.07971115  0.91607034  0.91532736  1
  Te2-  Te196  1  0.41633432  0.25397745  0.24980335  1
  Te2-  Te197  1  0.41417991  0.24790606  0.59079045  1
  Te2-  Te198  1  0.41013630  0.24993698  0.92052869  1
  Te2-  Te199  1  0.41437826  0.58347867  0.25509879  1
  Te2-  Te200  1  0.40682840  0.59291301  0.59054635  1
  Te2-  Te201  1  0.41869903  0.58416061  0.92101691  1
  Te2-  Te202  1  0.41654872  0.92282973  0.25041542  1
  Te2-  Te203  1  0.41285884  0.92083420  0.58205413  1
  Te2-  Te204  1  0.41398102  0.91716181  0.91496734  1
  Te2-  Te205  1  0.75174011  0.25138100  0.25234622  1
  Te2-  Te206  1  0.75135869  0.25671262  0.58327894  1
  Te2-  Te207  1  0.75084752  0.24986227  0.91994100  1
  Te2-  Te208  1  0.73923188  0.59030590  0.25797339  1
  Te2-  Te209  1  0.74696522  0.58879670  0.58097913  1
  Te2-  Te210  1  0.74586521  0.58542663  0.91805372  1
  Te2-  Te211  1  0.75314741  0.92126968  0.25098600  1
  Te2-  Te212  1  0.74884800  0.91947844  0.58617539  1
  Te2-  Te213  1  0.74766866  0.92069278  0.92688070  1
  Te2-  Te214  1  0.08434966  0.07272776  0.07808291  1
  Te2-  Te215  1  0.08190272  0.08118142  0.41416887  1
  Te2-  Te216  1  0.08037566  0.08170374  0.74504630  1
  Te2-  Te217  1  0.07906586  0.41434728  0.07775118  1
  Te2-  Te218  1  0.08096180  0.41035258  0.41319328  1
  Te2-  Te219  1  0.08216552  0.41672948  0.74825844  1
  Te2-  Te220  1  0.08014521  0.74837033  0.08250392  1
  Te2-  Te221  1  0.08457387  0.74382583  0.40814972  1
  Te2-  Te222  1  0.07773054  0.74129780  0.74550231  1
  Te2-  Te223  1  0.41802118  0.08545787  0.07908028  1
  Te2-  Te224  1  0.41822363  0.08329348  0.41510354  1
  Te2-  Te225  1  0.41366522  0.07788339  0.75223357  1
  Te2-  Te226  1  0.41329194  0.41507981  0.08323412  1
  Te2-  Te227  1  0.40947567  0.41336648  0.41684920  1
  Te2-  Te228  1  0.41355054  0.40637240  0.75308579  1
  Te2-  Te229  1  0.41608938  0.74891069  0.08148380  1
  Te2-  Te230  1  0.41336237  0.75015163  0.40677362  1
  Te2-  Te231  1  0.41418653  0.74997160  0.74479268  1
  Te2-  Te232  1  0.75255221  0.08111662  0.08377902  1
  Te2-  Te233  1  0.75119355  0.08338477  0.41116832  1
  Te2-  Te234  1  0.74470745  0.07779936  0.74394829  1
  Te2-  Te235  1  0.74635044  0.41574093  0.08085747  1
  Te2-  Te236  1  0.74096371  0.40943392  0.41541388  1
  Te2-  Te237  1  0.74880511  0.41458870  0.74585260  1
  Te2-  Te238  1  0.74926956  0.74807672  0.08181726  1
  Te2-  Te239  1  0.74186736  0.75155162  0.41175930  1
  Te2-  Te240  1  0.74191727  0.74797756  0.75146455  1
