# generated using pymatgen
data_Ti27(Cu53Te54)2
_symmetry_space_group_name_H-M   'P 1'
_cell_length_a   17.88493626
_cell_length_b   17.88673334
_cell_length_c   17.88700760
_cell_angle_alpha   89.98650137
_cell_angle_beta   90.03162782
_cell_angle_gamma   90.05775010
_symmetry_Int_Tables_number   1
_chemical_formula_structural   Ti27(Cu53Te54)2
_chemical_formula_sum   'Ti27 Cu106 Te108'
_cell_volume   5722.10498913
_cell_formula_units_Z   1
loop_
 _symmetry_equiv_pos_site_id
 _symmetry_equiv_pos_as_xyz
  1  'x, y, z'
loop_
 _atom_type_symbol
 _atom_type_oxidation_number
  Ti4+  4.0
  Cu+  1.0
  Te2-  -2.0
loop_
 _atom_site_type_symbol
 _atom_site_label
 _atom_site_symmetry_multiplicity
 _atom_site_fract_x
 _atom_site_fract_y
 _atom_site_fract_z
 _atom_site_occupancy
  Ti4+  Ti0  1  0.16737711  0.16585285  0.16748743  1
  Ti4+  Ti1  1  0.16671689  0.16663303  0.49984942  1
  Ti4+  Ti2  1  0.16705520  0.17131479  0.83226630  1
  Ti4+  Ti3  1  0.16742925  0.49981128  0.17256128  1
  Ti4+  Ti4  1  0.16868623  0.50150319  0.49683337  1
  Ti4+  Ti5  1  0.16778608  0.50122389  0.83980590  1
  Ti4+  Ti6  1  0.16624077  0.83340964  0.16543333  1
  Ti4+  Ti7  1  0.16451169  0.83265870  0.49975152  1
  Ti4+  Ti8  1  0.16319801  0.83028645  0.83484647  1
  Ti4+  Ti9  1  0.50142148  0.16425862  0.16731230  1
  Ti4+  Ti10  1  0.50121182  0.16818702  0.50136186  1
  Ti4+  Ti11  1  0.49638573  0.16384287  0.82881378  1
  Ti4+  Ti12  1  0.50014199  0.49686422  0.16500479  1
  Ti4+  Ti13  1  0.50093861  0.49879697  0.50067815  1
  Ti4+  Ti14  1  0.49789695  0.50077068  0.83058648  1
  Ti4+  Ti15  1  0.49943151  0.83006222  0.16473650  1
  Ti4+  Ti16  1  0.50117360  0.83624730  0.49754022  1
  Ti4+  Ti17  1  0.50068470  0.83653167  0.83427046  1
  Ti4+  Ti18  1  0.83383625  0.16660013  0.16629419  1
  Ti4+  Ti19  1  0.83525567  0.16794575  0.50050257  1
  Ti4+  Ti20  1  0.83554849  0.16785375  0.83441396  1
  Ti4+  Ti21  1  0.83242188  0.49895525  0.16681091  1
  Ti4+  Ti22  1  0.83203669  0.50266891  0.50127418  1
  Ti4+  Ti23  1  0.83402042  0.49996342  0.83006320  1
  Ti4+  Ti24  1  0.83535001  0.83333927  0.16753667  1
  Ti4+  Ti25  1  0.83072579  0.83605396  0.50311544  1
  Ti4+  Ti26  1  0.83332377  0.83033857  0.83884180  1
  Cu+  Cu27  1  0.16667294  0.17089081  -0.00140536  1
  Cu+  Cu28  1  0.16695508  0.16541096  0.33202636  1
  Cu+  Cu29  1  0.16853787  0.16790943  0.66550637  1
  Cu+  Cu30  1  0.17097656  0.49829161  0.01067079  1
  Cu+  Cu31  1  0.17027626  0.49746512  0.33646649  1
  Cu+  Cu32  1  0.16874974  0.50462644  0.66430977  1
  Cu+  Cu33  1  0.16304901  0.82889864  -0.00216506  1
  Cu+  Cu34  1  0.16413725  0.82992627  0.33037362  1
  Cu+  Cu35  1  0.16257825  0.83355261  0.66303248  1
  Cu+  Cu36  1  0.50109749  0.16364294  -0.00149407  1
  Cu+  Cu37  1  0.50351327  0.16357391  0.33667678  1
  Cu+  Cu38  1  0.49055569  0.16589108  0.66412453  1
  Cu+  Cu39  1  0.49534902  0.49826605  -0.00285218  1
  Cu+  Cu40  1  0.49971796  0.49935232  0.33184374  1
  Cu+  Cu41  1  0.50518828  0.49782412  0.66643601  1
  Cu+  Cu42  1  0.49505265  0.83413172  0.00117345  1
  Cu+  Cu43  1  0.50485044  0.83552803  0.32546216  1
  Cu+  Cu44  1  0.50542452  0.83953422  0.66313816  1
  Cu+  Cu45  1  0.83250237  0.16721832  0.00078604  1
  Cu+  Cu46  1  0.83425590  0.16870352  0.33072029  1
  Cu+  Cu47  1  0.83542626  0.16750336  0.66625640  1
  Cu+  Cu48  1  0.83480495  0.49928030  -0.00137279  1
  Cu+  Cu49  1  0.83381797  0.50030733  0.33357748  1
  Cu+  Cu50  1  0.82768468  0.50475652  0.66637542  1
  Cu+  Cu51  1  0.83977976  0.83413360  0.00270036  1
  Cu+  Cu52  1  0.83168547  0.83313877  0.33775546  1
  Cu+  Cu53  1  0.82980200  0.83381715  0.67413521  1
  Cu+  Cu54  1  0.16816436  0.00103626  0.16325856  1
  Cu+  Cu55  1  0.16220817  -0.00308727  0.49855822  1
  Cu+  Cu56  1  0.16598859  0.00372896  0.83447304  1
  Cu+  Cu57  1  0.16801332  0.33143635  0.16962834  1
  Cu+  Cu58  1  0.16985110  0.33329709  0.49785640  1
  Cu+  Cu59  1  0.17047569  0.33778568  0.83520434  1
  Cu+  Cu60  1  0.16285386  0.66633361  0.17313672  1
  Cu+  Cu61  1  0.17103759  0.67093036  0.49727665  1
  Cu+  Cu62  1  0.15807466  0.66319251  0.83770640  1
  Cu+  Cu63  1  0.49962961  -0.00425851  0.16668345  1
  Cu+  Cu64  1  0.50689052  0.00478208  0.50133210  1
  Cu+  Cu65  1  0.49481645  -0.00324449  0.82816466  1
  Cu+  Cu66  1  0.50117900  0.32865569  0.16805101  1
  Cu+  Cu67  1  0.50362410  0.33316605  0.50212804  1
  Cu+  Cu68  1  0.49635022  0.33176147  0.82765640  1
  Cu+  Cu69  1  0.50168697  0.66247611  0.16349708  1
  Cu+  Cu70  1  0.49500765  0.66366519  0.49736572  1
  Cu+  Cu71  1  0.49998158  0.67359435  0.83770253  1
  Cu+  Cu72  1  0.83488267  0.00246053  0.16684055  1
  Cu+  Cu73  1  0.83326234  0.00286905  0.50363306  1
  Cu+  Cu74  1  0.83564184  0.00067809  0.83958618  1
  Cu+  Cu75  1  0.83237078  0.33244943  0.16600580  1
  Cu+  Cu76  1  0.83515164  0.33593855  0.49976365  1
  Cu+  Cu77  1  0.83471457  0.33249507  0.83442380  1
  Cu+  Cu78  1  0.83270405  0.66306046  0.16759096  1
  Cu+  Cu79  1  0.83158300  0.67113882  0.50163133  1
  Cu+  Cu80  1  0.83368386  0.66398658  0.82810851  1
  Cu+  Cu81  1  0.00045973  0.16725092  0.16499485  1
  Cu+  Cu82  1  0.00211321  0.16929220  0.50069292  1
  Cu+  Cu83  1  0.00249657  0.17012438  0.83398887  1
  Cu+  Cu84  1  -0.00042884  0.50208922  0.17081316  1
  Cu+  Cu85  1  -0.00349637  0.49985842  0.49940510  1
  Cu+  Cu86  1  0.00355436  0.50594658  0.83438094  1
  Cu+  Cu87  1  0.00221241  0.83215730  0.17095160  1
  Cu+  Cu88  1  -0.00477097  0.83281420  0.49919059  1
  Cu+  Cu89  1  -0.00326859  0.82594467  0.84265666  1
  Cu+  Cu90  1  0.33452966  0.16439272  0.17008891  1
  Cu+  Cu91  1  0.33379300  0.16705708  0.50342554  1
  Cu+  Cu92  1  0.33040337  0.16860178  0.82415662  1
  Cu+  Cu93  1  0.33130369  0.49617943  0.16621284  1
  Cu+  Cu94  1  0.33805041  0.50153859  0.49411043  1
  Cu+  Cu95  1  0.33232302  0.49529126  0.83682889  1
  Cu+  Cu96  1  0.33456439  0.83476308  0.15827893  1
  Cu+  Cu97  1  0.32855720  0.83095381  0.49591534  1
  Cu+  Cu98  1  0.33463402  0.83144677  0.83564367  1
  Cu+  Cu99  1  0.66916896  0.16564589  0.16541779  1
  Cu+  Cu100  1  0.66982082  0.16725403  0.49929507  1
  Cu+  Cu101  1  0.66606824  0.16497174  0.83446584  1
  Cu+  Cu102  1  0.66666196  0.49781914  0.16541523  1
  Cu+  Cu103  1  0.66617289  0.50170718  0.50146748  1
  Cu+  Cu104  1  0.66532732  0.50075302  0.82569154  1
  Cu+  Cu105  1  0.66867363  0.83025472  0.16724971  1
  Cu+  Cu106  1  0.66431901  0.83906298  0.50586112  1
  Cu+  Cu107  1  0.66967521  0.83771348  0.83569475  1
  Cu+  Cu108  1  0.60015428  0.07897230  0.40627989  1
  Cu+  Cu109  1  0.73432768  0.59510548  0.73799161  1
  Cu+  Cu110  1  0.92193728  0.40520499  0.40428885  1
  Cu+  Cu111  1  0.41413117  0.39953168  0.92725974  1
  Cu+  Cu112  1  0.07113042  0.73810396  0.26114786  1
  Cu+  Cu113  1  0.92526463  0.74314043  0.74080891  1
  Cu+  Cu114  1  0.40361788  0.06995185  0.58195868  1
  Cu+  Cu115  1  0.25781449  0.40120699  0.08040654  1
  Cu+  Cu116  1  0.59677006  0.40065099  0.74199626  1
  Cu+  Cu117  1  0.40612406  0.93071916  0.07397337  1
  Cu+  Cu118  1  0.07916431  0.58881565  0.73544940  1
  Cu+  Cu119  1  0.59848128  0.92512049  0.24789588  1
  Cu+  Cu120  1  0.92674459  0.93147939  0.93025844  1
  Cu+  Cu121  1  0.26183218  0.74719221  0.39917522  1
  Cu+  Cu122  1  0.74768124  0.93210663  0.74902646  1
  Cu+  Cu123  1  0.91920962  0.74223227  0.40812045  1
  Cu+  Cu124  1  0.40603897  0.74114827  0.92778378  1
  Cu+  Cu125  1  0.59514685  0.93395833  0.59460479  1
  Cu+  Cu126  1  0.06831533  0.73353602  0.93272204  1
  Cu+  Cu127  1  0.40470518  0.26254829  0.73493258  1
  Cu+  Cu128  1  0.25147477  0.41515260  0.73744548  1
  Cu+  Cu129  1  0.40013385  0.90893141  0.73317085  1
  Cu+  Cu130  1  0.26615882  0.40139670  0.40904237  1
  Cu+  Cu131  1  0.24917789  0.07021485  0.73873826  1
  Cu+  Cu132  1  0.41188521  0.59287809  0.40010260  1
  Te2-  Te133  1  0.25594490  0.25013556  0.08189816  1
  Te2-  Te134  1  0.25545021  0.24905444  0.41245019  1
  Te2-  Te135  1  0.25213214  0.26074774  0.74104062  1
  Te2-  Te136  1  0.25167628  0.58931592  0.08798044  1
  Te2-  Te137  1  0.25595827  0.59088995  0.40947667  1
  Te2-  Te138  1  0.25268647  0.58809924  0.75333452  1
  Te2-  Te139  1  0.24933703  0.91895304  0.07476634  1
  Te2-  Te140  1  0.24819818  0.91857980  0.41158625  1
  Te2-  Te141  1  0.24875112  0.91620910  0.74675716  1
  Te2-  Te142  1  0.58525208  0.24890232  0.08050594  1
  Te2-  Te143  1  0.58769778  0.25327596  0.41513983  1
  Te2-  Te144  1  0.58561725  0.24775263  0.74452733  1
  Te2-  Te145  1  0.58445633  0.58025749  0.07790037  1
  Te2-  Te146  1  0.58535470  0.58476653  0.41387836  1
  Te2-  Te147  1  0.58098148  0.59296756  0.74683960  1
  Te2-  Te148  1  0.58755015  0.91611673  0.08001418  1
  Te2-  Te149  1  0.58918633  0.92206104  0.41022877  1
  Te2-  Te150  1  0.59102658  0.92423270  0.74760444  1
  Te2-  Te151  1  0.91878034  0.25279669  0.08066516  1
  Te2-  Te152  1  0.92104087  0.25274606  0.41300973  1
  Te2-  Te153  1  0.91993094  0.25284852  0.74807507  1
  Te2-  Te154  1  0.91918199  0.58409664  0.08204065  1
  Te2-  Te155  1  0.91783048  0.58928065  0.41456651  1
  Te2-  Te156  1  0.92397577  0.58694781  0.74182225  1
  Te2-  Te157  1  0.92397000  0.92057590  0.08514291  1
  Te2-  Te158  1  0.91607516  0.92183675  0.41659500  1
  Te2-  Te159  1  0.92162970  0.91645783  0.75349549  1
  Te2-  Te160  1  0.25222997  0.07879001  0.25248419  1
  Te2-  Te161  1  0.25087934  0.07520406  0.58536560  1
  Te2-  Te162  1  0.25294645  0.08582943  0.91788630  1
  Te2-  Te163  1  0.25528808  0.41037495  0.25656036  1
  Te2-  Te164  1  0.25516914  0.41728590  0.58293587  1
  Te2-  Te165  1  0.25513789  0.41140226  0.92735708  1
  Te2-  Te166  1  0.25717346  0.74819786  0.24797389  1
  Te2-  Te167  1  0.25197577  0.74867805  0.58804062  1
  Te2-  Te168  1  0.25135708  0.74400121  0.91835578  1
  Te2-  Te169  1  0.59013622  0.07785320  0.25226602  1
  Te2-  Te170  1  0.59049697  0.08617432  0.59213047  1
  Te2-  Te171  1  0.58102466  0.07861850  0.91362175  1
  Te2-  Te172  1  0.58507317  0.41314590  0.25139633  1
  Te2-  Te173  1  0.59023776  0.41220078  0.58634215  1
  Te2-  Te174  1  0.58428068  0.41412438  0.91389557  1
  Te2-  Te175  1  0.58636892  0.74260636  0.24958704  1
  Te2-  Te176  1  0.58117800  0.74633059  0.58201836  1
  Te2-  Te177  1  0.58779652  0.75353124  0.92133846  1
  Te2-  Te178  1  0.92086839  0.08228483  0.25232325  1
  Te2-  Te179  1  0.92130135  0.08330788  0.58567602  1
  Te2-  Te180  1  0.92330946  0.08440499  0.92208812  1
  Te2-  Te181  1  0.91948282  0.41231511  0.25224983  1
  Te2-  Te182  1  0.91662507  0.41809500  0.58920885  1
  Te2-  Te183  1  0.92071058  0.41680063  0.91543460  1
  Te2-  Te184  1  0.91793217  0.74399618  0.25485555  1
  Te2-  Te185  1  0.91685707  0.74947061  0.58975490  1
  Te2-  Te186  1  0.91536781  0.73678684  0.92566554  1
  Te2-  Te187  1  0.08132135  0.25099263  0.25250537  1
  Te2-  Te188  1  0.08414896  0.25422574  0.58468706  1
  Te2-  Te189  1  0.08275538  0.25709614  0.91805370  1
  Te2-  Te190  1  0.07933513  0.58370289  0.26010098  1
  Te2-  Te191  1  0.08207626  0.58814427  0.58081297  1
  Te2-  Te192  1  0.08053580  0.58136050  0.93162247  1
  Te2-  Te193  1  0.08373385  0.92142353  0.25104807  1
  Te2-  Te194  1  0.07667823  0.91790608  0.58404764  1
  Te2-  Te195  1  0.08085056  0.92117206  0.91928188  1
  Te2-  Te196  1  0.41739556  0.24786780  0.25501317  1
  Te2-  Te197  1  0.41162668  0.25853905  0.58368189  1
  Te2-  Te198  1  0.41281791  0.24765762  0.91820132  1
  Te2-  Te199  1  0.41302334  0.58455504  0.24873934  1
  Te2-  Te200  1  0.41503788  0.58298013  0.58782080  1
  Te2-  Te201  1  0.41205094  0.58747835  0.91750922  1
  Te2-  Te202  1  0.41087260  0.91652085  0.25058504  1
  Te2-  Te203  1  0.40854920  0.91914504  0.58159947  1
  Te2-  Te204  1  0.41082010  0.92280420  0.92023438  1
  Te2-  Te205  1  0.74713991  0.25236712  0.25147940  1
  Te2-  Te206  1  0.75016417  0.25342109  0.58504987  1
  Te2-  Te207  1  0.74761964  0.25163929  0.91801676  1
  Te2-  Te208  1  0.74616193  0.58357981  0.25245640  1
  Te2-  Te209  1  0.74347868  0.59128298  0.58493197  1
  Te2-  Te210  1  0.74762434  0.58288697  0.91592799  1
  Te2-  Te211  1  0.75079948  0.91954498  0.25332302  1
  Te2-  Te212  1  0.74750646  0.92512455  0.59176446  1
  Te2-  Te213  1  0.74944645  0.91888890  0.92568239  1
  Te2-  Te214  1  0.08267998  0.08317234  0.07905692  1
  Te2-  Te215  1  0.08096322  0.08250636  0.41465941  1
  Te2-  Te216  1  0.08112723  0.08415727  0.74728546  1
  Te2-  Te217  1  0.08053768  0.41451475  0.08763712  1
  Te2-  Te218  1  0.07974982  0.41400236  0.41493400  1
  Te2-  Te219  1  0.08320789  0.41771366  0.74911610  1
  Te2-  Te220  1  0.07821431  0.74433417  0.08279776  1
  Te2-  Te221  1  0.07574387  0.74435346  0.41403441  1
  Te2-  Te222  1  0.07825626  0.74548035  0.74408702  1
  Te2-  Te223  1  0.41365260  0.08066705  0.08055952  1
  Te2-  Te224  1  0.41372674  0.08056993  0.41672902  1
  Te2-  Te225  1  0.40662904  0.07237130  0.74072887  1
  Te2-  Te226  1  0.41339280  0.40720249  0.08067764  1
  Te2-  Te227  1  0.41835921  0.40880316  0.41240436  1
  Te2-  Te228  1  0.40884239  0.41553874  0.74022621  1
  Te2-  Te229  1  0.41260408  0.74071597  0.07952667  1
  Te2-  Te230  1  0.41629765  0.75016752  0.40807182  1
  Te2-  Te231  1  0.41780825  0.75134525  0.74327259  1
  Te2-  Te232  1  0.74858016  0.07984544  0.08019841  1
  Te2-  Te233  1  0.75125173  0.08053497  0.41262056  1
  Te2-  Te234  1  0.74962787  0.08215662  0.74831110  1
  Te2-  Te235  1  0.74874931  0.41416581  0.07950140  1
  Te2-  Te236  1  0.74672199  0.41669077  0.41576605  1
  Te2-  Te237  1  0.74945104  0.40990093  0.74535993  1
  Te2-  Te238  1  0.75129875  0.74780819  0.08184396  1
  Te2-  Te239  1  0.74212922  0.75147980  0.41866293  1
  Te2-  Te240  1  0.74183190  0.74655013  0.74951061  1
