# generated using pymatgen
data_Ti27(Cu53Te54)2
_symmetry_space_group_name_H-M   'P 1'
_cell_length_a   17.93304172
_cell_length_b   17.92711033
_cell_length_c   17.92741452
_cell_angle_alpha   89.99352005
_cell_angle_beta   89.99623647
_cell_angle_gamma   89.99295360
_symmetry_Int_Tables_number   1
_chemical_formula_structural   Ti27(Cu53Te54)2
_chemical_formula_sum   'Ti27 Cu106 Te108'
_cell_volume   5763.44168526
_cell_formula_units_Z   1
loop_
 _symmetry_equiv_pos_site_id
 _symmetry_equiv_pos_as_xyz
  1  'x, y, z'
loop_
 _atom_type_symbol
 _atom_type_oxidation_number
  Ti4+  4.0
  Cu+  1.0
  Te2-  -2.0
loop_
 _atom_site_type_symbol
 _atom_site_label
 _atom_site_symmetry_multiplicity
 _atom_site_fract_x
 _atom_site_fract_y
 _atom_site_fract_z
 _atom_site_occupancy
  Ti4+  Ti0  1  0.16719523  0.16686861  0.16809652  1
  Ti4+  Ti1  1  0.16030642  0.16678514  0.49977398  1
  Ti4+  Ti2  1  0.16529616  0.16257560  0.83282369  1
  Ti4+  Ti3  1  0.16668941  0.49643385  0.16252187  1
  Ti4+  Ti4  1  0.16581403  0.49942568  0.49997149  1
  Ti4+  Ti5  1  0.16565447  0.49686456  0.83450575  1
  Ti4+  Ti6  1  0.16759808  0.83271116  0.16734500  1
  Ti4+  Ti7  1  0.16931853  0.83230630  0.49937222  1
  Ti4+  Ti8  1  0.16845141  0.83026875  0.83313849  1
  Ti4+  Ti9  1  0.50129672  0.16461616  0.16797264  1
  Ti4+  Ti10  1  0.49936921  0.17023859  0.49651618  1
  Ti4+  Ti11  1  0.50141876  0.16726503  0.82951863  1
  Ti4+  Ti12  1  0.49913671  0.49751539  0.16430227  1
  Ti4+  Ti13  1  0.50054792  0.50073017  0.50143105  1
  Ti4+  Ti14  1  0.49745708  0.50166484  0.83146604  1
  Ti4+  Ti15  1  0.49986236  0.82956114  0.16735650  1
  Ti4+  Ti16  1  0.50359689  0.83428755  0.50213605  1
  Ti4+  Ti17  1  0.49960339  0.83573618  0.83854851  1
  Ti4+  Ti18  1  0.83268052  0.16741921  0.16689456  1
  Ti4+  Ti19  1  0.83454674  0.17060509  0.49729451  1
  Ti4+  Ti20  1  0.83226574  0.16640613  0.83479982  1
  Ti4+  Ti21  1  0.83615964  0.50361147  0.16639207  1
  Ti4+  Ti22  1  0.83157891  0.49863421  0.50194497  1
  Ti4+  Ti23  1  0.83257139  0.50270681  0.83915499  1
  Ti4+  Ti24  1  0.83366822  0.83298222  0.16723461  1
  Ti4+  Ti25  1  0.83523649  0.83411823  0.49871034  1
  Ti4+  Ti26  1  0.83741221  0.83483575  0.83260512  1
  Cu+  Cu27  1  0.16603322  0.16396145  0.00099442  1
  Cu+  Cu28  1  0.16515415  0.16587517  0.33691502  1
  Cu+  Cu29  1  0.16381844  0.16380782  0.66724255  1
  Cu+  Cu30  1  0.16733922  0.48878184  -0.00148972  1
  Cu+  Cu31  1  0.16821206  0.50007193  0.32989793  1
  Cu+  Cu32  1  0.16299630  0.49869061  0.66740685  1
  Cu+  Cu33  1  0.17035935  0.83095068  0.00002255  1
  Cu+  Cu34  1  0.16847847  0.83430351  0.33267738  1
  Cu+  Cu35  1  0.16756873  0.82955777  0.66550734  1
  Cu+  Cu36  1  0.50103337  0.16604730  -0.00205032  1
  Cu+  Cu37  1  0.50204673  0.16245792  0.33391491  1
  Cu+  Cu38  1  0.50177718  0.17223373  0.66240266  1
  Cu+  Cu39  1  0.49585444  0.50313366  -0.00046607  1
  Cu+  Cu40  1  0.50130853  0.49826005  0.33178122  1
  Cu+  Cu41  1  0.49759983  0.50138646  0.66377156  1
  Cu+  Cu42  1  0.49567014  0.83715202  0.00593885  1
  Cu+  Cu43  1  0.50251050  0.82981027  0.33372651  1
  Cu+  Cu44  1  0.50216435  0.83460266  0.67079689  1
  Cu+  Cu45  1  0.82967167  0.16611916  0.00003254  1
  Cu+  Cu46  1  0.83742743  0.17335040  0.32963509  1
  Cu+  Cu47  1  0.83617991  0.16667753  0.66907825  1
  Cu+  Cu48  1  0.84068587  0.50677108  0.00023282  1
  Cu+  Cu49  1  0.83174328  0.50107658  0.33390334  1
  Cu+  Cu50  1  0.83062520  0.50082102  0.67391793  1
  Cu+  Cu51  1  0.83446761  0.83189933  -0.00009434  1
  Cu+  Cu52  1  0.83225474  0.83184139  0.33187948  1
  Cu+  Cu53  1  0.83597324  0.83503897  0.66338835  1
  Cu+  Cu54  1  0.16727286  0.00217114  0.16933220  1
  Cu+  Cu55  1  0.16371278  -0.00299346  0.49362192  1
  Cu+  Cu56  1  0.16753380  -0.00530690  0.83178838  1
  Cu+  Cu57  1  0.17183829  0.33295329  0.16247348  1
  Cu+  Cu58  1  0.15623195  0.33815315  0.50482027  1
  Cu+  Cu59  1  0.16295687  0.32867749  0.83412021  1
  Cu+  Cu60  1  0.16663704  0.66627734  0.16498604  1
  Cu+  Cu61  1  0.17008646  0.66541951  0.49991589  1
  Cu+  Cu62  1  0.16757913  0.66481348  0.83345171  1
  Cu+  Cu63  1  0.50092003  -0.00342193  0.16890843  1
  Cu+  Cu64  1  0.50067787  0.00021294  0.49722872  1
  Cu+  Cu65  1  0.49644980  0.00491338  0.83497404  1
  Cu+  Cu66  1  0.50101492  0.32977225  0.16832992  1
  Cu+  Cu67  1  0.50260998  0.33645478  0.50284409  1
  Cu+  Cu68  1  0.49978344  0.33385578  0.82872754  1
  Cu+  Cu69  1  0.49595025  0.66271730  0.16447216  1
  Cu+  Cu70  1  0.50510806  0.66742877  0.50442151  1
  Cu+  Cu71  1  0.50072315  0.66843974  0.83738833  1
  Cu+  Cu72  1  0.83014734  -0.00285567  0.16697549  1
  Cu+  Cu73  1  0.83641199  0.00238620  0.49665386  1
  Cu+  Cu74  1  0.83743317  0.00134335  0.83115612  1
  Cu+  Cu75  1  0.83667390  0.33539228  0.16750841  1
  Cu+  Cu76  1  0.83098877  0.33087219  0.50148005  1
  Cu+  Cu77  1  0.82704162  0.33283761  0.83590066  1
  Cu+  Cu78  1  0.83454683  0.66840169  0.16897324  1
  Cu+  Cu79  1  0.83271354  0.66720267  0.50072210  1
  Cu+  Cu80  1  0.83439873  0.67098852  0.83968840  1
  Cu+  Cu81  1  -0.00018612  0.16872737  0.16986000  1
  Cu+  Cu82  1  -0.00232712  0.17392740  0.49521078  1
  Cu+  Cu83  1  -0.00454216  0.16167888  0.83056610  1
  Cu+  Cu84  1  -0.00089060  0.49783190  0.16002982  1
  Cu+  Cu85  1  -0.00210964  0.49794028  0.50259428  1
  Cu+  Cu86  1  0.00060555  0.49986075  0.84137972  1
  Cu+  Cu87  1  -0.00038569  0.83326829  0.16653249  1
  Cu+  Cu88  1  0.00161221  0.83204428  0.49741877  1
  Cu+  Cu89  1  0.00632191  0.83622298  0.82749610  1
  Cu+  Cu90  1  0.33500156  0.16681055  0.16985052  1
  Cu+  Cu91  1  0.32594298  0.16639687  0.49729709  1
  Cu+  Cu92  1  0.33563691  0.16356667  0.83051104  1
  Cu+  Cu93  1  0.33327093  0.49641190  0.15857597  1
  Cu+  Cu94  1  0.33305206  0.49804052  0.50224355  1
  Cu+  Cu95  1  0.33108745  0.49835135  0.83007160  1
  Cu+  Cu96  1  0.33310539  0.83111413  0.16749407  1
  Cu+  Cu97  1  0.33808511  0.83437174  0.50353328  1
  Cu+  Cu98  1  0.33089636  0.83560806  0.83867087  1
  Cu+  Cu99  1  0.66601757  0.16478251  0.16732550  1
  Cu+  Cu100  1  0.66530529  0.17299663  0.49449322  1
  Cu+  Cu101  1  0.66778942  0.16746623  0.82998278  1
  Cu+  Cu102  1  0.67111708  0.50054979  0.16692868  1
  Cu+  Cu103  1  0.66421175  0.50031048  0.50102515  1
  Cu+  Cu104  1  0.66200474  0.50654823  0.83717190  1
  Cu+  Cu105  1  0.66532665  0.82895052  0.16840886  1
  Cu+  Cu106  1  0.67036673  0.83553581  0.50082564  1
  Cu+  Cu107  1  0.66984204  0.83202311  0.83578941  1
  Cu+  Cu108  1  0.06789254  0.41505375  0.59716813  1
  Cu+  Cu109  1  0.25810390  0.07136654  0.40832749  1
  Cu+  Cu110  1  0.40470190  0.40650095  0.59271394  1
  Cu+  Cu111  1  0.59340350  0.25995902  0.59397188  1
  Cu+  Cu112  1  0.92323767  0.25851226  0.59880926  1
  Cu+  Cu113  1  0.07235371  0.91597893  0.40146076  1
  Cu+  Cu114  1  0.73944834  0.25782708  0.40094138  1
  Cu+  Cu115  1  0.08107482  0.26682165  0.40372823  1
  Cu+  Cu116  1  0.59327276  0.41536314  0.40230030  1
  Cu+  Cu117  1  0.74065155  0.74705859  0.93014602  1
  Cu+  Cu118  1  0.59416944  0.06998633  0.40986047  1
  Cu+  Cu119  1  0.08162670  0.92283098  0.73569261  1
  Cu+  Cu120  1  0.59549865  0.59758446  0.59346705  1
  Cu+  Cu121  1  0.92080085  0.07392402  0.40194081  1
  Cu+  Cu122  1  0.93254632  0.60098294  0.92597461  1
  Cu+  Cu123  1  0.07258644  0.39784452  0.92544810  1
  Cu+  Cu124  1  0.58722540  0.59391608  0.93080427  1
  Cu+  Cu125  1  0.92268322  0.07194172  0.73785306  1
  Cu+  Cu126  1  0.91969726  0.40449822  0.07221136  1
  Cu+  Cu127  1  0.40260443  0.59204057  0.07123317  1
  Cu+  Cu128  1  0.40352974  0.92933455  0.08913728  1
  Cu+  Cu129  1  0.92971099  0.26576671  0.25239986  1
  Cu+  Cu130  1  0.25218096  0.92556463  0.92933797  1
  Cu+  Cu131  1  0.40713343  0.08340628  0.92818198  1
  Cu+  Cu132  1  0.26573311  0.40087047  0.06869878  1
  Te2-  Te133  1  0.25519802  0.24758131  0.07893343  1
  Te2-  Te134  1  0.24477497  0.25802584  0.41812944  1
  Te2-  Te135  1  0.24949405  0.24805857  0.74873843  1
  Te2-  Te136  1  0.24913636  0.58499655  0.07586812  1
  Te2-  Te137  1  0.25294245  0.58204211  0.41474236  1
  Te2-  Te138  1  0.24881157  0.58254691  0.74730193  1
  Te2-  Te139  1  0.25299279  0.92284306  0.08217051  1
  Te2-  Te140  1  0.25810633  0.91727613  0.41366029  1
  Te2-  Te141  1  0.25397869  0.91621546  0.74477174  1
  Te2-  Te142  1  0.58490699  0.24934874  0.08130725  1
  Te2-  Te143  1  0.58441453  0.25923059  0.40678136  1
  Te2-  Te144  1  0.58892976  0.25543086  0.74617378  1
  Te2-  Te145  1  0.58810589  0.58481523  0.08227000  1
  Te2-  Te146  1  0.58574449  0.58617780  0.41302750  1
  Te2-  Te147  1  0.58319440  0.58886340  0.74599957  1
  Te2-  Te148  1  0.58746339  0.91665615  0.08396965  1
  Te2-  Te149  1  0.58860113  0.91783346  0.41241290  1
  Te2-  Te150  1  0.58544444  0.91938263  0.75483556  1
  Te2-  Te151  1  0.91967405  0.25006937  0.07816037  1
  Te2-  Te152  1  0.92218129  0.26320594  0.40896032  1
  Te2-  Te153  1  0.91862132  0.25761210  0.75167177  1
  Te2-  Te154  1  0.92299786  0.59384593  0.08204492  1
  Te2-  Te155  1  0.91693733  0.58297925  0.41794319  1
  Te2-  Te156  1  0.91898709  0.58565818  0.75355694  1
  Te2-  Te157  1  0.91793110  0.91846934  0.08143579  1
  Te2-  Te158  1  0.92062993  0.91953068  0.40850076  1
  Te2-  Te159  1  0.92290263  0.92047709  0.74203536  1
  Te2-  Te160  1  0.25296292  0.08178402  0.25487045  1
  Te2-  Te161  1  0.24635190  0.07984160  0.58308829  1
  Te2-  Te162  1  0.25270299  0.07865439  0.91997396  1
  Te2-  Te163  1  0.25381906  0.41475701  0.24982398  1
  Te2-  Te164  1  0.25029479  0.41236045  0.58793338  1
  Te2-  Te165  1  0.25598502  0.40769391  0.91511412  1
  Te2-  Te166  1  0.25159591  0.74660828  0.25202787  1
  Te2-  Te167  1  0.25453177  0.74743157  0.58457164  1
  Te2-  Te168  1  0.25334067  0.74340210  0.91936911  1
  Te2-  Te169  1  0.58765064  0.07712558  0.25292130  1
  Te2-  Te170  1  0.58655339  0.08458692  0.58059720  1
  Te2-  Te171  1  0.58779823  0.08291912  0.91605687  1
  Te2-  Te172  1  0.58860303  0.41335494  0.24859523  1
  Te2-  Te173  1  0.58939458  0.41417042  0.59128951  1
  Te2-  Te174  1  0.58088024  0.41592795  0.91780140  1
  Te2-  Te175  1  0.58335837  0.74189980  0.25109404  1
  Te2-  Te176  1  0.59073845  0.75128616  0.59002849  1
  Te2-  Te177  1  0.58575496  0.74935498  0.92602081  1
  Te2-  Te178  1  0.91834992  0.07815184  0.25027357  1
  Te2-  Te179  1  0.92185441  0.08269817  0.58337590  1
  Te2-  Te180  1  0.91714363  0.08120813  0.92239362  1
  Te2-  Te181  1  0.92179922  0.41849296  0.25549263  1
  Te2-  Te182  1  0.91549703  0.41326206  0.59207234  1
  Te2-  Te183  1  0.91816203  0.40781555  0.92081373  1
  Te2-  Te184  1  0.92021005  0.74856139  0.25292136  1
  Te2-  Te185  1  0.92022858  0.74825585  0.58323469  1
  Te2-  Te186  1  0.92798100  0.75301780  0.91886487  1
  Te2-  Te187  1  0.08276830  0.25740411  0.25248228  1
  Te2-  Te188  1  0.07610145  0.25335731  0.59315040  1
  Te2-  Te189  1  0.07723811  0.24495047  0.91894922  1
  Te2-  Te190  1  0.08170945  0.58195192  0.24686717  1
  Te2-  Te191  1  0.08086010  0.58632615  0.58463277  1
  Te2-  Te192  1  0.08567644  0.58634835  0.92377221  1
  Te2-  Te193  1  0.08060115  0.91989302  0.25058916  1
  Te2-  Te194  1  0.08136442  0.91813969  0.58429998  1
  Te2-  Te195  1  0.08289072  0.91708307  0.92135909  1
  Te2-  Te196  1  0.41703241  0.24984814  0.25432317  1
  Te2-  Te197  1  0.40860989  0.25208248  0.58235113  1
  Te2-  Te198  1  0.41548544  0.25231211  0.91569860  1
  Te2-  Te199  1  0.41254561  0.57946626  0.25096667  1
  Te2-  Te200  1  0.41263624  0.58806260  0.58430053  1
  Te2-  Te201  1  0.40817204  0.58691737  0.91622028  1
  Te2-  Te202  1  0.41512159  0.91526660  0.25467452  1
  Te2-  Te203  1  0.41950676  0.92050631  0.58710266  1
  Te2-  Te204  1  0.41066939  0.92442789  0.92421659  1
  Te2-  Te205  1  0.74440282  0.25602960  0.24901887  1
  Te2-  Te206  1  0.74689763  0.25146293  0.58958481  1
  Te2-  Te207  1  0.74459707  0.25048696  0.91986794  1
  Te2-  Te208  1  0.74908407  0.58671355  0.25238114  1
  Te2-  Te209  1  0.74847380  0.58553806  0.58779619  1
  Te2-  Te210  1  0.74454530  0.58998635  0.92492400  1
  Te2-  Te211  1  0.74583541  0.91618481  0.25233383  1
  Te2-  Te212  1  0.75206180  0.92249813  0.58321862  1
  Te2-  Te213  1  0.75255036  0.92088235  0.91735422  1
  Te2-  Te214  1  0.08058571  0.08223152  0.08485449  1
  Te2-  Te215  1  0.07390225  0.07835052  0.41095508  1
  Te2-  Te216  1  0.07911975  0.07646337  0.74518219  1
  Te2-  Te217  1  0.07681395  0.40559817  0.07853781  1
  Te2-  Te218  1  0.07771248  0.41865353  0.40943567  1
  Te2-  Te219  1  0.07649490  0.41263471  0.74977337  1
  Te2-  Te220  1  0.08277159  0.74962078  0.08110711  1
  Te2-  Te221  1  0.08452975  0.74584317  0.41396825  1
  Te2-  Te222  1  0.08305975  0.74371744  0.74684055  1
  Te2-  Te223  1  0.41240577  0.08016483  0.08168231  1
  Te2-  Te224  1  0.41180767  0.08151126  0.41430498  1
  Te2-  Te225  1  0.41769716  0.08318968  0.74020609  1
  Te2-  Te226  1  0.41778844  0.40716021  0.07720628  1
  Te2-  Te227  1  0.41476494  0.41443660  0.41507082  1
  Te2-  Te228  1  0.41242654  0.41365665  0.74563761  1
  Te2-  Te229  1  0.41095571  0.74478471  0.07940681  1
  Te2-  Te230  1  0.41879729  0.74732156  0.41895105  1
  Te2-  Te231  1  0.41535458  0.75173331  0.75346714  1
  Te2-  Te232  1  0.74791384  0.08117286  0.08317346  1
  Te2-  Te233  1  0.74892440  0.08334318  0.41019757  1
  Te2-  Te234  1  0.74860836  0.08067802  0.74639279  1
  Te2-  Te235  1  0.75263333  0.41749770  0.07933641  1
  Te2-  Te236  1  0.74645094  0.41321018  0.41286530  1
  Te2-  Te237  1  0.74433143  0.41914588  0.75522668  1
  Te2-  Te238  1  0.74753548  0.74578049  0.08223126  1
  Te2-  Te239  1  0.74882411  0.74849790  0.41563088  1
  Te2-  Te240  1  0.75245127  0.74974689  0.74718070  1
