# generated using pymatgen
data_Ti27(Cu53Te54)2
_symmetry_space_group_name_H-M   'P 1'
_cell_length_a   17.87305044
_cell_length_b   17.87424640
_cell_length_c   17.87384926
_cell_angle_alpha   89.99090205
_cell_angle_beta   89.95632977
_cell_angle_gamma   90.00914176
_symmetry_Int_Tables_number   1
_chemical_formula_structural   Ti27(Cu53Te54)2
_chemical_formula_sum   'Ti27 Cu106 Te108'
_cell_volume   5710.10869317
_cell_formula_units_Z   1
loop_
 _symmetry_equiv_pos_site_id
 _symmetry_equiv_pos_as_xyz
  1  'x, y, z'
loop_
 _atom_type_symbol
 _atom_type_oxidation_number
  Ti4+  4.0
  Cu+  1.0
  Te2-  -2.0
loop_
 _atom_site_type_symbol
 _atom_site_label
 _atom_site_symmetry_multiplicity
 _atom_site_fract_x
 _atom_site_fract_y
 _atom_site_fract_z
 _atom_site_occupancy
  Ti4+  Ti0  1  0.16509941  0.16815410  0.16861703  1
  Ti4+  Ti1  1  0.16778190  0.16972910  0.50376185  1
  Ti4+  Ti2  1  0.17025383  0.16307326  0.83405137  1
  Ti4+  Ti3  1  0.16565595  0.49904577  0.16650708  1
  Ti4+  Ti4  1  0.16424330  0.50447123  0.50050260  1
  Ti4+  Ti5  1  0.16912642  0.49915548  0.83308496  1
  Ti4+  Ti6  1  0.16402961  0.83079820  0.16420274  1
  Ti4+  Ti7  1  0.17001480  0.83817285  0.49628537  1
  Ti4+  Ti8  1  0.16527445  0.83373812  0.83399260  1
  Ti4+  Ti9  1  0.49970088  0.17219053  0.16589558  1
  Ti4+  Ti10  1  0.50061609  0.16640728  0.49841924  1
  Ti4+  Ti11  1  0.50011793  0.16512751  0.83483071  1
  Ti4+  Ti12  1  0.49815975  0.50000546  0.16791791  1
  Ti4+  Ti13  1  0.50067552  0.49866781  0.49984228  1
  Ti4+  Ti14  1  0.50136808  0.49793950  0.83464528  1
  Ti4+  Ti15  1  0.50197240  0.83312792  0.16831997  1
  Ti4+  Ti16  1  0.49927284  0.83380511  0.50023774  1
  Ti4+  Ti17  1  0.49916813  0.82999998  0.83487436  1
  Ti4+  Ti18  1  0.83508109  0.16618096  0.16445862  1
  Ti4+  Ti19  1  0.83362658  0.16663979  0.49839136  1
  Ti4+  Ti20  1  0.83610034  0.16493168  0.83372204  1
  Ti4+  Ti21  1  0.83272901  0.49874379  0.16574238  1
  Ti4+  Ti22  1  0.83228569  0.49534702  0.49914334  1
  Ti4+  Ti23  1  0.83480960  0.49906964  0.83229113  1
  Ti4+  Ti24  1  0.83019490  0.83252152  0.16638442  1
  Ti4+  Ti25  1  0.83283540  0.83226958  0.49797733  1
  Ti4+  Ti26  1  0.83004599  0.83457487  0.83247297  1
  Cu+  Cu27  1  0.16807313  0.16194958  0.00036116  1
  Cu+  Cu28  1  0.16412012  0.16786256  0.33876070  1
  Cu+  Cu29  1  0.16562501  0.17034893  0.67222637  1
  Cu+  Cu30  1  0.16792773  0.49834885  -0.00144304  1
  Cu+  Cu31  1  0.16438612  0.50176402  0.33166916  1
  Cu+  Cu32  1  0.16496337  0.50531197  0.66932917  1
  Cu+  Cu33  1  0.16434262  0.83057173  0.00154045  1
  Cu+  Cu34  1  0.17175992  0.83708017  0.32471755  1
  Cu+  Cu35  1  0.16836271  0.83680096  0.66477024  1
  Cu+  Cu36  1  0.50117635  0.17468047  -0.00082834  1
  Cu+  Cu37  1  0.49675978  0.17310232  0.33190454  1
  Cu+  Cu38  1  0.49948272  0.16246675  0.66626027  1
  Cu+  Cu39  1  0.50184352  0.49620857  0.00195016  1
  Cu+  Cu40  1  0.49832338  0.50064961  0.33640178  1
  Cu+  Cu41  1  0.50065172  0.49916700  0.66879049  1
  Cu+  Cu42  1  0.50458829  0.83265560  0.00119461  1
  Cu+  Cu43  1  0.50002108  0.83136092  0.33799814  1
  Cu+  Cu44  1  0.49950608  0.82772148  0.66808925  1
  Cu+  Cu45  1  0.83354832  0.16610007  0.00119857  1
  Cu+  Cu46  1  0.83650106  0.16822242  0.32832964  1
  Cu+  Cu47  1  0.83619920  0.16468784  0.66640555  1
  Cu+  Cu48  1  0.83762852  0.49772055  -0.00088585  1
  Cu+  Cu49  1  0.82922488  0.49717510  0.33245077  1
  Cu+  Cu50  1  0.83245535  0.49612081  0.66397947  1
  Cu+  Cu51  1  0.83077212  0.83482093  -0.00125810  1
  Cu+  Cu52  1  0.82974330  0.83517593  0.33243261  1
  Cu+  Cu53  1  0.83008893  0.83053641  0.66708664  1
  Cu+  Cu54  1  0.16503470  -0.00225047  0.16671639  1
  Cu+  Cu55  1  0.17739955  0.00462859  0.50292196  1
  Cu+  Cu56  1  0.16447983  0.00154113  0.83735300  1
  Cu+  Cu57  1  0.16625430  0.33502630  0.16925569  1
  Cu+  Cu58  1  0.16325312  0.33867063  0.50068009  1
  Cu+  Cu59  1  0.17058689  0.33114120  0.83244578  1
  Cu+  Cu60  1  0.16304074  0.66434827  0.16314379  1
  Cu+  Cu61  1  0.16469000  0.67448926  0.49976540  1
  Cu+  Cu62  1  0.16805040  0.66578324  0.83063144  1
  Cu+  Cu63  1  0.50028739  0.00634387  0.16761099  1
  Cu+  Cu64  1  0.49616000  -0.00090156  0.50049412  1
  Cu+  Cu65  1  0.50071282  -0.00380041  0.83633261  1
  Cu+  Cu66  1  0.49730058  0.33463223  0.15991985  1
  Cu+  Cu67  1  0.50183891  0.33142435  0.49479789  1
  Cu+  Cu68  1  0.50328339  0.33087641  0.83564725  1
  Cu+  Cu69  1  0.50203492  0.66879366  0.16870326  1
  Cu+  Cu70  1  0.50009217  0.66547403  0.49596280  1
  Cu+  Cu71  1  0.49799008  0.66223300  0.83472230  1
  Cu+  Cu72  1  0.83046450  0.00104894  0.16588012  1
  Cu+  Cu73  1  0.83163025  -0.00135549  0.49504273  1
  Cu+  Cu74  1  0.83565383  -0.00210706  0.83544160  1
  Cu+  Cu75  1  0.83878536  0.33369870  0.16182941  1
  Cu+  Cu76  1  0.83008305  0.33167865  0.50631341  1
  Cu+  Cu77  1  0.83616066  0.33369740  0.83232420  1
  Cu+  Cu78  1  0.82953446  0.66472268  0.16779697  1
  Cu+  Cu79  1  0.83403217  0.66208049  0.50002450  1
  Cu+  Cu80  1  0.83034966  0.66906056  0.83196855  1
  Cu+  Cu81  1  -0.00306713  0.16930121  0.17130595  1
  Cu+  Cu82  1  0.00038566  0.17265236  0.50274877  1
  Cu+  Cu83  1  0.00653449  0.16155145  0.83369577  1
  Cu+  Cu84  1  -0.00040154  0.49696070  0.16229647  1
  Cu+  Cu85  1  -0.00416799  0.50368984  0.50279260  1
  Cu+  Cu86  1  0.00320604  0.50119076  0.83093427  1
  Cu+  Cu87  1  -0.00196965  0.82989875  0.16502659  1
  Cu+  Cu88  1  0.00280259  0.83106068  0.49776972  1
  Cu+  Cu89  1  -0.00619989  0.83735940  0.83315820  1
  Cu+  Cu90  1  0.33531951  0.17071093  0.16496724  1
  Cu+  Cu91  1  0.33474811  0.16791760  0.49808077  1
  Cu+  Cu92  1  0.33385030  0.16137850  0.83457207  1
  Cu+  Cu93  1  0.33027401  0.50219007  0.17118341  1
  Cu+  Cu94  1  0.33082395  0.50542434  0.50016490  1
  Cu+  Cu95  1  0.33565503  0.49616432  0.83496353  1
  Cu+  Cu96  1  0.33218315  0.83224418  0.16704770  1
  Cu+  Cu97  1  0.33357337  0.84454433  0.50092218  1
  Cu+  Cu98  1  0.33400985  0.83056470  0.83277238  1
  Cu+  Cu99  1  0.66961086  0.16693442  0.16659151  1
  Cu+  Cu100  1  0.66665667  0.16220236  0.49892151  1
  Cu+  Cu101  1  0.66892606  0.16565658  0.83420603  1
  Cu+  Cu102  1  0.66554715  0.49658073  0.16649304  1
  Cu+  Cu103  1  0.66712327  0.48898808  0.49951320  1
  Cu+  Cu104  1  0.66926115  0.50109427  0.83294861  1
  Cu+  Cu105  1  0.66426569  0.82954309  0.16507683  1
  Cu+  Cu106  1  0.66856536  0.83258303  0.49544943  1
  Cu+  Cu107  1  0.66355726  0.83432641  0.83698148  1
  Cu+  Cu108  1  0.59057889  0.92864025  0.92974533  1
  Cu+  Cu109  1  0.60048649  0.26051236  0.92104145  1
  Cu+  Cu110  1  0.59401118  0.73821180  0.07050895  1
  Cu+  Cu111  1  0.26079003  0.93123728  0.60048785  1
  Cu+  Cu112  1  0.59754016  0.73617417  0.41181146  1
  Cu+  Cu113  1  0.92428586  0.25807215  0.59652177  1
  Cu+  Cu114  1  0.92281567  0.26485407  0.25874434  1
  Cu+  Cu115  1  0.93192743  0.40572370  0.06793255  1
  Cu+  Cu116  1  0.25984042  0.08267600  0.40488752  1
  Cu+  Cu117  1  0.40051882  0.26277345  0.06772478  1
  Cu+  Cu118  1  0.07645879  0.07406782  0.93226721  1
  Cu+  Cu119  1  0.59527983  0.40809998  0.07370476  1
  Cu+  Cu120  1  0.74056040  0.92966437  0.40266900  1
  Cu+  Cu121  1  0.40457599  0.26388317  0.40690282  1
  Cu+  Cu122  1  0.07364149  0.59695785  0.74751580  1
  Cu+  Cu123  1  0.07690316  0.75099018  0.59312373  1
  Cu+  Cu124  1  0.26198341  0.92935266  0.24574120  1
  Cu+  Cu125  1  0.91796696  0.59300212  0.59347031  1
  Cu+  Cu126  1  0.07526753  0.26091154  0.75079837  1
  Cu+  Cu127  1  0.59456971  0.40182344  0.40311957  1
  Cu+  Cu128  1  0.41187707  0.92717492  0.40405578  1
  Cu+  Cu129  1  0.40197626  0.59558029  0.40772814  1
  Cu+  Cu130  1  0.73507264  0.40228430  0.59827512  1
  Cu+  Cu131  1  0.92491695  0.92367595  0.93031845  1
  Cu+  Cu132  1  0.07319699  0.26428549  0.41024483  1
  Te2-  Te133  1  0.24801825  0.25337268  0.08011956  1
  Te2-  Te134  1  0.25212984  0.25808236  0.41505377  1
  Te2-  Te135  1  0.25805854  0.25031637  0.74929057  1
  Te2-  Te136  1  0.25156447  0.58421771  0.08069775  1
  Te2-  Te137  1  0.24789952  0.59050152  0.41296893  1
  Te2-  Te138  1  0.25729898  0.58445238  0.74903847  1
  Te2-  Te139  1  0.25176883  0.91797734  0.07948617  1
  Te2-  Te140  1  0.25699218  0.92633167  0.40467589  1
  Te2-  Te141  1  0.25256551  0.92112656  0.75167122  1
  Te2-  Te142  1  0.59369004  0.25527166  0.07961314  1
  Te2-  Te143  1  0.59132792  0.24946367  0.41137757  1
  Te2-  Te144  1  0.58541038  0.24855357  0.74692326  1
  Te2-  Te145  1  0.58601484  0.58536430  0.08197824  1
  Te2-  Te146  1  0.59165319  0.58255671  0.41441450  1
  Te2-  Te147  1  0.58581610  0.58443133  0.74917868  1
  Te2-  Te148  1  0.58635464  0.92363372  0.08440811  1
  Te2-  Te149  1  0.58583058  0.92298642  0.41384127  1
  Te2-  Te150  1  0.58348518  0.91569640  0.74709777  1
  Te2-  Te151  1  0.92414478  0.25122710  0.07501729  1
  Te2-  Te152  1  0.91884216  0.25751617  0.41249454  1
  Te2-  Te153  1  0.92328753  0.25241342  0.74848287  1
  Te2-  Te154  1  0.91755937  0.58682561  0.08192264  1
  Te2-  Te155  1  0.91609535  0.58237524  0.41075171  1
  Te2-  Te156  1  0.91833740  0.58837625  0.74521903  1
  Te2-  Te157  1  0.91767485  0.91938529  0.08261192  1
  Te2-  Te158  1  0.92094435  0.91634304  0.41361173  1
  Te2-  Te159  1  0.91534181  0.91906664  0.74306446  1
  Te2-  Te160  1  0.25449529  0.08353596  0.25216899  1
  Te2-  Te161  1  0.25718586  0.08757811  0.59332596  1
  Te2-  Te162  1  0.25571747  0.07686538  0.92185399  1
  Te2-  Te163  1  0.25108876  0.41485837  0.25498536  1
  Te2-  Te164  1  0.24967120  0.41994291  0.58535922  1
  Te2-  Te165  1  0.25274872  0.41189969  0.91888565  1
  Te2-  Te166  1  0.25094055  0.74290186  0.24812462  1
  Te2-  Te167  1  0.25569786  0.75157082  0.58329693  1
  Te2-  Te168  1  0.24959994  0.74811098  0.91746835  1
  Te2-  Te169  1  0.58448869  0.08725088  0.25299848  1
  Te2-  Te170  1  0.58428064  0.07875983  0.58361753  1
  Te2-  Te171  1  0.58642292  0.08127461  0.92268534  1
  Te2-  Te172  1  0.58305630  0.41180974  0.25291830  1
  Te2-  Te173  1  0.58196114  0.40910501  0.58909621  1
  Te2-  Te174  1  0.59270654  0.41258186  0.92067064  1
  Te2-  Te175  1  0.58665654  0.74677775  0.25728730  1
  Te2-  Te176  1  0.58621643  0.74670978  0.58301151  1
  Te2-  Te177  1  0.58679865  0.74079718  0.91890704  1
  Te2-  Te178  1  0.91848901  0.07729586  0.25122670  1
  Te2-  Te179  1  0.91868135  0.07856438  0.58113988  1
  Te2-  Te180  1  0.92188489  0.07975300  0.92292250  1
  Te2-  Te181  1  0.92069835  0.41582711  0.25472264  1
  Te2-  Te182  1  0.92295832  0.41092302  0.58760680  1
  Te2-  Te183  1  0.92399411  0.41335486  0.91537539  1
  Te2-  Te184  1  0.91467831  0.74768187  0.25194749  1
  Te2-  Te185  1  0.91963454  0.74679490  0.58722231  1
  Te2-  Te186  1  0.91619967  0.74777510  0.91801019  1
  Te2-  Te187  1  0.08023300  0.25586783  0.25635395  1
  Te2-  Te188  1  0.08094212  0.25818984  0.59169594  1
  Te2-  Te189  1  0.08400793  0.25126298  0.91980740  1
  Te2-  Te190  1  0.07751621  0.58422507  0.24934806  1
  Te2-  Te191  1  0.07718546  0.59281847  0.58863734  1
  Te2-  Te192  1  0.08292321  0.58587083  0.91850619  1
  Te2-  Te193  1  0.07688162  0.91727775  0.24990736  1
  Te2-  Te194  1  0.08222534  0.92302186  0.58170516  1
  Te2-  Te195  1  0.07882061  0.91883373  0.92338498  1
  Te2-  Te196  1  0.41107234  0.25935395  0.25234237  1
  Te2-  Te197  1  0.41672159  0.25200923  0.58476733  1
  Te2-  Te198  1  0.40941623  0.25402491  0.91669518  1
  Te2-  Te199  1  0.41370739  0.58825853  0.25377225  1
  Te2-  Te200  1  0.41733050  0.58574403  0.58628217  1
  Te2-  Te201  1  0.41560138  0.58111508  0.92166296  1
  Te2-  Te202  1  0.41525927  0.92243232  0.25229493  1
  Te2-  Te203  1  0.41666020  0.92062302  0.59314666  1
  Te2-  Te204  1  0.41368171  0.91507219  0.92159836  1
  Te2-  Te205  1  0.75011060  0.25490151  0.24877400  1
  Te2-  Te206  1  0.74334794  0.24688563  0.58867908  1
  Te2-  Te207  1  0.75211486  0.25317008  0.91907679  1
  Te2-  Te208  1  0.74485953  0.58237077  0.25175131  1
  Te2-  Te209  1  0.74450751  0.58171741  0.58366399  1
  Te2-  Te210  1  0.75128622  0.58354171  0.91926433  1
  Te2-  Te211  1  0.74257898  0.92022154  0.24985764  1
  Te2-  Te212  1  0.74733962  0.91735563  0.58383992  1
  Te2-  Te213  1  0.74424185  0.92233404  0.92109305  1
  Te2-  Te214  1  0.07860402  0.08109311  0.08606363  1
  Te2-  Te215  1  0.08122102  0.08067534  0.42210084  1
  Te2-  Te216  1  0.08323296  0.07678745  0.74470605  1
  Te2-  Te217  1  0.08285774  0.41074217  0.07745904  1
  Te2-  Te218  1  0.07698642  0.41963289  0.41459231  1
  Te2-  Te219  1  0.08182666  0.41257058  0.74595167  1
  Te2-  Te220  1  0.07730824  0.74503302  0.07887620  1
  Te2-  Te221  1  0.08548073  0.75322522  0.40723671  1
  Te2-  Te222  1  0.07704693  0.75060378  0.74652689  1
  Te2-  Te223  1  0.41665499  0.08486292  0.07947980  1
  Te2-  Te224  1  0.41375581  0.07989010  0.40891631  1
  Te2-  Te225  1  0.41632215  0.07731915  0.75007646  1
  Te2-  Te226  1  0.40741177  0.41778688  0.08074364  1
  Te2-  Te227  1  0.40907927  0.41506009  0.41505130  1
  Te2-  Te228  1  0.41753212  0.41150489  0.74946531  1
  Te2-  Te229  1  0.41535305  0.74916879  0.08237307  1
  Te2-  Te230  1  0.40766762  0.74869817  0.41602024  1
  Te2-  Te231  1  0.41402612  0.74352694  0.74886194  1
  Te2-  Te232  1  0.74696126  0.08115046  0.07946662  1
  Te2-  Te233  1  0.74848647  0.08356413  0.40869951  1
  Te2-  Te234  1  0.75101784  0.08092375  0.74961632  1
  Te2-  Te235  1  0.74851276  0.41186314  0.07828589  1
  Te2-  Te236  1  0.74863227  0.40626535  0.40982066  1
  Te2-  Te237  1  0.74732594  0.41170823  0.74891586  1
  Te2-  Te238  1  0.74723670  0.74502692  0.07832892  1
  Te2-  Te239  1  0.75011657  0.74121739  0.41261619  1
  Te2-  Te240  1  0.74266293  0.74837931  0.74843800  1
