# generated using pymatgen
data_Ti27(Cu53Te54)2
_symmetry_space_group_name_H-M   'P 1'
_cell_length_a   17.87102476
_cell_length_b   17.87412846
_cell_length_c   17.87609883
_cell_angle_alpha   89.95473643
_cell_angle_beta   90.03778817
_cell_angle_gamma   90.00316610
_symmetry_Int_Tables_number   1
_chemical_formula_structural   Ti27(Cu53Te54)2
_chemical_formula_sum   'Ti27 Cu106 Te108'
_cell_volume   5710.14120305
_cell_formula_units_Z   1
loop_
 _symmetry_equiv_pos_site_id
 _symmetry_equiv_pos_as_xyz
  1  'x, y, z'
loop_
 _atom_type_symbol
 _atom_type_oxidation_number
  Ti4+  4.0
  Cu+  1.0
  Te2-  -2.0
loop_
 _atom_site_type_symbol
 _atom_site_label
 _atom_site_symmetry_multiplicity
 _atom_site_fract_x
 _atom_site_fract_y
 _atom_site_fract_z
 _atom_site_occupancy
  Ti4+  Ti0  1  0.16645404  0.16800083  0.16498650  1
  Ti4+  Ti1  1  0.16577441  0.16614700  0.49455939  1
  Ti4+  Ti2  1  0.16486452  0.16721256  0.83060742  1
  Ti4+  Ti3  1  0.16620752  0.49799199  0.16485046  1
  Ti4+  Ti4  1  0.16914839  0.49905595  0.50055082  1
  Ti4+  Ti5  1  0.16611494  0.49961179  0.83228393  1
  Ti4+  Ti6  1  0.16783536  0.83378982  0.16791799  1
  Ti4+  Ti7  1  0.16884012  0.83057170  0.50260467  1
  Ti4+  Ti8  1  0.16360292  0.83712144  0.83597596  1
  Ti4+  Ti9  1  0.49995246  0.16439664  0.16622915  1
  Ti4+  Ti10  1  0.50098893  0.16601381  0.49966874  1
  Ti4+  Ti11  1  0.49973526  0.16557706  0.83288110  1
  Ti4+  Ti12  1  0.49982951  0.49591275  0.16465557  1
  Ti4+  Ti13  1  0.49930304  0.50069009  0.49973842  1
  Ti4+  Ti14  1  0.49842500  0.49995238  0.83460139  1
  Ti4+  Ti15  1  0.49903845  0.83273095  0.16495317  1
  Ti4+  Ti16  1  0.50098165  0.83272504  0.49806892  1
  Ti4+  Ti17  1  0.50088758  0.83383468  0.83413897  1
  Ti4+  Ti18  1  0.83377991  0.16939989  0.16684474  1
  Ti4+  Ti19  1  0.83864469  0.16711436  0.50023694  1
  Ti4+  Ti20  1  0.83241250  0.16993589  0.83280219  1
  Ti4+  Ti21  1  0.83468383  0.50295491  0.17259153  1
  Ti4+  Ti22  1  0.82853036  0.49775943  0.50370630  1
  Ti4+  Ti23  1  0.83248531  0.50030018  0.83383818  1
  Ti4+  Ti24  1  0.83402868  0.83741412  0.16565671  1
  Ti4+  Ti25  1  0.83424641  0.83177836  0.49929672  1
  Ti4+  Ti26  1  0.83321862  0.83256114  0.83424693  1
  Cu+  Cu27  1  0.16319857  0.16864158  -0.00310599  1
  Cu+  Cu28  1  0.16530362  0.16740360  0.32893175  1
  Cu+  Cu29  1  0.16299011  0.16768995  0.66010887  1
  Cu+  Cu30  1  0.16748247  0.49645319  0.00076484  1
  Cu+  Cu31  1  0.16733689  0.49528680  0.33212267  1
  Cu+  Cu32  1  0.17011824  0.50041835  0.66639683  1
  Cu+  Cu33  1  0.16441548  0.83794571  0.00032184  1
  Cu+  Cu34  1  0.16796405  0.83130675  0.33446770  1
  Cu+  Cu35  1  0.16836057  0.83268849  0.67499539  1
  Cu+  Cu36  1  0.49985414  0.16459364  -0.00055858  1
  Cu+  Cu37  1  0.50036415  0.16587704  0.33336200  1
  Cu+  Cu38  1  0.50064877  0.16582995  0.66698866  1
  Cu+  Cu39  1  0.49511717  0.50133179  0.00054558  1
  Cu+  Cu40  1  0.50298350  0.50036123  0.33108333  1
  Cu+  Cu41  1  0.49980324  0.50044169  0.66891014  1
  Cu+  Cu42  1  0.50080619  0.83192315  -0.00135903  1
  Cu+  Cu43  1  0.50116552  0.83573166  0.33352444  1
  Cu+  Cu44  1  0.49956197  0.83426989  0.66616680  1
  Cu+  Cu45  1  0.83016482  0.17091040  -0.00201449  1
  Cu+  Cu46  1  0.84059621  0.16978601  0.33270279  1
  Cu+  Cu47  1  0.83764530  0.16438369  0.67021564  1
  Cu+  Cu48  1  0.83787099  0.50425042  0.00276114  1
  Cu+  Cu49  1  0.82352642  0.49445911  0.33737398  1
  Cu+  Cu50  1  0.83302331  0.49603791  0.66682709  1
  Cu+  Cu51  1  0.83627987  0.83423399  0.00120638  1
  Cu+  Cu52  1  0.83224250  0.83500524  0.32926230  1
  Cu+  Cu53  1  0.83113701  0.83097152  0.66545509  1
  Cu+  Cu54  1  0.16550708  0.00132646  0.16558671  1
  Cu+  Cu55  1  0.16188729  -0.00188661  0.49997542  1
  Cu+  Cu56  1  0.16413349  0.00041914  0.83533012  1
  Cu+  Cu57  1  0.16855280  0.33458893  0.16097445  1
  Cu+  Cu58  1  0.17309719  0.32980772  0.49819713  1
  Cu+  Cu59  1  0.16550413  0.33318229  0.82804839  1
  Cu+  Cu60  1  0.16394431  0.66389992  0.17058900  1
  Cu+  Cu61  1  0.17344842  0.66555903  0.50067047  1
  Cu+  Cu62  1  0.16369277  0.67068364  0.83460436  1
  Cu+  Cu63  1  0.49944792  -0.00027320  0.16692494  1
  Cu+  Cu64  1  0.50275707  -0.00030878  0.49892688  1
  Cu+  Cu65  1  0.50052207  -0.00027639  0.83236196  1
  Cu+  Cu66  1  0.49979040  0.32769991  0.16559912  1
  Cu+  Cu67  1  0.49994386  0.33280086  0.49771183  1
  Cu+  Cu68  1  0.49951381  0.33171978  0.83569449  1
  Cu+  Cu69  1  0.49913757  0.66262458  0.16201583  1
  Cu+  Cu70  1  0.49657680  0.67020546  0.50219574  1
  Cu+  Cu71  1  0.49991489  0.66564648  0.83549721  1
  Cu+  Cu72  1  0.83198724  0.00118518  0.16460657  1
  Cu+  Cu73  1  0.83890150  -0.00061201  0.49554256  1
  Cu+  Cu74  1  0.83187295  0.00028263  0.83407446  1
  Cu+  Cu75  1  0.83728971  0.33287595  0.17377022  1
  Cu+  Cu76  1  0.83269737  0.33529564  0.50112662  1
  Cu+  Cu77  1  0.83372246  0.33561073  0.83045468  1
  Cu+  Cu78  1  0.83252749  0.67743412  0.16733671  1
  Cu+  Cu79  1  0.82785951  0.66578371  0.50630443  1
  Cu+  Cu80  1  0.83378510  0.66311471  0.83740233  1
  Cu+  Cu81  1  0.00133510  0.17194295  0.16786344  1
  Cu+  Cu82  1  0.00241260  0.15761627  0.49594554  1
  Cu+  Cu83  1  -0.00245860  0.16685836  0.83035144  1
  Cu+  Cu84  1  -0.00075392  0.49841756  0.16399149  1
  Cu+  Cu85  1  -0.00111507  0.50135313  0.50224818  1
  Cu+  Cu86  1  -0.00169267  0.50151882  0.83346186  1
  Cu+  Cu87  1  0.00209621  0.83706121  0.16517737  1
  Cu+  Cu88  1  0.00232842  0.83260810  0.49986946  1
  Cu+  Cu89  1  0.00083995  0.83687628  0.83584058  1
  Cu+  Cu90  1  0.33405864  0.16589024  0.16521037  1
  Cu+  Cu91  1  0.33522287  0.16894434  0.49707422  1
  Cu+  Cu92  1  0.33453492  0.16487181  0.83182030  1
  Cu+  Cu93  1  0.33405072  0.49758301  0.15748065  1
  Cu+  Cu94  1  0.33194957  0.49995672  0.49887295  1
  Cu+  Cu95  1  0.33296768  0.49747305  0.83270213  1
  Cu+  Cu96  1  0.33303302  0.83262240  0.16705173  1
  Cu+  Cu97  1  0.33486320  0.82747193  0.49862392  1
  Cu+  Cu98  1  0.33210902  0.83654187  0.83473806  1
  Cu+  Cu99  1  0.66520053  0.16491437  0.16665311  1
  Cu+  Cu100  1  0.66776939  0.16815602  0.50087997  1
  Cu+  Cu101  1  0.66649366  0.16904968  0.83480299  1
  Cu+  Cu102  1  0.66453293  0.50058003  0.17655384  1
  Cu+  Cu103  1  0.66715456  0.50094432  0.50067598  1
  Cu+  Cu104  1  0.66359609  0.50120063  0.83587264  1
  Cu+  Cu105  1  0.66657692  0.83646392  0.16572785  1
  Cu+  Cu106  1  0.66771717  0.83302982  0.50226034  1
  Cu+  Cu107  1  0.66605750  0.83303381  0.83305439  1
  Cu+  Cu108  1  0.07713947  0.07026579  0.59244804  1
  Cu+  Cu109  1  0.92642424  0.59409838  0.59133843  1
  Cu+  Cu110  1  0.73666423  0.75237912  0.25709365  1
  Cu+  Cu111  1  0.73607318  0.40028009  0.25640881  1
  Cu+  Cu112  1  0.26349863  0.24923389  0.59204411  1
  Cu+  Cu113  1  0.26265754  0.40420886  0.40214769  1
  Cu+  Cu114  1  0.73737881  0.74271622  0.59892582  1
  Cu+  Cu115  1  0.26314480  0.40148993  0.06884003  1
  Cu+  Cu116  1  0.93283917  0.75092005  0.07329477  1
  Cu+  Cu117  1  0.93369184  0.26102341  0.26158396  1
  Cu+  Cu118  1  0.26412279  0.40370433  0.74264377  1
  Cu+  Cu119  1  0.92009499  0.40511829  0.07430128  1
  Cu+  Cu120  1  0.73575032  0.40126256  0.59720669  1
  Cu+  Cu121  1  0.26205742  0.59028403  0.59407410  1
  Cu+  Cu122  1  0.26204161  0.74185028  0.40179680  1
  Cu+  Cu123  1  0.92626812  0.06864384  0.39939342  1
  Cu+  Cu124  1  0.92724991  0.41369219  0.41163404  1
  Cu+  Cu125  1  0.40405941  0.59573308  0.07149758  1
  Cu+  Cu126  1  0.58409954  0.59566663  0.25781582  1
  Cu+  Cu127  1  0.92866042  0.40734526  0.74115402  1
  Cu+  Cu128  1  0.92464358  0.06827667  0.74818236  1
  Cu+  Cu129  1  0.74186806  0.59467800  0.41129006  1
  Cu+  Cu130  1  0.92956905  0.59197294  0.92846571  1
  Cu+  Cu131  1  0.26104370  0.74189801  0.75487606  1
  Cu+  Cu132  1  0.40839719  0.74634700  0.59678195  1
  Te2-  Te133  1  0.25400682  0.25010862  0.07648787  1
  Te2-  Te134  1  0.25521479  0.25099621  0.40632389  1
  Te2-  Te135  1  0.25454830  0.25083205  0.74365258  1
  Te2-  Te136  1  0.24907316  0.58878627  0.07888019  1
  Te2-  Te137  1  0.25354207  0.58495582  0.40930164  1
  Te2-  Te138  1  0.25440366  0.58889741  0.74905948  1
  Te2-  Te139  1  0.25233378  0.91930110  0.08224975  1
  Te2-  Te140  1  0.25225891  0.91849694  0.41791219  1
  Te2-  Te141  1  0.25163187  0.92343726  0.75022053  1
  Te2-  Te142  1  0.58614900  0.24985159  0.07975049  1
  Te2-  Te143  1  0.58632307  0.25148742  0.41403722  1
  Te2-  Te144  1  0.58496484  0.25276558  0.74803517  1
  Te2-  Te145  1  0.58927971  0.58066191  0.08024685  1
  Te2-  Te146  1  0.58532983  0.58992198  0.41499452  1
  Te2-  Te147  1  0.58424405  0.58582901  0.74927393  1
  Te2-  Te148  1  0.58396958  0.91866298  0.08081795  1
  Te2-  Te149  1  0.58848132  0.91806565  0.41464653  1
  Te2-  Te150  1  0.58549145  0.91801535  0.74695716  1
  Te2-  Te151  1  0.91925954  0.25413476  0.07801341  1
  Te2-  Te152  1  0.92557442  0.25748225  0.41596372  1
  Te2-  Te153  1  0.92139019  0.25606019  0.74498510  1
  Te2-  Te154  1  0.92064863  0.59323364  0.08522024  1
  Te2-  Te155  1  0.91348137  0.58467754  0.41490802  1
  Te2-  Te156  1  0.91833793  0.58749885  0.74513434  1
  Te2-  Te157  1  0.92054390  0.92361368  0.07997489  1
  Te2-  Te158  1  0.92226754  0.91466774  0.41086942  1
  Te2-  Te159  1  0.91811519  0.91649734  0.74598762  1
  Te2-  Te160  1  0.25156586  0.08195809  0.25002520  1
  Te2-  Te161  1  0.25217728  0.08083187  0.58125289  1
  Te2-  Te162  1  0.24957251  0.08386869  0.91701080  1
  Te2-  Te163  1  0.25604319  0.41293175  0.24947673  1
  Te2-  Te164  1  0.25657273  0.41009662  0.58845660  1
  Te2-  Te165  1  0.25168481  0.41078549  0.91713074  1
  Te2-  Te166  1  0.25414871  0.74438397  0.25125565  1
  Te2-  Te167  1  0.25535037  0.74451860  0.59477451  1
  Te2-  Te168  1  0.25056080  0.75050844  0.92135062  1
  Te2-  Te169  1  0.58553532  0.07947616  0.25295439  1
  Te2-  Te170  1  0.58695529  0.08134373  0.58526958  1
  Te2-  Te171  1  0.58631895  0.08051492  0.91804909  1
  Te2-  Te172  1  0.58332492  0.40638344  0.25431811  1
  Te2-  Te173  1  0.58325507  0.41438302  0.58574922  1
  Te2-  Te174  1  0.58297259  0.41537420  0.92109949  1
  Te2-  Te175  1  0.58489828  0.74628482  0.25339094  1
  Te2-  Te176  1  0.58651194  0.74616547  0.58818187  1
  Te2-  Te177  1  0.58622813  0.74706113  0.91857200  1
  Te2-  Te178  1  0.92150646  0.07929996  0.24844335  1
  Te2-  Te179  1  0.92162896  0.07619694  0.58896140  1
  Te2-  Te180  1  0.91711524  0.08373685  0.91959568  1
  Te2-  Te181  1  0.92384034  0.41676912  0.26007475  1
  Te2-  Te182  1  0.92257460  0.41083448  0.58758894  1
  Te2-  Te183  1  0.91960432  0.41299503  0.92071701  1
  Te2-  Te184  1  0.92282941  0.75140725  0.25280878  1
  Te2-  Te185  1  0.92229945  0.74693251  0.58610439  1
  Te2-  Te186  1  0.92295156  0.74630607  0.91992456  1
  Te2-  Te187  1  0.08400322  0.25895381  0.25243757  1
  Te2-  Te188  1  0.07787876  0.25345535  0.57821061  1
  Te2-  Te189  1  0.07941405  0.25327252  0.91390612  1
  Te2-  Te190  1  0.08007049  0.58041554  0.25315345  1
  Te2-  Te191  1  0.08190250  0.58696966  0.58584814  1
  Te2-  Te192  1  0.08283748  0.58580805  0.92030885  1
  Te2-  Te193  1  0.08302876  0.91850563  0.25359881  1
  Te2-  Te194  1  0.08090143  0.91506961  0.59006242  1
  Te2-  Te195  1  0.07782958  0.92343236  0.92199913  1
  Te2-  Te196  1  0.41392257  0.25014063  0.25231564  1
  Te2-  Te197  1  0.41596150  0.25393985  0.58681876  1
  Te2-  Te198  1  0.41331079  0.25008128  0.91909817  1
  Te2-  Te199  1  0.41226557  0.58183780  0.24958228  1
  Te2-  Te200  1  0.41360277  0.58575409  0.58886012  1
  Te2-  Te201  1  0.40949272  0.58732659  0.91805922  1
  Te2-  Te202  1  0.41478095  0.91772262  0.25109349  1
  Te2-  Te203  1  0.41443969  0.91833036  0.58221054  1
  Te2-  Te204  1  0.41538452  0.91891934  0.91901718  1
  Te2-  Te205  1  0.74479310  0.24987815  0.25553845  1
  Te2-  Te206  1  0.75061094  0.24938227  0.58796433  1
  Te2-  Te207  1  0.74725157  0.25721524  0.91720808  1
  Te2-  Te208  1  0.74587291  0.59377388  0.25676863  1
  Te2-  Te209  1  0.74177634  0.58570092  0.59361902  1
  Te2-  Te210  1  0.74629707  0.58313740  0.92188864  1
  Te2-  Te211  1  0.74635782  0.92319147  0.25187491  1
  Te2-  Te212  1  0.75150379  0.92143339  0.58252926  1
  Te2-  Te213  1  0.74906118  0.91749419  0.91914996  1
  Te2-  Te214  1  0.07929343  0.08408039  0.08101390  1
  Te2-  Te215  1  0.08233678  0.07610573  0.40524987  1
  Te2-  Te216  1  0.07940400  0.07832266  0.74487948  1
  Te2-  Te217  1  0.07727719  0.41217544  0.07766149  1
  Te2-  Te218  1  0.08107013  0.41284779  0.41668666  1
  Te2-  Te219  1  0.07956783  0.41592057  0.74420123  1
  Te2-  Te220  1  0.08373243  0.74661659  0.08043247  1
  Te2-  Te221  1  0.08307786  0.74483329  0.41710485  1
  Te2-  Te222  1  0.07647923  0.74938790  0.74960886  1
  Te2-  Te223  1  0.41410094  0.07939757  0.08030834  1
  Te2-  Te224  1  0.41503037  0.08042687  0.41481243  1
  Te2-  Te225  1  0.41461100  0.07966550  0.74621724  1
  Te2-  Te226  1  0.41586154  0.40607194  0.07721697  1
  Te2-  Te227  1  0.41585079  0.41534285  0.41214104  1
  Te2-  Te228  1  0.41560793  0.41132198  0.74662060  1
  Te2-  Te229  1  0.41270337  0.74764065  0.07870737  1
  Te2-  Te230  1  0.41587256  0.74500357  0.40772870  1
  Te2-  Te231  1  0.41326617  0.74484355  0.74865765  1
  Te2-  Te232  1  0.74899260  0.08427175  0.08066388  1
  Te2-  Te233  1  0.75199572  0.08491494  0.41448534  1
  Te2-  Te234  1  0.74623737  0.08267314  0.74881702  1
  Te2-  Te235  1  0.75087563  0.41820522  0.08686982  1
  Te2-  Te236  1  0.73891709  0.40706614  0.41584041  1
  Te2-  Te237  1  0.74195954  0.41493088  0.74945931  1
  Te2-  Te238  1  0.74531458  0.75116632  0.07877596  1
  Te2-  Te239  1  0.74526680  0.74751390  0.41181736  1
  Te2-  Te240  1  0.74724380  0.74420952  0.75097503  1
