# generated using pymatgen
data_Ti27(Cu53Te54)2
_symmetry_space_group_name_H-M   'P 1'
_cell_length_a   17.89786539
_cell_length_b   17.89623269
_cell_length_c   17.89518406
_cell_angle_alpha   90.00767353
_cell_angle_beta   89.96682095
_cell_angle_gamma   90.01593333
_symmetry_Int_Tables_number   1
_chemical_formula_structural   Ti27(Cu53Te54)2
_chemical_formula_sum   'Ti27 Cu106 Te108'
_cell_volume   5731.90430923
_cell_formula_units_Z   1
loop_
 _symmetry_equiv_pos_site_id
 _symmetry_equiv_pos_as_xyz
  1  'x, y, z'
loop_
 _atom_type_symbol
 _atom_type_oxidation_number
  Ti4+  4.0
  Cu+  1.0
  Te2-  -2.0
loop_
 _atom_site_type_symbol
 _atom_site_label
 _atom_site_symmetry_multiplicity
 _atom_site_fract_x
 _atom_site_fract_y
 _atom_site_fract_z
 _atom_site_occupancy
  Ti4+  Ti0  1  0.16526813  0.16384235  0.16454702  1
  Ti4+  Ti1  1  0.16796655  0.16552706  0.49737561  1
  Ti4+  Ti2  1  0.16170583  0.16798439  0.83197761  1
  Ti4+  Ti3  1  0.16946645  0.49947796  0.16532119  1
  Ti4+  Ti4  1  0.16944387  0.49969806  0.49734816  1
  Ti4+  Ti5  1  0.16755524  0.49992708  0.83390059  1
  Ti4+  Ti6  1  0.17126558  0.83446195  0.16523092  1
  Ti4+  Ti7  1  0.16903884  0.83222352  0.50181570  1
  Ti4+  Ti8  1  0.16309592  0.83405625  0.83565239  1
  Ti4+  Ti9  1  0.50080802  0.16598513  0.16795269  1
  Ti4+  Ti10  1  0.49891017  0.16659958  0.50346491  1
  Ti4+  Ti11  1  0.49616013  0.16661697  0.83584548  1
  Ti4+  Ti12  1  0.49866735  0.49768883  0.16906504  1
  Ti4+  Ti13  1  0.49735596  0.50576450  0.49793281  1
  Ti4+  Ti14  1  0.50162589  0.49969132  0.83466644  1
  Ti4+  Ti15  1  0.50339547  0.83324693  0.16323100  1
  Ti4+  Ti16  1  0.50101169  0.83232219  0.49890301  1
  Ti4+  Ti17  1  0.50211696  0.83299211  0.83472091  1
  Ti4+  Ti18  1  0.83172065  0.16694168  0.16645545  1
  Ti4+  Ti19  1  0.83196966  0.16463778  0.49896558  1
  Ti4+  Ti20  1  0.83033377  0.16635781  0.83395243  1
  Ti4+  Ti21  1  0.83267974  0.50012223  0.17047550  1
  Ti4+  Ti22  1  0.83367381  0.49627741  0.50038018  1
  Ti4+  Ti23  1  0.83392183  0.49880693  0.83536924  1
  Ti4+  Ti24  1  0.83404294  0.83220382  0.16441788  1
  Ti4+  Ti25  1  0.83483554  0.83169329  0.49959655  1
  Ti4+  Ti26  1  0.83241385  0.83540711  0.83065328  1
  Cu+  Cu27  1  0.16196386  0.16165055  -0.00208000  1
  Cu+  Cu28  1  0.16572176  0.16389370  0.32978807  1
  Cu+  Cu29  1  0.16756952  0.17014116  0.66078515  1
  Cu+  Cu30  1  0.16808333  0.49909239  0.00084532  1
  Cu+  Cu31  1  0.17148412  0.49482411  0.33050975  1
  Cu+  Cu32  1  0.17061467  0.50223028  0.66659980  1
  Cu+  Cu33  1  0.16786169  0.84049774  0.00032752  1
  Cu+  Cu34  1  0.17281300  0.83136707  0.33415473  1
  Cu+  Cu35  1  0.16263668  0.83287246  0.67095464  1
  Cu+  Cu36  1  0.50243925  0.17113907  -0.00035198  1
  Cu+  Cu37  1  0.49993550  0.16237948  0.33670987  1
  Cu+  Cu38  1  0.49625133  0.16585748  0.67231106  1
  Cu+  Cu39  1  0.49467219  0.49658753  0.00203455  1
  Cu+  Cu40  1  0.49906536  0.50851859  0.33368382  1
  Cu+  Cu41  1  0.50197697  0.50234358  0.66556121  1
  Cu+  Cu42  1  0.49912148  0.83743617  0.00154334  1
  Cu+  Cu43  1  0.50480979  0.83290857  0.32894567  1
  Cu+  Cu44  1  0.50390887  0.82882457  0.66829356  1
  Cu+  Cu45  1  0.83256256  0.17164551  0.00058729  1
  Cu+  Cu46  1  0.83236603  0.16388916  0.33331662  1
  Cu+  Cu47  1  0.83043820  0.16339487  0.66381369  1
  Cu+  Cu48  1  0.83227923  0.50083492  0.00553858  1
  Cu+  Cu49  1  0.82743927  0.49636607  0.33562015  1
  Cu+  Cu50  1  0.83591626  0.49676126  0.66808513  1
  Cu+  Cu51  1  0.82837621  0.83443273  -0.00382530  1
  Cu+  Cu52  1  0.83645625  0.83251935  0.33155131  1
  Cu+  Cu53  1  0.83422659  0.83244596  0.66138649  1
  Cu+  Cu54  1  0.16451505  -0.00183880  0.16423317  1
  Cu+  Cu55  1  0.16808731  -0.00062607  0.49903927  1
  Cu+  Cu56  1  0.15873840  0.00055508  0.83584918  1
  Cu+  Cu57  1  0.16757997  0.32855432  0.16389403  1
  Cu+  Cu58  1  0.17371421  0.33242450  0.49515489  1
  Cu+  Cu59  1  0.16013490  0.34016447  0.83584722  1
  Cu+  Cu60  1  0.17155042  0.66764726  0.16728068  1
  Cu+  Cu61  1  0.16981749  0.66610705  0.50317819  1
  Cu+  Cu62  1  0.16735841  0.66671370  0.83462687  1
  Cu+  Cu63  1  0.50307951  0.00062231  0.16481646  1
  Cu+  Cu64  1  0.50316601  0.00022500  0.49905304  1
  Cu+  Cu65  1  0.50087136  0.00150551  0.83197748  1
  Cu+  Cu66  1  0.49944905  0.32924974  0.17156818  1
  Cu+  Cu67  1  0.49879148  0.33668844  0.50121780  1
  Cu+  Cu68  1  0.49494811  0.33418626  0.84184341  1
  Cu+  Cu69  1  0.50208830  0.66398765  0.16491809  1
  Cu+  Cu70  1  0.48941513  0.67033948  0.49913827  1
  Cu+  Cu71  1  0.50691195  0.66959825  0.83048251  1
  Cu+  Cu72  1  0.83068449  -0.00062200  0.16244762  1
  Cu+  Cu73  1  0.83306089  -0.00432890  0.49959737  1
  Cu+  Cu74  1  0.83477490  0.00412114  0.82710009  1
  Cu+  Cu75  1  0.82994493  0.33641241  0.17169013  1
  Cu+  Cu76  1  0.83405148  0.32886817  0.50076678  1
  Cu+  Cu77  1  0.83569644  0.33046260  0.83620279  1
  Cu+  Cu78  1  0.83675886  0.66691236  0.16682847  1
  Cu+  Cu79  1  0.83522094  0.66410059  0.50003919  1
  Cu+  Cu80  1  0.83181571  0.66608127  0.83602648  1
  Cu+  Cu81  1  -0.00372590  0.16711190  0.16671491  1
  Cu+  Cu82  1  0.00149490  0.16518545  0.49701529  1
  Cu+  Cu83  1  -0.00462833  0.16315398  0.83646183  1
  Cu+  Cu84  1  0.00070189  0.50003232  0.16936861  1
  Cu+  Cu85  1  0.00093633  0.49496214  0.49954557  1
  Cu+  Cu86  1  0.00086351  0.49941939  0.83409391  1
  Cu+  Cu87  1  0.00290888  0.83205866  0.16605527  1
  Cu+  Cu88  1  0.00038496  0.83026194  0.49911610  1
  Cu+  Cu89  1  -0.00130976  0.83803280  0.82744454  1
  Cu+  Cu90  1  0.33180007  0.16439137  0.16576980  1
  Cu+  Cu91  1  0.33100054  0.17001810  0.50506365  1
  Cu+  Cu92  1  0.33433765  0.17305429  0.82552668  1
  Cu+  Cu93  1  0.33444834  0.50070457  0.16207401  1
  Cu+  Cu94  1  0.33069326  0.50580156  0.49438928  1
  Cu+  Cu95  1  0.33646856  0.49745761  0.83749844  1
  Cu+  Cu96  1  0.33837753  0.83445122  0.16216158  1
  Cu+  Cu97  1  0.33632439  0.83066943  0.50403036  1
  Cu+  Cu98  1  0.32807588  0.83629366  0.83838410  1
  Cu+  Cu99  1  0.66588450  0.16629062  0.16676037  1
  Cu+  Cu100  1  0.66506927  0.16267685  0.49956377  1
  Cu+  Cu101  1  0.65908724  0.16721919  0.83532629  1
  Cu+  Cu102  1  0.66506611  0.49630050  0.17807182  1
  Cu+  Cu103  1  0.66973005  0.50549525  0.49445416  1
  Cu+  Cu104  1  0.66949340  0.49792162  0.83306610  1
  Cu+  Cu105  1  0.67183624  0.83484831  0.16009234  1
  Cu+  Cu106  1  0.66821433  0.83182684  0.49925846  1
  Cu+  Cu107  1  0.66833155  0.82711773  0.83450038  1
  Cu+  Cu108  1  0.58898170  0.07382198  0.74326030  1
  Cu+  Cu109  1  0.59403544  0.07308410  0.40540458  1
  Cu+  Cu110  1  0.07533032  0.92786310  0.73509421  1
  Cu+  Cu111  1  0.40696080  0.74670846  0.60069254  1
  Cu+  Cu112  1  0.74200593  0.93100604  0.06741347  1
  Cu+  Cu113  1  0.40089004  0.60009652  0.40249496  1
  Cu+  Cu114  1  0.74838317  0.59711127  0.40889950  1
  Cu+  Cu115  1  0.07078567  0.92372045  0.08067918  1
  Cu+  Cu116  1  0.40810240  0.59345006  0.07071933  1
  Cu+  Cu117  1  0.41511726  0.26638688  0.73960570  1
  Cu+  Cu118  1  0.74118994  0.73533783  0.92774173  1
  Cu+  Cu119  1  0.26154768  0.40164570  0.39907577  1
  Cu+  Cu120  1  0.59209606  0.59775020  0.25721985  1
  Cu+  Cu121  1  0.06895313  0.42093698  0.93309499  1
  Cu+  Cu122  1  0.59853409  0.73695083  0.73581604  1
  Cu+  Cu123  1  0.59190132  0.26240669  0.92899056  1
  Cu+  Cu124  1  0.92580057  0.08256244  0.73386810  1
  Cu+  Cu125  1  0.40310433  0.40415713  0.93314760  1
  Cu+  Cu126  1  0.40992327  0.93204697  0.07874602  1
  Cu+  Cu127  1  0.73635502  0.40053243  0.26580318  1
  Cu+  Cu128  1  0.92510208  0.25871653  0.92939731  1
  Cu+  Cu129  1  0.25684582  0.26249043  0.59258549  1
  Cu+  Cu130  1  0.06675185  0.07345686  0.92763547  1
  Cu+  Cu131  1  0.25891634  0.93305505  0.92209301  1
  Cu+  Cu132  1  0.25581907  0.59459888  0.59757912  1
  Te2-  Te133  1  0.25068795  0.24727626  0.07746764  1
  Te2-  Te134  1  0.25601041  0.24839060  0.40712182  1
  Te2-  Te135  1  0.24752426  0.25837078  0.74782452  1
  Te2-  Te136  1  0.25323883  0.58723507  0.07772899  1
  Te2-  Te137  1  0.25015128  0.59119844  0.40729372  1
  Te2-  Te138  1  0.25657065  0.58721768  0.75179626  1
  Te2-  Te139  1  0.25812355  0.92581345  0.07788684  1
  Te2-  Te140  1  0.25561931  0.91667418  0.41792422  1
  Te2-  Te141  1  0.24916010  0.92094708  0.74954770  1
  Te2-  Te142  1  0.58723797  0.25486368  0.08363253  1
  Te2-  Te143  1  0.58316318  0.25229618  0.41761678  1
  Te2-  Te144  1  0.58130148  0.25680162  0.74996049  1
  Te2-  Te145  1  0.58761107  0.57849061  0.08245797  1
  Te2-  Te146  1  0.58617234  0.59459854  0.41382832  1
  Te2-  Te147  1  0.58966928  0.58389934  0.74701747  1
  Te2-  Te148  1  0.58999323  0.92194886  0.07731656  1
  Te2-  Te149  1  0.58799801  0.91769948  0.41280899  1
  Te2-  Te150  1  0.58854436  0.91742772  0.74827263  1
  Te2-  Te151  1  0.91760250  0.25688239  0.08417007  1
  Te2-  Te152  1  0.91796269  0.24911192  0.41348151  1
  Te2-  Te153  1  0.91700219  0.24962572  0.74566074  1
  Te2-  Te154  1  0.91993188  0.58412953  0.08395394  1
  Te2-  Te155  1  0.92001375  0.58075297  0.41398796  1
  Te2-  Te156  1  0.91796912  0.58416390  0.75075569  1
  Te2-  Te157  1  0.91871522  0.91865616  0.07776672  1
  Te2-  Te158  1  0.92041381  0.91674213  0.41402094  1
  Te2-  Te159  1  0.91832715  0.92240442  0.74054516  1
  Te2-  Te160  1  0.25073013  0.07798909  0.24940023  1
  Te2-  Te161  1  0.25220788  0.07915900  0.58600022  1
  Te2-  Te162  1  0.25337256  0.08533667  0.91425733  1
  Te2-  Te163  1  0.25620030  0.40991629  0.24653285  1
  Te2-  Te164  1  0.25689594  0.41557990  0.58625920  1
  Te2-  Te165  1  0.25351291  0.41209754  0.92140097  1
  Te2-  Te166  1  0.25809700  0.74991419  0.24944317  1
  Te2-  Te167  1  0.25323419  0.74751308  0.59329431  1
  Te2-  Te168  1  0.24909518  0.74823317  0.92177672  1
  Te2-  Te169  1  0.58744238  0.07907311  0.25214207  1
  Te2-  Te170  1  0.58462713  0.08038587  0.59058176  1
  Te2-  Te171  1  0.58355093  0.07922422  0.92221505  1
  Te2-  Te172  1  0.58073453  0.41024147  0.26034758  1
  Te2-  Te173  1  0.58544214  0.42096656  0.58041500  1
  Te2-  Te174  1  0.58833221  0.41596824  0.92241658  1
  Te2-  Te175  1  0.59120259  0.74891734  0.24866607  1
  Te2-  Te176  1  0.58791263  0.74306151  0.58230379  1
  Te2-  Te177  1  0.58561134  0.74752016  0.92502730  1
  Te2-  Te178  1  0.91594622  0.07929683  0.24963302  1
  Te2-  Te179  1  0.92036804  0.07839889  0.58206786  1
  Te2-  Te180  1  0.91398648  0.07751185  0.92443114  1
  Te2-  Te181  1  0.91947762  0.41532727  0.25536661  1
  Te2-  Te182  1  0.91939751  0.41085229  0.58534918  1
  Te2-  Te183  1  0.91868203  0.41359684  0.92530534  1
  Te2-  Te184  1  0.92158060  0.74839611  0.25034816  1
  Te2-  Te185  1  0.92027686  0.74488872  0.58438218  1
  Te2-  Te186  1  0.91892722  0.75191331  0.91574872  1
  Te2-  Te187  1  0.08085126  0.25016785  0.25021405  1
  Te2-  Te188  1  0.08143563  0.25446136  0.57971672  1
  Te2-  Te189  1  0.07772129  0.25509271  0.92155249  1
  Te2-  Te190  1  0.08637289  0.58425673  0.25148483  1
  Te2-  Te191  1  0.08145314  0.58292280  0.58379952  1
  Te2-  Te192  1  0.08195708  0.58583671  0.92028575  1
  Te2-  Te193  1  0.08467354  0.91602533  0.25411480  1
  Te2-  Te194  1  0.08026092  0.91880874  0.58339128  1
  Te2-  Te195  1  0.07139373  0.92069489  0.92362442  1
  Te2-  Te196  1  0.41344133  0.24659679  0.25432114  1
  Te2-  Te197  1  0.41267291  0.25780558  0.58871161  1
  Te2-  Te198  1  0.40646336  0.25134732  0.92490706  1
  Te2-  Te199  1  0.40961793  0.58881338  0.25064264  1
  Te2-  Te200  1  0.41090520  0.58875759  0.59110977  1
  Te2-  Te201  1  0.41666610  0.58989735  0.91732842  1
  Te2-  Te202  1  0.41839196  0.91874487  0.25040488  1
  Te2-  Te203  1  0.41916934  0.91802399  0.58715076  1
  Te2-  Te204  1  0.41484228  0.92285587  0.91916950  1
  Te2-  Te205  1  0.74524895  0.24958486  0.25483981  1
  Te2-  Te206  1  0.74597606  0.24923821  0.58466661  1
  Te2-  Te207  1  0.74354993  0.25376900  0.91991311  1
  Te2-  Te208  1  0.74692350  0.59202035  0.25554767  1
  Te2-  Te209  1  0.75052056  0.58315721  0.58782635  1
  Te2-  Te210  1  0.74651673  0.58327661  0.92201661  1
  Te2-  Te211  1  0.74938739  0.91727671  0.25160564  1
  Te2-  Te212  1  0.74688134  0.91706711  0.58453170  1
  Te2-  Te213  1  0.74579363  0.92465268  0.91324085  1
  Te2-  Te214  1  0.07379759  0.07812664  0.07998943  1
  Te2-  Te215  1  0.08259246  0.07909839  0.41274111  1
  Te2-  Te216  1  0.07906927  0.08310100  0.74005862  1
  Te2-  Te217  1  0.08038541  0.41289993  0.08385342  1
  Te2-  Te218  1  0.08373347  0.41279587  0.41294554  1
  Te2-  Te219  1  0.08133974  0.41824402  0.74366117  1
  Te2-  Te220  1  0.08600662  0.74764277  0.08053235  1
  Te2-  Te221  1  0.08569162  0.74713158  0.41569543  1
  Te2-  Te222  1  0.07925462  0.74476422  0.75058210  1
  Te2-  Te223  1  0.41556013  0.08356232  0.07885932  1
  Te2-  Te224  1  0.41149500  0.08143730  0.42015031  1
  Te2-  Te225  1  0.41019799  0.07746696  0.74843788  1
  Te2-  Te226  1  0.41311247  0.40696149  0.08453415  1
  Te2-  Te227  1  0.41480831  0.41554602  0.41216706  1
  Te2-  Te228  1  0.41485236  0.41718403  0.74542237  1
  Te2-  Te229  1  0.41641041  0.74523460  0.07760341  1
  Te2-  Te230  1  0.41244369  0.75238165  0.40694717  1
  Te2-  Te231  1  0.41049703  0.74879688  0.75330138  1
  Te2-  Te232  1  0.74514173  0.08394005  0.07759682  1
  Te2-  Te233  1  0.74750262  0.07653870  0.41337072  1
  Te2-  Te234  1  0.74167744  0.08224226  0.74666405  1
  Te2-  Te235  1  0.74494856  0.41598365  0.08490544  1
  Te2-  Te236  1  0.74440519  0.40735771  0.41709539  1
  Te2-  Te237  1  0.75090941  0.41145156  0.74983470  1
  Te2-  Te238  1  0.74848542  0.74211280  0.07922352  1
  Te2-  Te239  1  0.74875082  0.74791278  0.41162930  1
  Te2-  Te240  1  0.75075163  0.74576254  0.74356364  1
