# generated using pymatgen
data_Ti27(Cu53Te54)2
_symmetry_space_group_name_H-M   'P 1'
_cell_length_a   17.87211116
_cell_length_b   17.87593640
_cell_length_c   17.87430927
_cell_angle_alpha   89.98978232
_cell_angle_beta   90.03326783
_cell_angle_gamma   89.97850754
_symmetry_Int_Tables_number   1
_chemical_formula_structural   Ti27(Cu53Te54)2
_chemical_formula_sum   'Ti27 Cu106 Te108'
_cell_volume   5710.49578186
_cell_formula_units_Z   1
loop_
 _symmetry_equiv_pos_site_id
 _symmetry_equiv_pos_as_xyz
  1  'x, y, z'
loop_
 _atom_type_symbol
 _atom_type_oxidation_number
  Ti4+  4.0
  Cu+  1.0
  Te2-  -2.0
loop_
 _atom_site_type_symbol
 _atom_site_label
 _atom_site_symmetry_multiplicity
 _atom_site_fract_x
 _atom_site_fract_y
 _atom_site_fract_z
 _atom_site_occupancy
  Ti4+  Ti0  1  0.16640433  0.16868107  0.16880453  1
  Ti4+  Ti1  1  0.16914323  0.16724575  0.50076585  1
  Ti4+  Ti2  1  0.16618579  0.16240915  0.83424235  1
  Ti4+  Ti3  1  0.16610589  0.50175169  0.16458478  1
  Ti4+  Ti4  1  0.16516563  0.50135295  0.49910846  1
  Ti4+  Ti5  1  0.16522885  0.49965832  0.83278933  1
  Ti4+  Ti6  1  0.16564231  0.83340313  0.16504211  1
  Ti4+  Ti7  1  0.16613207  0.83613169  0.49915898  1
  Ti4+  Ti8  1  0.16902392  0.83426065  0.83496331  1
  Ti4+  Ti9  1  0.50247397  0.16501626  0.16675090  1
  Ti4+  Ti10  1  0.49983472  0.16555776  0.49959659  1
  Ti4+  Ti11  1  0.50157504  0.16584816  0.83173608  1
  Ti4+  Ti12  1  0.49865127  0.49909949  0.16688999  1
  Ti4+  Ti13  1  0.49778807  0.50097741  0.50200661  1
  Ti4+  Ti14  1  0.50000284  0.49923318  0.83390389  1
  Ti4+  Ti15  1  0.50445031  0.83182434  0.16721967  1
  Ti4+  Ti16  1  0.50041934  0.83266913  0.50157730  1
  Ti4+  Ti17  1  0.50067602  0.83613631  0.83387083  1
  Ti4+  Ti18  1  0.82943964  0.16967135  0.16613044  1
  Ti4+  Ti19  1  0.83254763  0.16658413  0.50153785  1
  Ti4+  Ti20  1  0.83360619  0.16735734  0.83269339  1
  Ti4+  Ti21  1  0.82976523  0.49855870  0.16707060  1
  Ti4+  Ti22  1  0.83491326  0.49681769  0.49901909  1
  Ti4+  Ti23  1  0.83341585  0.50113159  0.82995549  1
  Ti4+  Ti24  1  0.83248725  0.83725535  0.16599960  1
  Ti4+  Ti25  1  0.83445048  0.83199251  0.49876351  1
  Ti4+  Ti26  1  0.83269577  0.83207980  0.83258993  1
  Cu+  Cu27  1  0.16520827  0.16863853  0.00374861  1
  Cu+  Cu28  1  0.17044396  0.16734258  0.33578087  1
  Cu+  Cu29  1  0.16682990  0.15932849  0.66675269  1
  Cu+  Cu30  1  0.16959491  0.50303164  -0.00258528  1
  Cu+  Cu31  1  0.16334536  0.50098321  0.33169752  1
  Cu+  Cu32  1  0.16424311  0.50073936  0.66653782  1
  Cu+  Cu33  1  0.16649637  0.83107090  -0.00160667  1
  Cu+  Cu34  1  0.16739635  0.83560172  0.33108227  1
  Cu+  Cu35  1  0.16443212  0.83705508  0.66739753  1
  Cu+  Cu36  1  0.50224024  0.16286794  0.00012422  1
  Cu+  Cu37  1  0.49843256  0.16821514  0.33372877  1
  Cu+  Cu38  1  0.50462465  0.16616015  0.66405061  1
  Cu+  Cu39  1  0.50122099  0.49711069  0.00171735  1
  Cu+  Cu40  1  0.49852272  0.50263449  0.33636180  1
  Cu+  Cu41  1  0.49698986  0.50140699  0.66709238  1
  Cu+  Cu42  1  0.50044055  0.83309408  0.00106909  1
  Cu+  Cu43  1  0.50245164  0.83419946  0.33563748  1
  Cu+  Cu44  1  0.50193951  0.83157472  0.66846658  1
  Cu+  Cu45  1  0.83679985  0.16909123  0.00217103  1
  Cu+  Cu46  1  0.82735548  0.17064111  0.33641644  1
  Cu+  Cu47  1  0.83025734  0.16905969  0.66942216  1
  Cu+  Cu48  1  0.82999894  0.50156736  -0.00257352  1
  Cu+  Cu49  1  0.82945049  0.49493592  0.33217470  1
  Cu+  Cu50  1  0.84307145  0.49815077  0.66340830  1
  Cu+  Cu51  1  0.83371642  0.83938655  -0.00194861  1
  Cu+  Cu52  1  0.83247336  0.83188256  0.33401634  1
  Cu+  Cu53  1  0.83343708  0.83026659  0.66416077  1
  Cu+  Cu54  1  0.16570719  -0.00066760  0.16733106  1
  Cu+  Cu55  1  0.16768046  0.00431747  0.50051961  1
  Cu+  Cu56  1  0.17296525  -0.00250262  0.82803491  1
  Cu+  Cu57  1  0.16362821  0.33614621  0.16792904  1
  Cu+  Cu58  1  0.16682563  0.33362039  0.50105409  1
  Cu+  Cu59  1  0.16520333  0.33015779  0.83300549  1
  Cu+  Cu60  1  0.16738530  0.66851183  0.16312279  1
  Cu+  Cu61  1  0.16539757  0.66960945  0.49867731  1
  Cu+  Cu62  1  0.16755775  0.66431817  0.84065752  1
  Cu+  Cu63  1  0.50777765  -0.00276574  0.16548015  1
  Cu+  Cu64  1  0.49952525  -0.00200262  0.50075662  1
  Cu+  Cu65  1  0.49937167  0.00502603  0.83437975  1
  Cu+  Cu66  1  0.50130654  0.33297491  0.16242712  1
  Cu+  Cu67  1  0.49800452  0.33554698  0.50178900  1
  Cu+  Cu68  1  0.49769557  0.33196746  0.83417333  1
  Cu+  Cu69  1  0.50317036  0.66290020  0.17043400  1
  Cu+  Cu70  1  0.49656209  0.66712332  0.50053094  1
  Cu+  Cu71  1  0.50071249  0.66887988  0.83200846  1
  Cu+  Cu72  1  0.83131605  0.00771638  0.16468092  1
  Cu+  Cu73  1  0.83564906  -0.00338846  0.50145099  1
  Cu+  Cu74  1  0.83571004  -0.00421055  0.83841408  1
  Cu+  Cu75  1  0.82718240  0.33551628  0.17125418  1
  Cu+  Cu76  1  0.83039898  0.32827579  0.49719380  1
  Cu+  Cu77  1  0.83199934  0.33506363  0.82722416  1
  Cu+  Cu78  1  0.83062138  0.66945670  0.16459016  1
  Cu+  Cu79  1  0.83730914  0.66269096  0.49938074  1
  Cu+  Cu80  1  0.83323247  0.66710327  0.83032498  1
  Cu+  Cu81  1  -0.00239627  0.17272377  0.16690054  1
  Cu+  Cu82  1  0.00043651  0.16621769  0.50460457  1
  Cu+  Cu83  1  0.00104563  0.16524077  0.83571734  1
  Cu+  Cu84  1  0.00158566  0.49915919  0.16640466  1
  Cu+  Cu85  1  -0.00184070  0.50175322  0.50124073  1
  Cu+  Cu86  1  -0.00279805  0.49622556  0.82655214  1
  Cu+  Cu87  1  0.00012863  0.83575283  0.16376694  1
  Cu+  Cu88  1  -0.00053019  0.83382695  0.49681064  1
  Cu+  Cu89  1  0.00093632  0.83276193  0.83655081  1
  Cu+  Cu90  1  0.33336907  0.16839998  0.16692523  1
  Cu+  Cu91  1  0.33479776  0.16578026  0.49563985  1
  Cu+  Cu92  1  0.33357081  0.16019257  0.83294135  1
  Cu+  Cu93  1  0.33369349  0.50010516  0.16489833  1
  Cu+  Cu94  1  0.33119258  0.50250414  0.49998134  1
  Cu+  Cu95  1  0.33252340  0.50203995  0.83465858  1
  Cu+  Cu96  1  0.33653125  0.83010861  0.16506819  1
  Cu+  Cu97  1  0.33367002  0.83561235  0.50191233  1
  Cu+  Cu98  1  0.33444636  0.83983424  0.83849276  1
  Cu+  Cu99  1  0.66545172  0.15842364  0.16638401  1
  Cu+  Cu100  1  0.66610399  0.16881228  0.49829049  1
  Cu+  Cu101  1  0.66876399  0.16925525  0.82556518  1
  Cu+  Cu102  1  0.66000243  0.49683423  0.16928965  1
  Cu+  Cu103  1  0.66448726  0.49817186  0.50190351  1
  Cu+  Cu104  1  0.66986515  0.49813528  0.83663270  1
  Cu+  Cu105  1  0.66856603  0.83534489  0.17357784  1
  Cu+  Cu106  1  0.66872622  0.82992375  0.50087801  1
  Cu+  Cu107  1  0.66450909  0.83035573  0.82759908  1
  Cu+  Cu108  1  0.73683917  0.26634511  0.73849369  1
  Cu+  Cu109  1  0.06920306  0.91962725  0.74075592  1
  Cu+  Cu110  1  0.74417148  0.07523447  0.26559588  1
  Cu+  Cu111  1  0.26228868  0.07293084  0.40303794  1
  Cu+  Cu112  1  0.73373145  0.25907953  0.40685748  1
  Cu+  Cu113  1  0.92927040  0.92480106  0.92644020  1
  Cu+  Cu114  1  0.73243710  0.40812661  0.26196879  1
  Cu+  Cu115  1  0.59308455  0.06706138  0.06824544  1
  Cu+  Cu116  1  0.92891289  0.59627852  0.59218337  1
  Cu+  Cu117  1  0.58955489  0.40552035  0.07197428  1
  Cu+  Cu118  1  0.93005208  0.40118417  0.73535682  1
  Cu+  Cu119  1  0.07019704  0.07503440  0.59147068  1
  Cu+  Cu120  1  0.26471773  0.07234895  0.73601820  1
  Cu+  Cu121  1  0.74671120  0.73953283  0.26143805  1
  Cu+  Cu122  1  0.59043864  0.92751635  0.26664218  1
  Cu+  Cu123  1  0.93015994  0.08048596  0.07871169  1
  Cu+  Cu124  1  0.59158113  0.73557475  0.73874769  1
  Cu+  Cu125  1  0.26580289  0.59095558  0.92787039  1
  Cu+  Cu126  1  0.74753671  0.40462796  0.92433213  1
  Cu+  Cu127  1  0.59887478  0.07493329  0.73413978  1
  Cu+  Cu128  1  0.58932204  0.58983543  0.26608019  1
  Cu+  Cu129  1  0.07457561  0.40742685  0.26199524  1
  Cu+  Cu130  1  0.40577534  0.07958068  0.93189811  1
  Cu+  Cu131  1  0.25950679  0.92622920  0.93220538  1
  Cu+  Cu132  1  0.07021532  0.73506289  0.92496485  1
  Te2-  Te133  1  0.25098653  0.25418479  0.08336722  1
  Te2-  Te134  1  0.25352263  0.25551462  0.41555702  1
  Te2-  Te135  1  0.25108836  0.24758091  0.74915253  1
  Te2-  Te136  1  0.25548796  0.58841474  0.08019872  1
  Te2-  Te137  1  0.24914567  0.58652909  0.41327294  1
  Te2-  Te138  1  0.24980739  0.58690820  0.74792034  1
  Te2-  Te139  1  0.25446952  0.91907971  0.08239975  1
  Te2-  Te140  1  0.25312203  0.92016041  0.41363589  1
  Te2-  Te141  1  0.25916833  0.91732377  0.74247060  1
  Te2-  Te142  1  0.58849092  0.25032395  0.07898947  1
  Te2-  Te143  1  0.58218013  0.25539778  0.41373576  1
  Te2-  Te144  1  0.58365539  0.25749793  0.74473798  1
  Te2-  Te145  1  0.58641966  0.58520291  0.08030546  1
  Te2-  Te146  1  0.58702827  0.58801859  0.41797178  1
  Te2-  Te147  1  0.58743733  0.58280952  0.74812628  1
  Te2-  Te148  1  0.59209412  0.91546082  0.07709420  1
  Te2-  Te149  1  0.58958125  0.91917822  0.41797664  1
  Te2-  Te150  1  0.58559188  0.92290407  0.74689085  1
  Te2-  Te151  1  0.91513643  0.25942886  0.08368191  1
  Te2-  Te152  1  0.92110808  0.24905496  0.41545897  1
  Te2-  Te153  1  0.92332787  0.25011117  0.74724460  1
  Te2-  Te154  1  0.91492535  0.58351679  0.08270001  1
  Te2-  Te155  1  0.91734272  0.58126798  0.40920758  1
  Te2-  Te156  1  0.92180554  0.59044187  0.74613101  1
  Te2-  Te157  1  0.92090797  0.92492954  0.08053552  1
  Te2-  Te158  1  0.91862967  0.91878398  0.41223795  1
  Te2-  Te159  1  0.91801624  0.91759760  0.74494171  1
  Te2-  Te160  1  0.25422962  0.07984448  0.25076784  1
  Te2-  Te161  1  0.25932255  0.07894052  0.58508695  1
  Te2-  Te162  1  0.25169237  0.07869722  0.92678812  1
  Te2-  Te163  1  0.25213059  0.41691425  0.25141446  1
  Te2-  Te164  1  0.25086206  0.41667009  0.58570220  1
  Te2-  Te165  1  0.25102832  0.41218300  0.91639234  1
  Te2-  Te166  1  0.25178691  0.74910587  0.25055204  1
  Te2-  Te167  1  0.24929764  0.75076261  0.58595860  1
  Te2-  Te168  1  0.25818390  0.74713425  0.92095690  1
  Te2-  Te169  1  0.58675323  0.07990739  0.26072633  1
  Te2-  Te170  1  0.58953668  0.07869372  0.58239571  1
  Te2-  Te171  1  0.59312316  0.08158857  0.91653491  1
  Te2-  Te172  1  0.58052290  0.40967005  0.25815535  1
  Te2-  Te173  1  0.58300913  0.41512794  0.58798425  1
  Te2-  Te174  1  0.58742735  0.40902105  0.91901472  1
  Te2-  Te175  1  0.58917926  0.74448239  0.25789069  1
  Te2-  Te176  1  0.58673642  0.74434409  0.58578778  1
  Te2-  Te177  1  0.58553408  0.74932268  0.91905743  1
  Te2-  Te178  1  0.91586431  0.08693655  0.25455083  1
  Te2-  Te179  1  0.91563864  0.08035181  0.58967923  1
  Te2-  Te180  1  0.92123402  0.08094617  0.92118917  1
  Te2-  Te181  1  0.91916402  0.41368272  0.25193252  1
  Te2-  Te182  1  0.92155414  0.40535219  0.58120797  1
  Te2-  Te183  1  0.91667106  0.41393959  0.91803680  1
  Te2-  Te184  1  0.91848670  0.74994284  0.24890645  1
  Te2-  Te185  1  0.92266717  0.74806335  0.58525383  1
  Te2-  Te186  1  0.91707929  0.74525134  0.92093932  1
  Te2-  Te187  1  0.07989262  0.25244631  0.25644112  1
  Te2-  Te188  1  0.08411580  0.25163361  0.58878125  1
  Te2-  Te189  1  0.08185959  0.24989467  0.91898711  1
  Te2-  Te190  1  0.08076890  0.58928439  0.24920865  1
  Te2-  Te191  1  0.08103962  0.58895851  0.58630956  1
  Te2-  Te192  1  0.07326756  0.58174034  0.91886348  1
  Te2-  Te193  1  0.08010553  0.91899125  0.25129811  1
  Te2-  Te194  1  0.07645984  0.92215325  0.58547014  1
  Te2-  Te195  1  0.08290697  0.92471197  0.92062239  1
  Te2-  Te196  1  0.41683303  0.25283687  0.24973534  1
  Te2-  Te197  1  0.41477366  0.24982387  0.58465674  1
  Te2-  Te198  1  0.41383679  0.24818534  0.91898015  1
  Te2-  Te199  1  0.41227162  0.58503668  0.25261155  1
  Te2-  Te200  1  0.41170723  0.58701768  0.58658914  1
  Te2-  Te201  1  0.41842463  0.58701230  0.92113943  1
  Te2-  Te202  1  0.41740210  0.91782422  0.24977564  1
  Te2-  Te203  1  0.41626423  0.91814304  0.58819569  1
  Te2-  Te204  1  0.41617174  0.92375637  0.92512777  1
  Te2-  Te205  1  0.73772806  0.25444713  0.25318585  1
  Te2-  Te206  1  0.74411060  0.25330340  0.58720082  1
  Te2-  Te207  1  0.74802176  0.25212839  0.91921560  1
  Te2-  Te208  1  0.74435833  0.58646601  0.25418695  1
  Te2-  Te209  1  0.75023476  0.58156433  0.58525951  1
  Te2-  Te210  1  0.74861358  0.58933013  0.91652385  1
  Te2-  Te211  1  0.74873694  0.92480787  0.25666641  1
  Te2-  Te212  1  0.74872922  0.91689726  0.58540524  1
  Te2-  Te213  1  0.74247335  0.91619224  0.91516800  1
  Te2-  Te214  1  0.08064160  0.08194927  0.08285750  1
  Te2-  Te215  1  0.08025205  0.08339282  0.41445198  1
  Te2-  Te216  1  0.07526117  0.07598410  0.74803405  1
  Te2-  Te217  1  0.08201825  0.41675632  0.07646941  1
  Te2-  Te218  1  0.07831035  0.41320101  0.41569611  1
  Te2-  Te219  1  0.08259707  0.41026524  0.74489556  1
  Te2-  Te220  1  0.07808484  0.74687406  0.07904421  1
  Te2-  Te221  1  0.08249199  0.75079653  0.41243151  1
  Te2-  Te222  1  0.08352210  0.74673357  0.75050857  1
  Te2-  Te223  1  0.41393324  0.07760254  0.08500303  1
  Te2-  Te224  1  0.41630881  0.07765607  0.41167382  1
  Te2-  Te225  1  0.41636479  0.08002628  0.74163620  1
  Te2-  Te226  1  0.41237977  0.41303947  0.08033940  1
  Te2-  Te227  1  0.41273582  0.41629580  0.41551135  1
  Te2-  Te228  1  0.41314047  0.41573970  0.75020649  1
  Te2-  Te229  1  0.41992621  0.74473903  0.08299589  1
  Te2-  Te230  1  0.41375676  0.75027528  0.41465775  1
  Te2-  Te231  1  0.41158515  0.75163760  0.75118383  1
  Te2-  Te232  1  0.74617966  0.08133249  0.07328627  1
  Te2-  Te233  1  0.74645451  0.07695054  0.41834693  1
  Te2-  Te234  1  0.75212072  0.07468367  0.74827542  1
  Te2-  Te235  1  0.74358342  0.41229155  0.07831518  1
  Te2-  Te236  1  0.74172124  0.41171277  0.41469081  1
  Te2-  Te237  1  0.74543359  0.41818791  0.73955898  1
  Te2-  Te238  1  0.74757814  0.75369071  0.07901018  1
  Te2-  Te239  1  0.74825793  0.74264547  0.41575791  1
  Te2-  Te240  1  0.74829309  0.74572877  0.74414165  1
