# generated using pymatgen
data_Ti27(Cu53Te54)2
_symmetry_space_group_name_H-M   'P 1'
_cell_length_a   17.87761155
_cell_length_b   17.87730634
_cell_length_c   17.87473970
_cell_angle_alpha   89.99662329
_cell_angle_beta   89.97447956
_cell_angle_gamma   90.03924740
_symmetry_Int_Tables_number   1
_chemical_formula_structural   Ti27(Cu53Te54)2
_chemical_formula_sum   'Ti27 Cu106 Te108'
_cell_volume   5712.82813496
_cell_formula_units_Z   1
loop_
 _symmetry_equiv_pos_site_id
 _symmetry_equiv_pos_as_xyz
  1  'x, y, z'
loop_
 _atom_type_symbol
 _atom_type_oxidation_number
  Ti4+  4.0
  Cu+  1.0
  Te2-  -2.0
loop_
 _atom_site_type_symbol
 _atom_site_label
 _atom_site_symmetry_multiplicity
 _atom_site_fract_x
 _atom_site_fract_y
 _atom_site_fract_z
 _atom_site_occupancy
  Ti4+  Ti0  1  0.16702093  0.16555750  0.16686848  1
  Ti4+  Ti1  1  0.16413299  0.16740155  0.50125800  1
  Ti4+  Ti2  1  0.16775376  0.16810477  0.83504855  1
  Ti4+  Ti3  1  0.16414532  0.50021816  0.16572392  1
  Ti4+  Ti4  1  0.16663376  0.50107967  0.49876482  1
  Ti4+  Ti5  1  0.16918709  0.50082986  0.83276025  1
  Ti4+  Ti6  1  0.16470201  0.83472640  0.16780838  1
  Ti4+  Ti7  1  0.16972005  0.83846517  0.50001158  1
  Ti4+  Ti8  1  0.16405097  0.83543901  0.83541898  1
  Ti4+  Ti9  1  0.50059189  0.16772464  0.16886778  1
  Ti4+  Ti10  1  0.49849507  0.16708896  0.50374943  1
  Ti4+  Ti11  1  0.50064109  0.16460722  0.83597295  1
  Ti4+  Ti12  1  0.49927905  0.50183990  0.16477865  1
  Ti4+  Ti13  1  0.49839149  0.49968991  0.49823811  1
  Ti4+  Ti14  1  0.50295139  0.49862678  0.83111435  1
  Ti4+  Ti15  1  0.50114771  0.83318932  0.16813238  1
  Ti4+  Ti16  1  0.50279964  0.82634556  0.50000375  1
  Ti4+  Ti17  1  0.49806539  0.83225460  0.83207199  1
  Ti4+  Ti18  1  0.83373526  0.16813066  0.16567651  1
  Ti4+  Ti19  1  0.83255579  0.16500869  0.50125105  1
  Ti4+  Ti20  1  0.83241561  0.16503189  0.83353488  1
  Ti4+  Ti21  1  0.83324694  0.49996699  0.16438348  1
  Ti4+  Ti22  1  0.83510480  0.50007387  0.49925387  1
  Ti4+  Ti23  1  0.83447112  0.49956271  0.83188516  1
  Ti4+  Ti24  1  0.83266463  0.83315149  0.16756160  1
  Ti4+  Ti25  1  0.83171700  0.83691600  0.49627966  1
  Ti4+  Ti26  1  0.83368347  0.83322841  0.83252897  1
  Cu+  Cu27  1  0.16316216  0.16811877  0.00293058  1
  Cu+  Cu28  1  0.16762990  0.16233047  0.33446888  1
  Cu+  Cu29  1  0.16687273  0.16814321  0.66712167  1
  Cu+  Cu30  1  0.16797527  0.49926177  -0.00169067  1
  Cu+  Cu31  1  0.16324411  0.49874909  0.33257271  1
  Cu+  Cu32  1  0.16732765  0.50100002  0.66311408  1
  Cu+  Cu33  1  0.16479687  0.83829308  -0.00172038  1
  Cu+  Cu34  1  0.16880601  0.83931527  0.33414663  1
  Cu+  Cu35  1  0.16715271  0.83450785  0.66963968  1
  Cu+  Cu36  1  0.50497598  0.16410405  0.00349210  1
  Cu+  Cu37  1  0.49855650  0.17190346  0.33717426  1
  Cu+  Cu38  1  0.49656540  0.16662559  0.67102050  1
  Cu+  Cu39  1  0.50312442  0.49952599  -0.00099466  1
  Cu+  Cu40  1  0.49251491  0.49813626  0.32763975  1
  Cu+  Cu41  1  0.50046271  0.50330515  0.66589521  1
  Cu+  Cu42  1  0.49883306  0.83426935  0.00039853  1
  Cu+  Cu43  1  0.50314062  0.83055130  0.33753756  1
  Cu+  Cu44  1  0.50690633  0.82332209  0.66875865  1
  Cu+  Cu45  1  0.83568702  0.16619354  -0.00140692  1
  Cu+  Cu46  1  0.83264003  0.16611628  0.33357894  1
  Cu+  Cu47  1  0.83289488  0.16556695  0.66762872  1
  Cu+  Cu48  1  0.82944078  0.49738361  -0.00469462  1
  Cu+  Cu49  1  0.83523954  0.50238246  0.33468221  1
  Cu+  Cu50  1  0.83547884  0.49922736  0.66660823  1
  Cu+  Cu51  1  0.83575883  0.82823869  0.00164851  1
  Cu+  Cu52  1  0.82585656  0.83717307  0.32810354  1
  Cu+  Cu53  1  0.83060379  0.84152761  0.66562777  1
  Cu+  Cu54  1  0.16901044  -0.00114171  0.17055202  1
  Cu+  Cu55  1  0.16592555  0.00498041  0.49497621  1
  Cu+  Cu56  1  0.16575767  0.00253762  0.83851279  1
  Cu+  Cu57  1  0.16273119  0.33044005  0.16384589  1
  Cu+  Cu58  1  0.16520642  0.33541863  0.50353608  1
  Cu+  Cu59  1  0.16954124  0.33691044  0.83465656  1
  Cu+  Cu60  1  0.16269894  0.66668438  0.16535241  1
  Cu+  Cu61  1  0.16986113  0.66869772  0.50077980  1
  Cu+  Cu62  1  0.16670872  0.66858846  0.83192069  1
  Cu+  Cu63  1  0.50604351  0.00333576  0.16751073  1
  Cu+  Cu64  1  0.49758849  -0.00305903  0.50754656  1
  Cu+  Cu65  1  0.49801845  -0.00074405  0.83631087  1
  Cu+  Cu66  1  0.49694565  0.33746548  0.16929564  1
  Cu+  Cu67  1  0.49626635  0.33168021  0.49871570  1
  Cu+  Cu68  1  0.49971108  0.32905485  0.83215739  1
  Cu+  Cu69  1  0.49940178  0.66694625  0.16542920  1
  Cu+  Cu70  1  0.50634657  0.65999646  0.49898912  1
  Cu+  Cu71  1  0.50158110  0.66574592  0.82739058  1
  Cu+  Cu72  1  0.83362055  0.00227123  0.16753658  1
  Cu+  Cu73  1  0.83244929  -0.00121258  0.50069180  1
  Cu+  Cu74  1  0.82949603  -0.00134061  0.83242465  1
  Cu+  Cu75  1  0.83262532  0.33312132  0.16492205  1
  Cu+  Cu76  1  0.83262181  0.33296437  0.50050517  1
  Cu+  Cu77  1  0.83192408  0.33294589  0.83545321  1
  Cu+  Cu78  1  0.83917201  0.66380041  0.16795975  1
  Cu+  Cu79  1  0.83569968  0.66923904  0.49981755  1
  Cu+  Cu80  1  0.83528812  0.66407333  0.83143558  1
  Cu+  Cu81  1  0.00369212  0.16820868  0.16232306  1
  Cu+  Cu82  1  -0.00248915  0.16719428  0.50297065  1
  Cu+  Cu83  1  -0.00166518  0.16694850  0.83495713  1
  Cu+  Cu84  1  -0.00255039  0.50140413  0.16764130  1
  Cu+  Cu85  1  0.00187434  0.50007198  0.50055159  1
  Cu+  Cu86  1  0.00185121  0.50065717  0.83185417  1
  Cu+  Cu87  1  -0.00560631  0.83091299  0.16545952  1
  Cu+  Cu88  1  0.00191233  0.84346386  0.50128161  1
  Cu+  Cu89  1  0.00107752  0.83372921  0.83421233  1
  Cu+  Cu90  1  0.33374402  0.16647970  0.16673238  1
  Cu+  Cu91  1  0.33129967  0.16895736  0.50055944  1
  Cu+  Cu92  1  0.33548316  0.16877445  0.83547441  1
  Cu+  Cu93  1  0.33029796  0.49811518  0.16600194  1
  Cu+  Cu94  1  0.33267766  0.50392850  0.49636098  1
  Cu+  Cu95  1  0.33642927  0.50195274  0.83072570  1
  Cu+  Cu96  1  0.33472394  0.83499483  0.16978623  1
  Cu+  Cu97  1  0.33628461  0.82974196  0.49582358  1
  Cu+  Cu98  1  0.32646644  0.83293971  0.83514776  1
  Cu+  Cu99  1  0.66577317  0.16598501  0.16576338  1
  Cu+  Cu100  1  0.66509233  0.16313852  0.50558812  1
  Cu+  Cu101  1  0.66556626  0.16374542  0.83555129  1
  Cu+  Cu102  1  0.66342305  0.50186323  0.16178570  1
  Cu+  Cu103  1  0.66898661  0.49901557  0.50108405  1
  Cu+  Cu104  1  0.67250555  0.49397597  0.83612939  1
  Cu+  Cu105  1  0.66847052  0.83108874  0.16979901  1
  Cu+  Cu106  1  0.66704300  0.82866364  0.49191496  1
  Cu+  Cu107  1  0.66821799  0.83526527  0.83066435  1
  Cu+  Cu108  1  0.25913530  0.93221490  0.92559458  1
  Cu+  Cu109  1  0.40164366  0.25874970  0.40788331  1
  Cu+  Cu110  1  0.59713482  0.07182324  0.07381919  1
  Cu+  Cu111  1  0.92570333  0.73513174  0.07043267  1
  Cu+  Cu112  1  0.74041132  0.40066527  0.92819815  1
  Cu+  Cu113  1  0.07247671  0.26244962  0.06974727  1
  Cu+  Cu114  1  0.07266167  0.93031990  0.40651308  1
  Cu+  Cu115  1  0.92906859  0.92700418  0.59739888  1
  Cu+  Cu116  1  0.92897835  0.59003179  0.26495145  1
  Cu+  Cu117  1  0.59522245  0.73053923  0.40541972  1
  Cu+  Cu118  1  0.41656306  0.92550305  0.41133588  1
  Cu+  Cu119  1  0.40510673  0.25807183  0.74294561  1
  Cu+  Cu120  1  0.60016249  0.58450408  0.59429714  1
  Cu+  Cu121  1  0.40678625  0.59325024  0.74003347  1
  Cu+  Cu122  1  0.25343786  0.74171656  0.74094950  1
  Cu+  Cu123  1  0.60159150  0.73641189  0.74924994  1
  Cu+  Cu124  1  0.25068387  0.73931236  0.40237783  1
  Cu+  Cu125  1  0.73784455  0.93224149  0.40277237  1
  Cu+  Cu126  1  0.74082166  0.73235389  0.25112726  1
  Cu+  Cu127  1  0.26301327  0.08080902  0.40876593  1
  Cu+  Cu128  1  0.40647498  0.59071935  0.40055976  1
  Cu+  Cu129  1  0.92513453  0.93281709  0.25113546  1
  Cu+  Cu130  1  0.73516232  0.93033099  0.74006219  1
  Cu+  Cu131  1  0.26455939  0.92549504  0.25731456  1
  Cu+  Cu132  1  0.39910371  0.40663659  0.25399586  1
  Te2-  Te133  1  0.25335467  0.25164367  0.08154199  1
  Te2-  Te134  1  0.24853530  0.25584578  0.41360597  1
  Te2-  Te135  1  0.25253390  0.25454555  0.74791700  1
  Te2-  Te136  1  0.25035334  0.58565687  0.08207622  1
  Te2-  Te137  1  0.25183664  0.58788458  0.40726464  1
  Te2-  Te138  1  0.25403956  0.58795273  0.74237607  1
  Te2-  Te139  1  0.25339336  0.91914119  0.08206328  1
  Te2-  Te140  1  0.26113541  0.92572362  0.41213761  1
  Te2-  Te141  1  0.25045498  0.92341200  0.74933608  1
  Te2-  Te142  1  0.58385622  0.25644946  0.08475720  1
  Te2-  Te143  1  0.58761841  0.25115259  0.42001301  1
  Te2-  Te144  1  0.58749257  0.24924392  0.74866083  1
  Te2-  Te145  1  0.58439889  0.58862807  0.07840583  1
  Te2-  Te146  1  0.58810524  0.57865298  0.40695072  1
  Te2-  Te147  1  0.59616449  0.58357442  0.74703415  1
  Te2-  Te148  1  0.58890627  0.91594948  0.08129222  1
  Te2-  Te149  1  0.58479984  0.92277869  0.41642377  1
  Te2-  Te150  1  0.58258084  0.92158661  0.74630717  1
  Te2-  Te151  1  0.91923988  0.25443792  0.07848115  1
  Te2-  Te152  1  0.91722043  0.25107047  0.41574913  1
  Te2-  Te153  1  0.91701596  0.25187040  0.74953588  1
  Te2-  Te154  1  0.91898821  0.58302755  0.07421556  1
  Te2-  Te155  1  0.92304511  0.58859293  0.41663073  1
  Te2-  Te156  1  0.92104549  0.58518082  0.74584131  1
  Te2-  Te157  1  0.91698471  0.92079172  0.08013518  1
  Te2-  Te158  1  0.91886286  0.92279878  0.40714270  1
  Te2-  Te159  1  0.92218391  0.92129480  0.74962435  1
  Te2-  Te160  1  0.25824109  0.07927874  0.25446758  1
  Te2-  Te161  1  0.25134751  0.08171283  0.58617159  1
  Te2-  Te162  1  0.25418069  0.08511582  0.92380263  1
  Te2-  Te163  1  0.24710224  0.41130346  0.25182675  1
  Te2-  Te164  1  0.25434572  0.41708118  0.58318191  1
  Te2-  Te165  1  0.25667111  0.41705702  0.91771226  1
  Te2-  Te166  1  0.25109250  0.74636900  0.25111307  1
  Te2-  Te167  1  0.25446191  0.75003213  0.58663946  1
  Te2-  Te168  1  0.24868018  0.74688517  0.92274816  1
  Te2-  Te169  1  0.58560286  0.08533157  0.25827700  1
  Te2-  Te170  1  0.58114132  0.08021166  0.59010508  1
  Te2-  Te171  1  0.58798628  0.07584300  0.92066160  1
  Te2-  Te172  1  0.58642558  0.41763881  0.25141008  1
  Te2-  Te173  1  0.58290136  0.41330083  0.58403161  1
  Te2-  Te174  1  0.58468229  0.41030209  0.91873957  1
  Te2-  Te175  1  0.58616173  0.74282388  0.25359661  1
  Te2-  Te176  1  0.59399041  0.74081967  0.58686394  1
  Te2-  Te177  1  0.58516476  0.74863112  0.91686036  1
  Te2-  Te178  1  0.92226111  0.08493329  0.25182427  1
  Te2-  Te179  1  0.91921169  0.07930762  0.58805327  1
  Te2-  Te180  1  0.91788858  0.07825695  0.91779011  1
  Te2-  Te181  1  0.91652395  0.41369712  0.25150388  1
  Te2-  Te182  1  0.91961775  0.41424661  0.58441140  1
  Te2-  Te183  1  0.92133006  0.41467288  0.91754117  1
  Te2-  Te184  1  0.91979986  0.74688019  0.25876931  1
  Te2-  Te185  1  0.91874189  0.75519738  0.58404657  1
  Te2-  Te186  1  0.92082248  0.74525576  0.91626758  1
  Te2-  Te187  1  0.08223585  0.24948726  0.25498483  1
  Te2-  Te188  1  0.07994822  0.25254932  0.58711815  1
  Te2-  Te189  1  0.08007868  0.25557196  0.91769485  1
  Te2-  Te190  1  0.07982280  0.58768241  0.25367599  1
  Te2-  Te191  1  0.08257158  0.58812825  0.58346658  1
  Te2-  Te192  1  0.08322336  0.58585851  0.91722107  1
  Te2-  Te193  1  0.07612826  0.92133575  0.25307776  1
  Te2-  Te194  1  0.08606323  0.92515863  0.58992893  1
  Te2-  Te195  1  0.07635614  0.92198243  0.92033214  1
  Te2-  Te196  1  0.40894066  0.25400358  0.25454558  1
  Te2-  Te197  1  0.41078397  0.25365245  0.58829931  1
  Te2-  Te198  1  0.41794485  0.25068334  0.92441135  1
  Te2-  Te199  1  0.40899145  0.59008444  0.24832535  1
  Te2-  Te200  1  0.41225389  0.58843889  0.58517903  1
  Te2-  Te201  1  0.41938930  0.58552864  0.91721633  1
  Te2-  Te202  1  0.41864865  0.92245886  0.25539135  1
  Te2-  Te203  1  0.41721946  0.90845332  0.58939477  1
  Te2-  Te204  1  0.41268521  0.91766780  0.91947590  1
  Te2-  Te205  1  0.74819349  0.25147961  0.25072936  1
  Te2-  Te206  1  0.74797555  0.25107953  0.58626107  1
  Te2-  Te207  1  0.74561459  0.24944654  0.92125689  1
  Te2-  Te208  1  0.74490004  0.58273523  0.25134148  1
  Te2-  Te209  1  0.75168189  0.58768813  0.58653573  1
  Te2-  Te210  1  0.74764748  0.58804872  0.91695554  1
  Te2-  Te211  1  0.74150173  0.92664351  0.24979144  1
  Te2-  Te212  1  0.73929010  0.91896901  0.58255036  1
  Te2-  Te213  1  0.74891337  0.91453441  0.92250151  1
  Te2-  Te214  1  0.08303629  0.07615677  0.08257655  1
  Te2-  Te215  1  0.07396492  0.08323723  0.41269594  1
  Te2-  Te216  1  0.08266164  0.08332872  0.75053711  1
  Te2-  Te217  1  0.07747784  0.41622737  0.07884335  1
  Te2-  Te218  1  0.08089247  0.41385666  0.41559827  1
  Te2-  Te219  1  0.08421138  0.41580144  0.74724569  1
  Te2-  Te220  1  0.08054351  0.74958984  0.07945269  1
  Te2-  Te221  1  0.08165459  0.75253303  0.41700992  1
  Te2-  Te222  1  0.07925597  0.74866049  0.74704277  1
  Te2-  Te223  1  0.41530583  0.08079438  0.08337611  1
  Te2-  Te224  1  0.41514111  0.07847030  0.41421933  1
  Te2-  Te225  1  0.41285089  0.07862488  0.75081301  1
  Te2-  Te226  1  0.41395886  0.41618947  0.07836315  1
  Te2-  Te227  1  0.40875822  0.41181791  0.41223373  1
  Te2-  Te228  1  0.41583984  0.41318383  0.74496761  1
  Te2-  Te229  1  0.41430254  0.75030833  0.08334915  1
  Te2-  Te230  1  0.41324041  0.74036310  0.41136991  1
  Te2-  Te231  1  0.40850599  0.74698889  0.74528500  1
  Te2-  Te232  1  0.74933766  0.08002263  0.07931280  1
  Te2-  Te233  1  0.74480236  0.08186723  0.41414610  1
  Te2-  Te234  1  0.74434244  0.08090580  0.74604347  1
  Te2-  Te235  1  0.74522898  0.41282889  0.08110404  1
  Te2-  Te236  1  0.74906975  0.41528752  0.41390203  1
  Te2-  Te237  1  0.75002088  0.41237391  0.74459454  1
  Te2-  Te238  1  0.74773742  0.74416611  0.08282413  1
  Te2-  Te239  1  0.74906262  0.74092944  0.40939370  1
  Te2-  Te240  1  0.75191133  0.74564342  0.74352194  1
