# generated using pymatgen
data_Ti27(Cu53Te54)2
_symmetry_space_group_name_H-M   'P 1'
_cell_length_a   17.92263802
_cell_length_b   17.92350226
_cell_length_c   17.92624347
_cell_angle_alpha   90.10838589
_cell_angle_beta   90.08122205
_cell_angle_gamma   89.96747690
_symmetry_Int_Tables_number   1
_chemical_formula_structural   Ti27(Cu53Te54)2
_chemical_formula_sum   'Ti27 Cu106 Te108'
_cell_volume   5758.54567882
_cell_formula_units_Z   1
loop_
 _symmetry_equiv_pos_site_id
 _symmetry_equiv_pos_as_xyz
  1  'x, y, z'
loop_
 _atom_type_symbol
 _atom_type_oxidation_number
  Ti4+  4.0
  Cu+  1.0
  Te2-  -2.0
loop_
 _atom_site_type_symbol
 _atom_site_label
 _atom_site_symmetry_multiplicity
 _atom_site_fract_x
 _atom_site_fract_y
 _atom_site_fract_z
 _atom_site_occupancy
  Ti4+  Ti0  1  0.16448882  0.16677951  0.16451652  1
  Ti4+  Ti1  1  0.16300772  0.16655126  0.50180223  1
  Ti4+  Ti2  1  0.16915444  0.16462696  0.83872551  1
  Ti4+  Ti3  1  0.16678829  0.49741322  0.16553836  1
  Ti4+  Ti4  1  0.16250386  0.49891425  0.50098172  1
  Ti4+  Ti5  1  0.17207511  0.49857116  0.83452089  1
  Ti4+  Ti6  1  0.16893029  0.82915363  0.16461304  1
  Ti4+  Ti7  1  0.16580227  0.82975099  0.49740931  1
  Ti4+  Ti8  1  0.16664032  0.83669314  0.83142762  1
  Ti4+  Ti9  1  0.50080846  0.16732327  0.16979836  1
  Ti4+  Ti10  1  0.49712791  0.16708759  0.49865762  1
  Ti4+  Ti11  1  0.49851229  0.16602881  0.83415021  1
  Ti4+  Ti12  1  0.50216354  0.49833528  0.16927099  1
  Ti4+  Ti13  1  0.49619343  0.50103222  0.49848319  1
  Ti4+  Ti14  1  0.50405969  0.50141575  0.83048751  1
  Ti4+  Ti15  1  0.50319510  0.83532232  0.16683283  1
  Ti4+  Ti16  1  0.49578670  0.83426057  0.49902730  1
  Ti4+  Ti17  1  0.49889990  0.83463793  0.83491038  1
  Ti4+  Ti18  1  0.83325449  0.16784081  0.16721366  1
  Ti4+  Ti19  1  0.83335907  0.16736852  0.49858400  1
  Ti4+  Ti20  1  0.83242197  0.16725261  0.83146780  1
  Ti4+  Ti21  1  0.83491230  0.50569688  0.16432351  1
  Ti4+  Ti22  1  0.83005609  0.50119553  0.49928534  1
  Ti4+  Ti23  1  0.83464700  0.49942211  0.83342272  1
  Ti4+  Ti24  1  0.83623725  0.83442551  0.16763544  1
  Ti4+  Ti25  1  0.83280249  0.83378592  0.50229220  1
  Ti4+  Ti26  1  0.83277365  0.83460777  0.83196430  1
  Cu+  Cu27  1  0.16644012  0.16632868  -0.00210963  1
  Cu+  Cu28  1  0.16108865  0.16761290  0.33343367  1
  Cu+  Cu29  1  0.16576801  0.16730671  0.67238568  1
  Cu+  Cu30  1  0.16710310  0.49666523  -0.00193721  1
  Cu+  Cu31  1  0.16433869  0.49810404  0.33482997  1
  Cu+  Cu32  1  0.17019938  0.50038097  0.66793108  1
  Cu+  Cu33  1  0.16462249  0.83974204  0.00287789  1
  Cu+  Cu34  1  0.16684192  0.82642500  0.32813485  1
  Cu+  Cu35  1  0.16486712  0.83068591  0.66214129  1
  Cu+  Cu36  1  0.50015014  0.16565231  0.00461604  1
  Cu+  Cu37  1  0.49820593  0.16744919  0.33441888  1
  Cu+  Cu38  1  0.49866992  0.16803568  0.66280557  1
  Cu+  Cu39  1  0.50500863  0.49997607  0.00065136  1
  Cu+  Cu40  1  0.49903472  0.49418809  0.33558849  1
  Cu+  Cu41  1  0.50248786  0.50351961  0.66385501  1
  Cu+  Cu42  1  0.50870144  0.83656985  0.00097600  1
  Cu+  Cu43  1  0.49564439  0.83509956  0.33319972  1
  Cu+  Cu44  1  0.49321432  0.83264224  0.66575302  1
  Cu+  Cu45  1  0.83070946  0.16903787  -0.00145204  1
  Cu+  Cu46  1  0.83207972  0.16406151  0.33192262  1
  Cu+  Cu47  1  0.83364257  0.16773561  0.66407936  1
  Cu+  Cu48  1  0.83796555  0.49951123  0.00087401  1
  Cu+  Cu49  1  0.82916370  0.50493380  0.32889782  1
  Cu+  Cu50  1  0.82988436  0.50341463  0.66780637  1
  Cu+  Cu51  1  0.83601911  0.83342070  -0.00123357  1
  Cu+  Cu52  1  0.83680112  0.83236627  0.33864825  1
  Cu+  Cu53  1  0.83151662  0.83456318  0.66693869  1
  Cu+  Cu54  1  0.16728608  -0.00043188  0.16242584  1
  Cu+  Cu55  1  0.16632606  -0.00175403  0.49871892  1
  Cu+  Cu56  1  0.17550971  -0.00114081  0.83949080  1
  Cu+  Cu57  1  0.16619465  0.33207373  0.16502599  1
  Cu+  Cu58  1  0.15980062  0.33154489  0.49952447  1
  Cu+  Cu59  1  0.16860991  0.33102719  0.83886764  1
  Cu+  Cu60  1  0.16716883  0.66217747  0.16657092  1
  Cu+  Cu61  1  0.16196761  0.66505757  0.50414050  1
  Cu+  Cu62  1  0.17221376  0.66707286  0.83070733  1
  Cu+  Cu63  1  0.50434478  0.00119383  0.16714683  1
  Cu+  Cu64  1  0.49516737  0.00078740  0.49572286  1
  Cu+  Cu65  1  0.49735120  -0.00087050  0.83679547  1
  Cu+  Cu66  1  0.49982001  0.33274386  0.17189528  1
  Cu+  Cu67  1  0.49839196  0.33313530  0.49708753  1
  Cu+  Cu68  1  0.50045853  0.33694673  0.83316455  1
  Cu+  Cu69  1  0.50288717  0.66703104  0.16985866  1
  Cu+  Cu70  1  0.49461742  0.66757014  0.50246835  1
  Cu+  Cu71  1  0.50203139  0.66627628  0.83174560  1
  Cu+  Cu72  1  0.83197240  0.00232174  0.17071585  1
  Cu+  Cu73  1  0.83403971  -0.00018584  0.50186246  1
  Cu+  Cu74  1  0.83188850  0.00153029  0.82981030  1
  Cu+  Cu75  1  0.83384291  0.33581236  0.16541230  1
  Cu+  Cu76  1  0.83183216  0.33343896  0.49834798  1
  Cu+  Cu77  1  0.83473475  0.33155300  0.83355794  1
  Cu+  Cu78  1  0.83896054  0.67205155  0.16037852  1
  Cu+  Cu79  1  0.83238029  0.66695675  0.49924961  1
  Cu+  Cu80  1  0.83101122  0.66395901  0.83022957  1
  Cu+  Cu81  1  -0.00250670  0.16784111  0.16390938  1
  Cu+  Cu82  1  0.00032938  0.17000701  0.49801236  1
  Cu+  Cu83  1  -0.00071557  0.16753912  0.83311106  1
  Cu+  Cu84  1  -0.00240323  0.50044089  0.15998831  1
  Cu+  Cu85  1  -0.00424139  0.50072620  0.50277232  1
  Cu+  Cu86  1  0.00335388  0.49809985  0.83652433  1
  Cu+  Cu87  1  0.00274157  0.82764069  0.16254090  1
  Cu+  Cu88  1  -0.00139615  0.82539501  0.50029071  1
  Cu+  Cu89  1  -0.00256123  0.83382152  0.82899310  1
  Cu+  Cu90  1  0.33031059  0.16696021  0.16706342  1
  Cu+  Cu91  1  0.32936268  0.16737074  0.50159650  1
  Cu+  Cu92  1  0.33438313  0.15879085  0.84154195  1
  Cu+  Cu93  1  0.33435555  0.49591514  0.16948980  1
  Cu+  Cu94  1  0.32717547  0.50094327  0.50038811  1
  Cu+  Cu95  1  0.33994415  0.49749140  0.83329294  1
  Cu+  Cu96  1  0.33973539  0.82702715  0.16803200  1
  Cu+  Cu97  1  0.33374687  0.83364100  0.49711463  1
  Cu+  Cu98  1  0.33416057  0.84237856  0.83012714  1
  Cu+  Cu99  1  0.66818599  0.16468330  0.17085052  1
  Cu+  Cu100  1  0.66599784  0.16586924  0.49994165  1
  Cu+  Cu101  1  0.66629251  0.16681826  0.83027807  1
  Cu+  Cu102  1  0.67081985  0.50277094  0.17198911  1
  Cu+  Cu103  1  0.66159582  0.50142250  0.49551025  1
  Cu+  Cu104  1  0.66992333  0.50426722  0.82945616  1
  Cu+  Cu105  1  0.66873169  0.83635295  0.16916806  1
  Cu+  Cu106  1  0.66444304  0.83578378  0.50230751  1
  Cu+  Cu107  1  0.66416531  0.83617586  0.83580257  1
  Cu+  Cu108  1  0.73967283  0.59572082  0.73799306  1
  Cu+  Cu109  1  0.26394475  0.25899503  0.92791860  1
  Cu+  Cu110  1  0.40237717  0.40351240  0.26298983  1
  Cu+  Cu111  1  0.41643706  0.41246199  0.92825990  1
  Cu+  Cu112  1  0.40774654  0.73651307  0.59694770  1
  Cu+  Cu113  1  0.07150318  0.26116440  0.40228495  1
  Cu+  Cu114  1  0.92294394  0.73665570  0.40966890  1
  Cu+  Cu115  1  0.07083071  0.92877626  0.08279892  1
  Cu+  Cu116  1  0.73869110  0.07081355  0.26300776  1
  Cu+  Cu117  1  0.41326620  0.73726463  0.25960566  1
  Cu+  Cu118  1  0.59216838  0.40213043  0.41183181  1
  Cu+  Cu119  1  0.07517597  0.73324304  0.25464891  1
  Cu+  Cu120  1  0.74671250  0.40785793  0.25646635  1
  Cu+  Cu121  1  0.06928049  0.73774306  0.59656673  1
  Cu+  Cu122  1  0.92870610  0.74376016  0.06579522  1
  Cu+  Cu123  1  0.07401699  0.40863217  0.92456716  1
  Cu+  Cu124  1  0.92364197  0.40422199  0.07497800  1
  Cu+  Cu125  1  0.26216900  0.91708604  0.93296828  1
  Cu+  Cu126  1  0.41499100  0.07229081  0.93500856  1
  Cu+  Cu127  1  0.59747316  0.92888099  0.92807650  1
  Cu+  Cu128  1  0.06705764  0.07067680  0.91651804  1
  Cu+  Cu129  1  0.40409163  0.93020622  0.40234159  1
  Cu+  Cu130  1  0.25864252  0.07796667  0.73755115  1
  Cu+  Cu131  1  0.41267491  0.92897931  0.73752050  1
  Cu+  Cu132  1  0.07334971  0.26009806  0.74556271  1
  Te2-  Te133  1  0.25237210  0.25252118  0.08060310  1
  Te2-  Te134  1  0.24798177  0.25138665  0.41579103  1
  Te2-  Te135  1  0.25768768  0.24950844  0.75336758  1
  Te2-  Te136  1  0.25304525  0.58058334  0.08183898  1
  Te2-  Te137  1  0.24637187  0.58573085  0.41576839  1
  Te2-  Te138  1  0.25721715  0.58292662  0.74931831  1
  Te2-  Te139  1  0.25984059  0.91731166  0.08520075  1
  Te2-  Te140  1  0.24888858  0.91695366  0.41001019  1
  Te2-  Te141  1  0.25139469  0.92127455  0.73912999  1
  Te2-  Te142  1  0.58597562  0.25109809  0.08525423  1
  Te2-  Te143  1  0.58631322  0.25054246  0.41317497  1
  Te2-  Te144  1  0.58111068  0.25067630  0.74861729  1
  Te2-  Te145  1  0.58674382  0.58416659  0.08557071  1
  Te2-  Te146  1  0.57919473  0.58933662  0.41396363  1
  Te2-  Te147  1  0.58740482  0.58984633  0.74332494  1
  Te2-  Te148  1  0.59152534  0.92326230  0.08308925  1
  Te2-  Te149  1  0.58350521  0.91815426  0.41462508  1
  Te2-  Te150  1  0.58239726  0.91895508  0.74633475  1
  Te2-  Te151  1  0.91818204  0.25248857  0.07822958  1
  Te2-  Te152  1  0.91724736  0.25392739  0.41101529  1
  Te2-  Te153  1  0.91929749  0.25311404  0.74582114  1
  Te2-  Te154  1  0.92312270  0.59040458  0.07524249  1
  Te2-  Te155  1  0.91766050  0.58410798  0.41289134  1
  Te2-  Te156  1  0.92262605  0.58296225  0.74954934  1
  Te2-  Te157  1  0.91881909  0.92218350  0.08161598  1
  Te2-  Te158  1  0.92123458  0.91880844  0.41897320  1
  Te2-  Te159  1  0.91705597  0.91989083  0.74633569  1
  Te2-  Te160  1  0.24712208  0.08210086  0.25149711  1
  Te2-  Te161  1  0.25028148  0.07980557  0.58547476  1
  Te2-  Te162  1  0.25795481  0.07492381  0.93155102  1
  Te2-  Te163  1  0.24937430  0.41155676  0.25406129  1
  Te2-  Te164  1  0.24829003  0.41201190  0.58361310  1
  Te2-  Te165  1  0.26029803  0.41269378  0.92288220  1
  Te2-  Te166  1  0.25589298  0.74174721  0.25061063  1
  Te2-  Te167  1  0.25407200  0.74625854  0.58406506  1
  Te2-  Te168  1  0.25268618  0.75411471  0.91730976  1
  Te2-  Te169  1  0.58546860  0.08049193  0.25703242  1
  Te2-  Te170  1  0.58188660  0.08038028  0.58227537  1
  Te2-  Te171  1  0.58725277  0.08253889  0.92005629  1
  Te2-  Te172  1  0.59106582  0.41152406  0.25544385  1
  Te2-  Te173  1  0.58372065  0.41542074  0.58265232  1
  Te2-  Te174  1  0.59086058  0.41695304  0.91597598  1
  Te2-  Te175  1  0.58725879  0.75124021  0.25462502  1
  Te2-  Te176  1  0.58218411  0.74994872  0.58554047  1
  Te2-  Te177  1  0.58549426  0.74686498  0.91752739  1
  Te2-  Te178  1  0.92153146  0.08266557  0.25148305  1
  Te2-  Te179  1  0.91985125  0.08360747  0.58342931  1
  Te2-  Te180  1  0.91568644  0.08060798  0.91927496  1
  Te2-  Te181  1  0.91910318  0.41863110  0.25188775  1
  Te2-  Te182  1  0.91289263  0.41663537  0.58568025  1
  Te2-  Te183  1  0.92116726  0.40971774  0.92054627  1
  Te2-  Te184  1  0.92184854  0.74578232  0.25527965  1
  Te2-  Te185  1  0.91615306  0.74413758  0.59082652  1
  Te2-  Te186  1  0.91921737  0.74600432  0.91412642  1
  Te2-  Te187  1  0.07800454  0.25375146  0.24859655  1
  Te2-  Te188  1  0.07885597  0.25187450  0.59120661  1
  Te2-  Te189  1  0.07705412  0.25348518  0.92290058  1
  Te2-  Te190  1  0.07860859  0.58083310  0.25090679  1
  Te2-  Te191  1  0.07770737  0.58348533  0.59074728  1
  Te2-  Te192  1  0.08670107  0.58731224  0.91709517  1
  Te2-  Te193  1  0.08294877  0.91660241  0.24882728  1
  Te2-  Te194  1  0.08012248  0.91607681  0.58128429  1
  Te2-  Te195  1  0.07510247  0.91951471  0.91882407  1
  Te2-  Te196  1  0.41098992  0.25124123  0.25444292  1
  Te2-  Te197  1  0.41278641  0.25389711  0.58341221  1
  Te2-  Te198  1  0.41652305  0.25547027  0.92360531  1
  Te2-  Te199  1  0.41519623  0.58405593  0.25418178  1
  Te2-  Te200  1  0.40944814  0.58413917  0.58722499  1
  Te2-  Te201  1  0.41887231  0.58572115  0.91888672  1
  Te2-  Te202  1  0.41338914  0.92359063  0.24944938  1
  Te2-  Te203  1  0.40938641  0.92335393  0.58465962  1
  Te2-  Te204  1  0.41299428  0.91975180  0.92780351  1
  Te2-  Te205  1  0.74851167  0.25503812  0.25331126  1
  Te2-  Te206  1  0.74734796  0.25224233  0.58345265  1
  Te2-  Te207  1  0.74618667  0.25238383  0.91623288  1
  Te2-  Te208  1  0.75143443  0.59624953  0.24797784  1
  Te2-  Te209  1  0.74324072  0.58758875  0.58273814  1
  Te2-  Te210  1  0.75059093  0.58390202  0.92126656  1
  Te2-  Te211  1  0.75043512  0.91696538  0.25724348  1
  Te2-  Te212  1  0.74704330  0.92008973  0.58619656  1
  Te2-  Te213  1  0.74988514  0.92135568  0.91978804  1
  Te2-  Te214  1  0.07699949  0.08080475  0.07688527  1
  Te2-  Te215  1  0.07962015  0.07952334  0.41567745  1
  Te2-  Te216  1  0.08309126  0.07605912  0.75324033  1
  Te2-  Te217  1  0.07964582  0.41032722  0.07836466  1
  Te2-  Te218  1  0.07468797  0.41497894  0.41419742  1
  Te2-  Te219  1  0.08466079  0.41332668  0.74828618  1
  Te2-  Te220  1  0.08485225  0.74184824  0.07440099  1
  Te2-  Te221  1  0.07979596  0.74111848  0.40957992  1
  Te2-  Te222  1  0.08195199  0.74672189  0.74884883  1
  Te2-  Te223  1  0.41366792  0.07992947  0.08628324  1
  Te2-  Te224  1  0.40819872  0.08343576  0.41176545  1
  Te2-  Te225  1  0.41313601  0.08059206  0.74302461  1
  Te2-  Te226  1  0.41716324  0.41278212  0.08186221  1
  Te2-  Te227  1  0.40677739  0.41318160  0.41553982  1
  Te2-  Te228  1  0.41883623  0.41594005  0.74300483  1
  Te2-  Te229  1  0.42237654  0.74803670  0.07831860  1
  Te2-  Te230  1  0.41099834  0.74450022  0.41177628  1
  Te2-  Te231  1  0.41035739  0.74554029  0.75106351  1
  Te2-  Te232  1  0.74854093  0.08231483  0.08114217  1
  Te2-  Te233  1  0.74676806  0.07870985  0.41538499  1
  Te2-  Te234  1  0.74781029  0.08305368  0.74498152  1
  Te2-  Te235  1  0.74704474  0.41834935  0.08066640  1
  Te2-  Te236  1  0.74571173  0.41385580  0.41098395  1
  Te2-  Te237  1  0.74963119  0.41288403  0.74877276  1
  Te2-  Te238  1  0.74791985  0.75272692  0.08159354  1
  Te2-  Te239  1  0.74513614  0.74974620  0.41662580  1
  Te2-  Te240  1  0.74431088  0.75019217  0.74771382  1
