# generated using pymatgen
data_Ti27(Cu53Te54)2
_symmetry_space_group_name_H-M   'P 1'
_cell_length_a   17.86141716
_cell_length_b   17.86130013
_cell_length_c   17.86236555
_cell_angle_alpha   89.99995416
_cell_angle_beta   89.99131263
_cell_angle_gamma   90.01161342
_symmetry_Int_Tables_number   1
_chemical_formula_structural   Ti27(Cu53Te54)2
_chemical_formula_sum   'Ti27 Cu106 Te108'
_cell_volume   5698.59694329
_cell_formula_units_Z   1
loop_
 _symmetry_equiv_pos_site_id
 _symmetry_equiv_pos_as_xyz
  1  'x, y, z'
loop_
 _atom_type_symbol
 _atom_type_oxidation_number
  Ti4+  4.0
  Cu+  1.0
  Te2-  -2.0
loop_
 _atom_site_type_symbol
 _atom_site_label
 _atom_site_symmetry_multiplicity
 _atom_site_fract_x
 _atom_site_fract_y
 _atom_site_fract_z
 _atom_site_occupancy
  Ti4+  Ti0  1  0.16716245  0.16788841  0.16743107  1
  Ti4+  Ti1  1  0.16817410  0.16723198  0.50301972  1
  Ti4+  Ti2  1  0.16512676  0.16701806  0.83103323  1
  Ti4+  Ti3  1  0.16669450  0.49812100  0.16612805  1
  Ti4+  Ti4  1  0.16551118  0.49997410  0.49814455  1
  Ti4+  Ti5  1  0.16606298  0.49980281  0.83358660  1
  Ti4+  Ti6  1  0.16783453  0.83340621  0.16793493  1
  Ti4+  Ti7  1  0.16536768  0.83225832  0.50250304  1
  Ti4+  Ti8  1  0.16790537  0.83382843  0.83425876  1
  Ti4+  Ti9  1  0.50173967  0.16503303  0.16835406  1
  Ti4+  Ti10  1  0.50093540  0.17171526  0.49979525  1
  Ti4+  Ti11  1  0.49985339  0.16769222  0.83393996  1
  Ti4+  Ti12  1  0.50174924  0.49885487  0.16527493  1
  Ti4+  Ti13  1  0.49966154  0.50165460  0.49959399  1
  Ti4+  Ti14  1  0.49914248  0.50029160  0.83248999  1
  Ti4+  Ti15  1  0.49993700  0.83318897  0.16651168  1
  Ti4+  Ti16  1  0.49677196  0.83396421  0.50058611  1
  Ti4+  Ti17  1  0.49844770  0.83106270  0.83313779  1
  Ti4+  Ti18  1  0.83309601  0.16660969  0.16359129  1
  Ti4+  Ti19  1  0.83401383  0.16618857  0.49837985  1
  Ti4+  Ti20  1  0.83527125  0.16621071  0.83442386  1
  Ti4+  Ti21  1  0.83281394  0.49711444  0.16677945  1
  Ti4+  Ti22  1  0.83387606  0.50119997  0.50010815  1
  Ti4+  Ti23  1  0.83237700  0.50437776  0.83338012  1
  Ti4+  Ti24  1  0.83475567  0.83452322  0.16464427  1
  Ti4+  Ti25  1  0.83443180  0.83163503  0.50275178  1
  Ti4+  Ti26  1  0.82970985  0.83403624  0.83195801  1
  Cu+  Cu27  1  0.16445154  0.16979017  -0.00164714  1
  Cu+  Cu28  1  0.16703974  0.16919416  0.33709975  1
  Cu+  Cu29  1  0.16309153  0.16196862  0.66421815  1
  Cu+  Cu30  1  0.16774782  0.50033973  -0.00101318  1
  Cu+  Cu31  1  0.16560244  0.49692992  0.33202436  1
  Cu+  Cu32  1  0.16564441  0.49901679  0.66670926  1
  Cu+  Cu33  1  0.16842597  0.83239872  0.00325715  1
  Cu+  Cu34  1  0.16896989  0.83006261  0.33443360  1
  Cu+  Cu35  1  0.16573054  0.84230909  0.66960383  1
  Cu+  Cu36  1  0.49891605  0.16760962  0.00237632  1
  Cu+  Cu37  1  0.50726394  0.16685518  0.33405923  1
  Cu+  Cu38  1  0.49518006  0.17327510  0.66892717  1
  Cu+  Cu39  1  0.50521973  0.49944965  -0.00335011  1
  Cu+  Cu40  1  0.50242475  0.49880056  0.33289562  1
  Cu+  Cu41  1  0.49799167  0.50057764  0.66549725  1
  Cu+  Cu42  1  0.49607117  0.82881871  -0.00051560  1
  Cu+  Cu43  1  0.50052327  0.83595655  0.33093967  1
  Cu+  Cu44  1  0.49638452  0.82940002  0.66635621  1
  Cu+  Cu45  1  0.83794142  0.16252721  0.00024227  1
  Cu+  Cu46  1  0.83145560  0.16245272  0.32902101  1
  Cu+  Cu47  1  0.83464100  0.16943123  0.66792394  1
  Cu+  Cu48  1  0.82892221  0.50130242  0.00260690  1
  Cu+  Cu49  1  0.83574019  0.50066071  0.32978341  1
  Cu+  Cu50  1  0.83250035  0.50794815  0.66627149  1
  Cu+  Cu51  1  0.83057043  0.84156379  -0.00227494  1
  Cu+  Cu52  1  0.83494896  0.83062624  0.33586754  1
  Cu+  Cu53  1  0.83478038  0.82726135  0.66933057  1
  Cu+  Cu54  1  0.16913438  -0.00049993  0.17102166  1
  Cu+  Cu55  1  0.16778056  -0.00127600  0.51060263  1
  Cu+  Cu56  1  0.16490578  -0.00013347  0.82882184  1
  Cu+  Cu57  1  0.16364392  0.33269711  0.16419666  1
  Cu+  Cu58  1  0.16488236  0.33321724  0.49576627  1
  Cu+  Cu59  1  0.16767575  0.33553682  0.83165795  1
  Cu+  Cu60  1  0.16660870  0.66593881  0.16571121  1
  Cu+  Cu61  1  0.16986023  0.66780173  0.49663258  1
  Cu+  Cu62  1  0.16804479  0.66425606  0.83425453  1
  Cu+  Cu63  1  0.50008283  -0.00166297  0.16698366  1
  Cu+  Cu64  1  0.49914072  0.00348990  0.50009153  1
  Cu+  Cu65  1  0.50204994  -0.00166664  0.83337919  1
  Cu+  Cu66  1  0.49984101  0.33053715  0.16539724  1
  Cu+  Cu67  1  0.50474092  0.33989130  0.49723029  1
  Cu+  Cu68  1  0.49637851  0.33227469  0.82910595  1
  Cu+  Cu69  1  0.50265072  0.66717879  0.16815432  1
  Cu+  Cu70  1  0.49474677  0.66708219  0.50172212  1
  Cu+  Cu71  1  0.49841519  0.66646347  0.83993116  1
  Cu+  Cu72  1  0.83027718  0.00031425  0.15939252  1
  Cu+  Cu73  1  0.83200033  -0.00381907  0.50159750  1
  Cu+  Cu74  1  0.83503666  -0.00015733  0.83957128  1
  Cu+  Cu75  1  0.83370019  0.33329845  0.16620728  1
  Cu+  Cu76  1  0.83531985  0.32997866  0.50105947  1
  Cu+  Cu77  1  0.83143810  0.33669162  0.83482406  1
  Cu+  Cu78  1  0.83365737  0.66320899  0.16878583  1
  Cu+  Cu79  1  0.83891549  0.66659836  0.50140868  1
  Cu+  Cu80  1  0.82890017  0.66827168  0.82430406  1
  Cu+  Cu81  1  0.00168180  0.17004426  0.15994527  1
  Cu+  Cu82  1  0.00004106  0.17119333  0.50148439  1
  Cu+  Cu83  1  -0.00058282  0.16786288  0.83207044  1
  Cu+  Cu84  1  -0.00043214  0.49719327  0.16934395  1
  Cu+  Cu85  1  -0.00002970  0.50045394  0.50372277  1
  Cu+  Cu86  1  0.00214782  0.49916659  0.83625706  1
  Cu+  Cu87  1  0.00528895  0.83368207  0.16937969  1
  Cu+  Cu88  1  -0.00296584  0.82936235  0.49665262  1
  Cu+  Cu89  1  0.00018439  0.83594675  0.83252902  1
  Cu+  Cu90  1  0.33516987  0.16875891  0.16794865  1
  Cu+  Cu91  1  0.33770264  0.16596726  0.50549735  1
  Cu+  Cu92  1  0.33178876  0.17006911  0.83026339  1
  Cu+  Cu93  1  0.33372822  0.49652406  0.16693958  1
  Cu+  Cu94  1  0.33144483  0.50068141  0.49921491  1
  Cu+  Cu95  1  0.33019753  0.49906618  0.83291978  1
  Cu+  Cu96  1  0.33329741  0.83447330  0.16640734  1
  Cu+  Cu97  1  0.33095288  0.82873893  0.50306013  1
  Cu+  Cu98  1  0.33513004  0.82819047  0.83715484  1
  Cu+  Cu99  1  0.66883936  0.16360548  0.17249989  1
  Cu+  Cu100  1  0.66529147  0.16515702  0.49470504  1
  Cu+  Cu101  1  0.66812566  0.16432665  0.83589828  1
  Cu+  Cu102  1  0.66876766  0.49871085  0.16284938  1
  Cu+  Cu103  1  0.66476384  0.49813757  0.49570133  1
  Cu+  Cu104  1  0.66488597  0.50670278  0.83259249  1
  Cu+  Cu105  1  0.66667005  0.83558694  0.16230603  1
  Cu+  Cu106  1  0.66855014  0.83528264  0.50252291  1
  Cu+  Cu107  1  0.66277542  0.83297448  0.83120581  1
  Cu+  Cu108  1  0.92708951  0.25952050  0.59744835  1
  Cu+  Cu109  1  0.93140044  0.59252434  0.59539785  1
  Cu+  Cu110  1  0.73161396  0.59297716  0.73270280  1
  Cu+  Cu111  1  0.07348139  0.26066044  0.40598214  1
  Cu+  Cu112  1  0.06830770  0.92736227  0.74262206  1
  Cu+  Cu113  1  0.73380825  0.93014253  0.06964753  1
  Cu+  Cu114  1  0.07176087  0.26397692  0.06710939  1
  Cu+  Cu115  1  0.74486653  0.06857587  0.25859646  1
  Cu+  Cu116  1  0.59392177  0.59497778  0.92588262  1
  Cu+  Cu117  1  0.41586168  0.07517554  0.59790032  1
  Cu+  Cu118  1  0.93028117  0.59111733  0.25435430  1
  Cu+  Cu119  1  0.40396006  0.73544372  0.59578005  1
  Cu+  Cu120  1  0.93257748  0.07206682  0.07787298  1
  Cu+  Cu121  1  0.26229532  0.92362113  0.59520820  1
  Cu+  Cu122  1  0.74112739  0.59432269  0.07851804  1
  Cu+  Cu123  1  0.40276564  0.73570794  0.93295239  1
  Cu+  Cu124  1  0.93054739  0.92245433  0.92539691  1
  Cu+  Cu125  1  0.92421012  0.73866831  0.40404218  1
  Cu+  Cu126  1  0.26239344  0.73934190  0.40340286  1
  Cu+  Cu127  1  0.40778730  0.25989960  0.07512451  1
  Cu+  Cu128  1  0.40070909  0.26390757  0.73711560  1
  Cu+  Cu129  1  0.06688113  0.07318372  0.58683216  1
  Cu+  Cu130  1  0.59697467  0.41031993  0.40095939  1
  Cu+  Cu131  1  0.58940797  0.06976532  0.40909964  1
  Cu+  Cu132  1  0.93192860  0.74027414  0.74809893  1
  Te2-  Te133  1  0.25359724  0.25355738  0.07970721  1
  Te2-  Te134  1  0.25661785  0.25082708  0.41804421  1
  Te2-  Te135  1  0.24850871  0.25345997  0.74238210  1
  Te2-  Te136  1  0.25283457  0.58351740  0.08246745  1
  Te2-  Te137  1  0.25308234  0.58420156  0.41043698  1
  Te2-  Te138  1  0.25175818  0.58506342  0.74654304  1
  Te2-  Te139  1  0.25246407  0.92013909  0.08209725  1
  Te2-  Te140  1  0.25036686  0.91946811  0.41832085  1
  Te2-  Te141  1  0.25956186  0.91969645  0.75155276  1
  Te2-  Te142  1  0.58998929  0.24913113  0.08342667  1
  Te2-  Te143  1  0.58945976  0.25756993  0.41218259  1
  Te2-  Te144  1  0.58837923  0.25120728  0.74931532  1
  Te2-  Te145  1  0.58770322  0.58897587  0.07944200  1
  Te2-  Te146  1  0.58373724  0.58981416  0.41439761  1
  Te2-  Te147  1  0.58063573  0.59055853  0.74406360  1
  Te2-  Te148  1  0.58243632  0.91977877  0.07598576  1
  Te2-  Te149  1  0.58614065  0.91812653  0.41568472  1
  Te2-  Te150  1  0.58232498  0.91664649  0.74513578  1
  Te2-  Te151  1  0.91817387  0.25712422  0.07676416  1
  Te2-  Te152  1  0.91812790  0.25091087  0.40796549  1
  Te2-  Te153  1  0.91939721  0.25730724  0.74956563  1
  Te2-  Te154  1  0.92055870  0.58408976  0.08083461  1
  Te2-  Te155  1  0.92320670  0.58539719  0.41102443  1
  Te2-  Te156  1  0.92681577  0.58776901  0.74804357  1
  Te2-  Te157  1  0.92659434  0.91912597  0.07993930  1
  Te2-  Te158  1  0.91860185  0.91987590  0.41483600  1
  Te2-  Te159  1  0.91550450  0.92273385  0.74485142  1
  Te2-  Te160  1  0.25242059  0.08494508  0.25430575  1
  Te2-  Te161  1  0.25858504  0.07995281  0.59198093  1
  Te2-  Te162  1  0.24987643  0.08299196  0.91600823  1
  Te2-  Te163  1  0.25078558  0.41133778  0.25099287  1
  Te2-  Te164  1  0.24950449  0.41404446  0.58275051  1
  Te2-  Te165  1  0.25222829  0.41346605  0.91934386  1
  Te2-  Te166  1  0.25530108  0.74459951  0.25130006  1
  Te2-  Te167  1  0.24884394  0.74540847  0.59344416  1
  Te2-  Te168  1  0.25042152  0.74501270  0.92183976  1
  Te2-  Te169  1  0.58866996  0.07396004  0.25482303  1
  Te2-  Te170  1  0.58439237  0.08578734  0.58876588  1
  Te2-  Te171  1  0.58334636  0.08163895  0.92013280  1
  Te2-  Te172  1  0.58867003  0.41202163  0.24881009  1
  Te2-  Te173  1  0.58662339  0.41745907  0.58815906  1
  Te2-  Te174  1  0.58630305  0.41206842  0.91286763  1
  Te2-  Te175  1  0.58810650  0.75025030  0.25153815  1
  Te2-  Te176  1  0.58440943  0.74865855  0.58308250  1
  Te2-  Te177  1  0.58910680  0.74816585  0.92174746  1
  Te2-  Te178  1  0.92129823  0.07969839  0.24675242  1
  Te2-  Te179  1  0.91683493  0.07894172  0.58639507  1
  Te2-  Te180  1  0.92639918  0.07867937  0.92087536  1
  Te2-  Te181  1  0.91931327  0.40984656  0.25333605  1
  Te2-  Te182  1  0.91739879  0.41445753  0.58873876  1
  Te2-  Te183  1  0.91543777  0.41872369  0.91985176  1
  Te2-  Te184  1  0.92191570  0.74689603  0.25131641  1
  Te2-  Te185  1  0.92530916  0.74505507  0.59169639  1
  Te2-  Te186  1  0.91537158  0.74837639  0.91736815  1
  Te2-  Te187  1  0.07853775  0.25270993  0.25364452  1
  Te2-  Te188  1  0.08147908  0.25749331  0.58956685  1
  Te2-  Te189  1  0.07944407  0.25569057  0.91545418  1
  Te2-  Te190  1  0.08213055  0.58623293  0.25329130  1
  Te2-  Te191  1  0.08394092  0.58885695  0.58597903  1
  Te2-  Te192  1  0.08117777  0.58656890  0.92032983  1
  Te2-  Te193  1  0.08392235  0.91863006  0.25658543  1
  Te2-  Te194  1  0.07095538  0.91838770  0.58721857  1
  Te2-  Te195  1  0.08369962  0.92011425  0.92229772  1
  Te2-  Te196  1  0.41768253  0.25101024  0.25611236  1
  Te2-  Te197  1  0.41429710  0.26236265  0.58354374  1
  Te2-  Te198  1  0.41212758  0.25388293  0.92044625  1
  Te2-  Te199  1  0.41685145  0.58286106  0.25078984  1
  Te2-  Te200  1  0.40930038  0.58456105  0.58756179  1
  Te2-  Te201  1  0.40995654  0.58239575  0.92180059  1
  Te2-  Te202  1  0.41378706  0.91917415  0.25141181  1
  Te2-  Te203  1  0.41299078  0.92246649  0.58882594  1
  Te2-  Te204  1  0.41475830  0.91911915  0.91860918  1
  Te2-  Te205  1  0.74940123  0.25395234  0.25178524  1
  Te2-  Te206  1  0.74573658  0.24898867  0.58299388  1
  Te2-  Te207  1  0.75064573  0.25023711  0.92010877  1
  Te2-  Te208  1  0.74446106  0.58431248  0.25346964  1
  Te2-  Te209  1  0.74285346  0.58837481  0.58044440  1
  Te2-  Te210  1  0.74731057  0.59314956  0.92204726  1
  Te2-  Te211  1  0.74930691  0.91632416  0.25417143  1
  Te2-  Te212  1  0.74970913  0.91678355  0.59041020  1
  Te2-  Te213  1  0.73928010  0.92182136  0.91625606  1
  Te2-  Te214  1  0.08532466  0.07750484  0.08015558  1
  Te2-  Te215  1  0.08312111  0.07880416  0.41899354  1
  Te2-  Te216  1  0.07495694  0.07968928  0.74484684  1
  Te2-  Te217  1  0.07779197  0.41559729  0.07806226  1
  Te2-  Te218  1  0.07621156  0.41507697  0.41283734  1
  Te2-  Te219  1  0.07944430  0.41455109  0.74738147  1
  Te2-  Te220  1  0.08155393  0.74758662  0.08166852  1
  Te2-  Te221  1  0.07986615  0.74551654  0.41297090  1
  Te2-  Te222  1  0.08399344  0.74655247  0.74715319  1
  Te2-  Te223  1  0.41429310  0.08010506  0.08300709  1
  Te2-  Te224  1  0.41505059  0.08512842  0.41236142  1
  Te2-  Te225  1  0.41314083  0.07833129  0.74978103  1
  Te2-  Te226  1  0.41615498  0.41453102  0.07771791  1
  Te2-  Te227  1  0.41292147  0.41614786  0.41378744  1
  Te2-  Te228  1  0.41074838  0.41617077  0.74536659  1
  Te2-  Te229  1  0.41193634  0.74388123  0.08408691  1
  Te2-  Te230  1  0.41388247  0.74811254  0.41025381  1
  Te2-  Te231  1  0.41174371  0.74193386  0.74787881  1
  Te2-  Te232  1  0.74171837  0.08262838  0.07522152  1
  Te2-  Te233  1  0.74739950  0.07537137  0.41335087  1
  Te2-  Te234  1  0.75118880  0.08071445  0.74951904  1
  Te2-  Te235  1  0.74710958  0.40959702  0.07939224  1
  Te2-  Te236  1  0.75180674  0.41320995  0.41244597  1
  Te2-  Te237  1  0.74753492  0.41964843  0.74779521  1
  Te2-  Te238  1  0.75029220  0.74782305  0.07924983  1
  Te2-  Te239  1  0.74736350  0.74628788  0.41738636  1
  Te2-  Te240  1  0.73914859  0.74831757  0.74372326  1
