# generated using pymatgen
data_Ti27(Cu53Te54)2
_symmetry_space_group_name_H-M   'P 1'
_cell_length_a   17.89149678
_cell_length_b   17.89193452
_cell_length_c   17.89329813
_cell_angle_alpha   90.05391586
_cell_angle_beta   89.98955882
_cell_angle_gamma   90.03760148
_symmetry_Int_Tables_number   1
_chemical_formula_structural   Ti27(Cu53Te54)2
_chemical_formula_sum   'Ti27 Cu106 Te108'
_cell_volume   5727.88222728
_cell_formula_units_Z   1
loop_
 _symmetry_equiv_pos_site_id
 _symmetry_equiv_pos_as_xyz
  1  'x, y, z'
loop_
 _atom_type_symbol
 _atom_type_oxidation_number
  Ti4+  4.0
  Cu+  1.0
  Te2-  -2.0
loop_
 _atom_site_type_symbol
 _atom_site_label
 _atom_site_symmetry_multiplicity
 _atom_site_fract_x
 _atom_site_fract_y
 _atom_site_fract_z
 _atom_site_occupancy
  Ti4+  Ti0  1  0.16363877  0.16660724  0.16785478  1
  Ti4+  Ti1  1  0.16849857  0.16648801  0.49983000  1
  Ti4+  Ti2  1  0.16688657  0.16592679  0.83724058  1
  Ti4+  Ti3  1  0.16782758  0.49972119  0.16749372  1
  Ti4+  Ti4  1  0.16682605  0.50216237  0.49954029  1
  Ti4+  Ti5  1  0.16769974  0.50358519  0.83315389  1
  Ti4+  Ti6  1  0.16540674  0.83687799  0.16424501  1
  Ti4+  Ti7  1  0.17075274  0.83675449  0.49948695  1
  Ti4+  Ti8  1  0.16438633  0.83094887  0.83349619  1
  Ti4+  Ti9  1  0.50128523  0.16749516  0.16793838  1
  Ti4+  Ti10  1  0.50238337  0.16349260  0.50244573  1
  Ti4+  Ti11  1  0.49634594  0.16345406  0.83264928  1
  Ti4+  Ti12  1  0.50394243  0.50131534  0.16570314  1
  Ti4+  Ti13  1  0.50147402  0.49803387  0.50285813  1
  Ti4+  Ti14  1  0.49829564  0.49808047  0.83765715  1
  Ti4+  Ti15  1  0.49979838  0.83236742  0.16749427  1
  Ti4+  Ti16  1  0.49923446  0.83013812  0.49654240  1
  Ti4+  Ti17  1  0.49787406  0.83055005  0.83363336  1
  Ti4+  Ti18  1  0.83151112  0.17245906  0.16695067  1
  Ti4+  Ti19  1  0.83638632  0.16352356  0.49949534  1
  Ti4+  Ti20  1  0.83166065  0.16613605  0.83237747  1
  Ti4+  Ti21  1  0.83185065  0.49959249  0.16586262  1
  Ti4+  Ti22  1  0.83324471  0.49877535  0.49917760  1
  Ti4+  Ti23  1  0.83219013  0.50125955  0.83310178  1
  Ti4+  Ti24  1  0.83374801  0.83604814  0.16715034  1
  Ti4+  Ti25  1  0.83441922  0.83322931  0.49755232  1
  Ti4+  Ti26  1  0.83347814  0.83282654  0.83410804  1
  Cu+  Cu27  1  0.16408611  0.16501019  0.00695442  1
  Cu+  Cu28  1  0.17215210  0.16732815  0.33146125  1
  Cu+  Cu29  1  0.16599452  0.16574096  0.66773066  1
  Cu+  Cu30  1  0.17045145  0.50103287  0.00126502  1
  Cu+  Cu31  1  0.16619351  0.49914090  0.33175500  1
  Cu+  Cu32  1  0.16543639  0.50541165  0.66613588  1
  Cu+  Cu33  1  0.16231668  0.83838439  -0.00353788  1
  Cu+  Cu34  1  0.16841840  0.83894153  0.33443590  1
  Cu+  Cu35  1  0.16738634  0.82624237  0.66433693  1
  Cu+  Cu36  1  0.49748824  0.16612179  -0.00337525  1
  Cu+  Cu37  1  0.50373960  0.16715018  0.33377497  1
  Cu+  Cu38  1  0.50193411  0.15979043  0.66917189  1
  Cu+  Cu39  1  0.50835562  0.50290923  -0.00071109  1
  Cu+  Cu40  1  0.50133551  0.49826112  0.33637387  1
  Cu+  Cu41  1  0.49938752  0.49771794  0.67074001  1
  Cu+  Cu42  1  0.49644438  0.82913572  0.00201173  1
  Cu+  Cu43  1  0.49744619  0.83531406  0.33331976  1
  Cu+  Cu44  1  0.49983072  0.83041982  0.65998155  1
  Cu+  Cu45  1  0.83167089  0.17282080  -0.00068353  1
  Cu+  Cu46  1  0.82900572  0.16936942  0.33565696  1
  Cu+  Cu47  1  0.83526162  0.16239366  0.66499328  1
  Cu+  Cu48  1  0.83356777  0.50271632  -0.00005112  1
  Cu+  Cu49  1  0.83250508  0.49516963  0.33204837  1
  Cu+  Cu50  1  0.83188287  0.49744789  0.66489108  1
  Cu+  Cu51  1  0.83398343  0.83632380  -0.00146959  1
  Cu+  Cu52  1  0.83309450  0.83197677  0.33076455  1
  Cu+  Cu53  1  0.83648872  0.83375044  0.66908132  1
  Cu+  Cu54  1  0.16303808  0.00094274  0.15797606  1
  Cu+  Cu55  1  0.16523161  -0.00075899  0.49912507  1
  Cu+  Cu56  1  0.17302034  0.00145680  0.83342860  1
  Cu+  Cu57  1  0.16562012  0.33203538  0.16935618  1
  Cu+  Cu58  1  0.16804499  0.33455025  0.50074961  1
  Cu+  Cu59  1  0.16659732  0.33621578  0.83678862  1
  Cu+  Cu60  1  0.16541907  0.66441661  0.16672389  1
  Cu+  Cu61  1  0.17127206  0.67269581  0.50160515  1
  Cu+  Cu62  1  0.16095543  0.66725594  0.82882080  1
  Cu+  Cu63  1  0.50321651  -0.00173783  0.16627275  1
  Cu+  Cu64  1  0.50009102  -0.00417851  0.49770600  1
  Cu+  Cu65  1  0.49903439  -0.00127454  0.82979180  1
  Cu+  Cu66  1  0.50184908  0.33464064  0.16614125  1
  Cu+  Cu67  1  0.50189783  0.33251152  0.50594882  1
  Cu+  Cu68  1  0.49640681  0.32975869  0.83500284  1
  Cu+  Cu69  1  0.50264175  0.66676601  0.16814763  1
  Cu+  Cu70  1  0.49695096  0.66188511  0.49717288  1
  Cu+  Cu71  1  0.49311683  0.66477233  0.83991474  1
  Cu+  Cu72  1  0.83396682  0.00717265  0.17004788  1
  Cu+  Cu73  1  0.83516534  -0.00112750  0.50199902  1
  Cu+  Cu74  1  0.83437264  -0.00275636  0.83514278  1
  Cu+  Cu75  1  0.82610473  0.33564479  0.16557749  1
  Cu+  Cu76  1  0.83560211  0.33035907  0.49729697  1
  Cu+  Cu77  1  0.83281104  0.33478035  0.83230853  1
  Cu+  Cu78  1  0.83223483  0.67007500  0.16900270  1
  Cu+  Cu79  1  0.83498552  0.66357753  0.49658516  1
  Cu+  Cu80  1  0.83476979  0.66965083  0.83208042  1
  Cu+  Cu81  1  -0.00100890  0.17540082  0.16599599  1
  Cu+  Cu82  1  0.00234790  0.16566292  0.49973053  1
  Cu+  Cu83  1  -0.00137119  0.16761252  0.83639776  1
  Cu+  Cu84  1  -0.00072817  0.49859923  0.16699088  1
  Cu+  Cu85  1  -0.00264331  0.49953795  0.49869489  1
  Cu+  Cu86  1  -0.00062663  0.50345246  0.83256507  1
  Cu+  Cu87  1  -0.00032284  0.83974935  0.16205683  1
  Cu+  Cu88  1  0.00191687  0.83947213  0.49994398  1
  Cu+  Cu89  1  -0.00195045  0.82957916  0.83747461  1
  Cu+  Cu90  1  0.33294159  0.16771145  0.17204385  1
  Cu+  Cu91  1  0.33507695  0.16539910  0.50154534  1
  Cu+  Cu92  1  0.33019522  0.16279640  0.83186211  1
  Cu+  Cu93  1  0.33490927  0.49714323  0.16524680  1
  Cu+  Cu94  1  0.33420023  0.50114204  0.49963140  1
  Cu+  Cu95  1  0.33598860  0.50489865  0.83214274  1
  Cu+  Cu96  1  0.33342886  0.83385292  0.16779923  1
  Cu+  Cu97  1  0.33603352  0.83407646  0.49007500  1
  Cu+  Cu98  1  0.33218164  0.82742613  0.83755922  1
  Cu+  Cu99  1  0.66744187  0.16869727  0.16620920  1
  Cu+  Cu100  1  0.67122197  0.16139659  0.50270360  1
  Cu+  Cu101  1  0.66173492  0.16321687  0.83156444  1
  Cu+  Cu102  1  0.67135379  0.50157207  0.16520548  1
  Cu+  Cu103  1  0.66554724  0.49825094  0.50428859  1
  Cu+  Cu104  1  0.66361305  0.49888998  0.83842032  1
  Cu+  Cu105  1  0.66592063  0.83244172  0.17026271  1
  Cu+  Cu106  1  0.66464602  0.83046253  0.49965937  1
  Cu+  Cu107  1  0.66887239  0.83275074  0.83138423  1
  Cu+  Cu108  1  0.07096556  0.73722320  0.92936307  1
  Cu+  Cu109  1  0.73486661  0.25847542  0.06715347  1
  Cu+  Cu110  1  0.25601519  0.07734069  0.73566153  1
  Cu+  Cu111  1  0.73967724  0.07530845  0.25832520  1
  Cu+  Cu112  1  0.25617256  0.74206188  0.40069317  1
  Cu+  Cu113  1  0.41065099  0.93204984  0.40195823  1
  Cu+  Cu114  1  0.74643387  0.06835002  0.59496650  1
  Cu+  Cu115  1  0.40306122  0.73618801  0.93467787  1
  Cu+  Cu116  1  0.73798440  0.73957276  0.26163694  1
  Cu+  Cu117  1  0.59446765  0.59747812  0.92123585  1
  Cu+  Cu118  1  0.26106997  0.26213397  0.26062690  1
  Cu+  Cu119  1  0.07210393  0.92816930  0.40636498  1
  Cu+  Cu120  1  0.73792594  0.41017660  0.26056561  1
  Cu+  Cu121  1  0.06633008  0.58811076  0.73677779  1
  Cu+  Cu122  1  0.07463699  0.26524846  0.07379355  1
  Cu+  Cu123  1  0.06655202  0.92902410  0.06628840  1
  Cu+  Cu124  1  0.73782651  0.25919645  0.41629337  1
  Cu+  Cu125  1  0.59454638  0.06822330  0.74375080  1
  Cu+  Cu126  1  0.40752101  0.58362778  0.40286699  1
  Cu+  Cu127  1  0.41419487  0.59083448  0.73928566  1
  Cu+  Cu128  1  0.26264117  0.92514978  0.92198991  1
  Cu+  Cu129  1  0.74973671  0.60118089  0.07115812  1
  Cu+  Cu130  1  0.06980985  0.74353189  0.58243251  1
  Cu+  Cu131  1  0.25961984  0.74180049  0.73983747  1
  Cu+  Cu132  1  0.26567115  0.07617411  0.08341611  1
  Te2-  Te133  1  0.25303982  0.25257899  0.08285755  1
  Te2-  Te134  1  0.25581092  0.25338602  0.41636050  1
  Te2-  Te135  1  0.24923183  0.25296104  0.75068408  1
  Te2-  Te136  1  0.25388913  0.58558661  0.08334209  1
  Te2-  Te137  1  0.25294386  0.58755347  0.41041829  1
  Te2-  Te138  1  0.25583447  0.58992471  0.74421160  1
  Te2-  Te139  1  0.25733691  0.91967136  0.07761088  1
  Te2-  Te140  1  0.25579850  0.92620174  0.41116548  1
  Te2-  Te141  1  0.25354128  0.91527512  0.74612822  1
  Te2-  Te142  1  0.58340210  0.25244718  0.07812402  1
  Te2-  Te143  1  0.58634543  0.25168092  0.41817352  1
  Te2-  Te144  1  0.58203399  0.25141953  0.74828164  1
  Te2-  Te145  1  0.59119189  0.59112721  0.08088503  1
  Te2-  Te146  1  0.58823261  0.58314741  0.41624014  1
  Te2-  Te147  1  0.58337159  0.58645334  0.75210786  1
  Te2-  Te148  1  0.58532055  0.91537525  0.08085523  1
  Te2-  Te149  1  0.58732565  0.91656663  0.41317283  1
  Te2-  Te150  1  0.58402164  0.91358218  0.74522692  1
  Te2-  Te151  1  0.91726073  0.25947501  0.07975337  1
  Te2-  Te152  1  0.92215719  0.25001319  0.41369264  1
  Te2-  Te153  1  0.91752798  0.25059111  0.74791262  1
  Te2-  Te154  1  0.91877186  0.58713438  0.08346875  1
  Te2-  Te155  1  0.91800867  0.58243961  0.41058927  1
  Te2-  Te156  1  0.91563735  0.58698254  0.74428842  1
  Te2-  Te157  1  0.91496252  0.92580014  0.07935379  1
  Te2-  Te158  1  0.91823644  0.92079546  0.41124020  1
  Te2-  Te159  1  0.92120201  0.91804824  0.75025016  1
  Te2-  Te160  1  0.25029805  0.07554300  0.24981658  1
  Te2-  Te161  1  0.25326113  0.07865643  0.58453348  1
  Te2-  Te162  1  0.25504498  0.08028372  0.92714546  1
  Te2-  Te163  1  0.25488280  0.41423317  0.25359256  1
  Te2-  Te164  1  0.25100462  0.41848975  0.58572451  1
  Te2-  Te165  1  0.25415980  0.41859667  0.91714446  1
  Te2-  Te166  1  0.24978376  0.74917403  0.24961985  1
  Te2-  Te167  1  0.26179116  0.74942539  0.58415421  1
  Te2-  Te168  1  0.24798880  0.74269372  0.92350872  1
  Te2-  Te169  1  0.58685398  0.08014549  0.25280139  1
  Te2-  Te170  1  0.58769213  0.07314036  0.58645204  1
  Te2-  Te171  1  0.58279901  0.07775298  0.91933974  1
  Te2-  Te172  1  0.58624240  0.41474271  0.25308973  1
  Te2-  Te173  1  0.58608137  0.41396993  0.59105033  1
  Te2-  Te174  1  0.58419857  0.40870299  0.91951350  1
  Te2-  Te175  1  0.58441947  0.74702450  0.25612392  1
  Te2-  Te176  1  0.58363513  0.74316074  0.58169807  1
  Te2-  Te177  1  0.58739791  0.74941170  0.91950343  1
  Te2-  Te178  1  0.91958591  0.08965019  0.25284151  1
  Te2-  Te179  1  0.92382119  0.07859639  0.58527692  1
  Te2-  Te180  1  0.91530408  0.08350801  0.92039035  1
  Te2-  Te181  1  0.91810560  0.41213903  0.24972926  1
  Te2-  Te182  1  0.91809811  0.41286953  0.58428879  1
  Te2-  Te183  1  0.91810034  0.41726022  0.91738947  1
  Te2-  Te184  1  0.92288026  0.75142100  0.24926942  1
  Te2-  Te185  1  0.91831333  0.74749919  0.58342659  1
  Te2-  Te186  1  0.91775374  0.74503402  0.92368867  1
  Te2-  Te187  1  0.08039025  0.25297411  0.25727741  1
  Te2-  Te188  1  0.08324633  0.25137482  0.58517096  1
  Te2-  Te189  1  0.08067473  0.25392112  0.92091128  1
  Te2-  Te190  1  0.08014665  0.58421947  0.25177210  1
  Te2-  Te191  1  0.07735375  0.58982177  0.58329371  1
  Te2-  Te192  1  0.08031444  0.58536191  0.92313564  1
  Te2-  Te193  1  0.08060235  0.92278659  0.25136816  1
  Te2-  Te194  1  0.08455165  0.92004392  0.58993745  1
  Te2-  Te195  1  0.07723022  0.92450405  0.91416884  1
  Te2-  Te196  1  0.41727152  0.25447195  0.25467268  1
  Te2-  Te197  1  0.41732414  0.24765872  0.58825184  1
  Te2-  Te198  1  0.41000357  0.24922735  0.91777689  1
  Te2-  Te199  1  0.41519735  0.58404546  0.25075131  1
  Te2-  Te200  1  0.41373891  0.58504469  0.58810228  1
  Te2-  Te201  1  0.40984418  0.58367975  0.92869660  1
  Te2-  Te202  1  0.41318920  0.92165543  0.25043445  1
  Te2-  Te203  1  0.41355326  0.91632080  0.58285764  1
  Te2-  Te204  1  0.41542753  0.91963351  0.91970368  1
  Te2-  Te205  1  0.74146075  0.25692285  0.25715307  1
  Te2-  Te206  1  0.75088677  0.25098457  0.58596348  1
  Te2-  Te207  1  0.74292417  0.25338768  0.91402598  1
  Te2-  Te208  1  0.74749274  0.58667107  0.25626237  1
  Te2-  Te209  1  0.74888503  0.58534269  0.58440124  1
  Te2-  Te210  1  0.74714954  0.59112047  0.91901693  1
  Te2-  Te211  1  0.74705723  0.92185770  0.25322029  1
  Te2-  Te212  1  0.74759751  0.91470638  0.58609099  1
  Te2-  Te213  1  0.74620434  0.91860762  0.91843913  1
  Te2-  Te214  1  0.07088963  0.08217552  0.08029005  1
  Te2-  Te215  1  0.08259383  0.08241984  0.41143525  1
  Te2-  Te216  1  0.08092742  0.08110835  0.75165638  1
  Te2-  Te217  1  0.08136231  0.41592475  0.07978938  1
  Te2-  Te218  1  0.08262370  0.41582202  0.41599791  1
  Te2-  Te219  1  0.08266955  0.41686919  0.74860142  1
  Te2-  Te220  1  0.08021812  0.74732628  0.08158261  1
  Te2-  Te221  1  0.08249096  0.75045960  0.41367567  1
  Te2-  Te222  1  0.07284082  0.74643158  0.74295238  1
  Te2-  Te223  1  0.41696076  0.08087711  0.08265381  1
  Te2-  Te224  1  0.41555371  0.08265205  0.41275572  1
  Te2-  Te225  1  0.40946273  0.07583198  0.74518411  1
  Te2-  Te226  1  0.41971957  0.41668353  0.07945721  1
  Te2-  Te227  1  0.41578567  0.41116955  0.41755749  1
  Te2-  Te228  1  0.41287185  0.41247968  0.75058985  1
  Te2-  Te229  1  0.41154831  0.74385562  0.08514582  1
  Te2-  Te230  1  0.41295141  0.74114333  0.40714601  1
  Te2-  Te231  1  0.41361040  0.74564558  0.74295220  1
  Te2-  Te232  1  0.74865573  0.08399053  0.07994587  1
  Te2-  Te233  1  0.74777792  0.07505192  0.41309176  1
  Te2-  Te234  1  0.74723868  0.07516544  0.74720280  1
  Te2-  Te235  1  0.74469441  0.41430843  0.07444360  1
  Te2-  Te236  1  0.74306449  0.41217908  0.41519283  1
  Te2-  Te237  1  0.74535807  0.41677231  0.74944807  1
  Te2-  Te238  1  0.74696256  0.75218990  0.07909544  1
  Te2-  Te239  1  0.74759973  0.74623989  0.41427535  1
  Te2-  Te240  1  0.74882511  0.74781344  0.74630003  1
