# generated using pymatgen
data_Ti27(Cu53Te54)2
_symmetry_space_group_name_H-M   'P 1'
_cell_length_a   17.89778024
_cell_length_b   17.89599547
_cell_length_c   17.90186862
_cell_angle_alpha   89.98047831
_cell_angle_beta   90.02954510
_cell_angle_gamma   90.03792602
_symmetry_Int_Tables_number   1
_chemical_formula_structural   Ti27(Cu53Te54)2
_chemical_formula_sum   'Ti27 Cu106 Te108'
_cell_volume   5733.94099969
_cell_formula_units_Z   1
loop_
 _symmetry_equiv_pos_site_id
 _symmetry_equiv_pos_as_xyz
  1  'x, y, z'
loop_
 _atom_type_symbol
 _atom_type_oxidation_number
  Ti4+  4.0
  Cu+  1.0
  Te2-  -2.0
loop_
 _atom_site_type_symbol
 _atom_site_label
 _atom_site_symmetry_multiplicity
 _atom_site_fract_x
 _atom_site_fract_y
 _atom_site_fract_z
 _atom_site_occupancy
  Ti4+  Ti0  1  0.16348193  0.16736425  0.17096503  1
  Ti4+  Ti1  1  0.16190233  0.16406227  0.50230768  1
  Ti4+  Ti2  1  0.16662492  0.16924910  0.83431002  1
  Ti4+  Ti3  1  0.16658272  0.50323714  0.16918047  1
  Ti4+  Ti4  1  0.16739849  0.49672709  0.50053865  1
  Ti4+  Ti5  1  0.16794440  0.49930430  0.83433250  1
  Ti4+  Ti6  1  0.16618387  0.83538344  0.16812740  1
  Ti4+  Ti7  1  0.17023858  0.83195864  0.50049299  1
  Ti4+  Ti8  1  0.16684250  0.83355830  0.83292799  1
  Ti4+  Ti9  1  0.50161682  0.17158845  0.16100541  1
  Ti4+  Ti10  1  0.49986109  0.16586157  0.49842908  1
  Ti4+  Ti11  1  0.50040529  0.16793028  0.82761083  1
  Ti4+  Ti12  1  0.50043018  0.49579468  0.16494537  1
  Ti4+  Ti13  1  0.50077382  0.50028200  0.50036826  1
  Ti4+  Ti14  1  0.49967696  0.50184115  0.83454101  1
  Ti4+  Ti15  1  0.49881326  0.83527772  0.16569998  1
  Ti4+  Ti16  1  0.50305963  0.83289837  0.50148297  1
  Ti4+  Ti17  1  0.50107273  0.83470847  0.83488177  1
  Ti4+  Ti18  1  0.83257235  0.16588525  0.16533197  1
  Ti4+  Ti19  1  0.83190512  0.16642532  0.50046097  1
  Ti4+  Ti20  1  0.83400069  0.16465721  0.83131284  1
  Ti4+  Ti21  1  0.83376307  0.50260733  0.16516758  1
  Ti4+  Ti22  1  0.83029786  0.49992863  0.49959249  1
  Ti4+  Ti23  1  0.83525625  0.50100583  0.83235248  1
  Ti4+  Ti24  1  0.83029454  0.83536418  0.16992817  1
  Ti4+  Ti25  1  0.83423901  0.82947390  0.50134949  1
  Ti4+  Ti26  1  0.83572355  0.82950744  0.83531021  1
  Cu+  Cu27  1  0.16640730  0.16893053  0.00092826  1
  Cu+  Cu28  1  0.15519694  0.16080503  0.33448360  1
  Cu+  Cu29  1  0.16734347  0.17112139  0.67139330  1
  Cu+  Cu30  1  0.16964391  0.49928659  0.00571972  1
  Cu+  Cu31  1  0.16270557  0.49786445  0.33291113  1
  Cu+  Cu32  1  0.17127461  0.49963579  0.66569501  1
  Cu+  Cu33  1  0.16445615  0.83658451  -0.00069162  1
  Cu+  Cu34  1  0.16869491  0.83253387  0.33453064  1
  Cu+  Cu35  1  0.16815006  0.83343371  0.66520078  1
  Cu+  Cu36  1  0.49905399  0.17014841  -0.00527719  1
  Cu+  Cu37  1  0.49737986  0.16940108  0.32453192  1
  Cu+  Cu38  1  0.50478796  0.16558121  0.66426726  1
  Cu+  Cu39  1  0.49841341  0.49354670  -0.00174773  1
  Cu+  Cu40  1  0.49970283  0.49420397  0.33490679  1
  Cu+  Cu41  1  0.50224384  0.50106784  0.67033786  1
  Cu+  Cu42  1  0.49767832  0.83558540  -0.00063748  1
  Cu+  Cu43  1  0.50369822  0.83452060  0.33220956  1
  Cu+  Cu44  1  0.50223067  0.83326140  0.66918921  1
  Cu+  Cu45  1  0.83513506  0.16436670  -0.00308624  1
  Cu+  Cu46  1  0.83156797  0.16550409  0.33339122  1
  Cu+  Cu47  1  0.83301884  0.16536053  0.66540330  1
  Cu+  Cu48  1  0.83734753  0.50504471  -0.00454459  1
  Cu+  Cu49  1  0.82889996  0.50460896  0.33371247  1
  Cu+  Cu50  1  0.83233193  0.50026828  0.66524705  1
  Cu+  Cu51  1  0.83298937  0.83234410  0.00628914  1
  Cu+  Cu52  1  0.83018669  0.83701091  0.33653076  1
  Cu+  Cu53  1  0.83543085  0.82281251  0.66795467  1
  Cu+  Cu54  1  0.16313085  0.00001374  0.17075355  1
  Cu+  Cu55  1  0.16963326  0.00000253  0.49944874  1
  Cu+  Cu56  1  0.16811509  0.00099560  0.83344073  1
  Cu+  Cu57  1  0.16414182  0.33803692  0.17236475  1
  Cu+  Cu58  1  0.16415539  0.32668921  0.50161493  1
  Cu+  Cu59  1  0.16224917  0.33313882  0.83240578  1
  Cu+  Cu60  1  0.16630398  0.66886700  0.16857420  1
  Cu+  Cu61  1  0.17191251  0.66347258  0.50222858  1
  Cu+  Cu62  1  0.16893687  0.66725933  0.83471138  1
  Cu+  Cu63  1  0.49955180  0.00606375  0.16353729  1
  Cu+  Cu64  1  0.49493705  -0.00561346  0.49352497  1
  Cu+  Cu65  1  0.50133099  0.00028024  0.82827876  1
  Cu+  Cu66  1  0.51078414  0.33325636  0.16109765  1
  Cu+  Cu67  1  0.50337988  0.33347204  0.50111858  1
  Cu+  Cu68  1  0.49965878  0.33816295  0.83063921  1
  Cu+  Cu69  1  0.49717766  0.66532878  0.16630442  1
  Cu+  Cu70  1  0.50200857  0.66805267  0.50198943  1
  Cu+  Cu71  1  0.49877325  0.66883923  0.83722095  1
  Cu+  Cu72  1  0.82685360  -0.00142621  0.16474939  1
  Cu+  Cu73  1  0.83376671  -0.00165543  0.49980979  1
  Cu+  Cu74  1  0.83509707  -0.00237911  0.83349803  1
  Cu+  Cu75  1  0.83553439  0.33317447  0.16410016  1
  Cu+  Cu76  1  0.83114184  0.33395466  0.50051847  1
  Cu+  Cu77  1  0.83290787  0.33300443  0.83400997  1
  Cu+  Cu78  1  0.83437808  0.67195970  0.16630489  1
  Cu+  Cu79  1  0.82615566  0.66400866  0.50219183  1
  Cu+  Cu80  1  0.84211371  0.66448074  0.83327808  1
  Cu+  Cu81  1  -0.00277378  0.16366578  0.16964210  1
  Cu+  Cu82  1  -0.00324773  0.16792322  0.49863833  1
  Cu+  Cu83  1  0.00056804  0.16981152  0.83236177  1
  Cu+  Cu84  1  0.00131952  0.50386306  0.17032527  1
  Cu+  Cu85  1  -0.00319649  0.49911586  0.50013933  1
  Cu+  Cu86  1  0.00155392  0.50208640  0.83522187  1
  Cu+  Cu87  1  -0.00210400  0.83337991  0.17069316  1
  Cu+  Cu88  1  0.00409552  0.82953039  0.50093860  1
  Cu+  Cu89  1  0.00171803  0.82889511  0.83092602  1
  Cu+  Cu90  1  0.33694892  0.17070448  0.16799136  1
  Cu+  Cu91  1  0.32825969  0.16450693  0.50039628  1
  Cu+  Cu92  1  0.33083042  0.16422299  0.82883037  1
  Cu+  Cu93  1  0.33126335  0.49837614  0.16348483  1
  Cu+  Cu94  1  0.33274220  0.50106852  0.50484640  1
  Cu+  Cu95  1  0.33553286  0.49929725  0.83861023  1
  Cu+  Cu96  1  0.33113278  0.83675943  0.16526280  1
  Cu+  Cu97  1  0.33768579  0.83194152  0.50178291  1
  Cu+  Cu98  1  0.33504554  0.83487900  0.83510193  1
  Cu+  Cu99  1  0.66718584  0.17176384  0.16286118  1
  Cu+  Cu100  1  0.66541780  0.16652647  0.50311889  1
  Cu+  Cu101  1  0.66790418  0.16524146  0.82706722  1
  Cu+  Cu102  1  0.66773134  0.49867320  0.16152592  1
  Cu+  Cu103  1  0.66615921  0.50176573  0.49233671  1
  Cu+  Cu104  1  0.66857933  0.50283204  0.83069489  1
  Cu+  Cu105  1  0.66370409  0.83874813  0.16700763  1
  Cu+  Cu106  1  0.67107065  0.83177292  0.50399381  1
  Cu+  Cu107  1  0.66657779  0.83180142  0.83732889  1
  Cu+  Cu108  1  0.92862683  0.74578741  0.08022766  1
  Cu+  Cu109  1  0.73590816  0.92600650  0.07085180  1
  Cu+  Cu110  1  0.40972609  0.07567026  0.25067968  1
  Cu+  Cu111  1  0.59691023  0.41458089  0.74149382  1
  Cu+  Cu112  1  0.59772623  0.25679535  0.25753900  1
  Cu+  Cu113  1  0.40558799  0.40364376  0.92387707  1
  Cu+  Cu114  1  0.74257823  0.92910515  0.41288343  1
  Cu+  Cu115  1  0.25437518  0.07768631  0.40544323  1
  Cu+  Cu116  1  0.59556678  0.25972032  0.59175638  1
  Cu+  Cu117  1  0.59275321  0.40540824  0.40711889  1
  Cu+  Cu118  1  0.40509383  0.91012843  0.40246597  1
  Cu+  Cu119  1  0.06832252  0.41291020  0.25999017  1
  Cu+  Cu120  1  0.73826696  0.73650644  0.59947818  1
  Cu+  Cu121  1  0.25507341  0.40432281  0.07900399  1
  Cu+  Cu122  1  0.06971582  0.25896034  0.40858028  1
  Cu+  Cu123  1  0.06800743  0.26367794  0.74377661  1
  Cu+  Cu124  1  0.93363127  0.73715937  0.73598836  1
  Cu+  Cu125  1  0.60067260  0.40990896  0.06789160  1
  Cu+  Cu126  1  0.59795563  0.06850411  0.73951679  1
  Cu+  Cu127  1  0.26112585  0.59514783  0.59638876  1
  Cu+  Cu128  1  0.06487941  0.06754272  0.25733460  1
  Cu+  Cu129  1  0.73713083  0.59519852  0.40052012  1
  Cu+  Cu130  1  0.26023914  0.25570512  0.59452096  1
  Cu+  Cu131  1  0.25705160  0.06984292  0.74317257  1
  Cu+  Cu132  1  0.93351612  0.59165958  0.92677131  1
  Te2-  Te133  1  0.24978928  0.25261314  0.08534623  1
  Te2-  Te134  1  0.24767590  0.24765095  0.41102473  1
  Te2-  Te135  1  0.25550893  0.25889518  0.74873775  1
  Te2-  Te136  1  0.25262280  0.58984517  0.08294895  1
  Te2-  Te137  1  0.25207778  0.58057768  0.41314366  1
  Te2-  Te138  1  0.25561830  0.58500557  0.75104980  1
  Te2-  Te139  1  0.24845521  0.92222532  0.08178149  1
  Te2-  Te140  1  0.25552713  0.91996154  0.41199206  1
  Te2-  Te141  1  0.25430255  0.91789616  0.74684688  1
  Te2-  Te142  1  0.59063819  0.25383309  0.06971208  1
  Te2-  Te143  1  0.58753945  0.25091889  0.41088017  1
  Te2-  Te144  1  0.58909866  0.25749529  0.74439657  1
  Te2-  Te145  1  0.58203874  0.58346161  0.07934188  1
  Te2-  Te146  1  0.58255816  0.58921196  0.41048141  1
  Te2-  Te147  1  0.58495285  0.59024675  0.75010698  1
  Te2-  Te148  1  0.58255162  0.92324084  0.07895716  1
  Te2-  Te149  1  0.59050914  0.91852957  0.41435639  1
  Te2-  Te150  1  0.59084566  0.91714730  0.74695959  1
  Te2-  Te151  1  0.91932833  0.24901161  0.08070518  1
  Te2-  Te152  1  0.91533608  0.25374286  0.41277222  1
  Te2-  Te153  1  0.91673437  0.25409381  0.74524505  1
  Te2-  Te154  1  0.92286161  0.58925419  0.08178473  1
  Te2-  Te155  1  0.91678701  0.58652016  0.41626970  1
  Te2-  Te156  1  0.92307207  0.58388573  0.74228263  1
  Te2-  Te157  1  0.91933873  0.92063912  0.08439066  1
  Te2-  Te158  1  0.92145216  0.91553698  0.41749449  1
  Te2-  Te159  1  0.91839075  0.91449200  0.74730275  1
  Te2-  Te160  1  0.25452902  0.08023317  0.25348506  1
  Te2-  Te161  1  0.25156066  0.07930052  0.59007421  1
  Te2-  Te162  1  0.25210232  0.08294008  0.92091061  1
  Te2-  Te163  1  0.25419064  0.41603339  0.25550115  1
  Te2-  Te164  1  0.25340813  0.40843739  0.58601387  1
  Te2-  Te165  1  0.25110781  0.41021053  0.92126880  1
  Te2-  Te166  1  0.25327751  0.74982533  0.25176077  1
  Te2-  Te167  1  0.25679024  0.74774067  0.58781604  1
  Te2-  Te168  1  0.25210984  0.75074615  0.92013636  1
  Te2-  Te169  1  0.58782662  0.08439988  0.24835201  1
  Te2-  Te170  1  0.58365740  0.07433457  0.58114760  1
  Te2-  Te171  1  0.58437968  0.08368284  0.91505016  1
  Te2-  Te172  1  0.59204265  0.41289119  0.25381537  1
  Te2-  Te173  1  0.59042974  0.41578305  0.58744951  1
  Te2-  Te174  1  0.59124601  0.41358578  0.91701998  1
  Te2-  Te175  1  0.58414176  0.74837589  0.24904178  1
  Te2-  Te176  1  0.58717966  0.74615847  0.58946680  1
  Te2-  Te177  1  0.58435393  0.74884352  0.92237046  1
  Te2-  Te178  1  0.91358638  0.07679587  0.25336390  1
  Te2-  Te179  1  0.91793170  0.08071370  0.58425060  1
  Te2-  Te180  1  0.92117665  0.08075265  0.91565673  1
  Te2-  Te181  1  0.91527793  0.41690734  0.25368466  1
  Te2-  Te182  1  0.91645611  0.41454084  0.58504265  1
  Te2-  Te183  1  0.92005790  0.41370500  0.91761870  1
  Te2-  Te184  1  0.91597555  0.74995195  0.25756991  1
  Te2-  Te185  1  0.92320449  0.74049330  0.58316653  1
  Te2-  Te186  1  0.92434001  0.74658540  0.92481929  1
  Te2-  Te187  1  0.07388549  0.25571098  0.25451910  1
  Te2-  Te188  1  0.07470155  0.25183237  0.58896460  1
  Te2-  Te189  1  0.07981192  0.25375492  0.92164240  1
  Te2-  Te190  1  0.08088542  0.59024343  0.25563810  1
  Te2-  Te191  1  0.08174506  0.58241311  0.58454318  1
  Te2-  Te192  1  0.08598065  0.58584106  0.92221322  1
  Te2-  Te193  1  0.07853276  0.91706256  0.25752668  1
  Te2-  Te194  1  0.08372962  0.91795018  0.58410900  1
  Te2-  Te195  1  0.08006684  0.91951542  0.91528699  1
  Te2-  Te196  1  0.41689336  0.26150242  0.24740395  1
  Te2-  Te197  1  0.41429589  0.25105579  0.58441703  1
  Te2-  Te198  1  0.41220783  0.25196008  0.91359086  1
  Te2-  Te199  1  0.41554940  0.57916668  0.25054464  1
  Te2-  Te200  1  0.41702089  0.58672268  0.58823996  1
  Te2-  Te201  1  0.41513810  0.58682829  0.92265421  1
  Te2-  Te202  1  0.41214427  0.92282156  0.25189811  1
  Te2-  Te203  1  0.41676560  0.91787651  0.58833327  1
  Te2-  Te204  1  0.41567235  0.92278087  0.91718896  1
  Te2-  Te205  1  0.74983301  0.25473314  0.25208650  1
  Te2-  Te206  1  0.74751996  0.25342389  0.58759923  1
  Te2-  Te207  1  0.74817591  0.24917901  0.91608456  1
  Te2-  Te208  1  0.74503206  0.58855820  0.24679204  1
  Te2-  Te209  1  0.74154785  0.58292848  0.58901803  1
  Te2-  Te210  1  0.74842206  0.58763125  0.91607575  1
  Te2-  Te211  1  0.74289446  0.92247846  0.25662290  1
  Te2-  Te212  1  0.75256895  0.91643886  0.59026413  1
  Te2-  Te213  1  0.74972720  0.91747442  0.91934216  1
  Te2-  Te214  1  0.08143552  0.08265695  0.08227799  1
  Te2-  Te215  1  0.07335707  0.07370358  0.41772310  1
  Te2-  Te216  1  0.08108940  0.08149772  0.74863436  1
  Te2-  Te217  1  0.07833461  0.41619968  0.08303597  1
  Te2-  Te218  1  0.07635786  0.41155857  0.41480978  1
  Te2-  Te219  1  0.08053707  0.41768032  0.74617455  1
  Te2-  Te220  1  0.08134425  0.74915354  0.08166265  1
  Te2-  Te221  1  0.08670651  0.74511783  0.41647364  1
  Te2-  Te222  1  0.08483806  0.74438208  0.74484864  1
  Te2-  Te223  1  0.41336307  0.08577639  0.07668551  1
  Te2-  Te224  1  0.41204285  0.08081488  0.40950552  1
  Te2-  Te225  1  0.41370298  0.08050019  0.74265690  1
  Te2-  Te226  1  0.41128484  0.40738198  0.07953376  1
  Te2-  Te227  1  0.41289841  0.41347843  0.41915423  1
  Te2-  Te228  1  0.41158542  0.41686354  0.74614339  1
  Te2-  Te229  1  0.41343221  0.75036695  0.08207125  1
  Te2-  Te230  1  0.41773919  0.74723099  0.41371552  1
  Te2-  Te231  1  0.41542207  0.74919236  0.74984998  1
  Te2-  Te232  1  0.74550543  0.08271767  0.07774072  1
  Te2-  Te233  1  0.74506939  0.08171504  0.41486952  1
  Te2-  Te234  1  0.75004914  0.07639583  0.74432211  1
  Te2-  Te235  1  0.75360368  0.41564867  0.07593228  1
  Te2-  Te236  1  0.74678666  0.41100679  0.41081540  1
  Te2-  Te237  1  0.74930270  0.41344721  0.74630796  1
  Te2-  Te238  1  0.74257389  0.74896746  0.08409624  1
  Te2-  Te239  1  0.74496648  0.74605350  0.41184765  1
  Te2-  Te240  1  0.74599597  0.74258501  0.75326353  1
