# generated using pymatgen
data_Ti27(Cu53Te54)2
_symmetry_space_group_name_H-M   'P 1'
_cell_length_a   17.86908244
_cell_length_b   17.86973270
_cell_length_c   17.87090999
_cell_angle_alpha   89.97754520
_cell_angle_beta   89.98191648
_cell_angle_gamma   89.97616209
_symmetry_Int_Tables_number   1
_chemical_formula_structural   Ti27(Cu53Te54)2
_chemical_formula_sum   'Ti27 Cu106 Te108'
_cell_volume   5706.46139455
_cell_formula_units_Z   1
loop_
 _symmetry_equiv_pos_site_id
 _symmetry_equiv_pos_as_xyz
  1  'x, y, z'
loop_
 _atom_type_symbol
 _atom_type_oxidation_number
  Ti4+  4.0
  Cu+  1.0
  Te2-  -2.0
loop_
 _atom_site_type_symbol
 _atom_site_label
 _atom_site_symmetry_multiplicity
 _atom_site_fract_x
 _atom_site_fract_y
 _atom_site_fract_z
 _atom_site_occupancy
  Ti4+  Ti0  1  0.16550770  0.16517688  0.16801486  1
  Ti4+  Ti1  1  0.16277704  0.16622176  0.49963988  1
  Ti4+  Ti2  1  0.16862071  0.16768470  0.83097413  1
  Ti4+  Ti3  1  0.16527656  0.49925260  0.16680995  1
  Ti4+  Ti4  1  0.16636350  0.49924602  0.49851842  1
  Ti4+  Ti5  1  0.16461611  0.49755646  0.83516156  1
  Ti4+  Ti6  1  0.16511076  0.83548155  0.16480886  1
  Ti4+  Ti7  1  0.16679771  0.83218259  0.49853171  1
  Ti4+  Ti8  1  0.16636587  0.83535928  0.83257284  1
  Ti4+  Ti9  1  0.50264874  0.16537745  0.16621223  1
  Ti4+  Ti10  1  0.50125051  0.16565702  0.49774733  1
  Ti4+  Ti11  1  0.50081881  0.16618295  0.83528708  1
  Ti4+  Ti12  1  0.50174447  0.50069038  0.16525130  1
  Ti4+  Ti13  1  0.50061151  0.50129047  0.49650825  1
  Ti4+  Ti14  1  0.49696053  0.49936154  0.83110498  1
  Ti4+  Ti15  1  0.50034730  0.83431120  0.16852023  1
  Ti4+  Ti16  1  0.50158145  0.83274645  0.50097806  1
  Ti4+  Ti17  1  0.50049100  0.83273382  0.83537584  1
  Ti4+  Ti18  1  0.83359319  0.16878410  0.16508353  1
  Ti4+  Ti19  1  0.83130803  0.16154095  0.50005448  1
  Ti4+  Ti20  1  0.83775042  0.16786540  0.83142976  1
  Ti4+  Ti21  1  0.83343514  0.49994025  0.16994805  1
  Ti4+  Ti22  1  0.83190184  0.50040311  0.50163184  1
  Ti4+  Ti23  1  0.82839117  0.50189030  0.83553997  1
  Ti4+  Ti24  1  0.83375978  0.83236212  0.16615675  1
  Ti4+  Ti25  1  0.83401913  0.83254301  0.50048533  1
  Ti4+  Ti26  1  0.83524036  0.83384773  0.83617132  1
  Cu+  Cu27  1  0.16395626  0.16632574  0.00256831  1
  Cu+  Cu28  1  0.16443211  0.16412066  0.33509118  1
  Cu+  Cu29  1  0.16819835  0.17283004  0.66279995  1
  Cu+  Cu30  1  0.16727700  0.50138370  0.00227749  1
  Cu+  Cu31  1  0.16448485  0.49484871  0.33218580  1
  Cu+  Cu32  1  0.16700817  0.49886748  0.66630060  1
  Cu+  Cu33  1  0.16716062  0.83587714  -0.00551582  1
  Cu+  Cu34  1  0.16002513  0.83737627  0.33506779  1
  Cu+  Cu35  1  0.16985769  0.83374768  0.66647844  1
  Cu+  Cu36  1  0.50376729  0.16486762  0.00080261  1
  Cu+  Cu37  1  0.50572807  0.16319598  0.33249982  1
  Cu+  Cu38  1  0.49874796  0.16556825  0.66756560  1
  Cu+  Cu39  1  0.49739349  0.49846331  -0.00337181  1
  Cu+  Cu40  1  0.50315121  0.50367808  0.33021218  1
  Cu+  Cu41  1  0.50207274  0.50331950  0.65896854  1
  Cu+  Cu42  1  0.50136995  0.82902257  0.00517621  1
  Cu+  Cu43  1  0.50038912  0.83251463  0.33574127  1
  Cu+  Cu44  1  0.49964165  0.83391848  0.66947440  1
  Cu+  Cu45  1  0.83538348  0.16970106  -0.00247045  1
  Cu+  Cu46  1  0.83107425  0.16405727  0.33144657  1
  Cu+  Cu47  1  0.83952246  0.16357686  0.66407843  1
  Cu+  Cu48  1  0.83070348  0.50458645  0.00383160  1
  Cu+  Cu49  1  0.83309998  0.49921643  0.33767442  1
  Cu+  Cu50  1  0.82770596  0.49892235  0.66962222  1
  Cu+  Cu51  1  0.82957702  0.83824279  0.00408507  1
  Cu+  Cu52  1  0.83275615  0.83111251  0.33231542  1
  Cu+  Cu53  1  0.83581589  0.83150361  0.66685218  1
  Cu+  Cu54  1  0.17256171  -0.00340692  0.16834094  1
  Cu+  Cu55  1  0.16051988  -0.00054505  0.49550172  1
  Cu+  Cu56  1  0.16899079  0.00235363  0.83886409  1
  Cu+  Cu57  1  0.16148476  0.33209071  0.16747614  1
  Cu+  Cu58  1  0.16651473  0.33192297  0.50065570  1
  Cu+  Cu59  1  0.16812967  0.33440046  0.82651524  1
  Cu+  Cu60  1  0.16307024  0.66804174  0.16748216  1
  Cu+  Cu61  1  0.17042823  0.66415532  0.49951445  1
  Cu+  Cu62  1  0.16249435  0.66684010  0.83352533  1
  Cu+  Cu63  1  0.49486267  0.00290341  0.17099393  1
  Cu+  Cu64  1  0.50314777  -0.00143339  0.49819512  1
  Cu+  Cu65  1  0.50294428  -0.00037246  0.83637368  1
  Cu+  Cu66  1  0.50366840  0.33029188  0.16621547  1
  Cu+  Cu67  1  0.49775439  0.33675232  0.49486291  1
  Cu+  Cu68  1  0.49254978  0.33313796  0.83411096  1
  Cu+  Cu69  1  0.50447160  0.66878134  0.16655946  1
  Cu+  Cu70  1  0.50376779  0.66719341  0.50227877  1
  Cu+  Cu71  1  0.49872480  0.66670946  0.83436777  1
  Cu+  Cu72  1  0.83159992  0.00039839  0.16314016  1
  Cu+  Cu73  1  0.83015353  -0.00440564  0.50009848  1
  Cu+  Cu74  1  0.83902016  0.00118799  0.83205289  1
  Cu+  Cu75  1  0.83404183  0.33574686  0.16613276  1
  Cu+  Cu76  1  0.82813136  0.33093607  0.50180721  1
  Cu+  Cu77  1  0.83348580  0.33911872  0.82963352  1
  Cu+  Cu78  1  0.83327341  0.66534296  0.16842167  1
  Cu+  Cu79  1  0.83541013  0.66850580  0.49987244  1
  Cu+  Cu80  1  0.83440847  0.66604344  0.83976357  1
  Cu+  Cu81  1  -0.00076887  0.16822246  0.16152683  1
  Cu+  Cu82  1  -0.00566504  0.16619716  0.50290849  1
  Cu+  Cu83  1  0.00361144  0.16123052  0.82767275  1
  Cu+  Cu84  1  0.00122716  0.49429254  0.17126580  1
  Cu+  Cu85  1  0.00091397  0.49969162  0.50239336  1
  Cu+  Cu86  1  -0.00722924  0.50221077  0.83654240  1
  Cu+  Cu87  1  -0.00002198  0.82873673  0.16874965  1
  Cu+  Cu88  1  -0.00004306  0.83517924  0.49606701  1
  Cu+  Cu89  1  0.00243894  0.82913256  0.83513296  1
  Cu+  Cu90  1  0.33446714  0.16204149  0.16788702  1
  Cu+  Cu91  1  0.32940802  0.16527773  0.50000200  1
  Cu+  Cu92  1  0.33947924  0.17016969  0.82978197  1
  Cu+  Cu93  1  0.33214223  0.50066876  0.16373368  1
  Cu+  Cu94  1  0.33554281  0.50002053  0.49416236  1
  Cu+  Cu95  1  0.33236288  0.49096217  0.83594797  1
  Cu+  Cu96  1  0.33178524  0.83868973  0.16831151  1
  Cu+  Cu97  1  0.33666871  0.83134458  0.50062189  1
  Cu+  Cu98  1  0.33396033  0.83669640  0.83465179  1
  Cu+  Cu99  1  0.66712576  0.17026831  0.16895585  1
  Cu+  Cu100  1  0.66568268  0.16063226  0.49542164  1
  Cu+  Cu101  1  0.66865165  0.16822946  0.83374538  1
  Cu+  Cu102  1  0.66784373  0.50428868  0.16958444  1
  Cu+  Cu103  1  0.66650763  0.50274498  0.50240638  1
  Cu+  Cu104  1  0.66260063  0.50420861  0.83392326  1
  Cu+  Cu105  1  0.66852993  0.83456196  0.16068614  1
  Cu+  Cu106  1  0.66965678  0.83215732  0.50181926  1
  Cu+  Cu107  1  0.66936617  0.83316208  0.83521229  1
  Cu+  Cu108  1  0.92859962  0.06674164  0.73549443  1
  Cu+  Cu109  1  0.40451333  0.40342584  0.93188631  1
  Cu+  Cu110  1  0.91993335  0.26195798  0.58664421  1
  Cu+  Cu111  1  0.59731200  0.59696495  0.59257764  1
  Cu+  Cu112  1  0.40589525  0.08051545  0.26478716  1
  Cu+  Cu113  1  0.26639544  0.93100074  0.92282907  1
  Cu+  Cu114  1  0.59691152  0.74016200  0.07556485  1
  Cu+  Cu115  1  0.07645594  0.73965369  0.92593960  1
  Cu+  Cu116  1  0.59477528  0.26161815  0.26153792  1
  Cu+  Cu117  1  0.59465014  0.59847275  0.26118703  1
  Cu+  Cu118  1  0.07243287  0.40036273  0.26463376  1
  Cu+  Cu119  1  0.07203521  0.26242500  0.07209640  1
  Cu+  Cu120  1  0.73694125  0.93382469  0.07362319  1
  Cu+  Cu121  1  0.26214004  0.26036845  0.58403154  1
  Cu+  Cu122  1  0.25894242  0.91862941  0.26672155  1
  Cu+  Cu123  1  0.92365251  0.59163649  0.93372241  1
  Cu+  Cu124  1  0.07499880  0.25862180  0.73952406  1
  Cu+  Cu125  1  0.41773478  0.26120441  0.73473446  1
  Cu+  Cu126  1  0.59526452  0.06670658  0.40384743  1
  Cu+  Cu127  1  0.07428716  0.07561503  0.93008519  1
  Cu+  Cu128  1  0.92293886  0.41787440  0.74063038  1
  Cu+  Cu129  1  0.26137334  0.41555325  0.73566899  1
  Cu+  Cu130  1  0.58722604  0.59227606  0.92440135  1
  Cu+  Cu131  1  0.07484367  0.73882538  0.26382744  1
  Cu+  Cu132  1  0.06650370  0.93044310  0.40555384  1
  Te2-  Te133  1  0.25232515  0.25006998  0.08468352  1
  Te2-  Te134  1  0.25005030  0.25107479  0.41258658  1
  Te2-  Te135  1  0.25966673  0.25611086  0.74234141  1
  Te2-  Te136  1  0.25022323  0.58845014  0.08281536  1
  Te2-  Te137  1  0.25061480  0.58247014  0.41039594  1
  Te2-  Te138  1  0.25131337  0.58367428  0.75254720  1
  Te2-  Te139  1  0.25371828  0.91984814  0.07591618  1
  Te2-  Te140  1  0.25533500  0.91982373  0.41614024  1
  Te2-  Te141  1  0.25257319  0.92240794  0.74779790  1
  Te2-  Te142  1  0.58810555  0.25182823  0.07853905  1
  Te2-  Te143  1  0.58751707  0.25482181  0.41403830  1
  Te2-  Te144  1  0.58459512  0.25388771  0.74916859  1
  Te2-  Te145  1  0.58792998  0.58582484  0.07600311  1
  Te2-  Te146  1  0.58931481  0.58920728  0.41258102  1
  Te2-  Te147  1  0.58384571  0.58822305  0.74528516  1
  Te2-  Te148  1  0.58263134  0.92473090  0.08167533  1
  Te2-  Te149  1  0.59001597  0.91598899  0.41312180  1
  Te2-  Te150  1  0.58653452  0.91748725  0.75065462  1
  Te2-  Te151  1  0.91845199  0.25667355  0.07780251  1
  Te2-  Te152  1  0.91454452  0.25033212  0.41430140  1
  Te2-  Te153  1  0.92295101  0.25872512  0.74364349  1
  Te2-  Te154  1  0.92258647  0.58548491  0.08594776  1
  Te2-  Te155  1  0.91935513  0.58426761  0.41711171  1
  Te2-  Te156  1  0.91538866  0.58727765  0.74676038  1
  Te2-  Te157  1  0.92247084  0.91797106  0.08317868  1
  Te2-  Te158  1  0.91611386  0.92045126  0.41021620  1
  Te2-  Te159  1  0.92350361  0.91521118  0.74772969  1
  Te2-  Te160  1  0.25263357  0.07865508  0.25750706  1
  Te2-  Te161  1  0.24724039  0.07773678  0.58391565  1
  Te2-  Te162  1  0.25784436  0.08698301  0.92010010  1
  Te2-  Te163  1  0.25263755  0.41228632  0.24917651  1
  Te2-  Te164  1  0.25655571  0.41357240  0.58404324  1
  Te2-  Te165  1  0.24825672  0.40909269  0.92405361  1
  Te2-  Te166  1  0.24941946  0.75098413  0.25345940  1
  Te2-  Te167  1  0.25302142  0.74783683  0.58460646  1
  Te2-  Te168  1  0.25244059  0.74620094  0.91682933  1
  Te2-  Te169  1  0.59197946  0.07546637  0.25100904  1
  Te2-  Te170  1  0.58399170  0.08187230  0.58734386  1
  Te2-  Te171  1  0.58923946  0.08165131  0.91890501  1
  Te2-  Te172  1  0.58752489  0.41413160  0.25194181  1
  Te2-  Te173  1  0.58498594  0.41216653  0.58248397  1
  Te2-  Te174  1  0.58372416  0.41200910  0.91558935  1
  Te2-  Te175  1  0.59051514  0.75102099  0.25415424  1
  Te2-  Te176  1  0.58827085  0.74941941  0.58960112  1
  Te2-  Te177  1  0.58929691  0.74601469  0.92127050  1
  Te2-  Te178  1  0.91794729  0.08188203  0.24785956  1
  Te2-  Te179  1  0.92065546  0.07158545  0.58391311  1
  Te2-  Te180  1  0.92219805  0.08170991  0.92152253  1
  Te2-  Te181  1  0.91734624  0.41185496  0.25753702  1
  Te2-  Te182  1  0.91888652  0.41365528  0.58806702  1
  Te2-  Te183  1  0.91456790  0.41520233  0.92329623  1
  Te2-  Te184  1  0.91867709  0.74421267  0.25461606  1
  Te2-  Te185  1  0.92255134  0.74862641  0.58430862  1
  Te2-  Te186  1  0.91975083  0.74794442  0.92693582  1
  Te2-  Te187  1  0.07723043  0.24864405  0.25589710  1
  Te2-  Te188  1  0.07467988  0.25663541  0.58579711  1
  Te2-  Te189  1  0.08079563  0.25370908  0.91656702  1
  Te2-  Te190  1  0.07922435  0.58570544  0.25450525  1
  Te2-  Te191  1  0.08337202  0.58523478  0.58610101  1
  Te2-  Te192  1  0.07809968  0.58513760  0.92240669  1
  Te2-  Te193  1  0.07597661  0.92363382  0.25020793  1
  Te2-  Te194  1  0.08174680  0.91660550  0.58587787  1
  Te2-  Te195  1  0.07658989  0.92240625  0.91976165  1
  Te2-  Te196  1  0.41573750  0.25030453  0.25334629  1
  Te2-  Te197  1  0.41454143  0.25444890  0.58278080  1
  Te2-  Te198  1  0.41267194  0.25048827  0.92601147  1
  Te2-  Te199  1  0.41510413  0.58665548  0.24822348  1
  Te2-  Te200  1  0.41187090  0.58638664  0.58169883  1
  Te2-  Te201  1  0.40921201  0.58449111  0.91694787  1
  Te2-  Te202  1  0.41332834  0.92023885  0.25852995  1
  Te2-  Te203  1  0.41650034  0.91930119  0.58496423  1
  Te2-  Te204  1  0.41800642  0.91929171  0.92410742  1
  Te2-  Te205  1  0.74968633  0.25560906  0.25383835  1
  Te2-  Te206  1  0.74426609  0.24503643  0.58643922  1
  Te2-  Te207  1  0.75156974  0.25455644  0.91506093  1
  Te2-  Te208  1  0.74912033  0.58762980  0.25749909  1
  Te2-  Te209  1  0.74937273  0.58944568  0.58854901  1
  Te2-  Te210  1  0.74237998  0.58890369  0.92289223  1
  Te2-  Te211  1  0.74737400  0.91765603  0.25108970  1
  Te2-  Te212  1  0.74833679  0.91651218  0.58872214  1
  Te2-  Te213  1  0.74831027  0.92410958  0.91807093  1
  Te2-  Te214  1  0.08110919  0.07485064  0.08370308  1
  Te2-  Te215  1  0.07313320  0.08298861  0.41248917  1
  Te2-  Te216  1  0.08745671  0.07747693  0.74174166  1
  Te2-  Te217  1  0.07858356  0.41428899  0.07680779  1
  Te2-  Te218  1  0.07803931  0.41045522  0.41659293  1
  Te2-  Te219  1  0.07500215  0.41559204  0.74615478  1
  Te2-  Te220  1  0.08096657  0.74853349  0.07724454  1
  Te2-  Te221  1  0.08030921  0.74279636  0.41505114  1
  Te2-  Te222  1  0.08238625  0.74830905  0.74415681  1
  Te2-  Te223  1  0.41532572  0.08099530  0.07827429  1
  Te2-  Te224  1  0.41142936  0.08013052  0.41555637  1
  Te2-  Te225  1  0.41646005  0.07734613  0.74941299  1
  Te2-  Te226  1  0.41468623  0.41185445  0.08295725  1
  Te2-  Te227  1  0.41572233  0.41683413  0.40728617  1
  Te2-  Te228  1  0.41377820  0.41440115  0.73727647  1
  Te2-  Te229  1  0.41127162  0.74843651  0.08700890  1
  Te2-  Te230  1  0.41708715  0.74551206  0.41569277  1
  Te2-  Te231  1  0.41335277  0.74895566  0.75055559  1
  Te2-  Te232  1  0.74585599  0.08576611  0.07792735  1
  Te2-  Te233  1  0.74819653  0.07494066  0.41035412  1
  Te2-  Te234  1  0.75036806  0.08273749  0.74803222  1
  Te2-  Te235  1  0.74690264  0.41751341  0.08320273  1
  Te2-  Te236  1  0.74592751  0.41440462  0.41775179  1
  Te2-  Te237  1  0.73985190  0.41591508  0.74950351  1
  Te2-  Te238  1  0.74940062  0.74213000  0.07890336  1
  Te2-  Te239  1  0.74818218  0.74706803  0.41461174  1
  Te2-  Te240  1  0.75197316  0.74766628  0.75163024  1
