# generated using pymatgen
data_Ti27(Cu53Te54)2
_symmetry_space_group_name_H-M   'P 1'
_cell_length_a   17.87072404
_cell_length_b   17.87019135
_cell_length_c   17.87140171
_cell_angle_alpha   90.00459032
_cell_angle_beta   89.98902346
_cell_angle_gamma   90.00950012
_symmetry_Int_Tables_number   1
_chemical_formula_structural   Ti27(Cu53Te54)2
_chemical_formula_sum   'Ti27 Cu106 Te108'
_cell_volume   5707.29016313
_cell_formula_units_Z   1
loop_
 _symmetry_equiv_pos_site_id
 _symmetry_equiv_pos_as_xyz
  1  'x, y, z'
loop_
 _atom_type_symbol
 _atom_type_oxidation_number
  Ti4+  4.0
  Cu+  1.0
  Te2-  -2.0
loop_
 _atom_site_type_symbol
 _atom_site_label
 _atom_site_symmetry_multiplicity
 _atom_site_fract_x
 _atom_site_fract_y
 _atom_site_fract_z
 _atom_site_occupancy
  Ti4+  Ti0  1  0.16638703  0.16605885  0.16437291  1
  Ti4+  Ti1  1  0.16758814  0.16535906  0.49646927  1
  Ti4+  Ti2  1  0.17083017  0.16494517  0.83103288  1
  Ti4+  Ti3  1  0.16799407  0.50013878  0.16554717  1
  Ti4+  Ti4  1  0.16589100  0.50067927  0.49837396  1
  Ti4+  Ti5  1  0.16765076  0.49749005  0.83152781  1
  Ti4+  Ti6  1  0.16563900  0.83254046  0.16502487  1
  Ti4+  Ti7  1  0.16416062  0.83410395  0.50083841  1
  Ti4+  Ti8  1  0.16725419  0.82829099  0.83242960  1
  Ti4+  Ti9  1  0.50257380  0.16647541  0.16502257  1
  Ti4+  Ti10  1  0.50044333  0.16632955  0.50098916  1
  Ti4+  Ti11  1  0.50082061  0.16875228  0.83435158  1
  Ti4+  Ti12  1  0.50047935  0.50163349  0.16650211  1
  Ti4+  Ti13  1  0.49888067  0.50199155  0.50070217  1
  Ti4+  Ti14  1  0.49980822  0.50263699  0.83180994  1
  Ti4+  Ti15  1  0.50014663  0.83611581  0.17109379  1
  Ti4+  Ti16  1  0.50395670  0.83452513  0.50122036  1
  Ti4+  Ti17  1  0.49749113  0.83164668  0.83639916  1
  Ti4+  Ti18  1  0.83129798  0.16795060  0.16631957  1
  Ti4+  Ti19  1  0.83427091  0.16548084  0.49881180  1
  Ti4+  Ti20  1  0.83424942  0.16628923  0.83301225  1
  Ti4+  Ti21  1  0.83664898  0.49981629  0.16835837  1
  Ti4+  Ti22  1  0.83304284  0.49511547  0.50051179  1
  Ti4+  Ti23  1  0.83485518  0.49771750  0.83662239  1
  Ti4+  Ti24  1  0.83311220  0.83424773  0.16426295  1
  Ti4+  Ti25  1  0.83148115  0.83327876  0.49994978  1
  Ti4+  Ti26  1  0.83014797  0.83415419  0.83389688  1
  Cu+  Cu27  1  0.16977876  0.16640492  -0.00061920  1
  Cu+  Cu28  1  0.16522615  0.16707782  0.33229860  1
  Cu+  Cu29  1  0.16971268  0.16378928  0.66071159  1
  Cu+  Cu30  1  0.16953143  0.50101611  -0.00101421  1
  Cu+  Cu31  1  0.16858654  0.50135910  0.33077028  1
  Cu+  Cu32  1  0.16230156  0.49727053  0.66340454  1
  Cu+  Cu33  1  0.16817576  0.83121591  -0.00161111  1
  Cu+  Cu34  1  0.16516230  0.83269145  0.33266047  1
  Cu+  Cu35  1  0.16194100  0.83267329  0.66913482  1
  Cu+  Cu36  1  0.50323149  0.16818042  -0.00379446  1
  Cu+  Cu37  1  0.50433828  0.16154906  0.33327701  1
  Cu+  Cu38  1  0.49646517  0.16986880  0.67046766  1
  Cu+  Cu39  1  0.50114251  0.49952074  0.00029282  1
  Cu+  Cu40  1  0.49964452  0.50240135  0.33339301  1
  Cu+  Cu41  1  0.49443216  0.50554817  0.66605445  1
  Cu+  Cu42  1  0.50146432  0.83044745  0.00681585  1
  Cu+  Cu43  1  0.50085943  0.83607393  0.33974039  1
  Cu+  Cu44  1  0.50158068  0.83173379  0.66848425  1
  Cu+  Cu45  1  0.83880820  0.16497182  0.00168994  1
  Cu+  Cu46  1  0.83058436  0.17265840  0.33457174  1
  Cu+  Cu47  1  0.83008310  0.16511034  0.66409582  1
  Cu+  Cu48  1  0.83704904  0.49983049  0.00214087  1
  Cu+  Cu49  1  0.83395485  0.49097731  0.33250712  1
  Cu+  Cu50  1  0.83537613  0.49597983  0.67022108  1
  Cu+  Cu51  1  0.82725661  0.83748039  -0.00053341  1
  Cu+  Cu52  1  0.83258974  0.83499731  0.33116325  1
  Cu+  Cu53  1  0.83315515  0.83301211  0.66482732  1
  Cu+  Cu54  1  0.16610010  -0.00233380  0.16546618  1
  Cu+  Cu55  1  0.16218312  0.00285810  0.50094387  1
  Cu+  Cu56  1  0.16790103  -0.00712805  0.82897429  1
  Cu+  Cu57  1  0.16691151  0.33468553  0.16568991  1
  Cu+  Cu58  1  0.16880607  0.33236129  0.49766599  1
  Cu+  Cu59  1  0.17000704  0.33116548  0.83402839  1
  Cu+  Cu60  1  0.16535153  0.66787899  0.16345350  1
  Cu+  Cu61  1  0.16488675  0.66714322  0.50001735  1
  Cu+  Cu62  1  0.16915103  0.66200437  0.83503972  1
  Cu+  Cu63  1  0.49538148  0.00481091  0.17262395  1
  Cu+  Cu64  1  0.50413358  0.00114715  0.49588843  1
  Cu+  Cu65  1  0.49545840  0.00077958  0.83859006  1
  Cu+  Cu66  1  0.50066787  0.33321226  0.16403221  1
  Cu+  Cu67  1  0.49834460  0.33844809  0.50167072  1
  Cu+  Cu68  1  0.50273376  0.33361094  0.83262776  1
  Cu+  Cu69  1  0.50321581  0.66850714  0.16741479  1
  Cu+  Cu70  1  0.50408530  0.66866207  0.49964638  1
  Cu+  Cu71  1  0.49754051  0.66754995  0.82764132  1
  Cu+  Cu72  1  0.83263991  0.00127320  0.16004920  1
  Cu+  Cu73  1  0.82970782  -0.00076919  0.50471218  1
  Cu+  Cu74  1  0.83164656  0.00042590  0.83510268  1
  Cu+  Cu75  1  0.83086104  0.33571863  0.17297689  1
  Cu+  Cu76  1  0.83764183  0.33179672  0.49110935  1
  Cu+  Cu77  1  0.83864399  0.33335014  0.83328508  1
  Cu+  Cu78  1  0.83545371  0.66543684  0.16795086  1
  Cu+  Cu79  1  0.83285569  0.66475558  0.50061754  1
  Cu+  Cu80  1  0.83022898  0.66512437  0.83497711  1
  Cu+  Cu81  1  -0.00196173  0.16429497  0.16427663  1
  Cu+  Cu82  1  0.00337960  0.16244957  0.50072174  1
  Cu+  Cu83  1  0.00157346  0.16508153  0.83100864  1
  Cu+  Cu84  1  0.00439755  0.50130046  0.16498228  1
  Cu+  Cu85  1  -0.00001637  0.49529692  0.49832046  1
  Cu+  Cu86  1  -0.00073739  0.49264333  0.83129560  1
  Cu+  Cu87  1  0.00070469  0.83203388  0.16385951  1
  Cu+  Cu88  1  -0.00457984  0.83439339  0.49861740  1
  Cu+  Cu89  1  -0.00244445  0.82941419  0.83027436  1
  Cu+  Cu90  1  0.33598133  0.16590753  0.16472858  1
  Cu+  Cu91  1  0.32843869  0.17220228  0.50202256  1
  Cu+  Cu92  1  0.33641353  0.17015519  0.83592445  1
  Cu+  Cu93  1  0.33560322  0.50060878  0.16677194  1
  Cu+  Cu94  1  0.33291331  0.50178944  0.49817344  1
  Cu+  Cu95  1  0.33333891  0.50619784  0.83273861  1
  Cu+  Cu96  1  0.32929000  0.83824648  0.17344789  1
  Cu+  Cu97  1  0.33424978  0.83565058  0.50443060  1
  Cu+  Cu98  1  0.33083185  0.83348119  0.83969305  1
  Cu+  Cu99  1  0.66649216  0.16890644  0.16512805  1
  Cu+  Cu100  1  0.66662064  0.16147037  0.49926256  1
  Cu+  Cu101  1  0.66696237  0.17073192  0.83533691  1
  Cu+  Cu102  1  0.66826275  0.50100496  0.16851140  1
  Cu+  Cu103  1  0.66330725  0.49977879  0.50477218  1
  Cu+  Cu104  1  0.67177597  0.50394764  0.83192361  1
  Cu+  Cu105  1  0.66719463  0.83459407  0.16130383  1
  Cu+  Cu106  1  0.66769347  0.82968369  0.49839029  1
  Cu+  Cu107  1  0.66193299  0.82990628  0.83482835  1
  Cu+  Cu108  1  0.59896694  0.07217378  0.40275739  1
  Cu+  Cu109  1  0.73400460  0.25914475  0.41449111  1
  Cu+  Cu110  1  0.24792945  0.92766566  0.26394953  1
  Cu+  Cu111  1  0.73394696  0.41078958  0.25931256  1
  Cu+  Cu112  1  0.40029933  0.59847393  0.73524772  1
  Cu+  Cu113  1  0.73598535  0.07136496  0.59609566  1
  Cu+  Cu114  1  0.74872897  0.59187657  0.73819438  1
  Cu+  Cu115  1  0.93358141  0.40635946  0.40156803  1
  Cu+  Cu116  1  0.40373102  0.08572494  0.26386203  1
  Cu+  Cu117  1  0.59578460  0.73742325  0.07510051  1
  Cu+  Cu118  1  0.59642105  0.73602780  0.40577749  1
  Cu+  Cu119  1  0.26242796  0.59166637  0.93062915  1
  Cu+  Cu120  1  0.59998276  0.26489604  0.92552599  1
  Cu+  Cu121  1  0.73484634  0.93222924  0.07189672  1
  Cu+  Cu122  1  0.40766856  0.07526815  0.92710187  1
  Cu+  Cu123  1  0.25824721  0.26219156  0.93089427  1
  Cu+  Cu124  1  0.25453979  0.26467660  0.59041914  1
  Cu+  Cu125  1  0.59232484  0.74166429  0.74004750  1
  Cu+  Cu126  1  0.92818106  0.40193019  0.73962655  1
  Cu+  Cu127  1  0.06846506  0.92046427  0.74317195  1
  Cu+  Cu128  1  0.40449722  0.92688578  0.41800164  1
  Cu+  Cu129  1  0.25350773  0.92534163  0.92676627  1
  Cu+  Cu130  1  0.40933219  0.26372662  0.74204497  1
  Cu+  Cu131  1  0.07368173  0.07458161  0.59296448  1
  Cu+  Cu132  1  0.92963803  0.07140519  0.07293005  1
  Te2-  Te133  1  0.25516209  0.25345696  0.08258342  1
  Te2-  Te134  1  0.25264787  0.25291237  0.40896123  1
  Te2-  Te135  1  0.25486978  0.25323182  0.74296669  1
  Te2-  Te136  1  0.25571630  0.58782648  0.08156367  1
  Te2-  Te137  1  0.25100568  0.58730456  0.41423176  1
  Te2-  Te138  1  0.24911987  0.58507719  0.74073171  1
  Te2-  Te139  1  0.25400746  0.92008082  0.07892071  1
  Te2-  Te140  1  0.25077536  0.92270750  0.41604169  1
  Te2-  Te141  1  0.25570759  0.91377539  0.74534419  1
  Te2-  Te142  1  0.58766985  0.25471273  0.07913457  1
  Te2-  Te143  1  0.58236728  0.25433347  0.41512304  1
  Te2-  Te144  1  0.58824160  0.25380110  0.74561695  1
  Te2-  Te145  1  0.58919263  0.58522045  0.08041219  1
  Te2-  Te146  1  0.58862509  0.58458291  0.41347072  1
  Te2-  Te147  1  0.58911512  0.58723140  0.74415245  1
  Te2-  Te148  1  0.58158600  0.92573757  0.08250152  1
  Te2-  Te149  1  0.59342904  0.92060003  0.41269354  1
  Te2-  Te150  1  0.58110717  0.92065393  0.75280666  1
  Te2-  Te151  1  0.91677408  0.25616675  0.08448024  1
  Te2-  Te152  1  0.92720488  0.24834694  0.41223376  1
  Te2-  Te153  1  0.92042244  0.24863913  0.74382904  1
  Te2-  Te154  1  0.92119836  0.58607265  0.08212616  1
  Te2-  Te155  1  0.91602866  0.58117103  0.41418170  1
  Te2-  Te156  1  0.92005791  0.58554419  0.74997420  1
  Te2-  Te157  1  0.92229187  0.91819436  0.07668274  1
  Te2-  Te158  1  0.91458964  0.92120878  0.41493354  1
  Te2-  Te159  1  0.91549770  0.92003151  0.74703689  1
  Te2-  Te160  1  0.25256572  0.08036989  0.25349996  1
  Te2-  Te161  1  0.25564451  0.07711790  0.58295315  1
  Te2-  Te162  1  0.25418432  0.07651376  0.91907145  1
  Te2-  Te163  1  0.25373709  0.41471512  0.25095445  1
  Te2-  Te164  1  0.25387737  0.41607202  0.58537167  1
  Te2-  Te165  1  0.25666684  0.41433840  0.91873375  1
  Te2-  Te166  1  0.24987029  0.74604221  0.25218758  1
  Te2-  Te167  1  0.24958041  0.75000839  0.58615044  1
  Te2-  Te168  1  0.25419693  0.74272267  0.92203006  1
  Te2-  Te169  1  0.59234562  0.07903651  0.25022011  1
  Te2-  Te170  1  0.58254833  0.08157563  0.59119962  1
  Te2-  Te171  1  0.58841653  0.07977814  0.91776704  1
  Te2-  Te172  1  0.58305565  0.41340319  0.25357439  1
  Te2-  Te173  1  0.58170803  0.41656346  0.58992169  1
  Te2-  Te174  1  0.58846092  0.41815185  0.91695264  1
  Te2-  Te175  1  0.58837652  0.75079262  0.25466272  1
  Te2-  Te176  1  0.58932192  0.74588154  0.58813093  1
  Te2-  Te177  1  0.58290189  0.74338935  0.92182396  1
  Te2-  Te178  1  0.91402740  0.08186636  0.25258069  1
  Te2-  Te179  1  0.91948478  0.07919491  0.58737561  1
  Te2-  Te180  1  0.92199406  0.07936805  0.91718789  1
  Te2-  Te181  1  0.92756901  0.41144970  0.25039648  1
  Te2-  Te182  1  0.91952980  0.40924699  0.58652913  1
  Te2-  Te183  1  0.92119041  0.41213133  0.92347299  1
  Te2-  Te184  1  0.91867519  0.75000293  0.25082749  1
  Te2-  Te185  1  0.91764607  0.74701236  0.58436135  1
  Te2-  Te186  1  0.91450697  0.74946488  0.91868432  1
  Te2-  Te187  1  0.08093736  0.25030928  0.24810777  1
  Te2-  Te188  1  0.08181855  0.25237034  0.58453267  1
  Te2-  Te189  1  0.08340462  0.24850256  0.91613316  1
  Te2-  Te190  1  0.08301684  0.58678371  0.25100225  1
  Te2-  Te191  1  0.07799940  0.58440021  0.58319625  1
  Te2-  Te192  1  0.07906673  0.58063713  0.91563398  1
  Te2-  Te193  1  0.07877106  0.91814516  0.25114853  1
  Te2-  Te194  1  0.07495596  0.91934750  0.58714893  1
  Te2-  Te195  1  0.08008812  0.91556525  0.91718554  1
  Te2-  Te196  1  0.41806361  0.25077350  0.25276255  1
  Te2-  Te197  1  0.41363819  0.25645302  0.58589258  1
  Te2-  Te198  1  0.41403889  0.25854173  0.92274841  1
  Te2-  Te199  1  0.41583326  0.58795651  0.25157729  1
  Te2-  Te200  1  0.41119624  0.59191611  0.58246225  1
  Te2-  Te201  1  0.41721325  0.58873075  0.92170923  1
  Te2-  Te202  1  0.41115198  0.92380008  0.25986087  1
  Te2-  Te203  1  0.41947472  0.92143248  0.58769468  1
  Te2-  Te204  1  0.41318922  0.91734044  0.92739202  1
  Te2-  Te205  1  0.74130313  0.25485548  0.25468271  1
  Te2-  Te206  1  0.74786379  0.25419648  0.58090938  1
  Te2-  Te207  1  0.75326656  0.25392476  0.92137212  1
  Te2-  Te208  1  0.75129529  0.58485221  0.25544043  1
  Te2-  Te209  1  0.74909109  0.58321485  0.58657555  1
  Te2-  Te210  1  0.74942311  0.58405543  0.92417650  1
  Te2-  Te211  1  0.74788234  0.92046859  0.24865847  1
  Te2-  Te212  1  0.74274501  0.91720682  0.58849138  1
  Te2-  Te213  1  0.74084673  0.92103477  0.91683784  1
  Te2-  Te214  1  0.08286572  0.07877419  0.07764914  1
  Te2-  Te215  1  0.08003971  0.07979161  0.40944820  1
  Te2-  Te216  1  0.08182524  0.07859199  0.74605619  1
  Te2-  Te217  1  0.08336120  0.41502118  0.07841643  1
  Te2-  Te218  1  0.08461199  0.41181060  0.41074196  1
  Te2-  Te219  1  0.08318615  0.40819714  0.74578682  1
  Te2-  Te220  1  0.08066828  0.74777379  0.07748862  1
  Te2-  Te221  1  0.07968322  0.74986312  0.41519318  1
  Te2-  Te222  1  0.08091574  0.74082789  0.74883008  1
  Te2-  Te223  1  0.41541212  0.08122971  0.07781497  1
  Te2-  Te224  1  0.40799070  0.08277224  0.41659026  1
  Te2-  Te225  1  0.41309742  0.08020614  0.74902164  1
  Te2-  Te226  1  0.41527779  0.41536887  0.08100851  1
  Te2-  Te227  1  0.41442833  0.41662331  0.41368463  1
  Te2-  Te228  1  0.41270220  0.41576271  0.74826424  1
  Te2-  Te229  1  0.41150830  0.75115232  0.08912132  1
  Te2-  Te230  1  0.41420439  0.74900623  0.41772295  1
  Te2-  Te231  1  0.40775932  0.75107962  0.74686453  1
  Te2-  Te232  1  0.74341427  0.08419630  0.07654879  1
  Te2-  Te233  1  0.75026862  0.07707365  0.41004733  1
  Te2-  Te234  1  0.74465364  0.08131563  0.74952854  1
  Te2-  Te235  1  0.74977985  0.41546664  0.08183898  1
  Te2-  Te236  1  0.73950810  0.41224612  0.41477439  1
  Te2-  Te237  1  0.74749557  0.41087217  0.74990805  1
  Te2-  Te238  1  0.74877092  0.74273947  0.07938603  1
  Te2-  Te239  1  0.74976153  0.74463983  0.41133024  1
  Te2-  Te240  1  0.74562918  0.74671336  0.74508916  1
