# generated using pymatgen
data_Ti27(Cu53Te54)2
_symmetry_space_group_name_H-M   'P 1'
_cell_length_a   17.87578490
_cell_length_b   17.87348420
_cell_length_c   17.87600505
_cell_angle_alpha   90.01591141
_cell_angle_beta   89.98682216
_cell_angle_gamma   90.01596513
_symmetry_Int_Tables_number   1
_chemical_formula_structural   Ti27(Cu53Te54)2
_chemical_formula_sum   'Ti27 Cu106 Te108'
_cell_volume   5711.42876246
_cell_formula_units_Z   1
loop_
 _symmetry_equiv_pos_site_id
 _symmetry_equiv_pos_as_xyz
  1  'x, y, z'
loop_
 _atom_type_symbol
 _atom_type_oxidation_number
  Ti4+  4.0
  Cu+  1.0
  Te2-  -2.0
loop_
 _atom_site_type_symbol
 _atom_site_label
 _atom_site_symmetry_multiplicity
 _atom_site_fract_x
 _atom_site_fract_y
 _atom_site_fract_z
 _atom_site_occupancy
  Ti4+  Ti0  1  0.16902409  0.16652637  0.17043773  1
  Ti4+  Ti1  1  0.16607441  0.16663177  0.50058078  1
  Ti4+  Ti2  1  0.16480880  0.16812380  0.83591537  1
  Ti4+  Ti3  1  0.16395034  0.50372780  0.16546646  1
  Ti4+  Ti4  1  0.16621942  0.50200629  0.49936502  1
  Ti4+  Ti5  1  0.16642162  0.50387575  0.83278032  1
  Ti4+  Ti6  1  0.16579243  0.83151677  0.16161009  1
  Ti4+  Ti7  1  0.16792997  0.83369276  0.49857319  1
  Ti4+  Ti8  1  0.16801994  0.83518301  0.83304761  1
  Ti4+  Ti9  1  0.50108603  0.16647571  0.16777518  1
  Ti4+  Ti10  1  0.49867072  0.16603348  0.50090804  1
  Ti4+  Ti11  1  0.49708025  0.16834880  0.83541589  1
  Ti4+  Ti12  1  0.49803860  0.49964735  0.16942176  1
  Ti4+  Ti13  1  0.50155705  0.49744595  0.50234611  1
  Ti4+  Ti14  1  0.50056141  0.50006755  0.83755001  1
  Ti4+  Ti15  1  0.50247415  0.83338192  0.16601855  1
  Ti4+  Ti16  1  0.49993224  0.83069276  0.49919246  1
  Ti4+  Ti17  1  0.50113537  0.83387697  0.83038714  1
  Ti4+  Ti18  1  0.83501946  0.16642372  0.16469004  1
  Ti4+  Ti19  1  0.83095928  0.16523315  0.49916277  1
  Ti4+  Ti20  1  0.83320104  0.16682169  0.83078441  1
  Ti4+  Ti21  1  0.83244601  0.49741428  0.16767797  1
  Ti4+  Ti22  1  0.83653426  0.49757930  0.50131237  1
  Ti4+  Ti23  1  0.83267637  0.49926601  0.83147397  1
  Ti4+  Ti24  1  0.83524811  0.83295556  0.16623895  1
  Ti4+  Ti25  1  0.83313658  0.83173168  0.49925399  1
  Ti4+  Ti26  1  0.83192890  0.83479853  0.83445654  1
  Cu+  Cu27  1  0.16523679  0.16821236  0.00388232  1
  Cu+  Cu28  1  0.17138690  0.16234544  0.33876668  1
  Cu+  Cu29  1  0.16456231  0.16730738  0.66984666  1
  Cu+  Cu30  1  0.16741893  0.51073243  -0.00190958  1
  Cu+  Cu31  1  0.16111497  0.50085949  0.33340562  1
  Cu+  Cu32  1  0.16742055  0.50141540  0.66555438  1
  Cu+  Cu33  1  0.16270105  0.82882636  -0.00514767  1
  Cu+  Cu34  1  0.16943348  0.83390647  0.32783237  1
  Cu+  Cu35  1  0.17064987  0.83263385  0.66659610  1
  Cu+  Cu36  1  0.49592259  0.17064438  0.00195331  1
  Cu+  Cu37  1  0.50164980  0.16538343  0.33241656  1
  Cu+  Cu38  1  0.49855080  0.16610351  0.66750718  1
  Cu+  Cu39  1  0.50017840  0.49839587  0.00704629  1
  Cu+  Cu40  1  0.49798868  0.50049581  0.33776186  1
  Cu+  Cu41  1  0.50148687  0.49904524  0.67106438  1
  Cu+  Cu42  1  0.50214678  0.83548288  -0.00500145  1
  Cu+  Cu43  1  0.50060542  0.83176811  0.33392479  1
  Cu+  Cu44  1  0.49966529  0.83190317  0.66205701  1
  Cu+  Cu45  1  0.83577432  0.16943050  -0.00392728  1
  Cu+  Cu46  1  0.83247981  0.16461599  0.33212079  1
  Cu+  Cu47  1  0.83415731  0.16751178  0.66171428  1
  Cu+  Cu48  1  0.82861806  0.49756110  -0.00208244  1
  Cu+  Cu49  1  0.83462742  0.49775360  0.33321494  1
  Cu+  Cu50  1  0.83796550  0.49598223  0.66498168  1
  Cu+  Cu51  1  0.83502670  0.84131333  0.00260645  1
  Cu+  Cu52  1  0.83187215  0.82918639  0.33285562  1
  Cu+  Cu53  1  0.83127740  0.83250137  0.66719319  1
  Cu+  Cu54  1  0.17432694  -0.00407661  0.16822426  1
  Cu+  Cu55  1  0.16831317  0.00177405  0.49757855  1
  Cu+  Cu56  1  0.16622184  0.00386209  0.83303992  1
  Cu+  Cu57  1  0.16288841  0.33468568  0.16919637  1
  Cu+  Cu58  1  0.16683505  0.33495802  0.50133867  1
  Cu+  Cu59  1  0.16570862  0.33553618  0.83519673  1
  Cu+  Cu60  1  0.15797671  0.66857776  0.16246729  1
  Cu+  Cu61  1  0.16487228  0.66509301  0.49535912  1
  Cu+  Cu62  1  0.17116113  0.67109486  0.83451250  1
  Cu+  Cu63  1  0.50220789  0.00153238  0.16748071  1
  Cu+  Cu64  1  0.49880077  -0.00461605  0.50005867  1
  Cu+  Cu65  1  0.50203965  0.00343077  0.83126675  1
  Cu+  Cu66  1  0.49932912  0.33196147  0.16526660  1
  Cu+  Cu67  1  0.50122883  0.33066685  0.50318318  1
  Cu+  Cu68  1  0.49691261  0.33378846  0.83690348  1
  Cu+  Cu69  1  0.49780334  0.66759942  0.16927798  1
  Cu+  Cu70  1  0.49996637  0.66343531  0.49853040  1
  Cu+  Cu71  1  0.50277366  0.66799153  0.83375457  1
  Cu+  Cu72  1  0.83410534  0.00093333  0.16220024  1
  Cu+  Cu73  1  0.83136645  -0.00035287  0.49767295  1
  Cu+  Cu74  1  0.83090382  -0.00389949  0.83171542  1
  Cu+  Cu75  1  0.83543555  0.33152928  0.16588079  1
  Cu+  Cu76  1  0.83270303  0.32993648  0.50548172  1
  Cu+  Cu77  1  0.83530121  0.33513930  0.83204615  1
  Cu+  Cu78  1  0.83026607  0.66632388  0.17039536  1
  Cu+  Cu79  1  0.83778378  0.66583394  0.50205473  1
  Cu+  Cu80  1  0.83211146  0.66754349  0.83300406  1
  Cu+  Cu81  1  0.00270412  0.16730622  0.16663708  1
  Cu+  Cu82  1  -0.00085030  0.16686383  0.50046997  1
  Cu+  Cu83  1  -0.00081576  0.16946512  0.83765818  1
  Cu+  Cu84  1  -0.00018068  0.49753362  0.16646039  1
  Cu+  Cu85  1  0.00127373  0.50831275  0.50116159  1
  Cu+  Cu86  1  -0.00275161  0.49730430  0.82593524  1
  Cu+  Cu87  1  0.00163970  0.82855883  0.16637475  1
  Cu+  Cu88  1  -0.00007802  0.83666861  0.49942797  1
  Cu+  Cu89  1  -0.00211669  0.83607771  0.83921956  1
  Cu+  Cu90  1  0.33780872  0.16752292  0.16706658  1
  Cu+  Cu91  1  0.33308401  0.16578528  0.50062843  1
  Cu+  Cu92  1  0.32998432  0.16797313  0.83676132  1
  Cu+  Cu93  1  0.33309754  0.50576393  0.16665538  1
  Cu+  Cu94  1  0.33523906  0.50090096  0.49897702  1
  Cu+  Cu95  1  0.33207345  0.50471895  0.83784711  1
  Cu+  Cu96  1  0.33192740  0.83456747  0.16399228  1
  Cu+  Cu97  1  0.33512568  0.83018286  0.49889520  1
  Cu+  Cu98  1  0.33564539  0.83388595  0.82591230  1
  Cu+  Cu99  1  0.66894293  0.16525811  0.16744387  1
  Cu+  Cu100  1  0.66505771  0.16458482  0.49791278  1
  Cu+  Cu101  1  0.66109451  0.16318014  0.82856559  1
  Cu+  Cu102  1  0.66269067  0.49606741  0.16695316  1
  Cu+  Cu103  1  0.66897579  0.49379016  0.50305955  1
  Cu+  Cu104  1  0.66799607  0.49675605  0.83771103  1
  Cu+  Cu105  1  0.66980654  0.83260685  0.16628280  1
  Cu+  Cu106  1  0.66430113  0.83015019  0.49929536  1
  Cu+  Cu107  1  0.66780501  0.83718249  0.83045219  1
  Cu+  Cu108  1  0.74093613  0.40336700  0.92630048  1
  Cu+  Cu109  1  0.41420735  0.59944675  0.07416519  1
  Cu+  Cu110  1  0.92656775  0.59853961  0.59658037  1
  Cu+  Cu111  1  0.93061736  0.25523701  0.58816276  1
  Cu+  Cu112  1  0.26375067  0.59972251  0.92561782  1
  Cu+  Cu113  1  0.06791119  0.73760964  0.91541916  1
  Cu+  Cu114  1  0.73689667  0.92963971  0.07809872  1
  Cu+  Cu115  1  0.26531147  0.07310209  0.41319231  1
  Cu+  Cu116  1  0.40637844  0.59332774  0.41068811  1
  Cu+  Cu117  1  0.26437320  0.92148308  0.25696485  1
  Cu+  Cu118  1  0.40493958  0.26128137  0.07449292  1
  Cu+  Cu119  1  0.06357469  0.58958477  0.06967242  1
  Cu+  Cu120  1  0.73847057  0.73899221  0.26160752  1
  Cu+  Cu121  1  0.06973459  0.59506403  0.40601897  1
  Cu+  Cu122  1  0.07512836  0.74633444  0.26185977  1
  Cu+  Cu123  1  0.07470508  0.25860460  0.07726667  1
  Cu+  Cu124  1  0.92434630  0.26477982  0.92548731  1
  Cu+  Cu125  1  0.58661297  0.07500386  0.73557314  1
  Cu+  Cu126  1  0.92950572  0.92948559  0.92963244  1
  Cu+  Cu127  1  0.26403941  0.74183048  0.73510008  1
  Cu+  Cu128  1  0.07416258  0.40256178  0.26438398  1
  Cu+  Cu129  1  0.92941476  0.40446025  0.73813607  1
  Cu+  Cu130  1  0.74073036  0.92292364  0.73439909  1
  Cu+  Cu131  1  0.73690221  0.40191165  0.59234125  1
  Cu+  Cu132  1  0.59217147  0.40280275  0.07878912  1
  Te2-  Te133  1  0.25216513  0.25515731  0.08405610  1
  Te2-  Te134  1  0.25269374  0.25452934  0.41673534  1
  Te2-  Te135  1  0.25002847  0.25317165  0.75052115  1
  Te2-  Te136  1  0.25480064  0.59406916  0.08146109  1
  Te2-  Te137  1  0.25268645  0.58549398  0.41062851  1
  Te2-  Te138  1  0.25388821  0.58760904  0.74500483  1
  Te2-  Te139  1  0.25103392  0.91600022  0.07366559  1
  Te2-  Te140  1  0.25634479  0.91808823  0.41164535  1
  Te2-  Te141  1  0.25158447  0.92296447  0.74743056  1
  Te2-  Te142  1  0.59011308  0.25060734  0.08014509  1
  Te2-  Te143  1  0.58448397  0.25116746  0.41487624  1
  Te2-  Te144  1  0.58158974  0.25527917  0.74862118  1
  Te2-  Te145  1  0.58527405  0.58764432  0.08471236  1
  Te2-  Te146  1  0.59052289  0.58086983  0.41734959  1
  Te2-  Te147  1  0.58758756  0.58285383  0.75189757  1
  Te2-  Te148  1  0.58569915  0.92047551  0.07995676  1
  Te2-  Te149  1  0.58559162  0.91724994  0.41406640  1
  Te2-  Te150  1  0.58628029  0.92096573  0.74130679  1
  Te2-  Te151  1  0.92238048  0.25594209  0.07862545  1
  Te2-  Te152  1  0.91630474  0.25168097  0.41394462  1
  Te2-  Te153  1  0.92210374  0.25227761  0.74404828  1
  Te2-  Te154  1  0.91338755  0.58457448  0.08005348  1
  Te2-  Te155  1  0.91770636  0.58759682  0.40968539  1
  Te2-  Te156  1  0.91851783  0.59017817  0.74723738  1
  Te2-  Te157  1  0.92701588  0.92108174  0.08364483  1
  Te2-  Te158  1  0.91629217  0.91786906  0.41252680  1
  Te2-  Te159  1  0.92034018  0.91719178  0.74689923  1
  Te2-  Te160  1  0.25927520  0.07954186  0.25420836  1
  Te2-  Te161  1  0.25079095  0.08184611  0.58816184  1
  Te2-  Te162  1  0.24964641  0.08289051  0.92189829  1
  Te2-  Te163  1  0.25021995  0.41902353  0.25113494  1
  Te2-  Te164  1  0.25297346  0.41728905  0.58457652  1
  Te2-  Te165  1  0.24920926  0.41785013  0.92035300  1
  Te2-  Te166  1  0.25206176  0.74390988  0.24698041  1
  Te2-  Te167  1  0.25241101  0.74431165  0.58180243  1
  Te2-  Te168  1  0.25999065  0.75183781  0.92060172  1
  Te2-  Te169  1  0.58793470  0.08061791  0.25255419  1
  Te2-  Te170  1  0.58528365  0.07822130  0.58410992  1
  Te2-  Te171  1  0.58287275  0.08389708  0.92287321  1
  Te2-  Te172  1  0.58191649  0.41296926  0.25575378  1
  Te2-  Te173  1  0.58464045  0.41068003  0.59102848  1
  Te2-  Te174  1  0.58550376  0.41050571  0.92364485  1
  Te2-  Te175  1  0.58654049  0.74656566  0.25281610  1
  Te2-  Te176  1  0.58513854  0.74394553  0.58451155  1
  Te2-  Te177  1  0.58856650  0.75049419  0.91610693  1
  Te2-  Te178  1  0.91945045  0.08125117  0.25003623  1
  Te2-  Te179  1  0.91777052  0.07816921  0.58359200  1
  Te2-  Te180  1  0.91749663  0.07946631  0.91710399  1
  Te2-  Te181  1  0.91942395  0.41131885  0.25315856  1
  Te2-  Te182  1  0.92902646  0.41065335  0.58496188  1
  Te2-  Te183  1  0.92224784  0.41664121  0.92159234  1
  Te2-  Te184  1  0.92029326  0.74443810  0.25406179  1
  Te2-  Te185  1  0.92185354  0.75081153  0.58813008  1
  Te2-  Te186  1  0.91448166  0.74559177  0.92266853  1
  Te2-  Te187  1  0.08197677  0.24936687  0.25951477  1
  Te2-  Te188  1  0.08221092  0.25408173  0.58768126  1
  Te2-  Te189  1  0.07911433  0.25833209  0.92321125  1
  Te2-  Te190  1  0.07468235  0.58994957  0.25352752  1
  Te2-  Te191  1  0.08281940  0.59044141  0.58995558  1
  Te2-  Te192  1  0.07149805  0.58701998  0.91539940  1
  Te2-  Te193  1  0.08046739  0.91891280  0.24908188  1
  Te2-  Te194  1  0.08545558  0.91844112  0.58443537  1
  Te2-  Te195  1  0.08300842  0.92467355  0.92056118  1
  Te2-  Te196  1  0.41632271  0.25281790  0.25478808  1
  Te2-  Te197  1  0.41301822  0.25078871  0.58702953  1
  Te2-  Te198  1  0.40889379  0.25577740  0.92079726  1
  Te2-  Te199  1  0.41254812  0.58775827  0.25652550  1
  Te2-  Te200  1  0.41621680  0.58338033  0.58840809  1
  Te2-  Te201  1  0.41678948  0.59034842  0.92292492  1
  Te2-  Te202  1  0.41677962  0.91866445  0.25181235  1
  Te2-  Te203  1  0.41264899  0.91675559  0.58441047  1
  Te2-  Te204  1  0.41530149  0.91993814  0.91366969  1
  Te2-  Te205  1  0.74992344  0.25163974  0.25084236  1
  Te2-  Te206  1  0.74064410  0.24923562  0.58758232  1
  Te2-  Te207  1  0.74397371  0.25071641  0.91466919  1
  Te2-  Te208  1  0.74456697  0.58067271  0.25388000  1
  Te2-  Te209  1  0.75028162  0.58350450  0.58616578  1
  Te2-  Te210  1  0.74824169  0.58693925  0.91778972  1
  Te2-  Te211  1  0.75057112  0.92021338  0.25188192  1
  Te2-  Te212  1  0.74586324  0.91830353  0.58252859  1
  Te2-  Te213  1  0.74339333  0.92173481  0.92146396  1
  Te2-  Te214  1  0.08576286  0.07784639  0.08620273  1
  Te2-  Te215  1  0.07803204  0.08112469  0.41519857  1
  Te2-  Te216  1  0.07845163  0.08355308  0.75036499  1
  Te2-  Te217  1  0.08196136  0.41662676  0.07543456  1
  Te2-  Te218  1  0.07748106  0.41291205  0.41730919  1
  Te2-  Te219  1  0.08443467  0.41356181  0.74496933  1
  Te2-  Te220  1  0.07353035  0.74500590  0.07240681  1
  Te2-  Te221  1  0.07842862  0.74961260  0.41230602  1
  Te2-  Te222  1  0.07893312  0.75033576  0.75004350  1
  Te2-  Te223  1  0.41556334  0.07924218  0.08188400  1
  Te2-  Te224  1  0.41640047  0.07865118  0.41319616  1
  Te2-  Te225  1  0.41043040  0.08317327  0.74980292  1
  Te2-  Te226  1  0.40819228  0.41404304  0.08253150  1
  Te2-  Te227  1  0.41553374  0.41063958  0.41743268  1
  Te2-  Te228  1  0.41258127  0.41773295  0.75275268  1
  Te2-  Te229  1  0.41515026  0.75161531  0.07857615  1
  Te2-  Te230  1  0.41306017  0.74541874  0.41101965  1
  Te2-  Te231  1  0.41767780  0.74461870  0.74413463  1
  Te2-  Te232  1  0.74787539  0.08406479  0.07636465  1
  Te2-  Te233  1  0.74617112  0.08002552  0.41265728  1
  Te2-  Te234  1  0.74750372  0.07992796  0.74304200  1
  Te2-  Te235  1  0.74648842  0.40908493  0.08122102  1
  Te2-  Te236  1  0.75144012  0.41151476  0.41505522  1
  Te2-  Te237  1  0.74553680  0.41220535  0.74547822  1
  Te2-  Te238  1  0.75089494  0.74763694  0.07816926  1
  Te2-  Te239  1  0.74698938  0.74246536  0.41616324  1
  Te2-  Te240  1  0.74688819  0.74704679  0.74840607  1
