# generated using pymatgen
data_Ti27(Cu53Te54)2
_symmetry_space_group_name_H-M   'P 1'
_cell_length_a   17.86719676
_cell_length_b   17.87084140
_cell_length_c   17.87025341
_cell_angle_alpha   90.05016405
_cell_angle_beta   89.99640620
_cell_angle_gamma   89.97441642
_symmetry_Int_Tables_number   1
_chemical_formula_structural   Ti27(Cu53Te54)2
_chemical_formula_sum   'Ti27 Cu106 Te108'
_cell_volume   5706.00202008
_cell_formula_units_Z   1
loop_
 _symmetry_equiv_pos_site_id
 _symmetry_equiv_pos_as_xyz
  1  'x, y, z'
loop_
 _atom_type_symbol
 _atom_type_oxidation_number
  Ti4+  4.0
  Cu+  1.0
  Te2-  -2.0
loop_
 _atom_site_type_symbol
 _atom_site_label
 _atom_site_symmetry_multiplicity
 _atom_site_fract_x
 _atom_site_fract_y
 _atom_site_fract_z
 _atom_site_occupancy
  Ti4+  Ti0  1  0.16665348  0.16554781  0.16748444  1
  Ti4+  Ti1  1  0.16743321  0.16651073  0.49946438  1
  Ti4+  Ti2  1  0.16759203  0.16445576  0.83371769  1
  Ti4+  Ti3  1  0.16646502  0.50020908  0.16995633  1
  Ti4+  Ti4  1  0.16427945  0.49958431  0.50237536  1
  Ti4+  Ti5  1  0.16531590  0.49667062  0.83423364  1
  Ti4+  Ti6  1  0.16591256  0.83141974  0.16663603  1
  Ti4+  Ti7  1  0.16624451  0.83630857  0.49867191  1
  Ti4+  Ti8  1  0.16850283  0.83367076  0.82720939  1
  Ti4+  Ti9  1  0.49905890  0.16539379  0.16678256  1
  Ti4+  Ti10  1  0.50240013  0.16713084  0.49936402  1
  Ti4+  Ti11  1  0.50000036  0.16812906  0.83313662  1
  Ti4+  Ti12  1  0.49873807  0.50158430  0.16590927  1
  Ti4+  Ti13  1  0.49995232  0.50161972  0.50066231  1
  Ti4+  Ti14  1  0.50094516  0.49896796  0.83642900  1
  Ti4+  Ti15  1  0.50021392  0.82932805  0.16654876  1
  Ti4+  Ti16  1  0.50098128  0.83402735  0.49941399  1
  Ti4+  Ti17  1  0.50114838  0.83442693  0.83427012  1
  Ti4+  Ti18  1  0.83093654  0.16779307  0.16690586  1
  Ti4+  Ti19  1  0.83375694  0.17032456  0.50016971  1
  Ti4+  Ti20  1  0.83195357  0.16518006  0.83503530  1
  Ti4+  Ti21  1  0.83443963  0.50236096  0.16541636  1
  Ti4+  Ti22  1  0.83522060  0.49852970  0.49896296  1
  Ti4+  Ti23  1  0.83252576  0.50106803  0.83376991  1
  Ti4+  Ti24  1  0.83297983  0.83257502  0.16665108  1
  Ti4+  Ti25  1  0.83219288  0.83327994  0.49892644  1
  Ti4+  Ti26  1  0.83362408  0.83393345  0.83053168  1
  Cu+  Cu27  1  0.16608382  0.16481600  -0.00033623  1
  Cu+  Cu28  1  0.16997998  0.16864016  0.33156486  1
  Cu+  Cu29  1  0.17027030  0.16486217  0.66826685  1
  Cu+  Cu30  1  0.16466748  0.49980635  0.00443276  1
  Cu+  Cu31  1  0.16816745  0.50130421  0.33649923  1
  Cu+  Cu32  1  0.15998700  0.49640819  0.66835611  1
  Cu+  Cu33  1  0.17085198  0.82900122  -0.00122708  1
  Cu+  Cu34  1  0.16438263  0.83652150  0.33430988  1
  Cu+  Cu35  1  0.16405306  0.83925356  0.66220736  1
  Cu+  Cu36  1  0.49724197  0.16324996  0.00055421  1
  Cu+  Cu37  1  0.50048079  0.16607118  0.33383092  1
  Cu+  Cu38  1  0.50443089  0.16945859  0.66400721  1
  Cu+  Cu39  1  0.49804227  0.49765687  0.00012785  1
  Cu+  Cu40  1  0.50071601  0.50087692  0.33429195  1
  Cu+  Cu41  1  0.50199739  0.50234506  0.66810232  1
  Cu+  Cu42  1  0.49867027  0.82893670  -0.00080519  1
  Cu+  Cu43  1  0.50185494  0.83146399  0.33157687  1
  Cu+  Cu44  1  0.49960698  0.83687722  0.66970813  1
  Cu+  Cu45  1  0.83547421  0.16249759  0.00414144  1
  Cu+  Cu46  1  0.82985195  0.17385655  0.33323996  1
  Cu+  Cu47  1  0.82712282  0.16781774  0.66820759  1
  Cu+  Cu48  1  0.82784796  0.50094698  -0.00143843  1
  Cu+  Cu49  1  0.84190098  0.50006859  0.33352107  1
  Cu+  Cu50  1  0.83553667  0.49986674  0.66597260  1
  Cu+  Cu51  1  0.83549448  0.83485172  -0.00366010  1
  Cu+  Cu52  1  0.83044891  0.83207071  0.33162116  1
  Cu+  Cu53  1  0.82967650  0.83016703  0.66299740  1
  Cu+  Cu54  1  0.16761558  -0.00213225  0.16669714  1
  Cu+  Cu55  1  0.16848760  -0.00014457  0.49608298  1
  Cu+  Cu56  1  0.16582659  -0.00081081  0.82795549  1
  Cu+  Cu57  1  0.16981905  0.33151186  0.17136715  1
  Cu+  Cu58  1  0.16367504  0.33377638  0.50308102  1
  Cu+  Cu59  1  0.16901418  0.32846088  0.83449437  1
  Cu+  Cu60  1  0.16366122  0.66549669  0.16581215  1
  Cu+  Cu61  1  0.16396133  0.66965609  0.50348137  1
  Cu+  Cu62  1  0.16627457  0.66160028  0.82879906  1
  Cu+  Cu63  1  0.50325134  -0.00422486  0.16597319  1
  Cu+  Cu64  1  0.50485621  0.00215165  0.49753325  1
  Cu+  Cu65  1  0.49657102  0.00377592  0.83497267  1
  Cu+  Cu66  1  0.50031811  0.33383667  0.16545205  1
  Cu+  Cu67  1  0.50072186  0.33633920  0.50050397  1
  Cu+  Cu68  1  0.49941409  0.33550647  0.83721848  1
  Cu+  Cu69  1  0.49562055  0.66705847  0.16819793  1
  Cu+  Cu70  1  0.49904097  0.66506661  0.50025732  1
  Cu+  Cu71  1  0.50223895  0.66639833  0.83748974  1
  Cu+  Cu72  1  0.83515182  0.00450007  0.16324973  1
  Cu+  Cu73  1  0.83429714  0.00320932  0.50262497  1
  Cu+  Cu74  1  0.83767444  -0.00457522  0.83594426  1
  Cu+  Cu75  1  0.83301661  0.33313692  0.16700226  1
  Cu+  Cu76  1  0.83527456  0.33434012  0.49127706  1
  Cu+  Cu77  1  0.82850905  0.33314944  0.83543599  1
  Cu+  Cu78  1  0.83203682  0.66497025  0.16761092  1
  Cu+  Cu79  1  0.83159463  0.66691499  0.50137289  1
  Cu+  Cu80  1  0.83556419  0.67016101  0.83102894  1
  Cu+  Cu81  1  -0.00117880  0.16498174  0.16646568  1
  Cu+  Cu82  1  0.00070641  0.16676763  0.50096278  1
  Cu+  Cu83  1  0.00029124  0.16541540  0.83410138  1
  Cu+  Cu84  1  0.00215189  0.50695244  0.16749737  1
  Cu+  Cu85  1  -0.00072510  0.49175242  0.50037754  1
  Cu+  Cu86  1  -0.00132275  0.50075967  0.83171113  1
  Cu+  Cu87  1  0.00063369  0.83039900  0.16546221  1
  Cu+  Cu88  1  0.00084629  0.83627659  0.49670006  1
  Cu+  Cu89  1  -0.00039340  0.83850194  0.82758283  1
  Cu+  Cu90  1  0.33137859  0.16811212  0.16856193  1
  Cu+  Cu91  1  0.33731982  0.16676108  0.49822553  1
  Cu+  Cu92  1  0.33354735  0.16193662  0.83650754  1
  Cu+  Cu93  1  0.33199268  0.49963671  0.16778971  1
  Cu+  Cu94  1  0.33306418  0.50129096  0.50169624  1
  Cu+  Cu95  1  0.33247747  0.49491557  0.83684634  1
  Cu+  Cu96  1  0.33244777  0.82790602  0.16868289  1
  Cu+  Cu97  1  0.33125779  0.83650796  0.50200682  1
  Cu+  Cu98  1  0.33916441  0.83396525  0.83082846  1
  Cu+  Cu99  1  0.66485570  0.16660819  0.16731443  1
  Cu+  Cu100  1  0.66956366  0.16930524  0.50039054  1
  Cu+  Cu101  1  0.66732318  0.17081535  0.82918324  1
  Cu+  Cu102  1  0.66504141  0.50510162  0.16222604  1
  Cu+  Cu103  1  0.66482688  0.50085125  0.49872112  1
  Cu+  Cu104  1  0.66826435  0.49808824  0.83914352  1
  Cu+  Cu105  1  0.66695649  0.83206164  0.17136461  1
  Cu+  Cu106  1  0.66686604  0.82934616  0.50104824  1
  Cu+  Cu107  1  0.66591717  0.83471926  0.83077601  1
  Cu+  Cu108  1  0.73944488  0.26503556  0.73865293  1
  Cu+  Cu109  1  0.07131343  0.59020765  0.73957288  1
  Cu+  Cu110  1  0.73481297  0.73477670  0.59438527  1
  Cu+  Cu111  1  0.40183576  0.74040735  0.26534583  1
  Cu+  Cu112  1  0.06888752  0.93181878  0.73715063  1
  Cu+  Cu113  1  0.74022255  0.73552822  0.26002008  1
  Cu+  Cu114  1  0.40437355  0.07225016  0.93175822  1
  Cu+  Cu115  1  0.26033811  0.93109542  0.58909499  1
  Cu+  Cu116  1  0.40626449  0.73673002  0.92369583  1
  Cu+  Cu117  1  0.59365611  0.92752805  0.26005666  1
  Cu+  Cu118  1  0.41426106  0.93284480  0.73911392  1
  Cu+  Cu119  1  0.93173543  0.40308896  0.40065848  1
  Cu+  Cu120  1  0.73525172  0.26259854  0.40331092  1
  Cu+  Cu121  1  0.07492428  0.59470064  0.07184226  1
  Cu+  Cu122  1  0.93055188  0.07585214  0.07562186  1
  Cu+  Cu123  1  0.26357876  0.26088126  0.26310579  1
  Cu+  Cu124  1  0.07070446  0.92950060  0.40197698  1
  Cu+  Cu125  1  0.92962457  0.59616217  0.26381231  1
  Cu+  Cu126  1  0.73540785  0.59625040  0.06977814  1
  Cu+  Cu127  1  0.93224997  0.92037502  0.92728788  1
  Cu+  Cu128  1  0.74113295  0.40160676  0.93060709  1
  Cu+  Cu129  1  0.07165298  0.39988768  0.59856061  1
  Cu+  Cu130  1  0.74148873  0.07303174  0.59431629  1
  Cu+  Cu131  1  0.40189594  0.40374512  0.92895084  1
  Cu+  Cu132  1  0.07211574  0.74412741  0.58964512  1
  Te2-  Te133  1  0.25097867  0.25119027  0.07985513  1
  Te2-  Te134  1  0.25345951  0.25511473  0.41736158  1
  Te2-  Te135  1  0.25548453  0.24917673  0.74945872  1
  Te2-  Te136  1  0.25241290  0.58529799  0.08298880  1
  Te2-  Te137  1  0.24955791  0.58750713  0.41974714  1
  Te2-  Te138  1  0.25306885  0.57806858  0.74695110  1
  Te2-  Te139  1  0.25300274  0.91497582  0.08248027  1
  Te2-  Te140  1  0.25535588  0.91990456  0.41087411  1
  Te2-  Te141  1  0.25816766  0.92155882  0.74387549  1
  Te2-  Te142  1  0.58316750  0.24987180  0.08056368  1
  Te2-  Te143  1  0.58513922  0.25528791  0.41288270  1
  Te2-  Te144  1  0.58405260  0.25770440  0.74700647  1
  Te2-  Te145  1  0.58158571  0.58993842  0.07756677  1
  Te2-  Te146  1  0.58577758  0.58726451  0.41386006  1
  Te2-  Te147  1  0.58720747  0.58461034  0.75294177  1
  Te2-  Te148  1  0.58653299  0.91313287  0.07933930  1
  Te2-  Te149  1  0.58895662  0.91734447  0.41404874  1
  Te2-  Te150  1  0.58523968  0.92361728  0.74940655  1
  Te2-  Te151  1  0.91867766  0.25343117  0.08167684  1
  Te2-  Te152  1  0.92523125  0.25120082  0.41089401  1
  Te2-  Te153  1  0.91621442  0.25142115  0.75019128  1
  Te2-  Te154  1  0.91891859  0.58778033  0.07597850  1
  Te2-  Te155  1  0.92289786  0.58904071  0.41823784  1
  Te2-  Te156  1  0.91794726  0.58756121  0.74558652  1
  Te2-  Te157  1  0.92210847  0.91909383  0.08083809  1
  Te2-  Te158  1  0.91569463  0.92136753  0.41254722  1
  Te2-  Te159  1  0.91605484  0.92077226  0.73847496  1
  Te2-  Te160  1  0.25274042  0.07831934  0.25230020  1
  Te2-  Te161  1  0.25514711  0.08218506  0.58423459  1
  Te2-  Te162  1  0.25043857  0.07537027  0.92082359  1
  Te2-  Te163  1  0.25451039  0.41559503  0.25691775  1
  Te2-  Te164  1  0.25101186  0.41537442  0.58707368  1
  Te2-  Te165  1  0.24840705  0.41151202  0.92394997  1
  Te2-  Te166  1  0.24786786  0.74478223  0.25598183  1
  Te2-  Te167  1  0.25197814  0.74922015  0.58713780  1
  Te2-  Te168  1  0.25230281  0.74584742  0.91264317  1
  Te2-  Te169  1  0.58632109  0.08047022  0.25361027  1
  Te2-  Te170  1  0.58908278  0.08096651  0.58641099  1
  Te2-  Te171  1  0.58737025  0.08294914  0.91661380  1
  Te2-  Te172  1  0.58553833  0.41785674  0.24900119  1
  Te2-  Te173  1  0.58628555  0.41625132  0.58634409  1
  Te2-  Te174  1  0.58780199  0.41167259  0.92406988  1
  Te2-  Te175  1  0.58719148  0.74095262  0.25419804  1
  Te2-  Te176  1  0.58207782  0.74750690  0.58851737  1
  Te2-  Te177  1  0.58935497  0.74922238  0.91877369  1
  Te2-  Te178  1  0.91554458  0.08400307  0.25583924  1
  Te2-  Te179  1  0.91855060  0.08547674  0.58839802  1
  Te2-  Te180  1  0.92277396  0.07837303  0.92048564  1
  Te2-  Te181  1  0.92292669  0.41290939  0.24765291  1
  Te2-  Te182  1  0.91694841  0.40899830  0.58859514  1
  Te2-  Te183  1  0.91777534  0.41526816  0.91881968  1
  Te2-  Te184  1  0.92088465  0.74766812  0.25304480  1
  Te2-  Te185  1  0.92031276  0.74806240  0.58404870  1
  Te2-  Te186  1  0.92254165  0.74950867  0.91535611  1
  Te2-  Te187  1  0.07861050  0.25053950  0.25191894  1
  Te2-  Te188  1  0.08116006  0.24882998  0.58927165  1
  Te2-  Te189  1  0.08114693  0.25018242  0.91894089  1
  Te2-  Te190  1  0.08232716  0.58899655  0.25941457  1
  Te2-  Te191  1  0.07409200  0.58734388  0.58662215  1
  Te2-  Te192  1  0.07963896  0.58560674  0.91961750  1
  Te2-  Te193  1  0.07785932  0.91981199  0.24997595  1
  Te2-  Te194  1  0.07639286  0.92675515  0.58391030  1
  Te2-  Te195  1  0.08593990  0.91698178  0.91895785  1
  Te2-  Te196  1  0.41613072  0.25394074  0.25384815  1
  Te2-  Te197  1  0.41636625  0.25267688  0.58414925  1
  Te2-  Te198  1  0.41227377  0.25197068  0.92109000  1
  Te2-  Te199  1  0.41154206  0.58513004  0.25496941  1
  Te2-  Te200  1  0.41399785  0.58605136  0.58776396  1
  Te2-  Te201  1  0.41176147  0.58510034  0.92092433  1
  Te2-  Te202  1  0.41415441  0.91644200  0.25117463  1
  Te2-  Te203  1  0.41614913  0.92428560  0.58491714  1
  Te2-  Te204  1  0.41299910  0.92018749  0.92357569  1
  Te2-  Te205  1  0.74257545  0.25700511  0.25029598  1
  Te2-  Te206  1  0.74764357  0.26073271  0.58502263  1
  Te2-  Te207  1  0.74712084  0.24824013  0.92547107  1
  Te2-  Te208  1  0.74634548  0.58275168  0.25694631  1
  Te2-  Te209  1  0.74721826  0.58290538  0.58603629  1
  Te2-  Te210  1  0.74730022  0.59295162  0.91701042  1
  Te2-  Te211  1  0.75037064  0.92410538  0.25104074  1
  Te2-  Te212  1  0.74552114  0.91972900  0.58469569  1
  Te2-  Te213  1  0.74602855  0.91775085  0.91732583  1
  Te2-  Te214  1  0.08214795  0.07766871  0.08031294  1
  Te2-  Te215  1  0.08103501  0.08270316  0.41180429  1
  Te2-  Te216  1  0.07863173  0.08242906  0.74453208  1
  Te2-  Te217  1  0.08114692  0.41252063  0.08668803  1
  Te2-  Te218  1  0.08317869  0.41163588  0.41057718  1
  Te2-  Te219  1  0.07761331  0.40680801  0.75169437  1
  Te2-  Te220  1  0.07974278  0.74732786  0.07705029  1
  Te2-  Te221  1  0.08060326  0.74731758  0.41293367  1
  Te2-  Te222  1  0.07876497  0.74613896  0.74407316  1
  Te2-  Te223  1  0.41161180  0.07712139  0.08476917  1
  Te2-  Te224  1  0.41661398  0.08052059  0.41395791  1
  Te2-  Te225  1  0.41456094  0.08498355  0.74208488  1
  Te2-  Te226  1  0.41134025  0.41289160  0.08236083  1
  Te2-  Te227  1  0.41397611  0.41623954  0.41518626  1
  Te2-  Te228  1  0.41631472  0.41521458  0.74805750  1
  Te2-  Te229  1  0.41075046  0.74450705  0.07881275  1
  Te2-  Te230  1  0.41242443  0.74878477  0.41705426  1
  Te2-  Te231  1  0.41830578  0.74455282  0.74751716  1
  Te2-  Te232  1  0.74359129  0.08130393  0.08150990  1
  Te2-  Te233  1  0.74993749  0.08273679  0.41371178  1
  Te2-  Te234  1  0.74715417  0.07553105  0.75078965  1
  Te2-  Te235  1  0.74609579  0.41289340  0.08315916  1
  Te2-  Te236  1  0.74597587  0.41799011  0.40969149  1
  Te2-  Te237  1  0.74575235  0.41721567  0.74513557  1
  Te2-  Te238  1  0.74797438  0.74929541  0.07801097  1
  Te2-  Te239  1  0.74627420  0.74493960  0.41329580  1
  Te2-  Te240  1  0.74480676  0.74617796  0.74691435  1
