# generated using pymatgen
data_Ti27(Cu53Te54)2
_symmetry_space_group_name_H-M   'P 1'
_cell_length_a   17.88433545
_cell_length_b   17.88383095
_cell_length_c   17.88232340
_cell_angle_alpha   89.95805313
_cell_angle_beta   90.05546899
_cell_angle_gamma   89.99684695
_symmetry_Int_Tables_number   1
_chemical_formula_structural   Ti27(Cu53Te54)2
_chemical_formula_sum   'Ti27 Cu106 Te108'
_cell_volume   5719.48581701
_cell_formula_units_Z   1
loop_
 _symmetry_equiv_pos_site_id
 _symmetry_equiv_pos_as_xyz
  1  'x, y, z'
loop_
 _atom_type_symbol
 _atom_type_oxidation_number
  Ti4+  4.0
  Cu+  1.0
  Te2-  -2.0
loop_
 _atom_site_type_symbol
 _atom_site_label
 _atom_site_symmetry_multiplicity
 _atom_site_fract_x
 _atom_site_fract_y
 _atom_site_fract_z
 _atom_site_occupancy
  Ti4+  Ti0  1  0.16303811  0.16283702  0.16490854  1
  Ti4+  Ti1  1  0.16607550  0.16885886  0.50100435  1
  Ti4+  Ti2  1  0.16541712  0.16876737  0.83450077  1
  Ti4+  Ti3  1  0.16642787  0.50065619  0.17031003  1
  Ti4+  Ti4  1  0.16747376  0.50131243  0.49740915  1
  Ti4+  Ti5  1  0.16513562  0.49924317  0.83219786  1
  Ti4+  Ti6  1  0.16797831  0.83640550  0.16527415  1
  Ti4+  Ti7  1  0.16728033  0.83749816  0.50086943  1
  Ti4+  Ti8  1  0.16545359  0.83216655  0.83188725  1
  Ti4+  Ti9  1  0.49704445  0.16663813  0.16895873  1
  Ti4+  Ti10  1  0.49956758  0.16503544  0.49985585  1
  Ti4+  Ti11  1  0.50028717  0.16885679  0.83545815  1
  Ti4+  Ti12  1  0.49974154  0.50030608  0.16810561  1
  Ti4+  Ti13  1  0.49872296  0.49958589  0.49829762  1
  Ti4+  Ti14  1  0.49885989  0.50012900  0.83258447  1
  Ti4+  Ti15  1  0.49924966  0.83338231  0.17085648  1
  Ti4+  Ti16  1  0.50220811  0.83417716  0.50173709  1
  Ti4+  Ti17  1  0.50275594  0.83457187  0.83446536  1
  Ti4+  Ti18  1  0.82996304  0.16618268  0.16693596  1
  Ti4+  Ti19  1  0.83438972  0.16672450  0.49855876  1
  Ti4+  Ti20  1  0.83241130  0.16645830  0.83334326  1
  Ti4+  Ti21  1  0.83817443  0.49999620  0.16550022  1
  Ti4+  Ti22  1  0.83408650  0.49802693  0.49829986  1
  Ti4+  Ti23  1  0.83388076  0.49941861  0.83432937  1
  Ti4+  Ti24  1  0.83212677  0.83013088  0.16759989  1
  Ti4+  Ti25  1  0.83703535  0.83538174  0.50247106  1
  Ti4+  Ti26  1  0.83307225  0.82917637  0.82966057  1
  Cu+  Cu27  1  0.15965993  0.15900044  -0.00312116  1
  Cu+  Cu28  1  0.16853875  0.16456057  0.33479748  1
  Cu+  Cu29  1  0.16537842  0.17208784  0.66707147  1
  Cu+  Cu30  1  0.16312131  0.49633225  0.00347099  1
  Cu+  Cu31  1  0.17040413  0.50540470  0.33242643  1
  Cu+  Cu32  1  0.16706212  0.49855166  0.66627894  1
  Cu+  Cu33  1  0.16586264  0.83332621  -0.00397803  1
  Cu+  Cu34  1  0.16600808  0.83798002  0.33342200  1
  Cu+  Cu35  1  0.16408424  0.83365727  0.66535295  1
  Cu+  Cu36  1  0.49916131  0.16978900  -0.00009417  1
  Cu+  Cu37  1  0.49999903  0.16238267  0.33678502  1
  Cu+  Cu38  1  0.49881794  0.16713702  0.66785696  1
  Cu+  Cu39  1  0.49883682  0.50181361  -0.00131801  1
  Cu+  Cu40  1  0.49867019  0.49690898  0.33344548  1
  Cu+  Cu41  1  0.49854658  0.49966100  0.66234315  1
  Cu+  Cu42  1  0.50110323  0.83421409  0.00549254  1
  Cu+  Cu43  1  0.50065525  0.83377865  0.33598183  1
  Cu+  Cu44  1  0.50514456  0.83484942  0.66822702  1
  Cu+  Cu45  1  0.83127834  0.16592336  0.00168631  1
  Cu+  Cu46  1  0.83089790  0.16708751  0.33224665  1
  Cu+  Cu47  1  0.83147314  0.16785257  0.66473495  1
  Cu+  Cu48  1  0.83803340  0.50785686  -0.00335884  1
  Cu+  Cu49  1  0.83831865  0.49505505  0.33241210  1
  Cu+  Cu50  1  0.83534260  0.49741137  0.66851421  1
  Cu+  Cu51  1  0.83111098  0.82349671  0.00139670  1
  Cu+  Cu52  1  0.83725629  0.83902891  0.33240244  1
  Cu+  Cu53  1  0.83422498  0.83353697  0.66521436  1
  Cu+  Cu54  1  0.16785250  0.00262120  0.15809647  1
  Cu+  Cu55  1  0.16978674  0.00601953  0.49827024  1
  Cu+  Cu56  1  0.16330303  -0.00119306  0.83395318  1
  Cu+  Cu57  1  0.16685203  0.32637556  0.16842055  1
  Cu+  Cu58  1  0.16468059  0.33456601  0.49869328  1
  Cu+  Cu59  1  0.16480337  0.33776189  0.83395547  1
  Cu+  Cu60  1  0.16975418  0.66705674  0.16965712  1
  Cu+  Cu61  1  0.16648799  0.67001136  0.49829136  1
  Cu+  Cu62  1  0.16647604  0.66538683  0.83278221  1
  Cu+  Cu63  1  0.49452507  -0.00283605  0.16934036  1
  Cu+  Cu64  1  0.50469729  -0.00001907  0.49969077  1
  Cu+  Cu65  1  0.50204823  0.00505577  0.83815750  1
  Cu+  Cu66  1  0.49493169  0.33538646  0.17053616  1
  Cu+  Cu67  1  0.49807866  0.33069146  0.49921937  1
  Cu+  Cu68  1  0.49987692  0.33322440  0.83331640  1
  Cu+  Cu69  1  0.50199060  0.66807455  0.16806579  1
  Cu+  Cu70  1  0.49995976  0.66428775  0.49814231  1
  Cu+  Cu71  1  0.49962355  0.66453039  0.83192441  1
  Cu+  Cu72  1  0.82989265  -0.00239614  0.16830403  1
  Cu+  Cu73  1  0.83965591  0.00022193  0.50260307  1
  Cu+  Cu74  1  0.82859160  -0.00177040  0.83161577  1
  Cu+  Cu75  1  0.82777348  0.33394261  0.16663455  1
  Cu+  Cu76  1  0.83537701  0.33236772  0.49496212  1
  Cu+  Cu77  1  0.83501049  0.33226437  0.83205360  1
  Cu+  Cu78  1  0.84208269  0.66602813  0.16465628  1
  Cu+  Cu79  1  0.83110612  0.66559523  0.50061706  1
  Cu+  Cu80  1  0.83457695  0.66627662  0.83639284  1
  Cu+  Cu81  1  -0.00369561  0.16608910  0.16602006  1
  Cu+  Cu82  1  0.00209821  0.16997082  0.49992890  1
  Cu+  Cu83  1  -0.00080544  0.16530704  0.83689807  1
  Cu+  Cu84  1  0.00020175  0.50298474  0.17164799  1
  Cu+  Cu85  1  -0.00031739  0.49704344  0.49642913  1
  Cu+  Cu86  1  0.00000603  0.49500242  0.83760146  1
  Cu+  Cu87  1  -0.00019431  0.83519287  0.16714943  1
  Cu+  Cu88  1  0.00470103  0.83727130  0.50811873  1
  Cu+  Cu89  1  -0.00187749  0.83039648  0.82544335  1
  Cu+  Cu90  1  0.32705801  0.16752074  0.16746199  1
  Cu+  Cu91  1  0.33171830  0.16433137  0.49840230  1
  Cu+  Cu92  1  0.33606627  0.17064899  0.83399363  1
  Cu+  Cu93  1  0.33376737  0.50111730  0.17262178  1
  Cu+  Cu94  1  0.33399890  0.50157781  0.49805490  1
  Cu+  Cu95  1  0.33245124  0.49962358  0.83006239  1
  Cu+  Cu96  1  0.33653348  0.83850976  0.16486321  1
  Cu+  Cu97  1  0.33611685  0.83773557  0.50270122  1
  Cu+  Cu98  1  0.33210169  0.83566114  0.83468970  1
  Cu+  Cu99  1  0.66388152  0.16652722  0.16702771  1
  Cu+  Cu100  1  0.66713075  0.16441472  0.49729892  1
  Cu+  Cu101  1  0.66519155  0.16836195  0.83374481  1
  Cu+  Cu102  1  0.67277689  0.49932538  0.16743477  1
  Cu+  Cu103  1  0.66340536  0.50021224  0.49892450  1
  Cu+  Cu104  1  0.66547662  0.50019503  0.83243148  1
  Cu+  Cu105  1  0.66209878  0.82829745  0.16590450  1
  Cu+  Cu106  1  0.67120081  0.83313897  0.50314506  1
  Cu+  Cu107  1  0.66697586  0.82858030  0.82731431  1
  Cu+  Cu108  1  0.93319714  0.59509109  0.91955404  1
  Cu+  Cu109  1  0.58666497  0.73731841  0.07601464  1
  Cu+  Cu110  1  0.25507180  0.25486804  0.26272890  1
  Cu+  Cu111  1  0.06650452  0.06621065  0.92170297  1
  Cu+  Cu112  1  0.92826024  0.93028120  0.25543171  1
  Cu+  Cu113  1  0.74093036  0.40693410  0.26048957  1
  Cu+  Cu114  1  0.93261643  0.93377169  0.59617430  1
  Cu+  Cu115  1  0.26289220  0.40799424  0.73747765  1
  Cu+  Cu116  1  0.07278396  0.40542967  0.93451933  1
  Cu+  Cu117  1  0.26105313  0.07259557  0.40559646  1
  Cu+  Cu118  1  0.92364184  0.40164055  0.73923811  1
  Cu+  Cu119  1  0.41078112  0.92677994  0.07174668  1
  Cu+  Cu120  1  0.73965319  0.73530225  0.58663987  1
  Cu+  Cu121  1  0.92368763  0.73612666  0.73751187  1
  Cu+  Cu122  1  0.92413779  0.59471093  0.26556205  1
  Cu+  Cu123  1  0.73835513  0.92997815  0.74005030  1
  Cu+  Cu124  1  0.93199072  0.40178102  0.40344398  1
  Cu+  Cu125  1  0.40505541  0.40633800  0.26250360  1
  Cu+  Cu126  1  0.58378672  0.73368981  0.73695662  1
  Cu+  Cu127  1  0.59901374  0.07064423  0.40724533  1
  Cu+  Cu128  1  0.26119301  0.08145024  0.06621179  1
  Cu+  Cu129  1  0.26468695  0.60065476  0.25944711  1
  Cu+  Cu130  1  0.08081145  0.73572074  0.59140611  1
  Cu+  Cu131  1  0.73705915  0.74030106  0.92618923  1
  Cu+  Cu132  1  0.93376554  0.74440359  0.07625989  1
  Te2-  Te133  1  0.24699306  0.24840477  0.07526991  1
  Te2-  Te134  1  0.25374275  0.25559290  0.41528870  1
  Te2-  Te135  1  0.25228426  0.25474356  0.74879374  1
  Te2-  Te136  1  0.25132325  0.58253483  0.08221515  1
  Te2-  Te137  1  0.25458645  0.59059599  0.41484859  1
  Te2-  Te138  1  0.25071561  0.58622855  0.74631934  1
  Te2-  Te139  1  0.25371281  0.92037321  0.07398610  1
  Te2-  Te140  1  0.25516684  0.92048942  0.41417275  1
  Te2-  Te141  1  0.24994662  0.91874935  0.74807086  1
  Te2-  Te142  1  0.58062781  0.25356970  0.08581281  1
  Te2-  Te143  1  0.58481517  0.25180704  0.41370812  1
  Te2-  Te144  1  0.58492088  0.25296329  0.74736681  1
  Te2-  Te145  1  0.58775767  0.58347181  0.08160362  1
  Te2-  Te146  1  0.58479804  0.58473778  0.41206764  1
  Te2-  Te147  1  0.58627774  0.58299572  0.74383285  1
  Te2-  Te148  1  0.58601063  0.92173264  0.08486814  1
  Te2-  Te149  1  0.59078188  0.91685703  0.41448114  1
  Te2-  Te150  1  0.58619026  0.92468555  0.74964345  1
  Te2-  Te151  1  0.91521678  0.25247458  0.08268992  1
  Te2-  Te152  1  0.92144212  0.25023437  0.41010669  1
  Te2-  Te153  1  0.92077143  0.24935159  0.74642561  1
  Te2-  Te154  1  0.92869705  0.58797673  0.07660731  1
  Te2-  Te155  1  0.91999663  0.58843547  0.41602944  1
  Te2-  Te156  1  0.92230082  0.58465535  0.74741999  1
  Te2-  Te157  1  0.91396526  0.91652786  0.07845116  1
  Te2-  Te158  1  0.92468399  0.92009533  0.41563008  1
  Te2-  Te159  1  0.91970737  0.92216650  0.74753050  1
  Te2-  Te160  1  0.25199967  0.07566655  0.25223699  1
  Te2-  Te161  1  0.25131536  0.08479096  0.58970251  1
  Te2-  Te162  1  0.25494152  0.07988721  0.91477532  1
  Te2-  Te163  1  0.25172881  0.40987420  0.25612517  1
  Te2-  Te164  1  0.25302894  0.41417015  0.58238837  1
  Te2-  Te165  1  0.25249454  0.41676469  0.92036967  1
  Te2-  Te166  1  0.25472777  0.75398760  0.25282548  1
  Te2-  Te167  1  0.25345064  0.75070556  0.58497737  1
  Te2-  Te168  1  0.25154473  0.74730005  0.91681728  1
  Te2-  Te169  1  0.58419097  0.07823645  0.25159931  1
  Te2-  Te170  1  0.58635200  0.08256650  0.58773315  1
  Te2-  Te171  1  0.58726343  0.08469313  0.92272423  1
  Te2-  Te172  1  0.58770158  0.41376144  0.25266539  1
  Te2-  Te173  1  0.58380332  0.41276364  0.58318392  1
  Te2-  Te174  1  0.58450327  0.41570613  0.91826045  1
  Te2-  Te175  1  0.58524576  0.74658209  0.25768017  1
  Te2-  Te176  1  0.58781254  0.74275653  0.58571115  1
  Te2-  Te177  1  0.58552566  0.74416531  0.92246338  1
  Te2-  Te178  1  0.91763119  0.08071992  0.25327178  1
  Te2-  Te179  1  0.92286047  0.08555521  0.58752487  1
  Te2-  Te180  1  0.91413091  0.07701217  0.92034322  1
  Te2-  Te181  1  0.92315558  0.40783237  0.24953570  1
  Te2-  Te182  1  0.92000115  0.41165475  0.58477410  1
  Te2-  Te183  1  0.91735705  0.40997346  0.92408534  1
  Te2-  Te184  1  0.92240100  0.74816583  0.25682500  1
  Te2-  Te185  1  0.92367192  0.74186510  0.58640104  1
  Te2-  Te186  1  0.92647827  0.74670923  0.92094527  1
  Te2-  Te187  1  0.07901762  0.24737521  0.25352964  1
  Te2-  Te188  1  0.08036352  0.25607054  0.58554737  1
  Te2-  Te189  1  0.07884106  0.25442502  0.92120854  1
  Te2-  Te190  1  0.08046398  0.58993841  0.25566025  1
  Te2-  Te191  1  0.08004793  0.58303533  0.58426520  1
  Te2-  Te192  1  0.08311284  0.58737756  0.92150076  1
  Te2-  Te193  1  0.08286936  0.92381777  0.24987000  1
  Te2-  Te194  1  0.08536708  0.92887977  0.58846870  1
  Te2-  Te195  1  0.07531288  0.91504748  0.91739814  1
  Te2-  Te196  1  0.41075192  0.25053606  0.25759845  1
  Te2-  Te197  1  0.41292246  0.24968853  0.58434544  1
  Te2-  Te198  1  0.41411538  0.25569112  0.92052181  1
  Te2-  Te199  1  0.41679605  0.59013756  0.25550254  1
  Te2-  Te200  1  0.41368989  0.58625663  0.58406870  1
  Te2-  Te201  1  0.41239995  0.58542496  0.91682211  1
  Te2-  Te202  1  0.41294188  0.91862024  0.25856275  1
  Te2-  Te203  1  0.41941004  0.92052551  0.58771495  1
  Te2-  Te204  1  0.41584613  0.91997794  0.91916902  1
  Te2-  Te205  1  0.74314526  0.25186023  0.25386794  1
  Te2-  Te206  1  0.74804093  0.25232305  0.58097802  1
  Te2-  Te207  1  0.74884841  0.25230617  0.91802973  1
  Te2-  Te208  1  0.75425364  0.58664144  0.25230972  1
  Te2-  Te209  1  0.74739748  0.58102377  0.58679649  1
  Te2-  Te210  1  0.74372392  0.58577263  0.91888289  1
  Te2-  Te211  1  0.74352486  0.91441791  0.25098405  1
  Te2-  Te212  1  0.74800391  0.92350067  0.58630140  1
  Te2-  Te213  1  0.74821572  0.91232328  0.91909394  1
  Te2-  Te214  1  0.07164435  0.07742688  0.07954576  1
  Te2-  Te215  1  0.07960108  0.08295243  0.41463880  1
  Te2-  Te216  1  0.08149669  0.08384512  0.74742846  1
  Te2-  Te217  1  0.07903128  0.41119277  0.08810574  1
  Te2-  Te218  1  0.08393941  0.41466089  0.40922676  1
  Te2-  Te219  1  0.07739871  0.41338242  0.74368441  1
  Te2-  Te220  1  0.08500191  0.74738381  0.08140112  1
  Te2-  Te221  1  0.08029172  0.75314999  0.41447820  1
  Te2-  Te222  1  0.08010492  0.74179736  0.74435002  1
  Te2-  Te223  1  0.41250005  0.08168426  0.07909642  1
  Te2-  Te224  1  0.41292669  0.07613521  0.41433053  1
  Te2-  Te225  1  0.41498357  0.08186253  0.75019156  1
  Te2-  Te226  1  0.41293140  0.41758021  0.08190171  1
  Te2-  Te227  1  0.41128996  0.41114918  0.41456060  1
  Te2-  Te228  1  0.41546419  0.41293538  0.74486830  1
  Te2-  Te229  1  0.41352113  0.74610447  0.08262643  1
  Te2-  Te230  1  0.41521941  0.75028706  0.41782705  1
  Te2-  Te231  1  0.41551518  0.75170770  0.74911192  1
  Te2-  Te232  1  0.74524705  0.08010744  0.08244187  1
  Te2-  Te233  1  0.75138081  0.07658951  0.41334773  1
  Te2-  Te234  1  0.74472047  0.08348010  0.74599849  1
  Te2-  Te235  1  0.75212489  0.41918333  0.07578558  1
  Te2-  Te236  1  0.74474900  0.41392383  0.41387350  1
  Te2-  Te237  1  0.74716904  0.41404952  0.74898627  1
  Te2-  Te238  1  0.74376817  0.73900242  0.08279938  1
  Te2-  Te239  1  0.75233835  0.75146134  0.41360905  1
  Te2-  Te240  1  0.74626049  0.73875797  0.74139482  1
