# generated using pymatgen
data_Ti27(Cu53Te54)2
_symmetry_space_group_name_H-M   'P 1'
_cell_length_a   17.89407574
_cell_length_b   17.89567757
_cell_length_c   17.89743891
_cell_angle_alpha   89.95231454
_cell_angle_beta   90.00820145
_cell_angle_gamma   89.99450906
_symmetry_Int_Tables_number   1
_chemical_formula_structural   Ti27(Cu53Te54)2
_chemical_formula_sum   'Ti27 Cu106 Te108'
_cell_volume   5731.23411425
_cell_formula_units_Z   1
loop_
 _symmetry_equiv_pos_site_id
 _symmetry_equiv_pos_as_xyz
  1  'x, y, z'
loop_
 _atom_type_symbol
 _atom_type_oxidation_number
  Ti4+  4.0
  Cu+  1.0
  Te2-  -2.0
loop_
 _atom_site_type_symbol
 _atom_site_label
 _atom_site_symmetry_multiplicity
 _atom_site_fract_x
 _atom_site_fract_y
 _atom_site_fract_z
 _atom_site_occupancy
  Ti4+  Ti0  1  0.16532716  0.16689352  0.16798641  1
  Ti4+  Ti1  1  0.16907651  0.16140060  0.50226369  1
  Ti4+  Ti2  1  0.16602164  0.16817955  0.83757295  1
  Ti4+  Ti3  1  0.16516480  0.50143918  0.16675912  1
  Ti4+  Ti4  1  0.16522760  0.49538551  0.49772777  1
  Ti4+  Ti5  1  0.16753641  0.50169254  0.83374011  1
  Ti4+  Ti6  1  0.16432823  0.83405835  0.16884290  1
  Ti4+  Ti7  1  0.16879908  0.83200492  0.49636455  1
  Ti4+  Ti8  1  0.16723523  0.83191644  0.83342318  1
  Ti4+  Ti9  1  0.49732032  0.16807265  0.16444107  1
  Ti4+  Ti10  1  0.49962870  0.16663458  0.49577178  1
  Ti4+  Ti11  1  0.50094475  0.16292095  0.83567559  1
  Ti4+  Ti12  1  0.50100851  0.49979069  0.16636003  1
  Ti4+  Ti13  1  0.50042327  0.50260191  0.49681952  1
  Ti4+  Ti14  1  0.50332958  0.50021530  0.83136935  1
  Ti4+  Ti15  1  0.49985072  0.83090583  0.16811874  1
  Ti4+  Ti16  1  0.50029230  0.83434385  0.50255674  1
  Ti4+  Ti17  1  0.49928397  0.83445180  0.83654337  1
  Ti4+  Ti18  1  0.83195190  0.16633348  0.16449493  1
  Ti4+  Ti19  1  0.82999423  0.16678068  0.50110694  1
  Ti4+  Ti20  1  0.83478373  0.17064932  0.83098412  1
  Ti4+  Ti21  1  0.83346591  0.49885643  0.16636505  1
  Ti4+  Ti22  1  0.83383769  0.49912993  0.50153525  1
  Ti4+  Ti23  1  0.83110162  0.50364521  0.83102923  1
  Ti4+  Ti24  1  0.83195563  0.83401734  0.16795215  1
  Ti4+  Ti25  1  0.83363517  0.83399605  0.49984816  1
  Ti4+  Ti26  1  0.83596133  0.83310693  0.83303333  1
  Cu+  Cu27  1  0.16454411  0.16959266  0.00399362  1
  Cu+  Cu28  1  0.16791360  0.16312940  0.33534473  1
  Cu+  Cu29  1  0.17048339  0.16295287  0.67682297  1
  Cu+  Cu30  1  0.16715976  0.50205432  0.00031127  1
  Cu+  Cu31  1  0.15670747  0.49562444  0.33099444  1
  Cu+  Cu32  1  0.16900360  0.49872453  0.66479542  1
  Cu+  Cu33  1  0.16703471  0.83032530  0.00185343  1
  Cu+  Cu34  1  0.16182395  0.83698142  0.33362336  1
  Cu+  Cu35  1  0.16851620  0.83259927  0.66247054  1
  Cu+  Cu36  1  0.50046203  0.15943316  0.00181074  1
  Cu+  Cu37  1  0.49782054  0.16949015  0.32706362  1
  Cu+  Cu38  1  0.49812405  0.16731159  0.66168619  1
  Cu+  Cu39  1  0.50372041  0.50064009  -0.00116484  1
  Cu+  Cu40  1  0.50627929  0.49930824  0.33144091  1
  Cu+  Cu41  1  0.50146617  0.50339157  0.66206326  1
  Cu+  Cu42  1  0.49704227  0.83177984  0.00233383  1
  Cu+  Cu43  1  0.50034241  0.83060201  0.33565667  1
  Cu+  Cu44  1  0.50056107  0.83513124  0.67362282  1
  Cu+  Cu45  1  0.83225827  0.16670942  -0.00227257  1
  Cu+  Cu46  1  0.83063948  0.16727585  0.33141758  1
  Cu+  Cu47  1  0.83329874  0.17637708  0.66378929  1
  Cu+  Cu48  1  0.83180400  0.50235938  -0.00315940  1
  Cu+  Cu49  1  0.83320367  0.49676305  0.33441473  1
  Cu+  Cu50  1  0.83228006  0.49835492  0.67088430  1
  Cu+  Cu51  1  0.83349482  0.83284563  0.00327232  1
  Cu+  Cu52  1  0.82922386  0.83718097  0.33394727  1
  Cu+  Cu53  1  0.83806594  0.83067723  0.66662389  1
  Cu+  Cu54  1  0.16464231  -0.00033890  0.16767695  1
  Cu+  Cu55  1  0.17347739  -0.00141524  0.49234492  1
  Cu+  Cu56  1  0.16632076  -0.00075062  0.83512532  1
  Cu+  Cu57  1  0.16236096  0.33477773  0.17009919  1
  Cu+  Cu58  1  0.16717435  0.32853612  0.50096490  1
  Cu+  Cu59  1  0.16739615  0.33484907  0.83726106  1
  Cu+  Cu60  1  0.16854541  0.67083468  0.16570118  1
  Cu+  Cu61  1  0.16618937  0.66012425  0.49711018  1
  Cu+  Cu62  1  0.16647969  0.66521630  0.83168932  1
  Cu+  Cu63  1  0.49838422  -0.00205047  0.16533445  1
  Cu+  Cu64  1  0.49636309  0.00140090  0.50069740  1
  Cu+  Cu65  1  0.49620986  -0.00071724  0.84072748  1
  Cu+  Cu66  1  0.49718582  0.33364601  0.16390408  1
  Cu+  Cu67  1  0.49843298  0.33496551  0.49095994  1
  Cu+  Cu68  1  0.50176637  0.33191992  0.83148065  1
  Cu+  Cu69  1  0.50164856  0.66288003  0.17022660  1
  Cu+  Cu70  1  0.50493235  0.67092508  0.50083166  1
  Cu+  Cu71  1  0.50311546  0.66864697  0.83560335  1
  Cu+  Cu72  1  0.83276499  -0.00019624  0.16679477  1
  Cu+  Cu73  1  0.82756572  -0.00047231  0.49924495  1
  Cu+  Cu74  1  0.83562997  0.00074412  0.83137699  1
  Cu+  Cu75  1  0.83247330  0.33040980  0.16308876  1
  Cu+  Cu76  1  0.83513207  0.33126439  0.50472206  1
  Cu+  Cu77  1  0.82678350  0.33628909  0.82455776  1
  Cu+  Cu78  1  0.83363176  0.66861995  0.16737146  1
  Cu+  Cu79  1  0.83558396  0.66630287  0.50192462  1
  Cu+  Cu80  1  0.83834133  0.66914586  0.82926430  1
  Cu+  Cu81  1  -0.00198568  0.16662429  0.16664786  1
  Cu+  Cu82  1  -0.00259111  0.16439492  0.50543991  1
  Cu+  Cu83  1  0.00226777  0.17214120  0.83513997  1
  Cu+  Cu84  1  0.00043312  0.49702783  0.16877354  1
  Cu+  Cu85  1  0.00274179  0.49869635  0.49546499  1
  Cu+  Cu86  1  -0.00071099  0.50415291  0.83420826  1
  Cu+  Cu87  1  -0.00354772  0.83416223  0.17020837  1
  Cu+  Cu88  1  0.00289337  0.83530885  0.49644152  1
  Cu+  Cu89  1  0.00154890  0.82959979  0.83131105  1
  Cu+  Cu90  1  0.33033132  0.16996601  0.16702520  1
  Cu+  Cu91  1  0.33746406  0.15850403  0.49925180  1
  Cu+  Cu92  1  0.33277020  0.16382492  0.83829538  1
  Cu+  Cu93  1  0.33388737  0.50098693  0.16609756  1
  Cu+  Cu94  1  0.32996545  0.50232967  0.49986190  1
  Cu+  Cu95  1  0.33681471  0.49783805  0.82998864  1
  Cu+  Cu96  1  0.33157904  0.83024754  0.16722736  1
  Cu+  Cu97  1  0.33258399  0.83538907  0.50455600  1
  Cu+  Cu98  1  0.33473808  0.83217089  0.83499839  1
  Cu+  Cu99  1  0.66345289  0.16711502  0.16155039  1
  Cu+  Cu100  1  0.66271774  0.16743920  0.49762111  1
  Cu+  Cu101  1  0.67156562  0.16609991  0.83334788  1
  Cu+  Cu102  1  0.66775081  0.50071802  0.16799475  1
  Cu+  Cu103  1  0.66453907  0.49932229  0.50030517  1
  Cu+  Cu104  1  0.66727121  0.50589835  0.83782228  1
  Cu+  Cu105  1  0.66876585  0.83287014  0.16745110  1
  Cu+  Cu106  1  0.66831805  0.83422072  0.49774507  1
  Cu+  Cu107  1  0.66552628  0.83561989  0.83506403  1
  Cu+  Cu108  1  0.59592925  0.40365020  0.40533673  1
  Cu+  Cu109  1  0.93271555  0.26068731  0.58867889  1
  Cu+  Cu110  1  0.59373328  0.06742961  0.08014554  1
  Cu+  Cu111  1  0.74000931  0.60021543  0.74330999  1
  Cu+  Cu112  1  0.26509276  0.07398759  0.40063053  1
  Cu+  Cu113  1  0.75014896  0.06966387  0.92308863  1
  Cu+  Cu114  1  0.41377295  0.07295747  0.59452840  1
  Cu+  Cu115  1  0.59365311  0.59615116  0.59064955  1
  Cu+  Cu116  1  0.93316486  0.74354156  0.73400330  1
  Cu+  Cu117  1  0.59674792  0.74583982  0.40673026  1
  Cu+  Cu118  1  0.40188576  0.07225440  0.93272757  1
  Cu+  Cu119  1  0.58809955  0.59818075  0.92961144  1
  Cu+  Cu120  1  0.25543210  0.92492530  0.59338821  1
  Cu+  Cu121  1  0.73634922  0.93084240  0.40496974  1
  Cu+  Cu122  1  0.26156142  0.74174965  0.07221228  1
  Cu+  Cu123  1  0.92810831  0.59458333  0.92922987  1
  Cu+  Cu124  1  0.07195049  0.92920240  0.40646453  1
  Cu+  Cu125  1  0.74164798  0.40828409  0.92657051  1
  Cu+  Cu126  1  0.59820285  0.59151061  0.25808186  1
  Cu+  Cu127  1  0.06822543  0.40129468  0.25947126  1
  Cu+  Cu128  1  0.73407453  0.25854505  0.73532956  1
  Cu+  Cu129  1  0.93095654  0.40917289  0.74897316  1
  Cu+  Cu130  1  0.25687939  0.58974388  0.59306865  1
  Cu+  Cu131  1  0.26083283  0.07109640  0.75289889  1
  Cu+  Cu132  1  0.07256167  0.59303030  0.40325349  1
  Te2-  Te133  1  0.24874239  0.25548701  0.08402238  1
  Te2-  Te134  1  0.25397406  0.24744504  0.41737815  1
  Te2-  Te135  1  0.25424977  0.25388722  0.75344449  1
  Te2-  Te136  1  0.25328857  0.58708300  0.08095358  1
  Te2-  Te137  1  0.24879338  0.58036601  0.40768306  1
  Te2-  Te138  1  0.25501979  0.58567046  0.74708169  1
  Te2-  Te139  1  0.25082569  0.91852466  0.08278801  1
  Te2-  Te140  1  0.25929804  0.91642651  0.40802864  1
  Te2-  Te141  1  0.25542379  0.91834268  0.74796863  1
  Te2-  Te142  1  0.58224123  0.25393340  0.07765650  1
  Te2-  Te143  1  0.58583624  0.25180368  0.40781269  1
  Te2-  Te144  1  0.58366990  0.24846069  0.74654335  1
  Te2-  Te145  1  0.58902027  0.58732193  0.08058582  1
  Te2-  Te146  1  0.59127729  0.59071005  0.41147844  1
  Te2-  Te147  1  0.58741088  0.59138614  0.74385611  1
  Te2-  Te148  1  0.58601509  0.91543227  0.08072382  1
  Te2-  Te149  1  0.58335177  0.92178909  0.41427212  1
  Te2-  Te150  1  0.58418617  0.92247227  0.75276377  1
  Te2-  Te151  1  0.91847623  0.25065242  0.07884336  1
  Te2-  Te152  1  0.91779799  0.24985123  0.41542266  1
  Te2-  Te153  1  0.92565322  0.25723675  0.74478998  1
  Te2-  Te154  1  0.91957926  0.58547618  0.08289895  1
  Te2-  Te155  1  0.91789985  0.58456423  0.41351848  1
  Te2-  Te156  1  0.92282701  0.58812888  0.74142205  1
  Te2-  Te157  1  0.91822964  0.91918611  0.08259539  1
  Te2-  Te158  1  0.91817928  0.92206594  0.41376040  1
  Te2-  Te159  1  0.92134736  0.91910699  0.74775803  1
  Te2-  Te160  1  0.25339012  0.07888917  0.25058322  1
  Te2-  Te161  1  0.25679854  0.07640306  0.59306801  1
  Te2-  Te162  1  0.24927367  0.07920805  0.92600836  1
  Te2-  Te163  1  0.25148195  0.41664168  0.25167060  1
  Te2-  Te164  1  0.25313027  0.41107887  0.58389990  1
  Te2-  Te165  1  0.25386220  0.41779214  0.91900345  1
  Te2-  Te166  1  0.24962291  0.74963851  0.25692636  1
  Te2-  Te167  1  0.25256339  0.74284896  0.58384225  1
  Te2-  Te168  1  0.25314180  0.74496406  0.91816582  1
  Te2-  Te169  1  0.58382188  0.08138444  0.24954426  1
  Te2-  Te170  1  0.58527958  0.08094793  0.58365616  1
  Te2-  Te171  1  0.59158461  0.07678014  0.92063577  1
  Te2-  Te172  1  0.58828791  0.40924892  0.24973398  1
  Te2-  Te173  1  0.58229740  0.41213439  0.58276433  1
  Te2-  Te174  1  0.58728522  0.41108685  0.91900451  1
  Te2-  Te175  1  0.58969636  0.74619157  0.25392528  1
  Te2-  Te176  1  0.58835558  0.75232430  0.59123804  1
  Te2-  Te177  1  0.58771926  0.75011576  0.92306765  1
  Te2-  Te178  1  0.91630656  0.08192197  0.25166864  1
  Te2-  Te179  1  0.91276218  0.07909801  0.58735589  1
  Te2-  Te180  1  0.92040704  0.08420427  0.91643463  1
  Te2-  Te181  1  0.91626619  0.41019751  0.25228196  1
  Te2-  Te182  1  0.92303550  0.41494445  0.58784694  1
  Te2-  Te183  1  0.91614178  0.41329842  0.91551109  1
  Te2-  Te184  1  0.91604566  0.74940481  0.25553619  1
  Te2-  Te185  1  0.92424269  0.74748609  0.58234494  1
  Te2-  Te186  1  0.92109880  0.74840888  0.92267446  1
  Te2-  Te187  1  0.07861431  0.24885529  0.25609901  1
  Te2-  Te188  1  0.08570944  0.24765593  0.59046104  1
  Te2-  Te189  1  0.08123107  0.25566801  0.92231790  1
  Te2-  Te190  1  0.07787113  0.59080189  0.24982382  1
  Te2-  Te191  1  0.08003306  0.58245363  0.58553189  1
  Te2-  Te192  1  0.08141333  0.58816987  0.92044078  1
  Te2-  Te193  1  0.07624198  0.92262633  0.25310190  1
  Te2-  Te194  1  0.08457048  0.92065838  0.58199026  1
  Te2-  Te195  1  0.08191760  0.91511641  0.91840644  1
  Te2-  Te196  1  0.41197130  0.25501655  0.24980145  1
  Te2-  Te197  1  0.41459942  0.25432719  0.57956957  1
  Te2-  Te198  1  0.41771448  0.25076154  0.91947607  1
  Te2-  Te199  1  0.41474267  0.58313185  0.25370504  1
  Te2-  Te200  1  0.41338858  0.58933279  0.58342616  1
  Te2-  Te201  1  0.41650461  0.58384367  0.91670364  1
  Te2-  Te202  1  0.41506455  0.91529474  0.25217837  1
  Te2-  Te203  1  0.41373212  0.91967729  0.59174567  1
  Te2-  Te204  1  0.41003428  0.91770861  0.92449107  1
  Te2-  Te205  1  0.74519464  0.25120769  0.24842267  1
  Te2-  Te206  1  0.73951774  0.25546626  0.58350741  1
  Te2-  Te207  1  0.74728568  0.25603347  0.91972185  1
  Te2-  Te208  1  0.75072982  0.58578675  0.25434721  1
  Te2-  Te209  1  0.74782591  0.58756747  0.58691558  1
  Te2-  Te210  1  0.74791052  0.59495956  0.92067906  1
  Te2-  Te211  1  0.74405444  0.92270857  0.25217022  1
  Te2-  Te212  1  0.74864003  0.91621444  0.58856362  1
  Te2-  Te213  1  0.74978028  0.91786211  0.91966642  1
  Te2-  Te214  1  0.08022808  0.08151613  0.08260994  1
  Te2-  Te215  1  0.07737183  0.08145184  0.41606252  1
  Te2-  Te216  1  0.07865306  0.08086740  0.75261869  1
  Te2-  Te217  1  0.08112784  0.41591271  0.07948801  1
  Te2-  Te218  1  0.07779136  0.40415024  0.41461851  1
  Te2-  Te219  1  0.08365924  0.41457301  0.74815142  1
  Te2-  Te220  1  0.07707978  0.74950010  0.08374301  1
  Te2-  Te221  1  0.08016260  0.74507065  0.41232764  1
  Te2-  Te222  1  0.08458988  0.74621149  0.74350539  1
  Te2-  Te223  1  0.40778278  0.07872937  0.08336863  1
  Te2-  Te224  1  0.41686265  0.07812862  0.40598459  1
  Te2-  Te225  1  0.41397716  0.07766917  0.74724825  1
  Te2-  Te226  1  0.41492561  0.41745631  0.07898492  1
  Te2-  Te227  1  0.41202614  0.42022318  0.41141196  1
  Te2-  Te228  1  0.41949445  0.41487700  0.74474376  1
  Te2-  Te229  1  0.41547851  0.74319314  0.08294300  1
  Te2-  Te230  1  0.41330323  0.74921860  0.41882277  1
  Te2-  Te231  1  0.41587107  0.74704925  0.75072734  1
  Te2-  Te232  1  0.74624388  0.07715516  0.07768456  1
  Te2-  Te233  1  0.74382366  0.08270280  0.41230229  1
  Te2-  Te234  1  0.75177570  0.08315180  0.74392622  1
  Te2-  Te235  1  0.74670746  0.41457223  0.08057349  1
  Te2-  Te236  1  0.74949177  0.41200590  0.41682666  1
  Te2-  Te237  1  0.73757347  0.41704204  0.74361880  1
  Te2-  Te238  1  0.74755343  0.74714865  0.08182285  1
  Te2-  Te239  1  0.74976216  0.74413368  0.41390040  1
  Te2-  Te240  1  0.74492440  0.75148988  0.74670729  1
