# generated using pymatgen
data_Ti27(Cu53Te54)2
_symmetry_space_group_name_H-M   'P 1'
_cell_length_a   17.88224187
_cell_length_b   17.88109316
_cell_length_c   17.88530389
_cell_angle_alpha   89.95794689
_cell_angle_beta   89.98291977
_cell_angle_gamma   89.98090222
_symmetry_Int_Tables_number   1
_chemical_formula_structural   Ti27(Cu53Te54)2
_chemical_formula_sum   'Ti27 Cu106 Te108'
_cell_volume   5718.89593926
_cell_formula_units_Z   1
loop_
 _symmetry_equiv_pos_site_id
 _symmetry_equiv_pos_as_xyz
  1  'x, y, z'
loop_
 _atom_type_symbol
 _atom_type_oxidation_number
  Ti4+  4.0
  Cu+  1.0
  Te2-  -2.0
loop_
 _atom_site_type_symbol
 _atom_site_label
 _atom_site_symmetry_multiplicity
 _atom_site_fract_x
 _atom_site_fract_y
 _atom_site_fract_z
 _atom_site_occupancy
  Ti4+  Ti0  1  0.16680541  0.16509130  0.16756449  1
  Ti4+  Ti1  1  0.16678533  0.16812224  0.50285531  1
  Ti4+  Ti2  1  0.16384578  0.16841216  0.83587748  1
  Ti4+  Ti3  1  0.16651160  0.50243725  0.16519944  1
  Ti4+  Ti4  1  0.16399664  0.50204787  0.49613328  1
  Ti4+  Ti5  1  0.16857347  0.50220432  0.83092158  1
  Ti4+  Ti6  1  0.16494734  0.83422766  0.16957571  1
  Ti4+  Ti7  1  0.16803101  0.83262878  0.50332570  1
  Ti4+  Ti8  1  0.16658555  0.83666639  0.83284982  1
  Ti4+  Ti9  1  0.49511201  0.16780561  0.16677885  1
  Ti4+  Ti10  1  0.50003883  0.16458550  0.50177441  1
  Ti4+  Ti11  1  0.50003377  0.16459319  0.83419807  1
  Ti4+  Ti12  1  0.49932379  0.50163457  0.16951927  1
  Ti4+  Ti13  1  0.50022009  0.49804058  0.50209117  1
  Ti4+  Ti14  1  0.50025276  0.49750317  0.83451645  1
  Ti4+  Ti15  1  0.49887468  0.83182498  0.16408208  1
  Ti4+  Ti16  1  0.49952043  0.83441053  0.50033779  1
  Ti4+  Ti17  1  0.50329840  0.83208018  0.83306340  1
  Ti4+  Ti18  1  0.82808312  0.16378451  0.16512875  1
  Ti4+  Ti19  1  0.83461849  0.16734100  0.49557913  1
  Ti4+  Ti20  1  0.83697462  0.16558942  0.83353115  1
  Ti4+  Ti21  1  0.83256089  0.49906952  0.16389440  1
  Ti4+  Ti22  1  0.83531987  0.49922119  0.49874123  1
  Ti4+  Ti23  1  0.83616765  0.49925610  0.83341447  1
  Ti4+  Ti24  1  0.83398674  0.83237008  0.16511792  1
  Ti4+  Ti25  1  0.83381234  0.83411787  0.49972382  1
  Ti4+  Ti26  1  0.83305214  0.83499497  0.82997011  1
  Cu+  Cu27  1  0.16559330  0.16556256  0.00155152  1
  Cu+  Cu28  1  0.16841809  0.16457785  0.33615473  1
  Cu+  Cu29  1  0.16495669  0.16932616  0.67029156  1
  Cu+  Cu30  1  0.16571568  0.50131998  -0.00326462  1
  Cu+  Cu31  1  0.16890609  0.50317922  0.32638658  1
  Cu+  Cu32  1  0.16766696  0.50417813  0.66167023  1
  Cu+  Cu33  1  0.16616541  0.83256817  0.00342896  1
  Cu+  Cu34  1  0.16454958  0.83209184  0.33775233  1
  Cu+  Cu35  1  0.16834228  0.83497872  0.67121235  1
  Cu+  Cu36  1  0.49813287  0.16395446  0.00173297  1
  Cu+  Cu37  1  0.49678748  0.16781200  0.33403388  1
  Cu+  Cu38  1  0.50104992  0.16377369  0.66821736  1
  Cu+  Cu39  1  0.49833546  0.50108401  0.00090262  1
  Cu+  Cu40  1  0.49738525  0.50302971  0.34167864  1
  Cu+  Cu41  1  0.50021827  0.49549438  0.66935883  1
  Cu+  Cu42  1  0.50509315  0.82574767  0.00160796  1
  Cu+  Cu43  1  0.49960663  0.83147958  0.33025614  1
  Cu+  Cu44  1  0.50115458  0.83978228  0.66507412  1
  Cu+  Cu45  1  0.83456556  0.15905540  0.00073922  1
  Cu+  Cu46  1  0.82861553  0.16546770  0.33039487  1
  Cu+  Cu47  1  0.83708858  0.16835267  0.66285237  1
  Cu+  Cu48  1  0.83396432  0.49961520  0.00070548  1
  Cu+  Cu49  1  0.83594837  0.49694897  0.33017749  1
  Cu+  Cu50  1  0.83505266  0.50038717  0.66861204  1
  Cu+  Cu51  1  0.83218643  0.83320089  -0.00700637  1
  Cu+  Cu52  1  0.83334750  0.83508930  0.33358824  1
  Cu+  Cu53  1  0.83247520  0.83453377  0.66570766  1
  Cu+  Cu54  1  0.16437969  -0.00210624  0.17095727  1
  Cu+  Cu55  1  0.17118530  0.00398717  0.50185387  1
  Cu+  Cu56  1  0.15981845  0.00223123  0.83124200  1
  Cu+  Cu57  1  0.16635337  0.33398551  0.16411865  1
  Cu+  Cu58  1  0.16019459  0.33315382  0.49432977  1
  Cu+  Cu59  1  0.16390250  0.33624907  0.83477622  1
  Cu+  Cu60  1  0.16706754  0.66950721  0.16832742  1
  Cu+  Cu61  1  0.16847040  0.66517641  0.50626680  1
  Cu+  Cu62  1  0.17123190  0.67178354  0.82918828  1
  Cu+  Cu63  1  0.49690736  0.00070436  0.16402066  1
  Cu+  Cu64  1  0.50465470  -0.00212621  0.50248822  1
  Cu+  Cu65  1  0.49931387  -0.00490461  0.83082464  1
  Cu+  Cu66  1  0.50006950  0.33243882  0.17322715  1
  Cu+  Cu67  1  0.49860617  0.33210795  0.50343625  1
  Cu+  Cu68  1  0.50105838  0.33073732  0.83581784  1
  Cu+  Cu69  1  0.49722155  0.66647121  0.16073716  1
  Cu+  Cu70  1  0.49821645  0.66712417  0.50036879  1
  Cu+  Cu71  1  0.50172549  0.66248924  0.83270734  1
  Cu+  Cu72  1  0.83467429  -0.00256252  0.16341390  1
  Cu+  Cu73  1  0.83466581  0.00277318  0.49702698  1
  Cu+  Cu74  1  0.83442228  0.00063346  0.83704565  1
  Cu+  Cu75  1  0.82322352  0.33564036  0.16765576  1
  Cu+  Cu76  1  0.84138199  0.33149890  0.49746440  1
  Cu+  Cu77  1  0.83716086  0.33280334  0.83465860  1
  Cu+  Cu78  1  0.83580933  0.66286888  0.16596906  1
  Cu+  Cu79  1  0.83305640  0.66835780  0.50075994  1
  Cu+  Cu80  1  0.83388302  0.66728889  0.83113042  1
  Cu+  Cu81  1  -0.00103694  0.16447319  0.16592694  1
  Cu+  Cu82  1  0.00148419  0.17591230  0.49976766  1
  Cu+  Cu83  1  -0.00174162  0.17334272  0.83801670  1
  Cu+  Cu84  1  -0.00245314  0.50282930  0.16592559  1
  Cu+  Cu85  1  -0.00458317  0.49722728  0.49437989  1
  Cu+  Cu86  1  0.00663008  0.49935969  0.83367989  1
  Cu+  Cu87  1  0.00024665  0.83547447  0.17117174  1
  Cu+  Cu88  1  0.00241383  0.83298756  0.50162370  1
  Cu+  Cu89  1  0.00074506  0.84222455  0.82910668  1
  Cu+  Cu90  1  0.33174231  0.16733134  0.16861350  1
  Cu+  Cu91  1  0.33271457  0.16308983  0.50064774  1
  Cu+  Cu92  1  0.33020132  0.16440760  0.83503570  1
  Cu+  Cu93  1  0.33279275  0.50621279  0.16547791  1
  Cu+  Cu94  1  0.33438437  0.50273117  0.49675516  1
  Cu+  Cu95  1  0.33501785  0.49885966  0.83154877  1
  Cu+  Cu96  1  0.33191332  0.83347596  0.16733893  1
  Cu+  Cu97  1  0.33364818  0.83249816  0.50185125  1
  Cu+  Cu98  1  0.33733099  0.83611460  0.83108416  1
  Cu+  Cu99  1  0.65592001  0.16798494  0.16369086  1
  Cu+  Cu100  1  0.66954711  0.16512877  0.49857148  1
  Cu+  Cu101  1  0.67042319  0.16282386  0.83291213  1
  Cu+  Cu102  1  0.66968574  0.49488318  0.16991391  1
  Cu+  Cu103  1  0.66626885  0.49690980  0.50195567  1
  Cu+  Cu104  1  0.66599963  0.49700291  0.83429021  1
  Cu+  Cu105  1  0.66625598  0.83065962  0.16171815  1
  Cu+  Cu106  1  0.66596222  0.83539763  0.50138198  1
  Cu+  Cu107  1  0.67013650  0.82782241  0.83385047  1
  Cu+  Cu108  1  0.73881758  0.07405407  0.92498903  1
  Cu+  Cu109  1  0.92575943  0.59340794  0.25872796  1
  Cu+  Cu110  1  0.07677230  0.25541147  0.40010830  1
  Cu+  Cu111  1  0.92620710  0.40508219  0.39976803  1
  Cu+  Cu112  1  0.59681695  0.73286375  0.07842534  1
  Cu+  Cu113  1  0.40664294  0.92873729  0.73752320  1
  Cu+  Cu114  1  0.74537366  0.73473084  0.92206748  1
  Cu+  Cu115  1  0.92960437  0.92165710  0.92470567  1
  Cu+  Cu116  1  0.26150804  0.59839233  0.25450702  1
  Cu+  Cu117  1  0.91719411  0.59945014  0.59886223  1
  Cu+  Cu118  1  0.07818476  0.40922494  0.92806000  1
  Cu+  Cu119  1  0.91669888  0.26235625  0.93469608  1
  Cu+  Cu120  1  0.26417151  0.58774197  0.59186726  1
  Cu+  Cu121  1  0.26248165  0.07270610  0.40763897  1
  Cu+  Cu122  1  0.58713588  0.25665604  0.26527261  1
  Cu+  Cu123  1  0.26694197  0.74265688  0.74464008  1
  Cu+  Cu124  1  0.92901314  0.26071301  0.59577672  1
  Cu+  Cu125  1  0.73894564  0.40936162  0.26486825  1
  Cu+  Cu126  1  0.93094452  0.07222708  0.07715584  1
  Cu+  Cu127  1  0.40396466  0.59251134  0.06758836  1
  Cu+  Cu128  1  0.07064799  0.93278983  0.73543616  1
  Cu+  Cu129  1  0.40725877  0.59841334  0.41171253  1
  Cu+  Cu130  1  0.59903954  0.92827004  0.59448928  1
  Cu+  Cu131  1  0.58405867  0.07195454  0.07385535  1
  Cu+  Cu132  1  0.92491946  0.92804955  0.26424524  1
  Te2-  Te133  1  0.25096444  0.25053385  0.08166711  1
  Te2-  Te134  1  0.25369843  0.25330223  0.41607953  1
  Te2-  Te135  1  0.25016670  0.25335128  0.75200179  1
  Te2-  Te136  1  0.24955416  0.58983033  0.07630442  1
  Te2-  Te137  1  0.25201937  0.59069518  0.41040785  1
  Te2-  Te138  1  0.25773608  0.58774726  0.74455244  1
  Te2-  Te139  1  0.25023576  0.91917252  0.08374445  1
  Te2-  Te140  1  0.25302398  0.91788974  0.41547351  1
  Te2-  Te141  1  0.25362502  0.92566890  0.74797604  1
  Te2-  Te142  1  0.57955226  0.25639786  0.07850484  1
  Te2-  Te143  1  0.58550650  0.25240583  0.41758184  1
  Te2-  Te144  1  0.58680290  0.24868711  0.75038361  1
  Te2-  Te145  1  0.59043112  0.58116736  0.08228096  1
  Te2-  Te146  1  0.58820183  0.58607467  0.41881458  1
  Te2-  Te147  1  0.58645200  0.58194668  0.74765402  1
  Te2-  Te148  1  0.58579443  0.91905723  0.07856612  1
  Te2-  Te149  1  0.58475551  0.91680074  0.41121077  1
  Te2-  Te150  1  0.59287322  0.91823270  0.74927046  1
  Te2-  Te151  1  0.91463358  0.25421649  0.08541139  1
  Te2-  Te152  1  0.92123013  0.25273367  0.40205451  1
  Te2-  Te153  1  0.92114867  0.25451403  0.74692919  1
  Te2-  Te154  1  0.91958235  0.58570659  0.07720513  1
  Te2-  Te155  1  0.91817921  0.58912313  0.41102274  1
  Te2-  Te156  1  0.92315574  0.58658844  0.75034090  1
  Te2-  Te157  1  0.92209067  0.91726661  0.07664934  1
  Te2-  Te158  1  0.92198063  0.91982117  0.41603950  1
  Te2-  Te159  1  0.91628919  0.92499263  0.74213245  1
  Te2-  Te160  1  0.25322025  0.07865077  0.25358761  1
  Te2-  Te161  1  0.25162010  0.08398082  0.59201142  1
  Te2-  Te162  1  0.24764933  0.07953034  0.91844657  1
  Te2-  Te163  1  0.25303788  0.41486562  0.24810977  1
  Te2-  Te164  1  0.24936663  0.41504465  0.57848189  1
  Te2-  Te165  1  0.25334803  0.41595914  0.91790539  1
  Te2-  Te166  1  0.25324857  0.75021920  0.25622873  1
  Te2-  Te167  1  0.25637365  0.74673555  0.59027589  1
  Te2-  Te168  1  0.25406979  0.75240001  0.91849742  1
  Te2-  Te169  1  0.58132706  0.07985616  0.25296898  1
  Te2-  Te170  1  0.58983795  0.08154538  0.58767746  1
  Te2-  Te171  1  0.58568575  0.07553411  0.91948592  1
  Te2-  Te172  1  0.58399254  0.41565882  0.26015586  1
  Te2-  Te173  1  0.58571258  0.41204532  0.58731590  1
  Te2-  Te174  1  0.58477500  0.41334386  0.92171029  1
  Te2-  Te175  1  0.58514421  0.74559900  0.24944194  1
  Te2-  Te176  1  0.58397706  0.74793467  0.58585817  1
  Te2-  Te177  1  0.58913237  0.74029862  0.91924381  1
  Te2-  Te178  1  0.91689036  0.08081683  0.25277864  1
  Te2-  Te179  1  0.92193382  0.08318790  0.58071990  1
  Te2-  Te180  1  0.92755658  0.07662769  0.92167161  1
  Te2-  Te181  1  0.92163992  0.40831505  0.24699487  1
  Te2-  Te182  1  0.92145704  0.41371268  0.58842852  1
  Te2-  Te183  1  0.92296451  0.41492947  0.92256146  1
  Te2-  Te184  1  0.91847040  0.74696685  0.25350755  1
  Te2-  Te185  1  0.92041989  0.75008003  0.58773666  1
  Te2-  Te186  1  0.92279877  0.74989694  0.91350867  1
  Te2-  Te187  1  0.08026066  0.25245029  0.24988450  1
  Te2-  Te188  1  0.08212892  0.25805627  0.59076356  1
  Te2-  Te189  1  0.07878054  0.25553792  0.92621380  1
  Te2-  Te190  1  0.07856830  0.58883068  0.25186547  1
  Te2-  Te191  1  0.07422172  0.58449839  0.58293683  1
  Te2-  Te192  1  0.08510865  0.59187450  0.91531737  1
  Te2-  Te193  1  0.07995504  0.92029407  0.25888667  1
  Te2-  Te194  1  0.08272647  0.92208947  0.58551194  1
  Te2-  Te195  1  0.08257948  0.92082677  0.92379213  1
  Te2-  Te196  1  0.40945923  0.25331506  0.25492189  1
  Te2-  Te197  1  0.41423935  0.24833024  0.58693654  1
  Te2-  Te198  1  0.41406364  0.24842851  0.91893924  1
  Te2-  Te199  1  0.41477754  0.59124708  0.25649764  1
  Te2-  Te200  1  0.41599185  0.58540782  0.59009230  1
  Te2-  Te201  1  0.41216992  0.58681829  0.91735600  1
  Te2-  Te202  1  0.41521790  0.91809380  0.25015868  1
  Te2-  Te203  1  0.41036215  0.92271399  0.58476552  1
  Te2-  Te204  1  0.41918794  0.91424600  0.92220162  1
  Te2-  Te205  1  0.74102195  0.25087458  0.25268229  1
  Te2-  Te206  1  0.75002896  0.25305973  0.58177681  1
  Te2-  Te207  1  0.75049433  0.25049282  0.92001235  1
  Te2-  Te208  1  0.74794786  0.58513101  0.25288485  1
  Te2-  Te209  1  0.74869074  0.58348872  0.58506232  1
  Te2-  Te210  1  0.74845047  0.58299978  0.91844284  1
  Te2-  Te211  1  0.74632720  0.91645542  0.24815353  1
  Te2-  Te212  1  0.75045997  0.92287873  0.58519653  1
  Te2-  Te213  1  0.74308575  0.92050674  0.91859863  1
  Te2-  Te214  1  0.08205267  0.07762147  0.08145684  1
  Te2-  Te215  1  0.07916973  0.08190682  0.41828516  1
  Te2-  Te216  1  0.07489521  0.08633834  0.74752437  1
  Te2-  Te217  1  0.07920613  0.41590203  0.08144767  1
  Te2-  Te218  1  0.08038526  0.41586627  0.40497929  1
  Te2-  Te219  1  0.08458402  0.41699389  0.74277045  1
  Te2-  Te220  1  0.07964199  0.74899390  0.08386874  1
  Te2-  Te221  1  0.08318629  0.74592819  0.41970320  1
  Te2-  Te222  1  0.07857690  0.75018769  0.74840421  1
  Te2-  Te223  1  0.40866605  0.08089862  0.08100881  1
  Te2-  Te224  1  0.41651679  0.07738697  0.41472644  1
  Te2-  Te225  1  0.41236149  0.08045185  0.74789669  1
  Te2-  Te226  1  0.41538462  0.41508278  0.08619380  1
  Te2-  Te227  1  0.41355378  0.41123124  0.41665155  1
  Te2-  Te228  1  0.41509448  0.41067145  0.74967326  1
  Te2-  Te229  1  0.40816083  0.74771612  0.07772337  1
  Te2-  Te230  1  0.41243482  0.74951030  0.41292935  1
  Te2-  Te231  1  0.41964958  0.74606300  0.74523768  1
  Te2-  Te232  1  0.74023943  0.07682555  0.08066150  1
  Te2-  Te233  1  0.74764613  0.08019638  0.41236786  1
  Te2-  Te234  1  0.75367390  0.08160611  0.74468169  1
  Te2-  Te235  1  0.74522450  0.41433108  0.07593790  1
  Te2-  Te236  1  0.74753620  0.41134120  0.41591995  1
  Te2-  Te237  1  0.75062822  0.41337271  0.74982883  1
  Te2-  Te238  1  0.75045942  0.74299045  0.07758387  1
  Te2-  Te239  1  0.74747720  0.74972132  0.41537782  1
  Te2-  Te240  1  0.74899128  0.74654159  0.74368485  1
