# generated using pymatgen
data_Ti27(Cu53Te54)2
_symmetry_space_group_name_H-M   'P 1'
_cell_length_a   17.88150454
_cell_length_b   17.88184170
_cell_length_c   17.87774069
_cell_angle_alpha   89.93602274
_cell_angle_beta   90.00586079
_cell_angle_gamma   90.03554766
_symmetry_Int_Tables_number   1
_chemical_formula_structural   Ti27(Cu53Te54)2
_chemical_formula_sum   'Ti27 Cu106 Te108'
_cell_volume   5716.47858073
_cell_formula_units_Z   1
loop_
 _symmetry_equiv_pos_site_id
 _symmetry_equiv_pos_as_xyz
  1  'x, y, z'
loop_
 _atom_type_symbol
 _atom_type_oxidation_number
  Ti4+  4.0
  Cu+  1.0
  Te2-  -2.0
loop_
 _atom_site_type_symbol
 _atom_site_label
 _atom_site_symmetry_multiplicity
 _atom_site_fract_x
 _atom_site_fract_y
 _atom_site_fract_z
 _atom_site_occupancy
  Ti4+  Ti0  1  0.16829312  0.16664342  0.16824184  1
  Ti4+  Ti1  1  0.16530343  0.16608353  0.50342529  1
  Ti4+  Ti2  1  0.16783510  0.16661201  0.83572232  1
  Ti4+  Ti3  1  0.16760971  0.50164693  0.16801811  1
  Ti4+  Ti4  1  0.16686437  0.50141626  0.50159496  1
  Ti4+  Ti5  1  0.16414591  0.50058596  0.83438702  1
  Ti4+  Ti6  1  0.16643003  0.83045892  0.16944450  1
  Ti4+  Ti7  1  0.16619468  0.83592101  0.49748220  1
  Ti4+  Ti8  1  0.16870981  0.83341273  0.83311287  1
  Ti4+  Ti9  1  0.49912874  0.16572473  0.16753188  1
  Ti4+  Ti10  1  0.50012549  0.16905053  0.49519331  1
  Ti4+  Ti11  1  0.50074992  0.16734150  0.82855947  1
  Ti4+  Ti12  1  0.50064219  0.50017685  0.16461469  1
  Ti4+  Ti13  1  0.50036338  0.50168375  0.49754884  1
  Ti4+  Ti14  1  0.49693634  0.49576426  0.83425059  1
  Ti4+  Ti15  1  0.50007872  0.82994321  0.16724569  1
  Ti4+  Ti16  1  0.49953585  0.83438612  0.49936481  1
  Ti4+  Ti17  1  0.49957094  0.83616213  0.83278356  1
  Ti4+  Ti18  1  0.83475483  0.16297217  0.16986076  1
  Ti4+  Ti19  1  0.83375273  0.16906827  0.49837339  1
  Ti4+  Ti20  1  0.83048947  0.16574024  0.83584872  1
  Ti4+  Ti21  1  0.83598352  0.50021796  0.16841225  1
  Ti4+  Ti22  1  0.83143685  0.50137509  0.49711551  1
  Ti4+  Ti23  1  0.83041289  0.49987798  0.83427669  1
  Ti4+  Ti24  1  0.83045599  0.83088771  0.16580380  1
  Ti4+  Ti25  1  0.83264742  0.83533876  0.50178677  1
  Ti4+  Ti26  1  0.83427982  0.83207785  0.83353591  1
  Cu+  Cu27  1  0.16663104  0.16841513  0.00316435  1
  Cu+  Cu28  1  0.16644608  0.16439938  0.33683270  1
  Cu+  Cu29  1  0.16736264  0.16364237  0.67062449  1
  Cu+  Cu30  1  0.16500462  0.50161982  0.00105911  1
  Cu+  Cu31  1  0.16441562  0.50513444  0.33563585  1
  Cu+  Cu32  1  0.16584798  0.49801157  0.66894858  1
  Cu+  Cu33  1  0.16821208  0.83003447  0.00136027  1
  Cu+  Cu34  1  0.17210410  0.83294506  0.33401550  1
  Cu+  Cu35  1  0.16527325  0.83586321  0.66382243  1
  Cu+  Cu36  1  0.49839525  0.16684257  -0.00148716  1
  Cu+  Cu37  1  0.50233757  0.16383887  0.33200353  1
  Cu+  Cu38  1  0.49806232  0.16828365  0.65778982  1
  Cu+  Cu39  1  0.50025221  0.50246282  -0.00391956  1
  Cu+  Cu40  1  0.50166880  0.49794651  0.32807234  1
  Cu+  Cu41  1  0.49719334  0.49720665  0.66773462  1
  Cu+  Cu42  1  0.49802221  0.83291746  0.00142878  1
  Cu+  Cu43  1  0.50227617  0.82829140  0.33608304  1
  Cu+  Cu44  1  0.49904914  0.83788110  0.66534783  1
  Cu+  Cu45  1  0.83326139  0.16072126  0.00399429  1
  Cu+  Cu46  1  0.83933796  0.17046715  0.33343263  1
  Cu+  Cu47  1  0.82923743  0.16971479  0.66798073  1
  Cu+  Cu48  1  0.83338787  0.50299952  0.00100609  1
  Cu+  Cu49  1  0.84017000  0.49655175  0.33633816  1
  Cu+  Cu50  1  0.82906238  0.50025267  0.66157467  1
  Cu+  Cu51  1  0.83367290  0.82975386  -0.00057996  1
  Cu+  Cu52  1  0.83307435  0.83496914  0.32959991  1
  Cu+  Cu53  1  0.83122618  0.83613373  0.66916620  1
  Cu+  Cu54  1  0.16549929  -0.00207796  0.17250059  1
  Cu+  Cu55  1  0.16911043  0.00281152  0.49843566  1
  Cu+  Cu56  1  0.17139280  -0.00079401  0.83369610  1
  Cu+  Cu57  1  0.16806625  0.33448945  0.16802627  1
  Cu+  Cu58  1  0.16431077  0.32995068  0.50732500  1
  Cu+  Cu59  1  0.16533127  0.33518772  0.83309534  1
  Cu+  Cu60  1  0.16932801  0.66796445  0.16426602  1
  Cu+  Cu61  1  0.16320945  0.66643956  0.49558390  1
  Cu+  Cu62  1  0.16504534  0.66733352  0.83397906  1
  Cu+  Cu63  1  0.49819878  -0.00286850  0.16673862  1
  Cu+  Cu64  1  0.49981310  0.00085378  0.49729078  1
  Cu+  Cu65  1  0.49750627  0.00419446  0.83489440  1
  Cu+  Cu66  1  0.49558320  0.33512978  0.16731098  1
  Cu+  Cu67  1  0.50135819  0.33624856  0.49504447  1
  Cu+  Cu68  1  0.50600992  0.33037871  0.83066084  1
  Cu+  Cu69  1  0.50360975  0.66305968  0.16914786  1
  Cu+  Cu70  1  0.50172959  0.66991026  0.50040950  1
  Cu+  Cu71  1  0.49468564  0.66855234  0.83428953  1
  Cu+  Cu72  1  0.83368396  -0.00547704  0.17039695  1
  Cu+  Cu73  1  0.83328780  0.00358249  0.50003132  1
  Cu+  Cu74  1  0.83156735  -0.00252437  0.83175567  1
  Cu+  Cu75  1  0.83809302  0.33161963  0.17121428  1
  Cu+  Cu76  1  0.83138964  0.33484000  0.49254690  1
  Cu+  Cu77  1  0.82589888  0.33196655  0.83483044  1
  Cu+  Cu78  1  0.82881908  0.66577388  0.16346029  1
  Cu+  Cu79  1  0.83190655  0.66836510  0.50347145  1
  Cu+  Cu80  1  0.83663476  0.66529167  0.83588911  1
  Cu+  Cu81  1  0.00347646  0.16540919  0.17056087  1
  Cu+  Cu82  1  -0.00007445  0.16459829  0.50436754  1
  Cu+  Cu83  1  -0.00138712  0.16673436  0.83716682  1
  Cu+  Cu84  1  0.00370478  0.50079328  0.16772409  1
  Cu+  Cu85  1  0.00187683  0.50396899  0.49725178  1
  Cu+  Cu86  1  -0.00402102  0.50237601  0.83669191  1
  Cu+  Cu87  1  -0.00268283  0.83175551  0.16818871  1
  Cu+  Cu88  1  -0.00000190  0.83533203  0.50213625  1
  Cu+  Cu89  1  0.00353251  0.83274813  0.83410879  1
  Cu+  Cu90  1  0.33411536  0.16881440  0.16652405  1
  Cu+  Cu91  1  0.33304834  0.16675346  0.49974577  1
  Cu+  Cu92  1  0.33385723  0.15960897  0.82994117  1
  Cu+  Cu93  1  0.33461601  0.49709596  0.16632451  1
  Cu+  Cu94  1  0.33538639  0.50208692  0.50461359  1
  Cu+  Cu95  1  0.32906322  0.49607883  0.83082793  1
  Cu+  Cu96  1  0.33309931  0.82810244  0.16793975  1
  Cu+  Cu97  1  0.33277206  0.83347504  0.49776730  1
  Cu+  Cu98  1  0.33500694  0.83616799  0.83450799  1
  Cu+  Cu99  1  0.66622663  0.16358679  0.16688441  1
  Cu+  Cu100  1  0.66682736  0.17077139  0.49376133  1
  Cu+  Cu101  1  0.66759917  0.17577784  0.83090504  1
  Cu+  Cu102  1  0.67203596  0.50536854  0.16509830  1
  Cu+  Cu103  1  0.66483696  0.49803281  0.49567667  1
  Cu+  Cu104  1  0.65893110  0.49587368  0.83524985  1
  Cu+  Cu105  1  0.66576551  0.83049200  0.16495574  1
  Cu+  Cu106  1  0.66655894  0.83528848  0.50087777  1
  Cu+  Cu107  1  0.66898409  0.83427439  0.82994514  1
  Cu+  Cu108  1  0.59870921  0.58930644  0.25991237  1
  Cu+  Cu109  1  0.92696810  0.92070000  0.25774875  1
  Cu+  Cu110  1  0.26563658  0.92538150  0.25293478  1
  Cu+  Cu111  1  0.92857257  0.07262094  0.41189335  1
  Cu+  Cu112  1  0.93429035  0.26117388  0.25554749  1
  Cu+  Cu113  1  0.25977617  0.06795172  0.73909994  1
  Cu+  Cu114  1  0.73871643  0.92695247  0.73999436  1
  Cu+  Cu115  1  0.06998488  0.59848068  0.40353619  1
  Cu+  Cu116  1  0.25613523  0.40560526  0.73945592  1
  Cu+  Cu117  1  0.74141845  0.59367002  0.07030446  1
  Cu+  Cu118  1  0.40637435  0.07604181  0.92932835  1
  Cu+  Cu119  1  0.74419208  0.26320962  0.73598274  1
  Cu+  Cu120  1  0.59146911  0.41003642  0.73598809  1
  Cu+  Cu121  1  0.58964657  0.40824608  0.39966649  1
  Cu+  Cu122  1  0.93420333  0.40747993  0.41416634  1
  Cu+  Cu123  1  0.26179524  0.73576884  0.41140313  1
  Cu+  Cu124  1  0.74051397  0.25881356  0.39976052  1
  Cu+  Cu125  1  0.40278733  0.40623795  0.25922356  1
  Cu+  Cu126  1  0.26208620  0.74029090  0.06990935  1
  Cu+  Cu127  1  0.59573003  0.07053275  0.40747538  1
  Cu+  Cu128  1  0.59389286  0.25395057  0.93171786  1
  Cu+  Cu129  1  0.58610979  0.59902262  0.91729348  1
  Cu+  Cu130  1  0.26266493  0.08100224  0.40645168  1
  Cu+  Cu131  1  0.92911264  0.59354110  0.92994469  1
  Cu+  Cu132  1  0.59927578  0.74149646  0.41375931  1
  Te2-  Te133  1  0.25250173  0.25348236  0.08306060  1
  Te2-  Te134  1  0.24949915  0.25330829  0.41757740  1
  Te2-  Te135  1  0.25368606  0.25257538  0.74815017  1
  Te2-  Te136  1  0.25524314  0.58440732  0.08002213  1
  Te2-  Te137  1  0.25712264  0.58434288  0.41491466  1
  Te2-  Te138  1  0.25028586  0.58681996  0.74854870  1
  Te2-  Te139  1  0.25175098  0.91791905  0.08440670  1
  Te2-  Te140  1  0.25651772  0.92433408  0.41188389  1
  Te2-  Te141  1  0.25532103  0.91718115  0.74431922  1
  Te2-  Te142  1  0.58475729  0.25278180  0.08402142  1
  Te2-  Te143  1  0.58615525  0.25689146  0.40589619  1
  Te2-  Te144  1  0.58691906  0.25334213  0.73539244  1
  Te2-  Te145  1  0.58715754  0.58867301  0.07552618  1
  Te2-  Te146  1  0.58794264  0.58925015  0.41158384  1
  Te2-  Te147  1  0.58107170  0.58537449  0.74901597  1
  Te2-  Te148  1  0.58383357  0.91662554  0.08238156  1
  Te2-  Te149  1  0.58737290  0.91941545  0.41161741  1
  Te2-  Te150  1  0.58418984  0.92384931  0.74705263  1
  Te2-  Te151  1  0.91947163  0.24776934  0.08307991  1
  Te2-  Te152  1  0.92795712  0.25524476  0.41406895  1
  Te2-  Te153  1  0.91659578  0.25231562  0.75143021  1
  Te2-  Te154  1  0.92275722  0.58729525  0.08339204  1
  Te2-  Te155  1  0.91754840  0.59232868  0.41406214  1
  Te2-  Te156  1  0.91478120  0.58215628  0.74519520  1
  Te2-  Te157  1  0.91756350  0.91658749  0.08045385  1
  Te2-  Te158  1  0.92062409  0.92004980  0.41376710  1
  Te2-  Te159  1  0.92159877  0.91810514  0.74930155  1
  Te2-  Te160  1  0.25728475  0.07999290  0.25415875  1
  Te2-  Te161  1  0.25473993  0.07998732  0.58736881  1
  Te2-  Te162  1  0.25264832  0.08010839  0.92465572  1
  Te2-  Te163  1  0.25046962  0.41504928  0.25630215  1
  Te2-  Te164  1  0.25343341  0.41332823  0.58589059  1
  Te2-  Te165  1  0.24939620  0.41500179  0.92160809  1
  Te2-  Te166  1  0.25454747  0.74169412  0.25590541  1
  Te2-  Te167  1  0.24899770  0.74831030  0.58284434  1
  Te2-  Te168  1  0.25570848  0.74579063  0.91777378  1
  Te2-  Te169  1  0.58596574  0.07686633  0.25089488  1
  Te2-  Te170  1  0.58689774  0.08396225  0.58011671  1
  Te2-  Te171  1  0.58873793  0.08490122  0.91588645  1
  Te2-  Te172  1  0.59233241  0.41264200  0.24636676  1
  Te2-  Te173  1  0.58527493  0.41449348  0.58393147  1
  Te2-  Te174  1  0.58476886  0.40892536  0.92439683  1
  Te2-  Te175  1  0.59072351  0.74476176  0.25408429  1
  Te2-  Te176  1  0.58542061  0.75079781  0.58736666  1
  Te2-  Te177  1  0.58590838  0.75089679  0.91835027  1
  Te2-  Te178  1  0.92315331  0.07559111  0.25592323  1
  Te2-  Te179  1  0.91475268  0.08388615  0.58982836  1
  Te2-  Te180  1  0.91651402  0.07878488  0.91847963  1
  Te2-  Te181  1  0.92709116  0.41412987  0.25467697  1
  Te2-  Te182  1  0.91735267  0.41568629  0.58149092  1
  Te2-  Te183  1  0.91365680  0.41272009  0.91912629  1
  Te2-  Te184  1  0.91578598  0.74352842  0.25113281  1
  Te2-  Te185  1  0.91714802  0.75115043  0.58715437  1
  Te2-  Te186  1  0.92284477  0.74743070  0.92079666  1
  Te2-  Te187  1  0.08557110  0.25336365  0.25610776  1
  Te2-  Te188  1  0.07961488  0.24896807  0.59151856  1
  Te2-  Te189  1  0.08187182  0.25238112  0.91973270  1
  Te2-  Te190  1  0.08045519  0.59053651  0.25133661  1
  Te2-  Te191  1  0.08168835  0.58590987  0.58753267  1
  Te2-  Te192  1  0.08045302  0.58853970  0.92175971  1
  Te2-  Te193  1  0.07951206  0.91649340  0.25660736  1
  Te2-  Te194  1  0.08226255  0.92232070  0.58334899  1
  Te2-  Te195  1  0.08530223  0.91828815  0.92003608  1
  Te2-  Te196  1  0.41358574  0.25141457  0.25527361  1
  Te2-  Te197  1  0.41441248  0.25555938  0.57922838  1
  Te2-  Te198  1  0.41282661  0.25148860  0.91322409  1
  Te2-  Te199  1  0.41376762  0.58455350  0.25149755  1
  Te2-  Te200  1  0.41835880  0.58695226  0.58630302  1
  Te2-  Te201  1  0.40913483  0.58301975  0.91646389  1
  Te2-  Te202  1  0.41667569  0.91571598  0.25473594  1
  Te2-  Te203  1  0.41335661  0.92070227  0.58236734  1
  Te2-  Te204  1  0.41381868  0.92079465  0.92168295  1
  Te2-  Te205  1  0.74531832  0.25219307  0.25017423  1
  Te2-  Te206  1  0.74632595  0.25631478  0.58244733  1
  Te2-  Te207  1  0.74806035  0.25181964  0.92830337  1
  Te2-  Te208  1  0.75275008  0.58613382  0.25887093  1
  Te2-  Te209  1  0.74344188  0.58511391  0.58176499  1
  Te2-  Te210  1  0.74125262  0.58745074  0.91808936  1
  Te2-  Te211  1  0.74267611  0.91638500  0.25138506  1
  Te2-  Te212  1  0.74599606  0.92299386  0.58499378  1
  Te2-  Te213  1  0.74843342  0.91702624  0.92061742  1
  Te2-  Te214  1  0.08344254  0.07989422  0.08437537  1
  Te2-  Te215  1  0.07910069  0.07957101  0.41512631  1
  Te2-  Te216  1  0.08015606  0.08063463  0.75300670  1
  Te2-  Te217  1  0.08272543  0.41511214  0.08306056  1
  Te2-  Te218  1  0.08499584  0.41092855  0.41525043  1
  Te2-  Te219  1  0.07552803  0.41606282  0.75029627  1
  Te2-  Te220  1  0.07873012  0.74806132  0.08268492  1
  Te2-  Te221  1  0.07658996  0.75165397  0.41151346  1
  Te2-  Te222  1  0.08322367  0.74912435  0.74639766  1
  Te2-  Te223  1  0.41322196  0.07978199  0.08232671  1
  Te2-  Te224  1  0.41386928  0.08046559  0.41155614  1
  Te2-  Te225  1  0.41665092  0.07940202  0.73888697  1
  Te2-  Te226  1  0.41540473  0.41597212  0.07685103  1
  Te2-  Te227  1  0.41146187  0.41641199  0.41324990  1
  Te2-  Te228  1  0.41219177  0.40889041  0.74678792  1
  Te2-  Te229  1  0.41593303  0.74270532  0.08109715  1
  Te2-  Te230  1  0.41344141  0.74503812  0.41363630  1
  Te2-  Te231  1  0.41452985  0.75135324  0.74717398  1
  Te2-  Te232  1  0.74886721  0.07690220  0.08575900  1
  Te2-  Te233  1  0.74842984  0.08118732  0.40970726  1
  Te2-  Te234  1  0.74380073  0.08123653  0.74740532  1
  Te2-  Te235  1  0.75218157  0.41238825  0.08460553  1
  Te2-  Te236  1  0.74370003  0.41414640  0.40649582  1
  Te2-  Te237  1  0.74391924  0.41499857  0.74410038  1
  Te2-  Te238  1  0.74353253  0.74673673  0.07665911  1
  Te2-  Te239  1  0.75037307  0.74893680  0.41346757  1
  Te2-  Te240  1  0.74959304  0.74420776  0.74828725  1
