# generated using pymatgen
data_Ti27(Cu53Te54)2
_symmetry_space_group_name_H-M   'P 1'
_cell_length_a   17.88315663
_cell_length_b   17.88134734
_cell_length_c   17.88566924
_cell_angle_alpha   89.99571316
_cell_angle_beta   90.01686410
_cell_angle_gamma   89.99869586
_symmetry_Int_Tables_number   1
_chemical_formula_structural   Ti27(Cu53Te54)2
_chemical_formula_sum   'Ti27 Cu106 Te108'
_cell_volume   5719.38845687
_cell_formula_units_Z   1
loop_
 _symmetry_equiv_pos_site_id
 _symmetry_equiv_pos_as_xyz
  1  'x, y, z'
loop_
 _atom_type_symbol
 _atom_type_oxidation_number
  Ti4+  4.0
  Cu+  1.0
  Te2-  -2.0
loop_
 _atom_site_type_symbol
 _atom_site_label
 _atom_site_symmetry_multiplicity
 _atom_site_fract_x
 _atom_site_fract_y
 _atom_site_fract_z
 _atom_site_occupancy
  Ti4+  Ti0  1  0.16618651  0.16574693  0.16446125  1
  Ti4+  Ti1  1  0.16929028  0.16786641  0.49884509  1
  Ti4+  Ti2  1  0.16646677  0.16649141  0.83294435  1
  Ti4+  Ti3  1  0.16758501  0.49966023  0.16786887  1
  Ti4+  Ti4  1  0.16367650  0.49931380  0.50083294  1
  Ti4+  Ti5  1  0.16521666  0.49987482  0.83487457  1
  Ti4+  Ti6  1  0.16593424  0.83507783  0.16641657  1
  Ti4+  Ti7  1  0.16868349  0.83252843  0.50109571  1
  Ti4+  Ti8  1  0.16375277  0.83192346  0.83345936  1
  Ti4+  Ti9  1  0.50126700  0.16538468  0.16763925  1
  Ti4+  Ti10  1  0.50215982  0.16525269  0.50205107  1
  Ti4+  Ti11  1  0.49975378  0.16457893  0.83291743  1
  Ti4+  Ti12  1  0.50121156  0.49754910  0.16258486  1
  Ti4+  Ti13  1  0.50023734  0.50148739  0.49935748  1
  Ti4+  Ti14  1  0.49802995  0.50250364  0.83812899  1
  Ti4+  Ti15  1  0.49887954  0.83200730  0.16658127  1
  Ti4+  Ti16  1  0.50175979  0.83279549  0.49852133  1
  Ti4+  Ti17  1  0.49783122  0.83160872  0.83268891  1
  Ti4+  Ti18  1  0.83399630  0.16726890  0.17168778  1
  Ti4+  Ti19  1  0.83249300  0.16839366  0.50024383  1
  Ti4+  Ti20  1  0.83324114  0.17032029  0.83414161  1
  Ti4+  Ti21  1  0.83720781  0.49701909  0.16260966  1
  Ti4+  Ti22  1  0.83575475  0.49889916  0.49803106  1
  Ti4+  Ti23  1  0.83001596  0.50194524  0.82752850  1
  Ti4+  Ti24  1  0.83333002  0.83258932  0.17155928  1
  Ti4+  Ti25  1  0.83534827  0.83691333  0.50045161  1
  Ti4+  Ti26  1  0.83213339  0.83555985  0.83501136  1
  Cu+  Cu27  1  0.16533246  0.16515138  -0.00156727  1
  Cu+  Cu28  1  0.16840725  0.16694356  0.32980279  1
  Cu+  Cu29  1  0.16802852  0.16623594  0.66634299  1
  Cu+  Cu30  1  0.16542266  0.50101637  0.00480684  1
  Cu+  Cu31  1  0.16844717  0.49607719  0.33760609  1
  Cu+  Cu32  1  0.16286769  0.50194746  0.66516402  1
  Cu+  Cu33  1  0.16548361  0.83854699  -0.00164100  1
  Cu+  Cu34  1  0.16766163  0.83392423  0.33423388  1
  Cu+  Cu35  1  0.16682346  0.82916828  0.66786503  1
  Cu+  Cu36  1  0.50253226  0.16343357  -0.00046743  1
  Cu+  Cu37  1  0.50099658  0.16615963  0.33695113  1
  Cu+  Cu38  1  0.50082768  0.16425844  0.66613113  1
  Cu+  Cu39  1  0.49666220  0.50529116  -0.00033967  1
  Cu+  Cu40  1  0.50204394  0.50071417  0.33079228  1
  Cu+  Cu41  1  0.50125821  0.50256426  0.67212751  1
  Cu+  Cu42  1  0.49648373  0.83169093  -0.00009351  1
  Cu+  Cu43  1  0.50070821  0.83277712  0.33240027  1
  Cu+  Cu44  1  0.49782874  0.82921875  0.66199605  1
  Cu+  Cu45  1  0.83262549  0.17039232  0.00512134  1
  Cu+  Cu46  1  0.82974759  0.16323996  0.33367247  1
  Cu+  Cu47  1  0.83260914  0.17143902  0.66710134  1
  Cu+  Cu48  1  0.83451690  0.50060579  -0.01148474  1
  Cu+  Cu49  1  0.83953539  0.49505196  0.32962866  1
  Cu+  Cu50  1  0.83280991  0.49383977  0.66403356  1
  Cu+  Cu51  1  0.82870987  0.83288784  0.00476245  1
  Cu+  Cu52  1  0.84075814  0.83746103  0.33598044  1
  Cu+  Cu53  1  0.83494871  0.83628290  0.66859589  1
  Cu+  Cu54  1  0.16455217  0.00251782  0.16379402  1
  Cu+  Cu55  1  0.16929504  -0.00018054  0.49983591  1
  Cu+  Cu56  1  0.16548266  -0.00125708  0.83531937  1
  Cu+  Cu57  1  0.17125056  0.33067518  0.16812797  1
  Cu+  Cu58  1  0.16827882  0.33568420  0.49866416  1
  Cu+  Cu59  1  0.16505996  0.32976502  0.83385384  1
  Cu+  Cu60  1  0.16152718  0.67058175  0.16731246  1
  Cu+  Cu61  1  0.16329448  0.66224566  0.50223219  1
  Cu+  Cu62  1  0.16748729  0.66710640  0.83023461  1
  Cu+  Cu63  1  0.49988341  -0.00260156  0.16639269  1
  Cu+  Cu64  1  0.50424782  -0.00093893  0.50062899  1
  Cu+  Cu65  1  0.50017298  -0.00066808  0.82998284  1
  Cu+  Cu66  1  0.50366211  0.33139099  0.16575550  1
  Cu+  Cu67  1  0.49961519  0.33097861  0.50100096  1
  Cu+  Cu68  1  0.49928969  0.33387467  0.83620581  1
  Cu+  Cu69  1  0.49954852  0.66382691  0.16231742  1
  Cu+  Cu70  1  0.50096700  0.66735130  0.50046019  1
  Cu+  Cu71  1  0.49749546  0.66872108  0.84303868  1
  Cu+  Cu72  1  0.83404921  -0.00043510  0.17806142  1
  Cu+  Cu73  1  0.83440849  0.00279622  0.50304348  1
  Cu+  Cu74  1  0.83186815  0.00227257  0.83870142  1
  Cu+  Cu75  1  0.82821793  0.33251396  0.16711677  1
  Cu+  Cu76  1  0.83364969  0.33645791  0.49817189  1
  Cu+  Cu77  1  0.82384303  0.33259765  0.82112706  1
  Cu+  Cu78  1  0.83912239  0.66229004  0.16767518  1
  Cu+  Cu79  1  0.83634897  0.67101916  0.49682038  1
  Cu+  Cu80  1  0.83692788  0.67199730  0.82933436  1
  Cu+  Cu81  1  0.00127698  0.16628891  0.16595092  1
  Cu+  Cu82  1  0.00238229  0.16899568  0.49905134  1
  Cu+  Cu83  1  0.00117135  0.16531433  0.83473495  1
  Cu+  Cu84  1  0.00427129  0.50593878  0.16502964  1
  Cu+  Cu85  1  -0.00086480  0.49667056  0.49604514  1
  Cu+  Cu86  1  -0.00315980  0.50298248  0.83021339  1
  Cu+  Cu87  1  -0.00102010  0.83804458  0.17073449  1
  Cu+  Cu88  1  0.00320554  0.83420777  0.49954262  1
  Cu+  Cu89  1  -0.00412256  0.83074730  0.83092055  1
  Cu+  Cu90  1  0.33335965  0.16733144  0.16765790  1
  Cu+  Cu91  1  0.33878644  0.16767475  0.49829838  1
  Cu+  Cu92  1  0.33298600  0.16573428  0.83102001  1
  Cu+  Cu93  1  0.33307267  0.49523230  0.15892632  1
  Cu+  Cu94  1  0.33132425  0.50099046  0.50278616  1
  Cu+  Cu95  1  0.33229904  0.49821012  0.83781160  1
  Cu+  Cu96  1  0.33053684  0.83443468  0.16670336  1
  Cu+  Cu97  1  0.33636252  0.83066379  0.50127066  1
  Cu+  Cu98  1  0.32882309  0.83051770  0.83565574  1
  Cu+  Cu99  1  0.66875778  0.16496904  0.17152580  1
  Cu+  Cu100  1  0.66392382  0.16599501  0.50058777  1
  Cu+  Cu101  1  0.66412995  0.16798833  0.83256781  1
  Cu+  Cu102  1  0.66930260  0.49378212  0.16266278  1
  Cu+  Cu103  1  0.66636782  0.50310997  0.50116760  1
  Cu+  Cu104  1  0.66317120  0.50366061  0.83933423  1
  Cu+  Cu105  1  0.66438978  0.83032509  0.16735252  1
  Cu+  Cu106  1  0.66891809  0.83637825  0.49990197  1
  Cu+  Cu107  1  0.66791864  0.83590925  0.83248679  1
  Cu+  Cu108  1  0.92927059  0.58908447  0.26008257  1
  Cu+  Cu109  1  0.73200774  0.25068452  0.73542676  1
  Cu+  Cu110  1  0.92945680  0.40386170  0.74364160  1
  Cu+  Cu111  1  0.73558676  0.40935097  0.58725490  1
  Cu+  Cu112  1  0.40796464  0.73691942  0.58715984  1
  Cu+  Cu113  1  0.73572314  0.06805843  0.26333976  1
  Cu+  Cu114  1  0.59526937  0.59977211  0.92950117  1
  Cu+  Cu115  1  0.73766899  0.25447294  0.07739259  1
  Cu+  Cu116  1  0.92707195  0.40093774  0.40121353  1
  Cu+  Cu117  1  0.74083847  0.40621843  0.91913260  1
  Cu+  Cu118  1  0.41457182  0.25894163  0.40741786  1
  Cu+  Cu119  1  0.26081672  0.25578290  0.25779153  1
  Cu+  Cu120  1  0.40344672  0.39959662  0.92143628  1
  Cu+  Cu121  1  0.92635180  0.59798993  0.91675436  1
  Cu+  Cu122  1  0.40025457  0.74563135  0.93010457  1
  Cu+  Cu123  1  0.40275943  0.59519457  0.07835247  1
  Cu+  Cu124  1  0.92471046  0.74413984  0.73609856  1
  Cu+  Cu125  1  0.26388133  0.41138949  0.41451840  1
  Cu+  Cu126  1  0.25459749  0.40192016  0.07268834  1
  Cu+  Cu127  1  0.26027783  0.73960084  0.74068268  1
  Cu+  Cu128  1  0.93132786  0.74523196  0.40717305  1
  Cu+  Cu129  1  0.25955040  0.92963985  0.92550338  1
  Cu+  Cu130  1  0.93292680  0.93216200  0.26485643  1
  Cu+  Cu131  1  0.73989013  0.40994283  0.26051118  1
  Cu+  Cu132  1  0.07587550  0.60010715  0.07351519  1
  Te2-  Te133  1  0.25487790  0.24977210  0.07617960  1
  Te2-  Te134  1  0.25777900  0.25606079  0.41058473  1
  Te2-  Te135  1  0.25220501  0.25249132  0.74778485  1
  Te2-  Te136  1  0.25010864  0.59121800  0.08190198  1
  Te2-  Te137  1  0.25129597  0.58604278  0.41582855  1
  Te2-  Te138  1  0.25288723  0.58187500  0.74751936  1
  Te2-  Te139  1  0.25260385  0.92210283  0.08094843  1
  Te2-  Te140  1  0.25483860  0.91639395  0.41632292  1
  Te2-  Te141  1  0.25085530  0.91762107  0.74795901  1
  Te2-  Te142  1  0.58721723  0.24986142  0.08040825  1
  Te2-  Te143  1  0.58745547  0.25349816  0.41477708  1
  Te2-  Te144  1  0.58179118  0.25504612  0.74629952  1
  Te2-  Te145  1  0.59142015  0.58527024  0.08086631  1
  Te2-  Te146  1  0.58506745  0.58611965  0.41415642  1
  Te2-  Te147  1  0.58324790  0.59000961  0.75286485  1
  Te2-  Te148  1  0.58438230  0.91627434  0.08049907  1
  Te2-  Te149  1  0.58670328  0.91824436  0.41280163  1
  Te2-  Te150  1  0.58222077  0.91438361  0.74583753  1
  Te2-  Te151  1  0.91974646  0.25382957  0.08529290  1
  Te2-  Te152  1  0.91847967  0.25070502  0.41187031  1
  Te2-  Te153  1  0.92318532  0.25209183  0.74657652  1
  Te2-  Te154  1  0.92105698  0.58599129  0.07292338  1
  Te2-  Te155  1  0.92246827  0.58782981  0.41198502  1
  Te2-  Te156  1  0.91787088  0.58749192  0.74007688  1
  Te2-  Te157  1  0.91432147  0.92021305  0.08456362  1
  Te2-  Te158  1  0.92443493  0.92643402  0.41799970  1
  Te2-  Te159  1  0.91728485  0.92390429  0.75091590  1
  Te2-  Te160  1  0.25262367  0.07920251  0.25015321  1
  Te2-  Te161  1  0.25459077  0.08333060  0.58328782  1
  Te2-  Te162  1  0.25398573  0.08138200  0.91967083  1
  Te2-  Te163  1  0.25770469  0.41376586  0.25476358  1
  Te2-  Te164  1  0.25060814  0.41527541  0.58843270  1
  Te2-  Te165  1  0.24936672  0.41089259  0.92121513  1
  Te2-  Te166  1  0.25011581  0.74868229  0.25125450  1
  Te2-  Te167  1  0.25337436  0.74110045  0.58674675  1
  Te2-  Te168  1  0.24738824  0.74357527  0.92436290  1
  Te2-  Te169  1  0.58379991  0.07850750  0.25514458  1
  Te2-  Te170  1  0.58784577  0.07931011  0.58779184  1
  Te2-  Te171  1  0.58619200  0.07874238  0.91674624  1
  Te2-  Te172  1  0.58626988  0.41266863  0.25180089  1
  Te2-  Te173  1  0.58279251  0.41507065  0.58717171  1
  Te2-  Te174  1  0.58464996  0.41325438  0.92367084  1
  Te2-  Te175  1  0.58248119  0.74412281  0.25100824  1
  Te2-  Te176  1  0.58980724  0.74749231  0.58390192  1
  Te2-  Te177  1  0.58942914  0.75200684  0.92141566  1
  Te2-  Te178  1  0.92504539  0.08407734  0.25749877  1
  Te2-  Te179  1  0.91906481  0.08649211  0.58618438  1
  Te2-  Te180  1  0.91616598  0.08564572  0.92167140  1
  Te2-  Te181  1  0.92616986  0.40976183  0.24592253  1
  Te2-  Te182  1  0.92317519  0.41133989  0.58588342  1
  Te2-  Te183  1  0.91555033  0.40946589  0.90913348  1
  Te2-  Te184  1  0.92507410  0.74383714  0.25459792  1
  Te2-  Te185  1  0.92163329  0.74912439  0.58575826  1
  Te2-  Te186  1  0.91864487  0.75023109  0.92476582  1
  Te2-  Te187  1  0.08097384  0.25251768  0.25094782  1
  Te2-  Te188  1  0.08458045  0.25291416  0.58407608  1
  Te2-  Te189  1  0.08021511  0.25143587  0.91986194  1
  Te2-  Te190  1  0.08441143  0.58619910  0.25817345  1
  Te2-  Te191  1  0.07531407  0.58389204  0.58516233  1
  Te2-  Te192  1  0.07987899  0.58855301  0.91929672  1
  Te2-  Te193  1  0.08421619  0.92279862  0.25525656  1
  Te2-  Te194  1  0.08473184  0.91798564  0.58623904  1
  Te2-  Te195  1  0.07530486  0.91767598  0.91632155  1
  Te2-  Te196  1  0.41576562  0.25502323  0.25304505  1
  Te2-  Te197  1  0.41544971  0.25167209  0.58848952  1
  Te2-  Te198  1  0.41312489  0.24827133  0.92089697  1
  Te2-  Te199  1  0.41376814  0.58106870  0.24764579  1
  Te2-  Te200  1  0.41429536  0.58401134  0.58801931  1
  Te2-  Te201  1  0.40412062  0.59032857  0.92353867  1
  Te2-  Te202  1  0.41388802  0.91731685  0.25195881  1
  Te2-  Te203  1  0.41565439  0.91994925  0.58418793  1
  Te2-  Te204  1  0.41352295  0.92065190  0.91813451  1
  Te2-  Te205  1  0.74493408  0.25512309  0.25865586  1
  Te2-  Te206  1  0.74314629  0.25582727  0.58419793  1
  Te2-  Te207  1  0.74289170  0.25424875  0.92194189  1
  Te2-  Te208  1  0.74993834  0.58015369  0.24945614  1
  Te2-  Te209  1  0.75280809  0.58748402  0.58324932  1
  Te2-  Te210  1  0.74893715  0.59406642  0.91677777  1
  Te2-  Te211  1  0.74334033  0.91475899  0.25772560  1
  Te2-  Te212  1  0.74973602  0.92031800  0.58691103  1
  Te2-  Te213  1  0.74639622  0.91946348  0.92154762  1
  Te2-  Te214  1  0.07906262  0.08142891  0.07890875  1
  Te2-  Te215  1  0.08452286  0.08289912  0.41425489  1
  Te2-  Te216  1  0.08199255  0.08056060  0.74770182  1
  Te2-  Te217  1  0.08150573  0.41121539  0.08427174  1
  Te2-  Te218  1  0.07892421  0.40985830  0.41127463  1
  Te2-  Te219  1  0.08208020  0.41405708  0.74807459  1
  Te2-  Te220  1  0.07667389  0.75309562  0.07921788  1
  Te2-  Te221  1  0.08373442  0.74606252  0.41371518  1
  Te2-  Te222  1  0.07763946  0.74413944  0.74576677  1
  Te2-  Te223  1  0.41541723  0.08162666  0.08282486  1
  Te2-  Te224  1  0.41705459  0.07768886  0.41567116  1
  Te2-  Te225  1  0.41422756  0.08049172  0.74676326  1
  Te2-  Te226  1  0.41528994  0.40614174  0.07615281  1
  Te2-  Te227  1  0.41529445  0.41490444  0.41168016  1
  Te2-  Te228  1  0.41425103  0.41611687  0.75019818  1
  Te2-  Te229  1  0.40811012  0.74677534  0.08082257  1
  Te2-  Te230  1  0.41549293  0.74631416  0.41239139  1
  Te2-  Te231  1  0.41257526  0.74225733  0.74593576  1
  Te2-  Te232  1  0.75092314  0.07866645  0.08595003  1
  Te2-  Te233  1  0.74545353  0.07931572  0.41744493  1
  Te2-  Te234  1  0.74928277  0.08294381  0.74907287  1
  Te2-  Te235  1  0.74877474  0.41320562  0.07252075  1
  Te2-  Te236  1  0.74501149  0.41590973  0.41217391  1
  Te2-  Te237  1  0.73434377  0.41743149  0.74268446  1
  Te2-  Te238  1  0.74969247  0.74436498  0.08725300  1
  Te2-  Te239  1  0.74959868  0.75198846  0.41357225  1
  Te2-  Te240  1  0.74693625  0.75027040  0.74683045  1
