# generated using pymatgen
data_Ti27(Cu53Te54)2
_symmetry_space_group_name_H-M   'P 1'
_cell_length_a   17.88141378
_cell_length_b   17.87999948
_cell_length_c   17.88006286
_cell_angle_alpha   89.94209052
_cell_angle_beta   89.97037617
_cell_angle_gamma   90.01696069
_symmetry_Int_Tables_number   1
_chemical_formula_structural   Ti27(Cu53Te54)2
_chemical_formula_sum   'Ti27 Cu106 Te108'
_cell_volume   5716.60384592
_cell_formula_units_Z   1
loop_
 _symmetry_equiv_pos_site_id
 _symmetry_equiv_pos_as_xyz
  1  'x, y, z'
loop_
 _atom_type_symbol
 _atom_type_oxidation_number
  Ti4+  4.0
  Cu+  1.0
  Te2-  -2.0
loop_
 _atom_site_type_symbol
 _atom_site_label
 _atom_site_symmetry_multiplicity
 _atom_site_fract_x
 _atom_site_fract_y
 _atom_site_fract_z
 _atom_site_occupancy
  Ti4+  Ti0  1  0.16678876  0.16610275  0.16676045  1
  Ti4+  Ti1  1  0.17100424  0.16558040  0.49956941  1
  Ti4+  Ti2  1  0.16611916  0.16511432  0.83388020  1
  Ti4+  Ti3  1  0.16267405  0.50278516  0.16640742  1
  Ti4+  Ti4  1  0.16755398  0.50332557  0.49521112  1
  Ti4+  Ti5  1  0.16665508  0.49850313  0.83171770  1
  Ti4+  Ti6  1  0.16989274  0.83451269  0.16796961  1
  Ti4+  Ti7  1  0.16540092  0.83046754  0.50063472  1
  Ti4+  Ti8  1  0.16402521  0.83157015  0.83636116  1
  Ti4+  Ti9  1  0.50025519  0.16904616  0.16486475  1
  Ti4+  Ti10  1  0.50103793  0.16830474  0.49982744  1
  Ti4+  Ti11  1  0.49743865  0.16777219  0.83336396  1
  Ti4+  Ti12  1  0.50051402  0.49706040  0.16470013  1
  Ti4+  Ti13  1  0.49746106  0.50106216  0.50210313  1
  Ti4+  Ti14  1  0.50253436  0.49970175  0.83479678  1
  Ti4+  Ti15  1  0.49986927  0.82899429  0.16763762  1
  Ti4+  Ti16  1  0.50232210  0.83524499  0.49801412  1
  Ti4+  Ti17  1  0.49896060  0.83483427  0.83499758  1
  Ti4+  Ti18  1  0.83131456  0.16243291  0.16586177  1
  Ti4+  Ti19  1  0.84003073  0.16643066  0.50020314  1
  Ti4+  Ti20  1  0.83422696  0.16599990  0.83135774  1
  Ti4+  Ti21  1  0.83212084  0.49917085  0.16804912  1
  Ti4+  Ti22  1  0.83219982  0.49889901  0.50226088  1
  Ti4+  Ti23  1  0.83412556  0.49912853  0.83598805  1
  Ti4+  Ti24  1  0.83050483  0.83328721  0.16653972  1
  Ti4+  Ti25  1  0.82783179  0.83218488  0.50015795  1
  Ti4+  Ti26  1  0.83217785  0.83461274  0.83209099  1
  Cu+  Cu27  1  0.16393814  0.16606836  0.00192022  1
  Cu+  Cu28  1  0.16917052  0.16692041  0.33365304  1
  Cu+  Cu29  1  0.16853787  0.16380168  0.66508972  1
  Cu+  Cu30  1  0.16541687  0.49836774  0.00029638  1
  Cu+  Cu31  1  0.16336705  0.51193945  0.32885877  1
  Cu+  Cu32  1  0.16765433  0.50100904  0.66331335  1
  Cu+  Cu33  1  0.17116384  0.83524939  0.00036783  1
  Cu+  Cu34  1  0.16862961  0.82959390  0.33559036  1
  Cu+  Cu35  1  0.16213478  0.82976819  0.67198412  1
  Cu+  Cu36  1  0.50137619  0.17097126  -0.00400358  1
  Cu+  Cu37  1  0.49877412  0.17029821  0.33290296  1
  Cu+  Cu38  1  0.49918872  0.16796967  0.66675142  1
  Cu+  Cu39  1  0.49959497  0.49136168  -0.00041919  1
  Cu+  Cu40  1  0.49788083  0.49570981  0.33526887  1
  Cu+  Cu41  1  0.50238566  0.50536655  0.66631782  1
  Cu+  Cu42  1  0.49712925  0.83060022  0.00347096  1
  Cu+  Cu43  1  0.51013356  0.83172932  0.33245762  1
  Cu+  Cu44  1  0.49765753  0.83287538  0.66724850  1
  Cu+  Cu45  1  0.83035962  0.16444555  0.00102492  1
  Cu+  Cu46  1  0.83928542  0.16773513  0.32837486  1
  Cu+  Cu47  1  0.83915651  0.16245853  0.66778858  1
  Cu+  Cu48  1  0.83435326  0.49956365  0.00083079  1
  Cu+  Cu49  1  0.82992740  0.49672891  0.33542678  1
  Cu+  Cu50  1  0.83370834  0.49839509  0.67222793  1
  Cu+  Cu51  1  0.83290196  0.83364370  -0.00118315  1
  Cu+  Cu52  1  0.82547436  0.83322544  0.33357559  1
  Cu+  Cu53  1  0.82643991  0.84001879  0.66585888  1
  Cu+  Cu54  1  0.16703305  0.00155476  0.16970470  1
  Cu+  Cu55  1  0.16691146  -0.00025739  0.50351566  1
  Cu+  Cu56  1  0.16676343  -0.00461337  0.83740549  1
  Cu+  Cu57  1  0.16523888  0.33697051  0.16631519  1
  Cu+  Cu58  1  0.16623419  0.33181858  0.49479127  1
  Cu+  Cu59  1  0.16503845  0.32998093  0.83184269  1
  Cu+  Cu60  1  0.16919535  0.66692226  0.16965199  1
  Cu+  Cu61  1  0.16948355  0.66774807  0.49391174  1
  Cu+  Cu62  1  0.16512814  0.66554769  0.83217122  1
  Cu+  Cu63  1  0.49664095  0.00222001  0.16843957  1
  Cu+  Cu64  1  0.49968435  0.00430065  0.50157110  1
  Cu+  Cu65  1  0.49787648  0.00354433  0.83313256  1
  Cu+  Cu66  1  0.50274438  0.33481088  0.16157746  1
  Cu+  Cu67  1  0.49763708  0.33421746  0.49713897  1
  Cu+  Cu68  1  0.49902405  0.33368878  0.83994503  1
  Cu+  Cu69  1  0.50238282  0.66476654  0.16260335  1
  Cu+  Cu70  1  0.50264551  0.66800966  0.50081236  1
  Cu+  Cu71  1  0.49922718  0.66847515  0.83647963  1
  Cu+  Cu72  1  0.83130716  0.00015103  0.16338948  1
  Cu+  Cu73  1  0.83384393  -0.00370694  0.50161993  1
  Cu+  Cu74  1  0.83332676  -0.00031945  0.82968709  1
  Cu+  Cu75  1  0.83146934  0.32762841  0.16852159  1
  Cu+  Cu76  1  0.83961876  0.33523496  0.49986627  1
  Cu+  Cu77  1  0.83726306  0.33582329  0.83283656  1
  Cu+  Cu78  1  0.83006232  0.66561826  0.16912111  1
  Cu+  Cu79  1  0.82976905  0.66664671  0.50434682  1
  Cu+  Cu80  1  0.83050666  0.66564836  0.83255324  1
  Cu+  Cu81  1  -0.00248898  0.16354674  0.16781745  1
  Cu+  Cu82  1  0.01121632  0.16523948  0.49945490  1
  Cu+  Cu83  1  0.00033435  0.16446086  0.83133989  1
  Cu+  Cu84  1  -0.00189292  0.49961371  0.16706286  1
  Cu+  Cu85  1  0.00057806  0.50154243  0.49536495  1
  Cu+  Cu86  1  -0.00002314  0.49606968  0.83254028  1
  Cu+  Cu87  1  0.00203423  0.83153138  0.16806266  1
  Cu+  Cu88  1  -0.00556060  0.83022256  0.50248863  1
  Cu+  Cu89  1  -0.00218660  0.83431190  0.83841136  1
  Cu+  Cu90  1  0.33244003  0.16949392  0.16593759  1
  Cu+  Cu91  1  0.33520122  0.16702139  0.49996420  1
  Cu+  Cu92  1  0.33122264  0.16468243  0.83226352  1
  Cu+  Cu93  1  0.33065886  0.50124393  0.16623431  1
  Cu+  Cu94  1  0.33197139  0.50602014  0.50447087  1
  Cu+  Cu95  1  0.33592023  0.49663067  0.83389556  1
  Cu+  Cu96  1  0.34027892  0.83642394  0.16408187  1
  Cu+  Cu97  1  0.33383729  0.83056028  0.50019383  1
  Cu+  Cu98  1  0.32986306  0.83326636  0.83772594  1
  Cu+  Cu99  1  0.66875150  0.16393400  0.16419417  1
  Cu+  Cu100  1  0.66983238  0.16859341  0.50161380  1
  Cu+  Cu101  1  0.66478145  0.16825649  0.83369555  1
  Cu+  Cu102  1  0.66732618  0.49718664  0.16608041  1
  Cu+  Cu103  1  0.66094065  0.49882755  0.50376958  1
  Cu+  Cu104  1  0.67243692  0.50444574  0.83166827  1
  Cu+  Cu105  1  0.66188887  0.83105846  0.16820998  1
  Cu+  Cu106  1  0.66638256  0.83338510  0.49061438  1
  Cu+  Cu107  1  0.66565361  0.83648939  0.83097682  1
  Cu+  Cu108  1  0.41494199  0.93109118  0.07470864  1
  Cu+  Cu109  1  0.06699896  0.59875939  0.40466625  1
  Cu+  Cu110  1  0.26089057  0.92788033  0.92669365  1
  Cu+  Cu111  1  0.25481931  0.59619514  0.59668295  1
  Cu+  Cu112  1  0.59553816  0.73441899  0.40552557  1
  Cu+  Cu113  1  0.08232805  0.07242295  0.59465602  1
  Cu+  Cu114  1  0.73303544  0.93287200  0.74275382  1
  Cu+  Cu115  1  0.74435241  0.93343587  0.40429401  1
  Cu+  Cu116  1  0.26642302  0.59477456  0.25231977  1
  Cu+  Cu117  1  0.92793922  0.25892460  0.25075290  1
  Cu+  Cu118  1  0.93004360  0.07071432  0.74501190  1
  Cu+  Cu119  1  0.26532647  0.74425642  0.40616303  1
  Cu+  Cu120  1  0.59959997  0.40652006  0.07254853  1
  Cu+  Cu121  1  0.58877882  0.93215261  0.25452999  1
  Cu+  Cu122  1  0.08204359  0.25686163  0.40437663  1
  Cu+  Cu123  1  0.59806115  0.25946291  0.92278093  1
  Cu+  Cu124  1  0.40100667  0.40506868  0.92789830  1
  Cu+  Cu125  1  0.92975081  0.40699245  0.74148536  1
  Cu+  Cu126  1  0.92725280  0.41247192  0.40536932  1
  Cu+  Cu127  1  0.92574780  0.92007419  0.59033814  1
  Cu+  Cu128  1  0.59217866  0.59859912  0.59343334  1
  Cu+  Cu129  1  0.59430309  0.74073388  0.06993608  1
  Cu+  Cu130  1  0.58999269  0.40381545  0.40875134  1
  Cu+  Cu131  1  0.74495907  0.59464102  0.74114999  1
  Cu+  Cu132  1  0.92190397  0.92816018  0.93084294  1
  Te2-  Te133  1  0.24925609  0.25362808  0.08134231  1
  Te2-  Te134  1  0.25624205  0.25246554  0.41292890  1
  Te2-  Te135  1  0.25089747  0.24985534  0.74713198  1
  Te2-  Te136  1  0.25021784  0.58587377  0.07912637  1
  Te2-  Te137  1  0.26014564  0.58950633  0.40815346  1
  Te2-  Te138  1  0.25504399  0.58505013  0.74897959  1
  Te2-  Te139  1  0.25568411  0.92445980  0.08242373  1
  Te2-  Te140  1  0.25117112  0.91822204  0.41773153  1
  Te2-  Te141  1  0.25018867  0.91587356  0.74825456  1
  Te2-  Te142  1  0.59137249  0.25312147  0.07798755  1
  Te2-  Te143  1  0.58868650  0.25254938  0.41288794  1
  Te2-  Te144  1  0.58299878  0.25447632  0.74848414  1
  Te2-  Te145  1  0.58712975  0.58229414  0.07692917  1
  Te2-  Te146  1  0.58599268  0.58375576  0.41154382  1
  Te2-  Te147  1  0.58730003  0.59199604  0.74908481  1
  Te2-  Te148  1  0.58353006  0.92008986  0.08147332  1
  Te2-  Te149  1  0.58727443  0.92877951  0.41250359  1
  Te2-  Te150  1  0.58111768  0.92192704  0.74622332  1
  Te2-  Te151  1  0.91783086  0.24922389  0.08022389  1
  Te2-  Te152  1  0.92624089  0.25392652  0.41231943  1
  Te2-  Te153  1  0.92210166  0.25295660  0.74627735  1
  Te2-  Te154  1  0.91636603  0.58584144  0.08350125  1
  Te2-  Te155  1  0.91328040  0.58865451  0.41392413  1
  Te2-  Te156  1  0.92038214  0.58656302  0.74960764  1
  Te2-  Te157  1  0.92001791  0.91755988  0.08327582  1
  Te2-  Te158  1  0.91659510  0.91492983  0.41242258  1
  Te2-  Te159  1  0.92396798  0.91886299  0.74394271  1
  Te2-  Te160  1  0.25415170  0.08294915  0.25235676  1
  Te2-  Te161  1  0.25682680  0.07918397  0.58571517  1
  Te2-  Te162  1  0.25184684  0.08175047  0.92187327  1
  Te2-  Te163  1  0.24805336  0.41793246  0.25381524  1
  Te2-  Te164  1  0.24960637  0.41361725  0.58049635  1
  Te2-  Te165  1  0.24953542  0.41145395  0.91904292  1
  Te2-  Te166  1  0.26030033  0.74873362  0.25254674  1
  Te2-  Te167  1  0.25146555  0.74780870  0.58987069  1
  Te2-  Te168  1  0.25047545  0.74377400  0.91971192  1
  Te2-  Te169  1  0.58522986  0.08465381  0.25250957  1
  Te2-  Te170  1  0.58695495  0.08404094  0.58626969  1
  Te2-  Te171  1  0.58477787  0.08098864  0.91835958  1
  Te2-  Te172  1  0.58629135  0.41215477  0.25346164  1
  Te2-  Te173  1  0.58098819  0.41202233  0.58783396  1
  Te2-  Te174  1  0.59570602  0.41415500  0.91868104  1
  Te2-  Te175  1  0.58892170  0.73808524  0.25241074  1
  Te2-  Te176  1  0.58851348  0.75198466  0.58762124  1
  Te2-  Te177  1  0.58745915  0.74946134  0.91871957  1
  Te2-  Te178  1  0.91847539  0.07489825  0.25107976  1
  Te2-  Te179  1  0.92605293  0.07667406  0.58622743  1
  Te2-  Te180  1  0.91881142  0.08070782  0.92038444  1
  Te2-  Te181  1  0.92034858  0.41206118  0.25378989  1
  Te2-  Te182  1  0.92299076  0.41715942  0.58759580  1
  Te2-  Te183  1  0.92062120  0.41346671  0.92240591  1
  Te2-  Te184  1  0.91465510  0.75026357  0.25260670  1
  Te2-  Te185  1  0.91261655  0.74772068  0.59006681  1
  Te2-  Te186  1  0.91492209  0.74540219  0.91775661  1
  Te2-  Te187  1  0.08023942  0.25504371  0.25238201  1
  Te2-  Te188  1  0.08515405  0.25397915  0.58700099  1
  Te2-  Te189  1  0.07948479  0.24980313  0.91814298  1
  Te2-  Te190  1  0.07200091  0.59252500  0.24968663  1
  Te2-  Te191  1  0.08147250  0.58789375  0.58155996  1
  Te2-  Te192  1  0.08101984  0.58230722  0.91701456  1
  Te2-  Te193  1  0.08351182  0.91654355  0.25425638  1
  Te2-  Te194  1  0.07955684  0.91650571  0.58881422  1
  Te2-  Te195  1  0.07808071  0.91966299  0.92464067  1
  Te2-  Te196  1  0.41632921  0.25514473  0.24859075  1
  Te2-  Te197  1  0.41472895  0.25335556  0.58485876  1
  Te2-  Te198  1  0.40695060  0.25173236  0.92067646  1
  Te2-  Te199  1  0.41837689  0.58511444  0.25174529  1
  Te2-  Te200  1  0.41356525  0.59186215  0.58881724  1
  Te2-  Te201  1  0.41640722  0.58361708  0.92054293  1
  Te2-  Te202  1  0.41732444  0.91676965  0.25760436  1
  Te2-  Te203  1  0.41502234  0.91802701  0.58333521  1
  Te2-  Te204  1  0.41369751  0.92265495  0.92157248  1
  Te2-  Te205  1  0.74491571  0.24862187  0.25324104  1
  Te2-  Te206  1  0.75617930  0.25050153  0.58517379  1
  Te2-  Te207  1  0.75167331  0.25361510  0.91786043  1
  Te2-  Te208  1  0.74563751  0.58272042  0.25367768  1
  Te2-  Te209  1  0.74537290  0.58555289  0.58901913  1
  Te2-  Te210  1  0.74903353  0.58649635  0.92305185  1
  Te2-  Te211  1  0.74301665  0.92299500  0.25113067  1
  Te2-  Te212  1  0.73812373  0.92164404  0.58427817  1
  Te2-  Te213  1  0.74703463  0.92106857  0.91826023  1
  Te2-  Te214  1  0.08038215  0.07997199  0.08342043  1
  Te2-  Te215  1  0.08558621  0.07714510  0.41170592  1
  Te2-  Te216  1  0.08234724  0.07443513  0.74745033  1
  Te2-  Te217  1  0.07845956  0.41531664  0.08116074  1
  Te2-  Te218  1  0.08163465  0.41461443  0.40711615  1
  Te2-  Te219  1  0.08303789  0.41254168  0.74330289  1
  Te2-  Te220  1  0.08577759  0.74927132  0.08266848  1
  Te2-  Te221  1  0.07481146  0.74911083  0.41384596  1
  Te2-  Te222  1  0.07606016  0.74646425  0.75172971  1
  Te2-  Te223  1  0.41392311  0.08511770  0.07865974  1
  Te2-  Te224  1  0.41551382  0.08307625  0.41350454  1
  Te2-  Te225  1  0.41300700  0.08200821  0.74653685  1
  Te2-  Te226  1  0.40807699  0.41198487  0.08261454  1
  Te2-  Te227  1  0.40837106  0.41719412  0.41743122  1
  Te2-  Te228  1  0.41972785  0.41529117  0.74672181  1
  Te2-  Te229  1  0.41208015  0.74211196  0.08104184  1
  Te2-  Te230  1  0.41810998  0.74751938  0.41201622  1
  Te2-  Te231  1  0.41321124  0.74960420  0.75164506  1
  Te2-  Te232  1  0.74503272  0.07759980  0.07781126  1
  Te2-  Te233  1  0.75217739  0.08527753  0.41407638  1
  Te2-  Te234  1  0.74332456  0.08371265  0.74548367  1
  Te2-  Te235  1  0.75142516  0.41060288  0.08053185  1
  Te2-  Te236  1  0.74479590  0.41239303  0.41821612  1
  Te2-  Te237  1  0.74680917  0.41147628  0.74912747  1
  Te2-  Te238  1  0.74670174  0.74714223  0.07976357  1
  Te2-  Te239  1  0.74686420  0.73988336  0.41150872  1
  Te2-  Te240  1  0.74512440  0.74859518  0.74576984  1
