# generated using pymatgen
data_Ti27(Cu53Te54)2
_symmetry_space_group_name_H-M   'P 1'
_cell_length_a   17.93055633
_cell_length_b   17.95081182
_cell_length_c   17.93797796
_cell_angle_alpha   89.91412146
_cell_angle_beta   90.00416109
_cell_angle_gamma   90.06673242
_symmetry_Int_Tables_number   1
_chemical_formula_structural   Ti27(Cu53Te54)2
_chemical_formula_sum   'Ti27 Cu106 Te108'
_cell_volume   5773.65143679
_cell_formula_units_Z   1
loop_
 _symmetry_equiv_pos_site_id
 _symmetry_equiv_pos_as_xyz
  1  'x, y, z'
loop_
 _atom_type_symbol
 _atom_type_oxidation_number
  Ti4+  4.0
  Cu+  1.0
  Te2-  -2.0
loop_
 _atom_site_type_symbol
 _atom_site_label
 _atom_site_symmetry_multiplicity
 _atom_site_fract_x
 _atom_site_fract_y
 _atom_site_fract_z
 _atom_site_occupancy
  Ti4+  Ti0  1  0.16580061  0.16360250  0.16829704  1
  Ti4+  Ti1  1  0.16623855  0.16566624  0.50306680  1
  Ti4+  Ti2  1  0.16519670  0.16771660  0.83213182  1
  Ti4+  Ti3  1  0.16806614  0.49673692  0.16913825  1
  Ti4+  Ti4  1  0.16823252  0.49763908  0.50210350  1
  Ti4+  Ti5  1  0.16880355  0.49993471  0.83107778  1
  Ti4+  Ti6  1  0.16641940  0.82992489  0.16933349  1
  Ti4+  Ti7  1  0.16640642  0.83361666  0.50512710  1
  Ti4+  Ti8  1  0.16191004  0.83030325  0.83132823  1
  Ti4+  Ti9  1  0.50265122  0.16831839  0.16354780  1
  Ti4+  Ti10  1  0.50148682  0.16820681  0.49512280  1
  Ti4+  Ti11  1  0.49583349  0.16263393  0.82989761  1
  Ti4+  Ti12  1  0.50030535  0.50091655  0.16797687  1
  Ti4+  Ti13  1  0.50371667  0.50237535  0.50212739  1
  Ti4+  Ti14  1  0.49910075  0.49901311  0.83420780  1
  Ti4+  Ti15  1  0.49761482  0.83649235  0.16674353  1
  Ti4+  Ti16  1  0.50223526  0.83452251  0.49903355  1
  Ti4+  Ti17  1  0.50016682  0.83177828  0.83518565  1
  Ti4+  Ti18  1  0.83157391  0.16685402  0.16910808  1
  Ti4+  Ti19  1  0.82811024  0.16645830  0.50244813  1
  Ti4+  Ti20  1  0.83344132  0.16939941  0.83392198  1
  Ti4+  Ti21  1  0.83323587  0.50166741  0.16469728  1
  Ti4+  Ti22  1  0.83314139  0.50016208  0.49755640  1
  Ti4+  Ti23  1  0.83306769  0.50041741  0.83385210  1
  Ti4+  Ti24  1  0.83613170  0.83469691  0.16265443  1
  Ti4+  Ti25  1  0.83422517  0.83067312  0.49994612  1
  Ti4+  Ti26  1  0.83506751  0.83586249  0.83610301  1
  Cu+  Cu27  1  0.16557666  0.16628437  -0.00061942  1
  Cu+  Cu28  1  0.16562705  0.16357361  0.33545971  1
  Cu+  Cu29  1  0.16583089  0.16776493  0.66967332  1
  Cu+  Cu30  1  0.16783339  0.49902668  0.00169090  1
  Cu+  Cu31  1  0.16857530  0.49618624  0.33591856  1
  Cu+  Cu32  1  0.17519063  0.49961596  0.66522065  1
  Cu+  Cu33  1  0.16133703  0.83104800  -0.00065490  1
  Cu+  Cu34  1  0.16981720  0.83288519  0.33611757  1
  Cu+  Cu35  1  0.15801327  0.82708270  0.66795013  1
  Cu+  Cu36  1  0.49985768  0.16808830  -0.00588539  1
  Cu+  Cu37  1  0.50697337  0.16809403  0.32871100  1
  Cu+  Cu38  1  0.49310202  0.16466256  0.66170400  1
  Cu+  Cu39  1  0.49716305  0.49751791  0.00059770  1
  Cu+  Cu40  1  0.50303396  0.50166413  0.33564681  1
  Cu+  Cu41  1  0.50110872  0.50210048  0.67017802  1
  Cu+  Cu42  1  0.49911211  0.82968102  0.00168054  1
  Cu+  Cu43  1  0.49713386  0.83555694  0.33260756  1
  Cu+  Cu44  1  0.50290713  0.83407191  0.66814179  1
  Cu+  Cu45  1  0.83433297  0.16753942  0.00145536  1
  Cu+  Cu46  1  0.82929465  0.16514000  0.33759682  1
  Cu+  Cu47  1  0.82959956  0.16732850  0.66855444  1
  Cu+  Cu48  1  0.83471368  0.50151543  -0.00293383  1
  Cu+  Cu49  1  0.83110960  0.50663907  0.32999497  1
  Cu+  Cu50  1  0.83207590  0.49923669  0.66621912  1
  Cu+  Cu51  1  0.83582631  0.83626048  0.00347336  1
  Cu+  Cu52  1  0.83652321  0.83291138  0.32965440  1
  Cu+  Cu53  1  0.83921075  0.83434030  0.66546583  1
  Cu+  Cu54  1  0.16764465  -0.00414697  0.17173610  1
  Cu+  Cu55  1  0.16696658  0.00196515  0.50129120  1
  Cu+  Cu56  1  0.16224846  -0.00120464  0.83103037  1
  Cu+  Cu57  1  0.16558622  0.33082108  0.16908288  1
  Cu+  Cu58  1  0.16759307  0.33041667  0.50212703  1
  Cu+  Cu59  1  0.16697238  0.33472624  0.82778576  1
  Cu+  Cu60  1  0.16867953  0.66119613  0.17102839  1
  Cu+  Cu61  1  0.16810993  0.66357981  0.50688663  1
  Cu+  Cu62  1  0.16792339  0.66640320  0.83040168  1
  Cu+  Cu63  1  0.49719169  0.00239064  0.16542798  1
  Cu+  Cu64  1  0.50073321  0.00126355  0.49386100  1
  Cu+  Cu65  1  0.49681141  -0.00454240  0.83179853  1
  Cu+  Cu66  1  0.50558371  0.33466383  0.16644026  1
  Cu+  Cu67  1  0.50797499  0.33903744  0.49687837  1
  Cu+  Cu68  1  0.49696865  0.32847602  0.83473461  1
  Cu+  Cu69  1  0.49863079  0.66999022  0.16635073  1
  Cu+  Cu70  1  0.50113535  0.67069754  0.50141178  1
  Cu+  Cu71  1  0.49758539  0.66467888  0.83708769  1
  Cu+  Cu72  1  0.83424449  0.00251226  0.16183975  1
  Cu+  Cu73  1  0.83266705  -0.00234093  0.50164395  1
  Cu+  Cu74  1  0.83353633  0.00497918  0.83870462  1
  Cu+  Cu75  1  0.82947418  0.33587867  0.16884617  1
  Cu+  Cu76  1  0.82720529  0.33364842  0.50251421  1
  Cu+  Cu77  1  0.83405619  0.33572701  0.83378161  1
  Cu+  Cu78  1  0.83787481  0.66849589  0.16263299  1
  Cu+  Cu79  1  0.83104412  0.66329571  0.49286533  1
  Cu+  Cu80  1  0.83451662  0.66621039  0.83488587  1
  Cu+  Cu81  1  -0.00243420  0.16170213  0.16977016  1
  Cu+  Cu82  1  -0.00249235  0.16662617  0.50183936  1
  Cu+  Cu83  1  0.00120073  0.17541014  0.83193972  1
  Cu+  Cu84  1  0.00227365  0.49953278  0.16741657  1
  Cu+  Cu85  1  -0.00029693  0.49676335  0.49771741  1
  Cu+  Cu86  1  0.00089504  0.50095491  0.83499283  1
  Cu+  Cu87  1  0.00473688  0.83363216  0.16013699  1
  Cu+  Cu88  1  -0.00132302  0.83309439  0.50705105  1
  Cu+  Cu89  1  -0.00350875  0.83165798  0.82681632  1
  Cu+  Cu90  1  0.33438701  0.16460335  0.16590829  1
  Cu+  Cu91  1  0.33718509  0.16521072  0.50072669  1
  Cu+  Cu92  1  0.32967272  0.15798661  0.82915910  1
  Cu+  Cu93  1  0.33414568  0.49859952  0.17228466  1
  Cu+  Cu94  1  0.33617279  0.50335397  0.50496743  1
  Cu+  Cu95  1  0.33383560  0.49566548  0.83047835  1
  Cu+  Cu96  1  0.32892121  0.83705635  0.17389292  1
  Cu+  Cu97  1  0.33659912  0.83438426  0.50073163  1
  Cu+  Cu98  1  0.33297937  0.83138592  0.83290112  1
  Cu+  Cu99  1  0.66895031  0.17538655  0.16587417  1
  Cu+  Cu100  1  0.66114864  0.16753692  0.49864018  1
  Cu+  Cu101  1  0.66476590  0.16623416  0.83443953  1
  Cu+  Cu102  1  0.66491028  0.50116325  0.16288595  1
  Cu+  Cu103  1  0.67135698  0.49901874  0.49776760  1
  Cu+  Cu104  1  0.66654822  0.50081411  0.83487687  1
  Cu+  Cu105  1  0.66580228  0.83485984  0.16213864  1
  Cu+  Cu106  1  0.66785211  0.83164361  0.49732904  1
  Cu+  Cu107  1  0.66789610  0.83480800  0.83958103  1
  Cu+  Cu108  1  0.75402054  0.26487555  0.07093442  1
  Cu+  Cu109  1  0.26402576  0.40434334  0.73876147  1
  Cu+  Cu110  1  0.59103606  0.06994402  0.39979734  1
  Cu+  Cu111  1  0.59730063  0.41413109  0.40690990  1
  Cu+  Cu112  1  0.92386521  0.93094220  0.59030733  1
  Cu+  Cu113  1  0.92743002  0.08073614  0.07297561  1
  Cu+  Cu114  1  0.25873148  0.92671113  0.26722978  1
  Cu+  Cu115  1  0.59528154  0.26310693  0.25677691  1
  Cu+  Cu116  1  0.59162544  0.25680926  0.91847190  1
  Cu+  Cu117  1  0.58359097  0.26056552  0.59419138  1
  Cu+  Cu118  1  0.26366092  0.74189494  0.74491519  1
  Cu+  Cu119  1  0.73964626  0.59570042  0.40009245  1
  Cu+  Cu120  1  0.08453215  0.92831107  0.07337247  1
  Cu+  Cu121  1  0.40939391  0.06986649  0.58364120  1
  Cu+  Cu122  1  0.59192003  0.74180451  0.07530787  1
  Cu+  Cu123  1  0.74548666  0.40805618  0.59698967  1
  Cu+  Cu124  1  0.07107729  0.26662512  0.73935076  1
  Cu+  Cu125  1  0.26700668  0.59442918  0.59006163  1
  Cu+  Cu126  1  0.93294243  0.73716197  0.07531466  1
  Cu+  Cu127  1  0.58963040  0.41127089  0.07056295  1
  Cu+  Cu128  1  0.25344223  0.06990138  0.74124108  1
  Cu+  Cu129  1  0.73576112  0.92878246  0.07608726  1
  Cu+  Cu130  1  0.07136779  0.92862244  0.74121431  1
  Cu+  Cu131  1  0.91459155  0.73447315  0.73791708  1
  Cu+  Cu132  1  0.06939878  0.73180881  0.58655766  1
  Te2-  Te133  1  0.25015467  0.24911086  0.08338213  1
  Te2-  Te134  1  0.25195729  0.24810471  0.41706730  1
  Te2-  Te135  1  0.25623289  0.25200730  0.74593525  1
  Te2-  Te136  1  0.25402603  0.58221602  0.08417918  1
  Te2-  Te137  1  0.25183740  0.58474026  0.41727724  1
  Te2-  Te138  1  0.25862248  0.58897337  0.74562159  1
  Te2-  Te139  1  0.24896676  0.91613059  0.07932980  1
  Te2-  Te140  1  0.25298409  0.91990523  0.41956036  1
  Te2-  Te141  1  0.24979221  0.91547028  0.74520638  1
  Te2-  Te142  1  0.58981879  0.25635022  0.07244107  1
  Te2-  Te143  1  0.59145673  0.25801618  0.40879726  1
  Te2-  Te144  1  0.58261190  0.24975537  0.74542628  1
  Te2-  Te145  1  0.58321773  0.58791628  0.07858237  1
  Te2-  Te146  1  0.58728161  0.59017179  0.41542337  1
  Te2-  Te147  1  0.58477905  0.58615205  0.75201227  1
  Te2-  Te148  1  0.58193393  0.92339172  0.07819183  1
  Te2-  Te149  1  0.58823218  0.91804646  0.41041448  1
  Te2-  Te150  1  0.58720377  0.91661504  0.75132266  1
  Te2-  Te151  1  0.91902193  0.25394349  0.08532669  1
  Te2-  Te152  1  0.91373755  0.25169055  0.41867200  1
  Te2-  Te153  1  0.91582165  0.25589153  0.74501843  1
  Te2-  Te154  1  0.92247392  0.58345642  0.07865661  1
  Te2-  Te155  1  0.92193513  0.58420525  0.41271537  1
  Te2-  Te156  1  0.91964193  0.58316191  0.74612991  1
  Te2-  Te157  1  0.92570330  0.92489548  0.07693413  1
  Te2-  Te158  1  0.91961603  0.91637651  0.41539550  1
  Te2-  Te159  1  0.91806974  0.92756578  0.74781472  1
  Te2-  Te160  1  0.25371210  0.08029578  0.25443600  1
  Te2-  Te161  1  0.25441081  0.07862076  0.58853495  1
  Te2-  Te162  1  0.24718624  0.07795715  0.91825154  1
  Te2-  Te163  1  0.25269972  0.41081256  0.25458695  1
  Te2-  Te164  1  0.25736980  0.40905015  0.58498112  1
  Te2-  Te165  1  0.25050494  0.41369276  0.91750039  1
  Te2-  Te166  1  0.25169835  0.74461859  0.25540659  1
  Te2-  Te167  1  0.25756974  0.74888968  0.58964177  1
  Te2-  Te168  1  0.24862780  0.74852407  0.91860906  1
  Te2-  Te169  1  0.58989417  0.07940465  0.24627230  1
  Te2-  Te170  1  0.58327636  0.08031952  0.58490323  1
  Te2-  Te171  1  0.58178702  0.07835663  0.91530234  1
  Te2-  Te172  1  0.59117520  0.41606538  0.25503557  1
  Te2-  Te173  1  0.58997069  0.41657535  0.59213952  1
  Te2-  Te174  1  0.58688712  0.41157215  0.91863198  1
  Te2-  Te175  1  0.58468819  0.75212243  0.25122381  1
  Te2-  Te176  1  0.58716246  0.75013594  0.58542996  1
  Te2-  Te177  1  0.58660733  0.74488777  0.92033831  1
  Te2-  Te178  1  0.91373934  0.08029655  0.25631160  1
  Te2-  Te179  1  0.91595877  0.08318032  0.58766601  1
  Te2-  Te180  1  0.92306544  0.08629033  0.91833110  1
  Te2-  Te181  1  0.91566167  0.41765451  0.25130974  1
  Te2-  Te182  1  0.91744989  0.41379553  0.58418958  1
  Te2-  Te183  1  0.91954118  0.41528700  0.91844526  1
  Te2-  Te184  1  0.92245737  0.75016959  0.24826451  1
  Te2-  Te185  1  0.91760882  0.73712678  0.58526076  1
  Te2-  Te186  1  0.92033346  0.74863825  0.92135338  1
  Te2-  Te187  1  0.08020438  0.24730958  0.25265475  1
  Te2-  Te188  1  0.07897724  0.25235546  0.58697879  1
  Te2-  Te189  1  0.08439440  0.25586593  0.91904579  1
  Te2-  Te190  1  0.08291549  0.58143214  0.25567643  1
  Te2-  Te191  1  0.07786335  0.57946438  0.58868241  1
  Te2-  Te192  1  0.08544107  0.58446486  0.91745347  1
  Te2-  Te193  1  0.07960310  0.91460850  0.25577230  1
  Te2-  Te194  1  0.07950917  0.92497575  0.58865502  1
  Te2-  Te195  1  0.07640867  0.91763833  0.91699090  1
  Te2-  Te196  1  0.41735586  0.25142546  0.24903547  1
  Te2-  Te197  1  0.41771494  0.25836373  0.57960734  1
  Te2-  Te198  1  0.40768886  0.24604633  0.91419275  1
  Te2-  Te199  1  0.41749948  0.58591789  0.25388864  1
  Te2-  Te200  1  0.41960035  0.58927860  0.58889327  1
  Te2-  Te201  1  0.41178551  0.58117008  0.91903003  1
  Te2-  Te202  1  0.41351905  0.92405813  0.25439363  1
  Te2-  Te203  1  0.41680316  0.91928479  0.58600972  1
  Te2-  Te204  1  0.41296822  0.91532306  0.91938003  1
  Te2-  Te205  1  0.74859153  0.25519476  0.25817062  1
  Te2-  Te206  1  0.74108793  0.25250315  0.58951939  1
  Te2-  Te207  1  0.74683319  0.25598709  0.91922012  1
  Te2-  Te208  1  0.74592736  0.59104046  0.24563639  1
  Te2-  Te209  1  0.74807973  0.58647924  0.58484373  1
  Te2-  Te210  1  0.74805113  0.58628752  0.91864991  1
  Te2-  Te211  1  0.75042732  0.91847410  0.24847924  1
  Te2-  Te212  1  0.74777232  0.91421087  0.58555756  1
  Te2-  Te213  1  0.74909751  0.92198166  0.92204994  1
  Te2-  Te214  1  0.08045324  0.07846046  0.07926351  1
  Te2-  Te215  1  0.07979016  0.08176972  0.41842152  1
  Te2-  Te216  1  0.07543882  0.08235051  0.74646623  1
  Te2-  Te217  1  0.08244301  0.41325599  0.08252265  1
  Te2-  Te218  1  0.08369932  0.41171244  0.41713847  1
  Te2-  Te219  1  0.07915219  0.41852147  0.74369238  1
  Te2-  Te220  1  0.08467799  0.73910382  0.08112697  1
  Te2-  Te221  1  0.08339119  0.74812914  0.41977357  1
  Te2-  Te222  1  0.07292133  0.73796821  0.74591520  1
  Te2-  Te223  1  0.41665313  0.08454241  0.07861118  1
  Te2-  Te224  1  0.41571687  0.08413667  0.40776901  1
  Te2-  Te225  1  0.41109569  0.07324685  0.74273947  1
  Te2-  Te226  1  0.41423502  0.41365005  0.08582104  1
  Te2-  Te227  1  0.41562084  0.41912499  0.41812933  1
  Te2-  Te228  1  0.41725715  0.41083318  0.74530772  1
  Te2-  Te229  1  0.40824576  0.75166991  0.08586777  1
  Te2-  Te230  1  0.41567952  0.74903819  0.41539070  1
  Te2-  Te231  1  0.41675607  0.74615180  0.74684202  1
  Te2-  Te232  1  0.74313728  0.08301002  0.07972971  1
  Te2-  Te233  1  0.74509073  0.07786908  0.41692787  1
  Te2-  Te234  1  0.74737310  0.08234409  0.75155044  1
  Te2-  Te235  1  0.74668072  0.41627307  0.07618274  1
  Te2-  Te236  1  0.74968874  0.41273246  0.40749930  1
  Te2-  Te237  1  0.74546709  0.41363614  0.74991021  1
  Te2-  Te238  1  0.74819840  0.74645343  0.07832892  1
  Te2-  Te239  1  0.74814928  0.74941084  0.40888043  1
  Te2-  Te240  1  0.75016103  0.75204500  0.75042432  1
