# generated using pymatgen
data_Ti27(Cu53Te54)2
_symmetry_space_group_name_H-M   'P 1'
_cell_length_a   17.87461885
_cell_length_b   17.87151334
_cell_length_c   17.87531964
_cell_angle_alpha   89.99807225
_cell_angle_beta   90.04165939
_cell_angle_gamma   89.96298858
_symmetry_Int_Tables_number   1
_chemical_formula_structural   Ti27(Cu53Te54)2
_chemical_formula_sum   'Ti27 Cu106 Te108'
_cell_volume   5710.20539980
_cell_formula_units_Z   1
loop_
 _symmetry_equiv_pos_site_id
 _symmetry_equiv_pos_as_xyz
  1  'x, y, z'
loop_
 _atom_type_symbol
 _atom_type_oxidation_number
  Ti4+  4.0
  Cu+  1.0
  Te2-  -2.0
loop_
 _atom_site_type_symbol
 _atom_site_label
 _atom_site_symmetry_multiplicity
 _atom_site_fract_x
 _atom_site_fract_y
 _atom_site_fract_z
 _atom_site_occupancy
  Ti4+  Ti0  1  0.16808456  0.16675690  0.16603881  1
  Ti4+  Ti1  1  0.16629759  0.16730005  0.49755577  1
  Ti4+  Ti2  1  0.16751483  0.16463688  0.83182026  1
  Ti4+  Ti3  1  0.16575126  0.49960770  0.16778592  1
  Ti4+  Ti4  1  0.16554963  0.49852065  0.50022825  1
  Ti4+  Ti5  1  0.16622481  0.49872882  0.83393543  1
  Ti4+  Ti6  1  0.16707928  0.82965392  0.16567472  1
  Ti4+  Ti7  1  0.16544609  0.83422190  0.49858028  1
  Ti4+  Ti8  1  0.16414893  0.83527270  0.83470289  1
  Ti4+  Ti9  1  0.49973756  0.16843533  0.16560207  1
  Ti4+  Ti10  1  0.50331658  0.16634685  0.49830283  1
  Ti4+  Ti11  1  0.49746556  0.16763869  0.83038116  1
  Ti4+  Ti12  1  0.49856365  0.50110896  0.16554979  1
  Ti4+  Ti13  1  0.49905314  0.49909466  0.50074241  1
  Ti4+  Ti14  1  0.50230059  0.50261250  0.83373171  1
  Ti4+  Ti15  1  0.50185360  0.83348469  0.16783529  1
  Ti4+  Ti16  1  0.49735222  0.83408949  0.49926885  1
  Ti4+  Ti17  1  0.49985899  0.83447543  0.83664517  1
  Ti4+  Ti18  1  0.83511376  0.16633594  0.16603785  1
  Ti4+  Ti19  1  0.83487420  0.16854682  0.50168416  1
  Ti4+  Ti20  1  0.83019538  0.16461979  0.83481896  1
  Ti4+  Ti21  1  0.83325923  0.49970240  0.16813361  1
  Ti4+  Ti22  1  0.83219401  0.49654556  0.50206758  1
  Ti4+  Ti23  1  0.83562609  0.50432424  0.83398622  1
  Ti4+  Ti24  1  0.83480006  0.83218550  0.16787305  1
  Ti4+  Ti25  1  0.83390774  0.83336484  0.50012077  1
  Ti4+  Ti26  1  0.83430326  0.83179832  0.83033555  1
  Cu+  Cu27  1  0.16627517  0.16450244  -0.00061311  1
  Cu+  Cu28  1  0.17022576  0.16872141  0.33037262  1
  Cu+  Cu29  1  0.16841826  0.16804879  0.66544848  1
  Cu+  Cu30  1  0.16780878  0.50022246  0.00211786  1
  Cu+  Cu31  1  0.16602957  0.50092911  0.33362273  1
  Cu+  Cu32  1  0.16403936  0.49621217  0.66806534  1
  Cu+  Cu33  1  0.16463923  0.82982343  -0.00040578  1
  Cu+  Cu34  1  0.16520039  0.82996521  0.33253772  1
  Cu+  Cu35  1  0.16597501  0.83851028  0.66458183  1
  Cu+  Cu36  1  0.49764689  0.16739528  -0.00248079  1
  Cu+  Cu37  1  0.50148534  0.16816588  0.33147657  1
  Cu+  Cu38  1  0.50177504  0.16654209  0.66063817  1
  Cu+  Cu39  1  0.50120515  0.50160816  -0.00261499  1
  Cu+  Cu40  1  0.50058431  0.49842512  0.33475792  1
  Cu+  Cu41  1  0.49760167  0.50048008  0.66650885  1
  Cu+  Cu42  1  0.50120202  0.83635672  0.00411714  1
  Cu+  Cu43  1  0.49710600  0.83179422  0.33316356  1
  Cu+  Cu44  1  0.49764184  0.83548901  0.66828347  1
  Cu+  Cu45  1  0.82656004  0.17220352  0.00563827  1
  Cu+  Cu46  1  0.83763732  0.16640298  0.33368915  1
  Cu+  Cu47  1  0.83002378  0.16115169  0.66879435  1
  Cu+  Cu48  1  0.83722740  0.49784622  0.00231864  1
  Cu+  Cu49  1  0.83264053  0.49672714  0.33593577  1
  Cu+  Cu50  1  0.83500273  0.50852946  0.66458390  1
  Cu+  Cu51  1  0.83506087  0.83494119  -0.00143737  1
  Cu+  Cu52  1  0.83101827  0.83117395  0.33320845  1
  Cu+  Cu53  1  0.83735800  0.83048092  0.66749587  1
  Cu+  Cu54  1  0.17067168  -0.00341845  0.16380745  1
  Cu+  Cu55  1  0.16667560  -0.00148342  0.49623545  1
  Cu+  Cu56  1  0.16192806  0.00285620  0.83590334  1
  Cu+  Cu57  1  0.16979262  0.33110704  0.16903477  1
  Cu+  Cu58  1  0.16357958  0.33362015  0.50239284  1
  Cu+  Cu59  1  0.17083006  0.32907338  0.83230369  1
  Cu+  Cu60  1  0.16251198  0.66521368  0.16949073  1
  Cu+  Cu61  1  0.16780082  0.66726762  0.49880266  1
  Cu+  Cu62  1  0.16386477  0.66501696  0.83422430  1
  Cu+  Cu63  1  0.50234801  0.00045936  0.16509628  1
  Cu+  Cu64  1  0.49775621  -0.00082553  0.49999356  1
  Cu+  Cu65  1  0.49319177  0.00071572  0.83318973  1
  Cu+  Cu66  1  0.49627874  0.33568487  0.16388757  1
  Cu+  Cu67  1  0.50749100  0.33325860  0.49738652  1
  Cu+  Cu68  1  0.50163923  0.33633778  0.83616247  1
  Cu+  Cu69  1  0.49841377  0.66838153  0.17034768  1
  Cu+  Cu70  1  0.49704521  0.66476695  0.50150206  1
  Cu+  Cu71  1  0.50701880  0.66998183  0.83592076  1
  Cu+  Cu72  1  0.83613849  -0.00118464  0.16676617  1
  Cu+  Cu73  1  0.83316130  0.00155376  0.50010123  1
  Cu+  Cu74  1  0.83722766  -0.00030842  0.83111231  1
  Cu+  Cu75  1  0.83607553  0.33357880  0.16230670  1
  Cu+  Cu76  1  0.83597591  0.33562457  0.49856150  1
  Cu+  Cu77  1  0.83124865  0.33519350  0.83460269  1
  Cu+  Cu78  1  0.83022622  0.66707476  0.17083840  1
  Cu+  Cu79  1  0.83411263  0.66375337  0.50347599  1
  Cu+  Cu80  1  0.83120394  0.66576578  0.82365482  1
  Cu+  Cu81  1  0.00239072  0.16575129  0.16699062  1
  Cu+  Cu82  1  -0.00049252  0.16536280  0.49560361  1
  Cu+  Cu83  1  -0.00087706  0.16076526  0.83303999  1
  Cu+  Cu84  1  -0.00146306  0.49749546  0.16400680  1
  Cu+  Cu85  1  0.00179641  0.49269946  0.50562398  1
  Cu+  Cu86  1  0.00183268  0.49869597  0.83357396  1
  Cu+  Cu87  1  0.00231224  0.82920875  0.16818702  1
  Cu+  Cu88  1  0.00125152  0.83544539  0.49809910  1
  Cu+  Cu89  1  -0.00075213  0.83180712  0.83800621  1
  Cu+  Cu90  1  0.33082120  0.17087039  0.16785536  1
  Cu+  Cu91  1  0.33563689  0.16558561  0.49762783  1
  Cu+  Cu92  1  0.33503418  0.16282018  0.83256428  1
  Cu+  Cu93  1  0.33206370  0.50174319  0.16562174  1
  Cu+  Cu94  1  0.33273585  0.49926335  0.49991165  1
  Cu+  Cu95  1  0.33231404  0.50003492  0.83406005  1
  Cu+  Cu96  1  0.33575355  0.83103490  0.16852077  1
  Cu+  Cu97  1  0.32906953  0.83339391  0.49822333  1
  Cu+  Cu98  1  0.33109669  0.83728990  0.83378985  1
  Cu+  Cu99  1  0.66912246  0.16834093  0.16410431  1
  Cu+  Cu100  1  0.66990627  0.17079804  0.50774783  1
  Cu+  Cu101  1  0.66211136  0.17018686  0.83434356  1
  Cu+  Cu102  1  0.66614127  0.50203305  0.16852731  1
  Cu+  Cu103  1  0.66119924  0.49479531  0.49582429  1
  Cu+  Cu104  1  0.66935635  0.51099305  0.83544311  1
  Cu+  Cu105  1  0.66966599  0.83175646  0.16883438  1
  Cu+  Cu106  1  0.66573949  0.83577413  0.49985774  1
  Cu+  Cu107  1  0.66374991  0.83044613  0.83010755  1
  Cu+  Cu108  1  0.59559804  0.26427173  0.59446587  1
  Cu+  Cu109  1  0.93131722  0.40411495  0.06987612  1
  Cu+  Cu110  1  0.07211298  0.73747139  0.26418502  1
  Cu+  Cu111  1  0.93275105  0.74058027  0.74231044  1
  Cu+  Cu112  1  0.73727467  0.59036081  0.73277789  1
  Cu+  Cu113  1  0.07450143  0.40071123  0.59983956  1
  Cu+  Cu114  1  0.93103770  0.41160706  0.40533299  1
  Cu+  Cu115  1  0.59564887  0.59880486  0.93294466  1
  Cu+  Cu116  1  0.40382522  0.41118439  0.92494044  1
  Cu+  Cu117  1  0.92246607  0.92696474  0.92859042  1
  Cu+  Cu118  1  0.73719329  0.26605435  0.08091179  1
  Cu+  Cu119  1  0.92926230  0.07443173  0.73741526  1
  Cu+  Cu120  1  0.26182477  0.26277704  0.26321831  1
  Cu+  Cu121  1  0.58788827  0.25989742  0.92703603  1
  Cu+  Cu122  1  0.73830480  0.73924319  0.26383174  1
  Cu+  Cu123  1  0.58565924  0.74381101  0.73428044  1
  Cu+  Cu124  1  0.07436994  0.73381389  0.92746358  1
  Cu+  Cu125  1  0.93267643  0.59278995  0.58565744  1
  Cu+  Cu126  1  0.59035571  0.40331172  0.39914195  1
  Cu+  Cu127  1  0.40462624  0.73906556  0.26187872  1
  Cu+  Cu128  1  0.92722231  0.07067293  0.40477676  1
  Cu+  Cu129  1  0.40800672  0.07179104  0.93005814  1
  Cu+  Cu130  1  0.40275810  0.07166280  0.58615421  1
  Cu+  Cu131  1  0.06954104  0.07988502  0.93186293  1
  Cu+  Cu132  1  0.74084144  0.06920133  0.59397046  1
  Te2-  Te133  1  0.25128193  0.25236346  0.07699854  1
  Te2-  Te134  1  0.25423862  0.25507585  0.41639733  1
  Te2-  Te135  1  0.25518277  0.24938597  0.74692888  1
  Te2-  Te136  1  0.25004509  0.58740118  0.08298685  1
  Te2-  Te137  1  0.25167940  0.58403648  0.41511574  1
  Te2-  Te138  1  0.24957942  0.58387232  0.74844515  1
  Te2-  Te139  1  0.25402425  0.91311917  0.07997534  1
  Te2-  Te140  1  0.25081049  0.91789531  0.41039707  1
  Te2-  Te141  1  0.24866361  0.92185283  0.74983825  1
  Te2-  Te142  1  0.58510769  0.25679054  0.07853254  1
  Te2-  Te143  1  0.59234642  0.24986380  0.41010078  1
  Te2-  Te144  1  0.58465980  0.25530206  0.74551647  1
  Te2-  Te145  1  0.58585140  0.58841512  0.08338264  1
  Te2-  Te146  1  0.58351385  0.58695303  0.41531424  1
  Te2-  Te147  1  0.58579785  0.58920949  0.74082536  1
  Te2-  Te148  1  0.58967955  0.91867811  0.08344453  1
  Te2-  Te149  1  0.58293269  0.91864448  0.41357907  1
  Te2-  Te150  1  0.58299656  0.92195300  0.75011136  1
  Te2-  Te151  1  0.92496229  0.25103011  0.07838260  1
  Te2-  Te152  1  0.92112217  0.25508326  0.41294714  1
  Te2-  Te153  1  0.91575342  0.24993589  0.75030974  1
  Te2-  Te154  1  0.91697152  0.58821427  0.08392307  1
  Te2-  Te155  1  0.92047271  0.58129268  0.41752209  1
  Te2-  Te156  1  0.92817986  0.58724911  0.74527981  1
  Te2-  Te157  1  0.92284741  0.91782896  0.08311120  1
  Te2-  Te158  1  0.91791153  0.91831093  0.41246513  1
  Te2-  Te159  1  0.92377139  0.91905892  0.74466524  1
  Te2-  Te160  1  0.25325902  0.07874581  0.25063705  1
  Te2-  Te161  1  0.25068724  0.08019168  0.58326071  1
  Te2-  Te162  1  0.25418274  0.07864516  0.91999951  1
  Te2-  Te163  1  0.25438801  0.41608034  0.25420751  1
  Te2-  Te164  1  0.25233916  0.41403133  0.58555404  1
  Te2-  Te165  1  0.25093475  0.41247201  0.92123799  1
  Te2-  Te166  1  0.25266288  0.74379122  0.25359963  1
  Te2-  Te167  1  0.24979859  0.74922462  0.58622856  1
  Te2-  Te168  1  0.25175952  0.74816153  0.91622602  1
  Te2-  Te169  1  0.58655217  0.08451920  0.24916653  1
  Te2-  Te170  1  0.58862263  0.07631858  0.58545187  1
  Te2-  Te171  1  0.58255136  0.08024771  0.91647095  1
  Te2-  Te172  1  0.58520581  0.41287399  0.24902097  1
  Te2-  Te173  1  0.58731795  0.41552715  0.59146036  1
  Te2-  Te174  1  0.59328214  0.41704615  0.91849700  1
  Te2-  Te175  1  0.58766779  0.74626194  0.25587737  1
  Te2-  Te176  1  0.58416307  0.74814499  0.58365477  1
  Te2-  Te177  1  0.58931824  0.75142280  0.92631717  1
  Te2-  Te178  1  0.92224120  0.07908743  0.25139690  1
  Te2-  Te179  1  0.92240955  0.07977289  0.58617052  1
  Te2-  Te180  1  0.91522706  0.08168482  0.92783535  1
  Te2-  Te181  1  0.91935736  0.41168122  0.25286167  1
  Te2-  Te182  1  0.91686128  0.41057474  0.59412304  1
  Te2-  Te183  1  0.92075208  0.41299016  0.91737814  1
  Te2-  Te184  1  0.92008140  0.74483100  0.25583411  1
  Te2-  Te185  1  0.92399919  0.74678685  0.58518067  1
  Te2-  Te186  1  0.91630427  0.74125996  0.91878539  1
  Te2-  Te187  1  0.08074324  0.25205703  0.25205960  1
  Te2-  Te188  1  0.07786536  0.24906963  0.58622441  1
  Te2-  Te189  1  0.08063585  0.24991300  0.91612357  1
  Te2-  Te190  1  0.07633322  0.58267921  0.25409653  1
  Te2-  Te191  1  0.08307188  0.58783556  0.58695412  1
  Te2-  Te192  1  0.07892446  0.58264016  0.92222720  1
  Te2-  Te193  1  0.08344287  0.91822690  0.24992459  1
  Te2-  Te194  1  0.07997363  0.92172870  0.58329430  1
  Te2-  Te195  1  0.07774720  0.92271945  0.92420664  1
  Te2-  Te196  1  0.41534651  0.25513067  0.25312614  1
  Te2-  Te197  1  0.41681371  0.25477404  0.58079951  1
  Te2-  Te198  1  0.41100032  0.25504039  0.91818610  1
  Te2-  Te199  1  0.41332345  0.58340778  0.25518882  1
  Te2-  Te200  1  0.41192694  0.58441377  0.58615052  1
  Te2-  Te201  1  0.41526786  0.58937283  0.91640614  1
  Te2-  Te202  1  0.41568313  0.92098917  0.25098235  1
  Te2-  Te203  1  0.41024936  0.91778676  0.58656838  1
  Te2-  Te204  1  0.41173439  0.91843732  0.92322709  1
  Te2-  Te205  1  0.75121108  0.25276115  0.25211296  1
  Te2-  Te206  1  0.75276647  0.25839033  0.59092105  1
  Te2-  Te207  1  0.74439687  0.25658958  0.91963564  1
  Te2-  Te208  1  0.74677417  0.58367697  0.25728479  1
  Te2-  Te209  1  0.73991046  0.58486967  0.58096467  1
  Te2-  Te210  1  0.75338226  0.59067026  0.92514773  1
  Te2-  Te211  1  0.74969277  0.92017560  0.25227944  1
  Te2-  Te212  1  0.74903734  0.91717153  0.58800398  1
  Te2-  Te213  1  0.74738554  0.91728673  0.91422198  1
  Te2-  Te214  1  0.08104988  0.07736135  0.08272965  1
  Te2-  Te215  1  0.08293644  0.08085999  0.40956106  1
  Te2-  Te216  1  0.08205338  0.07936146  0.74181233  1
  Te2-  Te217  1  0.08365909  0.41084302  0.08084630  1
  Te2-  Te218  1  0.08163777  0.41194052  0.41067823  1
  Te2-  Te219  1  0.07983479  0.40851485  0.75098512  1
  Te2-  Te220  1  0.07824737  0.74317499  0.07943933  1
  Te2-  Te221  1  0.07826625  0.74450129  0.41508062  1
  Te2-  Te222  1  0.08280460  0.74910088  0.74472844  1
  Te2-  Te223  1  0.41226291  0.08221723  0.08273039  1
  Te2-  Te224  1  0.41701422  0.08168712  0.41121719  1
  Te2-  Te225  1  0.41397081  0.08092455  0.74101051  1
  Te2-  Te226  1  0.41195580  0.41658910  0.07840574  1
  Te2-  Te227  1  0.41436337  0.41202983  0.41596464  1
  Te2-  Te228  1  0.41582719  0.41547307  0.74940449  1
  Te2-  Te229  1  0.41624823  0.74792641  0.08081037  1
  Te2-  Te230  1  0.41137684  0.74545422  0.41568821  1
  Te2-  Te231  1  0.41373190  0.74820796  0.75235325  1
  Te2-  Te232  1  0.74874822  0.07782552  0.08272352  1
  Te2-  Te233  1  0.74682452  0.08571192  0.41574148  1
  Te2-  Te234  1  0.74116493  0.07831531  0.75173190  1
  Te2-  Te235  1  0.74408836  0.41721935  0.08016295  1
  Te2-  Te236  1  0.74508162  0.41062491  0.41306239  1
  Te2-  Te237  1  0.74919843  0.42054871  0.74859319  1
  Te2-  Te238  1  0.75014481  0.74863622  0.07935368  1
  Te2-  Te239  1  0.74742070  0.74509304  0.41837165  1
  Te2-  Te240  1  0.74305361  0.74715497  0.74063554  1
