# generated using pymatgen
data_Ti27(Cu53Te54)2
_symmetry_space_group_name_H-M   'P 1'
_cell_length_a   17.89792678
_cell_length_b   17.89942986
_cell_length_c   17.90187453
_cell_angle_alpha   89.97225142
_cell_angle_beta   89.99287922
_cell_angle_gamma   89.99203511
_symmetry_Int_Tables_number   1
_chemical_formula_structural   Ti27(Cu53Te54)2
_chemical_formula_sum   'Ti27 Cu106 Te108'
_cell_volume   5735.09181810
_cell_formula_units_Z   1
loop_
 _symmetry_equiv_pos_site_id
 _symmetry_equiv_pos_as_xyz
  1  'x, y, z'
loop_
 _atom_type_symbol
 _atom_type_oxidation_number
  Ti4+  4.0
  Cu+  1.0
  Te2-  -2.0
loop_
 _atom_site_type_symbol
 _atom_site_label
 _atom_site_symmetry_multiplicity
 _atom_site_fract_x
 _atom_site_fract_y
 _atom_site_fract_z
 _atom_site_occupancy
  Ti4+  Ti0  1  0.16439590  0.17001377  0.16860399  1
  Ti4+  Ti1  1  0.16470400  0.16556971  0.50217457  1
  Ti4+  Ti2  1  0.16764129  0.16301942  0.83862736  1
  Ti4+  Ti3  1  0.17206676  0.49592236  0.16718543  1
  Ti4+  Ti4  1  0.16567203  0.50085618  0.50171033  1
  Ti4+  Ti5  1  0.16853756  0.49692030  0.83071161  1
  Ti4+  Ti6  1  0.16754246  0.82915306  0.16848035  1
  Ti4+  Ti7  1  0.16077681  0.83311186  0.49823834  1
  Ti4+  Ti8  1  0.16624389  0.83385687  0.83267600  1
  Ti4+  Ti9  1  0.49998657  0.16651380  0.16499449  1
  Ti4+  Ti10  1  0.50005325  0.16824866  0.49476845  1
  Ti4+  Ti11  1  0.50069723  0.16780158  0.83034796  1
  Ti4+  Ti12  1  0.49751753  0.50043826  0.16592440  1
  Ti4+  Ti13  1  0.49927619  0.50008519  0.50163653  1
  Ti4+  Ti14  1  0.50262635  0.50194917  0.83193055  1
  Ti4+  Ti15  1  0.49895795  0.83430682  0.16302272  1
  Ti4+  Ti16  1  0.49937023  0.83399339  0.49922680  1
  Ti4+  Ti17  1  0.49939598  0.83264572  0.83117417  1
  Ti4+  Ti18  1  0.83404221  0.16447756  0.16672448  1
  Ti4+  Ti19  1  0.83333239  0.16947285  0.49668049  1
  Ti4+  Ti20  1  0.83283898  0.16748163  0.83450346  1
  Ti4+  Ti21  1  0.83343483  0.50212402  0.16558114  1
  Ti4+  Ti22  1  0.83039742  0.50337434  0.50115199  1
  Ti4+  Ti23  1  0.83697092  0.50045861  0.83431751  1
  Ti4+  Ti24  1  0.83270375  0.83202494  0.16789679  1
  Ti4+  Ti25  1  0.83124243  0.83619200  0.49973033  1
  Ti4+  Ti26  1  0.83416799  0.83453146  0.83514362  1
  Cu+  Cu27  1  0.16692869  0.16006114  0.00554815  1
  Cu+  Cu28  1  0.16098787  0.17291355  0.33670995  1
  Cu+  Cu29  1  0.16534071  0.16525859  0.67327100  1
  Cu+  Cu30  1  0.17268414  0.49209365  -0.00224315  1
  Cu+  Cu31  1  0.16999914  0.50029758  0.33409915  1
  Cu+  Cu32  1  0.16242842  0.50078372  0.66648355  1
  Cu+  Cu33  1  0.16660462  0.83244437  -0.00108836  1
  Cu+  Cu34  1  0.16611361  0.82771816  0.33554179  1
  Cu+  Cu35  1  0.16110320  0.83659931  0.66347949  1
  Cu+  Cu36  1  0.50042868  0.17028230  -0.00323475  1
  Cu+  Cu37  1  0.50097265  0.16557948  0.33271182  1
  Cu+  Cu38  1  0.50180830  0.16914969  0.65931904  1
  Cu+  Cu39  1  0.49856594  0.50343475  -0.00026797  1
  Cu+  Cu40  1  0.49708435  0.49622283  0.33529433  1
  Cu+  Cu41  1  0.50227426  0.50553195  0.66626036  1
  Cu+  Cu42  1  0.50179721  0.83357562  -0.00353626  1
  Cu+  Cu43  1  0.49934429  0.83563136  0.33068824  1
  Cu+  Cu44  1  0.49945875  0.83415903  0.66782887  1
  Cu+  Cu45  1  0.83230732  0.16596914  0.00081290  1
  Cu+  Cu46  1  0.83742767  0.16264447  0.33095549  1
  Cu+  Cu47  1  0.83215842  0.16789618  0.66711635  1
  Cu+  Cu48  1  0.83735336  0.49917466  -0.00018881  1
  Cu+  Cu49  1  0.82944234  0.50286366  0.33163190  1
  Cu+  Cu50  1  0.83066401  0.50431660  0.66966892  1
  Cu+  Cu51  1  0.83499236  0.83208324  0.00231618  1
  Cu+  Cu52  1  0.83288677  0.83176938  0.33422656  1
  Cu+  Cu53  1  0.83200050  0.83889304  0.66653378  1
  Cu+  Cu54  1  0.16292018  -0.00178412  0.16846726  1
  Cu+  Cu55  1  0.16526619  -0.00635413  0.50541788  1
  Cu+  Cu56  1  0.16981584  0.00077743  0.83358730  1
  Cu+  Cu57  1  0.17657111  0.33266596  0.16889523  1
  Cu+  Cu58  1  0.16235020  0.33375059  0.50082647  1
  Cu+  Cu59  1  0.16541374  0.32610457  0.83400339  1
  Cu+  Cu60  1  0.17176766  0.66056016  0.16732560  1
  Cu+  Cu61  1  0.16434771  0.66843353  0.49827912  1
  Cu+  Cu62  1  0.16505751  0.66551932  0.83072252  1
  Cu+  Cu63  1  0.50066687  -0.00245206  0.16190930  1
  Cu+  Cu64  1  0.49816857  0.00159685  0.49475595  1
  Cu+  Cu65  1  0.49851605  -0.00160034  0.83102929  1
  Cu+  Cu66  1  0.49832870  0.33417760  0.16677228  1
  Cu+  Cu67  1  0.50430418  0.33098267  0.49979619  1
  Cu+  Cu68  1  0.50757077  0.33432884  0.83365254  1
  Cu+  Cu69  1  0.49315622  0.66812755  0.16286053  1
  Cu+  Cu70  1  0.50019101  0.66585177  0.50233758  1
  Cu+  Cu71  1  0.49691395  0.66781486  0.82898282  1
  Cu+  Cu72  1  0.82958195  -0.00109725  0.17132742  1
  Cu+  Cu73  1  0.83434586  0.00428672  0.49611395  1
  Cu+  Cu74  1  0.83086331  0.00169778  0.83508670  1
  Cu+  Cu75  1  0.83245160  0.33569083  0.16494737  1
  Cu+  Cu76  1  0.83027615  0.34065002  0.49907163  1
  Cu+  Cu77  1  0.83659737  0.33486246  0.83591011  1
  Cu+  Cu78  1  0.83603296  0.66664329  0.16310400  1
  Cu+  Cu79  1  0.83176181  0.67090495  0.49965750  1
  Cu+  Cu80  1  0.83532958  0.66796774  0.83386540  1
  Cu+  Cu81  1  -0.00436423  0.17387007  0.17310493  1
  Cu+  Cu82  1  0.00008704  0.16826192  0.49357468  1
  Cu+  Cu83  1  -0.00032599  0.16827416  0.83721128  1
  Cu+  Cu84  1  0.00400412  0.49684553  0.16515516  1
  Cu+  Cu85  1  -0.00341325  0.50205001  0.50197492  1
  Cu+  Cu86  1  0.00390028  0.50004209  0.83118776  1
  Cu+  Cu87  1  -0.00013758  0.82863093  0.16440425  1
  Cu+  Cu88  1  -0.00562256  0.83018607  0.49576904  1
  Cu+  Cu89  1  0.00009082  0.83641952  0.83447965  1
  Cu+  Cu90  1  0.32848628  0.16675361  0.16647853  1
  Cu+  Cu91  1  0.33734710  0.16050217  0.50218737  1
  Cu+  Cu92  1  0.33634130  0.15800912  0.83856781  1
  Cu+  Cu93  1  0.33517006  0.49627971  0.16607988  1
  Cu+  Cu94  1  0.33147733  0.49569630  0.50321397  1
  Cu+  Cu95  1  0.33640865  0.49888677  0.82819897  1
  Cu+  Cu96  1  0.33744683  0.82995144  0.16951067  1
  Cu+  Cu97  1  0.32932836  0.83495671  0.49681759  1
  Cu+  Cu98  1  0.33157807  0.83202712  0.83209400  1
  Cu+  Cu99  1  0.66921484  0.16352864  0.16680986  1
  Cu+  Cu100  1  0.66447431  0.17279452  0.49687106  1
  Cu+  Cu101  1  0.66672678  0.17099100  0.83416828  1
  Cu+  Cu102  1  0.66675314  0.50196312  0.16553806  1
  Cu+  Cu103  1  0.66379030  0.50464058  0.50288335  1
  Cu+  Cu104  1  0.67298482  0.50174730  0.83348676  1
  Cu+  Cu105  1  0.66447405  0.83405271  0.16557449  1
  Cu+  Cu106  1  0.66737168  0.83799106  0.50092445  1
  Cu+  Cu107  1  0.66579522  0.83322788  0.83499409  1
  Cu+  Cu108  1  0.91441521  0.26765470  0.25943577  1
  Cu+  Cu109  1  0.74346739  0.59851596  0.74665908  1
  Cu+  Cu110  1  0.92056976  0.73714017  0.40644134  1
  Cu+  Cu111  1  0.41311596  0.40313013  0.26518111  1
  Cu+  Cu112  1  0.59581868  0.26186927  0.92884970  1
  Cu+  Cu113  1  0.25975498  0.91494333  0.59366465  1
  Cu+  Cu114  1  0.26408040  0.40405950  0.06554047  1
  Cu+  Cu115  1  0.93107192  0.07145942  0.40584232  1
  Cu+  Cu116  1  0.25979852  0.58863544  0.26213451  1
  Cu+  Cu117  1  0.41687441  0.74099036  0.26244219  1
  Cu+  Cu118  1  0.92807788  0.73818536  0.07009437  1
  Cu+  Cu119  1  0.07376412  0.59665362  0.73906774  1
  Cu+  Cu120  1  0.73668564  0.07123493  0.26066867  1
  Cu+  Cu121  1  0.25610683  0.06707146  0.08513630  1
  Cu+  Cu122  1  0.41822505  0.06921766  0.92835928  1
  Cu+  Cu123  1  0.07221815  0.26689801  0.40895318  1
  Cu+  Cu124  1  0.26166624  0.25018512  0.26836771  1
  Cu+  Cu125  1  0.41814238  0.07255971  0.59014494  1
  Cu+  Cu126  1  0.40741585  0.59756266  0.06848401  1
  Cu+  Cu127  1  0.40490378  0.59412973  0.73723927  1
  Cu+  Cu128  1  0.59296779  0.59896944  0.59245362  1
  Cu+  Cu129  1  0.26004748  0.73912722  0.41421533  1
  Cu+  Cu130  1  0.26026118  0.07591176  0.74251002  1
  Cu+  Cu131  1  0.59677276  0.26086278  0.59043505  1
  Cu+  Cu132  1  0.07113614  0.25423454  0.74500628  1
  Te2-  Te133  1  0.25373168  0.25234528  0.07649640  1
  Te2-  Te134  1  0.25498192  0.25163053  0.42093122  1
  Te2-  Te135  1  0.25698966  0.24677157  0.75232098  1
  Te2-  Te136  1  0.25503596  0.58372453  0.07629768  1
  Te2-  Te137  1  0.25626261  0.58597652  0.41684396  1
  Te2-  Te138  1  0.25254527  0.58575018  0.74429347  1
  Te2-  Te139  1  0.25289387  0.91503899  0.08337826  1
  Te2-  Te140  1  0.24795838  0.92030444  0.41130247  1
  Te2-  Te141  1  0.25436953  0.91992141  0.74514201  1
  Te2-  Te142  1  0.58750460  0.25296934  0.08321074  1
  Te2-  Te143  1  0.58597343  0.25492450  0.40757925  1
  Te2-  Te144  1  0.58774450  0.25327763  0.74288283  1
  Te2-  Te145  1  0.58358342  0.58718763  0.08209057  1
  Te2-  Te146  1  0.58211482  0.58512930  0.41289580  1
  Te2-  Te147  1  0.59086939  0.59073250  0.74744379  1
  Te2-  Te148  1  0.58648992  0.91820361  0.07735580  1
  Te2-  Te149  1  0.58346664  0.91830957  0.41365459  1
  Te2-  Te150  1  0.58597601  0.91876408  0.74789821  1
  Te2-  Te151  1  0.91746618  0.25270129  0.08000644  1
  Te2-  Te152  1  0.91820134  0.26143355  0.41223703  1
  Te2-  Te153  1  0.91854128  0.25350636  0.74772297  1
  Te2-  Te154  1  0.92410098  0.58403346  0.07959457  1
  Te2-  Te155  1  0.91687034  0.58624353  0.41364063  1
  Te2-  Te156  1  0.92246755  0.58836708  0.74691592  1
  Te2-  Te157  1  0.91795276  0.91950885  0.08472463  1
  Te2-  Te158  1  0.91867627  0.92104608  0.41080796  1
  Te2-  Te159  1  0.91753429  0.92130624  0.75000379  1
  Te2-  Te160  1  0.24746531  0.08248035  0.25587414  1
  Te2-  Te161  1  0.25267871  0.07707256  0.58843558  1
  Te2-  Te162  1  0.25520439  0.07389310  0.92715450  1
  Te2-  Te163  1  0.25823212  0.40930464  0.26141778  1
  Te2-  Te164  1  0.24798297  0.41323416  0.58745833  1
  Te2-  Te165  1  0.25747407  0.40883774  0.91212695  1
  Te2-  Te166  1  0.25708305  0.74286394  0.25617196  1
  Te2-  Te167  1  0.24895497  0.74852701  0.58610298  1
  Te2-  Te168  1  0.25048755  0.74657125  0.91627088  1
  Te2-  Te169  1  0.58306503  0.07879309  0.25042944  1
  Te2-  Te170  1  0.58738951  0.08027086  0.58018643  1
  Te2-  Te171  1  0.58506811  0.08045014  0.91632710  1
  Te2-  Te172  1  0.58505044  0.41584068  0.25089598  1
  Te2-  Te173  1  0.58667954  0.41454909  0.58747102  1
  Te2-  Te174  1  0.58926517  0.41897498  0.92059033  1
  Te2-  Te175  1  0.58291866  0.74685688  0.24935959  1
  Te2-  Te176  1  0.58596583  0.75131686  0.58598422  1
  Te2-  Te177  1  0.58352316  0.74597981  0.91598860  1
  Te2-  Te178  1  0.92404361  0.07548200  0.25203325  1
  Te2-  Te179  1  0.91816703  0.08555879  0.58330615  1
  Te2-  Te180  1  0.91751408  0.08191655  0.91960141  1
  Te2-  Te181  1  0.91937831  0.41830551  0.25371758  1
  Te2-  Te182  1  0.91527440  0.41854191  0.58712379  1
  Te2-  Te183  1  0.92374886  0.41519769  0.91903860  1
  Te2-  Te184  1  0.91978140  0.74497851  0.25361120  1
  Te2-  Te185  1  0.91551508  0.75034303  0.58765154  1
  Te2-  Te186  1  0.92210655  0.74748659  0.91872452  1
  Te2-  Te187  1  0.07779516  0.26159617  0.25444920  1
  Te2-  Te188  1  0.07913554  0.25055529  0.58830050  1
  Te2-  Te189  1  0.08303108  0.24880248  0.92542068  1
  Te2-  Te190  1  0.08380080  0.58205357  0.25116140  1
  Te2-  Te191  1  0.07876410  0.58853302  0.58457494  1
  Te2-  Te192  1  0.08632828  0.58073651  0.92033211  1
  Te2-  Te193  1  0.08143567  0.91260593  0.25211318  1
  Te2-  Te194  1  0.07124224  0.91717398  0.58346777  1
  Te2-  Te195  1  0.08320920  0.92010007  0.91885415  1
  Te2-  Te196  1  0.41346774  0.25094567  0.25394835  1
  Te2-  Te197  1  0.41258557  0.25438036  0.58287489  1
  Te2-  Te198  1  0.41484705  0.25545011  0.91475299  1
  Te2-  Te199  1  0.41240842  0.58729573  0.25802237  1
  Te2-  Te200  1  0.40971437  0.58677028  0.58539442  1
  Te2-  Te201  1  0.41256727  0.58686445  0.91628448  1
  Te2-  Te202  1  0.41427488  0.92198239  0.25030175  1
  Te2-  Te203  1  0.41280305  0.91965164  0.58629753  1
  Te2-  Te204  1  0.41210500  0.91731950  0.91835015  1
  Te2-  Te205  1  0.74858895  0.25232868  0.25233116  1
  Te2-  Te206  1  0.74903170  0.25525710  0.58451384  1
  Te2-  Te207  1  0.74888511  0.25551918  0.92174505  1
  Te2-  Te208  1  0.74747968  0.58849234  0.24895734  1
  Te2-  Te209  1  0.74608165  0.59255054  0.58806459  1
  Te2-  Te210  1  0.75188506  0.58668991  0.92131584  1
  Te2-  Te211  1  0.74404559  0.91611044  0.25537486  1
  Te2-  Te212  1  0.74839723  0.92495746  0.58435691  1
  Te2-  Te213  1  0.74823451  0.91741567  0.92061330  1
  Te2-  Te214  1  0.07549231  0.08352983  0.08787666  1
  Te2-  Te215  1  0.08380796  0.07625340  0.41457839  1
  Te2-  Te216  1  0.07844506  0.07919749  0.75235968  1
  Te2-  Te217  1  0.08620268  0.41038532  0.08226945  1
  Te2-  Te218  1  0.07864342  0.41891597  0.41403974  1
  Te2-  Te219  1  0.08115522  0.40910083  0.74678297  1
  Te2-  Te220  1  0.08504297  0.74285991  0.08055924  1
  Te2-  Te221  1  0.07545098  0.74345920  0.41135129  1
  Te2-  Te222  1  0.07859173  0.75029274  0.74653595  1
  Te2-  Te223  1  0.41296564  0.07983328  0.07986419  1
  Te2-  Te224  1  0.41274244  0.08040087  0.40869310  1
  Te2-  Te225  1  0.41546518  0.07844021  0.74156575  1
  Te2-  Te226  1  0.41560926  0.41069683  0.07545130  1
  Te2-  Te227  1  0.41284859  0.41024962  0.41883567  1
  Te2-  Te228  1  0.42110902  0.41353985  0.74635336  1
  Te2-  Te229  1  0.41100300  0.74982909  0.07331116  1
  Te2-  Te230  1  0.41356136  0.74569536  0.41451565  1
  Te2-  Te231  1  0.41065095  0.74846871  0.74385156  1
  Te2-  Te232  1  0.74861149  0.07870732  0.08018832  1
  Te2-  Te233  1  0.74378820  0.08327228  0.41363846  1
  Te2-  Te234  1  0.74686189  0.08361692  0.74903533  1
  Te2-  Te235  1  0.74833876  0.41674871  0.08042402  1
  Te2-  Te236  1  0.74382923  0.42056995  0.41501755  1
  Te2-  Te237  1  0.75068858  0.41316765  0.74941981  1
  Te2-  Te238  1  0.74632666  0.74803749  0.08202912  1
  Te2-  Te239  1  0.74395856  0.74970939  0.41491369  1
  Te2-  Te240  1  0.74784621  0.75099997  0.74727689  1
