# generated using pymatgen
data_Ti27(Cu53Te54)2
_symmetry_space_group_name_H-M   'P 1'
_cell_length_a   17.92083752
_cell_length_b   17.91622792
_cell_length_c   17.92377256
_cell_angle_alpha   89.99634870
_cell_angle_beta   90.01575832
_cell_angle_gamma   89.96884994
_symmetry_Int_Tables_number   1
_chemical_formula_structural   Ti27(Cu53Te54)2
_chemical_formula_sum   'Ti27 Cu106 Te108'
_cell_volume   5754.85285736
_cell_formula_units_Z   1
loop_
 _symmetry_equiv_pos_site_id
 _symmetry_equiv_pos_as_xyz
  1  'x, y, z'
loop_
 _atom_type_symbol
 _atom_type_oxidation_number
  Ti4+  4.0
  Cu+  1.0
  Te2-  -2.0
loop_
 _atom_site_type_symbol
 _atom_site_label
 _atom_site_symmetry_multiplicity
 _atom_site_fract_x
 _atom_site_fract_y
 _atom_site_fract_z
 _atom_site_occupancy
  Ti4+  Ti0  1  0.16546864  0.16866348  0.16896317  1
  Ti4+  Ti1  1  0.16144408  0.16817025  0.50301465  1
  Ti4+  Ti2  1  0.16964978  0.16868716  0.83154608  1
  Ti4+  Ti3  1  0.16521723  0.50333232  0.16942458  1
  Ti4+  Ti4  1  0.16457425  0.50019839  0.49865437  1
  Ti4+  Ti5  1  0.16925450  0.49689213  0.83516226  1
  Ti4+  Ti6  1  0.16763328  0.83548816  0.16208919  1
  Ti4+  Ti7  1  0.16741002  0.83443554  0.49863154  1
  Ti4+  Ti8  1  0.16881908  0.83093377  0.83287084  1
  Ti4+  Ti9  1  0.49894960  0.16398417  0.16892903  1
  Ti4+  Ti10  1  0.49803045  0.16243081  0.49995508  1
  Ti4+  Ti11  1  0.50183876  0.16614016  0.83571719  1
  Ti4+  Ti12  1  0.50078533  0.49871298  0.16679083  1
  Ti4+  Ti13  1  0.49789137  0.49690412  0.49517952  1
  Ti4+  Ti14  1  0.50071318  0.49487748  0.83247714  1
  Ti4+  Ti15  1  0.49855383  0.83410051  0.16602737  1
  Ti4+  Ti16  1  0.50058337  0.83303352  0.49934062  1
  Ti4+  Ti17  1  0.50059331  0.83197552  0.83516199  1
  Ti4+  Ti18  1  0.83268590  0.17006756  0.16820156  1
  Ti4+  Ti19  1  0.83059420  0.16382560  0.50058144  1
  Ti4+  Ti20  1  0.83594701  0.16787002  0.83368406  1
  Ti4+  Ti21  1  0.83293239  0.50137084  0.16751594  1
  Ti4+  Ti22  1  0.82967213  0.50499959  0.49943284  1
  Ti4+  Ti23  1  0.83312970  0.50071381  0.83318934  1
  Ti4+  Ti24  1  0.83750194  0.83774551  0.16417523  1
  Ti4+  Ti25  1  0.83555020  0.82993959  0.49990335  1
  Ti4+  Ti26  1  0.83598080  0.82848282  0.83471315  1
  Cu+  Cu27  1  0.17091076  0.17081796  -0.00107583  1
  Cu+  Cu28  1  0.16333313  0.16625239  0.33786069  1
  Cu+  Cu29  1  0.16069432  0.17142012  0.66899647  1
  Cu+  Cu30  1  0.16635849  0.49892863  0.00387363  1
  Cu+  Cu31  1  0.15818939  0.50195309  0.33364110  1
  Cu+  Cu32  1  0.17112450  0.49812046  0.66669282  1
  Cu+  Cu33  1  0.17147680  0.83021800  -0.00151183  1
  Cu+  Cu34  1  0.16939535  0.83835715  0.32918189  1
  Cu+  Cu35  1  0.16744179  0.83160153  0.66523311  1
  Cu+  Cu36  1  0.50358038  0.16508982  0.00156891  1
  Cu+  Cu37  1  0.49761949  0.15603254  0.33420374  1
  Cu+  Cu38  1  0.50069549  0.16675370  0.66649870  1
  Cu+  Cu39  1  0.50103610  0.49537775  -0.00029842  1
  Cu+  Cu40  1  0.49866086  0.49792024  0.33213630  1
  Cu+  Cu41  1  0.50175898  0.49777526  0.65817611  1
  Cu+  Cu42  1  0.49714484  0.83679833  0.00214435  1
  Cu+  Cu43  1  0.50017912  0.83333545  0.33368767  1
  Cu+  Cu44  1  0.50011955  0.83337549  0.66951569  1
  Cu+  Cu45  1  0.83685784  0.16796250  0.00312238  1
  Cu+  Cu46  1  0.83049955  0.16672791  0.33512247  1
  Cu+  Cu47  1  0.83469368  0.16836587  0.66434812  1
  Cu+  Cu48  1  0.83232537  0.50029604  -0.00425291  1
  Cu+  Cu49  1  0.83167048  0.50415040  0.33154474  1
  Cu+  Cu50  1  0.82746721  0.50479845  0.66857707  1
  Cu+  Cu51  1  0.84298329  0.83446310  -0.00130179  1
  Cu+  Cu52  1  0.83267513  0.83389626  0.33078964  1
  Cu+  Cu53  1  0.83841174  0.82497592  0.67030106  1
  Cu+  Cu54  1  0.16501522  0.00179705  0.16438334  1
  Cu+  Cu55  1  0.16408884  0.00120707  0.50062386  1
  Cu+  Cu56  1  0.17056377  0.00057003  0.83301074  1
  Cu+  Cu57  1  0.16552366  0.33506298  0.17187611  1
  Cu+  Cu58  1  0.16216378  0.33303836  0.50001641  1
  Cu+  Cu59  1  0.17174384  0.33523531  0.82743249  1
  Cu+  Cu60  1  0.17008079  0.67079383  0.16249003  1
  Cu+  Cu61  1  0.16449249  0.66779558  0.49853510  1
  Cu+  Cu62  1  0.16964441  0.66201035  0.83466421  1
  Cu+  Cu63  1  0.49257103  -0.00066421  0.16814591  1
  Cu+  Cu64  1  0.50266225  -0.00057034  0.49696958  1
  Cu+  Cu65  1  0.50396070  0.00018574  0.83561465  1
  Cu+  Cu66  1  0.50000824  0.32943428  0.16801497  1
  Cu+  Cu67  1  0.49667273  0.33066481  0.49547447  1
  Cu+  Cu68  1  0.49472608  0.33052147  0.83269732  1
  Cu+  Cu69  1  0.50224797  0.66476191  0.16601478  1
  Cu+  Cu70  1  0.49776920  0.66555767  0.49677251  1
  Cu+  Cu71  1  0.50249063  0.66484989  0.83518717  1
  Cu+  Cu72  1  0.83873949  0.00652544  0.16203090  1
  Cu+  Cu73  1  0.83334595  -0.00559895  0.49918716  1
  Cu+  Cu74  1  0.83486073  -0.00139484  0.83692424  1
  Cu+  Cu75  1  0.82862201  0.33486365  0.16979070  1
  Cu+  Cu76  1  0.82952131  0.33441585  0.50107101  1
  Cu+  Cu77  1  0.83182479  0.33523155  0.83418199  1
  Cu+  Cu78  1  0.83502900  0.67141747  0.16806171  1
  Cu+  Cu79  1  0.82653455  0.67139914  0.50383369  1
  Cu+  Cu80  1  0.83796773  0.66184891  0.82913017  1
  Cu+  Cu81  1  -0.00107889  0.17013024  0.16616125  1
  Cu+  Cu82  1  -0.00616956  0.16791287  0.50545015  1
  Cu+  Cu83  1  0.00348958  0.16997864  0.83168887  1
  Cu+  Cu84  1  -0.00065432  0.50281748  0.17477568  1
  Cu+  Cu85  1  -0.00019549  0.50690483  0.49664165  1
  Cu+  Cu86  1  0.00271207  0.50105517  0.83570101  1
  Cu+  Cu87  1  0.00307114  0.83458547  0.16018384  1
  Cu+  Cu88  1  0.00382192  0.82955314  0.50207354  1
  Cu+  Cu89  1  0.00072929  0.83001513  0.83355578  1
  Cu+  Cu90  1  0.33195628  0.16423019  0.17244884  1
  Cu+  Cu91  1  0.32719584  0.16586324  0.50279025  1
  Cu+  Cu92  1  0.33773077  0.17039155  0.83071759  1
  Cu+  Cu93  1  0.33400085  0.50160018  0.16811646  1
  Cu+  Cu94  1  0.33309198  0.49677368  0.49548840  1
  Cu+  Cu95  1  0.33457083  0.48773685  0.83403141  1
  Cu+  Cu96  1  0.33313927  0.83585199  0.15730936  1
  Cu+  Cu97  1  0.33348220  0.83677333  0.49882723  1
  Cu+  Cu98  1  0.33519679  0.83203489  0.83290333  1
  Cu+  Cu99  1  0.66629291  0.16782646  0.16941153  1
  Cu+  Cu100  1  0.66455134  0.16082924  0.49744741  1
  Cu+  Cu101  1  0.66811085  0.16576080  0.83455640  1
  Cu+  Cu102  1  0.66789048  0.49623441  0.16793983  1
  Cu+  Cu103  1  0.66012311  0.50290691  0.49935748  1
  Cu+  Cu104  1  0.66578015  0.50086068  0.83820968  1
  Cu+  Cu105  1  0.66895660  0.83701468  0.16828340  1
  Cu+  Cu106  1  0.66727776  0.83265756  0.49968241  1
  Cu+  Cu107  1  0.66502389  0.83029429  0.83648150  1
  Cu+  Cu108  1  0.73529488  0.59114641  0.74673731  1
  Cu+  Cu109  1  0.93236513  0.92842587  0.91891427  1
  Cu+  Cu110  1  0.07221975  0.26428423  0.74518097  1
  Cu+  Cu111  1  0.73746052  0.40512021  0.26279006  1
  Cu+  Cu112  1  0.73473718  0.75602551  0.59950422  1
  Cu+  Cu113  1  0.41271272  0.25535403  0.73421047  1
  Cu+  Cu114  1  0.92353333  0.59860494  0.26104134  1
  Cu+  Cu115  1  0.93176182  0.58415924  0.92718846  1
  Cu+  Cu116  1  0.58315603  0.59564923  0.58626082  1
  Cu+  Cu117  1  0.58601217  0.59325492  0.93053285  1
  Cu+  Cu118  1  0.93124727  0.08229583  0.07443232  1
  Cu+  Cu119  1  0.92006843  0.26580006  0.58897741  1
  Cu+  Cu120  1  0.26231193  0.40832608  0.73305683  1
  Cu+  Cu121  1  0.59649452  0.07075381  0.40474209  1
  Cu+  Cu122  1  0.07550935  0.60002618  0.40639093  1
  Cu+  Cu123  1  0.39910777  0.06971627  0.26465614  1
  Cu+  Cu124  1  0.93169976  0.73562712  0.74165922  1
  Cu+  Cu125  1  0.26485202  0.73673619  0.07026496  1
  Cu+  Cu126  1  0.40565534  0.40348685  0.93258957  1
  Cu+  Cu127  1  0.07343058  0.40306338  0.26109266  1
  Cu+  Cu128  1  0.74094515  0.40326779  0.92481605  1
  Cu+  Cu129  1  0.40550694  0.93094010  0.06897804  1
  Cu+  Cu130  1  0.92824277  0.73936754  0.07764685  1
  Cu+  Cu131  1  0.08177277  0.73893243  0.59422733  1
  Cu+  Cu132  1  0.73792362  0.74639713  0.25610037  1
  Te2-  Te133  1  0.25243775  0.25387286  0.08745425  1
  Te2-  Te134  1  0.24826519  0.25170627  0.41703559  1
  Te2-  Te135  1  0.25790027  0.25437791  0.74098686  1
  Te2-  Te136  1  0.25431773  0.58414659  0.08037752  1
  Te2-  Te137  1  0.25007215  0.58461694  0.41357230  1
  Te2-  Te138  1  0.25684497  0.58122981  0.75089937  1
  Te2-  Te139  1  0.25071671  0.92557923  0.07540446  1
  Te2-  Te140  1  0.25106597  0.92199909  0.41493194  1
  Te2-  Te141  1  0.25242328  0.91561435  0.74742121  1
  Te2-  Te142  1  0.58501263  0.25008403  0.08393167  1
  Te2-  Te143  1  0.58197323  0.24687719  0.41263274  1
  Te2-  Te144  1  0.58693709  0.25167865  0.74948961  1
  Te2-  Te145  1  0.58822059  0.58342168  0.08141717  1
  Te2-  Te146  1  0.58273933  0.58579026  0.40984317  1
  Te2-  Te147  1  0.58407397  0.58440872  0.74408754  1
  Te2-  Te148  1  0.58526611  0.92041204  0.08394607  1
  Te2-  Te149  1  0.58864013  0.91695412  0.41241799  1
  Te2-  Te150  1  0.58674025  0.91686312  0.75054233  1
  Te2-  Te151  1  0.91755916  0.25837127  0.08360199  1
  Te2-  Te152  1  0.91519003  0.25224497  0.41603051  1
  Te2-  Te153  1  0.91832547  0.25774915  0.74651472  1
  Te2-  Te154  1  0.92150526  0.58567759  0.07949139  1
  Te2-  Te155  1  0.91576472  0.59361745  0.41440928  1
  Te2-  Te156  1  0.92526265  0.58226954  0.74269970  1
  Te2-  Te157  1  0.92621803  0.92608653  0.07669603  1
  Te2-  Te158  1  0.92066168  0.91427225  0.41521591  1
  Te2-  Te159  1  0.91898863  0.91706602  0.74880230  1
  Te2-  Te160  1  0.24682235  0.07924631  0.25603951  1
  Te2-  Te161  1  0.24563078  0.08312463  0.58902470  1
  Te2-  Te162  1  0.25548447  0.08490203  0.91655375  1
  Te2-  Te163  1  0.25084267  0.41950910  0.25518461  1
  Te2-  Te164  1  0.25252709  0.41198130  0.58097606  1
  Te2-  Te165  1  0.25064060  0.40957326  0.92586466  1
  Te2-  Te166  1  0.25428726  0.75243871  0.24861049  1
  Te2-  Te167  1  0.25380138  0.74744626  0.58247325  1
  Te2-  Te168  1  0.25634583  0.74408592  0.91684203  1
  Te2-  Te169  1  0.58794062  0.07526796  0.25038667  1
  Te2-  Te170  1  0.58407205  0.07960846  0.58790576  1
  Te2-  Te171  1  0.58843441  0.08090313  0.92031587  1
  Te2-  Te172  1  0.58474220  0.41139960  0.25356502  1
  Te2-  Te173  1  0.58455340  0.40877192  0.57964953  1
  Te2-  Te174  1  0.58657408  0.40740713  0.91843708  1
  Te2-  Te175  1  0.58533128  0.74825185  0.25166825  1
  Te2-  Te176  1  0.58493621  0.74633892  0.58886347  1
  Te2-  Te177  1  0.58516546  0.74741722  0.92502652  1
  Te2-  Te178  1  0.91916278  0.08499125  0.25415494  1
  Te2-  Te179  1  0.91512534  0.07621938  0.58592984  1
  Te2-  Te180  1  0.92485115  0.08308728  0.91919205  1
  Te2-  Te181  1  0.91727449  0.41321412  0.25560400  1
  Te2-  Te182  1  0.91555380  0.42172256  0.58513782  1
  Te2-  Te183  1  0.92100011  0.41405906  0.91859940  1
  Te2-  Te184  1  0.92516151  0.75246593  0.25276633  1
  Te2-  Te185  1  0.92449165  0.74086014  0.58632523  1
  Te2-  Te186  1  0.92425011  0.73925921  0.92116720  1
  Te2-  Te187  1  0.07806402  0.25145074  0.25616170  1
  Te2-  Te188  1  0.07442841  0.25876876  0.58894833  1
  Te2-  Te189  1  0.08559483  0.25620657  0.91674473  1
  Te2-  Te190  1  0.07975477  0.59749437  0.25249648  1
  Te2-  Te191  1  0.08184366  0.58434234  0.59031777  1
  Te2-  Te192  1  0.08472996  0.58523826  0.92217553  1
  Te2-  Te193  1  0.08074664  0.91939377  0.24796034  1
  Te2-  Te194  1  0.08157137  0.91865250  0.58620463  1
  Te2-  Te195  1  0.08487622  0.91787654  0.91813128  1
  Te2-  Te196  1  0.41560582  0.24963479  0.25585228  1
  Te2-  Te197  1  0.41233628  0.25147893  0.58291743  1
  Te2-  Te198  1  0.41412732  0.25070662  0.92524684  1
  Te2-  Te199  1  0.41668610  0.58526772  0.25129157  1
  Te2-  Te200  1  0.41179556  0.58316209  0.58178313  1
  Te2-  Te201  1  0.41427910  0.58012644  0.91640925  1
  Te2-  Te202  1  0.40959470  0.91546574  0.25478881  1
  Te2-  Te203  1  0.41771550  0.91846269  0.58469204  1
  Te2-  Te204  1  0.41323986  0.92127848  0.91693524  1
  Te2-  Te205  1  0.74418627  0.25278229  0.25688186  1
  Te2-  Te206  1  0.74282252  0.24946679  0.58380389  1
  Te2-  Te207  1  0.74912197  0.25031514  0.92092040  1
  Te2-  Te208  1  0.74486472  0.59002506  0.25057263  1
  Te2-  Te209  1  0.74053121  0.59007472  0.58756618  1
  Te2-  Te210  1  0.74618577  0.59174055  0.92053904  1
  Te2-  Te211  1  0.75367535  0.92507412  0.24860941  1
  Te2-  Te212  1  0.75153854  0.91381045  0.58909872  1
  Te2-  Te213  1  0.74966886  0.91386631  0.91934609  1
  Te2-  Te214  1  0.08294724  0.08519045  0.07799771  1
  Te2-  Te215  1  0.07574057  0.08321688  0.41890090  1
  Te2-  Te216  1  0.08268448  0.08000291  0.75000902  1
  Te2-  Te217  1  0.07899573  0.41699056  0.08582773  1
  Te2-  Te218  1  0.07520616  0.41247660  0.41541220  1
  Te2-  Te219  1  0.07845530  0.41709485  0.74646565  1
  Te2-  Te220  1  0.08150773  0.74616167  0.07565489  1
  Te2-  Te221  1  0.08178180  0.75123997  0.40745263  1
  Te2-  Te222  1  0.08338842  0.74163861  0.74794865  1
  Te2-  Te223  1  0.41101668  0.08315902  0.07855440  1
  Te2-  Te224  1  0.40641091  0.07672196  0.41817223  1
  Te2-  Te225  1  0.41753416  0.07964751  0.74953072  1
  Te2-  Te226  1  0.41323929  0.41186153  0.08443815  1
  Te2-  Te227  1  0.41229269  0.41139496  0.40980925  1
  Te2-  Te228  1  0.41611708  0.41120671  0.73808540  1
  Te2-  Te229  1  0.41678656  0.74326012  0.07910187  1
  Te2-  Te230  1  0.41402299  0.74930030  0.41472880  1
  Te2-  Te231  1  0.41687253  0.74554262  0.74976394  1
  Te2-  Te232  1  0.74676197  0.08490263  0.08185822  1
  Te2-  Te233  1  0.74855879  0.07491901  0.41248460  1
  Te2-  Te234  1  0.75236665  0.08192497  0.75012245  1
  Te2-  Te235  1  0.74826893  0.41507741  0.07860261  1
  Te2-  Te236  1  0.74557717  0.41792049  0.41571520  1
  Te2-  Te237  1  0.74532465  0.41482405  0.74792152  1
  Te2-  Te238  1  0.75061230  0.75258159  0.07933676  1
  Te2-  Te239  1  0.74599026  0.74826090  0.41071775  1
  Te2-  Te240  1  0.74216240  0.74348992  0.74963752  1
