# generated using pymatgen
data_Ti27(Cu53Te54)2
_symmetry_space_group_name_H-M   'P 1'
_cell_length_a   17.88148758
_cell_length_b   17.87814576
_cell_length_c   17.88346014
_cell_angle_alpha   90.02236139
_cell_angle_beta   90.00547828
_cell_angle_gamma   89.99262298
_symmetry_Int_Tables_number   1
_chemical_formula_structural   Ti27(Cu53Te54)2
_chemical_formula_sum   'Ti27 Cu106 Te108'
_cell_volume   5717.12425795
_cell_formula_units_Z   1
loop_
 _symmetry_equiv_pos_site_id
 _symmetry_equiv_pos_as_xyz
  1  'x, y, z'
loop_
 _atom_type_symbol
 _atom_type_oxidation_number
  Ti4+  4.0
  Cu+  1.0
  Te2-  -2.0
loop_
 _atom_site_type_symbol
 _atom_site_label
 _atom_site_symmetry_multiplicity
 _atom_site_fract_x
 _atom_site_fract_y
 _atom_site_fract_z
 _atom_site_occupancy
  Ti4+  Ti0  1  0.16757606  0.16766059  0.16470147  1
  Ti4+  Ti1  1  0.16704339  0.16653260  0.49905436  1
  Ti4+  Ti2  1  0.16864866  0.16776957  0.83293851  1
  Ti4+  Ti3  1  0.16727494  0.49917292  0.16899434  1
  Ti4+  Ti4  1  0.16769242  0.50325234  0.50017972  1
  Ti4+  Ti5  1  0.16595670  0.50031042  0.83359919  1
  Ti4+  Ti6  1  0.16580817  0.83580495  0.16828093  1
  Ti4+  Ti7  1  0.16534409  0.83333538  0.49999980  1
  Ti4+  Ti8  1  0.16527402  0.83357595  0.83425279  1
  Ti4+  Ti9  1  0.50185051  0.16749995  0.16481510  1
  Ti4+  Ti10  1  0.49930973  0.16558803  0.50006680  1
  Ti4+  Ti11  1  0.50067312  0.16637186  0.83277151  1
  Ti4+  Ti12  1  0.49713749  0.49726490  0.16543712  1
  Ti4+  Ti13  1  0.49822520  0.49699541  0.50108848  1
  Ti4+  Ti14  1  0.50260141  0.49959548  0.83034259  1
  Ti4+  Ti15  1  0.49914016  0.83436416  0.16851047  1
  Ti4+  Ti16  1  0.49903932  0.83181373  0.49733327  1
  Ti4+  Ti17  1  0.49782246  0.83290172  0.83307438  1
  Ti4+  Ti18  1  0.83320048  0.16739686  0.16565313  1
  Ti4+  Ti19  1  0.83384234  0.16529959  0.50300706  1
  Ti4+  Ti20  1  0.83352104  0.16847042  0.83504300  1
  Ti4+  Ti21  1  0.83281958  0.50181050  0.16903954  1
  Ti4+  Ti22  1  0.83418944  0.49933158  0.50225510  1
  Ti4+  Ti23  1  0.83416889  0.50469694  0.83380599  1
  Ti4+  Ti24  1  0.83316378  0.82588815  0.16697996  1
  Ti4+  Ti25  1  0.83418778  0.83583151  0.49593206  1
  Ti4+  Ti26  1  0.83470230  0.83132963  0.83351059  1
  Cu+  Cu27  1  0.16733507  0.16793315  -0.00165129  1
  Cu+  Cu28  1  0.16925596  0.16868859  0.32982015  1
  Cu+  Cu29  1  0.16860467  0.16493704  0.66539917  1
  Cu+  Cu30  1  0.17083709  0.49796184  0.00539820  1
  Cu+  Cu31  1  0.16731150  0.49976572  0.33616016  1
  Cu+  Cu32  1  0.16421036  0.50463561  0.66504626  1
  Cu+  Cu33  1  0.16562027  0.83518920  0.00054803  1
  Cu+  Cu34  1  0.16003174  0.83320308  0.33329322  1
  Cu+  Cu35  1  0.17061604  0.83021611  0.67281377  1
  Cu+  Cu36  1  0.50309486  0.16746040  -0.00280593  1
  Cu+  Cu37  1  0.50216454  0.16640828  0.33292021  1
  Cu+  Cu38  1  0.49759563  0.16809061  0.66651180  1
  Cu+  Cu39  1  0.49935023  0.49587271  -0.00622218  1
  Cu+  Cu40  1  0.49455436  0.49505617  0.33134420  1
  Cu+  Cu41  1  0.50736730  0.50102693  0.66287744  1
  Cu+  Cu42  1  0.49995059  0.83545686  0.00448270  1
  Cu+  Cu43  1  0.49828890  0.83782475  0.33307249  1
  Cu+  Cu44  1  0.49773785  0.83026775  0.66470749  1
  Cu+  Cu45  1  0.83395934  0.16703188  0.00120426  1
  Cu+  Cu46  1  0.83369564  0.16560957  0.33582652  1
  Cu+  Cu47  1  0.83187451  0.16822241  0.67065264  1
  Cu+  Cu48  1  0.83418100  0.50942305  0.00287913  1
  Cu+  Cu49  1  0.83217714  0.49884665  0.33568412  1
  Cu+  Cu50  1  0.83558336  0.50102675  0.66981904  1
  Cu+  Cu51  1  0.83161180  0.82553042  -0.00216848  1
  Cu+  Cu52  1  0.83904172  0.82765419  0.33022246  1
  Cu+  Cu53  1  0.83451567  0.83572204  0.66418945  1
  Cu+  Cu54  1  0.16827966  0.00490642  0.16421362  1
  Cu+  Cu55  1  0.15861351  0.00220523  0.50119217  1
  Cu+  Cu56  1  0.16685499  -0.00147184  0.83478901  1
  Cu+  Cu57  1  0.16830547  0.33267874  0.16440655  1
  Cu+  Cu58  1  0.16887369  0.33476232  0.50076064  1
  Cu+  Cu59  1  0.16749600  0.33180189  0.83233664  1
  Cu+  Cu60  1  0.16561280  0.66576334  0.17026249  1
  Cu+  Cu61  1  0.17300857  0.66995507  0.49769454  1
  Cu+  Cu62  1  0.16267015  0.66552998  0.83127942  1
  Cu+  Cu63  1  0.50272092  0.00098343  0.16711984  1
  Cu+  Cu64  1  0.49925083  0.00038890  0.49799648  1
  Cu+  Cu65  1  0.49782060  -0.00143876  0.83549272  1
  Cu+  Cu66  1  0.49710859  0.33371007  0.16696256  1
  Cu+  Cu67  1  0.50019596  0.33022936  0.49937991  1
  Cu+  Cu68  1  0.50099693  0.33169265  0.83311898  1
  Cu+  Cu69  1  0.49806916  0.66803974  0.16590772  1
  Cu+  Cu70  1  0.49514374  0.66248806  0.50193982  1
  Cu+  Cu71  1  0.50177290  0.66597519  0.83178746  1
  Cu+  Cu72  1  0.83430572  -0.00121388  0.16296069  1
  Cu+  Cu73  1  0.83610375  0.00003736  0.50314804  1
  Cu+  Cu74  1  0.83206191  0.00156848  0.83385354  1
  Cu+  Cu75  1  0.83363123  0.33432857  0.16778276  1
  Cu+  Cu76  1  0.83397160  0.33156281  0.50393367  1
  Cu+  Cu77  1  0.83770775  0.33757576  0.83588030  1
  Cu+  Cu78  1  0.82260721  0.66213970  0.16719263  1
  Cu+  Cu79  1  0.83423554  0.66786876  0.49701027  1
  Cu+  Cu80  1  0.83162426  0.66834948  0.83863709  1
  Cu+  Cu81  1  0.00127549  0.16761599  0.16421217  1
  Cu+  Cu82  1  0.00181754  0.16377545  0.50317955  1
  Cu+  Cu83  1  -0.00018619  0.16755563  0.83451875  1
  Cu+  Cu84  1  -0.00040834  0.50016058  0.16937678  1
  Cu+  Cu85  1  0.00245228  0.50151117  0.50448639  1
  Cu+  Cu86  1  0.00015377  0.50483867  0.83094500  1
  Cu+  Cu87  1  -0.00010363  0.83082559  0.17336559  1
  Cu+  Cu88  1  -0.00215932  0.84109350  0.49428777  1
  Cu+  Cu89  1  0.00097189  0.83428308  0.83346265  1
  Cu+  Cu90  1  0.33428031  0.16744078  0.16360942  1
  Cu+  Cu91  1  0.33065098  0.16536642  0.49887828  1
  Cu+  Cu92  1  0.33598420  0.16610878  0.83068847  1
  Cu+  Cu93  1  0.33035939  0.49233025  0.16686357  1
  Cu+  Cu94  1  0.33428572  0.50336480  0.49699783  1
  Cu+  Cu95  1  0.33787709  0.49634327  0.83371681  1
  Cu+  Cu96  1  0.33321192  0.83729376  0.16815692  1
  Cu+  Cu97  1  0.33622902  0.82963859  0.49769914  1
  Cu+  Cu98  1  0.32891728  0.83182603  0.83340035  1
  Cu+  Cu99  1  0.66933333  0.16811697  0.16553585  1
  Cu+  Cu100  1  0.66635161  0.16405890  0.50211032  1
  Cu+  Cu101  1  0.66660382  0.17131880  0.83713002  1
  Cu+  Cu102  1  0.66384120  0.50162115  0.16503367  1
  Cu+  Cu103  1  0.66529796  0.49860573  0.50257374  1
  Cu+  Cu104  1  0.66982039  0.50358028  0.82678263  1
  Cu+  Cu105  1  0.66480763  0.82809521  0.17009336  1
  Cu+  Cu106  1  0.66637152  0.83351779  0.49734291  1
  Cu+  Cu107  1  0.66414645  0.83294871  0.83272546  1
  Cu+  Cu108  1  0.92766235  0.40572813  0.74198602  1
  Cu+  Cu109  1  0.26050600  0.74919772  0.40204987  1
  Cu+  Cu110  1  0.07270771  0.59591687  0.73511335  1
  Cu+  Cu111  1  0.07413046  0.07812565  0.59926982  1
  Cu+  Cu112  1  0.40828991  0.40483141  0.92118623  1
  Cu+  Cu113  1  0.40246891  0.40090450  0.26290050  1
  Cu+  Cu114  1  0.40682782  0.26064677  0.73662087  1
  Cu+  Cu115  1  0.40671690  0.06993206  0.92610305  1
  Cu+  Cu116  1  0.07429720  0.93270928  0.40462305  1
  Cu+  Cu117  1  0.07534764  0.73419617  0.25887833  1
  Cu+  Cu118  1  0.40770425  0.73693419  0.59509667  1
  Cu+  Cu119  1  0.26045470  0.73373330  0.75087282  1
  Cu+  Cu120  1  0.59678451  0.26178122  0.92889838  1
  Cu+  Cu121  1  0.92350824  0.93127422  0.25041109  1
  Cu+  Cu122  1  0.92538903  0.92469206  0.59657591  1
  Cu+  Cu123  1  0.25763981  0.40222059  0.07257424  1
  Cu+  Cu124  1  0.73357874  0.73817579  0.26337725  1
  Cu+  Cu125  1  0.74504699  0.59801769  0.73777105  1
  Cu+  Cu126  1  0.93350772  0.59190476  0.93272821  1
  Cu+  Cu127  1  0.73240897  0.74429639  0.92349276  1
  Cu+  Cu128  1  0.73114582  0.58769250  0.07357558  1
  Cu+  Cu129  1  0.40917471  0.93212329  0.40611821  1
  Cu+  Cu130  1  0.92531294  0.73405102  0.40862519  1
  Cu+  Cu131  1  0.59503799  0.59553593  0.58503908  1
  Cu+  Cu132  1  0.40985368  0.58940370  0.40106127  1
  Te2-  Te133  1  0.25516829  0.25180321  0.07698165  1
  Te2-  Te134  1  0.25186270  0.25284989  0.41426136  1
  Te2-  Te135  1  0.25313840  0.25351515  0.74434259  1
  Te2-  Te136  1  0.25334465  0.58720751  0.08546697  1
  Te2-  Te137  1  0.25474917  0.58907674  0.40903869  1
  Te2-  Te138  1  0.25621725  0.58223412  0.74841699  1
  Te2-  Te139  1  0.25104737  0.91948616  0.08190905  1
  Te2-  Te140  1  0.25096216  0.92004044  0.41491116  1
  Te2-  Te141  1  0.25217934  0.92108340  0.74884630  1
  Te2-  Te142  1  0.58790384  0.25594471  0.08119024  1
  Te2-  Te143  1  0.58642973  0.24980280  0.41567265  1
  Te2-  Te144  1  0.58663346  0.25226497  0.74585236  1
  Te2-  Te145  1  0.57910614  0.58539323  0.07765781  1
  Te2-  Te146  1  0.58249520  0.58228839  0.41315803  1
  Te2-  Te147  1  0.58838554  0.59090340  0.74378360  1
  Te2-  Te148  1  0.58799312  0.91767050  0.08466948  1
  Te2-  Te149  1  0.58640143  0.91940750  0.41423383  1
  Te2-  Te150  1  0.58205305  0.91739181  0.74721397  1
  Te2-  Te151  1  0.91861381  0.25400305  0.08132642  1
  Te2-  Te152  1  0.91968085  0.25015893  0.41841754  1
  Te2-  Te153  1  0.92118159  0.25326898  0.74832610  1
  Te2-  Te154  1  0.92283449  0.59071385  0.08657525  1
  Te2-  Te155  1  0.92105925  0.58207743  0.41449744  1
  Te2-  Te156  1  0.91918871  0.59426543  0.74524665  1
  Te2-  Te157  1  0.91810693  0.91074689  0.08024004  1
  Te2-  Te158  1  0.91861271  0.92707963  0.40634445  1
  Te2-  Te159  1  0.91939734  0.92082616  0.74987344  1
  Te2-  Te160  1  0.25446787  0.08258523  0.25036497  1
  Te2-  Te161  1  0.25244706  0.07769862  0.58366279  1
  Te2-  Te162  1  0.25327091  0.08059179  0.91906440  1
  Te2-  Te163  1  0.25002796  0.40984342  0.25792432  1
  Te2-  Te164  1  0.25239724  0.41873086  0.58543088  1
  Te2-  Te165  1  0.25310406  0.41139427  0.91825882  1
  Te2-  Te166  1  0.25387750  0.74935462  0.25223688  1
  Te2-  Te167  1  0.25403070  0.74675008  0.58904822  1
  Te2-  Te168  1  0.24865580  0.74571879  0.92074128  1
  Te2-  Te169  1  0.58723637  0.08369241  0.25054159  1
  Te2-  Te170  1  0.58253019  0.08001506  0.58664040  1
  Te2-  Te171  1  0.58746556  0.07913824  0.91772880  1
  Te2-  Te172  1  0.58554491  0.41474682  0.25056484  1
  Te2-  Te173  1  0.58590514  0.40916146  0.58444174  1
  Te2-  Te174  1  0.59243486  0.41565279  0.91550913  1
  Te2-  Te175  1  0.58115881  0.74459873  0.25666534  1
  Te2-  Te176  1  0.58774557  0.74762987  0.58359959  1
  Te2-  Te177  1  0.58145279  0.74735415  0.92103585  1
  Te2-  Te178  1  0.92037109  0.08288268  0.25149368  1
  Te2-  Te179  1  0.92073558  0.07937511  0.59331810  1
  Te2-  Te180  1  0.91844045  0.08182857  0.91898409  1
  Te2-  Te181  1  0.91764404  0.41545306  0.25363095  1
  Te2-  Te182  1  0.92135190  0.41412862  0.58755918  1
  Te2-  Te183  1  0.92013160  0.42163460  0.92286680  1
  Te2-  Te184  1  0.92106289  0.73450025  0.25268163  1
  Te2-  Te185  1  0.92086119  0.75049263  0.58214352  1
  Te2-  Te186  1  0.92501472  0.74656562  0.92013036  1
  Te2-  Te187  1  0.08192339  0.25300763  0.25005778  1
  Te2-  Te188  1  0.08320085  0.25342888  0.58577126  1
  Te2-  Te189  1  0.08220028  0.25255499  0.91763107  1
  Te2-  Te190  1  0.07999764  0.58301011  0.25696874  1
  Te2-  Te191  1  0.08127351  0.59341733  0.58323424  1
  Te2-  Te192  1  0.08497811  0.58514226  0.92502327  1
  Te2-  Te193  1  0.07967396  0.92790450  0.25210942  1
  Te2-  Te194  1  0.08048536  0.91712058  0.59235363  1
  Te2-  Te195  1  0.08009355  0.91954572  0.91982259  1
  Te2-  Te196  1  0.41365744  0.24984547  0.25295402  1
  Te2-  Te197  1  0.41059133  0.25270926  0.58353668  1
  Te2-  Te198  1  0.41154740  0.25320090  0.92108211  1
  Te2-  Te199  1  0.41034432  0.58553663  0.24811447  1
  Te2-  Te200  1  0.41010162  0.58270617  0.59191169  1
  Te2-  Te201  1  0.41644457  0.58605140  0.91597626  1
  Te2-  Te202  1  0.41245788  0.92410795  0.25219966  1
  Te2-  Te203  1  0.41383331  0.91828401  0.58338664  1
  Te2-  Te204  1  0.41105434  0.91540880  0.92094745  1
  Te2-  Te205  1  0.74949249  0.25222907  0.25325585  1
  Te2-  Te206  1  0.74715290  0.25039696  0.58700451  1
  Te2-  Te207  1  0.75097492  0.25748891  0.92220769  1
  Te2-  Te208  1  0.74175826  0.58267859  0.25908069  1
  Te2-  Te209  1  0.74860059  0.58980735  0.58569114  1
  Te2-  Te210  1  0.73941662  0.58898980  0.92155768  1
  Te2-  Te211  1  0.75017817  0.91520059  0.25139610  1
  Te2-  Te212  1  0.74599031  0.91809679  0.58330857  1
  Te2-  Te213  1  0.74907585  0.91689761  0.91852536  1
  Te2-  Te214  1  0.08160628  0.08266192  0.07845414  1
  Te2-  Te215  1  0.07958283  0.08445615  0.40811119  1
  Te2-  Te216  1  0.08099191  0.08050373  0.75064470  1
  Te2-  Te217  1  0.07960647  0.41516073  0.08322843  1
  Te2-  Te218  1  0.08189056  0.41607405  0.41792148  1
  Te2-  Te219  1  0.08179244  0.41358956  0.74655107  1
  Te2-  Te220  1  0.08191389  0.74886984  0.08291217  1
  Te2-  Te221  1  0.07671651  0.74318437  0.41485729  1
  Te2-  Te222  1  0.07631131  0.74834782  0.74527097  1
  Te2-  Te223  1  0.41613227  0.08051183  0.07953603  1
  Te2-  Te224  1  0.41218916  0.08277300  0.41129411  1
  Te2-  Te225  1  0.41554331  0.07848799  0.74620390  1
  Te2-  Te226  1  0.41253571  0.40975080  0.07536991  1
  Te2-  Te227  1  0.41085508  0.40860289  0.41639421  1
  Te2-  Te228  1  0.41734992  0.41478199  0.74177854  1
  Te2-  Te229  1  0.41224411  0.75028283  0.08302082  1
  Te2-  Te230  1  0.41409301  0.74245221  0.40681154  1
  Te2-  Te231  1  0.41228580  0.74320331  0.74762923  1
  Te2-  Te232  1  0.74830448  0.08030116  0.08033643  1
  Te2-  Te233  1  0.74911241  0.07986546  0.41732185  1
  Te2-  Te234  1  0.74570859  0.08364472  0.75144825  1
  Te2-  Te235  1  0.74961453  0.41699969  0.08036145  1
  Te2-  Te236  1  0.74868166  0.41394227  0.41861423  1
  Te2-  Te237  1  0.75028564  0.41383922  0.74858998  1
  Te2-  Te238  1  0.74052874  0.74373167  0.07814240  1
  Te2-  Te239  1  0.74517506  0.74705853  0.41347417  1
  Te2-  Te240  1  0.74765910  0.74989320  0.74333663  1
