# generated using pymatgen
data_Ti27(Cu53Te54)2
_symmetry_space_group_name_H-M   'P 1'
_cell_length_a   17.87792889
_cell_length_b   17.87429959
_cell_length_c   17.87651283
_cell_angle_alpha   90.03370977
_cell_angle_beta   90.03236824
_cell_angle_gamma   90.00090299
_symmetry_Int_Tables_number   1
_chemical_formula_structural   Ti27(Cu53Te54)2
_chemical_formula_sum   'Ti27 Cu106 Te108'
_cell_volume   5712.53532662
_cell_formula_units_Z   1
loop_
 _symmetry_equiv_pos_site_id
 _symmetry_equiv_pos_as_xyz
  1  'x, y, z'
loop_
 _atom_type_symbol
 _atom_type_oxidation_number
  Ti4+  4.0
  Cu+  1.0
  Te2-  -2.0
loop_
 _atom_site_type_symbol
 _atom_site_label
 _atom_site_symmetry_multiplicity
 _atom_site_fract_x
 _atom_site_fract_y
 _atom_site_fract_z
 _atom_site_occupancy
  Ti4+  Ti0  1  0.16769954  0.16919142  0.16488689  1
  Ti4+  Ti1  1  0.16723116  0.16694365  0.50105010  1
  Ti4+  Ti2  1  0.16673406  0.16215579  0.83088795  1
  Ti4+  Ti3  1  0.16715045  0.50076535  0.16531209  1
  Ti4+  Ti4  1  0.16543052  0.49829778  0.49811812  1
  Ti4+  Ti5  1  0.16750301  0.50078449  0.83230144  1
  Ti4+  Ti6  1  0.16581317  0.83580137  0.16583775  1
  Ti4+  Ti7  1  0.16553948  0.83311555  0.49960864  1
  Ti4+  Ti8  1  0.16986897  0.83447078  0.83294415  1
  Ti4+  Ti9  1  0.50029423  0.16523027  0.16571838  1
  Ti4+  Ti10  1  0.50084908  0.16743120  0.50106479  1
  Ti4+  Ti11  1  0.50170909  0.16638795  0.83238253  1
  Ti4+  Ti12  1  0.50081380  0.49809166  0.16528895  1
  Ti4+  Ti13  1  0.49928935  0.50115176  0.50053998  1
  Ti4+  Ti14  1  0.49730337  0.50318100  0.83312423  1
  Ti4+  Ti15  1  0.49891922  0.83278539  0.16712103  1
  Ti4+  Ti16  1  0.50004631  0.83140209  0.49888404  1
  Ti4+  Ti17  1  0.50323655  0.83039605  0.83276780  1
  Ti4+  Ti18  1  0.83295682  0.16342657  0.16657135  1
  Ti4+  Ti19  1  0.83131497  0.16436278  0.50125890  1
  Ti4+  Ti20  1  0.82794268  0.16960495  0.83518792  1
  Ti4+  Ti21  1  0.83360556  0.49824461  0.17067507  1
  Ti4+  Ti22  1  0.83541688  0.49898198  0.50079339  1
  Ti4+  Ti23  1  0.83361329  0.50370428  0.83546009  1
  Ti4+  Ti24  1  0.83313964  0.83342577  0.16886003  1
  Ti4+  Ti25  1  0.83390814  0.83477564  0.49692883  1
  Ti4+  Ti26  1  0.83438151  0.83346161  0.83390000  1
  Cu+  Cu27  1  0.16932986  0.16406911  -0.00104717  1
  Cu+  Cu28  1  0.16849957  0.17202732  0.33276287  1
  Cu+  Cu29  1  0.16686514  0.15924293  0.66429582  1
  Cu+  Cu30  1  0.17210624  0.49741373  -0.00015831  1
  Cu+  Cu31  1  0.16288834  0.49748093  0.32990037  1
  Cu+  Cu32  1  0.16656994  0.49990638  0.66320579  1
  Cu+  Cu33  1  0.16471816  0.83342136  -0.00202843  1
  Cu+  Cu34  1  0.16582913  0.83661298  0.33188630  1
  Cu+  Cu35  1  0.16720970  0.83637632  0.66849700  1
  Cu+  Cu36  1  0.49953295  0.16640334  -0.00220908  1
  Cu+  Cu37  1  0.50087141  0.16647212  0.33427481  1
  Cu+  Cu38  1  0.50512445  0.17133396  0.66540572  1
  Cu+  Cu39  1  0.49687710  0.50612573  0.00176902  1
  Cu+  Cu40  1  0.50107645  0.49620070  0.33201276  1
  Cu+  Cu41  1  0.49500854  0.50328230  0.66842782  1
  Cu+  Cu42  1  0.49846416  0.83120551  0.00070151  1
  Cu+  Cu43  1  0.49741743  0.83217195  0.33266230  1
  Cu+  Cu44  1  0.50577254  0.82983877  0.66435671  1
  Cu+  Cu45  1  0.82355839  0.16959255  0.00103611  1
  Cu+  Cu46  1  0.83384988  0.15803564  0.33310464  1
  Cu+  Cu47  1  0.82938980  0.16503811  0.66900080  1
  Cu+  Cu48  1  0.83342185  0.50031042  0.00468034  1
  Cu+  Cu49  1  0.83214530  0.50005124  0.33851949  1
  Cu+  Cu50  1  0.83536092  0.50246402  0.66923069  1
  Cu+  Cu51  1  0.83255854  0.83330165  0.00117461  1
  Cu+  Cu52  1  0.83804137  0.83142759  0.33445840  1
  Cu+  Cu53  1  0.83520789  0.83729557  0.66257277  1
  Cu+  Cu54  1  0.16838293  0.00295873  0.16516351  1
  Cu+  Cu55  1  0.16512538  -0.00059509  0.50248031  1
  Cu+  Cu56  1  0.17235048  -0.00171579  0.82364030  1
  Cu+  Cu57  1  0.16735323  0.33750216  0.16499740  1
  Cu+  Cu58  1  0.16320216  0.33340033  0.50153392  1
  Cu+  Cu59  1  0.16615865  0.32894321  0.83253896  1
  Cu+  Cu60  1  0.16673858  0.66964105  0.16591566  1
  Cu+  Cu61  1  0.16767526  0.66458371  0.49782640  1
  Cu+  Cu62  1  0.16552976  0.66916777  0.83612475  1
  Cu+  Cu63  1  0.49941799  -0.00288256  0.16497440  1
  Cu+  Cu64  1  0.49878352  -0.00250184  0.49844538  1
  Cu+  Cu65  1  0.50370698  -0.00272651  0.83042465  1
  Cu+  Cu66  1  0.50182612  0.33142037  0.16781018  1
  Cu+  Cu67  1  0.50237345  0.33443090  0.50287521  1
  Cu+  Cu68  1  0.49882612  0.33457344  0.83402878  1
  Cu+  Cu69  1  0.49756537  0.66572813  0.16570129  1
  Cu+  Cu70  1  0.49962249  0.66841241  0.49815402  1
  Cu+  Cu71  1  0.50081507  0.66709547  0.83335151  1
  Cu+  Cu72  1  0.83013570  -0.00157976  0.17245478  1
  Cu+  Cu73  1  0.83184731  0.00347704  0.49783187  1
  Cu+  Cu74  1  0.83164049  0.00390890  0.83492962  1
  Cu+  Cu75  1  0.83382635  0.32859775  0.16697096  1
  Cu+  Cu76  1  0.83696198  0.33172626  0.50116628  1
  Cu+  Cu77  1  0.83099765  0.33878567  0.83520154  1
  Cu+  Cu78  1  0.83380470  0.66415046  0.16996435  1
  Cu+  Cu79  1  0.83468389  0.66627851  0.49342604  1
  Cu+  Cu80  1  0.83338941  0.67069773  0.83670607  1
  Cu+  Cu81  1  0.00065586  0.16858473  0.16606381  1
  Cu+  Cu82  1  0.00188144  0.16297840  0.50039232  1
  Cu+  Cu83  1  -0.00654536  0.16755463  0.83201161  1
  Cu+  Cu84  1  0.00051240  0.49640333  0.17218390  1
  Cu+  Cu85  1  0.00273186  0.49449512  0.50355842  1
  Cu+  Cu86  1  -0.00188553  0.50225842  0.83367443  1
  Cu+  Cu87  1  -0.00021521  0.83728148  0.16608093  1
  Cu+  Cu88  1  -0.00347010  0.83133727  0.49472388  1
  Cu+  Cu89  1  0.00544797  0.83544695  0.83676441  1
  Cu+  Cu90  1  0.33342241  0.16654314  0.16315230  1
  Cu+  Cu91  1  0.33610263  0.16889954  0.49920620  1
  Cu+  Cu92  1  0.33472798  0.16282028  0.82917749  1
  Cu+  Cu93  1  0.33316557  0.49830944  0.16037232  1
  Cu+  Cu94  1  0.32977377  0.50158192  0.49974274  1
  Cu+  Cu95  1  0.33343745  0.50298110  0.82784884  1
  Cu+  Cu96  1  0.33074747  0.83613081  0.16779951  1
  Cu+  Cu97  1  0.33423356  0.83290642  0.50074533  1
  Cu+  Cu98  1  0.33716974  0.83205644  0.83601515  1
  Cu+  Cu99  1  0.66776561  0.16482004  0.16652889  1
  Cu+  Cu100  1  0.66324129  0.16979076  0.50759118  1
  Cu+  Cu101  1  0.66621217  0.16637920  0.83831753  1
  Cu+  Cu102  1  0.66965691  0.50022954  0.16784509  1
  Cu+  Cu103  1  0.66880981  0.50127588  0.49909180  1
  Cu+  Cu104  1  0.66331929  0.50357180  0.83786485  1
  Cu+  Cu105  1  0.66214441  0.83242787  0.16890579  1
  Cu+  Cu106  1  0.66561331  0.83560413  0.49849794  1
  Cu+  Cu107  1  0.66889717  0.82666481  0.83027179  1
  Cu+  Cu108  1  0.25529450  0.59428756  0.58907191  1
  Cu+  Cu109  1  0.91790902  0.07667590  0.74414217  1
  Cu+  Cu110  1  0.74643433  0.59347795  0.07934718  1
  Cu+  Cu111  1  0.74233541  0.74499106  0.92916298  1
  Cu+  Cu112  1  0.73815452  0.07191465  0.92918677  1
  Cu+  Cu113  1  0.07465707  0.40583300  0.59814894  1
  Cu+  Cu114  1  0.92971444  0.73406140  0.40453283  1
  Cu+  Cu115  1  0.93267684  0.07685033  0.40292018  1
  Cu+  Cu116  1  0.07454982  0.73832286  0.92811467  1
  Cu+  Cu117  1  0.59011499  0.59159828  0.92951235  1
  Cu+  Cu118  1  0.07280537  0.91990365  0.74124220  1
  Cu+  Cu119  1  0.73654554  0.26129435  0.07747185  1
  Cu+  Cu120  1  0.59910222  0.73888954  0.73247480  1
  Cu+  Cu121  1  0.73575063  0.59512341  0.41080534  1
  Cu+  Cu122  1  0.07237123  0.40453512  0.25831308  1
  Cu+  Cu123  1  0.26213190  0.40570235  0.06989656  1
  Cu+  Cu124  1  0.59303782  0.26822336  0.59695110  1
  Cu+  Cu125  1  0.40644895  0.74270224  0.92738894  1
  Cu+  Cu126  1  0.26847253  0.07408970  0.73360868  1
  Cu+  Cu127  1  0.73558047  0.07081717  0.26193185  1
  Cu+  Cu128  1  0.26112814  0.07056659  0.07463096  1
  Cu+  Cu129  1  0.40683859  0.59711156  0.73815163  1
  Cu+  Cu130  1  0.73467825  0.07221078  0.59458640  1
  Cu+  Cu131  1  0.40213647  0.59533066  0.08026701  1
  Cu+  Cu132  1  0.07373014  0.06990347  0.58866858  1
  Te2-  Te133  1  0.25347984  0.25490924  0.07753525  1
  Te2-  Te134  1  0.25211647  0.25414361  0.41745553  1
  Te2-  Te135  1  0.25071207  0.24868567  0.74528758  1
  Te2-  Te136  1  0.25092643  0.59088631  0.07824118  1
  Te2-  Te137  1  0.24986904  0.58306628  0.40920585  1
  Te2-  Te138  1  0.25034789  0.59098393  0.74505064  1
  Te2-  Te139  1  0.25284987  0.91869999  0.07758058  1
  Te2-  Te140  1  0.25086818  0.91867866  0.41693002  1
  Te2-  Te141  1  0.26241227  0.91618238  0.74436524  1
  Te2-  Te142  1  0.58529477  0.25174388  0.07927582  1
  Te2-  Te143  1  0.58628380  0.25287295  0.41493993  1
  Te2-  Te144  1  0.58923500  0.25604698  0.75115335  1
  Te2-  Te145  1  0.58989443  0.58913977  0.08256391  1
  Te2-  Te146  1  0.58352562  0.58588406  0.41222439  1
  Te2-  Te147  1  0.58805971  0.58685309  0.74464010  1
  Te2-  Te148  1  0.58477958  0.91664819  0.08011473  1
  Te2-  Te149  1  0.58356469  0.91770972  0.41230376  1
  Te2-  Te150  1  0.58932889  0.91582629  0.74721058  1
  Te2-  Te151  1  0.91795482  0.24904875  0.07925561  1
  Te2-  Te152  1  0.91829649  0.24729054  0.41462947  1
  Te2-  Te153  1  0.91298392  0.25567930  0.74855754  1
  Te2-  Te154  1  0.92152990  0.58303616  0.08611499  1
  Te2-  Te155  1  0.92648441  0.58139452  0.41400865  1
  Te2-  Te156  1  0.91846250  0.58949526  0.75043912  1
  Te2-  Te157  1  0.91511244  0.92049158  0.08265197  1
  Te2-  Te158  1  0.92019326  0.92386451  0.41198847  1
  Te2-  Te159  1  0.91932299  0.92062601  0.74744184  1
  Te2-  Te160  1  0.25238511  0.08455046  0.25259486  1
  Te2-  Te161  1  0.25812024  0.07833847  0.58209449  1
  Te2-  Te162  1  0.25479861  0.07766445  0.91709380  1
  Te2-  Te163  1  0.25544536  0.41619043  0.25131051  1
  Te2-  Te164  1  0.25258996  0.41222431  0.58472865  1
  Te2-  Te165  1  0.25521492  0.41252191  0.91365843  1
  Te2-  Te166  1  0.25065515  0.75001678  0.25206142  1
  Te2-  Te167  1  0.25149063  0.74914810  0.58655285  1
  Te2-  Te168  1  0.25389247  0.74687721  0.92139174  1
  Te2-  Te169  1  0.58412756  0.07832657  0.25242560  1
  Te2-  Te170  1  0.58329555  0.07532756  0.58774030  1
  Te2-  Te171  1  0.58455660  0.07747561  0.92041304  1
  Te2-  Te172  1  0.58742259  0.41376301  0.25067809  1
  Te2-  Te173  1  0.58716590  0.42054531  0.58933807  1
  Te2-  Te174  1  0.58090522  0.41699879  0.92073249  1
  Te2-  Te175  1  0.58200715  0.74542561  0.25271905  1
  Te2-  Te176  1  0.59071534  0.74366729  0.58172263  1
  Te2-  Te177  1  0.58922502  0.74525098  0.92521478  1
  Te2-  Te178  1  0.92470687  0.07780034  0.24990837  1
  Te2-  Te179  1  0.91956537  0.07788592  0.58960523  1
  Te2-  Te180  1  0.91454462  0.08523814  0.92326730  1
  Te2-  Te181  1  0.91628124  0.40992559  0.25657092  1
  Te2-  Te182  1  0.91895906  0.41193738  0.59023184  1
  Te2-  Te183  1  0.91798149  0.41745159  0.92037367  1
  Te2-  Te184  1  0.92237006  0.74637001  0.25071713  1
  Te2-  Te185  1  0.91720226  0.74743319  0.58343202  1
  Te2-  Te186  1  0.92217088  0.74974135  0.92126236  1
  Te2-  Te187  1  0.08063408  0.25390251  0.25175744  1
  Te2-  Te188  1  0.07892792  0.25098289  0.58851749  1
  Te2-  Te189  1  0.08119512  0.24712056  0.91656913  1
  Te2-  Te190  1  0.08177174  0.58825130  0.25046204  1
  Te2-  Te191  1  0.08003016  0.58701650  0.58444721  1
  Te2-  Te192  1  0.08227573  0.58324500  0.92162913  1
  Te2-  Te193  1  0.08187685  0.92287003  0.25056675  1
  Te2-  Te194  1  0.07467322  0.91744981  0.58577772  1
  Te2-  Te195  1  0.08617007  0.92541453  0.91742850  1
  Te2-  Te196  1  0.41516631  0.25003350  0.25096454  1
  Te2-  Te197  1  0.41458587  0.25360191  0.58665248  1
  Te2-  Te198  1  0.41347893  0.25015446  0.91574212  1
  Te2-  Te199  1  0.41375145  0.58129738  0.25116204  1
  Te2-  Te200  1  0.41122513  0.59081653  0.58456911  1
  Te2-  Te201  1  0.40703310  0.58951426  0.92156376  1
  Te2-  Te202  1  0.41399521  0.91893599  0.25187267  1
  Te2-  Te203  1  0.41692057  0.91606381  0.58705711  1
  Te2-  Te204  1  0.41871003  0.91941910  0.91727931  1
  Te2-  Te205  1  0.74951987  0.24867759  0.25569135  1
  Te2-  Te206  1  0.74972967  0.25580851  0.58874288  1
  Te2-  Te207  1  0.74257828  0.26028027  0.91953677  1
  Te2-  Te208  1  0.74666439  0.58606676  0.25705659  1
  Te2-  Te209  1  0.75143425  0.58735811  0.58470402  1
  Te2-  Te210  1  0.74607543  0.59054638  0.92504423  1
  Te2-  Te211  1  0.74493873  0.91505807  0.25693539  1
  Te2-  Te212  1  0.74674248  0.91983025  0.58421973  1
  Te2-  Te213  1  0.74514129  0.91784551  0.91805680  1
  Te2-  Te214  1  0.08049904  0.08301789  0.08084934  1
  Te2-  Te215  1  0.08509156  0.08016585  0.41007975  1
  Te2-  Te216  1  0.07376546  0.07650181  0.74433138  1
  Te2-  Te217  1  0.07945792  0.41613795  0.07861278  1
  Te2-  Te218  1  0.07844894  0.41025804  0.41190352  1
  Te2-  Te219  1  0.08055019  0.41427467  0.74978249  1
  Te2-  Te220  1  0.07861132  0.74818249  0.08099847  1
  Te2-  Te221  1  0.08303207  0.74642835  0.41134148  1
  Te2-  Te222  1  0.08141406  0.74842351  0.74713765  1
  Te2-  Te223  1  0.41534143  0.07915607  0.07822787  1
  Te2-  Te224  1  0.41535509  0.08170854  0.41511666  1
  Te2-  Te225  1  0.42078863  0.07905074  0.74311197  1
  Te2-  Te226  1  0.41733658  0.40971897  0.07717007  1
  Te2-  Te227  1  0.41518535  0.41513225  0.41739917  1
  Te2-  Te228  1  0.41423825  0.41340360  0.74771965  1
  Te2-  Te229  1  0.40839031  0.74737455  0.08092120  1
  Te2-  Te230  1  0.41245638  0.74718991  0.41366484  1
  Te2-  Te231  1  0.41336079  0.74825888  0.74409466  1
  Te2-  Te232  1  0.74506349  0.07446403  0.08138619  1
  Te2-  Te233  1  0.73919925  0.08185083  0.41596341  1
  Te2-  Te234  1  0.74113491  0.07919455  0.74806284  1
  Te2-  Te235  1  0.74721960  0.41244007  0.08262559  1
  Te2-  Te236  1  0.74919344  0.41054019  0.41751648  1
  Te2-  Te237  1  0.74593263  0.42087767  0.75069964  1
  Te2-  Te238  1  0.74486243  0.74703266  0.08342870  1
  Te2-  Te239  1  0.74478035  0.74976906  0.41160519  1
  Te2-  Te240  1  0.75356017  0.74689852  0.74170668  1
