# generated using pymatgen
data_Ti27(Cu53Te54)2
_symmetry_space_group_name_H-M   'P 1'
_cell_length_a   17.87918374
_cell_length_b   17.87848125
_cell_length_c   17.88261039
_cell_angle_alpha   90.05431530
_cell_angle_beta   90.03256065
_cell_angle_gamma   89.97362678
_symmetry_Int_Tables_number   1
_chemical_formula_structural   Ti27(Cu53Te54)2
_chemical_formula_sum   'Ti27 Cu106 Te108'
_cell_volume   5716.21972878
_cell_formula_units_Z   1
loop_
 _symmetry_equiv_pos_site_id
 _symmetry_equiv_pos_as_xyz
  1  'x, y, z'
loop_
 _atom_type_symbol
 _atom_type_oxidation_number
  Ti4+  4.0
  Cu+  1.0
  Te2-  -2.0
loop_
 _atom_site_type_symbol
 _atom_site_label
 _atom_site_symmetry_multiplicity
 _atom_site_fract_x
 _atom_site_fract_y
 _atom_site_fract_z
 _atom_site_occupancy
  Ti4+  Ti0  1  0.16567948  0.16468644  0.17155832  1
  Ti4+  Ti1  1  0.16415798  0.16851824  0.50028466  1
  Ti4+  Ti2  1  0.16537885  0.16609062  0.83403659  1
  Ti4+  Ti3  1  0.16685343  0.49938153  0.16598563  1
  Ti4+  Ti4  1  0.16715500  0.50162765  0.49920833  1
  Ti4+  Ti5  1  0.16729441  0.50264369  0.83321403  1
  Ti4+  Ti6  1  0.16799282  0.83437146  0.16830837  1
  Ti4+  Ti7  1  0.16480650  0.83257575  0.49852354  1
  Ti4+  Ti8  1  0.16618673  0.83631567  0.83496833  1
  Ti4+  Ti9  1  0.49906967  0.16792312  0.16113869  1
  Ti4+  Ti10  1  0.49869149  0.16828131  0.50083679  1
  Ti4+  Ti11  1  0.50320152  0.16585401  0.82799965  1
  Ti4+  Ti12  1  0.50001859  0.49837664  0.16703606  1
  Ti4+  Ti13  1  0.50324776  0.49970529  0.49886041  1
  Ti4+  Ti14  1  0.49941913  0.50072117  0.83081759  1
  Ti4+  Ti15  1  0.50184246  0.83553028  0.17106672  1
  Ti4+  Ti16  1  0.49898272  0.83348167  0.50081035  1
  Ti4+  Ti17  1  0.50189521  0.83257322  0.83579428  1
  Ti4+  Ti18  1  0.83101406  0.16657522  0.17011103  1
  Ti4+  Ti19  1  0.83401095  0.16922520  0.50116963  1
  Ti4+  Ti20  1  0.83625137  0.16334887  0.83267475  1
  Ti4+  Ti21  1  0.83321049  0.49899722  0.16596645  1
  Ti4+  Ti22  1  0.83504813  0.50078768  0.50264404  1
  Ti4+  Ti23  1  0.83344674  0.49810839  0.83315364  1
  Ti4+  Ti24  1  0.83265517  0.83078198  0.16539391  1
  Ti4+  Ti25  1  0.83078460  0.83402900  0.49815653  1
  Ti4+  Ti26  1  0.83480774  0.83317338  0.82884075  1
  Cu+  Cu27  1  0.16369026  0.16564368  0.00150781  1
  Cu+  Cu28  1  0.16448707  0.16073356  0.33877243  1
  Cu+  Cu29  1  0.16742919  0.16964648  0.66496935  1
  Cu+  Cu30  1  0.16416191  0.50050610  -0.00071744  1
  Cu+  Cu31  1  0.16883491  0.49992192  0.33338066  1
  Cu+  Cu32  1  0.16821078  0.50276816  0.66720763  1
  Cu+  Cu33  1  0.16992855  0.83593859  0.00113343  1
  Cu+  Cu34  1  0.16374253  0.83075762  0.33141824  1
  Cu+  Cu35  1  0.16517391  0.83517803  0.66581223  1
  Cu+  Cu36  1  0.50088968  0.16222096  -0.01153561  1
  Cu+  Cu37  1  0.49955282  0.17011659  0.33114426  1
  Cu+  Cu38  1  0.49735359  0.17163372  0.66823209  1
  Cu+  Cu39  1  0.49981158  0.49849399  -0.00282438  1
  Cu+  Cu40  1  0.50318045  0.50005658  0.33414642  1
  Cu+  Cu41  1  0.50095699  0.49749041  0.66235483  1
  Cu+  Cu42  1  0.50705795  0.83398771  0.00752563  1
  Cu+  Cu43  1  0.49833951  0.83099800  0.33581408  1
  Cu+  Cu44  1  0.49907541  0.83533842  0.66842427  1
  Cu+  Cu45  1  0.83051981  0.16825917  0.00651853  1
  Cu+  Cu46  1  0.83737440  0.17164388  0.33306278  1
  Cu+  Cu47  1  0.83775340  0.16389971  0.66520554  1
  Cu+  Cu48  1  0.83479398  0.49827389  0.00091052  1
  Cu+  Cu49  1  0.83233591  0.50095721  0.33585218  1
  Cu+  Cu50  1  0.82934414  0.49942486  0.66996086  1
  Cu+  Cu51  1  0.83267913  0.83130186  -0.00360162  1
  Cu+  Cu52  1  0.83238080  0.83289832  0.33209277  1
  Cu+  Cu53  1  0.83189113  0.83316179  0.66157000  1
  Cu+  Cu54  1  0.16768000  0.00373758  0.16960428  1
  Cu+  Cu55  1  0.16455916  -0.00068564  0.49806170  1
  Cu+  Cu56  1  0.16276960  0.00181233  0.83649898  1
  Cu+  Cu57  1  0.16669084  0.33219303  0.16762818  1
  Cu+  Cu58  1  0.16507020  0.33566407  0.49840833  1
  Cu+  Cu59  1  0.16528395  0.33730449  0.83684975  1
  Cu+  Cu60  1  0.16652357  0.66675791  0.16831193  1
  Cu+  Cu61  1  0.16759202  0.66637562  0.49823023  1
  Cu+  Cu62  1  0.16684272  0.66980238  0.83260935  1
  Cu+  Cu63  1  0.49362125  0.00072931  0.16566756  1
  Cu+  Cu64  1  0.50044365  -0.00109172  0.50150080  1
  Cu+  Cu65  1  0.49952873  -0.00318904  0.82890836  1
  Cu+  Cu66  1  0.50385044  0.33167064  0.16443920  1
  Cu+  Cu67  1  0.49866423  0.33579603  0.50235563  1
  Cu+  Cu68  1  0.50400471  0.33313789  0.82502419  1
  Cu+  Cu69  1  0.50061015  0.66629624  0.17076364  1
  Cu+  Cu70  1  0.50370751  0.66632258  0.49938482  1
  Cu+  Cu71  1  0.50151843  0.66658274  0.83530976  1
  Cu+  Cu72  1  0.83116884  -0.00245047  0.16474501  1
  Cu+  Cu73  1  0.82807235  0.00107642  0.49927521  1
  Cu+  Cu74  1  0.84496813  -0.00071105  0.82811944  1
  Cu+  Cu75  1  0.83082123  0.33154015  0.16812207  1
  Cu+  Cu76  1  0.83663392  0.33566754  0.50887568  1
  Cu+  Cu77  1  0.83585793  0.33081696  0.83413470  1
  Cu+  Cu78  1  0.83492716  0.66363062  0.16622613  1
  Cu+  Cu79  1  0.83180698  0.66772268  0.49601823  1
  Cu+  Cu80  1  0.82939502  0.66340661  0.82841938  1
  Cu+  Cu81  1  -0.00180235  0.16536149  0.17776747  1
  Cu+  Cu82  1  -0.00236891  0.17459158  0.50370834  1
  Cu+  Cu83  1  0.00107831  0.15770201  0.83308599  1
  Cu+  Cu84  1  -0.00055832  0.49888397  0.16518291  1
  Cu+  Cu85  1  0.00261865  0.50115584  0.50150390  1
  Cu+  Cu86  1  0.00182980  0.49826600  0.83650077  1
  Cu+  Cu87  1  0.00148253  0.83083574  0.16798717  1
  Cu+  Cu88  1  -0.00324309  0.83426021  0.49628272  1
  Cu+  Cu89  1  -0.00231198  0.83883371  0.83515677  1
  Cu+  Cu90  1  0.33291746  0.16034715  0.16553601  1
  Cu+  Cu91  1  0.32804066  0.16776405  0.49744528  1
  Cu+  Cu92  1  0.33691125  0.16717011  0.83138063  1
  Cu+  Cu93  1  0.33237379  0.49996846  0.16411802  1
  Cu+  Cu94  1  0.33401141  0.50024192  0.49808316  1
  Cu+  Cu95  1  0.33143601  0.50248093  0.83192083  1
  Cu+  Cu96  1  0.33839074  0.83635255  0.17249393  1
  Cu+  Cu97  1  0.33106321  0.83343649  0.50034414  1
  Cu+  Cu98  1  0.33217392  0.83678066  0.83185337  1
  Cu+  Cu99  1  0.66382246  0.17421478  0.16378909  1
  Cu+  Cu100  1  0.66738051  0.16526314  0.50191078  1
  Cu+  Cu101  1  0.66849744  0.16478740  0.83042775  1
  Cu+  Cu102  1  0.66689777  0.49764624  0.16759533  1
  Cu+  Cu103  1  0.67189483  0.50118326  0.49979483  1
  Cu+  Cu104  1  0.66555228  0.50217347  0.82787644  1
  Cu+  Cu105  1  0.66484851  0.83042040  0.16392217  1
  Cu+  Cu106  1  0.66285755  0.83304103  0.49934228  1
  Cu+  Cu107  1  0.67171355  0.82902077  0.83895557  1
  Cu+  Cu108  1  0.25375911  0.07648890  0.07151344  1
  Cu+  Cu109  1  0.58961194  0.26019331  0.26254414  1
  Cu+  Cu110  1  0.73497249  0.59490400  0.73813880  1
  Cu+  Cu111  1  0.92906777  0.26494558  0.60004658  1
  Cu+  Cu112  1  0.74289340  0.59546519  0.40334233  1
  Cu+  Cu113  1  0.26010053  0.06809889  0.41582008  1
  Cu+  Cu114  1  0.40351925  0.92175554  0.73610664  1
  Cu+  Cu115  1  0.07246457  0.07417290  0.93156914  1
  Cu+  Cu116  1  0.07050882  0.73497849  0.25847290  1
  Cu+  Cu117  1  0.73746635  0.07130681  0.59294756  1
  Cu+  Cu118  1  0.06714751  0.07221528  0.26804197  1
  Cu+  Cu119  1  0.40764114  0.91754649  0.07448387  1
  Cu+  Cu120  1  0.92146420  0.92395852  0.93045854  1
  Cu+  Cu121  1  0.59092973  0.73428231  0.08077006  1
  Cu+  Cu122  1  0.40929408  0.07041908  0.91382302  1
  Cu+  Cu123  1  0.93255838  0.06984358  0.73206726  1
  Cu+  Cu124  1  0.07273240  0.40903881  0.92983646  1
  Cu+  Cu125  1  0.73820779  0.26268098  0.07099670  1
  Cu+  Cu126  1  0.74835576  0.73442951  0.92628324  1
  Cu+  Cu127  1  0.74045483  0.40699542  0.59613210  1
  Cu+  Cu128  1  0.41250744  0.07817840  0.26146185  1
  Cu+  Cu129  1  0.41067747  0.73525170  0.26415065  1
  Cu+  Cu130  1  0.92867016  0.26547670  0.25867993  1
  Cu+  Cu131  1  0.40234915  0.41185758  0.58826459  1
  Cu+  Cu132  1  0.40376203  0.26304943  0.74488975  1
  Te2-  Te133  1  0.25082796  0.24932284  0.08330813  1
  Te2-  Te134  1  0.24860849  0.25458329  0.41293276  1
  Te2-  Te135  1  0.24994302  0.25417633  0.74938253  1
  Te2-  Te136  1  0.25024352  0.58583888  0.08053186  1
  Te2-  Te137  1  0.25377883  0.58579496  0.41357094  1
  Te2-  Te138  1  0.25213284  0.58911605  0.74736315  1
  Te2-  Te139  1  0.25477904  0.92213440  0.08150010  1
  Te2-  Te140  1  0.25198798  0.91684750  0.41134221  1
  Te2-  Te141  1  0.24928081  0.92323740  0.74680719  1
  Te2-  Te142  1  0.58234102  0.25238875  0.07022708  1
  Te2-  Te143  1  0.58570035  0.25353814  0.41731564  1
  Te2-  Te144  1  0.59181593  0.25136727  0.74373428  1
  Te2-  Te145  1  0.58585128  0.58291396  0.08072754  1
  Te2-  Te146  1  0.58919618  0.58681862  0.41276713  1
  Te2-  Te147  1  0.58285676  0.58842384  0.74298750  1
  Te2-  Te148  1  0.58809354  0.92494583  0.08541357  1
  Te2-  Te149  1  0.58361415  0.91901392  0.41421593  1
  Te2-  Te150  1  0.59054836  0.91479209  0.75088810  1
  Te2-  Te151  1  0.92168633  0.25025568  0.08600243  1
  Te2-  Te152  1  0.91956415  0.25894061  0.41535988  1
  Te2-  Te153  1  0.92349708  0.25165076  0.75048948  1
  Te2-  Te154  1  0.91918781  0.58400643  0.08051844  1
  Te2-  Te155  1  0.92075175  0.58512922  0.41572309  1
  Te2-  Te156  1  0.92063533  0.58237440  0.74915348  1
  Te2-  Te157  1  0.91975906  0.91680941  0.08212266  1
  Te2-  Te158  1  0.91457933  0.92048154  0.41315568  1
  Te2-  Te159  1  0.92296353  0.91626041  0.73793117  1
  Te2-  Te160  1  0.25610693  0.07750842  0.25951722  1
  Te2-  Te161  1  0.25029075  0.08099888  0.58504388  1
  Te2-  Te162  1  0.25515032  0.07943258  0.91879716  1
  Te2-  Te163  1  0.25267455  0.41440045  0.25096353  1
  Te2-  Te164  1  0.25090325  0.41414959  0.58617486  1
  Te2-  Te165  1  0.25403779  0.41685884  0.91980728  1
  Te2-  Te166  1  0.25530833  0.74731445  0.25306649  1
  Te2-  Te167  1  0.24989968  0.74884848  0.58523180  1
  Te2-  Te168  1  0.25259878  0.75085574  0.91812188  1
  Te2-  Te169  1  0.58457226  0.08305759  0.24748259  1
  Te2-  Te170  1  0.58249722  0.08197139  0.58810646  1
  Te2-  Te171  1  0.58906233  0.07687997  0.91267134  1
  Te2-  Te172  1  0.58717605  0.41310211  0.25372364  1
  Te2-  Te173  1  0.59012541  0.41301938  0.58561942  1
  Te2-  Te174  1  0.58565739  0.41499773  0.91372187  1
  Te2-  Te175  1  0.58786734  0.74750570  0.25600116  1
  Te2-  Te176  1  0.58377879  0.74913357  0.58727774  1
  Te2-  Te177  1  0.58788342  0.74446855  0.92333296  1
  Te2-  Te178  1  0.91406137  0.07460574  0.25623080  1
  Te2-  Te179  1  0.92244495  0.07703963  0.58127024  1
  Te2-  Te180  1  0.91881056  0.08019475  0.92822135  1
  Te2-  Te181  1  0.91879939  0.41584126  0.25433411  1
  Te2-  Te182  1  0.92429806  0.41873366  0.59199118  1
  Te2-  Te183  1  0.91882896  0.41140633  0.92110523  1
  Te2-  Te184  1  0.91760237  0.74548934  0.25317126  1
  Te2-  Te185  1  0.91722865  0.74771401  0.58171643  1
  Te2-  Te186  1  0.91820199  0.74377678  0.91414935  1
  Te2-  Te187  1  0.08336712  0.25433572  0.25828469  1
  Te2-  Te188  1  0.08197474  0.25779733  0.58848663  1
  Te2-  Te189  1  0.07848806  0.25151848  0.91961968  1
  Te2-  Te190  1  0.07979911  0.58337916  0.25344086  1
  Te2-  Te191  1  0.08278038  0.58741471  0.58580562  1
  Te2-  Te192  1  0.08115195  0.58941366  0.91846267  1
  Te2-  Te193  1  0.07977820  0.92086764  0.25309273  1
  Te2-  Te194  1  0.07928380  0.91810722  0.58262305  1
  Te2-  Te195  1  0.07870346  0.92151259  0.92570673  1
  Te2-  Te196  1  0.41216728  0.25291804  0.24685333  1
  Te2-  Te197  1  0.40856761  0.25353559  0.58540099  1
  Te2-  Te198  1  0.41830102  0.25545639  0.91387029  1
  Te2-  Te199  1  0.41325670  0.58280134  0.25411105  1
  Te2-  Te200  1  0.41652356  0.58607342  0.58313319  1
  Te2-  Te201  1  0.41484123  0.58494566  0.91756215  1
  Te2-  Te202  1  0.41433530  0.92301614  0.26028528  1
  Te2-  Te203  1  0.41119658  0.92050528  0.58500987  1
  Te2-  Te204  1  0.41389395  0.91788787  0.92309349  1
  Te2-  Te205  1  0.74406294  0.25423744  0.25711124  1
  Te2-  Te206  1  0.74644457  0.25223019  0.59034350  1
  Te2-  Te207  1  0.74870158  0.25008980  0.91689874  1
  Te2-  Te208  1  0.74643540  0.58584501  0.25117328  1
  Te2-  Te209  1  0.74780785  0.59014966  0.58720977  1
  Te2-  Te210  1  0.74593478  0.58206347  0.92095660  1
  Te2-  Te211  1  0.74640339  0.91550391  0.24941972  1
  Te2-  Te212  1  0.74293235  0.91869903  0.58525709  1
  Te2-  Te213  1  0.75264180  0.92387513  0.91487947  1
  Te2-  Te214  1  0.07576707  0.08088812  0.08527361  1
  Te2-  Te215  1  0.07226404  0.08084498  0.41936376  1
  Te2-  Te216  1  0.08430629  0.07925523  0.74197402  1
  Te2-  Te217  1  0.07982675  0.41117740  0.08187895  1
  Te2-  Te218  1  0.08067107  0.41656918  0.41353382  1
  Te2-  Te219  1  0.08229210  0.41608437  0.74650293  1
  Te2-  Te220  1  0.08445964  0.74952930  0.08058342  1
  Te2-  Te221  1  0.07813341  0.74520787  0.41337417  1
  Te2-  Te222  1  0.08012609  0.75234706  0.75014349  1
  Te2-  Te223  1  0.41154242  0.07827723  0.07106562  1
  Te2-  Te224  1  0.41464282  0.08036816  0.41474336  1
  Te2-  Te225  1  0.41245217  0.07770582  0.74256524  1
  Te2-  Te226  1  0.41582806  0.41378742  0.08077127  1
  Te2-  Te227  1  0.41606519  0.41482511  0.41258145  1
  Te2-  Te228  1  0.41052017  0.41505544  0.74400065  1
  Te2-  Te229  1  0.41494349  0.74873826  0.08309864  1
  Te2-  Te230  1  0.41221059  0.74471766  0.41708741  1
  Te2-  Te231  1  0.41516179  0.74812269  0.75047154  1
  Te2-  Te232  1  0.74452146  0.08080071  0.08403732  1
  Te2-  Te233  1  0.74892935  0.08584645  0.41183672  1
  Te2-  Te234  1  0.74951089  0.07769076  0.74704016  1
  Te2-  Te235  1  0.74620292  0.41358009  0.07935948  1
  Te2-  Te236  1  0.75147216  0.41116647  0.41715640  1
  Te2-  Te237  1  0.74626654  0.40822692  0.74982202  1
  Te2-  Te238  1  0.74725693  0.74254454  0.07898135  1
  Te2-  Te239  1  0.74366520  0.74902403  0.41141154  1
  Te2-  Te240  1  0.74543888  0.74856954  0.74223043  1
