# generated using pymatgen
data_Ti27(Cu53Te54)2
_symmetry_space_group_name_H-M   'P 1'
_cell_length_a   17.92530340
_cell_length_b   17.90370104
_cell_length_c   17.92487675
_cell_angle_alpha   90.04143466
_cell_angle_beta   90.03539917
_cell_angle_gamma   89.94401521
_symmetry_Int_Tables_number   1
_chemical_formula_structural   Ti27(Cu53Te54)2
_chemical_formula_sum   'Ti27 Cu106 Te108'
_cell_volume   5752.61232094
_cell_formula_units_Z   1
loop_
 _symmetry_equiv_pos_site_id
 _symmetry_equiv_pos_as_xyz
  1  'x, y, z'
loop_
 _atom_type_symbol
 _atom_type_oxidation_number
  Ti4+  4.0
  Cu+  1.0
  Te2-  -2.0
loop_
 _atom_site_type_symbol
 _atom_site_label
 _atom_site_symmetry_multiplicity
 _atom_site_fract_x
 _atom_site_fract_y
 _atom_site_fract_z
 _atom_site_occupancy
  Ti4+  Ti0  1  0.16762683  0.16460586  0.16912953  1
  Ti4+  Ti1  1  0.16860432  0.16840237  0.50008756  1
  Ti4+  Ti2  1  0.16852530  0.16860142  0.83688366  1
  Ti4+  Ti3  1  0.16555391  0.50114933  0.16702737  1
  Ti4+  Ti4  1  0.16390687  0.49895029  0.49782567  1
  Ti4+  Ti5  1  0.16522760  0.50147100  0.83245795  1
  Ti4+  Ti6  1  0.16297298  0.83269308  0.16666061  1
  Ti4+  Ti7  1  0.16352341  0.83441420  0.50245645  1
  Ti4+  Ti8  1  0.17118648  0.83390610  0.83841478  1
  Ti4+  Ti9  1  0.49863560  0.16706621  0.16730362  1
  Ti4+  Ti10  1  0.49884799  0.16574322  0.49865121  1
  Ti4+  Ti11  1  0.50105518  0.16778797  0.83220389  1
  Ti4+  Ti12  1  0.49866458  0.50370825  0.16653329  1
  Ti4+  Ti13  1  0.49762265  0.50445165  0.50054575  1
  Ti4+  Ti14  1  0.49967194  0.50352022  0.83276926  1
  Ti4+  Ti15  1  0.50218245  0.82897502  0.16967585  1
  Ti4+  Ti16  1  0.49852518  0.83028533  0.49830920  1
  Ti4+  Ti17  1  0.50538275  0.83070549  0.82980994  1
  Ti4+  Ti18  1  0.83043235  0.16662741  0.16632733  1
  Ti4+  Ti19  1  0.83159367  0.16966174  0.49815098  1
  Ti4+  Ti20  1  0.83488894  0.16606030  0.83160771  1
  Ti4+  Ti21  1  0.83302683  0.50071382  0.16760970  1
  Ti4+  Ti22  1  0.83343718  0.49655348  0.50089128  1
  Ti4+  Ti23  1  0.83467825  0.49595998  0.83445449  1
  Ti4+  Ti24  1  0.83386161  0.83342383  0.16249945  1
  Ti4+  Ti25  1  0.83386323  0.83491697  0.49972740  1
  Ti4+  Ti26  1  0.83572326  0.83159169  0.82896510  1
  Cu+  Cu27  1  0.16876749  0.16569224  0.00375068  1
  Cu+  Cu28  1  0.17025351  0.17086423  0.33277512  1
  Cu+  Cu29  1  0.16838943  0.16781595  0.67083321  1
  Cu+  Cu30  1  0.16377826  0.49975602  -0.00089888  1
  Cu+  Cu31  1  0.16406996  0.50002616  0.33231556  1
  Cu+  Cu32  1  0.16592700  0.49933626  0.66251786  1
  Cu+  Cu33  1  0.16309098  0.83163221  0.00285671  1
  Cu+  Cu34  1  0.16166663  0.83339831  0.33611913  1
  Cu+  Cu35  1  0.16891088  0.83740602  0.67178249  1
  Cu+  Cu36  1  0.49997625  0.16670437  -0.00071051  1
  Cu+  Cu37  1  0.49587611  0.16286718  0.33200724  1
  Cu+  Cu38  1  0.50014812  0.16560373  0.66581671  1
  Cu+  Cu39  1  0.49892941  0.50297223  -0.00046266  1
  Cu+  Cu40  1  0.49808240  0.50744687  0.33474163  1
  Cu+  Cu41  1  0.49588584  0.50711588  0.66849871  1
  Cu+  Cu42  1  0.50687802  0.82965513  0.00215036  1
  Cu+  Cu43  1  0.49828781  0.82328125  0.33468887  1
  Cu+  Cu44  1  0.50583111  0.82886758  0.66162726  1
  Cu+  Cu45  1  0.83439107  0.16497037  -0.00026693  1
  Cu+  Cu46  1  0.82798368  0.16868242  0.33176666  1
  Cu+  Cu47  1  0.83355422  0.17334300  0.66542067  1
  Cu+  Cu48  1  0.83404903  0.49906413  0.00368764  1
  Cu+  Cu49  1  0.83396043  0.49695434  0.33559257  1
  Cu+  Cu50  1  0.83456492  0.49391804  0.66809244  1
  Cu+  Cu51  1  0.83174887  0.83310748  -0.00729719  1
  Cu+  Cu52  1  0.83462853  0.83662306  0.33334293  1
  Cu+  Cu53  1  0.83532604  0.83563647  0.66461620  1
  Cu+  Cu54  1  0.16410547  -0.00306014  0.16420985  1
  Cu+  Cu55  1  0.16508061  0.00175958  0.50369125  1
  Cu+  Cu56  1  0.17163988  0.00372441  0.83671215  1
  Cu+  Cu57  1  0.16988431  0.33152082  0.16925123  1
  Cu+  Cu58  1  0.16476164  0.33244325  0.49394190  1
  Cu+  Cu59  1  0.16456372  0.33627315  0.83578997  1
  Cu+  Cu60  1  0.16291639  0.67057998  0.16675141  1
  Cu+  Cu61  1  0.16341228  0.66693136  0.50098940  1
  Cu+  Cu62  1  0.17113141  0.66519561  0.84155941  1
  Cu+  Cu63  1  0.49711369  0.00016315  0.16997726  1
  Cu+  Cu64  1  0.50259242  -0.00344439  0.49959159  1
  Cu+  Cu65  1  0.50458038  0.00206153  0.82972215  1
  Cu+  Cu66  1  0.49827984  0.33712754  0.16505120  1
  Cu+  Cu67  1  0.49913774  0.33587170  0.50079411  1
  Cu+  Cu68  1  0.50022929  0.33594050  0.83276717  1
  Cu+  Cu69  1  0.50506064  0.66544468  0.17173364  1
  Cu+  Cu70  1  0.49307850  0.66800225  0.49457146  1
  Cu+  Cu71  1  0.50023797  0.66865460  0.82630745  1
  Cu+  Cu72  1  0.83271515  0.00127319  0.16302096  1
  Cu+  Cu73  1  0.83287120  0.00361967  0.49953836  1
  Cu+  Cu74  1  0.83607673  -0.00073200  0.82795310  1
  Cu+  Cu75  1  0.83188953  0.33529681  0.16674858  1
  Cu+  Cu76  1  0.83253815  0.33003939  0.49968541  1
  Cu+  Cu77  1  0.83477697  0.32756591  0.83368476  1
  Cu+  Cu78  1  0.83244323  0.66802248  0.16760106  1
  Cu+  Cu79  1  0.83494299  0.66328225  0.50246232  1
  Cu+  Cu80  1  0.83416575  0.66199059  0.83187251  1
  Cu+  Cu81  1  -0.00345156  0.16341590  0.16840178  1
  Cu+  Cu82  1  0.00151692  0.17266034  0.49778589  1
  Cu+  Cu83  1  0.00107948  0.16743478  0.83743966  1
  Cu+  Cu84  1  -0.00230379  0.50049999  0.16594640  1
  Cu+  Cu85  1  -0.00101626  0.49530907  0.49947126  1
  Cu+  Cu86  1  0.00069773  0.49391501  0.83508538  1
  Cu+  Cu87  1  0.00050933  0.83684536  0.16285764  1
  Cu+  Cu88  1  -0.00121340  0.83785195  0.50200383  1
  Cu+  Cu89  1  0.00239685  0.83401630  0.83578499  1
  Cu+  Cu90  1  0.33438107  0.16351559  0.17405365  1
  Cu+  Cu91  1  0.33441044  0.16431062  0.50093345  1
  Cu+  Cu92  1  0.33522539  0.16799862  0.83341026  1
  Cu+  Cu93  1  0.33194170  0.50060715  0.16444935  1
  Cu+  Cu94  1  0.32912583  0.50261513  0.49730379  1
  Cu+  Cu95  1  0.33206999  0.50638097  0.82996522  1
  Cu+  Cu96  1  0.33151277  0.83004749  0.16823219  1
  Cu+  Cu97  1  0.32707800  0.83371808  0.50266314  1
  Cu+  Cu98  1  0.33852989  0.83467188  0.83799924  1
  Cu+  Cu99  1  0.66367968  0.16688424  0.16469181  1
  Cu+  Cu100  1  0.66451657  0.16828922  0.49557605  1
  Cu+  Cu101  1  0.66712709  0.16733145  0.82860948  1
  Cu+  Cu102  1  0.66736176  0.50358232  0.16829761  1
  Cu+  Cu103  1  0.66809498  0.49812274  0.50454073  1
  Cu+  Cu104  1  0.66701500  0.49799031  0.83450367  1
  Cu+  Cu105  1  0.66954886  0.82815516  0.16590169  1
  Cu+  Cu106  1  0.66615966  0.83619090  0.49976378  1
  Cu+  Cu107  1  0.67118184  0.82646476  0.82709172  1
  Cu+  Cu108  1  0.07022030  0.93052970  0.07164791  1
  Cu+  Cu109  1  0.26428926  0.26327324  0.26008266  1
  Cu+  Cu110  1  0.39919573  0.74694897  0.59107136  1
  Cu+  Cu111  1  0.74527622  0.73451603  0.91942430  1
  Cu+  Cu112  1  0.59472285  0.92869570  0.59075201  1
  Cu+  Cu113  1  0.59594246  0.73904462  0.07548370  1
  Cu+  Cu114  1  0.40090098  0.59498748  0.74053717  1
  Cu+  Cu115  1  0.07223699  0.25855048  0.40232684  1
  Cu+  Cu116  1  0.59863109  0.58269573  0.26527238  1
  Cu+  Cu117  1  0.40324548  0.74033496  0.25738554  1
  Cu+  Cu118  1  0.74895311  0.74457183  0.26319188  1
  Cu+  Cu119  1  0.25858442  0.74285122  0.07838510  1
  Cu+  Cu120  1  0.26160205  0.58154703  0.92977471  1
  Cu+  Cu121  1  0.39752049  0.58833461  0.40459999  1
  Cu+  Cu122  1  0.73337515  0.25966581  0.40136761  1
  Cu+  Cu123  1  0.93199706  0.25729989  0.59402903  1
  Cu+  Cu124  1  0.40551011  0.06889071  0.26257574  1
  Cu+  Cu125  1  0.07245443  0.73982463  0.92235756  1
  Cu+  Cu126  1  0.92546406  0.25328665  0.93170132  1
  Cu+  Cu127  1  0.07181666  0.74165626  0.26527487  1
  Cu+  Cu128  1  0.73647655  0.25805980  0.73968502  1
  Cu+  Cu129  1  0.60086330  0.73763546  0.73485726  1
  Cu+  Cu130  1  0.07556356  0.40554562  0.92856743  1
  Cu+  Cu131  1  0.59786929  0.74097780  0.41399695  1
  Cu+  Cu132  1  0.41519529  0.74570596  0.92657005  1
  Te2-  Te133  1  0.25487711  0.24906663  0.08496144  1
  Te2-  Te134  1  0.25857336  0.25372492  0.41475549  1
  Te2-  Te135  1  0.25160887  0.25515678  0.75188576  1
  Te2-  Te136  1  0.25194489  0.58823073  0.08080456  1
  Te2-  Te137  1  0.24651907  0.58887324  0.41167346  1
  Te2-  Te138  1  0.24776480  0.58974987  0.74249212  1
  Te2-  Te139  1  0.25347710  0.91674339  0.08173029  1
  Te2-  Te140  1  0.24812454  0.91902792  0.41641105  1
  Te2-  Te141  1  0.25610227  0.91959950  0.75379184  1
  Te2-  Te142  1  0.58238995  0.25335338  0.08169608  1
  Te2-  Te143  1  0.58029126  0.25386331  0.41111941  1
  Te2-  Te144  1  0.58389412  0.25551664  0.74423590  1
  Te2-  Te145  1  0.58729749  0.58686702  0.07811914  1
  Te2-  Te146  1  0.59220554  0.58748467  0.41692747  1
  Te2-  Te147  1  0.59103229  0.58556834  0.74603862  1
  Te2-  Te148  1  0.58527228  0.91822362  0.08661691  1
  Te2-  Te149  1  0.58315719  0.91542801  0.40926531  1
  Te2-  Te150  1  0.58990386  0.91877946  0.74480111  1
  Te2-  Te151  1  0.91899274  0.25308302  0.08362027  1
  Te2-  Te152  1  0.91801864  0.25457929  0.40844867  1
  Te2-  Te153  1  0.92546486  0.25343956  0.74736099  1
  Te2-  Te154  1  0.91768318  0.58677554  0.08222532  1
  Te2-  Te155  1  0.91843378  0.58236051  0.41608088  1
  Te2-  Te156  1  0.91995461  0.57944930  0.74905449  1
  Te2-  Te157  1  0.91611457  0.92055908  0.07510351  1
  Te2-  Te158  1  0.91778587  0.92149690  0.41533144  1
  Te2-  Te159  1  0.92327405  0.91708147  0.74665794  1
  Te2-  Te160  1  0.24972700  0.07393284  0.25492549  1
  Te2-  Te161  1  0.25145977  0.08288995  0.58724030  1
  Te2-  Te162  1  0.25563301  0.08453748  0.92154189  1
  Te2-  Te163  1  0.25309552  0.41755863  0.25318498  1
  Te2-  Te164  1  0.25102564  0.41399526  0.58104381  1
  Te2-  Te165  1  0.25497417  0.41765046  0.91787544  1
  Te2-  Te166  1  0.24912905  0.74642402  0.25692291  1
  Te2-  Te167  1  0.24704428  0.74637942  0.58962185  1
  Te2-  Te168  1  0.26023383  0.74564159  0.92569822  1
  Te2-  Te169  1  0.58576508  0.08116994  0.25197565  1
  Te2-  Te170  1  0.58711996  0.08188141  0.58431159  1
  Te2-  Te171  1  0.58769908  0.08324123  0.91700405  1
  Te2-  Te172  1  0.58270853  0.41831479  0.25300804  1
  Te2-  Te173  1  0.58000889  0.41927664  0.58743896  1
  Te2-  Te174  1  0.58293673  0.41717003  0.91890530  1
  Te2-  Te175  1  0.59402421  0.74173138  0.25915894  1
  Te2-  Te176  1  0.58975669  0.73992370  0.58095222  1
  Te2-  Te177  1  0.59102281  0.74140299  0.91860869  1
  Te2-  Te178  1  0.91388330  0.08085589  0.25311754  1
  Te2-  Te179  1  0.91931139  0.08610100  0.58343499  1
  Te2-  Te180  1  0.91877796  0.07838826  0.91765666  1
  Te2-  Te181  1  0.91825193  0.41454945  0.25165637  1
  Te2-  Te182  1  0.92003812  0.41012435  0.58630629  1
  Te2-  Te183  1  0.91934475  0.41026101  0.92425996  1
  Te2-  Te184  1  0.92041738  0.74989529  0.25117049  1
  Te2-  Te185  1  0.91864187  0.74923372  0.58399378  1
  Te2-  Te186  1  0.91987102  0.74473193  0.91777782  1
  Te2-  Te187  1  0.07795643  0.25196235  0.25059675  1
  Te2-  Te188  1  0.08487409  0.25485793  0.58881059  1
  Te2-  Te189  1  0.08096888  0.25381138  0.92641303  1
  Te2-  Te190  1  0.07838342  0.58606853  0.25180832  1
  Te2-  Te191  1  0.07838364  0.58332873  0.58350662  1
  Te2-  Te192  1  0.07593626  0.58604124  0.92041721  1
  Te2-  Te193  1  0.07873650  0.92021652  0.25325644  1
  Te2-  Te194  1  0.08116546  0.92004938  0.58942293  1
  Te2-  Te195  1  0.08265249  0.92336400  0.91964812  1
  Te2-  Te196  1  0.41562284  0.25739611  0.25454166  1
  Te2-  Te197  1  0.41552554  0.25135023  0.58421574  1
  Te2-  Te198  1  0.41661119  0.25341277  0.91770466  1
  Te2-  Te199  1  0.40676420  0.58917072  0.25207479  1
  Te2-  Te200  1  0.40716336  0.59029271  0.58677377  1
  Te2-  Te201  1  0.41421872  0.59150945  0.92193075  1
  Te2-  Te202  1  0.41350890  0.91449427  0.25482569  1
  Te2-  Te203  1  0.41445175  0.91687038  0.58550025  1
  Te2-  Te204  1  0.42520518  0.91794998  0.91901917  1
  Te2-  Te205  1  0.74303045  0.25505243  0.24920168  1
  Te2-  Te206  1  0.74133428  0.25466761  0.58480583  1
  Te2-  Te207  1  0.74701054  0.24957545  0.91899257  1
  Te2-  Te208  1  0.74922317  0.58785647  0.25827240  1
  Te2-  Te209  1  0.75074641  0.58214022  0.58835644  1
  Te2-  Te210  1  0.74838793  0.58167316  0.92026759  1
  Te2-  Te211  1  0.74871985  0.91842023  0.24820311  1
  Te2-  Te212  1  0.74842446  0.92170696  0.58550273  1
  Te2-  Te213  1  0.74762742  0.91865664  0.91071015  1
  Te2-  Te214  1  0.07917755  0.08223627  0.08109356  1
  Te2-  Te215  1  0.08301470  0.08382509  0.41460663  1
  Te2-  Te216  1  0.08356923  0.08284622  0.75223020  1
  Te2-  Te217  1  0.08138816  0.41283772  0.08396796  1
  Te2-  Te218  1  0.07790410  0.41349700  0.40992706  1
  Te2-  Te219  1  0.08260639  0.41471402  0.74528414  1
  Te2-  Te220  1  0.07420798  0.74401218  0.07795123  1
  Te2-  Te221  1  0.07591716  0.74762870  0.41787782  1
  Te2-  Te222  1  0.08661172  0.74795657  0.75303657  1
  Te2-  Te223  1  0.41422174  0.08123371  0.08123096  1
  Te2-  Te224  1  0.41298328  0.07590791  0.41594062  1
  Te2-  Te225  1  0.41538259  0.08160992  0.74772396  1
  Te2-  Te226  1  0.41433256  0.41832658  0.08016068  1
  Te2-  Te227  1  0.41481206  0.41793704  0.41430569  1
  Te2-  Te228  1  0.41349966  0.41736279  0.74867357  1
  Te2-  Te229  1  0.41464242  0.74238029  0.08122183  1
  Te2-  Te230  1  0.40217653  0.74586637  0.41166610  1
  Te2-  Te231  1  0.40983665  0.74905110  0.74296817  1
  Te2-  Te232  1  0.74606476  0.08228449  0.07939844  1
  Te2-  Te233  1  0.74653893  0.08142664  0.41392870  1
  Te2-  Te234  1  0.75046529  0.08158418  0.74379276  1
  Te2-  Te235  1  0.74549820  0.41657935  0.08333455  1
  Te2-  Te236  1  0.74481121  0.41298864  0.41429874  1
  Te2-  Te237  1  0.74748950  0.41138052  0.74926124  1
  Te2-  Te238  1  0.74894412  0.74375576  0.07449542  1
  Te2-  Te239  1  0.74989058  0.74461024  0.41503327  1
  Te2-  Te240  1  0.75333339  0.74246291  0.73963755  1
