# generated using pymatgen
data_Ti27(Cu53Te54)2
_symmetry_space_group_name_H-M   'P 1'
_cell_length_a   17.88351856
_cell_length_b   17.88130494
_cell_length_c   17.87956292
_cell_angle_alpha   89.97030112
_cell_angle_beta   89.97840088
_cell_angle_gamma   89.99449574
_symmetry_Int_Tables_number   1
_chemical_formula_structural   Ti27(Cu53Te54)2
_chemical_formula_sum   'Ti27 Cu106 Te108'
_cell_volume   5717.53702750
_cell_formula_units_Z   1
loop_
 _symmetry_equiv_pos_site_id
 _symmetry_equiv_pos_as_xyz
  1  'x, y, z'
loop_
 _atom_type_symbol
 _atom_type_oxidation_number
  Ti4+  4.0
  Cu+  1.0
  Te2-  -2.0
loop_
 _atom_site_type_symbol
 _atom_site_label
 _atom_site_symmetry_multiplicity
 _atom_site_fract_x
 _atom_site_fract_y
 _atom_site_fract_z
 _atom_site_occupancy
  Ti4+  Ti0  1  0.16779620  0.16385252  0.17129609  1
  Ti4+  Ti1  1  0.16670411  0.16676309  0.49718573  1
  Ti4+  Ti2  1  0.16607256  0.16673018  0.83474681  1
  Ti4+  Ti3  1  0.16914842  0.50246048  0.16795468  1
  Ti4+  Ti4  1  0.16685448  0.50154554  0.50072793  1
  Ti4+  Ti5  1  0.16673439  0.49821989  0.83348682  1
  Ti4+  Ti6  1  0.16298052  0.83272283  0.16348665  1
  Ti4+  Ti7  1  0.16388557  0.83370748  0.50201954  1
  Ti4+  Ti8  1  0.16821066  0.83587409  0.83357767  1
  Ti4+  Ti9  1  0.50076741  0.16630032  0.16740848  1
  Ti4+  Ti10  1  0.50181572  0.16655618  0.49814447  1
  Ti4+  Ti11  1  0.49827244  0.16787019  0.83246596  1
  Ti4+  Ti12  1  0.50283308  0.49971457  0.16662691  1
  Ti4+  Ti13  1  0.49958721  0.50050781  0.50055972  1
  Ti4+  Ti14  1  0.49964934  0.50013430  0.83313132  1
  Ti4+  Ti15  1  0.49655084  0.83187340  0.16727308  1
  Ti4+  Ti16  1  0.50063765  0.83562532  0.50361359  1
  Ti4+  Ti17  1  0.50123217  0.83784342  0.83593477  1
  Ti4+  Ti18  1  0.83416519  0.16666252  0.16504330  1
  Ti4+  Ti19  1  0.83360013  0.16613975  0.49760514  1
  Ti4+  Ti20  1  0.83248537  0.16539639  0.83247565  1
  Ti4+  Ti21  1  0.83633025  0.50121644  0.17071895  1
  Ti4+  Ti22  1  0.83238225  0.50095084  0.50040637  1
  Ti4+  Ti23  1  0.83343686  0.49771834  0.83427654  1
  Ti4+  Ti24  1  0.83417923  0.83286867  0.16352660  1
  Ti4+  Ti25  1  0.82786697  0.83161788  0.49814748  1
  Ti4+  Ti26  1  0.83673506  0.83200508  0.83146906  1
  Cu+  Cu27  1  0.16674259  0.16580379  0.00381362  1
  Cu+  Cu28  1  0.16653190  0.16488288  0.33178719  1
  Cu+  Cu29  1  0.16642585  0.16669575  0.66462787  1
  Cu+  Cu30  1  0.16696082  0.49792993  0.00023366  1
  Cu+  Cu31  1  0.16865375  0.50317366  0.33508719  1
  Cu+  Cu32  1  0.16595074  0.49887829  0.66695249  1
  Cu+  Cu33  1  0.16466492  0.83224182  -0.00402446  1
  Cu+  Cu34  1  0.16120576  0.83493485  0.33630189  1
  Cu+  Cu35  1  0.16309369  0.83671346  0.66837550  1
  Cu+  Cu36  1  0.49791066  0.16682292  -0.00083858  1
  Cu+  Cu37  1  0.50221285  0.16096890  0.33267654  1
  Cu+  Cu38  1  0.49920615  0.16927230  0.66590045  1
  Cu+  Cu39  1  0.50076148  0.50113109  -0.00121059  1
  Cu+  Cu40  1  0.50291834  0.49363349  0.33247924  1
  Cu+  Cu41  1  0.50041280  0.50310221  0.66745445  1
  Cu+  Cu42  1  0.50022774  0.83326865  0.00133493  1
  Cu+  Cu43  1  0.49603881  0.83088988  0.33583495  1
  Cu+  Cu44  1  0.49991379  0.84290804  0.67060055  1
  Cu+  Cu45  1  0.83614147  0.16955349  -0.00302711  1
  Cu+  Cu46  1  0.83441680  0.16870595  0.32987800  1
  Cu+  Cu47  1  0.83103733  0.16596245  0.66599101  1
  Cu+  Cu48  1  0.83109967  0.49925157  0.00180039  1
  Cu+  Cu49  1  0.84017928  0.50341929  0.33781034  1
  Cu+  Cu50  1  0.83080721  0.49644105  0.66894939  1
  Cu+  Cu51  1  0.83888811  0.82876860  -0.00136386  1
  Cu+  Cu52  1  0.82706021  0.82880931  0.32782397  1
  Cu+  Cu53  1  0.83466069  0.83433729  0.66291445  1
  Cu+  Cu54  1  0.16111796  -0.00421248  0.17173824  1
  Cu+  Cu55  1  0.16695397  0.00206396  0.49887505  1
  Cu+  Cu56  1  0.16899738  0.00134283  0.83419254  1
  Cu+  Cu57  1  0.17099402  0.33494024  0.16954495  1
  Cu+  Cu58  1  0.16747527  0.33359416  0.49867663  1
  Cu+  Cu59  1  0.16566892  0.33366010  0.83401089  1
  Cu+  Cu60  1  0.17084405  0.66971323  0.16225599  1
  Cu+  Cu61  1  0.16452106  0.66814083  0.50222789  1
  Cu+  Cu62  1  0.16868569  0.66398743  0.83634387  1
  Cu+  Cu63  1  0.49600569  0.00055302  0.17067131  1
  Cu+  Cu64  1  0.50758206  0.00223156  0.50032595  1
  Cu+  Cu65  1  0.49593398  0.00264281  0.83044255  1
  Cu+  Cu66  1  0.50317339  0.33360768  0.16692239  1
  Cu+  Cu67  1  0.50154975  0.33456513  0.49641563  1
  Cu+  Cu68  1  0.49829780  0.33364895  0.83260901  1
  Cu+  Cu69  1  0.49616247  0.66024821  0.16357507  1
  Cu+  Cu70  1  0.50435278  0.66740532  0.50682296  1
  Cu+  Cu71  1  0.50076499  0.67173930  0.83435522  1
  Cu+  Cu72  1  0.83159581  0.00124964  0.16196233  1
  Cu+  Cu73  1  0.83209454  -0.00235741  0.49968109  1
  Cu+  Cu74  1  0.83347225  0.00038741  0.83180999  1
  Cu+  Cu75  1  0.83923471  0.33047551  0.17183378  1
  Cu+  Cu76  1  0.83329124  0.33463999  0.49665384  1
  Cu+  Cu77  1  0.83461087  0.33045634  0.83608127  1
  Cu+  Cu78  1  0.83580647  0.66640670  0.16727570  1
  Cu+  Cu79  1  0.82306652  0.66371338  0.49540328  1
  Cu+  Cu80  1  0.83457111  0.66354262  0.83090568  1
  Cu+  Cu81  1  -0.00050282  0.16458418  0.17159043  1
  Cu+  Cu82  1  0.00229509  0.16507959  0.49902188  1
  Cu+  Cu83  1  -0.00209533  0.16826196  0.83570283  1
  Cu+  Cu84  1  0.00413205  0.50407100  0.17456772  1
  Cu+  Cu85  1  0.00149160  0.49917943  0.50083031  1
  Cu+  Cu86  1  -0.00009769  0.49773829  0.83318427  1
  Cu+  Cu87  1  -0.00242436  0.83307721  0.15408086  1
  Cu+  Cu88  1  -0.00588795  0.83342096  0.50131795  1
  Cu+  Cu89  1  0.00485815  0.83366779  0.83169458  1
  Cu+  Cu90  1  0.33600075  0.16521576  0.17456608  1
  Cu+  Cu91  1  0.33327227  0.16798321  0.49736860  1
  Cu+  Cu92  1  0.33226468  0.16731305  0.83314566  1
  Cu+  Cu93  1  0.33828937  0.50168564  0.16529309  1
  Cu+  Cu94  1  0.33233045  0.50175928  0.50050152  1
  Cu+  Cu95  1  0.33200536  0.49937637  0.83390063  1
  Cu+  Cu96  1  0.32737882  0.83209487  0.16453358  1
  Cu+  Cu97  1  0.33244473  0.83349704  0.50481752  1
  Cu+  Cu98  1  0.33643375  0.84309449  0.83518596  1
  Cu+  Cu99  1  0.66836963  0.16714360  0.16286236  1
  Cu+  Cu100  1  0.66910550  0.16408311  0.49498690  1
  Cu+  Cu101  1  0.66494490  0.16470013  0.83111755  1
  Cu+  Cu102  1  0.67014229  0.50183785  0.16450300  1
  Cu+  Cu103  1  0.66273253  0.50217743  0.50163862  1
  Cu+  Cu104  1  0.66672516  0.49831444  0.83449962  1
  Cu+  Cu105  1  0.66471956  0.83207618  0.16796187  1
  Cu+  Cu106  1  0.65903540  0.83328558  0.50059696  1
  Cu+  Cu107  1  0.67093221  0.83166558  0.83353853  1
  Cu+  Cu108  1  0.59338478  0.59227471  0.60022454  1
  Cu+  Cu109  1  0.92897650  0.25643296  0.26129483  1
  Cu+  Cu110  1  0.92453737  0.92810342  0.58843716  1
  Cu+  Cu111  1  0.26379247  0.93226401  0.92708040  1
  Cu+  Cu112  1  0.73620246  0.73975883  0.25143027  1
  Cu+  Cu113  1  0.92883165  0.26120226  0.92571486  1
  Cu+  Cu114  1  0.92251827  0.73329852  0.07025505  1
  Cu+  Cu115  1  0.59241100  0.40387245  0.40601348  1
  Cu+  Cu116  1  0.07568722  0.93133316  0.74089280  1
  Cu+  Cu117  1  0.93368307  0.59879893  0.26552015  1
  Cu+  Cu118  1  0.26592148  0.26498125  0.25780557  1
  Cu+  Cu119  1  0.25922852  0.74339165  0.06807455  1
  Cu+  Cu120  1  0.40531701  0.93303086  0.73756489  1
  Cu+  Cu121  1  0.59946588  0.07127158  0.40214710  1
  Cu+  Cu122  1  0.06703393  0.06855527  0.26276388  1
  Cu+  Cu123  1  0.93310816  0.40599252  0.41534413  1
  Cu+  Cu124  1  0.07473853  0.73470326  0.91866178  1
  Cu+  Cu125  1  0.25582119  0.91589891  0.26471906  1
  Cu+  Cu126  1  0.58112279  0.73939452  0.40611933  1
  Cu+  Cu127  1  0.40642253  0.58583330  0.06779549  1
  Cu+  Cu128  1  0.74303050  0.59356264  0.07030546  1
  Cu+  Cu129  1  0.59188054  0.93409543  0.60054530  1
  Cu+  Cu130  1  0.40887620  0.07171216  0.26417699  1
  Cu+  Cu131  1  0.73571152  0.58378008  0.40670307  1
  Cu+  Cu132  1  0.07240864  0.93071044  0.07046637  1
  Te2-  Te133  1  0.25407086  0.24892160  0.08585731  1
  Te2-  Te134  1  0.25352259  0.25368350  0.41128953  1
  Te2-  Te135  1  0.24962180  0.25149894  0.74850032  1
  Te2-  Te136  1  0.25453056  0.58641185  0.07632923  1
  Te2-  Te137  1  0.25225466  0.58907694  0.41686334  1
  Te2-  Te138  1  0.25164987  0.58472080  0.74807271  1
  Te2-  Te139  1  0.25016955  0.92241463  0.07855795  1
  Te2-  Te140  1  0.25262354  0.91861351  0.41699249  1
  Te2-  Te141  1  0.25281938  0.92311782  0.74389380  1
  Te2-  Te142  1  0.58450894  0.25090450  0.08006595  1
  Te2-  Te143  1  0.58815483  0.25159234  0.41021507  1
  Te2-  Te144  1  0.58460093  0.25301483  0.74772125  1
  Te2-  Te145  1  0.58870224  0.58681847  0.07815345  1
  Te2-  Te146  1  0.58443774  0.58862754  0.40859751  1
  Te2-  Te147  1  0.58761953  0.58883375  0.75111282  1
  Te2-  Te148  1  0.58228910  0.91843288  0.08544293  1
  Te2-  Te149  1  0.58579020  0.91919704  0.40868004  1
  Te2-  Te150  1  0.59189266  0.92372083  0.75267104  1
  Te2-  Te151  1  0.92366426  0.25287121  0.08109440  1
  Te2-  Te152  1  0.92322600  0.25258073  0.41297267  1
  Te2-  Te153  1  0.91805704  0.25138184  0.74567881  1
  Te2-  Te154  1  0.92341102  0.58219020  0.07991262  1
  Te2-  Te155  1  0.92368769  0.59176343  0.41849271  1
  Te2-  Te156  1  0.91870248  0.58145312  0.74690791  1
  Te2-  Te157  1  0.91680381  0.92396628  0.07521162  1
  Te2-  Te158  1  0.91292932  0.91443851  0.41035042  1
  Te2-  Te159  1  0.92142860  0.92146552  0.74520727  1
  Te2-  Te160  1  0.25440866  0.07262626  0.25718849  1
  Te2-  Te161  1  0.25241272  0.08283214  0.58349919  1
  Te2-  Te162  1  0.25412382  0.08333150  0.92213692  1
  Te2-  Te163  1  0.25686424  0.41907341  0.25414580  1
  Te2-  Te164  1  0.25212287  0.41489274  0.58476170  1
  Te2-  Te165  1  0.25232752  0.41295092  0.91956732  1
  Te2-  Te166  1  0.24805504  0.74980518  0.25541927  1
  Te2-  Te167  1  0.24859164  0.75024516  0.58868445  1
  Te2-  Te168  1  0.25826358  0.74779070  0.91617933  1
  Te2-  Te169  1  0.59156663  0.07837365  0.24929366  1
  Te2-  Te170  1  0.58966487  0.08542948  0.58927777  1
  Te2-  Te171  1  0.58281439  0.08132689  0.91771579  1
  Te2-  Te172  1  0.59204028  0.41241030  0.25021561  1
  Te2-  Te173  1  0.58474987  0.41377453  0.58677557  1
  Te2-  Te174  1  0.58390524  0.41418491  0.91841820  1
  Te2-  Te175  1  0.58165359  0.74240072  0.25112620  1
  Te2-  Te176  1  0.58561227  0.75020231  0.59519907  1
  Te2-  Te177  1  0.58687486  0.75079143  0.91981463  1
  Te2-  Te178  1  0.91589656  0.07522215  0.25332968  1
  Te2-  Te179  1  0.91884033  0.08174208  0.58510767  1
  Te2-  Te180  1  0.91885387  0.07884737  0.91861939  1
  Te2-  Te181  1  0.92442314  0.41345836  0.25743660  1
  Te2-  Te182  1  0.91721405  0.41455038  0.58542878  1
  Te2-  Te183  1  0.92024577  0.41437516  0.92280825  1
  Te2-  Te184  1  0.92448395  0.75018861  0.25219998  1
  Te2-  Te185  1  0.91210826  0.74280890  0.58102837  1
  Te2-  Te186  1  0.92280727  0.74167734  0.91638289  1
  Te2-  Te187  1  0.08194402  0.25523790  0.25358531  1
  Te2-  Te188  1  0.08197518  0.25191551  0.58312873  1
  Te2-  Te189  1  0.08255195  0.25327449  0.92268489  1
  Te2-  Te190  1  0.08716458  0.59274700  0.25488559  1
  Te2-  Te191  1  0.08026600  0.58504842  0.58690020  1
  Te2-  Te192  1  0.07930213  0.58247898  0.92122418  1
  Te2-  Te193  1  0.07124199  0.91332253  0.25330104  1
  Te2-  Te194  1  0.07756818  0.92408395  0.58580065  1
  Te2-  Te195  1  0.07826277  0.92416895  0.91926884  1
  Te2-  Te196  1  0.41894205  0.25568647  0.25675646  1
  Te2-  Te197  1  0.41637658  0.25300774  0.58114375  1
  Te2-  Te198  1  0.41287176  0.25275685  0.91834587  1
  Te2-  Te199  1  0.41693217  0.58267600  0.25640688  1
  Te2-  Te200  1  0.41355110  0.58641418  0.58561050  1
  Te2-  Te201  1  0.41309669  0.58863996  0.91659300  1
  Te2-  Te202  1  0.40998160  0.91610571  0.25577833  1
  Te2-  Te203  1  0.41266461  0.92565602  0.58419141  1
  Te2-  Te204  1  0.41693256  0.92491404  0.92599432  1
  Te2-  Te205  1  0.74621662  0.25176434  0.25065947  1
  Te2-  Te206  1  0.74834740  0.25177279  0.58143606  1
  Te2-  Te207  1  0.74460567  0.25020371  0.91772416  1
  Te2-  Te208  1  0.74534446  0.58744757  0.25576235  1
  Te2-  Te209  1  0.74631751  0.58529360  0.59079675  1
  Te2-  Te210  1  0.74699259  0.58662928  0.91833498  1
  Te2-  Te211  1  0.74762676  0.92024453  0.24769575  1
  Te2-  Te212  1  0.74369469  0.91908937  0.58543084  1
  Te2-  Te213  1  0.75298466  0.91549416  0.91864461  1
  Te2-  Te214  1  0.07927289  0.08184398  0.08210619  1
  Te2-  Te215  1  0.07897953  0.07797492  0.41292474  1
  Te2-  Te216  1  0.07939571  0.08341921  0.74775221  1
  Te2-  Te217  1  0.08274735  0.41605110  0.08658262  1
  Te2-  Te218  1  0.08360399  0.41415590  0.41190136  1
  Te2-  Te219  1  0.08093013  0.41319645  0.74795819  1
  Te2-  Te220  1  0.07818461  0.74026745  0.07489553  1
  Te2-  Te221  1  0.07792150  0.74916642  0.41747991  1
  Te2-  Te222  1  0.08453808  0.74492888  0.74869096  1
  Te2-  Te223  1  0.41321560  0.08211974  0.08221092  1
  Te2-  Te224  1  0.41307123  0.07742871  0.41635543  1
  Te2-  Te225  1  0.41052464  0.08428376  0.74356808  1
  Te2-  Te226  1  0.41750591  0.41338636  0.08097752  1
  Te2-  Te227  1  0.41255166  0.41577818  0.41515619  1
  Te2-  Te228  1  0.41460581  0.41647468  0.74695699  1
  Te2-  Te229  1  0.41228047  0.74597509  0.07828074  1
  Te2-  Te230  1  0.41379237  0.74636900  0.42156028  1
  Te2-  Te231  1  0.41470992  0.75342773  0.74960213  1
  Te2-  Te232  1  0.74936469  0.08365544  0.07693959  1
  Te2-  Te233  1  0.75157891  0.07847869  0.40948422  1
  Te2-  Te234  1  0.74695845  0.07973988  0.74654555  1
  Te2-  Te235  1  0.75326376  0.41122878  0.08695229  1
  Te2-  Te236  1  0.74519908  0.41574882  0.41182176  1
  Te2-  Te237  1  0.74771813  0.41128962  0.75096012  1
  Te2-  Te238  1  0.74531107  0.74690866  0.07774873  1
  Te2-  Te239  1  0.73787447  0.74504313  0.40965609  1
  Te2-  Te240  1  0.75134537  0.74799155  0.74672305  1
