# generated using pymatgen
data_Ti27(Cu53Te54)2
_symmetry_space_group_name_H-M   'P 1'
_cell_length_a   17.89845510
_cell_length_b   17.88881627
_cell_length_c   17.89409110
_cell_angle_alpha   89.97807101
_cell_angle_beta   89.97065388
_cell_angle_gamma   90.03716459
_symmetry_Int_Tables_number   1
_chemical_formula_structural   Ti27(Cu53Te54)2
_chemical_formula_sum   'Ti27 Cu106 Te108'
_cell_volume   5729.36662830
_cell_formula_units_Z   1
loop_
 _symmetry_equiv_pos_site_id
 _symmetry_equiv_pos_as_xyz
  1  'x, y, z'
loop_
 _atom_type_symbol
 _atom_type_oxidation_number
  Ti4+  4.0
  Cu+  1.0
  Te2-  -2.0
loop_
 _atom_site_type_symbol
 _atom_site_label
 _atom_site_symmetry_multiplicity
 _atom_site_fract_x
 _atom_site_fract_y
 _atom_site_fract_z
 _atom_site_occupancy
  Ti4+  Ti0  1  0.16945932  0.16856265  0.16828505  1
  Ti4+  Ti1  1  0.16415710  0.16680666  0.49865510  1
  Ti4+  Ti2  1  0.16504241  0.16652533  0.83344846  1
  Ti4+  Ti3  1  0.16513341  0.50060712  0.16885722  1
  Ti4+  Ti4  1  0.16699689  0.50052871  0.49935979  1
  Ti4+  Ti5  1  0.16632766  0.49651031  0.83748921  1
  Ti4+  Ti6  1  0.16473931  0.83483080  0.16742584  1
  Ti4+  Ti7  1  0.16576336  0.83385605  0.49752888  1
  Ti4+  Ti8  1  0.16740757  0.83438549  0.83299526  1
  Ti4+  Ti9  1  0.50269030  0.16734992  0.16773892  1
  Ti4+  Ti10  1  0.49808009  0.16557882  0.50122234  1
  Ti4+  Ti11  1  0.49934059  0.16588178  0.83100963  1
  Ti4+  Ti12  1  0.50143658  0.50460001  0.16645575  1
  Ti4+  Ti13  1  0.50212842  0.49919208  0.50075648  1
  Ti4+  Ti14  1  0.49835244  0.49764924  0.83016287  1
  Ti4+  Ti15  1  0.50084355  0.83262209  0.16942360  1
  Ti4+  Ti16  1  0.50033709  0.83444420  0.50179937  1
  Ti4+  Ti17  1  0.50026185  0.83331329  0.83257785  1
  Ti4+  Ti18  1  0.83510244  0.16807667  0.16409089  1
  Ti4+  Ti19  1  0.83190118  0.16588450  0.49816367  1
  Ti4+  Ti20  1  0.83080683  0.16673253  0.83227699  1
  Ti4+  Ti21  1  0.83203635  0.49945954  0.16653720  1
  Ti4+  Ti22  1  0.83097640  0.49836987  0.50180206  1
  Ti4+  Ti23  1  0.84037303  0.50227306  0.83240233  1
  Ti4+  Ti24  1  0.83187102  0.83016635  0.16586760  1
  Ti4+  Ti25  1  0.83232743  0.83378415  0.50207605  1
  Ti4+  Ti26  1  0.83317646  0.83058104  0.83504594  1
  Cu+  Cu27  1  0.17016438  0.16882301  0.00194052  1
  Cu+  Cu28  1  0.16995376  0.16436844  0.33476958  1
  Cu+  Cu29  1  0.15938042  0.16625413  0.66585651  1
  Cu+  Cu30  1  0.17053744  0.49478961  0.00698407  1
  Cu+  Cu31  1  0.16585894  0.50134839  0.33432170  1
  Cu+  Cu32  1  0.16508798  0.49623996  0.66934935  1
  Cu+  Cu33  1  0.16719438  0.83535276  -0.00026565  1
  Cu+  Cu34  1  0.15819749  0.83496604  0.33189052  1
  Cu+  Cu35  1  0.16783971  0.83506171  0.66248201  1
  Cu+  Cu36  1  0.50094101  0.16555359  -0.00015391  1
  Cu+  Cu37  1  0.50332997  0.16318617  0.33457273  1
  Cu+  Cu38  1  0.49413804  0.17028479  0.66879220  1
  Cu+  Cu39  1  0.49784325  0.49985606  -0.00610046  1
  Cu+  Cu40  1  0.50205957  0.50831584  0.33313520  1
  Cu+  Cu41  1  0.50325547  0.49025355  0.66730708  1
  Cu+  Cu42  1  0.50001734  0.83036813  0.00115467  1
  Cu+  Cu43  1  0.49965446  0.83361707  0.33467355  1
  Cu+  Cu44  1  0.50115977  0.84037514  0.66687554  1
  Cu+  Cu45  1  0.83121031  0.17196772  -0.00256669  1
  Cu+  Cu46  1  0.83534584  0.16905877  0.32944196  1
  Cu+  Cu47  1  0.82958884  0.16424602  0.66403632  1
  Cu+  Cu48  1  0.83711274  0.50112500  -0.00008371  1
  Cu+  Cu49  1  0.83138154  0.49720739  0.33868935  1
  Cu+  Cu50  1  0.84008753  0.50315435  0.66187510  1
  Cu+  Cu51  1  0.83321992  0.83242154  0.00060064  1
  Cu+  Cu52  1  0.83047094  0.83144140  0.33243438  1
  Cu+  Cu53  1  0.82856416  0.82609520  0.66738719  1
  Cu+  Cu54  1  0.16778995  0.00162091  0.16718545  1
  Cu+  Cu55  1  0.16462702  0.00039684  0.49209313  1
  Cu+  Cu56  1  0.16647184  0.00151488  0.83455894  1
  Cu+  Cu57  1  0.17005635  0.33552526  0.16745221  1
  Cu+  Cu58  1  0.16538466  0.33408888  0.49945728  1
  Cu+  Cu59  1  0.16640696  0.32724303  0.83582513  1
  Cu+  Cu60  1  0.16066180  0.66889675  0.17082769  1
  Cu+  Cu61  1  0.16935116  0.66783786  0.50004972  1
  Cu+  Cu62  1  0.16611412  0.66743605  0.83762197  1
  Cu+  Cu63  1  0.50075791  -0.00116266  0.16877919  1
  Cu+  Cu64  1  0.50648446  0.00090395  0.50200794  1
  Cu+  Cu65  1  0.49591874  -0.00300270  0.83039288  1
  Cu+  Cu66  1  0.50175829  0.33560777  0.16941046  1
  Cu+  Cu67  1  0.49429579  0.33526203  0.50447799  1
  Cu+  Cu68  1  0.50078966  0.33300689  0.82485146  1
  Cu+  Cu69  1  0.50829203  0.66863158  0.16861328  1
  Cu+  Cu70  1  0.49645686  0.66364878  0.49909445  1
  Cu+  Cu71  1  0.49793406  0.66471685  0.83013369  1
  Cu+  Cu72  1  0.83354391  -0.00192680  0.16501929  1
  Cu+  Cu73  1  0.83215425  0.00203568  0.49860169  1
  Cu+  Cu74  1  0.83140998  -0.00126381  0.83348884  1
  Cu+  Cu75  1  0.83462236  0.33221546  0.16182897  1
  Cu+  Cu76  1  0.82978053  0.33226803  0.49952286  1
  Cu+  Cu77  1  0.83682578  0.33140571  0.83689284  1
  Cu+  Cu78  1  0.82778228  0.66423026  0.16405368  1
  Cu+  Cu79  1  0.82773723  0.66687213  0.50579946  1
  Cu+  Cu80  1  0.84427841  0.66785812  0.83304223  1
  Cu+  Cu81  1  0.00299182  0.17088876  0.17017521  1
  Cu+  Cu82  1  -0.00341300  0.16638475  0.50010559  1
  Cu+  Cu83  1  -0.00243596  0.16885495  0.83166339  1
  Cu+  Cu84  1  -0.00255274  0.49558428  0.16745499  1
  Cu+  Cu85  1  -0.00237126  0.49882532  0.50055138  1
  Cu+  Cu86  1  0.00604843  0.50756825  0.83504309  1
  Cu+  Cu87  1  -0.00116485  0.82899686  0.17099564  1
  Cu+  Cu88  1  0.00233820  0.83767537  0.49492086  1
  Cu+  Cu89  1  0.00039082  0.83267964  0.83284518  1
  Cu+  Cu90  1  0.33978586  0.16804940  0.17002466  1
  Cu+  Cu91  1  0.32757056  0.16175783  0.49866053  1
  Cu+  Cu92  1  0.33284977  0.16892718  0.83220507  1
  Cu+  Cu93  1  0.33276190  0.50308197  0.16702922  1
  Cu+  Cu94  1  0.33604436  0.50125636  0.49835856  1
  Cu+  Cu95  1  0.33039443  0.49623576  0.83628457  1
  Cu+  Cu96  1  0.33297627  0.83417592  0.16900049  1
  Cu+  Cu97  1  0.33139926  0.83454054  0.49962596  1
  Cu+  Cu98  1  0.33444062  0.83514479  0.83080134  1
  Cu+  Cu99  1  0.66902468  0.16733893  0.16264545  1
  Cu+  Cu100  1  0.66507558  0.16350186  0.49639972  1
  Cu+  Cu101  1  0.66540047  0.16348738  0.83413313  1
  Cu+  Cu102  1  0.66681256  0.50822808  0.16584465  1
  Cu+  Cu103  1  0.66745638  0.49835275  0.50110653  1
  Cu+  Cu104  1  0.66657024  0.49670932  0.82970626  1
  Cu+  Cu105  1  0.66458817  0.82910323  0.16452041  1
  Cu+  Cu106  1  0.66587018  0.83450617  0.50943063  1
  Cu+  Cu107  1  0.66813256  0.83086105  0.83553406  1
  Cu+  Cu108  1  0.93061075  0.59732611  0.57886509  1
  Cu+  Cu109  1  0.40235380  0.41239604  0.59178097  1
  Cu+  Cu110  1  0.73608988  0.25875798  0.07103819  1
  Cu+  Cu111  1  0.93251280  0.59713747  0.93109453  1
  Cu+  Cu112  1  0.26562756  0.25124174  0.92917022  1
  Cu+  Cu113  1  0.59139734  0.74335608  0.06803338  1
  Cu+  Cu114  1  0.93197057  0.75171139  0.73620748  1
  Cu+  Cu115  1  0.59636609  0.07266685  0.40407629  1
  Cu+  Cu116  1  0.26663564  0.40848097  0.08178693  1
  Cu+  Cu117  1  0.74132933  0.59074019  0.06666633  1
  Cu+  Cu118  1  0.06735533  0.25639742  0.73587597  1
  Cu+  Cu119  1  0.73341384  0.73579075  0.59647620  1
  Cu+  Cu120  1  0.40273996  0.25994289  0.74115307  1
  Cu+  Cu121  1  0.59769167  0.59690265  0.26599326  1
  Cu+  Cu122  1  0.06849764  0.73644811  0.26145397  1
  Cu+  Cu123  1  0.40213035  0.92401782  0.73687034  1
  Cu+  Cu124  1  0.08958754  0.59765897  0.73832525  1
  Cu+  Cu125  1  0.93080565  0.25882517  0.26322414  1
  Cu+  Cu126  1  0.40488480  0.59471589  0.40578283  1
  Cu+  Cu127  1  0.26062527  0.07095398  0.40501019  1
  Cu+  Cu128  1  0.92751425  0.25500439  0.92377711  1
  Cu+  Cu129  1  0.92721106  0.40775228  0.07317504  1
  Cu+  Cu130  1  0.06803707  0.93192909  0.40214236  1
  Cu+  Cu131  1  0.59663445  0.93216854  0.59862105  1
  Cu+  Cu132  1  0.60276689  0.40303318  0.73850946  1
  Te2-  Te133  1  0.25982416  0.25411004  0.08312687  1
  Te2-  Te134  1  0.25163592  0.25384774  0.41533691  1
  Te2-  Te135  1  0.24991803  0.25267590  0.74219241  1
  Te2-  Te136  1  0.24899642  0.58974241  0.08490310  1
  Te2-  Te137  1  0.25247389  0.58706565  0.41315124  1
  Te2-  Te138  1  0.25056435  0.58301441  0.75123932  1
  Te2-  Te139  1  0.25207665  0.91908754  0.08264162  1
  Te2-  Te140  1  0.25371633  0.91728971  0.40886640  1
  Te2-  Te141  1  0.24996514  0.92170912  0.74569012  1
  Te2-  Te142  1  0.58454662  0.25518508  0.07934462  1
  Te2-  Te143  1  0.58149700  0.25407679  0.41789279  1
  Te2-  Te144  1  0.58995280  0.24990050  0.74424760  1
  Te2-  Te145  1  0.58558840  0.58746545  0.07172827  1
  Te2-  Te146  1  0.59110998  0.58894114  0.41844923  1
  Te2-  Te147  1  0.58464760  0.58353746  0.74576084  1
  Te2-  Te148  1  0.58497904  0.91833455  0.08155579  1
  Te2-  Te149  1  0.58907758  0.91704442  0.41422320  1
  Te2-  Te150  1  0.59148816  0.92067393  0.75051405  1
  Te2-  Te151  1  0.92658092  0.25386257  0.07670720  1
  Te2-  Te152  1  0.91876183  0.25449044  0.41489691  1
  Te2-  Te153  1  0.91525323  0.25293964  0.74214614  1
  Te2-  Te154  1  0.92246720  0.58834753  0.08379827  1
  Te2-  Te155  1  0.91538962  0.58699281  0.41641458  1
  Te2-  Te156  1  0.92747845  0.58953536  0.74119287  1
  Te2-  Te157  1  0.91912591  0.91484486  0.08290184  1
  Te2-  Te158  1  0.91483220  0.91932149  0.41184684  1
  Te2-  Te159  1  0.91596980  0.91651345  0.74739523  1
  Te2-  Te160  1  0.25610222  0.08084470  0.25147154  1
  Te2-  Te161  1  0.24554145  0.07953158  0.58632769  1
  Te2-  Te162  1  0.25283562  0.08197849  0.91903338  1
  Te2-  Te163  1  0.25337298  0.41727860  0.25479993  1
  Te2-  Te164  1  0.25055623  0.41379840  0.58575232  1
  Te2-  Te165  1  0.25451186  0.40860954  0.92303681  1
  Te2-  Te166  1  0.24972891  0.74977008  0.25373859  1
  Te2-  Te167  1  0.25255652  0.74919183  0.58430397  1
  Te2-  Te168  1  0.25298320  0.75092434  0.91806659  1
  Te2-  Te169  1  0.59036481  0.07972556  0.25005268  1
  Te2-  Te170  1  0.58582071  0.08507094  0.59169934  1
  Te2-  Te171  1  0.58201370  0.07907031  0.91693208  1
  Te2-  Te172  1  0.58688278  0.41958559  0.25154461  1
  Te2-  Te173  1  0.59068865  0.40854286  0.58460456  1
  Te2-  Te174  1  0.58459237  0.41255073  0.91591408  1
  Te2-  Te175  1  0.58973772  0.74868966  0.25938135  1
  Te2-  Te176  1  0.58065246  0.74413049  0.58910448  1
  Te2-  Te177  1  0.58522105  0.74356330  0.91603519  1
  Te2-  Te178  1  0.91957506  0.08072750  0.24912530  1
  Te2-  Te179  1  0.91738531  0.08090489  0.58481678  1
  Te2-  Te180  1  0.91640061  0.08135892  0.91767297  1
  Te2-  Te181  1  0.91687097  0.41362147  0.25621595  1
  Te2-  Te182  1  0.91829557  0.40995049  0.58417580  1
  Te2-  Te183  1  0.92602678  0.41369128  0.91884406  1
  Te2-  Te184  1  0.91422344  0.74269850  0.25392858  1
  Te2-  Te185  1  0.92565959  0.74909214  0.58431177  1
  Te2-  Te186  1  0.92374439  0.74879240  0.92445433  1
  Te2-  Te187  1  0.08606742  0.25541602  0.25601658  1
  Te2-  Te188  1  0.07673245  0.25446158  0.58312950  1
  Te2-  Te189  1  0.07923593  0.25182812  0.92394155  1
  Te2-  Te190  1  0.07574553  0.58328770  0.25523349  1
  Te2-  Te191  1  0.08203384  0.58846630  0.58648066  1
  Te2-  Te192  1  0.08625500  0.58552288  0.92829140  1
  Te2-  Te193  1  0.07612186  0.92483159  0.25014350  1
  Te2-  Te194  1  0.08154117  0.92094225  0.58325265  1
  Te2-  Te195  1  0.08085994  0.91898303  0.91777987  1
  Te2-  Te196  1  0.41960668  0.25266763  0.25565477  1
  Te2-  Te197  1  0.40606280  0.25145846  0.58501695  1
  Te2-  Te198  1  0.41807083  0.25440356  0.91977871  1
  Te2-  Te199  1  0.41295000  0.59130110  0.25008535  1
  Te2-  Te200  1  0.41696139  0.58251328  0.59028022  1
  Te2-  Te201  1  0.41212146  0.58464850  0.91492358  1
  Te2-  Te202  1  0.41510392  0.91889709  0.25399146  1
  Te2-  Te203  1  0.41147413  0.92274627  0.58301730  1
  Te2-  Te204  1  0.41526847  0.91641557  0.92106239  1
  Te2-  Te205  1  0.74733484  0.25351277  0.24980092  1
  Te2-  Te206  1  0.74508789  0.24952150  0.58277399  1
  Te2-  Te207  1  0.74175371  0.25581076  0.91684045  1
  Te2-  Te208  1  0.74973109  0.58617378  0.25802958  1
  Te2-  Te209  1  0.74234837  0.58350366  0.59123941  1
  Te2-  Te210  1  0.74874886  0.58553626  0.91300419  1
  Te2-  Te211  1  0.74664491  0.91654769  0.24921968  1
  Te2-  Te212  1  0.75043988  0.92303302  0.58982762  1
  Te2-  Te213  1  0.74827973  0.91690872  0.91977518  1
  Te2-  Te214  1  0.08362026  0.08533591  0.08323525  1
  Te2-  Te215  1  0.07491735  0.08390909  0.41042513  1
  Te2-  Te216  1  0.07838004  0.07957069  0.74958397  1
  Te2-  Te217  1  0.07956238  0.41080131  0.08237247  1
  Te2-  Te218  1  0.08067352  0.41650051  0.41554958  1
  Te2-  Te219  1  0.07928532  0.41103578  0.75080500  1
  Te2-  Te220  1  0.08068479  0.74969862  0.07976377  1
  Te2-  Te221  1  0.07843373  0.74316241  0.41457259  1
  Te2-  Te222  1  0.08275934  0.74784366  0.74335473  1
  Te2-  Te223  1  0.41719318  0.08135532  0.08308514  1
  Te2-  Te224  1  0.41477175  0.07774846  0.41473931  1
  Te2-  Te225  1  0.41032192  0.07969547  0.74589991  1
  Te2-  Te226  1  0.41762828  0.41597726  0.08142595  1
  Te2-  Te227  1  0.41764178  0.41605918  0.41065530  1
  Te2-  Te228  1  0.40518099  0.41166267  0.74522579  1
  Te2-  Te229  1  0.41441415  0.74666112  0.08529384  1
  Te2-  Te230  1  0.41335242  0.74915127  0.41511553  1
  Te2-  Te231  1  0.41535522  0.74904488  0.74521893  1
  Te2-  Te232  1  0.75044787  0.08065127  0.07862907  1
  Te2-  Te233  1  0.74883618  0.08022781  0.40878558  1
  Te2-  Te234  1  0.74684078  0.07975279  0.74811162  1
  Te2-  Te235  1  0.74413620  0.41614346  0.07836657  1
  Te2-  Te236  1  0.74491104  0.41253867  0.41551439  1
  Te2-  Te237  1  0.75651482  0.41509160  0.74683412  1
  Te2-  Te238  1  0.74513691  0.74462712  0.07535840  1
  Te2-  Te239  1  0.74544608  0.74965339  0.41797755  1
  Te2-  Te240  1  0.74515059  0.74077217  0.75138757  1
