# generated using pymatgen
data_Ti27(Cu53Te54)2
_symmetry_space_group_name_H-M   'P 1'
_cell_length_a   17.89297897
_cell_length_b   17.89457858
_cell_length_c   17.89533250
_cell_angle_alpha   90.01185235
_cell_angle_beta   89.98582792
_cell_angle_gamma   89.94679710
_symmetry_Int_Tables_number   1
_chemical_formula_structural   Ti27(Cu53Te54)2
_chemical_formula_sum   'Ti27 Cu106 Te108'
_cell_volume   5729.85575316
_cell_formula_units_Z   1
loop_
 _symmetry_equiv_pos_site_id
 _symmetry_equiv_pos_as_xyz
  1  'x, y, z'
loop_
 _atom_type_symbol
 _atom_type_oxidation_number
  Ti4+  4.0
  Cu+  1.0
  Te2-  -2.0
loop_
 _atom_site_type_symbol
 _atom_site_label
 _atom_site_symmetry_multiplicity
 _atom_site_fract_x
 _atom_site_fract_y
 _atom_site_fract_z
 _atom_site_occupancy
  Ti4+  Ti0  1  0.16664796  0.16559392  0.16764207  1
  Ti4+  Ti1  1  0.16712437  0.16650382  0.49978977  1
  Ti4+  Ti2  1  0.16482128  0.16428349  0.83519886  1
  Ti4+  Ti3  1  0.16545728  0.50404303  0.16990197  1
  Ti4+  Ti4  1  0.17015317  0.49664457  0.49864016  1
  Ti4+  Ti5  1  0.16850604  0.50164128  0.83150337  1
  Ti4+  Ti6  1  0.16633938  0.83461055  0.16688419  1
  Ti4+  Ti7  1  0.16731964  0.83388900  0.49946789  1
  Ti4+  Ti8  1  0.16393884  0.83213184  0.83654149  1
  Ti4+  Ti9  1  0.49722377  0.16723879  0.16610699  1
  Ti4+  Ti10  1  0.49939078  0.16679420  0.49678005  1
  Ti4+  Ti11  1  0.49997222  0.16719470  0.82772561  1
  Ti4+  Ti12  1  0.50153443  0.49940179  0.16984509  1
  Ti4+  Ti13  1  0.50201899  0.49955097  0.50381801  1
  Ti4+  Ti14  1  0.49963188  0.49788936  0.83459398  1
  Ti4+  Ti15  1  0.49727746  0.83141176  0.16389849  1
  Ti4+  Ti16  1  0.49979878  0.83348101  0.49882462  1
  Ti4+  Ti17  1  0.49947321  0.83635563  0.83254029  1
  Ti4+  Ti18  1  0.83277342  0.16682497  0.16567134  1
  Ti4+  Ti19  1  0.83266736  0.16859206  0.49982245  1
  Ti4+  Ti20  1  0.83472401  0.17036229  0.83623845  1
  Ti4+  Ti21  1  0.83494394  0.49659799  0.16567639  1
  Ti4+  Ti22  1  0.83634896  0.49630648  0.49781512  1
  Ti4+  Ti23  1  0.83544880  0.49848447  0.83161528  1
  Ti4+  Ti24  1  0.83185648  0.83238430  0.16620910  1
  Ti4+  Ti25  1  0.83404607  0.83494848  0.49902347  1
  Ti4+  Ti26  1  0.83226217  0.83415323  0.83198765  1
  Cu+  Cu27  1  0.16116943  0.16218331  0.00210522  1
  Cu+  Cu28  1  0.16886623  0.16794458  0.33226270  1
  Cu+  Cu29  1  0.16713188  0.16278788  0.66731166  1
  Cu+  Cu30  1  0.16640716  0.50245517  0.00040251  1
  Cu+  Cu31  1  0.16409694  0.50581175  0.33795797  1
  Cu+  Cu32  1  0.17161368  0.50433271  0.66225415  1
  Cu+  Cu33  1  0.16904659  0.83222914  -0.00292611  1
  Cu+  Cu34  1  0.16751088  0.83666743  0.33544218  1
  Cu+  Cu35  1  0.16576237  0.83354111  0.67472100  1
  Cu+  Cu36  1  0.49899091  0.16710192  -0.00083071  1
  Cu+  Cu37  1  0.49894644  0.16672745  0.33144019  1
  Cu+  Cu38  1  0.50250056  0.16591044  0.66212433  1
  Cu+  Cu39  1  0.50108457  0.49983288  0.00585030  1
  Cu+  Cu40  1  0.50399373  0.50018915  0.33708004  1
  Cu+  Cu41  1  0.49764544  0.49529087  0.66929569  1
  Cu+  Cu42  1  0.49782365  0.83115706  -0.00297929  1
  Cu+  Cu43  1  0.49864805  0.83155788  0.33182938  1
  Cu+  Cu44  1  0.49924057  0.83819831  0.66368853  1
  Cu+  Cu45  1  0.83645066  0.17099645  0.00153806  1
  Cu+  Cu46  1  0.82859749  0.16920521  0.33223662  1
  Cu+  Cu47  1  0.83653582  0.17271731  0.66843885  1
  Cu+  Cu48  1  0.83271468  0.49670905  -0.00210599  1
  Cu+  Cu49  1  0.84080163  0.49381893  0.33103902  1
  Cu+  Cu50  1  0.83343893  0.49554813  0.66395344  1
  Cu+  Cu51  1  0.83226697  0.83371477  -0.00001354  1
  Cu+  Cu52  1  0.83181063  0.83566786  0.33405620  1
  Cu+  Cu53  1  0.83428465  0.83356836  0.66422981  1
  Cu+  Cu54  1  0.16974224  -0.00223773  0.17019683  1
  Cu+  Cu55  1  0.16283243  0.00134404  0.49818895  1
  Cu+  Cu56  1  0.15920676  -0.00201796  0.83856812  1
  Cu+  Cu57  1  0.16751719  0.33457996  0.16884556  1
  Cu+  Cu58  1  0.16837356  0.33010505  0.50053044  1
  Cu+  Cu59  1  0.16833748  0.33539291  0.83072823  1
  Cu+  Cu60  1  0.16311198  0.67403589  0.16921679  1
  Cu+  Cu61  1  0.17368328  0.66305528  0.49830454  1
  Cu+  Cu62  1  0.16636280  0.66899840  0.83177313  1
  Cu+  Cu63  1  0.49739972  -0.00040004  0.16312391  1
  Cu+  Cu64  1  0.49976740  -0.00079385  0.49639498  1
  Cu+  Cu65  1  0.49674293  0.00535412  0.83126550  1
  Cu+  Cu66  1  0.49951714  0.33566208  0.16813409  1
  Cu+  Cu67  1  0.49936785  0.33406670  0.50360832  1
  Cu+  Cu68  1  0.50380387  0.32849009  0.83335342  1
  Cu+  Cu69  1  0.49775519  0.66118699  0.16486138  1
  Cu+  Cu70  1  0.50283227  0.66753176  0.50189377  1
  Cu+  Cu71  1  0.50048596  0.66578484  0.83210971  1
  Cu+  Cu72  1  0.83142833  0.00025881  0.16635842  1
  Cu+  Cu73  1  0.83297488  0.00222976  0.50090524  1
  Cu+  Cu74  1  0.83175500  0.00101903  0.83181534  1
  Cu+  Cu75  1  0.83270674  0.33074477  0.16478104  1
  Cu+  Cu76  1  0.83483265  0.33157898  0.49866098  1
  Cu+  Cu77  1  0.83590321  0.33507778  0.83980449  1
  Cu+  Cu78  1  0.83294416  0.66392135  0.16438431  1
  Cu+  Cu79  1  0.83598626  0.67148462  0.49820037  1
  Cu+  Cu80  1  0.83275037  0.66526305  0.82799927  1
  Cu+  Cu81  1  -0.00069441  0.16375257  0.16871271  1
  Cu+  Cu82  1  -0.00014189  0.16866196  0.50337566  1
  Cu+  Cu83  1  0.00029551  0.16647328  0.84085314  1
  Cu+  Cu84  1  -0.00289885  0.50434292  0.17054849  1
  Cu+  Cu85  1  0.00138553  0.49116605  0.49101430  1
  Cu+  Cu86  1  0.00267517  0.50105816  0.82684765  1
  Cu+  Cu87  1  -0.00195143  0.83187004  0.16589747  1
  Cu+  Cu88  1  -0.00148632  0.83923935  0.49890426  1
  Cu+  Cu89  1  -0.00197294  0.83445641  0.83404581  1
  Cu+  Cu90  1  0.32942691  0.17088889  0.16736747  1
  Cu+  Cu91  1  0.33327668  0.16338615  0.49785818  1
  Cu+  Cu92  1  0.33569587  0.16128460  0.83075902  1
  Cu+  Cu93  1  0.33604213  0.50251777  0.17109991  1
  Cu+  Cu94  1  0.33843647  0.49802543  0.50842724  1
  Cu+  Cu95  1  0.33189413  0.49968629  0.83345392  1
  Cu+  Cu96  1  0.32944416  0.83401375  0.16492648  1
  Cu+  Cu97  1  0.33446533  0.82874640  0.49776786  1
  Cu+  Cu98  1  0.33445504  0.83206428  0.83825356  1
  Cu+  Cu99  1  0.66508246  0.16386000  0.16416980  1
  Cu+  Cu100  1  0.66550348  0.17161054  0.49550679  1
  Cu+  Cu101  1  0.66452469  0.17254681  0.83206488  1
  Cu+  Cu102  1  0.66731524  0.49690161  0.16839275  1
  Cu+  Cu103  1  0.66985534  0.49657274  0.50308032  1
  Cu+  Cu104  1  0.66737411  0.49564507  0.83320161  1
  Cu+  Cu105  1  0.66483959  0.83145521  0.16444953  1
  Cu+  Cu106  1  0.66714772  0.83489750  0.49923495  1
  Cu+  Cu107  1  0.66649969  0.83654772  0.82985124  1
  Cu+  Cu108  1  0.93206310  0.26512643  0.93212435  1
  Cu+  Cu109  1  0.06560274  0.73542604  0.91984033  1
  Cu+  Cu110  1  0.40553865  0.58466524  0.07495966  1
  Cu+  Cu111  1  0.06963320  0.93254917  0.40678051  1
  Cu+  Cu112  1  0.73882773  0.41075387  0.93007977  1
  Cu+  Cu113  1  0.41145843  0.08013787  0.92745296  1
  Cu+  Cu114  1  0.26304387  0.74620425  0.74379770  1
  Cu+  Cu115  1  0.06734438  0.07208230  0.93421315  1
  Cu+  Cu116  1  0.93051389  0.39883900  0.40046759  1
  Cu+  Cu117  1  0.06937147  0.92688738  0.74238958  1
  Cu+  Cu118  1  0.41475306  0.73662187  0.92263172  1
  Cu+  Cu119  1  0.91646213  0.59686071  0.26002723  1
  Cu+  Cu120  1  0.06982203  0.75254792  0.26379605  1
  Cu+  Cu121  1  0.74159189  0.40510072  0.59362161  1
  Cu+  Cu122  1  0.73499046  0.26017714  0.40097728  1
  Cu+  Cu123  1  0.40642780  0.40027578  0.59862446  1
  Cu+  Cu124  1  0.26485692  0.73701310  0.40658596  1
  Cu+  Cu125  1  0.93111973  0.25913912  0.59667475  1
  Cu+  Cu126  1  0.26319702  0.92600213  0.26337288  1
  Cu+  Cu127  1  0.25831130  0.26623775  0.26129825  1
  Cu+  Cu128  1  0.07186385  0.59443817  0.41989281  1
  Cu+  Cu129  1  0.25409385  0.74078385  0.07503195  1
  Cu+  Cu130  1  0.26039843  0.92821830  0.92219880  1
  Cu+  Cu131  1  0.58895437  0.25445980  0.92929801  1
  Cu+  Cu132  1  0.26591838  0.59377121  0.59122589  1
  Te2-  Te133  1  0.24784929  0.25196657  0.07874471  1
  Te2-  Te134  1  0.25490489  0.25228520  0.41462413  1
  Te2-  Te135  1  0.25135301  0.24756523  0.74977330  1
  Te2-  Te136  1  0.25197829  0.58837076  0.08191019  1
  Te2-  Te137  1  0.26203343  0.58204254  0.41374330  1
  Te2-  Te138  1  0.25701942  0.58958408  0.74594015  1
  Te2-  Te139  1  0.25294743  0.92183552  0.07814895  1
  Te2-  Te140  1  0.25567828  0.92242370  0.41683024  1
  Te2-  Te141  1  0.25259569  0.92078490  0.75313961  1
  Te2-  Te142  1  0.58423721  0.25343865  0.08205986  1
  Te2-  Te143  1  0.58210599  0.25668268  0.41086235  1
  Te2-  Te144  1  0.58616520  0.25324833  0.74100500  1
  Te2-  Te145  1  0.58971951  0.58423495  0.08310374  1
  Te2-  Te146  1  0.58864645  0.58426414  0.41924575  1
  Te2-  Te147  1  0.58505580  0.58152463  0.74906265  1
  Te2-  Te148  1  0.58260668  0.91653424  0.07905738  1
  Te2-  Te149  1  0.58470535  0.91697469  0.41182611  1
  Te2-  Te150  1  0.58292545  0.92264285  0.74739411  1
  Te2-  Te151  1  0.92379229  0.25347977  0.08309729  1
  Te2-  Te152  1  0.92224663  0.24984631  0.40999989  1
  Te2-  Te153  1  0.92352717  0.25578717  0.75177123  1
  Te2-  Te154  1  0.91786090  0.58330896  0.07798711  1
  Te2-  Te155  1  0.92057900  0.58911080  0.41244195  1
  Te2-  Te156  1  0.91814253  0.58371266  0.74352331  1
  Te2-  Te157  1  0.91748318  0.91822451  0.08192329  1
  Te2-  Te158  1  0.91770383  0.92440130  0.41150972  1
  Te2-  Te159  1  0.91765129  0.92121699  0.74573539  1
  Te2-  Te160  1  0.25494034  0.07929874  0.25441087  1
  Te2-  Te161  1  0.25122047  0.07922405  0.58390608  1
  Te2-  Te162  1  0.25368987  0.07970030  0.92242821  1
  Te2-  Te163  1  0.25165276  0.41977066  0.25542155  1
  Te2-  Te164  1  0.25326207  0.40925014  0.58816156  1
  Te2-  Te165  1  0.25078591  0.41608201  0.91941070  1
  Te2-  Te166  1  0.25502601  0.74689181  0.25523642  1
  Te2-  Te167  1  0.25348860  0.74805230  0.58954616  1
  Te2-  Te168  1  0.25652277  0.74016110  0.92233473  1
  Te2-  Te169  1  0.58265620  0.08039973  0.24932956  1
  Te2-  Te170  1  0.58663448  0.08182025  0.57954482  1
  Te2-  Te171  1  0.58690057  0.08210390  0.91649341  1
  Te2-  Te172  1  0.58667133  0.41315080  0.25513089  1
  Te2-  Te173  1  0.58807861  0.41155555  0.59005018  1
  Te2-  Te174  1  0.58482506  0.41233870  0.92307341  1
  Te2-  Te175  1  0.58200223  0.74638261  0.24828123  1
  Te2-  Te176  1  0.58611811  0.75105478  0.58605901  1
  Te2-  Te177  1  0.58627243  0.74946827  0.91536849  1
  Te2-  Te178  1  0.91497032  0.08169308  0.25326558  1
  Te2-  Te179  1  0.91776712  0.08274510  0.58694962  1
  Te2-  Te180  1  0.91610474  0.07832816  0.92185523  1
  Te2-  Te181  1  0.92351401  0.40647022  0.24877773  1
  Te2-  Te182  1  0.92452797  0.41232037  0.58640172  1
  Te2-  Te183  1  0.92710109  0.41716934  0.91950050  1
  Te2-  Te184  1  0.91815234  0.74714280  0.25622373  1
  Te2-  Te185  1  0.92145075  0.75007589  0.58426661  1
  Te2-  Te186  1  0.91488876  0.74511084  0.91862877  1
  Te2-  Te187  1  0.08032929  0.25131686  0.25198177  1
  Te2-  Te188  1  0.08354429  0.25253618  0.58894260  1
  Te2-  Te189  1  0.08425456  0.25665295  0.92116194  1
  Te2-  Te190  1  0.07757119  0.59227646  0.25727593  1
  Te2-  Te191  1  0.07908003  0.58229757  0.58000809  1
  Te2-  Te192  1  0.07989127  0.58528433  0.91773786  1
  Te2-  Te193  1  0.07641250  0.92106832  0.25246614  1
  Te2-  Te194  1  0.08225676  0.91897873  0.58827197  1
  Te2-  Te195  1  0.07428430  0.91771704  0.92620136  1
  Te2-  Te196  1  0.41304124  0.25501182  0.25276872  1
  Te2-  Te197  1  0.41203450  0.24936116  0.58563815  1
  Te2-  Te198  1  0.41176806  0.25163722  0.91626742  1
  Te2-  Te199  1  0.41686344  0.58542188  0.25832170  1
  Te2-  Te200  1  0.41830633  0.58979236  0.59096130  1
  Te2-  Te201  1  0.41270091  0.58421414  0.92065269  1
  Te2-  Te202  1  0.41376508  0.91852216  0.25123696  1
  Te2-  Te203  1  0.41221961  0.91957406  0.58175059  1
  Te2-  Te204  1  0.41355469  0.92480337  0.92229366  1
  Te2-  Te205  1  0.74337763  0.25328380  0.24879249  1
  Te2-  Te206  1  0.74454651  0.25310063  0.58812738  1
  Te2-  Te207  1  0.74481092  0.25520184  0.92383602  1
  Te2-  Te208  1  0.75022083  0.58118721  0.25348304  1
  Te2-  Te209  1  0.75359512  0.58545405  0.58197500  1
  Te2-  Te210  1  0.74877436  0.58416501  0.91581670  1
  Te2-  Te211  1  0.74564686  0.91748168  0.25011513  1
  Te2-  Te212  1  0.74848005  0.91978856  0.58459397  1
  Te2-  Te213  1  0.74742357  0.91933925  0.91768932  1
  Te2-  Te214  1  0.07864580  0.07542995  0.08540839  1
  Te2-  Te215  1  0.07869026  0.08481366  0.41248198  1
  Te2-  Te216  1  0.07717801  0.08109345  0.74738581  1
  Te2-  Te217  1  0.08250705  0.41951099  0.08559407  1
  Te2-  Te218  1  0.08618636  0.40685309  0.40971329  1
  Te2-  Te219  1  0.08594540  0.41722144  0.74327046  1
  Te2-  Te220  1  0.07792053  0.74807787  0.07744754  1
  Te2-  Te221  1  0.07783332  0.74645217  0.41586217  1
  Te2-  Te222  1  0.07639129  0.74594333  0.74803584  1
  Te2-  Te223  1  0.41000381  0.08220689  0.08130217  1
  Te2-  Te224  1  0.41482780  0.08069552  0.41182622  1
  Te2-  Te225  1  0.41465998  0.08102328  0.73987589  1
  Te2-  Te226  1  0.41240534  0.41448955  0.08347690  1
  Te2-  Te227  1  0.41658363  0.41597295  0.41645099  1
  Te2-  Te228  1  0.41279766  0.41003494  0.75206720  1
  Te2-  Te229  1  0.40947906  0.74253244  0.07739311  1
  Te2-  Te230  1  0.41639783  0.74312000  0.41230331  1
  Te2-  Te231  1  0.41568572  0.74875700  0.74427877  1
  Te2-  Te232  1  0.74897452  0.08231991  0.07900306  1
  Te2-  Te233  1  0.74709684  0.08202699  0.41488275  1
  Te2-  Te234  1  0.74944831  0.08766318  0.74916272  1
  Te2-  Te235  1  0.74610606  0.41148981  0.08126552  1
  Te2-  Te236  1  0.74692058  0.41365678  0.41025114  1
  Te2-  Te237  1  0.74858004  0.40963357  0.74734539  1
  Te2-  Te238  1  0.74788177  0.74642910  0.08069835  1
  Te2-  Te239  1  0.74789583  0.74928515  0.41411103  1
  Te2-  Te240  1  0.74764650  0.74962496  0.74572081  1
