# generated using pymatgen
data_Ti27(Cu53Te54)2
_symmetry_space_group_name_H-M   'P 1'
_cell_length_a   17.87506780
_cell_length_b   17.87450998
_cell_length_c   17.87398617
_cell_angle_alpha   89.99088934
_cell_angle_beta   89.96244431
_cell_angle_gamma   90.02512629
_symmetry_Int_Tables_number   1
_chemical_formula_structural   Ti27(Cu53Te54)2
_chemical_formula_sum   'Ti27 Cu106 Te108'
_cell_volume   5710.88111327
_cell_formula_units_Z   1
loop_
 _symmetry_equiv_pos_site_id
 _symmetry_equiv_pos_as_xyz
  1  'x, y, z'
loop_
 _atom_type_symbol
 _atom_type_oxidation_number
  Ti4+  4.0
  Cu+  1.0
  Te2-  -2.0
loop_
 _atom_site_type_symbol
 _atom_site_label
 _atom_site_symmetry_multiplicity
 _atom_site_fract_x
 _atom_site_fract_y
 _atom_site_fract_z
 _atom_site_occupancy
  Ti4+  Ti0  1  0.16574066  0.16792141  0.16457537  1
  Ti4+  Ti1  1  0.16922525  0.16744177  0.49893056  1
  Ti4+  Ti2  1  0.16597502  0.16636411  0.83358662  1
  Ti4+  Ti3  1  0.16759105  0.49965894  0.17159994  1
  Ti4+  Ti4  1  0.16264685  0.49634231  0.49801331  1
  Ti4+  Ti5  1  0.16460453  0.50113182  0.83273549  1
  Ti4+  Ti6  1  0.16795833  0.83449361  0.16818571  1
  Ti4+  Ti7  1  0.16618732  0.83361716  0.50117309  1
  Ti4+  Ti8  1  0.16697697  0.82927082  0.83223909  1
  Ti4+  Ti9  1  0.49699059  0.16509611  0.16540035  1
  Ti4+  Ti10  1  0.50245737  0.16666449  0.50188806  1
  Ti4+  Ti11  1  0.49892710  0.16762788  0.83072683  1
  Ti4+  Ti12  1  0.49852819  0.49836411  0.16517703  1
  Ti4+  Ti13  1  0.50167125  0.50462122  0.50153821  1
  Ti4+  Ti14  1  0.49982068  0.50219447  0.83378342  1
  Ti4+  Ti15  1  0.50235551  0.83543713  0.16542131  1
  Ti4+  Ti16  1  0.50114801  0.83463165  0.50154413  1
  Ti4+  Ti17  1  0.50382299  0.83271343  0.83396852  1
  Ti4+  Ti18  1  0.83066228  0.16613622  0.16369636  1
  Ti4+  Ti19  1  0.83244390  0.16621066  0.49928754  1
  Ti4+  Ti20  1  0.83350260  0.16461168  0.83347921  1
  Ti4+  Ti21  1  0.83112956  0.50119401  0.16663453  1
  Ti4+  Ti22  1  0.83285057  0.50313728  0.50201161  1
  Ti4+  Ti23  1  0.83433527  0.49724381  0.83351093  1
  Ti4+  Ti24  1  0.83363453  0.83400570  0.16918889  1
  Ti4+  Ti25  1  0.83308472  0.83291511  0.50184405  1
  Ti4+  Ti26  1  0.83762090  0.83090939  0.83393144  1
  Cu+  Cu27  1  0.16707873  0.16356618  -0.00022121  1
  Cu+  Cu28  1  0.16756730  0.17273362  0.33104095  1
  Cu+  Cu29  1  0.16854832  0.16781814  0.66759364  1
  Cu+  Cu30  1  0.16656150  0.49968835  0.00421723  1
  Cu+  Cu31  1  0.16557379  0.49808464  0.33788996  1
  Cu+  Cu32  1  0.16492795  0.49924603  0.66304696  1
  Cu+  Cu33  1  0.16618919  0.83194681  0.00112024  1
  Cu+  Cu34  1  0.16822878  0.83463186  0.33338033  1
  Cu+  Cu35  1  0.16184380  0.83362484  0.66856378  1
  Cu+  Cu36  1  0.49654535  0.16684203  -0.00236017  1
  Cu+  Cu37  1  0.50130959  0.16714240  0.33682099  1
  Cu+  Cu38  1  0.49771216  0.16349279  0.66343598  1
  Cu+  Cu39  1  0.49865647  0.49892260  0.00076233  1
  Cu+  Cu40  1  0.50418375  0.50173210  0.32786588  1
  Cu+  Cu41  1  0.50309937  0.50444661  0.66809964  1
  Cu+  Cu42  1  0.50286354  0.83162370  -0.00187984  1
  Cu+  Cu43  1  0.50171244  0.83359682  0.33408700  1
  Cu+  Cu44  1  0.50221386  0.83788852  0.67020242  1
  Cu+  Cu45  1  0.83515029  0.16700880  -0.00346321  1
  Cu+  Cu46  1  0.83175213  0.16596397  0.32742508  1
  Cu+  Cu47  1  0.82977242  0.16372695  0.66421021  1
  Cu+  Cu48  1  0.83543756  0.50133743  0.00041919  1
  Cu+  Cu49  1  0.83045705  0.50153713  0.33501857  1
  Cu+  Cu50  1  0.83250454  0.49690733  0.66635539  1
  Cu+  Cu51  1  0.83508177  0.83236091  0.00240556  1
  Cu+  Cu52  1  0.83159309  0.83602130  0.33634193  1
  Cu+  Cu53  1  0.83868382  0.82820040  0.66944744  1
  Cu+  Cu54  1  0.16745431  0.00077218  0.16415224  1
  Cu+  Cu55  1  0.16854773  0.00041953  0.50028149  1
  Cu+  Cu56  1  0.16408784  -0.00252452  0.83154996  1
  Cu+  Cu57  1  0.17023814  0.33235375  0.17327925  1
  Cu+  Cu58  1  0.16454604  0.33018788  0.49113477  1
  Cu+  Cu59  1  0.16352870  0.33562867  0.83202060  1
  Cu+  Cu60  1  0.16672400  0.66985126  0.17089922  1
  Cu+  Cu61  1  0.16241500  0.66656414  0.50182311  1
  Cu+  Cu62  1  0.16978221  0.66098935  0.83744093  1
  Cu+  Cu63  1  0.50223544  0.00228357  0.16320154  1
  Cu+  Cu64  1  0.50040449  0.00144784  0.50451445  1
  Cu+  Cu65  1  0.49992426  -0.00293585  0.82960601  1
  Cu+  Cu66  1  0.49279242  0.33120222  0.16202443  1
  Cu+  Cu67  1  0.50298577  0.33257004  0.49885265  1
  Cu+  Cu68  1  0.50217455  0.33757387  0.83039289  1
  Cu+  Cu69  1  0.50150948  0.66635384  0.16564299  1
  Cu+  Cu70  1  0.50338623  0.66942801  0.50449746  1
  Cu+  Cu71  1  0.49749141  0.67177710  0.83814062  1
  Cu+  Cu72  1  0.82889421  -0.00176428  0.16384886  1
  Cu+  Cu73  1  0.82942865  -0.00025007  0.50118482  1
  Cu+  Cu74  1  0.83577975  -0.00016049  0.83368101  1
  Cu+  Cu75  1  0.82861789  0.33368167  0.16430416  1
  Cu+  Cu76  1  0.83663450  0.33809196  0.49873118  1
  Cu+  Cu77  1  0.83335540  0.32695327  0.83380858  1
  Cu+  Cu78  1  0.83663345  0.66996784  0.17002824  1
  Cu+  Cu79  1  0.82865487  0.66573353  0.50049558  1
  Cu+  Cu80  1  0.83949948  0.66517360  0.83409399  1
  Cu+  Cu81  1  -0.00305874  0.16480851  0.16413972  1
  Cu+  Cu82  1  0.00088992  0.16871594  0.49806636  1
  Cu+  Cu83  1  -0.00141862  0.16642735  0.83541769  1
  Cu+  Cu84  1  0.00132832  0.49949557  0.17017596  1
  Cu+  Cu85  1  -0.00318553  0.49881077  0.49220410  1
  Cu+  Cu86  1  -0.00101823  0.50026940  0.83763926  1
  Cu+  Cu87  1  0.00107628  0.83436620  0.17098735  1
  Cu+  Cu88  1  -0.00084563  0.83277617  0.50374235  1
  Cu+  Cu89  1  0.00163090  0.82801258  0.82625654  1
  Cu+  Cu90  1  0.33135230  0.17006432  0.16098927  1
  Cu+  Cu91  1  0.33818663  0.16592826  0.50365075  1
  Cu+  Cu92  1  0.33070435  0.16650531  0.83431466  1
  Cu+  Cu93  1  0.33483603  0.49869747  0.16798311  1
  Cu+  Cu94  1  0.33265310  0.49838725  0.50388752  1
  Cu+  Cu95  1  0.33155587  0.50428163  0.83350742  1
  Cu+  Cu96  1  0.33457158  0.83620027  0.16798895  1
  Cu+  Cu97  1  0.33221205  0.83040903  0.50068476  1
  Cu+  Cu98  1  0.33725789  0.83009495  0.83438164  1
  Cu+  Cu99  1  0.66337653  0.16304106  0.16489085  1
  Cu+  Cu100  1  0.66848174  0.16396086  0.50349610  1
  Cu+  Cu101  1  0.66797055  0.16932879  0.82818778  1
  Cu+  Cu102  1  0.66339197  0.49919460  0.16890045  1
  Cu+  Cu103  1  0.66672165  0.51048358  0.50454449  1
  Cu+  Cu104  1  0.66518815  0.49755277  0.82953185  1
  Cu+  Cu105  1  0.67025317  0.83551592  0.16359339  1
  Cu+  Cu106  1  0.66825302  0.83803551  0.49950263  1
  Cu+  Cu107  1  0.66882552  0.83160100  0.83503861  1
  Cu+  Cu108  1  0.40733681  0.74465918  0.93170855  1
  Cu+  Cu109  1  0.40568032  0.92324408  0.74339870  1
  Cu+  Cu110  1  0.59187315  0.07954931  0.06717818  1
  Cu+  Cu111  1  0.73850549  0.59321320  0.40583384  1
  Cu+  Cu112  1  0.92442803  0.59623307  0.93188296  1
  Cu+  Cu113  1  0.26501683  0.25604000  0.25947668  1
  Cu+  Cu114  1  0.26059443  0.58511532  0.93470681  1
  Cu+  Cu115  1  0.07072778  0.92976922  0.74030384  1
  Cu+  Cu116  1  0.25558214  0.59376580  0.58888157  1
  Cu+  Cu117  1  0.93029205  0.73196296  0.73616288  1
  Cu+  Cu118  1  0.74428082  0.25808693  0.73570185  1
  Cu+  Cu119  1  0.07391003  0.59870062  0.40752177  1
  Cu+  Cu120  1  0.40347703  0.07120645  0.59153581  1
  Cu+  Cu121  1  0.73933748  0.93059317  0.40593570  1
  Cu+  Cu122  1  0.40352506  0.26056441  0.06568547  1
  Cu+  Cu123  1  0.74376497  0.92428489  0.06792644  1
  Cu+  Cu124  1  0.59026651  0.40740939  0.73595241  1
  Cu+  Cu125  1  0.92957609  0.25752324  0.92839141  1
  Cu+  Cu126  1  0.59198875  0.59760060  0.25259793  1
  Cu+  Cu127  1  0.25667236  0.06942345  0.07068173  1
  Cu+  Cu128  1  0.74055212  0.06731890  0.59635797  1
  Cu+  Cu129  1  0.26704441  0.40747869  0.41266850  1
  Cu+  Cu130  1  0.91939273  0.40825380  0.40155486  1
  Cu+  Cu131  1  0.06833175  0.25276974  0.40143702  1
  Cu+  Cu132  1  0.59514117  0.60149212  0.60076626  1
  Te2-  Te133  1  0.24954426  0.25795927  0.07532600  1
  Te2-  Te134  1  0.26251017  0.25244711  0.41370942  1
  Te2-  Te135  1  0.25124738  0.25373486  0.74976214  1
  Te2-  Te136  1  0.25250956  0.58722628  0.08685257  1
  Te2-  Te137  1  0.25247697  0.58612979  0.41711857  1
  Te2-  Te138  1  0.25188308  0.58554014  0.74322663  1
  Te2-  Te139  1  0.25459398  0.91783434  0.07839893  1
  Te2-  Te140  1  0.25290716  0.91812104  0.41631835  1
  Te2-  Te141  1  0.25356436  0.91656940  0.74813025  1
  Te2-  Te142  1  0.58383837  0.25127540  0.07995825  1
  Te2-  Te143  1  0.58938849  0.25095264  0.41586388  1
  Te2-  Te144  1  0.58444789  0.25289741  0.74136029  1
  Te2-  Te145  1  0.58551387  0.58429773  0.07936734  1
  Te2-  Te146  1  0.58569893  0.59148566  0.41069883  1
  Te2-  Te147  1  0.58646794  0.59347749  0.75213671  1
  Te2-  Te148  1  0.58790027  0.92156996  0.07505587  1
  Te2-  Te149  1  0.58427620  0.92265903  0.41473409  1
  Te2-  Te150  1  0.59241629  0.91904841  0.74936205  1
  Te2-  Te151  1  0.91839611  0.25427139  0.08142518  1
  Te2-  Te152  1  0.91627091  0.25245292  0.40860346  1
  Te2-  Te153  1  0.91880581  0.24872713  0.74393604  1
  Te2-  Te154  1  0.92132584  0.58678354  0.08494563  1
  Te2-  Te155  1  0.91777307  0.59143011  0.41185804  1
  Te2-  Te156  1  0.92113355  0.58080008  0.74464230  1
  Te2-  Te157  1  0.92078815  0.91829729  0.08330137  1
  Te2-  Te158  1  0.91923191  0.91973678  0.41824401  1
  Te2-  Te159  1  0.91976021  0.92139442  0.74594743  1
  Te2-  Te160  1  0.25243366  0.08394898  0.25137419  1
  Te2-  Te161  1  0.25173951  0.08032589  0.58772302  1
  Te2-  Te162  1  0.25201033  0.07673951  0.91683268  1
  Te2-  Te163  1  0.25739916  0.41384184  0.25812757  1
  Te2-  Te164  1  0.24813973  0.40835624  0.58347036  1
  Te2-  Te165  1  0.25054288  0.41574799  0.91782260  1
  Te2-  Te166  1  0.25488456  0.74990291  0.25378644  1
  Te2-  Te167  1  0.25049365  0.74733928  0.58830515  1
  Te2-  Te168  1  0.25379515  0.74513054  0.92281761  1
  Te2-  Te169  1  0.58307064  0.08158115  0.25378281  1
  Te2-  Te170  1  0.58883068  0.07797719  0.58996897  1
  Te2-  Te171  1  0.58490764  0.08144101  0.91375397  1
  Te2-  Te172  1  0.58213969  0.40779012  0.24866203  1
  Te2-  Te173  1  0.58813790  0.41561113  0.58375729  1
  Te2-  Te174  1  0.58530022  0.41634314  0.91986580  1
  Te2-  Te175  1  0.58867061  0.75092750  0.25144518  1
  Te2-  Te176  1  0.58936089  0.75313297  0.58944770  1
  Te2-  Te177  1  0.59090781  0.74626538  0.92057807  1
  Te2-  Te178  1  0.91593000  0.07928953  0.24809937  1
  Te2-  Te179  1  0.92032601  0.08194450  0.58281702  1
  Te2-  Te180  1  0.92016865  0.07792262  0.91969607  1
  Te2-  Te181  1  0.91555728  0.41337987  0.25086441  1
  Te2-  Te182  1  0.92117160  0.41651050  0.58607252  1
  Te2-  Te183  1  0.91873144  0.41033494  0.91993247  1
  Te2-  Te184  1  0.91922574  0.75093312  0.25724196  1
  Te2-  Te185  1  0.92027102  0.74261094  0.58406435  1
  Te2-  Te186  1  0.92386298  0.74857176  0.92372902  1
  Te2-  Te187  1  0.07444158  0.25320184  0.24916311  1
  Te2-  Te188  1  0.08357024  0.25213734  0.58527642  1
  Te2-  Te189  1  0.08232775  0.25336531  0.92090636  1
  Te2-  Te190  1  0.08097487  0.58709428  0.25515381  1
  Te2-  Te191  1  0.07473098  0.58182591  0.58326625  1
  Te2-  Te192  1  0.07928773  0.58559780  0.92416348  1
  Te2-  Te193  1  0.08362444  0.92172202  0.25302251  1
  Te2-  Te194  1  0.07968603  0.92205443  0.58543873  1
  Te2-  Te195  1  0.07987490  0.91360059  0.91691423  1
  Te2-  Te196  1  0.41494378  0.25173372  0.25571786  1
  Te2-  Te197  1  0.41691866  0.25596713  0.58609576  1
  Te2-  Te198  1  0.41360257  0.25568838  0.91383722  1
  Te2-  Te199  1  0.41409538  0.58656199  0.25159033  1
  Te2-  Te200  1  0.41296270  0.58768300  0.58768660  1
  Te2-  Te201  1  0.41291860  0.58784484  0.92394723  1
  Te2-  Te202  1  0.41854606  0.92038204  0.25123359  1
  Te2-  Te203  1  0.41048670  0.91867233  0.58794919  1
  Te2-  Te204  1  0.41572590  0.91925770  0.92015520  1
  Te2-  Te205  1  0.74394045  0.25071793  0.24858147  1
  Te2-  Te206  1  0.74841706  0.25765947  0.58232396  1
  Te2-  Te207  1  0.74474283  0.25036410  0.91987253  1
  Te2-  Te208  1  0.74581921  0.59004348  0.25300868  1
  Te2-  Te209  1  0.74888095  0.59004142  0.59496509  1
  Te2-  Te210  1  0.74817928  0.58401874  0.91572663  1
  Te2-  Te211  1  0.74464966  0.92135010  0.25451097  1
  Te2-  Te212  1  0.74892316  0.91549192  0.59359576  1
  Te2-  Te213  1  0.74996483  0.91848211  0.91717279  1
  Te2-  Te214  1  0.07905989  0.08069725  0.08025012  1
  Te2-  Te215  1  0.08435410  0.08231129  0.41253515  1
  Te2-  Te216  1  0.07916460  0.08300757  0.74592588  1
  Te2-  Te217  1  0.08393601  0.41346132  0.08645964  1
  Te2-  Te218  1  0.07437853  0.40825856  0.40707711  1
  Te2-  Te219  1  0.07859293  0.41664438  0.74711118  1
  Te2-  Te220  1  0.08087086  0.74862339  0.08439970  1
  Te2-  Te221  1  0.07931593  0.75068581  0.41341436  1
  Te2-  Te222  1  0.08425779  0.73763945  0.74648796  1
  Te2-  Te223  1  0.41025440  0.07800514  0.07761360  1
  Te2-  Te224  1  0.41647296  0.08045595  0.41553867  1
  Te2-  Te225  1  0.41004235  0.07996292  0.74711092  1
  Te2-  Te226  1  0.40898651  0.41462396  0.07666450  1
  Te2-  Te227  1  0.41971814  0.41733690  0.41416126  1
  Te2-  Te228  1  0.41300580  0.41909646  0.74725780  1
  Te2-  Te229  1  0.41463118  0.74791011  0.08354751  1
  Te2-  Te230  1  0.41727593  0.74819707  0.41646352  1
  Te2-  Te231  1  0.41682129  0.74719600  0.74491729  1
  Te2-  Te232  1  0.74545178  0.07992831  0.07374342  1
  Te2-  Te233  1  0.74637645  0.08266291  0.41051864  1
  Te2-  Te234  1  0.74603102  0.07529419  0.74859858  1
  Te2-  Te235  1  0.74620803  0.41823451  0.08020845  1
  Te2-  Te236  1  0.74326798  0.41787261  0.41864467  1
  Te2-  Te237  1  0.74743310  0.41048422  0.74518247  1
  Te2-  Te238  1  0.75008286  0.74564462  0.08216646  1
  Te2-  Te239  1  0.74515464  0.74795205  0.41424148  1
  Te2-  Te240  1  0.74988263  0.74535753  0.75084675  1
