# generated using pymatgen
data_Ti27(Cu53Te54)2
_symmetry_space_group_name_H-M   'P 1'
_cell_length_a   17.92972873
_cell_length_b   17.91028717
_cell_length_c   17.93040769
_cell_angle_alpha   89.92725944
_cell_angle_beta   90.00857351
_cell_angle_gamma   90.00308576
_symmetry_Int_Tables_number   1
_chemical_formula_structural   Ti27(Cu53Te54)2
_chemical_formula_sum   'Ti27 Cu106 Te108'
_cell_volume   5757.92597124
_cell_formula_units_Z   1
loop_
 _symmetry_equiv_pos_site_id
 _symmetry_equiv_pos_as_xyz
  1  'x, y, z'
loop_
 _atom_type_symbol
 _atom_type_oxidation_number
  Ti4+  4.0
  Cu+  1.0
  Te2-  -2.0
loop_
 _atom_site_type_symbol
 _atom_site_label
 _atom_site_symmetry_multiplicity
 _atom_site_fract_x
 _atom_site_fract_y
 _atom_site_fract_z
 _atom_site_occupancy
  Ti4+  Ti0  1  0.16663797  0.16642274  0.16910742  1
  Ti4+  Ti1  1  0.16888569  0.16306346  0.50307554  1
  Ti4+  Ti2  1  0.16556694  0.16678070  0.83579589  1
  Ti4+  Ti3  1  0.16559910  0.50137262  0.16778379  1
  Ti4+  Ti4  1  0.16594803  0.49986688  0.50183644  1
  Ti4+  Ti5  1  0.16482946  0.50019190  0.83332266  1
  Ti4+  Ti6  1  0.16475812  0.83275063  0.16321447  1
  Ti4+  Ti7  1  0.16783623  0.83356712  0.49537846  1
  Ti4+  Ti8  1  0.16746377  0.83476350  0.83534094  1
  Ti4+  Ti9  1  0.49927598  0.16778226  0.16865237  1
  Ti4+  Ti10  1  0.50098925  0.16583971  0.49885090  1
  Ti4+  Ti11  1  0.50335904  0.16705818  0.83061294  1
  Ti4+  Ti12  1  0.50091829  0.50156585  0.16723253  1
  Ti4+  Ti13  1  0.49880150  0.50179321  0.50192382  1
  Ti4+  Ti14  1  0.49794426  0.49901522  0.83470024  1
  Ti4+  Ti15  1  0.50377369  0.83281328  0.16278244  1
  Ti4+  Ti16  1  0.49959940  0.83301324  0.50077010  1
  Ti4+  Ti17  1  0.49807278  0.83621048  0.83803988  1
  Ti4+  Ti18  1  0.83122961  0.16692583  0.17095712  1
  Ti4+  Ti19  1  0.83341120  0.16378531  0.49970252  1
  Ti4+  Ti20  1  0.83326356  0.16376427  0.83232094  1
  Ti4+  Ti21  1  0.83333286  0.49802105  0.16189226  1
  Ti4+  Ti22  1  0.83305312  0.50009651  0.49894448  1
  Ti4+  Ti23  1  0.83109608  0.49891919  0.82975288  1
  Ti4+  Ti24  1  0.83771977  0.83382744  0.16326343  1
  Ti4+  Ti25  1  0.83360915  0.83223300  0.50002510  1
  Ti4+  Ti26  1  0.83197877  0.83576143  0.83390408  1
  Cu+  Cu27  1  0.16370090  0.17027114  0.00259620  1
  Cu+  Cu28  1  0.16893139  0.16435039  0.33664968  1
  Cu+  Cu29  1  0.16849020  0.16449464  0.67095474  1
  Cu+  Cu30  1  0.16414075  0.50146920  -0.00082854  1
  Cu+  Cu31  1  0.16462292  0.49981505  0.33725423  1
  Cu+  Cu32  1  0.16555714  0.49956394  0.66757103  1
  Cu+  Cu33  1  0.16971511  0.83511365  0.00116603  1
  Cu+  Cu34  1  0.16568398  0.83184336  0.32699121  1
  Cu+  Cu35  1  0.16566351  0.83482056  0.66451756  1
  Cu+  Cu36  1  0.50169425  0.17001359  0.00152260  1
  Cu+  Cu37  1  0.49934068  0.16999798  0.33320230  1
  Cu+  Cu38  1  0.50288990  0.16224828  0.66359940  1
  Cu+  Cu39  1  0.49873043  0.49790957  0.00083396  1
  Cu+  Cu40  1  0.50002347  0.50249481  0.33424280  1
  Cu+  Cu41  1  0.49758948  0.50069445  0.66912726  1
  Cu+  Cu42  1  0.50495922  0.83670427  0.00152243  1
  Cu+  Cu43  1  0.50251311  0.83037709  0.33391784  1
  Cu+  Cu44  1  0.49728870  0.83310286  0.66958065  1
  Cu+  Cu45  1  0.83121039  0.16665798  0.00131650  1
  Cu+  Cu46  1  0.82782578  0.16442184  0.33540265  1
  Cu+  Cu47  1  0.83481745  0.16296143  0.66447502  1
  Cu+  Cu48  1  0.82965118  0.49604254  -0.00556493  1
  Cu+  Cu49  1  0.83199772  0.49941349  0.33155751  1
  Cu+  Cu50  1  0.83391998  0.50172102  0.66337528  1
  Cu+  Cu51  1  0.83673630  0.83611800  -0.00046409  1
  Cu+  Cu52  1  0.83595957  0.83347518  0.33461816  1
  Cu+  Cu53  1  0.83096829  0.83129808  0.66676475  1
  Cu+  Cu54  1  0.16422980  -0.00327530  0.16985998  1
  Cu+  Cu55  1  0.17459919  -0.00171388  0.49725333  1
  Cu+  Cu56  1  0.17212856  0.00324669  0.83440843  1
  Cu+  Cu57  1  0.16577928  0.33468088  0.16998310  1
  Cu+  Cu58  1  0.16581996  0.33185356  0.50370562  1
  Cu+  Cu59  1  0.16327315  0.33406389  0.83600356  1
  Cu+  Cu60  1  0.16179296  0.66959062  0.16437252  1
  Cu+  Cu61  1  0.16619040  0.66612574  0.49803512  1
  Cu+  Cu62  1  0.16402423  0.66675479  0.83440159  1
  Cu+  Cu63  1  0.49886050  0.00040986  0.16477977  1
  Cu+  Cu64  1  0.49815067  -0.00145340  0.49977926  1
  Cu+  Cu65  1  0.50243541  0.00559523  0.83794277  1
  Cu+  Cu66  1  0.49953126  0.33525050  0.16955316  1
  Cu+  Cu67  1  0.49968549  0.33310845  0.49993361  1
  Cu+  Cu68  1  0.50520598  0.33551252  0.82737531  1
  Cu+  Cu69  1  0.50582427  0.66676301  0.16394652  1
  Cu+  Cu70  1  0.49948259  0.66823901  0.50346243  1
  Cu+  Cu71  1  0.49226848  0.66334298  0.83425442  1
  Cu+  Cu72  1  0.83410921  0.00486943  0.16974324  1
  Cu+  Cu73  1  0.83182779  -0.00277376  0.50035827  1
  Cu+  Cu74  1  0.83763574  0.00078437  0.83218481  1
  Cu+  Cu75  1  0.83002069  0.33310577  0.16659117  1
  Cu+  Cu76  1  0.83278529  0.33221091  0.49778945  1
  Cu+  Cu77  1  0.82972826  0.33069770  0.83054597  1
  Cu+  Cu78  1  0.84218135  0.66045740  0.16349716  1
  Cu+  Cu79  1  0.83587653  0.66637706  0.50088369  1
  Cu+  Cu80  1  0.82767591  0.66596877  0.83101907  1
  Cu+  Cu81  1  0.00026233  0.16723385  0.17106933  1
  Cu+  Cu82  1  0.00136847  0.16546691  0.50062322  1
  Cu+  Cu83  1  -0.00061005  0.16455993  0.83193725  1
  Cu+  Cu84  1  -0.00100799  0.50164579  0.16541795  1
  Cu+  Cu85  1  -0.00070619  0.50199262  0.50293944  1
  Cu+  Cu86  1  -0.00146694  0.49940944  0.83121979  1
  Cu+  Cu87  1  -0.00113939  0.83035178  0.16246010  1
  Cu+  Cu88  1  0.00193544  0.83137999  0.49671015  1
  Cu+  Cu89  1  0.00031103  0.83613704  0.83549293  1
  Cu+  Cu90  1  0.33177442  0.16784422  0.16766382  1
  Cu+  Cu91  1  0.33608505  0.16148670  0.50127472  1
  Cu+  Cu92  1  0.33450177  0.16756089  0.83372793  1
  Cu+  Cu93  1  0.33440162  0.50347446  0.17013454  1
  Cu+  Cu94  1  0.33227860  0.49940387  0.50248740  1
  Cu+  Cu95  1  0.33125233  0.50158266  0.83324315  1
  Cu+  Cu96  1  0.33573648  0.83314291  0.15954927  1
  Cu+  Cu97  1  0.33368345  0.83435385  0.49781823  1
  Cu+  Cu98  1  0.33058403  0.83620483  0.84096949  1
  Cu+  Cu99  1  0.66449077  0.16559147  0.17365401  1
  Cu+  Cu100  1  0.66731333  0.16861887  0.49847621  1
  Cu+  Cu101  1  0.66801460  0.16400621  0.82674736  1
  Cu+  Cu102  1  0.66826706  0.49781522  0.16531523  1
  Cu+  Cu103  1  0.66698383  0.50041459  0.49922456  1
  Cu+  Cu104  1  0.66398491  0.49612023  0.83059810  1
  Cu+  Cu105  1  0.67054847  0.83172143  0.15740111  1
  Cu+  Cu106  1  0.66609518  0.83112457  0.50035306  1
  Cu+  Cu107  1  0.66369790  0.83662893  0.84022748  1
  Cu+  Cu108  1  0.25540753  0.93022459  0.92715812  1
  Cu+  Cu109  1  0.73325782  0.07397274  0.26572034  1
  Cu+  Cu110  1  0.59458616  0.41164278  0.73539219  1
  Cu+  Cu111  1  0.59301171  0.93348210  0.92625322  1
  Cu+  Cu112  1  0.07734115  0.92704583  0.07291866  1
  Cu+  Cu113  1  0.92069838  0.92969240  0.26444307  1
  Cu+  Cu114  1  0.26252795  0.73512906  0.07647836  1
  Cu+  Cu115  1  0.26420510  0.07854903  0.40409919  1
  Cu+  Cu116  1  0.40936295  0.92845439  0.07782076  1
  Cu+  Cu117  1  0.26052999  0.91677865  0.59280486  1
  Cu+  Cu118  1  0.26219387  0.07841720  0.74505412  1
  Cu+  Cu119  1  0.92747721  0.92830902  0.92076819  1
  Cu+  Cu120  1  0.92605631  0.58180634  0.26137418  1
  Cu+  Cu121  1  0.59878506  0.73328262  0.07250416  1
  Cu+  Cu122  1  0.92464827  0.73414297  0.06714884  1
  Cu+  Cu123  1  0.41206913  0.07199987  0.59157331  1
  Cu+  Cu124  1  0.92759006  0.59474033  0.59524199  1
  Cu+  Cu125  1  0.59618457  0.07118419  0.73475223  1
  Cu+  Cu126  1  0.92869953  0.07576352  0.73396049  1
  Cu+  Cu127  1  0.40225198  0.59041657  0.73953415  1
  Cu+  Cu128  1  0.40741724  0.08941277  0.92989560  1
  Cu+  Cu129  1  0.74632850  0.93105174  0.07692801  1
  Cu+  Cu130  1  0.92899979  0.09004498  0.07405279  1
  Cu+  Cu131  1  0.07262240  0.74003126  0.26000896  1
  Cu+  Cu132  1  0.26397380  0.91791850  0.25438549  1
  Te2-  Te133  1  0.24958030  0.25286316  0.08414066  1
  Te2-  Te134  1  0.25343147  0.25072640  0.41918872  1
  Te2-  Te135  1  0.25100971  0.25330294  0.75149543  1
  Te2-  Te136  1  0.25158187  0.58530345  0.08112596  1
  Te2-  Te137  1  0.25213132  0.58436074  0.41586908  1
  Te2-  Te138  1  0.24971996  0.58835302  0.74679319  1
  Te2-  Te139  1  0.25483992  0.92703869  0.07887228  1
  Te2-  Te140  1  0.25662994  0.91839076  0.40598699  1
  Te2-  Te141  1  0.25551988  0.91999854  0.74674327  1
  Te2-  Te142  1  0.58585334  0.25232723  0.08556275  1
  Te2-  Te143  1  0.58499989  0.25298633  0.41478711  1
  Te2-  Te144  1  0.58807628  0.25195193  0.74189843  1
  Te2-  Te145  1  0.58943494  0.58272055  0.07731393  1
  Te2-  Te146  1  0.58404421  0.58705371  0.41742316  1
  Te2-  Te147  1  0.58354748  0.58751411  0.74953506  1
  Te2-  Te148  1  0.59122752  0.92679258  0.07892522  1
  Te2-  Te149  1  0.58487335  0.91750602  0.41556888  1
  Te2-  Te150  1  0.58418732  0.91942600  0.74896722  1
  Te2-  Te151  1  0.91759493  0.25153057  0.08382237  1
  Te2-  Te152  1  0.91789578  0.24862528  0.41444463  1
  Te2-  Te153  1  0.91758152  0.24999329  0.74730959  1
  Te2-  Te154  1  0.92130355  0.58056420  0.07035485  1
  Te2-  Te155  1  0.92040242  0.58623856  0.41261879  1
  Te2-  Te156  1  0.91793394  0.58781334  0.74750010  1
  Te2-  Te157  1  0.92378349  0.92785522  0.07626219  1
  Te2-  Te158  1  0.92105065  0.92014489  0.41570644  1
  Te2-  Te159  1  0.92014318  0.91803680  0.74439696  1
  Te2-  Te160  1  0.25467648  0.07747162  0.25231039  1
  Te2-  Te161  1  0.25731424  0.07498536  0.59293793  1
  Te2-  Te162  1  0.25410321  0.08350581  0.92726575  1
  Te2-  Te163  1  0.25039435  0.41815864  0.25349713  1
  Te2-  Te164  1  0.25094808  0.41435027  0.58722888  1
  Te2-  Te165  1  0.25023955  0.41576050  0.91892621  1
  Te2-  Te166  1  0.25510192  0.74693688  0.24747746  1
  Te2-  Te167  1  0.25143354  0.74838884  0.58311207  1
  Te2-  Te168  1  0.25161391  0.74450039  0.92100323  1
  Te2-  Te169  1  0.58117490  0.07794931  0.25546434  1
  Te2-  Te170  1  0.59011333  0.07712972  0.58225276  1
  Te2-  Te171  1  0.59141541  0.08585388  0.92283114  1
  Te2-  Te172  1  0.58559163  0.41693356  0.25322493  1
  Te2-  Te173  1  0.58553629  0.41456228  0.58530092  1
  Te2-  Te174  1  0.58464032  0.41308935  0.92032938  1
  Te2-  Te175  1  0.58998549  0.74986956  0.24943104  1
  Te2-  Te176  1  0.58367650  0.74980029  0.58832235  1
  Te2-  Te177  1  0.58310222  0.74384601  0.91860696  1
  Te2-  Te178  1  0.92112108  0.08244264  0.25922784  1
  Te2-  Te179  1  0.92133776  0.07658084  0.58312294  1
  Te2-  Te180  1  0.92227110  0.08069496  0.92297405  1
  Te2-  Te181  1  0.91819170  0.41344714  0.25007195  1
  Te2-  Te182  1  0.91752961  0.41276771  0.58393162  1
  Te2-  Te183  1  0.91596306  0.41237351  0.91351488  1
  Te2-  Te184  1  0.92002144  0.74386206  0.25495983  1
  Te2-  Te185  1  0.92153735  0.74898849  0.58698719  1
  Te2-  Te186  1  0.91820994  0.74523404  0.91541870  1
  Te2-  Te187  1  0.08319220  0.25019544  0.25606300  1
  Te2-  Te188  1  0.08324031  0.24746464  0.58797183  1
  Te2-  Te189  1  0.07795839  0.25105138  0.91870288  1
  Te2-  Te190  1  0.07900984  0.58745102  0.25576013  1
  Te2-  Te191  1  0.08146665  0.58864063  0.58803380  1
  Te2-  Te192  1  0.07820150  0.58524577  0.91763053  1
  Te2-  Te193  1  0.07476854  0.91864955  0.25306912  1
  Te2-  Te194  1  0.08233011  0.91940546  0.58011183  1
  Te2-  Te195  1  0.08086749  0.92511752  0.92019881  1
  Te2-  Te196  1  0.41322916  0.25271268  0.25203002  1
  Te2-  Te197  1  0.41580847  0.25024092  0.58549946  1
  Te2-  Te198  1  0.41898635  0.25474823  0.91498664  1
  Te2-  Te199  1  0.41812436  0.59012508  0.25128394  1
  Te2-  Te200  1  0.41168827  0.58764353  0.58718707  1
  Te2-  Te201  1  0.41160754  0.58283241  0.92286620  1
  Te2-  Te202  1  0.41727503  0.91661736  0.25222423  1
  Te2-  Te203  1  0.41213921  0.91963036  0.58970399  1
  Te2-  Te204  1  0.41086306  0.92605781  0.92449919  1
  Te2-  Te205  1  0.74626225  0.25410864  0.25487543  1
  Te2-  Te206  1  0.75011753  0.24996300  0.58502486  1
  Te2-  Te207  1  0.74662475  0.24837736  0.91626364  1
  Te2-  Te208  1  0.74928426  0.58565729  0.24742246  1
  Te2-  Te209  1  0.74690030  0.58642735  0.58366857  1
  Te2-  Te210  1  0.74439679  0.58256134  0.91500294  1
  Te2-  Te211  1  0.74724252  0.91580816  0.25190588  1
  Te2-  Te212  1  0.74729734  0.91617665  0.58506938  1
  Te2-  Te213  1  0.74666087  0.92522744  0.92169988  1
  Te2-  Te214  1  0.08045733  0.08064895  0.08077536  1
  Te2-  Te215  1  0.08272854  0.07889317  0.41697254  1
  Te2-  Te216  1  0.08094530  0.07757934  0.74851042  1
  Te2-  Te217  1  0.08172047  0.41579869  0.08321747  1
  Te2-  Te218  1  0.07991315  0.41386101  0.41852666  1
  Te2-  Te219  1  0.08060786  0.41407727  0.74783744  1
  Te2-  Te220  1  0.07795727  0.74506905  0.07213674  1
  Te2-  Te221  1  0.08144603  0.74586286  0.41185438  1
  Te2-  Te222  1  0.08193983  0.75208248  0.74945231  1
  Te2-  Te223  1  0.41122605  0.08244175  0.08036053  1
  Te2-  Te224  1  0.41615992  0.07869154  0.40970083  1
  Te2-  Te225  1  0.41404220  0.07788349  0.74605567  1
  Te2-  Te226  1  0.41362062  0.41591760  0.08479552  1
  Te2-  Te227  1  0.41505336  0.41660761  0.41628498  1
  Te2-  Te228  1  0.41097076  0.41317165  0.74845016  1
  Te2-  Te229  1  0.41736306  0.74469596  0.07626502  1
  Te2-  Te230  1  0.41517484  0.74783680  0.41518902  1
  Te2-  Te231  1  0.41033553  0.75178204  0.75247801  1
  Te2-  Te232  1  0.74283263  0.08305192  0.08202378  1
  Te2-  Te233  1  0.74408901  0.07675347  0.41654542  1
  Te2-  Te234  1  0.74870282  0.07578930  0.74448565  1
  Te2-  Te235  1  0.74666412  0.41219628  0.07873987  1
  Te2-  Te236  1  0.74778272  0.41502878  0.41356492  1
  Te2-  Te237  1  0.74765534  0.41248119  0.74213858  1
  Te2-  Te238  1  0.75381647  0.74247903  0.07704945  1
  Te2-  Te239  1  0.74951580  0.74733987  0.41434604  1
  Te2-  Te240  1  0.74358128  0.75248098  0.75141946  1
