# generated using pymatgen
data_Ti27(Cu53Te54)2
_symmetry_space_group_name_H-M   'P 1'
_cell_length_a   17.85917461
_cell_length_b   17.85858235
_cell_length_c   17.85930569
_cell_angle_alpha   90.01503784
_cell_angle_beta   89.98810360
_cell_angle_gamma   89.99845974
_symmetry_Int_Tables_number   1
_chemical_formula_structural   Ti27(Cu53Te54)2
_chemical_formula_sum   'Ti27 Cu106 Te108'
_cell_volume   5696.03843025
_cell_formula_units_Z   1
loop_
 _symmetry_equiv_pos_site_id
 _symmetry_equiv_pos_as_xyz
  1  'x, y, z'
loop_
 _atom_type_symbol
 _atom_type_oxidation_number
  Ti4+  4.0
  Cu+  1.0
  Te2-  -2.0
loop_
 _atom_site_type_symbol
 _atom_site_label
 _atom_site_symmetry_multiplicity
 _atom_site_fract_x
 _atom_site_fract_y
 _atom_site_fract_z
 _atom_site_occupancy
  Ti4+  Ti0  1  0.16538110  0.16708681  0.16785557  1
  Ti4+  Ti1  1  0.16721843  0.16903714  0.50012001  1
  Ti4+  Ti2  1  0.16669345  0.16512289  0.83415042  1
  Ti4+  Ti3  1  0.16835796  0.50039654  0.16890907  1
  Ti4+  Ti4  1  0.16745682  0.50398928  0.49959305  1
  Ti4+  Ti5  1  0.16749357  0.50127858  0.83343797  1
  Ti4+  Ti6  1  0.16436552  0.83233529  0.16731321  1
  Ti4+  Ti7  1  0.16433399  0.83440622  0.49949306  1
  Ti4+  Ti8  1  0.16770538  0.82890603  0.83350352  1
  Ti4+  Ti9  1  0.50074646  0.16590851  0.16427535  1
  Ti4+  Ti10  1  0.50077048  0.16741292  0.49907278  1
  Ti4+  Ti11  1  0.50097485  0.16569217  0.83391610  1
  Ti4+  Ti12  1  0.50081093  0.50247751  0.16745768  1
  Ti4+  Ti13  1  0.50184105  0.50042193  0.50192696  1
  Ti4+  Ti14  1  0.50081773  0.50106136  0.83352003  1
  Ti4+  Ti15  1  0.50052507  0.83258187  0.16505667  1
  Ti4+  Ti16  1  0.50020837  0.83304313  0.50124898  1
  Ti4+  Ti17  1  0.49833123  0.83562882  0.83126998  1
  Ti4+  Ti18  1  0.83074009  0.16683100  0.16509512  1
  Ti4+  Ti19  1  0.83153570  0.16749300  0.49786759  1
  Ti4+  Ti20  1  0.83472534  0.16719412  0.83262156  1
  Ti4+  Ti21  1  0.83231131  0.49623655  0.16612074  1
  Ti4+  Ti22  1  0.83337911  0.49725208  0.50367979  1
  Ti4+  Ti23  1  0.83389099  0.49946572  0.83388671  1
  Ti4+  Ti24  1  0.83192978  0.83326655  0.16649970  1
  Ti4+  Ti25  1  0.83215902  0.83351946  0.49873290  1
  Ti4+  Ti26  1  0.83461973  0.83243645  0.83173791  1
  Cu+  Cu27  1  0.16410035  0.16412755  0.00261323  1
  Cu+  Cu28  1  0.16969543  0.16994741  0.33412659  1
  Cu+  Cu29  1  0.16703630  0.16550895  0.66846583  1
  Cu+  Cu30  1  0.16860484  0.49734548  -0.00034607  1
  Cu+  Cu31  1  0.16959252  0.50961347  0.33335536  1
  Cu+  Cu32  1  0.16406905  0.50269723  0.66781934  1
  Cu+  Cu33  1  0.16836740  0.82399707  0.00182345  1
  Cu+  Cu34  1  0.16454169  0.83517038  0.33391552  1
  Cu+  Cu35  1  0.16530177  0.83621946  0.66641952  1
  Cu+  Cu36  1  0.50146855  0.15846791  -0.00105939  1
  Cu+  Cu37  1  0.50067881  0.16693634  0.33260134  1
  Cu+  Cu38  1  0.50107631  0.16777007  0.66655744  1
  Cu+  Cu39  1  0.50276643  0.49805882  0.00239352  1
  Cu+  Cu40  1  0.50050628  0.50056820  0.33569780  1
  Cu+  Cu41  1  0.49799951  0.50321105  0.66876290  1
  Cu+  Cu42  1  0.49692681  0.83282200  -0.00319835  1
  Cu+  Cu43  1  0.50048130  0.83048367  0.33261720  1
  Cu+  Cu44  1  0.50417304  0.84024537  0.66470927  1
  Cu+  Cu45  1  0.83465972  0.17179450  -0.00425323  1
  Cu+  Cu46  1  0.82699292  0.16985350  0.33209990  1
  Cu+  Cu47  1  0.83645313  0.16737164  0.66610107  1
  Cu+  Cu48  1  0.83111252  0.50121041  0.00218179  1
  Cu+  Cu49  1  0.83592817  0.49701442  0.33339815  1
  Cu+  Cu50  1  0.82852863  0.49499059  0.66710101  1
  Cu+  Cu51  1  0.83568063  0.83420597  -0.00089781  1
  Cu+  Cu52  1  0.83294953  0.83477933  0.33279671  1
  Cu+  Cu53  1  0.83225249  0.83094355  0.66493939  1
  Cu+  Cu54  1  0.16336942  0.00008538  0.16773179  1
  Cu+  Cu55  1  0.16619856  0.00291897  0.49961963  1
  Cu+  Cu56  1  0.16603176  -0.00494006  0.83064408  1
  Cu+  Cu57  1  0.17052697  0.33193239  0.17034306  1
  Cu+  Cu58  1  0.16608657  0.33812549  0.50028470  1
  Cu+  Cu59  1  0.17045247  0.33303236  0.83352149  1
  Cu+  Cu60  1  0.17158777  0.66684821  0.16784814  1
  Cu+  Cu61  1  0.16327021  0.66851833  0.49503829  1
  Cu+  Cu62  1  0.16046778  0.66543158  0.83564180  1
  Cu+  Cu63  1  0.50234763  -0.00211162  0.16146214  1
  Cu+  Cu64  1  0.50116884  0.00041988  0.50289421  1
  Cu+  Cu65  1  0.49600718  0.00348331  0.83565073  1
  Cu+  Cu66  1  0.50198180  0.33748885  0.16491219  1
  Cu+  Cu67  1  0.50083336  0.33379248  0.50226936  1
  Cu+  Cu68  1  0.50122480  0.33191398  0.83553254  1
  Cu+  Cu69  1  0.49969958  0.66659160  0.16786322  1
  Cu+  Cu70  1  0.50421858  0.66776719  0.49597499  1
  Cu+  Cu71  1  0.49560743  0.66650773  0.82914335  1
  Cu+  Cu72  1  0.82937231  0.00066949  0.16854171  1
  Cu+  Cu73  1  0.83355344  -0.00043664  0.49668067  1
  Cu+  Cu74  1  0.83386414  -0.00000610  0.83141327  1
  Cu+  Cu75  1  0.83229599  0.32811187  0.16726989  1
  Cu+  Cu76  1  0.83051307  0.33125788  0.50405675  1
  Cu+  Cu77  1  0.84009270  0.33323738  0.83807120  1
  Cu+  Cu78  1  0.83100015  0.66579867  0.16529296  1
  Cu+  Cu79  1  0.83100925  0.66845655  0.50353166  1
  Cu+  Cu80  1  0.83349646  0.66454138  0.82963701  1
  Cu+  Cu81  1  -0.00112182  0.16756303  0.16902803  1
  Cu+  Cu82  1  -0.00066346  0.16950987  0.50009842  1
  Cu+  Cu83  1  0.00026588  0.16765484  0.83656364  1
  Cu+  Cu84  1  0.00095838  0.49446907  0.16657457  1
  Cu+  Cu85  1  0.00321142  0.49942366  0.50018025  1
  Cu+  Cu86  1  0.00089162  0.50216688  0.83081846  1
  Cu+  Cu87  1  -0.00304249  0.83377063  0.16827447  1
  Cu+  Cu88  1  -0.00175882  0.83516622  0.50012478  1
  Cu+  Cu89  1  0.00171295  0.83167299  0.83227630  1
  Cu+  Cu90  1  0.33157601  0.17012538  0.16907583  1
  Cu+  Cu91  1  0.33521658  0.16546878  0.49925840  1
  Cu+  Cu92  1  0.33324714  0.16383484  0.83676077  1
  Cu+  Cu93  1  0.33408634  0.50518839  0.17306805  1
  Cu+  Cu94  1  0.33474310  0.50043865  0.50103580  1
  Cu+  Cu95  1  0.33450719  0.50326152  0.83017894  1
  Cu+  Cu96  1  0.33217345  0.83286544  0.16353003  1
  Cu+  Cu97  1  0.33136544  0.83342742  0.50038210  1
  Cu+  Cu98  1  0.33603922  0.82840516  0.83687570  1
  Cu+  Cu99  1  0.66627966  0.15987820  0.16072000  1
  Cu+  Cu100  1  0.66645376  0.16965118  0.49335701  1
  Cu+  Cu101  1  0.66812039  0.16629816  0.82969410  1
  Cu+  Cu102  1  0.66670050  0.49972908  0.16153010  1
  Cu+  Cu103  1  0.66678315  0.49509303  0.50542007  1
  Cu+  Cu104  1  0.66901383  0.50101209  0.83347757  1
  Cu+  Cu105  1  0.66657016  0.83357443  0.16511615  1
  Cu+  Cu106  1  0.66414800  0.83075148  0.50174488  1
  Cu+  Cu107  1  0.66468066  0.83598568  0.83158342  1
  Cu+  Cu108  1  0.07983280  0.40807986  0.59615029  1
  Cu+  Cu109  1  0.73684896  0.26421074  0.40415363  1
  Cu+  Cu110  1  0.40324904  0.59584327  0.73547942  1
  Cu+  Cu111  1  0.39984551  0.07444965  0.93008605  1
  Cu+  Cu112  1  0.26444670  0.60059293  0.26381481  1
  Cu+  Cu113  1  0.73734690  0.25390979  0.06751903  1
  Cu+  Cu114  1  0.06883906  0.59556862  0.40250172  1
  Cu+  Cu115  1  0.92733785  0.25656820  0.26139103  1
  Cu+  Cu116  1  0.73456467  0.40027554  0.59750075  1
  Cu+  Cu117  1  0.93370317  0.26346716  0.92834113  1
  Cu+  Cu118  1  0.73847690  0.59768910  0.07649186  1
  Cu+  Cu119  1  0.59534256  0.06615158  0.06881239  1
  Cu+  Cu120  1  0.92770698  0.25540928  0.59490177  1
  Cu+  Cu121  1  0.06844142  0.74105475  0.93105153  1
  Cu+  Cu122  1  0.59633237  0.93259405  0.59249906  1
  Cu+  Cu123  1  0.73917341  0.59286353  0.74021574  1
  Cu+  Cu124  1  0.26434139  0.26020260  0.26434234  1
  Cu+  Cu125  1  0.59438698  0.74026706  0.40228850  1
  Cu+  Cu126  1  0.73951594  0.07134521  0.26144736  1
  Cu+  Cu127  1  0.59360152  0.40738793  0.07227834  1
  Cu+  Cu128  1  0.73693053  0.74315483  0.59377931  1
  Cu+  Cu129  1  0.26127086  0.73724226  0.07478052  1
  Cu+  Cu130  1  0.07322337  0.92724057  0.73847602  1
  Cu+  Cu131  1  0.41401466  0.73437017  0.92761544  1
  Cu+  Cu132  1  0.06965122  0.59433397  0.73803030  1
  Te2-  Te133  1  0.25121402  0.25159840  0.07943942  1
  Te2-  Te134  1  0.25551234  0.25687366  0.41693108  1
  Te2-  Te135  1  0.25376668  0.24922763  0.74997345  1
  Te2-  Te136  1  0.25485590  0.58382115  0.07877572  1
  Te2-  Te137  1  0.25879557  0.59095878  0.41662073  1
  Te2-  Te138  1  0.25160587  0.59026999  0.74607058  1
  Te2-  Te139  1  0.24834301  0.91883925  0.08068213  1
  Te2-  Te140  1  0.25052165  0.91956778  0.41514394  1
  Te2-  Te141  1  0.25595710  0.91439036  0.74955220  1
  Te2-  Te142  1  0.58490843  0.25339524  0.07570788  1
  Te2-  Te143  1  0.58385079  0.25683997  0.41099444  1
  Te2-  Te144  1  0.58559794  0.25268804  0.74801598  1
  Te2-  Te145  1  0.58550640  0.59097786  0.07851685  1
  Te2-  Te146  1  0.59122010  0.58288073  0.41466828  1
  Te2-  Te147  1  0.58752197  0.58777740  0.74726129  1
  Te2-  Te148  1  0.58719608  0.91511871  0.07515632  1
  Te2-  Te149  1  0.58549204  0.91893262  0.41392977  1
  Te2-  Te150  1  0.58618627  0.92569042  0.74913185  1
  Te2-  Te151  1  0.92227225  0.25345435  0.07996412  1
  Te2-  Te152  1  0.91874306  0.25545624  0.41272477  1
  Te2-  Te153  1  0.92301020  0.25437091  0.74719208  1
  Te2-  Te154  1  0.92007114  0.58251513  0.08349550  1
  Te2-  Te155  1  0.91608110  0.58550931  0.41660361  1
  Te2-  Te156  1  0.91812625  0.58419489  0.74255855  1
  Te2-  Te157  1  0.91704186  0.92062812  0.08315638  1
  Te2-  Te158  1  0.91863788  0.91899718  0.41312364  1
  Te2-  Te159  1  0.91924891  0.91853340  0.74501528  1
  Te2-  Te160  1  0.25164061  0.08006125  0.25247450  1
  Te2-  Te161  1  0.25182829  0.08284403  0.58475945  1
  Te2-  Te162  1  0.24801365  0.07619798  0.92125814  1
  Te2-  Te163  1  0.25447409  0.41539352  0.25718352  1
  Te2-  Te164  1  0.25257558  0.41785742  0.58735121  1
  Te2-  Te165  1  0.25529308  0.41625983  0.91650672  1
  Te2-  Te166  1  0.25446148  0.75099908  0.25677576  1
  Te2-  Te167  1  0.24840071  0.74813968  0.58454494  1
  Te2-  Te168  1  0.25676352  0.73893346  0.91967531  1
  Te2-  Te169  1  0.58449424  0.07851929  0.25235501  1
  Te2-  Te170  1  0.58995165  0.08454901  0.58585423  1
  Te2-  Te171  1  0.59220094  0.07763253  0.91650933  1
  Te2-  Te172  1  0.58696767  0.41706451  0.25303413  1
  Te2-  Te173  1  0.58313471  0.41261354  0.59215308  1
  Te2-  Te174  1  0.58835070  0.41357096  0.91830812  1
  Te2-  Te175  1  0.58812725  0.74609735  0.25014244  1
  Te2-  Te176  1  0.58449258  0.74361114  0.59121527  1
  Te2-  Te177  1  0.58379930  0.74794652  0.91493407  1
  Te2-  Te178  1  0.91625304  0.08231714  0.25394191  1
  Te2-  Te179  1  0.91816636  0.08054624  0.58243345  1
  Te2-  Te180  1  0.91814884  0.07976718  0.91922776  1
  Te2-  Te181  1  0.91985036  0.41033881  0.25316559  1
  Te2-  Te182  1  0.92307171  0.41192687  0.58916984  1
  Te2-  Te183  1  0.92313925  0.41833297  0.92270575  1
  Te2-  Te184  1  0.91551584  0.74630763  0.25171430  1
  Te2-  Te185  1  0.92017524  0.74834915  0.58481667  1
  Te2-  Te186  1  0.91797011  0.74454041  0.91839144  1
  Te2-  Te187  1  0.07976907  0.25475876  0.25551457  1
  Te2-  Te188  1  0.08101948  0.25485778  0.58945936  1
  Te2-  Te189  1  0.08417332  0.25443253  0.92101830  1
  Te2-  Te190  1  0.07694126  0.58824192  0.24962990  1
  Te2-  Te191  1  0.07862570  0.59081395  0.58582335  1
  Te2-  Te192  1  0.07885714  0.58347067  0.92412313  1
  Te2-  Te193  1  0.07905510  0.91849674  0.25246096  1
  Te2-  Te194  1  0.07854918  0.92274324  0.58471442  1
  Te2-  Te195  1  0.08359196  0.91409414  0.92210631  1
  Te2-  Te196  1  0.41812763  0.25501392  0.25152861  1
  Te2-  Te197  1  0.41507072  0.25137729  0.58525376  1
  Te2-  Te198  1  0.41601371  0.25059209  0.92197626  1
  Te2-  Te199  1  0.41698088  0.58973873  0.25768932  1
  Te2-  Te200  1  0.41464678  0.58976970  0.58373399  1
  Te2-  Te201  1  0.41418759  0.58343630  0.92330432  1
  Te2-  Te202  1  0.41600006  0.91756633  0.24966523  1
  Te2-  Te203  1  0.41195538  0.91960324  0.58510728  1
  Te2-  Te204  1  0.41104443  0.92119305  0.92015692  1
  Te2-  Te205  1  0.73815677  0.25358131  0.24990816  1
  Te2-  Te206  1  0.74283941  0.24945667  0.58945276  1
  Te2-  Te207  1  0.74400647  0.25523481  0.91530400  1
  Te2-  Te208  1  0.74798047  0.58162472  0.25271365  1
  Te2-  Te209  1  0.74447546  0.58676635  0.58769905  1
  Te2-  Te210  1  0.74768346  0.58751812  0.92036917  1
  Te2-  Te211  1  0.74378422  0.91804119  0.25389955  1
  Te2-  Te212  1  0.74791602  0.92218552  0.58624336  1
  Te2-  Te213  1  0.74960679  0.91762475  0.91646203  1
  Te2-  Te214  1  0.07747974  0.08105481  0.08363445  1
  Te2-  Te215  1  0.08135153  0.08538508  0.41426667  1
  Te2-  Te216  1  0.07858193  0.08084306  0.74811699  1
  Te2-  Te217  1  0.08588251  0.41251461  0.08313441  1
  Te2-  Te218  1  0.08390576  0.41805427  0.40965666  1
  Te2-  Te219  1  0.08106917  0.41116319  0.74961217  1
  Te2-  Te220  1  0.07593333  0.74314560  0.08456421  1
  Te2-  Te221  1  0.07618334  0.74990546  0.41143061  1
  Te2-  Te222  1  0.07954395  0.74564188  0.74325473  1
  Te2-  Te223  1  0.40913712  0.07979906  0.08358142  1
  Te2-  Te224  1  0.41696717  0.08016451  0.41424246  1
  Te2-  Te225  1  0.41413868  0.08263701  0.74569144  1
  Te2-  Te226  1  0.41125756  0.41813944  0.08388159  1
  Te2-  Te227  1  0.41625869  0.41530065  0.41705588  1
  Te2-  Te228  1  0.41607350  0.41338844  0.74970994  1
  Te2-  Te229  1  0.41380920  0.74364595  0.07983646  1
  Te2-  Te230  1  0.41298605  0.74804066  0.41523666  1
  Te2-  Te231  1  0.41378222  0.75111323  0.74010566  1
  Te2-  Te232  1  0.75024982  0.07778191  0.07237628  1
  Te2-  Te233  1  0.74481799  0.07730284  0.41319205  1
  Te2-  Te234  1  0.75045939  0.08173094  0.74530783  1
  Te2-  Te235  1  0.74709163  0.40769177  0.07668274  1
  Te2-  Te236  1  0.74732571  0.41468752  0.41361623  1
  Te2-  Te237  1  0.74769043  0.40769874  0.75195539  1
  Te2-  Te238  1  0.74626829  0.74909021  0.07719749  1
  Te2-  Te239  1  0.74728988  0.74574709  0.41105465  1
  Te2-  Te240  1  0.74356591  0.74717505  0.74724183  1
