# generated using pymatgen
data_Ti27(Cu53Te54)2
_symmetry_space_group_name_H-M   'P 1'
_cell_length_a   17.89382824
_cell_length_b   17.89138798
_cell_length_c   17.88753314
_cell_angle_alpha   89.98333822
_cell_angle_beta   89.97029785
_cell_angle_gamma   89.96628844
_symmetry_Int_Tables_number   1
_chemical_formula_structural   Ti27(Cu53Te54)2
_chemical_formula_sum   'Ti27 Cu106 Te108'
_cell_volume   5726.60987068
_cell_formula_units_Z   1
loop_
 _symmetry_equiv_pos_site_id
 _symmetry_equiv_pos_as_xyz
  1  'x, y, z'
loop_
 _atom_type_symbol
 _atom_type_oxidation_number
  Ti4+  4.0
  Cu+  1.0
  Te2-  -2.0
loop_
 _atom_site_type_symbol
 _atom_site_label
 _atom_site_symmetry_multiplicity
 _atom_site_fract_x
 _atom_site_fract_y
 _atom_site_fract_z
 _atom_site_occupancy
  Ti4+  Ti0  1  0.16589498  0.16621733  0.16624389  1
  Ti4+  Ti1  1  0.17019779  0.16895981  0.50058760  1
  Ti4+  Ti2  1  0.16766396  0.16442153  0.82844913  1
  Ti4+  Ti3  1  0.16943574  0.49977487  0.16844120  1
  Ti4+  Ti4  1  0.16368381  0.50378397  0.50155575  1
  Ti4+  Ti5  1  0.16531114  0.49575791  0.83388693  1
  Ti4+  Ti6  1  0.16541447  0.83222598  0.16538178  1
  Ti4+  Ti7  1  0.16583896  0.83355762  0.49754385  1
  Ti4+  Ti8  1  0.16747688  0.83060232  0.83150677  1
  Ti4+  Ti9  1  0.49601048  0.16421407  0.16300170  1
  Ti4+  Ti10  1  0.50274667  0.16815233  0.49951987  1
  Ti4+  Ti11  1  0.49865462  0.16898044  0.83550953  1
  Ti4+  Ti12  1  0.50368321  0.49870914  0.16715754  1
  Ti4+  Ti13  1  0.49904489  0.50464114  0.49953839  1
  Ti4+  Ti14  1  0.49747625  0.49856771  0.83360279  1
  Ti4+  Ti15  1  0.50361868  0.83477792  0.16536034  1
  Ti4+  Ti16  1  0.49974430  0.83625355  0.50133759  1
  Ti4+  Ti17  1  0.50048601  0.83068687  0.83824117  1
  Ti4+  Ti18  1  0.83155843  0.16655605  0.16748445  1
  Ti4+  Ti19  1  0.83882301  0.16632532  0.49877162  1
  Ti4+  Ti20  1  0.83247061  0.16792579  0.83171979  1
  Ti4+  Ti21  1  0.83278780  0.49663455  0.16777335  1
  Ti4+  Ti22  1  0.83339189  0.50008417  0.49866248  1
  Ti4+  Ti23  1  0.83247534  0.50011131  0.83426939  1
  Ti4+  Ti24  1  0.83426853  0.83117799  0.16839648  1
  Ti4+  Ti25  1  0.83270895  0.83363868  0.50191429  1
  Ti4+  Ti26  1  0.83292272  0.83540964  0.83486169  1
  Cu+  Cu27  1  0.16708930  0.16508824  -0.00146317  1
  Cu+  Cu28  1  0.17010009  0.16958094  0.33323415  1
  Cu+  Cu29  1  0.16512409  0.16695713  0.66703779  1
  Cu+  Cu30  1  0.16971171  0.50050263  0.00216250  1
  Cu+  Cu31  1  0.16796745  0.50374865  0.33686321  1
  Cu+  Cu32  1  0.16094563  0.49517463  0.66535286  1
  Cu+  Cu33  1  0.16532253  0.83031150  -0.00121687  1
  Cu+  Cu34  1  0.16693860  0.83433902  0.32971856  1
  Cu+  Cu35  1  0.16703798  0.83218095  0.66354396  1
  Cu+  Cu36  1  0.49287551  0.15830928  -0.00316381  1
  Cu+  Cu37  1  0.49937846  0.16722799  0.32956438  1
  Cu+  Cu38  1  0.50158143  0.17129477  0.66861227  1
  Cu+  Cu39  1  0.50299683  0.49476933  -0.00022432  1
  Cu+  Cu40  1  0.50590629  0.50311385  0.33445588  1
  Cu+  Cu41  1  0.49526277  0.50225382  0.66438295  1
  Cu+  Cu42  1  0.50299156  0.83970264  0.00200915  1
  Cu+  Cu43  1  0.50297190  0.83441055  0.33449701  1
  Cu+  Cu44  1  0.49816104  0.83279595  0.67071541  1
  Cu+  Cu45  1  0.83149097  0.16672854  -0.00257750  1
  Cu+  Cu46  1  0.83555208  0.17187960  0.33297503  1
  Cu+  Cu47  1  0.83407101  0.16333235  0.66228442  1
  Cu+  Cu48  1  0.83222496  0.49746190  0.00216655  1
  Cu+  Cu49  1  0.83634104  0.49579965  0.33447372  1
  Cu+  Cu50  1  0.83251936  0.50321518  0.66875793  1
  Cu+  Cu51  1  0.82971093  0.83264568  0.00209233  1
  Cu+  Cu52  1  0.83547582  0.83125242  0.33594911  1
  Cu+  Cu53  1  0.83226842  0.83579749  0.66990626  1
  Cu+  Cu54  1  0.16470516  0.00034418  0.16509981  1
  Cu+  Cu55  1  0.17246938  -0.00045504  0.50171944  1
  Cu+  Cu56  1  0.16698334  -0.00368535  0.82839217  1
  Cu+  Cu57  1  0.16978302  0.33386346  0.17102318  1
  Cu+  Cu58  1  0.16720155  0.33920147  0.50166041  1
  Cu+  Cu59  1  0.16776599  0.32534346  0.82899184  1
  Cu+  Cu60  1  0.16767022  0.66850944  0.16546195  1
  Cu+  Cu61  1  0.15449244  0.67000338  0.50119233  1
  Cu+  Cu62  1  0.16731581  0.66181066  0.83245619  1
  Cu+  Cu63  1  0.49383448  -0.00238146  0.15966221  1
  Cu+  Cu64  1  0.50071527  0.00160782  0.50145647  1
  Cu+  Cu65  1  0.50056483  0.00003687  0.83966071  1
  Cu+  Cu66  1  0.50462665  0.33046155  0.16195341  1
  Cu+  Cu67  1  0.50188287  0.33952990  0.49733399  1
  Cu+  Cu68  1  0.48891698  0.33602838  0.83449932  1
  Cu+  Cu69  1  0.50666427  0.66796985  0.16891915  1
  Cu+  Cu70  1  0.49746565  0.67245613  0.50100713  1
  Cu+  Cu71  1  0.50203141  0.66211062  0.83844837  1
  Cu+  Cu72  1  0.83197843  -0.00040307  0.16738698  1
  Cu+  Cu73  1  0.83472878  -0.00002972  0.50363342  1
  Cu+  Cu74  1  0.83443333  0.00424718  0.82969589  1
  Cu+  Cu75  1  0.83233712  0.32971928  0.17045869  1
  Cu+  Cu76  1  0.83913726  0.33323431  0.49260683  1
  Cu+  Cu77  1  0.83333532  0.33511469  0.83166353  1
  Cu+  Cu78  1  0.83549499  0.66268605  0.16920417  1
  Cu+  Cu79  1  0.83315163  0.66759621  0.50142713  1
  Cu+  Cu80  1  0.83068948  0.66932314  0.83584231  1
  Cu+  Cu81  1  -0.00117753  0.16620222  0.16564710  1
  Cu+  Cu82  1  0.00512455  0.16512151  0.49896151  1
  Cu+  Cu83  1  -0.00127550  0.16404408  0.82779708  1
  Cu+  Cu84  1  0.00302372  0.49765478  0.16696262  1
  Cu+  Cu85  1  0.00000091  0.50186276  0.49789680  1
  Cu+  Cu86  1  -0.00312756  0.49884028  0.83394693  1
  Cu+  Cu87  1  -0.00019340  0.83016036  0.16690872  1
  Cu+  Cu88  1  -0.00155623  0.83064405  0.50229382  1
  Cu+  Cu89  1  -0.00092477  0.83308843  0.83212610  1
  Cu+  Cu90  1  0.32911352  0.16702926  0.16728067  1
  Cu+  Cu91  1  0.33662242  0.16805876  0.50057071  1
  Cu+  Cu92  1  0.33441821  0.17011114  0.83332746  1
  Cu+  Cu93  1  0.33718362  0.50149017  0.16863275  1
  Cu+  Cu94  1  0.33184646  0.50563839  0.49829382  1
  Cu+  Cu95  1  0.32876631  0.49733862  0.83740160  1
  Cu+  Cu96  1  0.33367397  0.83203805  0.16494749  1
  Cu+  Cu97  1  0.33253541  0.83733225  0.50177117  1
  Cu+  Cu98  1  0.33255188  0.82751220  0.83151797  1
  Cu+  Cu99  1  0.66041764  0.16393369  0.16655989  1
  Cu+  Cu100  1  0.67332634  0.16532343  0.50066609  1
  Cu+  Cu101  1  0.66676587  0.17104906  0.83097134  1
  Cu+  Cu102  1  0.66607484  0.49690299  0.16747919  1
  Cu+  Cu103  1  0.66462640  0.50147664  0.49883369  1
  Cu+  Cu104  1  0.66516602  0.50170787  0.83261689  1
  Cu+  Cu105  1  0.67310249  0.83601270  0.16316129  1
  Cu+  Cu106  1  0.66496861  0.83444289  0.50062926  1
  Cu+  Cu107  1  0.66773215  0.83157610  0.84305334  1
  Cu+  Cu108  1  0.58955189  0.25400595  0.25485199  1
  Cu+  Cu109  1  0.40213687  0.41292946  0.93254042  1
  Cu+  Cu110  1  0.59687631  0.93261098  0.92391244  1
  Cu+  Cu111  1  0.74863110  0.93116725  0.07434978  1
  Cu+  Cu112  1  0.25601851  0.25378500  0.92796899  1
  Cu+  Cu113  1  0.06816264  0.25478376  0.74086791  1
  Cu+  Cu114  1  0.26106787  0.25837753  0.26114013  1
  Cu+  Cu115  1  0.74241513  0.25789730  0.41013035  1
  Cu+  Cu116  1  0.26119459  0.92695224  0.59360754  1
  Cu+  Cu117  1  0.06820279  0.40814310  0.59128822  1
  Cu+  Cu118  1  0.74222411  0.07121842  0.59278314  1
  Cu+  Cu119  1  0.39990187  0.92003853  0.07438542  1
  Cu+  Cu120  1  0.93104174  0.40869935  0.40614975  1
  Cu+  Cu121  1  0.59718234  0.40111603  0.06820832  1
  Cu+  Cu122  1  0.39967114  0.06921845  0.91675937  1
  Cu+  Cu123  1  0.93032769  0.25710341  0.25412256  1
  Cu+  Cu124  1  0.25482106  0.59450631  0.92825034  1
  Cu+  Cu125  1  0.06865592  0.74645866  0.59775749  1
  Cu+  Cu126  1  0.26139832  0.41310623  0.41284533  1
  Cu+  Cu127  1  0.59607454  0.59865040  0.26333936  1
  Cu+  Cu128  1  0.59360803  0.58718262  0.92622448  1
  Cu+  Cu129  1  0.59327283  0.41168673  0.41085674  1
  Cu+  Cu130  1  0.74432393  0.73717159  0.93187614  1
  Cu+  Cu131  1  0.40989371  0.26310655  0.73415443  1
  Cu+  Cu132  1  0.07179625  0.59822164  0.40173015  1
  Te2-  Te133  1  0.25198242  0.25408348  0.07986449  1
  Te2-  Te134  1  0.25703024  0.25669187  0.41529596  1
  Te2-  Te135  1  0.25691317  0.25219424  0.74072015  1
  Te2-  Te136  1  0.25602541  0.58673925  0.08339028  1
  Te2-  Te137  1  0.24864673  0.59376217  0.41756512  1
  Te2-  Te138  1  0.24962172  0.57910982  0.74537144  1
  Te2-  Te139  1  0.24938174  0.91939826  0.07792861  1
  Te2-  Te140  1  0.25214790  0.91852390  0.41130739  1
  Te2-  Te141  1  0.25509402  0.91630159  0.74611725  1
  Te2-  Te142  1  0.58423068  0.24648677  0.07287898  1
  Te2-  Te143  1  0.58883756  0.25443669  0.41138463  1
  Te2-  Te144  1  0.58265077  0.25813158  0.75147190  1
  Te2-  Te145  1  0.58867333  0.58582837  0.07986040  1
  Te2-  Te146  1  0.58728366  0.59399389  0.41623485  1
  Te2-  Te147  1  0.58233746  0.58380071  0.74652270  1
  Te2-  Te148  1  0.59242648  0.92499061  0.07935139  1
  Te2-  Te149  1  0.58577824  0.92121634  0.41588296  1
  Te2-  Te150  1  0.58488301  0.91662626  0.75381355  1
  Te2-  Te151  1  0.91623256  0.25135797  0.08021001  1
  Te2-  Te152  1  0.93008672  0.25307310  0.41066690  1
  Te2-  Te153  1  0.91615191  0.25360293  0.74302189  1
  Te2-  Te154  1  0.91878142  0.58102199  0.08315617  1
  Te2-  Te155  1  0.91785261  0.58923898  0.41227022  1
  Te2-  Te156  1  0.91712149  0.58783572  0.75089462  1
  Te2-  Te157  1  0.91880363  0.91751775  0.08207840  1
  Te2-  Te158  1  0.91893278  0.91812556  0.41728868  1
  Te2-  Te159  1  0.91886235  0.91983885  0.74856928  1
  Te2-  Te160  1  0.25079891  0.07910257  0.25200369  1
  Te2-  Te161  1  0.25551474  0.08421774  0.58741373  1
  Te2-  Te162  1  0.25038420  0.07632886  0.91719592  1
  Te2-  Te163  1  0.25765279  0.41572941  0.25670526  1
  Te2-  Te164  1  0.25470749  0.41821815  0.58570448  1
  Te2-  Te165  1  0.24965513  0.40670544  0.92244819  1
  Te2-  Te166  1  0.25322750  0.74846896  0.25075179  1
  Te2-  Te167  1  0.25139276  0.74498019  0.58192090  1
  Te2-  Te168  1  0.25237186  0.74530263  0.91960589  1
  Te2-  Te169  1  0.57894004  0.07657775  0.24832322  1
  Te2-  Te170  1  0.58646893  0.08340388  0.58759752  1
  Te2-  Te171  1  0.59015729  0.08480202  0.91976778  1
  Te2-  Te172  1  0.58881089  0.40889198  0.25569858  1
  Te2-  Te173  1  0.58417139  0.41830436  0.58667367  1
  Te2-  Te174  1  0.58790735  0.40866685  0.91529355  1
  Te2-  Te175  1  0.59205547  0.75208656  0.25306541  1
  Te2-  Te176  1  0.58410921  0.75042593  0.58743913  1
  Te2-  Te177  1  0.58618015  0.74345737  0.92757433  1
  Te2-  Te178  1  0.91750345  0.08053518  0.25208711  1
  Te2-  Te179  1  0.92483898  0.08084333  0.58439420  1
  Te2-  Te180  1  0.91862510  0.08333909  0.91678237  1
  Te2-  Te181  1  0.92318688  0.41104914  0.25269909  1
  Te2-  Te182  1  0.91696817  0.41448277  0.58789069  1
  Te2-  Te183  1  0.91728008  0.41377697  0.91969552  1
  Te2-  Te184  1  0.91928531  0.74562940  0.25350841  1
  Te2-  Te185  1  0.91625040  0.74642133  0.59058388  1
  Te2-  Te186  1  0.91878322  0.74959141  0.92056530  1
  Te2-  Te187  1  0.08077709  0.25344423  0.25357773  1
  Te2-  Te188  1  0.07977648  0.25472440  0.58552747  1
  Te2-  Te189  1  0.07968750  0.24808351  0.91627904  1
  Te2-  Te190  1  0.08155648  0.58669725  0.25051889  1
  Te2-  Te191  1  0.07474759  0.58702766  0.59125946  1
  Te2-  Te192  1  0.08077578  0.58156080  0.91907170  1
  Te2-  Te193  1  0.08008551  0.91870621  0.24976018  1
  Te2-  Te194  1  0.08041555  0.92022858  0.58406819  1
  Te2-  Te195  1  0.08280825  0.91669294  0.91592696  1
  Te2-  Te196  1  0.41342159  0.25434357  0.25003341  1
  Te2-  Te197  1  0.41683810  0.25707965  0.58259524  1
  Te2-  Te198  1  0.40993107  0.25597592  0.92732896  1
  Te2-  Te199  1  0.41909186  0.58648066  0.25216126  1
  Te2-  Te200  1  0.41220132  0.58958517  0.58412291  1
  Te2-  Te201  1  0.41123833  0.58376517  0.92351709  1
  Te2-  Te202  1  0.41596674  0.91663263  0.25167946  1
  Te2-  Te203  1  0.41523105  0.92228525  0.58997303  1
  Te2-  Te204  1  0.40674755  0.91718575  0.92086908  1
  Te2-  Te205  1  0.74122139  0.25302326  0.25392143  1
  Te2-  Te206  1  0.75335692  0.25596548  0.58254222  1
  Te2-  Te207  1  0.74844728  0.25405071  0.91690855  1
  Te2-  Te208  1  0.74864566  0.58299323  0.25526616  1
  Te2-  Te209  1  0.74786881  0.58433082  0.58372527  1
  Te2-  Te210  1  0.74600080  0.58503873  0.92380200  1
  Te2-  Te211  1  0.74998283  0.91776748  0.25589900  1
  Te2-  Te212  1  0.74541137  0.91891805  0.58815680  1
  Te2-  Te213  1  0.74870474  0.92771691  0.92096269  1
  Te2-  Te214  1  0.08008795  0.08220962  0.07974576  1
  Te2-  Te215  1  0.08815210  0.08167756  0.41512929  1
  Te2-  Te216  1  0.08144765  0.07724502  0.74431498  1
  Te2-  Te217  1  0.08555589  0.41360236  0.08330121  1
  Te2-  Te218  1  0.08081498  0.41314411  0.41077632  1
  Te2-  Te219  1  0.07572954  0.40971407  0.74812837  1
  Te2-  Te220  1  0.08034021  0.74623383  0.08013060  1
  Te2-  Te221  1  0.07643202  0.75116388  0.40788539  1
  Te2-  Te222  1  0.08015590  0.74466240  0.74884140  1
  Te2-  Te223  1  0.40454455  0.07843082  0.07813630  1
  Te2-  Te224  1  0.41691534  0.08346910  0.41470602  1
  Te2-  Te225  1  0.41677926  0.08037369  0.74900499  1
  Te2-  Te226  1  0.41318236  0.41234217  0.08390849  1
  Te2-  Te227  1  0.41374256  0.41815743  0.41135773  1
  Te2-  Te228  1  0.40844710  0.41719678  0.74353389  1
  Te2-  Te229  1  0.41962658  0.74678143  0.08144006  1
  Te2-  Te230  1  0.41380561  0.75282625  0.41475939  1
  Te2-  Te231  1  0.41797535  0.74360226  0.75209401  1
  Te2-  Te232  1  0.74531108  0.08289506  0.08001178  1
  Te2-  Te233  1  0.75306682  0.08037159  0.41239827  1
  Te2-  Te234  1  0.74473662  0.08223370  0.74604119  1
  Te2-  Te235  1  0.74793154  0.40929707  0.08153838  1
  Te2-  Te236  1  0.74497726  0.41306970  0.41130470  1
  Te2-  Te237  1  0.74671246  0.41651167  0.74751189  1
  Te2-  Te238  1  0.74792798  0.74074848  0.08366709  1
  Te2-  Te239  1  0.74783368  0.74889694  0.41714399  1
  Te2-  Te240  1  0.74537785  0.75040799  0.74968423  1
