# generated using pymatgen
data_Ti27(Cu53Te54)2
_symmetry_space_group_name_H-M   'P 1'
_cell_length_a   17.88481806
_cell_length_b   17.88304355
_cell_length_c   17.88309481
_cell_angle_alpha   89.97322140
_cell_angle_beta   90.01944235
_cell_angle_gamma   90.01456336
_symmetry_Int_Tables_number   1
_chemical_formula_structural   Ti27(Cu53Te54)2
_chemical_formula_sum   'Ti27 Cu106 Te108'
_cell_volume   5719.63813651
_cell_formula_units_Z   1
loop_
 _symmetry_equiv_pos_site_id
 _symmetry_equiv_pos_as_xyz
  1  'x, y, z'
loop_
 _atom_type_symbol
 _atom_type_oxidation_number
  Ti4+  4.0
  Cu+  1.0
  Te2-  -2.0
loop_
 _atom_site_type_symbol
 _atom_site_label
 _atom_site_symmetry_multiplicity
 _atom_site_fract_x
 _atom_site_fract_y
 _atom_site_fract_z
 _atom_site_occupancy
  Ti4+  Ti0  1  0.16513713  0.16730988  0.16553787  1
  Ti4+  Ti1  1  0.16849801  0.16308776  0.50034142  1
  Ti4+  Ti2  1  0.16698432  0.16298363  0.83069150  1
  Ti4+  Ti3  1  0.16655521  0.50020610  0.16347399  1
  Ti4+  Ti4  1  0.16708706  0.49870809  0.50153474  1
  Ti4+  Ti5  1  0.17074896  0.49740779  0.83406171  1
  Ti4+  Ti6  1  0.16611564  0.83388146  0.16416212  1
  Ti4+  Ti7  1  0.16327031  0.83189947  0.50180128  1
  Ti4+  Ti8  1  0.16622953  0.83275962  0.83496598  1
  Ti4+  Ti9  1  0.49927979  0.17034330  0.16629244  1
  Ti4+  Ti10  1  0.49651541  0.16465693  0.49930163  1
  Ti4+  Ti11  1  0.50134237  0.16349293  0.83349362  1
  Ti4+  Ti12  1  0.49956075  0.49926842  0.16485692  1
  Ti4+  Ti13  1  0.49863606  0.50164942  0.49856653  1
  Ti4+  Ti14  1  0.50260526  0.50056955  0.83078339  1
  Ti4+  Ti15  1  0.49772256  0.83661486  0.16738534  1
  Ti4+  Ti16  1  0.50086448  0.83385036  0.50111637  1
  Ti4+  Ti17  1  0.50113104  0.83295497  0.83727857  1
  Ti4+  Ti18  1  0.83273249  0.16946708  0.16777998  1
  Ti4+  Ti19  1  0.83008422  0.16714732  0.50246246  1
  Ti4+  Ti20  1  0.83290766  0.16682053  0.83483494  1
  Ti4+  Ti21  1  0.83308839  0.50311782  0.16644795  1
  Ti4+  Ti22  1  0.83220071  0.49927613  0.49906377  1
  Ti4+  Ti23  1  0.83425236  0.50235925  0.83358280  1
  Ti4+  Ti24  1  0.82967935  0.83273795  0.16981971  1
  Ti4+  Ti25  1  0.83999173  0.83480977  0.49826670  1
  Ti4+  Ti26  1  0.83381014  0.83135482  0.83236264  1
  Cu+  Cu27  1  0.16268777  0.16411907  -0.00249778  1
  Cu+  Cu28  1  0.16729358  0.16891482  0.33056371  1
  Cu+  Cu29  1  0.17292002  0.15861157  0.66299002  1
  Cu+  Cu30  1  0.17296115  0.49442036  0.00073400  1
  Cu+  Cu31  1  0.16328903  0.49956221  0.33274491  1
  Cu+  Cu32  1  0.17102319  0.50241059  0.66738629  1
  Cu+  Cu33  1  0.17112709  0.83464163  -0.00055778  1
  Cu+  Cu34  1  0.16315208  0.83186041  0.33359800  1
  Cu+  Cu35  1  0.16062017  0.83571008  0.67106619  1
  Cu+  Cu36  1  0.50276773  0.16584422  0.00313820  1
  Cu+  Cu37  1  0.49446456  0.16642793  0.33073811  1
  Cu+  Cu38  1  0.49863817  0.16446561  0.66663600  1
  Cu+  Cu39  1  0.50243104  0.49872175  -0.00520153  1
  Cu+  Cu40  1  0.49740762  0.50134038  0.33371425  1
  Cu+  Cu41  1  0.50078035  0.49977366  0.66372227  1
  Cu+  Cu42  1  0.50334003  0.83777627  -0.00049985  1
  Cu+  Cu43  1  0.49594443  0.83752661  0.33586153  1
  Cu+  Cu44  1  0.50156961  0.82980187  0.66913189  1
  Cu+  Cu45  1  0.83270771  0.16878930  -0.00031206  1
  Cu+  Cu46  1  0.83129218  0.16808094  0.33599281  1
  Cu+  Cu47  1  0.83064012  0.16892302  0.67064976  1
  Cu+  Cu48  1  0.83717898  0.50072718  0.00135298  1
  Cu+  Cu49  1  0.82810272  0.49997162  0.33074895  1
  Cu+  Cu50  1  0.83044825  0.50403076  0.66613423  1
  Cu+  Cu51  1  0.83078485  0.82789991  0.00337453  1
  Cu+  Cu52  1  0.83770432  0.83920037  0.33381643  1
  Cu+  Cu53  1  0.84010265  0.82896468  0.66600528  1
  Cu+  Cu54  1  0.16503076  0.00257722  0.16453630  1
  Cu+  Cu55  1  0.15742706  -0.00017670  0.50414527  1
  Cu+  Cu56  1  0.16654948  -0.00186755  0.83346019  1
  Cu+  Cu57  1  0.16722783  0.33318685  0.16357584  1
  Cu+  Cu58  1  0.16846963  0.33083356  0.50224455  1
  Cu+  Cu59  1  0.16822313  0.33139021  0.82911840  1
  Cu+  Cu60  1  0.16653336  0.66824679  0.16267675  1
  Cu+  Cu61  1  0.16982034  0.66238665  0.50647670  1
  Cu+  Cu62  1  0.16845696  0.66171508  0.83569431  1
  Cu+  Cu63  1  0.49838195  0.00717057  0.16753367  1
  Cu+  Cu64  1  0.49588820  -0.00289444  0.49807853  1
  Cu+  Cu65  1  0.50303194  -0.00352360  0.83769023  1
  Cu+  Cu66  1  0.50184728  0.33231132  0.16641204  1
  Cu+  Cu67  1  0.49578921  0.33509800  0.49825192  1
  Cu+  Cu68  1  0.50065938  0.33207433  0.83288624  1
  Cu+  Cu69  1  0.49769494  0.66662987  0.16514462  1
  Cu+  Cu70  1  0.50205572  0.66952609  0.49954429  1
  Cu+  Cu71  1  0.50503056  0.66569248  0.83570487  1
  Cu+  Cu72  1  0.83028540  -0.00122727  0.17221489  1
  Cu+  Cu73  1  0.83438000  0.00359160  0.49478488  1
  Cu+  Cu74  1  0.83240441  0.00139603  0.83498504  1
  Cu+  Cu75  1  0.83202371  0.33778641  0.16797009  1
  Cu+  Cu76  1  0.82916037  0.33265325  0.50289803  1
  Cu+  Cu77  1  0.83435386  0.33372023  0.83471786  1
  Cu+  Cu78  1  0.83274728  0.66932423  0.16454464  1
  Cu+  Cu79  1  0.83891408  0.66687725  0.49854576  1
  Cu+  Cu80  1  0.83240550  0.66580369  0.82596593  1
  Cu+  Cu81  1  0.00116585  0.17076408  0.16636781  1
  Cu+  Cu82  1  -0.00267906  0.16345472  0.50142156  1
  Cu+  Cu83  1  -0.00245067  0.16375303  0.83570053  1
  Cu+  Cu84  1  -0.00072296  0.50089225  0.16297914  1
  Cu+  Cu85  1  0.00034964  0.49622547  0.50118758  1
  Cu+  Cu86  1  0.00563269  0.49977570  0.83466680  1
  Cu+  Cu87  1  -0.00404282  0.83185823  0.16659723  1
  Cu+  Cu88  1  0.00250486  0.83067394  0.49122011  1
  Cu+  Cu89  1  -0.00133190  0.83027252  0.82955904  1
  Cu+  Cu90  1  0.33351415  0.16919341  0.16821669  1
  Cu+  Cu91  1  0.33085875  0.16662253  0.50271437  1
  Cu+  Cu92  1  0.33470173  0.16131671  0.82830448  1
  Cu+  Cu93  1  0.33230639  0.49798280  0.16271790  1
  Cu+  Cu94  1  0.33211787  0.50371009  0.50243856  1
  Cu+  Cu95  1  0.33898097  0.49526727  0.83444543  1
  Cu+  Cu96  1  0.33073801  0.83299360  0.16362415  1
  Cu+  Cu97  1  0.33351441  0.83337947  0.50350236  1
  Cu+  Cu98  1  0.33458949  0.83419786  0.83849931  1
  Cu+  Cu99  1  0.66550621  0.16970664  0.16550002  1
  Cu+  Cu100  1  0.66094787  0.16733975  0.50207543  1
  Cu+  Cu101  1  0.66892365  0.16817003  0.83416365  1
  Cu+  Cu102  1  0.66855878  0.49998151  0.16932236  1
  Cu+  Cu103  1  0.66317126  0.50136745  0.49757834  1
  Cu+  Cu104  1  0.66855698  0.50845759  0.83206940  1
  Cu+  Cu105  1  0.66292657  0.83370005  0.17211663  1
  Cu+  Cu106  1  0.67115670  0.83666552  0.50067411  1
  Cu+  Cu107  1  0.66670136  0.83187640  0.83659798  1
  Cu+  Cu108  1  0.59971696  0.92722430  0.92447755  1
  Cu+  Cu109  1  0.73850981  0.92881953  0.40979145  1
  Cu+  Cu110  1  0.26389931  0.73864020  0.07276949  1
  Cu+  Cu111  1  0.26289914  0.40078598  0.07810734  1
  Cu+  Cu112  1  0.40106817  0.92233163  0.41094006  1
  Cu+  Cu113  1  0.92527666  0.40559841  0.07384955  1
  Cu+  Cu114  1  0.26177992  0.92864727  0.92754239  1
  Cu+  Cu115  1  0.73798201  0.40713325  0.26038668  1
  Cu+  Cu116  1  0.73749632  0.59505139  0.73280288  1
  Cu+  Cu117  1  0.06955399  0.07215850  0.92916477  1
  Cu+  Cu118  1  0.06661084  0.07836154  0.59323699  1
  Cu+  Cu119  1  0.40271882  0.07688518  0.25653212  1
  Cu+  Cu120  1  0.92714359  0.73320340  0.40462389  1
  Cu+  Cu121  1  0.06857209  0.92623349  0.74603520  1
  Cu+  Cu122  1  0.92697035  0.08497127  0.40379937  1
  Cu+  Cu123  1  0.26098711  0.26113183  0.59261657  1
  Cu+  Cu124  1  0.92504340  0.74336158  0.07187858  1
  Cu+  Cu125  1  0.93082259  0.73483792  0.73701723  1
  Cu+  Cu126  1  0.59629827  0.07721745  0.07771533  1
  Cu+  Cu127  1  0.26658386  0.06738298  0.73642865  1
  Cu+  Cu128  1  0.41308786  0.40200774  0.92271862  1
  Cu+  Cu129  1  0.92899892  0.92943211  0.25110130  1
  Cu+  Cu130  1  0.26417598  0.59655687  0.59809641  1
  Cu+  Cu131  1  0.59627454  0.59154807  0.93037782  1
  Cu+  Cu132  1  0.08218618  0.92813362  0.40250409  1
  Te2-  Te133  1  0.25248837  0.24858998  0.07707208  1
  Te2-  Te134  1  0.25203874  0.25058984  0.41384671  1
  Te2-  Te135  1  0.25442172  0.25041855  0.74575931  1
  Te2-  Te136  1  0.25484194  0.58704051  0.07779951  1
  Te2-  Te137  1  0.25028646  0.58466785  0.41292292  1
  Te2-  Te138  1  0.25868512  0.58556244  0.75117029  1
  Te2-  Te139  1  0.25294199  0.92457001  0.08119521  1
  Te2-  Te140  1  0.24779102  0.91945675  0.41626534  1
  Te2-  Te141  1  0.25584841  0.91590583  0.74661016  1
  Te2-  Te142  1  0.58725673  0.25599189  0.07920611  1
  Te2-  Te143  1  0.57973138  0.25069759  0.41444337  1
  Te2-  Te144  1  0.58480325  0.24966219  0.74789232  1
  Te2-  Te145  1  0.58702660  0.58552541  0.08241853  1
  Te2-  Te146  1  0.58357413  0.58743871  0.41231708  1
  Te2-  Te147  1  0.58524976  0.58933256  0.74126144  1
  Te2-  Te148  1  0.58829313  0.92283143  0.08362177  1
  Te2-  Te149  1  0.58686500  0.92090305  0.41361677  1
  Te2-  Te150  1  0.58678927  0.91665411  0.74898934  1
  Te2-  Te151  1  0.91840505  0.25365348  0.08095155  1
  Te2-  Te152  1  0.91775908  0.25334896  0.41801641  1
  Te2-  Te153  1  0.91916248  0.25206222  0.74961114  1
  Te2-  Te154  1  0.92096258  0.59040302  0.07930067  1
  Te2-  Te155  1  0.92087900  0.58035140  0.41131635  1
  Te2-  Te156  1  0.92502297  0.58324157  0.74575145  1
  Te2-  Te157  1  0.91445077  0.91963985  0.08199497  1
  Te2-  Te158  1  0.92792659  0.92799264  0.40917542  1
  Te2-  Te159  1  0.91675018  0.92228778  0.74743124  1
  Te2-  Te160  1  0.25012691  0.08022904  0.25238763  1
  Te2-  Te161  1  0.25712697  0.07039303  0.58245297  1
  Te2-  Te162  1  0.25466653  0.08078170  0.92051074  1
  Te2-  Te163  1  0.25075833  0.41518306  0.25130247  1
  Te2-  Te164  1  0.25505795  0.41315836  0.58815101  1
  Te2-  Te165  1  0.25668968  0.40625513  0.91861713  1
  Te2-  Te166  1  0.24989769  0.74928206  0.25171170  1
  Te2-  Te167  1  0.25098426  0.75131038  0.59070367  1
  Te2-  Te168  1  0.25370232  0.74405822  0.91888785  1
  Te2-  Te169  1  0.58673384  0.08469421  0.25373185  1
  Te2-  Te170  1  0.58103229  0.07875347  0.58382485  1
  Te2-  Te171  1  0.59112230  0.08053025  0.92144930  1
  Te2-  Te172  1  0.58354804  0.41467308  0.25387422  1
  Te2-  Te173  1  0.58425328  0.41417333  0.58262081  1
  Te2-  Te174  1  0.59106029  0.41410987  0.91451426  1
  Te2-  Te175  1  0.57845749  0.74960873  0.25373431  1
  Te2-  Te176  1  0.58913475  0.74987940  0.58454830  1
  Te2-  Te177  1  0.58888645  0.74603926  0.92420853  1
  Te2-  Te178  1  0.92133509  0.08342952  0.25233181  1
  Te2-  Te179  1  0.91411604  0.07974545  0.59112210  1
  Te2-  Te180  1  0.91713722  0.07854237  0.92316440  1
  Te2-  Te181  1  0.92027737  0.41764509  0.25281479  1
  Te2-  Te182  1  0.91504686  0.41489320  0.58675967  1
  Te2-  Te183  1  0.92170767  0.41499568  0.91792376  1
  Te2-  Te184  1  0.91935112  0.74451026  0.25465977  1
  Te2-  Te185  1  0.92605583  0.74568684  0.58362947  1
  Te2-  Te186  1  0.91896626  0.74454428  0.91817717  1
  Te2-  Te187  1  0.08245124  0.25467918  0.25105631  1
  Te2-  Te188  1  0.08160251  0.24742310  0.58695785  1
  Te2-  Te189  1  0.08241280  0.25188761  0.91443067  1
  Te2-  Te190  1  0.08150449  0.58569151  0.24841896  1
  Te2-  Te191  1  0.07925045  0.58272058  0.58763040  1
  Te2-  Te192  1  0.08629623  0.58135418  0.92180067  1
  Te2-  Te193  1  0.07986110  0.92193089  0.25031132  1
  Te2-  Te194  1  0.07195153  0.91768214  0.58914061  1
  Te2-  Te195  1  0.07640956  0.91684702  0.92094068  1
  Te2-  Te196  1  0.41250643  0.25729517  0.25210040  1
  Te2-  Te197  1  0.41413357  0.25273625  0.58741013  1
  Te2-  Te198  1  0.41411124  0.24704299  0.91874888  1
  Te2-  Te199  1  0.41267236  0.58359172  0.24859588  1
  Te2-  Te200  1  0.41601197  0.59016279  0.58702432  1
  Te2-  Te201  1  0.41544349  0.58655441  0.91768214  1
  Te2-  Te202  1  0.40856643  0.92184718  0.25215003  1
  Te2-  Te203  1  0.41547158  0.91705274  0.59029944  1
  Te2-  Te204  1  0.41357542  0.92176903  0.92347038  1
  Te2-  Te205  1  0.74603507  0.25320915  0.25373093  1
  Te2-  Te206  1  0.74389749  0.25105506  0.58740050  1
  Te2-  Te207  1  0.74801774  0.25408133  0.91961720  1
  Te2-  Te208  1  0.74701581  0.59060879  0.25148236  1
  Te2-  Te209  1  0.74620471  0.58948608  0.58046889  1
  Te2-  Te210  1  0.75163743  0.58994882  0.92306725  1
  Te2-  Te211  1  0.74218035  0.92062729  0.25604138  1
  Te2-  Te212  1  0.75584547  0.91874317  0.58601227  1
  Te2-  Te213  1  0.75119039  0.91760683  0.92173008  1
  Te2-  Te214  1  0.07650184  0.08031394  0.08133661  1
  Te2-  Te215  1  0.08014034  0.08143571  0.40723260  1
  Te2-  Te216  1  0.07559167  0.07833750  0.74443900  1
  Te2-  Te217  1  0.07952843  0.41245967  0.07766760  1
  Te2-  Te218  1  0.08266367  0.41163214  0.41649452  1
  Te2-  Te219  1  0.08470894  0.41544362  0.74677879  1
  Te2-  Te220  1  0.07896466  0.74921626  0.07721348  1
  Te2-  Te221  1  0.08496877  0.73886861  0.41412102  1
  Te2-  Te222  1  0.08352479  0.74067728  0.74889258  1
  Te2-  Te223  1  0.41113733  0.08377944  0.07994205  1
  Te2-  Te224  1  0.40729854  0.07865799  0.41251313  1
  Te2-  Te225  1  0.41888701  0.07414900  0.74711464  1
  Te2-  Te226  1  0.41603063  0.41001070  0.07721923  1
  Te2-  Te227  1  0.41071622  0.41737640  0.41458168  1
  Te2-  Te228  1  0.41759105  0.41310531  0.74447761  1
  Te2-  Te229  1  0.41642147  0.74954685  0.07812020  1
  Te2-  Te230  1  0.41275093  0.74840076  0.41577037  1
  Te2-  Te231  1  0.41579834  0.74750111  0.75275942  1
  Te2-  Te232  1  0.74998695  0.08087872  0.08216731  1
  Te2-  Te233  1  0.74120670  0.08366546  0.41401536  1
  Te2-  Te234  1  0.74687594  0.08064125  0.74958357  1
  Te2-  Te235  1  0.74702698  0.41695520  0.07908719  1
  Te2-  Te236  1  0.74448030  0.41295310  0.41501887  1
  Te2-  Te237  1  0.74852255  0.41662849  0.75014103  1
  Te2-  Te238  1  0.74083668  0.74839572  0.08496509  1
  Te2-  Te239  1  0.75224657  0.75003208  0.41446076  1
  Te2-  Te240  1  0.74429518  0.75000284  0.74395281  1
