# generated using pymatgen
data_Ti27(Cu53Te54)2
_symmetry_space_group_name_H-M   'P 1'
_cell_length_a   17.93829332
_cell_length_b   17.92441906
_cell_length_c   17.93655751
_cell_angle_alpha   89.98656017
_cell_angle_beta   89.99871257
_cell_angle_gamma   89.94389177
_symmetry_Int_Tables_number   1
_chemical_formula_structural   Ti27(Cu53Te54)2
_chemical_formula_sum   'Ti27 Cu106 Te108'
_cell_volume   5767.20094996
_cell_formula_units_Z   1
loop_
 _symmetry_equiv_pos_site_id
 _symmetry_equiv_pos_as_xyz
  1  'x, y, z'
loop_
 _atom_type_symbol
 _atom_type_oxidation_number
  Ti4+  4.0
  Cu+  1.0
  Te2-  -2.0
loop_
 _atom_site_type_symbol
 _atom_site_label
 _atom_site_symmetry_multiplicity
 _atom_site_fract_x
 _atom_site_fract_y
 _atom_site_fract_z
 _atom_site_occupancy
  Ti4+  Ti0  1  0.17033713  0.16971701  0.16266734  1
  Ti4+  Ti1  1  0.16696913  0.16348974  0.49831598  1
  Ti4+  Ti2  1  0.16734636  0.16658555  0.83243513  1
  Ti4+  Ti3  1  0.16867794  0.50391295  0.16668250  1
  Ti4+  Ti4  1  0.16827820  0.49713601  0.50127497  1
  Ti4+  Ti5  1  0.16370685  0.50215290  0.83397198  1
  Ti4+  Ti6  1  0.16034639  0.82914657  0.17010598  1
  Ti4+  Ti7  1  0.16653275  0.82904670  0.50003553  1
  Ti4+  Ti8  1  0.16498110  0.82956767  0.83296738  1
  Ti4+  Ti9  1  0.50054851  0.16747313  0.16582679  1
  Ti4+  Ti10  1  0.49656172  0.16944230  0.50130663  1
  Ti4+  Ti11  1  0.49820430  0.16777817  0.83126585  1
  Ti4+  Ti12  1  0.50461569  0.50393755  0.16581475  1
  Ti4+  Ti13  1  0.50407383  0.50102981  0.49868369  1
  Ti4+  Ti14  1  0.49986721  0.50406957  0.83304547  1
  Ti4+  Ti15  1  0.49931743  0.83366433  0.16404482  1
  Ti4+  Ti16  1  0.49948884  0.83359129  0.49902376  1
  Ti4+  Ti17  1  0.50179326  0.83401183  0.82985296  1
  Ti4+  Ti18  1  0.83549493  0.16310907  0.16955767  1
  Ti4+  Ti19  1  0.83086747  0.16759995  0.50171619  1
  Ti4+  Ti20  1  0.83366894  0.16504982  0.83543284  1
  Ti4+  Ti21  1  0.83369223  0.49748053  0.16705427  1
  Ti4+  Ti22  1  0.83242373  0.50071242  0.50324821  1
  Ti4+  Ti23  1  0.83202214  0.49912248  0.83313425  1
  Ti4+  Ti24  1  0.83536919  0.83029099  0.16600315  1
  Ti4+  Ti25  1  0.83232819  0.83315945  0.49925856  1
  Ti4+  Ti26  1  0.83258108  0.83554425  0.83452352  1
  Cu+  Cu27  1  0.17276870  0.17088426  -0.00366677  1
  Cu+  Cu28  1  0.16716374  0.16536133  0.32921334  1
  Cu+  Cu29  1  0.16821089  0.16564528  0.66516245  1
  Cu+  Cu30  1  0.16614641  0.50716887  -0.00035298  1
  Cu+  Cu31  1  0.17155797  0.49622035  0.33710932  1
  Cu+  Cu32  1  0.16484780  0.49668766  0.66761160  1
  Cu+  Cu33  1  0.15988966  0.82530589  0.00279796  1
  Cu+  Cu34  1  0.16204102  0.82700036  0.33575061  1
  Cu+  Cu35  1  0.16791986  0.82839499  0.66618283  1
  Cu+  Cu36  1  0.50040327  0.16808235  -0.00002363  1
  Cu+  Cu37  1  0.49774579  0.16991975  0.33293892  1
  Cu+  Cu38  1  0.49443403  0.16615955  0.66541262  1
  Cu+  Cu39  1  0.50336257  0.50835564  -0.00011201  1
  Cu+  Cu40  1  0.50753425  0.50021530  0.33037485  1
  Cu+  Cu41  1  0.50609740  0.49957097  0.66636686  1
  Cu+  Cu42  1  0.50046238  0.83452344  -0.00468434  1
  Cu+  Cu43  1  0.49865235  0.83242801  0.33160873  1
  Cu+  Cu44  1  0.50131093  0.83498108  0.66566936  1
  Cu+  Cu45  1  0.83396552  0.16483196  0.00253941  1
  Cu+  Cu46  1  0.83658710  0.16232483  0.33890038  1
  Cu+  Cu47  1  0.83187075  0.16590335  0.66826672  1
  Cu+  Cu48  1  0.82888797  0.49479270  -0.00161910  1
  Cu+  Cu49  1  0.83176301  0.50113462  0.33712939  1
  Cu+  Cu50  1  0.83138432  0.49846899  0.66770228  1
  Cu+  Cu51  1  0.83390784  0.84127938  0.00078407  1
  Cu+  Cu52  1  0.83496713  0.83187108  0.33231541  1
  Cu+  Cu53  1  0.83452460  0.83315794  0.66636805  1
  Cu+  Cu54  1  0.16387559  0.00229576  0.16707211  1
  Cu+  Cu55  1  0.16548866  -0.00611392  0.49627338  1
  Cu+  Cu56  1  0.16649070  0.00000552  0.83216771  1
  Cu+  Cu57  1  0.17133307  0.33750786  0.16355756  1
  Cu+  Cu58  1  0.16945300  0.32868790  0.50017710  1
  Cu+  Cu59  1  0.16721121  0.33370557  0.83591528  1
  Cu+  Cu60  1  0.15957052  0.66696664  0.16413434  1
  Cu+  Cu61  1  0.16755112  0.66043265  0.50184595  1
  Cu+  Cu62  1  0.16380965  0.66923983  0.83431903  1
  Cu+  Cu63  1  0.49975494  0.00133294  0.16537995  1
  Cu+  Cu64  1  0.49595100  0.00174533  0.50023191  1
  Cu+  Cu65  1  0.49959723  0.00011422  0.82871231  1
  Cu+  Cu66  1  0.50495403  0.33451076  0.16501414  1
  Cu+  Cu67  1  0.49708036  0.33792586  0.50238245  1
  Cu+  Cu68  1  0.49965541  0.33680005  0.82804814  1
  Cu+  Cu69  1  0.49710057  0.66956880  0.16676252  1
  Cu+  Cu70  1  0.50490698  0.66631502  0.50058278  1
  Cu+  Cu71  1  0.50129640  0.67028841  0.83744056  1
  Cu+  Cu72  1  0.83545169  -0.00407325  0.16541898  1
  Cu+  Cu73  1  0.83192254  0.00201847  0.49914213  1
  Cu+  Cu74  1  0.83600345  0.00065319  0.83749765  1
  Cu+  Cu75  1  0.83498902  0.33006004  0.17084835  1
  Cu+  Cu76  1  0.83023777  0.33357311  0.50449635  1
  Cu+  Cu77  1  0.83082957  0.32976791  0.83432559  1
  Cu+  Cu78  1  0.83615299  0.66063587  0.16580112  1
  Cu+  Cu79  1  0.82875846  0.66644131  0.49765675  1
  Cu+  Cu80  1  0.83318068  0.66831418  0.82986126  1
  Cu+  Cu81  1  0.00679347  0.16497130  0.16778930  1
  Cu+  Cu82  1  -0.00186092  0.16533687  0.49713481  1
  Cu+  Cu83  1  0.00126651  0.16492371  0.83179568  1
  Cu+  Cu84  1  -0.00098202  0.50257238  0.16919293  1
  Cu+  Cu85  1  0.00187485  0.49398756  0.50186791  1
  Cu+  Cu86  1  -0.00292403  0.49784980  0.83331181  1
  Cu+  Cu87  1  -0.00257290  0.83115345  0.17815130  1
  Cu+  Cu88  1  0.00118897  0.83219851  0.50111379  1
  Cu+  Cu89  1  -0.00469906  0.83165355  0.83441906  1
  Cu+  Cu90  1  0.33624230  0.17009746  0.16324224  1
  Cu+  Cu91  1  0.33147053  0.16579242  0.50600310  1
  Cu+  Cu92  1  0.33181934  0.17034100  0.83421385  1
  Cu+  Cu93  1  0.33893265  0.50429567  0.16568936  1
  Cu+  Cu94  1  0.33797799  0.49581102  0.49988220  1
  Cu+  Cu95  1  0.32827795  0.50656509  0.83452053  1
  Cu+  Cu96  1  0.33071127  0.82904761  0.17012367  1
  Cu+  Cu97  1  0.33255057  0.83222962  0.49796980  1
  Cu+  Cu98  1  0.33548353  0.82886279  0.82881749  1
  Cu+  Cu99  1  0.66620118  0.16399755  0.16979385  1
  Cu+  Cu100  1  0.66374954  0.16987756  0.50101765  1
  Cu+  Cu101  1  0.66712097  0.16666587  0.83327813  1
  Cu+  Cu102  1  0.66989029  0.50139016  0.16041971  1
  Cu+  Cu103  1  0.66873412  0.50797330  0.50180891  1
  Cu+  Cu104  1  0.66312748  0.49923694  0.83186711  1
  Cu+  Cu105  1  0.66795115  0.83317386  0.15956077  1
  Cu+  Cu106  1  0.66594818  0.83649580  0.49754649  1
  Cu+  Cu107  1  0.66693753  0.83765744  0.83092986  1
  Cu+  Cu108  1  0.41066192  0.59243436  0.07486066  1
  Cu+  Cu109  1  0.91877353  0.92632363  0.26298344  1
  Cu+  Cu110  1  0.59532883  0.40378003  0.73898052  1
  Cu+  Cu111  1  0.40940855  0.74702377  0.92245375  1
  Cu+  Cu112  1  0.40861497  0.41500897  0.59683270  1
  Cu+  Cu113  1  0.26317088  0.74199204  0.73534647  1
  Cu+  Cu114  1  0.25418539  0.59551163  0.92419446  1
  Cu+  Cu115  1  0.73713587  0.92844153  0.07380666  1
  Cu+  Cu116  1  0.25544867  0.25837931  0.59353116  1
  Cu+  Cu117  1  0.74030236  0.59565688  0.40543616  1
  Cu+  Cu118  1  0.40492121  0.06854519  0.59400387  1
  Cu+  Cu119  1  0.92818810  0.58076542  0.26776628  1
  Cu+  Cu120  1  0.08025401  0.07707361  0.25792905  1
  Cu+  Cu121  1  0.25723627  0.74592596  0.07928803  1
  Cu+  Cu122  1  0.74628784  0.59074504  0.06998419  1
  Cu+  Cu123  1  0.92638782  0.07235127  0.41566151  1
  Cu+  Cu124  1  0.26248668  0.26296656  0.92642853  1
  Cu+  Cu125  1  0.92094415  0.73962626  0.73586348  1
  Cu+  Cu126  1  0.59570776  0.59557127  0.92363576  1
  Cu+  Cu127  1  0.07075763  0.73701241  0.26779772  1
  Cu+  Cu128  1  0.06631796  0.74199514  0.92396247  1
  Cu+  Cu129  1  0.59503026  0.59841320  0.59361104  1
  Cu+  Cu130  1  0.92965805  0.93113123  0.92502580  1
  Cu+  Cu131  1  0.40652040  0.74278261  0.26494567  1
  Cu+  Cu132  1  0.06998382  0.58726762  0.07350716  1
  Te2-  Te133  1  0.25722277  0.25767127  0.07871704  1
  Te2-  Te134  1  0.25270511  0.24748447  0.41231869  1
  Te2-  Te135  1  0.25219267  0.25498828  0.74656626  1
  Te2-  Te136  1  0.25702984  0.59210451  0.07936694  1
  Te2-  Te137  1  0.25565792  0.58181883  0.41756919  1
  Te2-  Te138  1  0.24860532  0.58804888  0.74479858  1
  Te2-  Te139  1  0.24559416  0.91397914  0.08373591  1
  Te2-  Te140  1  0.24998992  0.91313410  0.41128291  1
  Te2-  Te141  1  0.25077973  0.91555834  0.74875994  1
  Te2-  Te142  1  0.58869711  0.25060354  0.08109456  1
  Te2-  Te143  1  0.58118559  0.25449840  0.41674259  1
  Te2-  Te144  1  0.58528046  0.25118043  0.74476314  1
  Te2-  Te145  1  0.59128281  0.59466341  0.07964388  1
  Te2-  Te146  1  0.58812468  0.58896009  0.41018656  1
  Te2-  Te147  1  0.58681168  0.59183298  0.74775051  1
  Te2-  Te148  1  0.58308633  0.92043692  0.07775467  1
  Te2-  Te149  1  0.58141099  0.92020072  0.41350437  1
  Te2-  Te150  1  0.58583480  0.92059555  0.74506954  1
  Te2-  Te151  1  0.91990047  0.24800215  0.08595746  1
  Te2-  Te152  1  0.91639403  0.25536572  0.41712216  1
  Te2-  Te153  1  0.91770560  0.25027875  0.74918572  1
  Te2-  Te154  1  0.91790295  0.58250439  0.07503360  1
  Te2-  Te155  1  0.92227773  0.58492705  0.41913690  1
  Te2-  Te156  1  0.91842458  0.58397937  0.74692246  1
  Te2-  Te157  1  0.92665101  0.91753222  0.08301582  1
  Te2-  Te158  1  0.92170189  0.91882472  0.41488351  1
  Te2-  Te159  1  0.91838781  0.92041029  0.74811066  1
  Te2-  Te160  1  0.25553397  0.08251893  0.24747670  1
  Te2-  Te161  1  0.24949517  0.07398404  0.58509633  1
  Te2-  Te162  1  0.25345408  0.07932584  0.91662137  1
  Te2-  Te163  1  0.25593729  0.41891667  0.24840274  1
  Te2-  Te164  1  0.25454736  0.41170149  0.58938622  1
  Te2-  Te165  1  0.25177195  0.41785122  0.92115002  1
  Te2-  Te166  1  0.24911390  0.74183234  0.25486323  1
  Te2-  Te167  1  0.25472712  0.74340543  0.58355270  1
  Te2-  Te168  1  0.25534259  0.74588512  0.92364078  1
  Te2-  Te169  1  0.58219858  0.08106770  0.25416850  1
  Te2-  Te170  1  0.58260304  0.08321294  0.58496034  1
  Te2-  Te171  1  0.58203802  0.08246568  0.91551220  1
  Te2-  Te172  1  0.59063399  0.41669836  0.24735218  1
  Te2-  Te173  1  0.59182009  0.41281203  0.58414487  1
  Te2-  Te174  1  0.58215727  0.41580092  0.91950715  1
  Te2-  Te175  1  0.58721963  0.75060536  0.24770830  1
  Te2-  Te176  1  0.58835236  0.75101228  0.58561224  1
  Te2-  Te177  1  0.59147602  0.75086852  0.91926712  1
  Te2-  Te178  1  0.92479308  0.07695983  0.25685376  1
  Te2-  Te179  1  0.91803716  0.08140512  0.58644532  1
  Te2-  Te180  1  0.92306270  0.08203802  0.92247593  1
  Te2-  Te181  1  0.91897925  0.41446098  0.25514736  1
  Te2-  Te182  1  0.91695168  0.41375683  0.58743194  1
  Te2-  Te183  1  0.91560858  0.41291566  0.91733218  1
  Te2-  Te184  1  0.91780263  0.73875156  0.25717174  1
  Te2-  Te185  1  0.91786457  0.74573914  0.58285677  1
  Te2-  Te186  1  0.91416645  0.74557456  0.92362924  1
  Te2-  Te187  1  0.08591009  0.25648654  0.24900125  1
  Te2-  Te188  1  0.08005642  0.24836396  0.58299518  1
  Te2-  Te189  1  0.08031102  0.25133181  0.91769234  1
  Te2-  Te190  1  0.08245140  0.58432366  0.26038229  1
  Te2-  Te191  1  0.08103881  0.58106615  0.58613444  1
  Te2-  Te192  1  0.07274906  0.58849087  0.91941865  1
  Te2-  Te193  1  0.07971089  0.92106777  0.25801793  1
  Te2-  Te194  1  0.08320588  0.91509485  0.58628691  1
  Te2-  Te195  1  0.08246823  0.91819972  0.91978325  1
  Te2-  Te196  1  0.41593748  0.25594714  0.24914529  1
  Te2-  Te197  1  0.41063559  0.25896027  0.59003814  1
  Te2-  Te198  1  0.41627543  0.25636424  0.91805919  1
  Te2-  Te199  1  0.41706135  0.58720484  0.25600077  1
  Te2-  Te200  1  0.41729127  0.58510719  0.58517050  1
  Te2-  Te201  1  0.40956192  0.59152743  0.92101789  1
  Te2-  Te202  1  0.41338809  0.91790130  0.24854504  1
  Te2-  Te203  1  0.41181532  0.91663036  0.58561890  1
  Te2-  Te204  1  0.41364877  0.91884653  0.91412399  1
  Te2-  Te205  1  0.75116884  0.24631429  0.25515289  1
  Te2-  Te206  1  0.74585625  0.25136742  0.58845748  1
  Te2-  Te207  1  0.74771932  0.24925506  0.92114165  1
  Te2-  Te208  1  0.74594753  0.58576110  0.25210077  1
  Te2-  Te209  1  0.74871249  0.58973714  0.59197435  1
  Te2-  Te210  1  0.74656019  0.58817104  0.91761996  1
  Te2-  Te211  1  0.74797752  0.91577274  0.25064300  1
  Te2-  Te212  1  0.74912779  0.91883196  0.58460488  1
  Te2-  Te213  1  0.74418174  0.92295192  0.91929729  1
  Te2-  Te214  1  0.08588131  0.08433687  0.07565828  1
  Te2-  Te215  1  0.08045882  0.07684318  0.41161218  1
  Te2-  Te216  1  0.08272107  0.08087615  0.74639870  1
  Te2-  Te217  1  0.08254477  0.41926024  0.08184392  1
  Te2-  Te218  1  0.08486323  0.41076690  0.41598965  1
  Te2-  Te219  1  0.08119702  0.41384967  0.75092887  1
  Te2-  Te220  1  0.06824112  0.74455451  0.08122511  1
  Te2-  Te221  1  0.07803987  0.74083267  0.41882756  1
  Te2-  Te222  1  0.07638811  0.74605031  0.74512094  1
  Te2-  Te223  1  0.41513509  0.08202512  0.07963245  1
  Te2-  Te224  1  0.41230096  0.08516710  0.41473637  1
  Te2-  Te225  1  0.40972093  0.08130189  0.74810868  1
  Te2-  Te226  1  0.42014491  0.41830838  0.08014645  1
  Te2-  Te227  1  0.41987423  0.41731536  0.40958827  1
  Te2-  Te228  1  0.40986911  0.42036401  0.74940145  1
  Te2-  Te229  1  0.41136924  0.74661533  0.07472814  1
  Te2-  Te230  1  0.41475304  0.74461069  0.41583598  1
  Te2-  Te231  1  0.41793983  0.74402193  0.74240672  1
  Te2-  Te232  1  0.74841732  0.07990343  0.08354450  1
  Te2-  Te233  1  0.74347210  0.08233229  0.41641937  1
  Te2-  Te234  1  0.74924827  0.07904361  0.75047535  1
  Te2-  Te235  1  0.74982211  0.40882401  0.08340105  1
  Te2-  Te236  1  0.74664029  0.41568426  0.41805663  1
  Te2-  Te237  1  0.74664055  0.41248516  0.74870385  1
  Te2-  Te238  1  0.75110178  0.74561386  0.07766062  1
  Te2-  Te239  1  0.74557296  0.75049115  0.41161804  1
  Te2-  Te240  1  0.74694733  0.75083179  0.74788618  1
