# generated using pymatgen
data_Ti27(Cu53Te54)2
_symmetry_space_group_name_H-M   'P 1'
_cell_length_a   17.86731232
_cell_length_b   17.87046775
_cell_length_c   17.87135100
_cell_angle_alpha   89.99807876
_cell_angle_beta   89.97385068
_cell_angle_gamma   89.97511290
_symmetry_Int_Tables_number   1
_chemical_formula_structural   Ti27(Cu53Te54)2
_chemical_formula_sum   'Ti27 Cu106 Te108'
_cell_volume   5706.27171135
_cell_formula_units_Z   1
loop_
 _symmetry_equiv_pos_site_id
 _symmetry_equiv_pos_as_xyz
  1  'x, y, z'
loop_
 _atom_type_symbol
 _atom_type_oxidation_number
  Ti4+  4.0
  Cu+  1.0
  Te2-  -2.0
loop_
 _atom_site_type_symbol
 _atom_site_label
 _atom_site_symmetry_multiplicity
 _atom_site_fract_x
 _atom_site_fract_y
 _atom_site_fract_z
 _atom_site_occupancy
  Ti4+  Ti0  1  0.16751806  0.16697667  0.16430315  1
  Ti4+  Ti1  1  0.16624804  0.16660678  0.49701456  1
  Ti4+  Ti2  1  0.16542701  0.16651113  0.83102561  1
  Ti4+  Ti3  1  0.16628007  0.50128310  0.16923695  1
  Ti4+  Ti4  1  0.16660979  0.49881360  0.50022824  1
  Ti4+  Ti5  1  0.16702335  0.49875110  0.83334295  1
  Ti4+  Ti6  1  0.16728660  0.83374198  0.16608050  1
  Ti4+  Ti7  1  0.16484423  0.83458476  0.49986221  1
  Ti4+  Ti8  1  0.16877058  0.83283972  0.83226470  1
  Ti4+  Ti9  1  0.50004697  0.16678016  0.16576537  1
  Ti4+  Ti10  1  0.49892346  0.16500869  0.49837599  1
  Ti4+  Ti11  1  0.49839805  0.16531524  0.83400349  1
  Ti4+  Ti12  1  0.50137599  0.49661118  0.16814648  1
  Ti4+  Ti13  1  0.50350721  0.49434216  0.50136925  1
  Ti4+  Ti14  1  0.50181061  0.50391051  0.83422019  1
  Ti4+  Ti15  1  0.50171069  0.83177991  0.16843553  1
  Ti4+  Ti16  1  0.49893609  0.83597873  0.49939711  1
  Ti4+  Ti17  1  0.50483604  0.83277876  0.83295251  1
  Ti4+  Ti18  1  0.83387768  0.16777164  0.16569191  1
  Ti4+  Ti19  1  0.83410463  0.16764730  0.49819109  1
  Ti4+  Ti20  1  0.83297863  0.16692628  0.83286813  1
  Ti4+  Ti21  1  0.83148869  0.50002662  0.16933886  1
  Ti4+  Ti22  1  0.83120950  0.50362553  0.49870908  1
  Ti4+  Ti23  1  0.83154415  0.49875880  0.83412049  1
  Ti4+  Ti24  1  0.83072918  0.83458160  0.16538199  1
  Ti4+  Ti25  1  0.83210046  0.83453837  0.49928249  1
  Ti4+  Ti26  1  0.83309569  0.83428179  0.83451314  1
  Cu+  Cu27  1  0.16941066  0.16804961  -0.00167308  1
  Cu+  Cu28  1  0.16674221  0.16618566  0.33052638  1
  Cu+  Cu29  1  0.16488879  0.16532716  0.66155998  1
  Cu+  Cu30  1  0.16673064  0.49926483  0.00023832  1
  Cu+  Cu31  1  0.16466332  0.50498408  0.33654606  1
  Cu+  Cu32  1  0.16578663  0.49668815  0.66769009  1
  Cu+  Cu33  1  0.16892046  0.83282756  0.00089679  1
  Cu+  Cu34  1  0.16562807  0.83475339  0.32999308  1
  Cu+  Cu35  1  0.16560207  0.83529216  0.66691187  1
  Cu+  Cu36  1  0.49714930  0.16644841  0.00070610  1
  Cu+  Cu37  1  0.49740922  0.16427563  0.33161247  1
  Cu+  Cu38  1  0.49917105  0.16595697  0.66525587  1
  Cu+  Cu39  1  0.49996123  0.50143184  0.00376045  1
  Cu+  Cu40  1  0.50271290  0.49102733  0.33249515  1
  Cu+  Cu41  1  0.50819382  0.50099864  0.66970141  1
  Cu+  Cu42  1  0.50471784  0.83037383  -0.00127229  1
  Cu+  Cu43  1  0.49967900  0.83799945  0.33432059  1
  Cu+  Cu44  1  0.50212511  0.84112383  0.66787105  1
  Cu+  Cu45  1  0.83566685  0.16912669  -0.00074404  1
  Cu+  Cu46  1  0.83443617  0.16705712  0.33105118  1
  Cu+  Cu47  1  0.83436891  0.16581788  0.66847487  1
  Cu+  Cu48  1  0.83305178  0.49981077  0.00329306  1
  Cu+  Cu49  1  0.83691249  0.49773370  0.33633738  1
  Cu+  Cu50  1  0.82452308  0.50328542  0.66835073  1
  Cu+  Cu51  1  0.83055461  0.83119000  -0.00076461  1
  Cu+  Cu52  1  0.82882778  0.83391109  0.33302507  1
  Cu+  Cu53  1  0.83413450  0.83447894  0.66457584  1
  Cu+  Cu54  1  0.16711277  -0.00017881  0.16436603  1
  Cu+  Cu55  1  0.16239864  0.00383277  0.50132806  1
  Cu+  Cu56  1  0.16305357  -0.00247141  0.82801861  1
  Cu+  Cu57  1  0.16691713  0.33459918  0.16567519  1
  Cu+  Cu58  1  0.17105141  0.33057221  0.50057985  1
  Cu+  Cu59  1  0.16964479  0.33285461  0.83443268  1
  Cu+  Cu60  1  0.16727246  0.66981153  0.16913950  1
  Cu+  Cu61  1  0.16389290  0.66657287  0.49896328  1
  Cu+  Cu62  1  0.16866803  0.66413165  0.83344293  1
  Cu+  Cu63  1  0.50331774  -0.00026508  0.16848547  1
  Cu+  Cu64  1  0.49595135  -0.00262787  0.49750420  1
  Cu+  Cu65  1  0.50279429  -0.00138397  0.83101927  1
  Cu+  Cu66  1  0.49897230  0.33402566  0.16673724  1
  Cu+  Cu67  1  0.50713180  0.32836063  0.49901738  1
  Cu+  Cu68  1  0.49944133  0.33577702  0.83383597  1
  Cu+  Cu69  1  0.49973309  0.66034111  0.16661677  1
  Cu+  Cu70  1  0.49935514  0.66704962  0.50059710  1
  Cu+  Cu71  1  0.49634096  0.67176458  0.83825140  1
  Cu+  Cu72  1  0.83416252  0.00243854  0.16234409  1
  Cu+  Cu73  1  0.83282354  0.00038987  0.49675214  1
  Cu+  Cu74  1  0.83322390  0.00308074  0.83147797  1
  Cu+  Cu75  1  0.83255081  0.33319464  0.16824157  1
  Cu+  Cu76  1  0.83600983  0.33622146  0.49809504  1
  Cu+  Cu77  1  0.83642482  0.32898214  0.83822918  1
  Cu+  Cu78  1  0.82847417  0.66747255  0.16937128  1
  Cu+  Cu79  1  0.83207296  0.67031224  0.49930168  1
  Cu+  Cu80  1  0.83046092  0.66709772  0.83398193  1
  Cu+  Cu81  1  0.00216620  0.16569712  0.16475152  1
  Cu+  Cu82  1  0.00094714  0.16527905  0.49853973  1
  Cu+  Cu83  1  -0.00379558  0.16921645  0.83371879  1
  Cu+  Cu84  1  -0.00134705  0.50215173  0.16893573  1
  Cu+  Cu85  1  0.00043527  0.50341078  0.49150980  1
  Cu+  Cu86  1  0.00066312  0.49729762  0.83444517  1
  Cu+  Cu87  1  -0.00052699  0.83420489  0.16364161  1
  Cu+  Cu88  1  -0.00450253  0.83345624  0.49927309  1
  Cu+  Cu89  1  0.00053157  0.83305101  0.83131385  1
  Cu+  Cu90  1  0.33377934  0.16527126  0.16401338  1
  Cu+  Cu91  1  0.33100410  0.16853158  0.49893423  1
  Cu+  Cu92  1  0.33127777  0.16709564  0.83425597  1
  Cu+  Cu93  1  0.33320814  0.49858329  0.16911269  1
  Cu+  Cu94  1  0.33578511  0.49641660  0.50030213  1
  Cu+  Cu95  1  0.33285003  0.50164775  0.83373001  1
  Cu+  Cu96  1  0.33143501  0.83183451  0.16597824  1
  Cu+  Cu97  1  0.33107331  0.83433500  0.49664236  1
  Cu+  Cu98  1  0.33627314  0.83169002  0.83070780  1
  Cu+  Cu99  1  0.66846644  0.16877165  0.16534068  1
  Cu+  Cu100  1  0.66667567  0.16646831  0.50036592  1
  Cu+  Cu101  1  0.66836598  0.16383219  0.83338234  1
  Cu+  Cu102  1  0.66494041  0.49895104  0.16884316  1
  Cu+  Cu103  1  0.66608357  0.49611868  0.50552216  1
  Cu+  Cu104  1  0.66753695  0.50359599  0.82602415  1
  Cu+  Cu105  1  0.66706327  0.83147126  0.17380809  1
  Cu+  Cu106  1  0.66554736  0.83677488  0.50202362  1
  Cu+  Cu107  1  0.66961025  0.83276071  0.84156690  1
  Cu+  Cu108  1  0.59648312  0.92858670  0.59466903  1
  Cu+  Cu109  1  0.40200089  0.40428034  0.25981401  1
  Cu+  Cu110  1  0.40288819  0.58762966  0.07795542  1
  Cu+  Cu111  1  0.06931566  0.92206611  0.74032395  1
  Cu+  Cu112  1  0.58746451  0.59787842  0.59327162  1
  Cu+  Cu113  1  0.26163130  0.26015094  0.92888149  1
  Cu+  Cu114  1  0.93140297  0.40488995  0.40735367  1
  Cu+  Cu115  1  0.40423948  0.74935593  0.92827903  1
  Cu+  Cu116  1  0.59573241  0.93111096  0.26078926  1
  Cu+  Cu117  1  0.92806822  0.26003818  0.93129824  1
  Cu+  Cu118  1  0.40685955  0.92832437  0.74359680  1
  Cu+  Cu119  1  0.74314787  0.60194806  0.73934695  1
  Cu+  Cu120  1  0.59398254  0.40464349  0.07208087  1
  Cu+  Cu121  1  0.07356071  0.60023518  0.40546460  1
  Cu+  Cu122  1  0.74459277  0.73411957  0.93070639  1
  Cu+  Cu123  1  0.59459051  0.92976837  0.92872032  1
  Cu+  Cu124  1  0.74419906  0.73791113  0.26584019  1
  Cu+  Cu125  1  0.59549830  0.40020132  0.40442092  1
  Cu+  Cu126  1  0.59002927  0.58961205  0.26164245  1
  Cu+  Cu127  1  0.59592175  0.25051857  0.59539555  1
  Cu+  Cu128  1  0.59244095  0.40392024  0.74753558  1
  Cu+  Cu129  1  0.06938895  0.07651468  0.59056661  1
  Cu+  Cu130  1  0.39932413  0.92575451  0.40252149  1
  Cu+  Cu131  1  0.25971432  0.25923290  0.59281657  1
  Cu+  Cu132  1  0.75122223  0.40344263  0.59430333  1
  Te2-  Te133  1  0.25541526  0.25529741  0.08053263  1
  Te2-  Te134  1  0.25255811  0.25173372  0.40941897  1
  Te2-  Te135  1  0.25223788  0.25161442  0.74440673  1
  Te2-  Te136  1  0.25125017  0.58672728  0.08218164  1
  Te2-  Te137  1  0.25537298  0.58509291  0.41820755  1
  Te2-  Te138  1  0.25198619  0.58397143  0.74610707  1
  Te2-  Te139  1  0.25404748  0.91916280  0.08013065  1
  Te2-  Te140  1  0.24743745  0.92282587  0.41307745  1
  Te2-  Te141  1  0.25538919  0.91997305  0.74560499  1
  Te2-  Te142  1  0.58563730  0.25241259  0.07877924  1
  Te2-  Te143  1  0.58800752  0.24702153  0.40872142  1
  Te2-  Te144  1  0.58751541  0.25060640  0.74883296  1
  Te2-  Te145  1  0.58939736  0.58567680  0.08072130  1
  Te2-  Te146  1  0.58637863  0.58427138  0.41488148  1
  Te2-  Te147  1  0.58621375  0.59730309  0.74841873  1
  Te2-  Te148  1  0.58798719  0.91704887  0.08216649  1
  Te2-  Te149  1  0.58898614  0.92264050  0.41324894  1
  Te2-  Te150  1  0.59518029  0.92043710  0.74845363  1
  Te2-  Te151  1  0.92194120  0.25568779  0.08250223  1
  Te2-  Te152  1  0.92135340  0.25210843  0.41284154  1
  Te2-  Te153  1  0.91882294  0.25380942  0.74500179  1
  Te2-  Te154  1  0.91543205  0.58678859  0.08493554  1
  Te2-  Te155  1  0.91658464  0.59278679  0.41150978  1
  Te2-  Te156  1  0.91701845  0.58387084  0.74900374  1
  Te2-  Te157  1  0.91675139  0.91752516  0.07831942  1
  Te2-  Te158  1  0.91678913  0.91858930  0.41170465  1
  Te2-  Te159  1  0.91709971  0.92043439  0.74662091  1
  Te2-  Te160  1  0.25234156  0.08100101  0.24995137  1
  Te2-  Te161  1  0.25396903  0.07995987  0.58420734  1
  Te2-  Te162  1  0.24896611  0.07791677  0.91501260  1
  Te2-  Te163  1  0.25000023  0.41447483  0.25650927  1
  Te2-  Te164  1  0.25469039  0.41387708  0.58746229  1
  Te2-  Te165  1  0.25557001  0.41454673  0.92121214  1
  Te2-  Te166  1  0.25342902  0.74839619  0.25415357  1
  Te2-  Te167  1  0.24951537  0.74902863  0.58328800  1
  Te2-  Te168  1  0.25332635  0.74631896  0.91921061  1
  Te2-  Te169  1  0.58856461  0.08358381  0.25255120  1
  Te2-  Te170  1  0.58494783  0.07865590  0.58478323  1
  Te2-  Te171  1  0.58529389  0.08188505  0.92054536  1
  Te2-  Te172  1  0.59190625  0.40589179  0.25287985  1
  Te2-  Te173  1  0.59085871  0.40561173  0.59314418  1
  Te2-  Te174  1  0.58782007  0.41713964  0.91923272  1
  Te2-  Te175  1  0.58411863  0.74292620  0.25768015  1
  Te2-  Te176  1  0.58488664  0.75013759  0.58726675  1
  Te2-  Te177  1  0.59009871  0.74176610  0.92226256  1
  Te2-  Te178  1  0.91963341  0.08130841  0.24988070  1
  Te2-  Te179  1  0.91667620  0.08001232  0.58486135  1
  Te2-  Te180  1  0.91916772  0.08008339  0.91876950  1
  Te2-  Te181  1  0.92023277  0.41301388  0.25231335  1
  Te2-  Te182  1  0.91824208  0.42218884  0.58624002  1
  Te2-  Te183  1  0.91909505  0.41576051  0.92217606  1
  Te2-  Te184  1  0.91710089  0.75039207  0.25095627  1
  Te2-  Te185  1  0.91757316  0.74791576  0.58550889  1
  Te2-  Te186  1  0.91972537  0.74730392  0.91732223  1
  Te2-  Te187  1  0.08197320  0.25218682  0.25016439  1
  Te2-  Te188  1  0.07901690  0.25386931  0.58361569  1
  Te2-  Te189  1  0.08101774  0.25318467  0.91883850  1
  Te2-  Te190  1  0.07900312  0.58928085  0.25263207  1
  Te2-  Te191  1  0.07980089  0.58267137  0.58571170  1
  Te2-  Te192  1  0.08140884  0.58460782  0.91859460  1
  Te2-  Te193  1  0.07979059  0.91994116  0.24937051  1
  Te2-  Te194  1  0.07550142  0.92039288  0.58616885  1
  Te2-  Te195  1  0.08240779  0.91667976  0.91889983  1
  Te2-  Te196  1  0.41204694  0.25116563  0.25202059  1
  Te2-  Te197  1  0.41431126  0.25371730  0.58471987  1
  Te2-  Te198  1  0.41502979  0.25427509  0.91885618  1
  Te2-  Te199  1  0.41547214  0.58283094  0.25817226  1
  Te2-  Te200  1  0.41746836  0.58100992  0.58607866  1
  Te2-  Te201  1  0.41151757  0.58738218  0.92206317  1
  Te2-  Te202  1  0.41184119  0.91934718  0.24933062  1
  Te2-  Te203  1  0.40943335  0.92042990  0.58656111  1
  Te2-  Te204  1  0.41669923  0.91787043  0.91989343  1
  Te2-  Te205  1  0.74796231  0.25261515  0.25270772  1
  Te2-  Te206  1  0.74897233  0.25261740  0.58823083  1
  Te2-  Te207  1  0.74476021  0.25124021  0.91978375  1
  Te2-  Te208  1  0.74520523  0.58458853  0.25951703  1
  Te2-  Te209  1  0.74259685  0.59385602  0.58522400  1
  Te2-  Te210  1  0.74501051  0.58275672  0.92286663  1
  Te2-  Te211  1  0.74828120  0.92562588  0.25229785  1
  Te2-  Te212  1  0.74894844  0.92298984  0.58701649  1
  Te2-  Te213  1  0.74980483  0.92516466  0.92127048  1
  Te2-  Te214  1  0.08315291  0.08174246  0.07783336  1
  Te2-  Te215  1  0.07999852  0.08127772  0.40965369  1
  Te2-  Te216  1  0.07552363  0.08127286  0.74511571  1
  Te2-  Te217  1  0.08051072  0.41753145  0.08355465  1
  Te2-  Te218  1  0.08365479  0.40887333  0.41316512  1
  Te2-  Te219  1  0.08120646  0.41177613  0.74924095  1
  Te2-  Te220  1  0.08167544  0.74754026  0.08053420  1
  Te2-  Te221  1  0.07866021  0.75126327  0.41243874  1
  Te2-  Te222  1  0.08324230  0.74578216  0.74814710  1
  Te2-  Te223  1  0.41619290  0.07832058  0.08214307  1
  Te2-  Te224  1  0.41031193  0.08113352  0.41266348  1
  Te2-  Te225  1  0.41295019  0.08147004  0.74681881  1
  Te2-  Te226  1  0.41214051  0.41298407  0.07951792  1
  Te2-  Te227  1  0.41438982  0.40814370  0.41616607  1
  Te2-  Te228  1  0.41626789  0.41926007  0.74809061  1
  Te2-  Te229  1  0.41410563  0.74548640  0.08172060  1
  Te2-  Te230  1  0.41559511  0.74743328  0.41406175  1
  Te2-  Te231  1  0.41835612  0.74848211  0.74322104  1
  Te2-  Te232  1  0.74836121  0.08396017  0.07841651  1
  Te2-  Te233  1  0.74835652  0.08352834  0.41371821  1
  Te2-  Te234  1  0.74701150  0.08075485  0.74568768  1
  Te2-  Te235  1  0.74736558  0.41316465  0.08198837  1
  Te2-  Te236  1  0.74552080  0.41359427  0.41244879  1
  Te2-  Te237  1  0.74735179  0.40546413  0.74930823  1
  Te2-  Te238  1  0.74281406  0.74601528  0.08149942  1
  Te2-  Te239  1  0.74206572  0.74760581  0.41638506  1
  Te2-  Te240  1  0.74554444  0.75229525  0.74502934  1
