# generated using pymatgen
data_Ti27(Cu53Te54)2
_symmetry_space_group_name_H-M   'P 1'
_cell_length_a   17.91084331
_cell_length_b   17.92569013
_cell_length_c   17.93199553
_cell_angle_alpha   90.02608326
_cell_angle_beta   90.01466998
_cell_angle_gamma   90.04201162
_symmetry_Int_Tables_number   1
_chemical_formula_structural   Ti27(Cu53Te54)2
_chemical_formula_sum   'Ti27 Cu106 Te108'
_cell_volume   5757.31995356
_cell_formula_units_Z   1
loop_
 _symmetry_equiv_pos_site_id
 _symmetry_equiv_pos_as_xyz
  1  'x, y, z'
loop_
 _atom_type_symbol
 _atom_type_oxidation_number
  Ti4+  4.0
  Cu+  1.0
  Te2-  -2.0
loop_
 _atom_site_type_symbol
 _atom_site_label
 _atom_site_symmetry_multiplicity
 _atom_site_fract_x
 _atom_site_fract_y
 _atom_site_fract_z
 _atom_site_occupancy
  Ti4+  Ti0  1  0.16748045  0.16637361  0.16504903  1
  Ti4+  Ti1  1  0.16669838  0.16892568  0.49699124  1
  Ti4+  Ti2  1  0.16671273  0.16847255  0.83209516  1
  Ti4+  Ti3  1  0.16670287  0.49881939  0.16512452  1
  Ti4+  Ti4  1  0.16767988  0.49975395  0.49969062  1
  Ti4+  Ti5  1  0.16590818  0.50429989  0.83627334  1
  Ti4+  Ti6  1  0.16572445  0.83498981  0.16671359  1
  Ti4+  Ti7  1  0.16596422  0.83413781  0.49564285  1
  Ti4+  Ti8  1  0.16595537  0.83727313  0.83172180  1
  Ti4+  Ti9  1  0.50569852  0.16679881  0.16766842  1
  Ti4+  Ti10  1  0.50174634  0.17115920  0.50056419  1
  Ti4+  Ti11  1  0.49971795  0.16590007  0.83246256  1
  Ti4+  Ti12  1  0.49976945  0.50214608  0.16876629  1
  Ti4+  Ti13  1  0.50173051  0.50189111  0.50681335  1
  Ti4+  Ti14  1  0.49842050  0.50235096  0.83357333  1
  Ti4+  Ti15  1  0.49746116  0.83318911  0.16163085  1
  Ti4+  Ti16  1  0.49909356  0.83262016  0.49944452  1
  Ti4+  Ti17  1  0.49873601  0.83210557  0.83166706  1
  Ti4+  Ti18  1  0.83109399  0.16692469  0.16532685  1
  Ti4+  Ti19  1  0.83059055  0.16384793  0.50073615  1
  Ti4+  Ti20  1  0.83453288  0.16412167  0.83279328  1
  Ti4+  Ti21  1  0.83050263  0.49852987  0.16554005  1
  Ti4+  Ti22  1  0.83592683  0.49823042  0.49947990  1
  Ti4+  Ti23  1  0.83699788  0.49893102  0.83426412  1
  Ti4+  Ti24  1  0.82820177  0.83409253  0.16768507  1
  Ti4+  Ti25  1  0.83605977  0.82791474  0.50472585  1
  Ti4+  Ti26  1  0.83386483  0.83005163  0.83424033  1
  Cu+  Cu27  1  0.16648087  0.16517593  -0.00040178  1
  Cu+  Cu28  1  0.16719740  0.16833231  0.33131000  1
  Cu+  Cu29  1  0.16763508  0.17045340  0.66240863  1
  Cu+  Cu30  1  0.16422015  0.49747462  -0.00060499  1
  Cu+  Cu31  1  0.16709671  0.50079139  0.33139703  1
  Cu+  Cu32  1  0.17031885  0.49923271  0.67092590  1
  Cu+  Cu33  1  0.16505949  0.83620114  0.00146642  1
  Cu+  Cu34  1  0.16687891  0.83495830  0.33150287  1
  Cu+  Cu35  1  0.16654496  0.83623366  0.66067754  1
  Cu+  Cu36  1  0.50238265  0.16410221  -0.00284028  1
  Cu+  Cu37  1  0.50787155  0.17065523  0.33332513  1
  Cu+  Cu38  1  0.50101639  0.17099033  0.66559101  1
  Cu+  Cu39  1  0.49658193  0.50180483  0.00037874  1
  Cu+  Cu40  1  0.50044042  0.50303322  0.34287741  1
  Cu+  Cu41  1  0.49522572  0.50506034  0.67190337  1
  Cu+  Cu42  1  0.50073840  0.82727453  -0.00187587  1
  Cu+  Cu43  1  0.49651118  0.82914947  0.32757770  1
  Cu+  Cu44  1  0.49866745  0.83377288  0.66713220  1
  Cu+  Cu45  1  0.83275032  0.16724007  -0.00228453  1
  Cu+  Cu46  1  0.83036528  0.16205112  0.33375640  1
  Cu+  Cu47  1  0.83353004  0.16372520  0.66777396  1
  Cu+  Cu48  1  0.83632800  0.50111923  -0.00011726  1
  Cu+  Cu49  1  0.83181484  0.49757003  0.33037996  1
  Cu+  Cu50  1  0.83818595  0.49640881  0.66501084  1
  Cu+  Cu51  1  0.82803300  0.83611423  0.00224511  1
  Cu+  Cu52  1  0.83093160  0.83265676  0.33931658  1
  Cu+  Cu53  1  0.83959689  0.82529011  0.67069997  1
  Cu+  Cu54  1  0.16682157  0.00066031  0.16774322  1
  Cu+  Cu55  1  0.16922509  0.00363218  0.49534923  1
  Cu+  Cu56  1  0.16412559  0.00422764  0.83262099  1
  Cu+  Cu57  1  0.16923543  0.33061443  0.16422702  1
  Cu+  Cu58  1  0.16718323  0.33286033  0.50052989  1
  Cu+  Cu59  1  0.16782285  0.33689875  0.83373227  1
  Cu+  Cu60  1  0.16654461  0.66715530  0.16459031  1
  Cu+  Cu61  1  0.16276084  0.66369163  0.49463199  1
  Cu+  Cu62  1  0.16407337  0.67356545  0.83883406  1
  Cu+  Cu63  1  0.50482345  -0.00346496  0.16849291  1
  Cu+  Cu64  1  0.49756067  0.00297251  0.49833645  1
  Cu+  Cu65  1  0.49633406  -0.00183443  0.82985989  1
  Cu+  Cu66  1  0.50720957  0.33302380  0.16927074  1
  Cu+  Cu67  1  0.50816814  0.33738638  0.50605124  1
  Cu+  Cu68  1  0.49876289  0.33227897  0.83598392  1
  Cu+  Cu69  1  0.49299146  0.66902264  0.16292503  1
  Cu+  Cu70  1  0.49730650  0.66580178  0.50081792  1
  Cu+  Cu71  1  0.49832498  0.66722974  0.82716230  1
  Cu+  Cu72  1  0.82446659  0.00073217  0.16483811  1
  Cu+  Cu73  1  0.83322360  -0.00662059  0.50478090  1
  Cu+  Cu74  1  0.83361451  -0.00210721  0.83391981  1
  Cu+  Cu75  1  0.82913277  0.33295706  0.16170792  1
  Cu+  Cu76  1  0.83289215  0.33105963  0.50074130  1
  Cu+  Cu77  1  0.83711060  0.33096696  0.83110417  1
  Cu+  Cu78  1  0.82952125  0.66550665  0.16991211  1
  Cu+  Cu79  1  0.83732455  0.66261815  0.50132577  1
  Cu+  Cu80  1  0.84110525  0.66426515  0.83444247  1
  Cu+  Cu81  1  -0.00159928  0.16609620  0.16588195  1
  Cu+  Cu82  1  -0.00032178  0.16515027  0.49879558  1
  Cu+  Cu83  1  0.00146887  0.16338244  0.83534696  1
  Cu+  Cu84  1  -0.00131208  0.49656937  0.16564898  1
  Cu+  Cu85  1  0.00157903  0.50120223  0.49555474  1
  Cu+  Cu86  1  -0.00033243  0.50398133  0.84424424  1
  Cu+  Cu87  1  -0.00400290  0.83510033  0.16907856  1
  Cu+  Cu88  1  0.00466204  0.82718055  0.50497860  1
  Cu+  Cu89  1  -0.00039623  0.82911452  0.83522849  1
  Cu+  Cu90  1  0.33570133  0.16521315  0.16555771  1
  Cu+  Cu91  1  0.33325256  0.17168704  0.49713961  1
  Cu+  Cu92  1  0.33350431  0.16887037  0.83225484  1
  Cu+  Cu93  1  0.33419282  0.50349987  0.16676127  1
  Cu+  Cu94  1  0.33345603  0.50201382  0.50523705  1
  Cu+  Cu95  1  0.33117611  0.50297656  0.82861805  1
  Cu+  Cu96  1  0.33062947  0.83214318  0.16685006  1
  Cu+  Cu97  1  0.32984853  0.83408424  0.49738873  1
  Cu+  Cu98  1  0.33281555  0.84086854  0.82899182  1
  Cu+  Cu99  1  0.67077995  0.17168123  0.16880158  1
  Cu+  Cu100  1  0.66247244  0.16714859  0.50367136  1
  Cu+  Cu101  1  0.66687110  0.16271370  0.83146775  1
  Cu+  Cu102  1  0.66298184  0.49656974  0.16422612  1
  Cu+  Cu103  1  0.66969550  0.49782578  0.50492972  1
  Cu+  Cu104  1  0.67141393  0.49887839  0.83409821  1
  Cu+  Cu105  1  0.66446654  0.83792309  0.15819390  1
  Cu+  Cu106  1  0.67062464  0.83305563  0.50219838  1
  Cu+  Cu107  1  0.66474102  0.82736369  0.83172589  1
  Cu+  Cu108  1  0.58724525  0.07424345  0.41100604  1
  Cu+  Cu109  1  0.59493266  0.26375318  0.60018411  1
  Cu+  Cu110  1  0.07646846  0.74702489  0.93270290  1
  Cu+  Cu111  1  0.59776293  0.26339304  0.25954160  1
  Cu+  Cu112  1  0.40556166  0.58970502  0.41264344  1
  Cu+  Cu113  1  0.07389823  0.07520405  0.92902855  1
  Cu+  Cu114  1  0.40069539  0.59640458  0.74198008  1
  Cu+  Cu115  1  0.92414957  0.59496695  0.93393910  1
  Cu+  Cu116  1  0.74459558  0.07422143  0.25994456  1
  Cu+  Cu117  1  0.40086372  0.74257509  0.25598767  1
  Cu+  Cu118  1  0.59305466  0.73919512  0.07404354  1
  Cu+  Cu119  1  0.40634613  0.93120719  0.73609147  1
  Cu+  Cu120  1  0.73794777  0.92957462  0.06733712  1
  Cu+  Cu121  1  0.58971084  0.91475417  0.25850865  1
  Cu+  Cu122  1  0.74597167  0.92204292  0.41563308  1
  Cu+  Cu123  1  0.58257342  0.40659920  0.06859151  1
  Cu+  Cu124  1  0.74756088  0.26265447  0.06457260  1
  Cu+  Cu125  1  0.40205565  0.59055487  0.07137559  1
  Cu+  Cu126  1  0.25898493  0.40513203  0.74189236  1
  Cu+  Cu127  1  0.93006553  0.73527313  0.74242021  1
  Cu+  Cu128  1  0.07056409  0.59014504  0.40073173  1
  Cu+  Cu129  1  0.08499751  0.73498349  0.59228148  1
  Cu+  Cu130  1  0.59393238  0.74008058  0.73585288  1
  Cu+  Cu131  1  0.07361754  0.40459056  0.92545191  1
  Cu+  Cu132  1  0.59728796  0.41533379  0.41280110  1
  Te2-  Te133  1  0.25450952  0.24963322  0.07938832  1
  Te2-  Te134  1  0.25190727  0.25535325  0.41157898  1
  Te2-  Te135  1  0.25299968  0.25391928  0.74601290  1
  Te2-  Te136  1  0.25054216  0.58619891  0.07799209  1
  Te2-  Te137  1  0.25419079  0.58528465  0.41288473  1
  Te2-  Te138  1  0.24809330  0.59467157  0.74878447  1
  Te2-  Te139  1  0.25178912  0.91955487  0.08186906  1
  Te2-  Te140  1  0.25242293  0.91990100  0.41135726  1
  Te2-  Te141  1  0.24895813  0.92395151  0.74340771  1
  Te2-  Te142  1  0.58966245  0.25284603  0.07480381  1
  Te2-  Te143  1  0.59244916  0.25916448  0.41388301  1
  Te2-  Te144  1  0.58747452  0.25408152  0.75056106  1
  Te2-  Te145  1  0.58553279  0.58718329  0.08049102  1
  Te2-  Te146  1  0.58983762  0.58731474  0.42100941  1
  Te2-  Te147  1  0.59022402  0.58480596  0.74833463  1
  Te2-  Te148  1  0.58304880  0.92246914  0.07186878  1
  Te2-  Te149  1  0.58684169  0.91818969  0.41276736  1
  Te2-  Te150  1  0.58669932  0.91759596  0.74758559  1
  Te2-  Te151  1  0.91805436  0.25130821  0.08023231  1
  Te2-  Te152  1  0.91479471  0.24749183  0.41444206  1
  Te2-  Te153  1  0.92114719  0.24780247  0.74788622  1
  Te2-  Te154  1  0.91891133  0.58717246  0.08542256  1
  Te2-  Te155  1  0.91795354  0.58491066  0.40947625  1
  Te2-  Te156  1  0.92476059  0.58202083  0.74564402  1
  Te2-  Te157  1  0.91447388  0.92019436  0.08383704  1
  Te2-  Te158  1  0.92162182  0.91395229  0.41991097  1
  Te2-  Te159  1  0.91971838  0.91669800  0.75071906  1
  Te2-  Te160  1  0.25283584  0.08240667  0.25118977  1
  Te2-  Te161  1  0.25371031  0.08464524  0.58211684  1
  Te2-  Te162  1  0.25316766  0.08264469  0.91653847  1
  Te2-  Te163  1  0.25266447  0.41548314  0.24943882  1
  Te2-  Te164  1  0.25289745  0.41345828  0.58679246  1
  Te2-  Te165  1  0.25499185  0.41830923  0.91883116  1
  Te2-  Te166  1  0.24944406  0.74574743  0.25308143  1
  Te2-  Te167  1  0.25026879  0.74637916  0.58154586  1
  Te2-  Te168  1  0.25396364  0.75561970  0.91760216  1
  Te2-  Te169  1  0.59184492  0.07609212  0.25519621  1
  Te2-  Te170  1  0.58309426  0.07940124  0.58755995  1
  Te2-  Te171  1  0.58421835  0.07769268  0.91467750  1
  Te2-  Te172  1  0.58741164  0.41746598  0.25927659  1
  Te2-  Te173  1  0.58820005  0.41893982  0.59742162  1
  Te2-  Te174  1  0.58508100  0.41590036  0.91743228  1
  Te2-  Te175  1  0.58695491  0.74747754  0.24660531  1
  Te2-  Te176  1  0.58534213  0.74772014  0.58377764  1
  Te2-  Te177  1  0.58491787  0.74193749  0.91762868  1
  Te2-  Te178  1  0.91579343  0.07920414  0.24962224  1
  Te2-  Te179  1  0.91740138  0.08014774  0.58382352  1
  Te2-  Te180  1  0.91825302  0.07813230  0.92149831  1
  Te2-  Te181  1  0.91548714  0.41152155  0.24839543  1
  Te2-  Te182  1  0.92268252  0.41255277  0.58161718  1
  Te2-  Te183  1  0.91921379  0.40909624  0.92243448  1
  Te2-  Te184  1  0.91336106  0.75007578  0.25321022  1
  Te2-  Te185  1  0.92502817  0.73888110  0.58872620  1
  Te2-  Te186  1  0.91934768  0.74831418  0.92834534  1
  Te2-  Te187  1  0.08119418  0.25172898  0.24914295  1
  Te2-  Te188  1  0.07934629  0.25270355  0.58289807  1
  Te2-  Te189  1  0.08103218  0.25357690  0.91963497  1
  Te2-  Te190  1  0.07960338  0.58528992  0.24881265  1
  Te2-  Te191  1  0.08145028  0.58198106  0.58894445  1
  Te2-  Te192  1  0.08054406  0.59301447  0.92700657  1
  Te2-  Te193  1  0.08025990  0.91965022  0.25172341  1
  Te2-  Te194  1  0.08293427  0.92329095  0.58042716  1
  Te2-  Te195  1  0.07891201  0.92102899  0.91850702  1
  Te2-  Te196  1  0.41809527  0.25091520  0.25081625  1
  Te2-  Te197  1  0.41452126  0.25585965  0.58429378  1
  Te2-  Te198  1  0.41523151  0.25012787  0.91993045  1
  Te2-  Te199  1  0.41241606  0.58737481  0.25786399  1
  Te2-  Te200  1  0.41128643  0.59014204  0.58994207  1
  Te2-  Te201  1  0.41153048  0.58874164  0.91794037  1
  Te2-  Te202  1  0.41277806  0.91967218  0.25028275  1
  Te2-  Te203  1  0.41294174  0.91935348  0.58203342  1
  Te2-  Te204  1  0.41577382  0.91717465  0.92047378  1
  Te2-  Te205  1  0.74969415  0.25681994  0.25750112  1
  Te2-  Te206  1  0.74808529  0.25118092  0.58802096  1
  Te2-  Te207  1  0.74656311  0.25282305  0.91416706  1
  Te2-  Te208  1  0.74403808  0.58179397  0.25114265  1
  Te2-  Te209  1  0.75226545  0.58308568  0.58713249  1
  Te2-  Te210  1  0.75073149  0.58599198  0.91839618  1
  Te2-  Te211  1  0.74195935  0.91995560  0.25923238  1
  Te2-  Te212  1  0.75164201  0.91206108  0.59347450  1
  Te2-  Te213  1  0.74409221  0.91730870  0.91490349  1
  Te2-  Te214  1  0.07909002  0.07900363  0.08153793  1
  Te2-  Te215  1  0.08142011  0.08312251  0.41170666  1
  Te2-  Te216  1  0.08267038  0.08470476  0.74367119  1
  Te2-  Te217  1  0.08032304  0.41105217  0.08114419  1
  Te2-  Te218  1  0.08410884  0.41396446  0.41341902  1
  Te2-  Te219  1  0.07819324  0.41954305  0.75204603  1
  Te2-  Te220  1  0.07739409  0.74894373  0.08368156  1
  Te2-  Te221  1  0.07869566  0.74715231  0.40781182  1
  Te2-  Te222  1  0.08191906  0.74720250  0.74408606  1
  Te2-  Te223  1  0.42120133  0.08093804  0.08403676  1
  Te2-  Te224  1  0.41625467  0.08727011  0.41182288  1
  Te2-  Te225  1  0.41289173  0.08390073  0.74361550  1
  Te2-  Te226  1  0.41583389  0.41269557  0.08542211  1
  Te2-  Te227  1  0.41569158  0.41425849  0.42228090  1
  Te2-  Te228  1  0.41417669  0.41206148  0.74870779  1
  Te2-  Te229  1  0.40652122  0.74765240  0.07504900  1
  Te2-  Te230  1  0.41142608  0.74696805  0.41341635  1
  Te2-  Te231  1  0.40814603  0.74865212  0.74454439  1
  Te2-  Te232  1  0.74211528  0.08246561  0.07555594  1
  Te2-  Te233  1  0.74194245  0.07479562  0.41526517  1
  Te2-  Te234  1  0.74914743  0.07820385  0.74804516  1
  Te2-  Te235  1  0.74375040  0.41484058  0.07421647  1
  Te2-  Te236  1  0.74921838  0.41224614  0.41445132  1
  Te2-  Te237  1  0.75232996  0.41417608  0.74813632  1
  Te2-  Te238  1  0.74616484  0.74392188  0.08011628  1
  Te2-  Te239  1  0.74891640  0.74304490  0.41885535  1
  Te2-  Te240  1  0.74918390  0.74129086  0.74878144  1
