# generated using pymatgen
data_Ti27(Cu53Te54)2
_symmetry_space_group_name_H-M   'P 1'
_cell_length_a   17.88213324
_cell_length_b   17.88367310
_cell_length_c   17.88214737
_cell_angle_alpha   89.97852865
_cell_angle_beta   90.00371748
_cell_angle_gamma   90.01474086
_symmetry_Int_Tables_number   1
_chemical_formula_structural   Ti27(Cu53Te54)2
_chemical_formula_sum   'Ti27 Cu106 Te108'
_cell_volume   5718.67838947
_cell_formula_units_Z   1
loop_
 _symmetry_equiv_pos_site_id
 _symmetry_equiv_pos_as_xyz
  1  'x, y, z'
loop_
 _atom_type_symbol
 _atom_type_oxidation_number
  Ti4+  4.0
  Cu+  1.0
  Te2-  -2.0
loop_
 _atom_site_type_symbol
 _atom_site_label
 _atom_site_symmetry_multiplicity
 _atom_site_fract_x
 _atom_site_fract_y
 _atom_site_fract_z
 _atom_site_occupancy
  Ti4+  Ti0  1  0.16728203  0.16542195  0.16536401  1
  Ti4+  Ti1  1  0.16766286  0.16525610  0.49642272  1
  Ti4+  Ti2  1  0.16812693  0.16656168  0.83252281  1
  Ti4+  Ti3  1  0.16781073  0.50358126  0.16984922  1
  Ti4+  Ti4  1  0.16505941  0.49900357  0.49936986  1
  Ti4+  Ti5  1  0.16591381  0.49973214  0.83478529  1
  Ti4+  Ti6  1  0.16785123  0.83062172  0.16815981  1
  Ti4+  Ti7  1  0.16682026  0.83526281  0.50037134  1
  Ti4+  Ti8  1  0.16431194  0.83206272  0.83522015  1
  Ti4+  Ti9  1  0.49802057  0.16905115  0.16312758  1
  Ti4+  Ti10  1  0.49843179  0.16617320  0.49826386  1
  Ti4+  Ti11  1  0.49749921  0.16820903  0.83238336  1
  Ti4+  Ti12  1  0.49942524  0.49736322  0.16770780  1
  Ti4+  Ti13  1  0.49988036  0.49908702  0.50086017  1
  Ti4+  Ti14  1  0.50130499  0.49897099  0.83335333  1
  Ti4+  Ti15  1  0.50161859  0.83206330  0.16502673  1
  Ti4+  Ti16  1  0.49847106  0.83199815  0.50031659  1
  Ti4+  Ti17  1  0.50101743  0.83512118  0.83297549  1
  Ti4+  Ti18  1  0.82819795  0.16494824  0.16933805  1
  Ti4+  Ti19  1  0.83209846  0.16807492  0.49915604  1
  Ti4+  Ti20  1  0.83441214  0.16793742  0.83242975  1
  Ti4+  Ti21  1  0.83394521  0.49565426  0.16976020  1
  Ti4+  Ti22  1  0.83696186  0.50137408  0.49966929  1
  Ti4+  Ti23  1  0.83482218  0.50191527  0.83298654  1
  Ti4+  Ti24  1  0.83218113  0.83363171  0.16716383  1
  Ti4+  Ti25  1  0.83092703  0.83593540  0.50288505  1
  Ti4+  Ti26  1  0.83702666  0.83527615  0.83455805  1
  Cu+  Cu27  1  0.16424609  0.16206463  -0.00530167  1
  Cu+  Cu28  1  0.17439535  0.16436910  0.33194008  1
  Cu+  Cu29  1  0.16887118  0.16650860  0.66418497  1
  Cu+  Cu30  1  0.16646712  0.50020438  0.00280518  1
  Cu+  Cu31  1  0.15912622  0.50278468  0.33542437  1
  Cu+  Cu32  1  0.16566275  0.50219160  0.66586127  1
  Cu+  Cu33  1  0.16430983  0.82586167  0.00309031  1
  Cu+  Cu34  1  0.16794335  0.83227309  0.33241023  1
  Cu+  Cu35  1  0.16392958  0.83592189  0.66546437  1
  Cu+  Cu36  1  0.49405665  0.17327665  -0.00213367  1
  Cu+  Cu37  1  0.49863250  0.16799751  0.33124886  1
  Cu+  Cu38  1  0.49661294  0.16827272  0.66650283  1
  Cu+  Cu39  1  0.50141157  0.49574896  0.00072286  1
  Cu+  Cu40  1  0.50013065  0.49916288  0.33629613  1
  Cu+  Cu41  1  0.50036916  0.49883999  0.66588420  1
  Cu+  Cu42  1  0.50267678  0.83386308  -0.00106319  1
  Cu+  Cu43  1  0.49839997  0.83098812  0.33217171  1
  Cu+  Cu44  1  0.50200663  0.83577853  0.66529785  1
  Cu+  Cu45  1  0.83107497  0.16719089  0.00289571  1
  Cu+  Cu46  1  0.83399949  0.16506654  0.33404447  1
  Cu+  Cu47  1  0.83282700  0.17237288  0.66320687  1
  Cu+  Cu48  1  0.83298376  0.50100132  -0.00074197  1
  Cu+  Cu49  1  0.83752551  0.49801516  0.33310241  1
  Cu+  Cu50  1  0.83795773  0.49748785  0.66858951  1
  Cu+  Cu51  1  0.83347548  0.83300332  0.00084804  1
  Cu+  Cu52  1  0.82913463  0.83462229  0.33501187  1
  Cu+  Cu53  1  0.83515514  0.83703504  0.67118016  1
  Cu+  Cu54  1  0.16460314  -0.00555989  0.16377460  1
  Cu+  Cu55  1  0.16906226  0.00168032  0.49492045  1
  Cu+  Cu56  1  0.16354816  0.00046101  0.83373764  1
  Cu+  Cu57  1  0.17158169  0.33326360  0.17052550  1
  Cu+  Cu58  1  0.16779903  0.33203558  0.50033691  1
  Cu+  Cu59  1  0.16902741  0.33364678  0.83287737  1
  Cu+  Cu60  1  0.17397723  0.67101953  0.16344568  1
  Cu+  Cu61  1  0.16546745  0.66838822  0.50036425  1
  Cu+  Cu62  1  0.16302917  0.66447845  0.83849439  1
  Cu+  Cu63  1  0.49810022  -0.00211390  0.16341131  1
  Cu+  Cu64  1  0.49912198  -0.00195791  0.50079487  1
  Cu+  Cu65  1  0.49762008  0.00407463  0.83635797  1
  Cu+  Cu66  1  0.49948068  0.33519247  0.15729815  1
  Cu+  Cu67  1  0.49950109  0.33460656  0.50013103  1
  Cu+  Cu68  1  0.50062815  0.33050124  0.83273673  1
  Cu+  Cu69  1  0.50209219  0.66372414  0.16778899  1
  Cu+  Cu70  1  0.49892264  0.66464128  0.49988070  1
  Cu+  Cu71  1  0.50084697  0.66741865  0.83258231  1
  Cu+  Cu72  1  0.83055174  -0.00035089  0.16659207  1
  Cu+  Cu73  1  0.83147820  0.00396747  0.49887567  1
  Cu+  Cu74  1  0.83293108  -0.00066270  0.83074312  1
  Cu+  Cu75  1  0.82484019  0.32968891  0.17712567  1
  Cu+  Cu76  1  0.83881587  0.33331959  0.50165462  1
  Cu+  Cu77  1  0.83496320  0.33735907  0.83161023  1
  Cu+  Cu78  1  0.83449689  0.66547335  0.16755356  1
  Cu+  Cu79  1  0.83030905  0.66987787  0.50277098  1
  Cu+  Cu80  1  0.83813337  0.66867298  0.83226207  1
  Cu+  Cu81  1  -0.00791836  0.16247646  0.16379779  1
  Cu+  Cu82  1  -0.00066987  0.16473935  0.49840784  1
  Cu+  Cu83  1  0.00294129  0.16645141  0.83379625  1
  Cu+  Cu84  1  0.00417236  0.50135327  0.17581020  1
  Cu+  Cu85  1  0.00191306  0.50215003  0.48984699  1
  Cu+  Cu86  1  -0.00060417  0.49976767  0.83156117  1
  Cu+  Cu87  1  0.00081521  0.83502142  0.16846874  1
  Cu+  Cu88  1  -0.00139646  0.83635261  0.50330759  1
  Cu+  Cu89  1  0.00228108  0.82877410  0.83238401  1
  Cu+  Cu90  1  0.33136105  0.17329648  0.16489457  1
  Cu+  Cu91  1  0.33301979  0.16220357  0.49528078  1
  Cu+  Cu92  1  0.33566535  0.16575792  0.83120151  1
  Cu+  Cu93  1  0.33359055  0.50211320  0.16983224  1
  Cu+  Cu94  1  0.33267439  0.49922126  0.50102903  1
  Cu+  Cu95  1  0.33216678  0.50001510  0.83556700  1
  Cu+  Cu96  1  0.33538782  0.82838551  0.16461506  1
  Cu+  Cu97  1  0.33379292  0.83125116  0.50024753  1
  Cu+  Cu98  1  0.33379897  0.83448153  0.83340091  1
  Cu+  Cu99  1  0.66468763  0.16561939  0.16682022  1
  Cu+  Cu100  1  0.66570697  0.16884269  0.49914124  1
  Cu+  Cu101  1  0.66598728  0.16748713  0.83382888  1
  Cu+  Cu102  1  0.66749950  0.49137229  0.16906795  1
  Cu+  Cu103  1  0.66589110  0.50091301  0.50269843  1
  Cu+  Cu104  1  0.66999033  0.50347004  0.83358370  1
  Cu+  Cu105  1  0.66642514  0.83252807  0.16589288  1
  Cu+  Cu106  1  0.66209046  0.83654520  0.50511044  1
  Cu+  Cu107  1  0.66868311  0.83720255  0.83340483  1
  Cu+  Cu108  1  0.07908467  0.93065867  0.73477421  1
  Cu+  Cu109  1  0.59674358  0.25712614  0.92329489  1
  Cu+  Cu110  1  0.26543548  0.06811901  0.40331944  1
  Cu+  Cu111  1  0.26881423  0.74155515  0.06913855  1
  Cu+  Cu112  1  0.07104771  0.07401073  0.92094250  1
  Cu+  Cu113  1  0.58851235  0.93051199  0.59247215  1
  Cu+  Cu114  1  0.73384640  0.40665466  0.26856227  1
  Cu+  Cu115  1  0.07452839  0.91989301  0.07561291  1
  Cu+  Cu116  1  0.92552055  0.59852368  0.25577429  1
  Cu+  Cu117  1  0.40696368  0.26275996  0.73430999  1
  Cu+  Cu118  1  0.39896669  0.26560488  0.07083660  1
  Cu+  Cu119  1  0.92638085  0.25120010  0.25603358  1
  Cu+  Cu120  1  0.08219581  0.40171682  0.25904100  1
  Cu+  Cu121  1  0.91310896  0.07126410  0.07143793  1
  Cu+  Cu122  1  0.92649764  0.40548150  0.40833205  1
  Cu+  Cu123  1  0.93035475  0.40594323  0.74474233  1
  Cu+  Cu124  1  0.07610809  0.60259392  0.40962444  1
  Cu+  Cu125  1  0.92698906  0.06992084  0.40967498  1
  Cu+  Cu126  1  0.73986436  0.92669044  0.74388878  1
  Cu+  Cu127  1  0.59827121  0.41100426  0.07011740  1
  Cu+  Cu128  1  0.40802334  0.07216733  0.92942070  1
  Cu+  Cu129  1  0.92865827  0.74026255  0.73718729  1
  Cu+  Cu130  1  0.07153274  0.73301640  0.93180325  1
  Cu+  Cu131  1  0.26444776  0.26423652  0.26217517  1
  Cu+  Cu132  1  0.93044933  0.25729095  0.59260661  1
  Te2-  Te133  1  0.24631295  0.25341547  0.07459112  1
  Te2-  Te134  1  0.25556313  0.25539501  0.41384990  1
  Te2-  Te135  1  0.25270516  0.25301739  0.74539374  1
  Te2-  Te136  1  0.25526584  0.58516017  0.07993662  1
  Te2-  Te137  1  0.25118200  0.58485269  0.41528838  1
  Te2-  Te138  1  0.25012705  0.58617640  0.75027976  1
  Te2-  Te139  1  0.25321459  0.91500105  0.07904633  1
  Te2-  Te140  1  0.25508775  0.91661516  0.41186476  1
  Te2-  Te141  1  0.25003437  0.91834931  0.74975929  1
  Te2-  Te142  1  0.59114126  0.25351672  0.07725407  1
  Te2-  Te143  1  0.58292707  0.25245700  0.41403804  1
  Te2-  Te144  1  0.58663112  0.25170477  0.74505008  1
  Te2-  Te145  1  0.58830781  0.58090070  0.08331969  1
  Te2-  Te146  1  0.58638004  0.58474162  0.41548482  1
  Te2-  Te147  1  0.58502986  0.58451398  0.74796708  1
  Te2-  Te148  1  0.58674169  0.91893695  0.08016355  1
  Te2-  Te149  1  0.58353843  0.91782544  0.41277949  1
  Te2-  Te150  1  0.58611925  0.92630210  0.74812605  1
  Te2-  Te151  1  0.91292246  0.25574478  0.08478653  1
  Te2-  Te152  1  0.92320287  0.25350015  0.41017475  1
  Te2-  Te153  1  0.92341751  0.25304729  0.74727190  1
  Te2-  Te154  1  0.92021924  0.58076617  0.08456649  1
  Te2-  Te155  1  0.91826330  0.59471169  0.41157530  1
  Te2-  Te156  1  0.92259395  0.58783505  0.74495396  1
  Te2-  Te157  1  0.91966659  0.91993976  0.07882388  1
  Te2-  Te158  1  0.91780721  0.91860595  0.41466542  1
  Te2-  Te159  1  0.92570961  0.92302735  0.74795205  1
  Te2-  Te160  1  0.25483109  0.07581740  0.24582618  1
  Te2-  Te161  1  0.25237143  0.08059614  0.58419386  1
  Te2-  Te162  1  0.25450990  0.07815190  0.91776012  1
  Te2-  Te163  1  0.25419281  0.41869102  0.25827817  1
  Te2-  Te164  1  0.25025028  0.41492681  0.58581505  1
  Te2-  Te165  1  0.25075113  0.41489724  0.92072996  1
  Te2-  Te166  1  0.25533159  0.74715110  0.25540560  1
  Te2-  Te167  1  0.25000187  0.74893769  0.58641469  1
  Te2-  Te168  1  0.25480963  0.74579382  0.91761531  1
  Te2-  Te169  1  0.58039385  0.08172754  0.24858280  1
  Te2-  Te170  1  0.58526130  0.08399719  0.58660142  1
  Te2-  Te171  1  0.58422930  0.08439111  0.92198575  1
  Te2-  Te172  1  0.58158870  0.40845557  0.25640106  1
  Te2-  Te173  1  0.58600683  0.41307615  0.58619506  1
  Te2-  Te174  1  0.59119475  0.41203089  0.91782509  1
  Te2-  Te175  1  0.58614586  0.74707477  0.25167252  1
  Te2-  Te176  1  0.58386935  0.74495978  0.58653474  1
  Te2-  Te177  1  0.58748438  0.74974480  0.91607510  1
  Te2-  Te178  1  0.91799579  0.07556944  0.25467289  1
  Te2-  Te179  1  0.91759982  0.08179012  0.58669630  1
  Te2-  Te180  1  0.91831284  0.07927054  0.91890322  1
  Te2-  Te181  1  0.92536052  0.40595310  0.25633179  1
  Te2-  Te182  1  0.92722426  0.41532475  0.58624229  1
  Te2-  Te183  1  0.91985808  0.41551590  0.92054799  1
  Te2-  Te184  1  0.91868338  0.75091728  0.25543857  1
  Te2-  Te185  1  0.91885803  0.74914265  0.58633016  1
  Te2-  Te186  1  0.91994592  0.74659746  0.92366514  1
  Te2-  Te187  1  0.07996790  0.24749600  0.25344598  1
  Te2-  Te188  1  0.08238562  0.25131978  0.58457421  1
  Te2-  Te189  1  0.08229132  0.25408100  0.91757160  1
  Te2-  Te190  1  0.08219136  0.59771347  0.25393653  1
  Te2-  Te191  1  0.07853188  0.58517875  0.58369961  1
  Te2-  Te192  1  0.07683263  0.58183528  0.92317437  1
  Te2-  Te193  1  0.08187449  0.91817235  0.25483647  1
  Te2-  Te194  1  0.08049415  0.92486404  0.58269051  1
  Te2-  Te195  1  0.07749575  0.91962579  0.92338467  1
  Te2-  Te196  1  0.41590873  0.25716990  0.25180616  1
  Te2-  Te197  1  0.41065545  0.25255869  0.58149976  1
  Te2-  Te198  1  0.40682841  0.25850859  0.91786585  1
  Te2-  Te199  1  0.41667297  0.58463215  0.25394462  1
  Te2-  Te200  1  0.41373709  0.58440826  0.58620795  1
  Te2-  Te201  1  0.41779970  0.58393826  0.91907371  1
  Te2-  Te202  1  0.41399341  0.91642581  0.24925583  1
  Te2-  Te203  1  0.41158553  0.91855541  0.58610915  1
  Te2-  Te204  1  0.41332084  0.91842673  0.92118729  1
  Te2-  Te205  1  0.73886492  0.24791295  0.25970071  1
  Te2-  Te206  1  0.74578393  0.25612805  0.58298970  1
  Te2-  Te207  1  0.75141374  0.25465704  0.91843773  1
  Te2-  Te208  1  0.74676717  0.58179358  0.25279222  1
  Te2-  Te209  1  0.75150629  0.58259727  0.58696392  1
  Te2-  Te210  1  0.75076920  0.58898599  0.91866934  1
  Te2-  Te211  1  0.74606114  0.91863968  0.25141111  1
  Te2-  Te212  1  0.74662264  0.92502394  0.58905175  1
  Te2-  Te213  1  0.74984807  0.92058802  0.92093829  1
  Te2-  Te214  1  0.07703552  0.07840605  0.07881744  1
  Te2-  Te215  1  0.08062148  0.08009476  0.40926412  1
  Te2-  Te216  1  0.08058985  0.08298363  0.74313730  1
  Te2-  Te217  1  0.08286890  0.41561866  0.08664603  1
  Te2-  Te218  1  0.08001986  0.40524735  0.41169408  1
  Te2-  Te219  1  0.08290828  0.41299923  0.74598595  1
  Te2-  Te220  1  0.07497392  0.74210877  0.08464192  1
  Te2-  Te221  1  0.07828174  0.75274848  0.41435506  1
  Te2-  Te222  1  0.08354201  0.74319975  0.74451254  1
  Te2-  Te223  1  0.41060421  0.08085608  0.08099893  1
  Te2-  Te224  1  0.41676692  0.07745276  0.41012730  1
  Te2-  Te225  1  0.41371325  0.07921465  0.74499083  1
  Te2-  Te226  1  0.40707009  0.41677393  0.07882986  1
  Te2-  Te227  1  0.41304314  0.41421574  0.41519582  1
  Te2-  Te228  1  0.41319025  0.41491094  0.74760545  1
  Te2-  Te229  1  0.41941276  0.74312040  0.07725564  1
  Te2-  Te230  1  0.41389898  0.74591231  0.41447541  1
  Te2-  Te231  1  0.41608664  0.75058115  0.74783336  1
  Te2-  Te232  1  0.74369330  0.07982113  0.08065207  1
  Te2-  Te233  1  0.74438362  0.08282508  0.41398039  1
  Te2-  Te234  1  0.74776462  0.08509329  0.74559963  1
  Te2-  Te235  1  0.75170686  0.41013033  0.07889516  1
  Te2-  Te236  1  0.74773647  0.41410993  0.41828908  1
  Te2-  Te237  1  0.74735462  0.41618637  0.74724104  1
  Te2-  Te238  1  0.74935168  0.74652554  0.08227935  1
  Te2-  Te239  1  0.74450282  0.75151731  0.41897942  1
  Te2-  Te240  1  0.74904095  0.74920963  0.74982192  1
