# generated using pymatgen
data_Ti27(Cu53Te54)2
_symmetry_space_group_name_H-M   'P 1'
_cell_length_a   17.92284354
_cell_length_b   17.92499150
_cell_length_c   17.92906888
_cell_angle_alpha   89.92554409
_cell_angle_beta   90.06110159
_cell_angle_gamma   89.99320088
_symmetry_Int_Tables_number   1
_chemical_formula_structural   Ti27(Cu53Te54)2
_chemical_formula_sum   'Ti27 Cu106 Te108'
_cell_volume   5760.00672973
_cell_formula_units_Z   1
loop_
 _symmetry_equiv_pos_site_id
 _symmetry_equiv_pos_as_xyz
  1  'x, y, z'
loop_
 _atom_type_symbol
 _atom_type_oxidation_number
  Ti4+  4.0
  Cu+  1.0
  Te2-  -2.0
loop_
 _atom_site_type_symbol
 _atom_site_label
 _atom_site_symmetry_multiplicity
 _atom_site_fract_x
 _atom_site_fract_y
 _atom_site_fract_z
 _atom_site_occupancy
  Ti4+  Ti0  1  0.16129741  0.16740450  0.16610467  1
  Ti4+  Ti1  1  0.16789384  0.16855627  0.49708650  1
  Ti4+  Ti2  1  0.16670315  0.16849124  0.83016939  1
  Ti4+  Ti3  1  0.16712407  0.50335150  0.16302250  1
  Ti4+  Ti4  1  0.16948855  0.50320732  0.50091363  1
  Ti4+  Ti5  1  0.16993275  0.50145983  0.83310112  1
  Ti4+  Ti6  1  0.16282349  0.83354274  0.16881322  1
  Ti4+  Ti7  1  0.16844768  0.83229101  0.50456546  1
  Ti4+  Ti8  1  0.16506746  0.83360613  0.83317530  1
  Ti4+  Ti9  1  0.49826921  0.16807095  0.16806032  1
  Ti4+  Ti10  1  0.49821892  0.17033697  0.49991076  1
  Ti4+  Ti11  1  0.49915927  0.16659304  0.83520880  1
  Ti4+  Ti12  1  0.49944747  0.49623420  0.16755567  1
  Ti4+  Ti13  1  0.49927234  0.50125445  0.49955082  1
  Ti4+  Ti14  1  0.50354421  0.49953838  0.83581200  1
  Ti4+  Ti15  1  0.49839548  0.83227284  0.16690820  1
  Ti4+  Ti16  1  0.50229222  0.83256602  0.49842724  1
  Ti4+  Ti17  1  0.50006218  0.83499727  0.83339399  1
  Ti4+  Ti18  1  0.83149829  0.16318742  0.17069032  1
  Ti4+  Ti19  1  0.83476200  0.16635457  0.50179915  1
  Ti4+  Ti20  1  0.83476013  0.16540359  0.83497300  1
  Ti4+  Ti21  1  0.83421467  0.49708447  0.16443290  1
  Ti4+  Ti22  1  0.83421093  0.49945660  0.49887546  1
  Ti4+  Ti23  1  0.83655748  0.50040516  0.83238632  1
  Ti4+  Ti24  1  0.82872769  0.83227188  0.16346161  1
  Ti4+  Ti25  1  0.83378595  0.83117569  0.49805574  1
  Ti4+  Ti26  1  0.83373310  0.83420860  0.83094109  1
  Cu+  Cu27  1  0.16115705  0.16746896  -0.00389173  1
  Cu+  Cu28  1  0.16223364  0.16488097  0.33052573  1
  Cu+  Cu29  1  0.17064738  0.17121403  0.66141907  1
  Cu+  Cu30  1  0.17087223  0.50373244  -0.00203560  1
  Cu+  Cu31  1  0.16645138  0.50305736  0.33136829  1
  Cu+  Cu32  1  0.17291550  0.50592099  0.66819253  1
  Cu+  Cu33  1  0.16502698  0.83539220  0.00117701  1
  Cu+  Cu34  1  0.16534394  0.83343935  0.34061604  1
  Cu+  Cu35  1  0.16218681  0.82968199  0.66818858  1
  Cu+  Cu36  1  0.49939798  0.16347770  0.00184664  1
  Cu+  Cu37  1  0.49476125  0.17596513  0.33437577  1
  Cu+  Cu38  1  0.49927247  0.16848327  0.66938865  1
  Cu+  Cu39  1  0.49630348  0.49479560  0.00152556  1
  Cu+  Cu40  1  0.50240955  0.49407709  0.33725600  1
  Cu+  Cu41  1  0.50262431  0.50264936  0.66764564  1
  Cu+  Cu42  1  0.49520175  0.83255720  -0.00247725  1
  Cu+  Cu43  1  0.50516557  0.83258335  0.33222788  1
  Cu+  Cu44  1  0.50264321  0.83112238  0.66742724  1
  Cu+  Cu45  1  0.83262619  0.16225983  0.00419938  1
  Cu+  Cu46  1  0.83407752  0.16757707  0.33790658  1
  Cu+  Cu47  1  0.83492918  0.16358919  0.67011543  1
  Cu+  Cu48  1  0.83310291  0.49555466  -0.00387308  1
  Cu+  Cu49  1  0.83222732  0.50045897  0.33181202  1
  Cu+  Cu50  1  0.83508727  0.50021114  0.66591124  1
  Cu+  Cu51  1  0.83060596  0.83016680  -0.00259001  1
  Cu+  Cu52  1  0.83112366  0.83259791  0.32940456  1
  Cu+  Cu53  1  0.83391644  0.83660093  0.66261243  1
  Cu+  Cu54  1  0.16129601  -0.00029528  0.16936606  1
  Cu+  Cu55  1  0.16706459  -0.00007383  0.49739456  1
  Cu+  Cu56  1  0.16395419  -0.00014356  0.83175326  1
  Cu+  Cu57  1  0.16120701  0.33853919  0.16619209  1
  Cu+  Cu58  1  0.17142857  0.33386579  0.49975039  1
  Cu+  Cu59  1  0.16920872  0.33539845  0.82929462  1
  Cu+  Cu60  1  0.16644079  0.66802986  0.16568982  1
  Cu+  Cu61  1  0.17375886  0.66748311  0.50807722  1
  Cu+  Cu62  1  0.16902517  0.66748035  0.83351044  1
  Cu+  Cu63  1  0.50096127  0.00078293  0.16815409  1
  Cu+  Cu64  1  0.49845614  0.00266961  0.49981825  1
  Cu+  Cu65  1  0.49823592  -0.00047371  0.83421925  1
  Cu+  Cu66  1  0.50505272  0.33234350  0.16810225  1
  Cu+  Cu67  1  0.49520305  0.33502834  0.49473487  1
  Cu+  Cu68  1  0.49802778  0.33242963  0.83841803  1
  Cu+  Cu69  1  0.49465535  0.66248905  0.16540165  1
  Cu+  Cu70  1  0.50256457  0.66869456  0.49646149  1
  Cu+  Cu71  1  0.50629159  0.66970353  0.83130061  1
  Cu+  Cu72  1  0.83372669  -0.00181084  0.16665698  1
  Cu+  Cu73  1  0.83609652  -0.00271032  0.50162273  1
  Cu+  Cu74  1  0.83574304  0.00167006  0.82947778  1
  Cu+  Cu75  1  0.83483448  0.32826559  0.17023744  1
  Cu+  Cu76  1  0.83336962  0.33339538  0.50202180  1
  Cu+  Cu77  1  0.83467071  0.33223188  0.83564213  1
  Cu+  Cu78  1  0.82947981  0.66546123  0.15793178  1
  Cu+  Cu79  1  0.83347553  0.66283181  0.49734919  1
  Cu+  Cu80  1  0.83419533  0.66540587  0.83006630  1
  Cu+  Cu81  1  -0.00375686  0.16156325  0.17327273  1
  Cu+  Cu82  1  0.00147529  0.16675438  0.49956162  1
  Cu+  Cu83  1  0.00288799  0.16217100  0.83354475  1
  Cu+  Cu84  1  0.00250617  0.49874275  0.16648282  1
  Cu+  Cu85  1  -0.00079769  0.50114517  0.49837806  1
  Cu+  Cu86  1  0.00287623  0.50208097  0.83073213  1
  Cu+  Cu87  1  -0.00678030  0.83067050  0.16394321  1
  Cu+  Cu88  1  0.00184145  0.83411801  0.50615835  1
  Cu+  Cu89  1  0.00005659  0.83368159  0.83198686  1
  Cu+  Cu90  1  0.32741295  0.16891782  0.16468780  1
  Cu+  Cu91  1  0.33260706  0.17550040  0.49750675  1
  Cu+  Cu92  1  0.33278216  0.16682994  0.83205266  1
  Cu+  Cu93  1  0.33437210  0.50476806  0.16228180  1
  Cu+  Cu94  1  0.33268450  0.50785805  0.50533728  1
  Cu+  Cu95  1  0.33827459  0.49770115  0.83731510  1
  Cu+  Cu96  1  0.33147592  0.83339954  0.16893800  1
  Cu+  Cu97  1  0.33611137  0.82942742  0.49954209  1
  Cu+  Cu98  1  0.33228584  0.83471152  0.83331356  1
  Cu+  Cu99  1  0.66131707  0.16564566  0.16927229  1
  Cu+  Cu100  1  0.66948585  0.16629403  0.50404667  1
  Cu+  Cu101  1  0.66642718  0.16837577  0.83674651  1
  Cu+  Cu102  1  0.66691195  0.49393898  0.16317521  1
  Cu+  Cu103  1  0.66888212  0.49934944  0.49978247  1
  Cu+  Cu104  1  0.67317567  0.49858044  0.83692939  1
  Cu+  Cu105  1  0.66197451  0.83625112  0.16857929  1
  Cu+  Cu106  1  0.66669259  0.82871548  0.49358185  1
  Cu+  Cu107  1  0.66552934  0.83331046  0.82941711  1
  Cu+  Cu108  1  0.58748149  0.07059017  0.07223384  1
  Cu+  Cu109  1  0.59284078  0.40578197  0.07301858  1
  Cu+  Cu110  1  0.40443158  0.40204182  0.92703945  1
  Cu+  Cu111  1  0.92210049  0.73528567  0.06850262  1
  Cu+  Cu112  1  0.59580937  0.74057903  0.73862306  1
  Cu+  Cu113  1  0.92268043  0.91852069  0.25549630  1
  Cu+  Cu114  1  0.59864788  0.40511227  0.41915668  1
  Cu+  Cu115  1  0.07947920  0.07066247  0.92337422  1
  Cu+  Cu116  1  0.26149128  0.26274191  0.59397393  1
  Cu+  Cu117  1  0.74617133  0.40237633  0.92272591  1
  Cu+  Cu118  1  0.26077785  0.74083571  0.40831338  1
  Cu+  Cu119  1  0.07714880  0.41439926  0.26260115  1
  Cu+  Cu120  1  0.93069811  0.07757558  0.73949522  1
  Cu+  Cu121  1  0.92739319  0.92615630  0.59242414  1
  Cu+  Cu122  1  0.92319178  0.25829372  0.26505282  1
  Cu+  Cu123  1  0.59293855  0.25883581  0.26151735  1
  Cu+  Cu124  1  0.07141941  0.73608460  0.59566578  1
  Cu+  Cu125  1  0.92433633  0.07293127  0.07690701  1
  Cu+  Cu126  1  0.07477710  0.92435521  0.41526557  1
  Cu+  Cu127  1  0.58910670  0.92850609  0.26141244  1
  Cu+  Cu128  1  0.59682089  0.73813632  0.40154864  1
  Cu+  Cu129  1  0.07509058  0.07206809  0.26121551  1
  Cu+  Cu130  1  0.40731598  0.59470463  0.07115937  1
  Cu+  Cu131  1  0.26703156  0.59726293  0.60096131  1
  Cu+  Cu132  1  0.40105215  0.26619492  0.40213046  1
  Te2-  Te133  1  0.24369070  0.25285611  0.08065255  1
  Te2-  Te134  1  0.24883315  0.25443132  0.40548060  1
  Te2-  Te135  1  0.25556995  0.25453076  0.74659253  1
  Te2-  Te136  1  0.25334670  0.59177722  0.07757952  1
  Te2-  Te137  1  0.25376147  0.58771519  0.41134005  1
  Te2-  Te138  1  0.26027590  0.58822325  0.75207798  1
  Te2-  Te139  1  0.24777313  0.91878181  0.08612588  1
  Te2-  Te140  1  0.25515372  0.91800826  0.41709349  1
  Te2-  Te141  1  0.24884889  0.91831096  0.74688869  1
  Te2-  Te142  1  0.58690252  0.25203864  0.07802846  1
  Te2-  Te143  1  0.59161473  0.25415364  0.41504759  1
  Te2-  Te144  1  0.58414062  0.25322060  0.75175260  1
  Te2-  Te145  1  0.58401792  0.58214308  0.08138610  1
  Te2-  Te146  1  0.58774725  0.58538173  0.41262942  1
  Te2-  Te147  1  0.59134034  0.58341906  0.74940985  1
  Te2-  Te148  1  0.58278749  0.91755930  0.07768220  1
  Te2-  Te149  1  0.58693110  0.92330086  0.41491955  1
  Te2-  Te150  1  0.58438203  0.92190647  0.74699629  1
  Te2-  Te151  1  0.91865082  0.24756880  0.08381235  1
  Te2-  Te152  1  0.92087436  0.25445839  0.41715942  1
  Te2-  Te153  1  0.91990479  0.25139240  0.75083294  1
  Te2-  Te154  1  0.91951749  0.58121845  0.07768253  1
  Te2-  Te155  1  0.91914619  0.58454325  0.41164962  1
  Te2-  Te156  1  0.92037380  0.58585438  0.74567311  1
  Te2-  Te157  1  0.91688781  0.91919800  0.07602674  1
  Te2-  Te158  1  0.92069402  0.91855481  0.41110474  1
  Te2-  Te159  1  0.92273584  0.92072729  0.74478154  1
  Te2-  Te160  1  0.24949331  0.08201929  0.25018722  1
  Te2-  Te161  1  0.25384587  0.08203351  0.58006396  1
  Te2-  Te162  1  0.25012080  0.08212928  0.91732379  1
  Te2-  Te163  1  0.25299596  0.41822179  0.24842581  1
  Te2-  Te164  1  0.25493293  0.41628930  0.58723098  1
  Te2-  Te165  1  0.25291772  0.41259300  0.92030812  1
  Te2-  Te166  1  0.24937670  0.74895357  0.25399084  1
  Te2-  Te167  1  0.25906588  0.74995882  0.59407446  1
  Te2-  Te168  1  0.25069554  0.75087514  0.91947817  1
  Te2-  Te169  1  0.58193516  0.08322481  0.25999090  1
  Te2-  Te170  1  0.58220197  0.08467210  0.58512755  1
  Te2-  Te171  1  0.58623297  0.07899432  0.91933056  1
  Te2-  Te172  1  0.59054705  0.41189142  0.25718197  1
  Te2-  Te173  1  0.58344236  0.41419964  0.58402814  1
  Te2-  Te174  1  0.59056276  0.41040048  0.92138459  1
  Te2-  Te175  1  0.58519363  0.74109418  0.24845831  1
  Te2-  Te176  1  0.58844811  0.74564037  0.58514515  1
  Te2-  Te177  1  0.58681569  0.75080007  0.92072928  1
  Te2-  Te178  1  0.91731310  0.07442819  0.26106945  1
  Te2-  Te179  1  0.92367474  0.07951987  0.58682835  1
  Te2-  Te180  1  0.92103372  0.07658969  0.92269162  1
  Te2-  Te181  1  0.92056787  0.41339172  0.25437470  1
  Te2-  Te182  1  0.92002117  0.41517207  0.58471716  1
  Te2-  Te183  1  0.92415602  0.41439975  0.91673781  1
  Te2-  Te184  1  0.91346492  0.74396018  0.24919185  1
  Te2-  Te185  1  0.91718686  0.74387548  0.58566475  1
  Te2-  Te186  1  0.91896560  0.74669309  0.91603023  1
  Te2-  Te187  1  0.07691095  0.25642149  0.25450857  1
  Te2-  Te188  1  0.08165938  0.25396948  0.58209334  1
  Te2-  Te189  1  0.08081312  0.25582253  0.91315155  1
  Te2-  Te190  1  0.08065161  0.58806255  0.25005418  1
  Te2-  Te191  1  0.07988461  0.58457992  0.58704392  1
  Te2-  Te192  1  0.08353566  0.58616476  0.91709256  1
  Te2-  Te193  1  0.07443432  0.91848556  0.25767727  1
  Te2-  Te194  1  0.08303992  0.92399977  0.58988616  1
  Te2-  Te195  1  0.07807227  0.91858759  0.91972787  1
  Te2-  Te196  1  0.40804095  0.25715737  0.24837316  1
  Te2-  Te197  1  0.41531188  0.25653214  0.58849935  1
  Te2-  Te198  1  0.41157980  0.24935375  0.92331318  1
  Te2-  Te199  1  0.41608963  0.58021870  0.25598268  1
  Te2-  Te200  1  0.41938070  0.59103617  0.58772459  1
  Te2-  Te201  1  0.41883240  0.58941965  0.91823942  1
  Te2-  Te202  1  0.41506827  0.91789294  0.25304550  1
  Te2-  Te203  1  0.41730611  0.91594675  0.58395808  1
  Te2-  Te204  1  0.41223788  0.91969130  0.91812420  1
  Te2-  Te205  1  0.74563630  0.25085582  0.25588467  1
  Te2-  Te206  1  0.75160786  0.25042132  0.58871662  1
  Te2-  Te207  1  0.74937666  0.24921771  0.92308025  1
  Te2-  Te208  1  0.74781111  0.58224937  0.24550438  1
  Te2-  Te209  1  0.74841631  0.58410890  0.58468336  1
  Te2-  Te210  1  0.75150197  0.58767303  0.91924718  1
  Te2-  Te211  1  0.74435235  0.92113102  0.25278938  1
  Te2-  Te212  1  0.74470774  0.91588032  0.57995067  1
  Te2-  Te213  1  0.74893226  0.91875165  0.91423310  1
  Te2-  Te214  1  0.07676310  0.07787036  0.07861377  1
  Te2-  Te215  1  0.07699651  0.07938382  0.41356409  1
  Te2-  Te216  1  0.08447980  0.08214237  0.73965258  1
  Te2-  Te217  1  0.08202740  0.41904125  0.07517548  1
  Te2-  Te218  1  0.08364361  0.41600327  0.41660397  1
  Te2-  Te219  1  0.08559741  0.41877242  0.74533113  1
  Te2-  Te220  1  0.07914429  0.74842206  0.08074444  1
  Te2-  Te221  1  0.08148018  0.74436251  0.42093514  1
  Te2-  Te222  1  0.07821892  0.74381051  0.74956355  1
  Te2-  Te223  1  0.41170163  0.08171151  0.08466509  1
  Te2-  Te224  1  0.41316697  0.08498915  0.41477045  1
  Te2-  Te225  1  0.41479391  0.08182416  0.74886415  1
  Te2-  Te226  1  0.41059668  0.40760260  0.08341470  1
  Te2-  Te227  1  0.40579764  0.41918904  0.41525207  1
  Te2-  Te228  1  0.41904861  0.41588080  0.74842487  1
  Te2-  Te229  1  0.41069977  0.74857890  0.08078056  1
  Te2-  Te230  1  0.41596821  0.74692281  0.41023195  1
  Te2-  Te231  1  0.41413377  0.74828564  0.74913870  1
  Te2-  Te232  1  0.74261156  0.07870938  0.08381709  1
  Te2-  Te233  1  0.74974064  0.08038052  0.41786367  1
  Te2-  Te234  1  0.74528571  0.08292991  0.75063786  1
  Te2-  Te235  1  0.74992640  0.40663448  0.07974431  1
  Te2-  Te236  1  0.74968833  0.41179088  0.41242597  1
  Te2-  Te237  1  0.75059893  0.41362159  0.74712621  1
  Te2-  Te238  1  0.74002708  0.74996422  0.07912505  1
  Te2-  Te239  1  0.75042847  0.74381492  0.40996293  1
  Te2-  Te240  1  0.75019533  0.74853460  0.74408362  1
