# generated using pymatgen
data_Ti27(Cu53Te54)2
_symmetry_space_group_name_H-M   'P 1'
_cell_length_a   17.87863910
_cell_length_b   17.87783105
_cell_length_c   17.87497747
_cell_angle_alpha   89.98618856
_cell_angle_beta   89.98542711
_cell_angle_gamma   89.99811849
_symmetry_Int_Tables_number   1
_chemical_formula_structural   Ti27(Cu53Te54)2
_chemical_formula_sum   'Ti27 Cu106 Te108'
_cell_volume   5713.40173583
_cell_formula_units_Z   1
loop_
 _symmetry_equiv_pos_site_id
 _symmetry_equiv_pos_as_xyz
  1  'x, y, z'
loop_
 _atom_type_symbol
 _atom_type_oxidation_number
  Ti4+  4.0
  Cu+  1.0
  Te2-  -2.0
loop_
 _atom_site_type_symbol
 _atom_site_label
 _atom_site_symmetry_multiplicity
 _atom_site_fract_x
 _atom_site_fract_y
 _atom_site_fract_z
 _atom_site_occupancy
  Ti4+  Ti0  1  0.16217953  0.16727740  0.16362187  1
  Ti4+  Ti1  1  0.16880472  0.16595398  0.49919239  1
  Ti4+  Ti2  1  0.17056157  0.16458587  0.83460878  1
  Ti4+  Ti3  1  0.16640262  0.50233744  0.16678811  1
  Ti4+  Ti4  1  0.16908061  0.50033494  0.50082086  1
  Ti4+  Ti5  1  0.16672200  0.50127945  0.83563751  1
  Ti4+  Ti6  1  0.16455943  0.83291989  0.16626276  1
  Ti4+  Ti7  1  0.16624363  0.83376983  0.50054166  1
  Ti4+  Ti8  1  0.16499951  0.83295112  0.83419798  1
  Ti4+  Ti9  1  0.49905845  0.16502976  0.16384009  1
  Ti4+  Ti10  1  0.49760378  0.16704017  0.49728788  1
  Ti4+  Ti11  1  0.50037791  0.17056431  0.83425884  1
  Ti4+  Ti12  1  0.49975312  0.50093767  0.16685384  1
  Ti4+  Ti13  1  0.50071459  0.50053383  0.49695314  1
  Ti4+  Ti14  1  0.50020348  0.49890347  0.83295469  1
  Ti4+  Ti15  1  0.49963118  0.83028095  0.16653076  1
  Ti4+  Ti16  1  0.49842670  0.83482061  0.49993599  1
  Ti4+  Ti17  1  0.50043251  0.83331451  0.83311080  1
  Ti4+  Ti18  1  0.83509294  0.16475613  0.16920581  1
  Ti4+  Ti19  1  0.83142148  0.16958036  0.49952272  1
  Ti4+  Ti20  1  0.83496745  0.16946911  0.83276783  1
  Ti4+  Ti21  1  0.83579557  0.50055957  0.16746589  1
  Ti4+  Ti22  1  0.83933253  0.49792231  0.50207646  1
  Ti4+  Ti23  1  0.83046050  0.49942127  0.83060725  1
  Ti4+  Ti24  1  0.83401390  0.83358400  0.16955168  1
  Ti4+  Ti25  1  0.83063018  0.83150376  0.49873155  1
  Ti4+  Ti26  1  0.83144014  0.83374358  0.83087146  1
  Cu+  Cu27  1  0.17181314  0.16122421  -0.00115739  1
  Cu+  Cu28  1  0.16277081  0.16691847  0.33303937  1
  Cu+  Cu29  1  0.16948869  0.16563962  0.66721636  1
  Cu+  Cu30  1  0.16200554  0.50375712  0.00124063  1
  Cu+  Cu31  1  0.17128983  0.49855552  0.33638268  1
  Cu+  Cu32  1  0.16886648  0.50038430  0.66727872  1
  Cu+  Cu33  1  0.16470356  0.83318372  0.00382172  1
  Cu+  Cu34  1  0.16726563  0.83154836  0.33683884  1
  Cu+  Cu35  1  0.16687465  0.83638016  0.66510665  1
  Cu+  Cu36  1  0.50099568  0.16599467  -0.00310841  1
  Cu+  Cu37  1  0.49724009  0.16621739  0.32987208  1
  Cu+  Cu38  1  0.49591955  0.16954248  0.66448873  1
  Cu+  Cu39  1  0.50241869  0.50188727  0.00018818  1
  Cu+  Cu40  1  0.50202065  0.50002345  0.33003859  1
  Cu+  Cu41  1  0.49876058  0.49943555  0.66436005  1
  Cu+  Cu42  1  0.50121612  0.83367199  0.00045123  1
  Cu+  Cu43  1  0.49870552  0.82815015  0.33278742  1
  Cu+  Cu44  1  0.49864597  0.83329081  0.66853427  1
  Cu+  Cu45  1  0.83599204  0.16474855  0.00440583  1
  Cu+  Cu46  1  0.83470230  0.17108293  0.33285792  1
  Cu+  Cu47  1  0.83337828  0.17461291  0.66520540  1
  Cu+  Cu48  1  0.83089294  0.49944973  -0.00241287  1
  Cu+  Cu49  1  0.84001205  0.50383767  0.33373413  1
  Cu+  Cu50  1  0.83678288  0.48786677  0.66828992  1
  Cu+  Cu51  1  0.83095825  0.83118498  -0.00233546  1
  Cu+  Cu52  1  0.83014056  0.83813393  0.33590454  1
  Cu+  Cu53  1  0.83379094  0.83024697  0.66597000  1
  Cu+  Cu54  1  0.15947063  0.00105955  0.16171079  1
  Cu+  Cu55  1  0.16853099  -0.00338565  0.50302393  1
  Cu+  Cu56  1  0.16484351  -0.00064059  0.83586004  1
  Cu+  Cu57  1  0.16350212  0.33742606  0.16625607  1
  Cu+  Cu58  1  0.17124065  0.33570135  0.49720730  1
  Cu+  Cu59  1  0.17165301  0.33297313  0.83712193  1
  Cu+  Cu60  1  0.16430696  0.66588652  0.15989526  1
  Cu+  Cu61  1  0.16688641  0.66734398  0.50131128  1
  Cu+  Cu62  1  0.16497770  0.66681757  0.83412876  1
  Cu+  Cu63  1  0.49965040  -0.00470538  0.16648339  1
  Cu+  Cu64  1  0.49654963  0.00325800  0.50019925  1
  Cu+  Cu65  1  0.50032418  0.00115840  0.83354950  1
  Cu+  Cu66  1  0.49885680  0.33385630  0.16356630  1
  Cu+  Cu67  1  0.50039340  0.33186782  0.49703405  1
  Cu+  Cu68  1  0.49946416  0.33195449  0.83199122  1
  Cu+  Cu69  1  0.49516730  0.66747165  0.17006718  1
  Cu+  Cu70  1  0.50249873  0.66857064  0.49722017  1
  Cu+  Cu71  1  0.50199684  0.66624715  0.83475042  1
  Cu+  Cu72  1  0.83793326  -0.00260276  0.17172994  1
  Cu+  Cu73  1  0.82698008  0.00102763  0.49716605  1
  Cu+  Cu74  1  0.83255533  0.00002422  0.83205604  1
  Cu+  Cu75  1  0.83563416  0.33206392  0.16859643  1
  Cu+  Cu76  1  0.83612972  0.33450616  0.50972904  1
  Cu+  Cu77  1  0.83020341  0.33267784  0.82451797  1
  Cu+  Cu78  1  0.83886121  0.66665574  0.17205947  1
  Cu+  Cu79  1  0.82997676  0.66023245  0.49790792  1
  Cu+  Cu80  1  0.83196330  0.66905725  0.82791596  1
  Cu+  Cu81  1  -0.00094864  0.16511517  0.17450310  1
  Cu+  Cu82  1  -0.00022609  0.16741825  0.50021098  1
  Cu+  Cu83  1  0.00509725  0.16481997  0.83425622  1
  Cu+  Cu84  1  0.00076034  0.50807699  0.16877388  1
  Cu+  Cu85  1  0.00729636  0.50039134  0.50162095  1
  Cu+  Cu86  1  -0.00096890  0.49914347  0.83303693  1
  Cu+  Cu87  1  -0.00271270  0.83967841  0.16943457  1
  Cu+  Cu88  1  0.00132918  0.82965453  0.50100248  1
  Cu+  Cu89  1  -0.00551483  0.83165150  0.82886989  1
  Cu+  Cu90  1  0.33116454  0.16647776  0.15970983  1
  Cu+  Cu91  1  0.33396065  0.16531151  0.49766379  1
  Cu+  Cu92  1  0.33589329  0.17163308  0.83942337  1
  Cu+  Cu93  1  0.33452560  0.50152631  0.16669790  1
  Cu+  Cu94  1  0.33373732  0.49820061  0.49697272  1
  Cu+  Cu95  1  0.33337519  0.49828473  0.83351620  1
  Cu+  Cu96  1  0.33432979  0.82544343  0.16732985  1
  Cu+  Cu97  1  0.32930829  0.83827389  0.50378056  1
  Cu+  Cu98  1  0.33414971  0.83226480  0.83460504  1
  Cu+  Cu99  1  0.66836710  0.16237390  0.16521401  1
  Cu+  Cu100  1  0.65997898  0.16605497  0.49786296  1
  Cu+  Cu101  1  0.66884279  0.17386497  0.83366540  1
  Cu+  Cu102  1  0.66689765  0.49835320  0.16591203  1
  Cu+  Cu103  1  0.67063683  0.50028467  0.49871604  1
  Cu+  Cu104  1  0.66101541  0.50430085  0.83667785  1
  Cu+  Cu105  1  0.66776873  0.83084542  0.16694490  1
  Cu+  Cu106  1  0.66448331  0.83415773  0.49387008  1
  Cu+  Cu107  1  0.66714762  0.83557350  0.83236606  1
  Cu+  Cu108  1  0.06803978  0.59287712  0.06917372  1
  Cu+  Cu109  1  0.26059098  0.92863662  0.59834020  1
  Cu+  Cu110  1  0.26045815  0.06971824  0.07844426  1
  Cu+  Cu111  1  0.06803027  0.92562095  0.07202620  1
  Cu+  Cu112  1  0.92633496  0.26433834  0.26013439  1
  Cu+  Cu113  1  0.73637238  0.25800933  0.73634119  1
  Cu+  Cu114  1  0.59243140  0.74037346  0.40487722  1
  Cu+  Cu115  1  0.74191520  0.58317440  0.40389684  1
  Cu+  Cu116  1  0.93370843  0.40439298  0.74792571  1
  Cu+  Cu117  1  0.73344908  0.93269984  0.40669392  1
  Cu+  Cu118  1  0.07067790  0.07188778  0.92173600  1
  Cu+  Cu119  1  0.93481527  0.25463184  0.59426914  1
  Cu+  Cu120  1  0.92705133  0.73874480  0.73609783  1
  Cu+  Cu121  1  0.07793351  0.07313731  0.26516152  1
  Cu+  Cu122  1  0.73548825  0.41195010  0.59102011  1
  Cu+  Cu123  1  0.59989216  0.25857454  0.93077757  1
  Cu+  Cu124  1  0.58968735  0.59843429  0.93116417  1
  Cu+  Cu125  1  0.26212203  0.73735870  0.07233567  1
  Cu+  Cu126  1  0.26416643  0.40489948  0.40449461  1
  Cu+  Cu127  1  0.40456419  0.26050863  0.73515447  1
  Cu+  Cu128  1  0.41288307  0.07007542  0.92404203  1
  Cu+  Cu129  1  0.93319301  0.59817221  0.26451065  1
  Cu+  Cu130  1  0.25964905  0.26493217  0.93035875  1
  Cu+  Cu131  1  0.40178671  0.73818895  0.26646839  1
  Cu+  Cu132  1  0.92670678  0.92472649  0.26829603  1
  Te2-  Te133  1  0.24948883  0.25709956  0.08128673  1
  Te2-  Te134  1  0.25389160  0.24996099  0.41030906  1
  Te2-  Te135  1  0.25344044  0.25303858  0.74654899  1
  Te2-  Te136  1  0.25557352  0.58506603  0.07835540  1
  Te2-  Te137  1  0.25358305  0.58858545  0.41568519  1
  Te2-  Te138  1  0.25222121  0.58564489  0.75041428  1
  Te2-  Te139  1  0.25497904  0.91778269  0.08305761  1
  Te2-  Te140  1  0.25209422  0.91984628  0.41224686  1
  Te2-  Te141  1  0.25273370  0.91945145  0.75131163  1
  Te2-  Te142  1  0.58791039  0.25147388  0.08151198  1
  Te2-  Te143  1  0.58305014  0.25164773  0.40997748  1
  Te2-  Te144  1  0.58476958  0.25489289  0.74262337  1
  Te2-  Te145  1  0.58708916  0.58905963  0.08392676  1
  Te2-  Te146  1  0.58871018  0.58580623  0.40997283  1
  Te2-  Te147  1  0.58307296  0.58532325  0.74461819  1
  Te2-  Te148  1  0.58680291  0.91614177  0.08221406  1
  Te2-  Te149  1  0.58040982  0.92315031  0.41086564  1
  Te2-  Te150  1  0.58443208  0.92022273  0.74783726  1
  Te2-  Te151  1  0.92169141  0.25030802  0.08370015  1
  Te2-  Te152  1  0.91972531  0.25658357  0.41555324  1
  Te2-  Te153  1  0.92872103  0.25294362  0.74694437  1
  Te2-  Te154  1  0.91657517  0.58793693  0.07651421  1
  Te2-  Te155  1  0.92705371  0.58705668  0.41784107  1
  Te2-  Te156  1  0.91847831  0.58411109  0.74470723  1
  Te2-  Te157  1  0.91567740  0.91928545  0.07691066  1
  Te2-  Te158  1  0.92128233  0.91989283  0.41961157  1
  Te2-  Te159  1  0.91655456  0.92130584  0.74428094  1
  Te2-  Te160  1  0.24891443  0.08156618  0.24837661  1
  Te2-  Te161  1  0.25507777  0.08139878  0.58650008  1
  Te2-  Te162  1  0.25863266  0.07302642  0.92054197  1
  Te2-  Te163  1  0.25408365  0.41380673  0.24992531  1
  Te2-  Te164  1  0.25486520  0.41470116  0.58731216  1
  Te2-  Te165  1  0.25317647  0.41825951  0.92444849  1
  Te2-  Te166  1  0.24741665  0.74398303  0.25363229  1
  Te2-  Te167  1  0.25189244  0.74750835  0.58704138  1
  Te2-  Te168  1  0.25103042  0.74752769  0.91971776  1
  Te2-  Te169  1  0.58303436  0.08024443  0.24974830  1
  Te2-  Te170  1  0.58196636  0.08239947  0.58631015  1
  Te2-  Te171  1  0.58993124  0.08266887  0.91599724  1
  Te2-  Te172  1  0.58538363  0.41305629  0.24989458  1
  Te2-  Te173  1  0.58405889  0.41364765  0.58324141  1
  Te2-  Te174  1  0.58614942  0.41160279  0.92056824  1
  Te2-  Te175  1  0.58880804  0.74416600  0.25160728  1
  Te2-  Te176  1  0.58526268  0.75061055  0.58512821  1
  Te2-  Te177  1  0.58853612  0.74969698  0.92020192  1
  Te2-  Te178  1  0.92145476  0.07685127  0.26154265  1
  Te2-  Te179  1  0.91389476  0.08173905  0.58437169  1
  Te2-  Te180  1  0.91777308  0.08055814  0.91822326  1
  Te2-  Te181  1  0.92357344  0.41592379  0.25362868  1
  Te2-  Te182  1  0.93196755  0.41125079  0.58883139  1
  Te2-  Te183  1  0.91483496  0.41265893  0.91595624  1
  Te2-  Te184  1  0.92194589  0.75049802  0.25868288  1
  Te2-  Te185  1  0.91748749  0.74318275  0.58224950  1
  Te2-  Te186  1  0.91661878  0.74649814  0.91761042  1
  Te2-  Te187  1  0.08111645  0.25710328  0.25373133  1
  Te2-  Te188  1  0.08681028  0.25360210  0.58572376  1
  Te2-  Te189  1  0.08474782  0.25097400  0.92074452  1
  Te2-  Te190  1  0.08589568  0.58912030  0.25803369  1
  Te2-  Te191  1  0.08400366  0.58644080  0.58807625  1
  Te2-  Te192  1  0.07614459  0.58827645  0.91727371  1
  Te2-  Te193  1  0.08165004  0.92015099  0.25918105  1
  Te2-  Te194  1  0.07751099  0.91882279  0.58595984  1
  Te2-  Te195  1  0.07483290  0.91730752  0.91914863  1
  Te2-  Te196  1  0.41239641  0.25039984  0.24658296  1
  Te2-  Te197  1  0.41061429  0.25562936  0.58188803  1
  Te2-  Te198  1  0.41428534  0.25922153  0.92550933  1
  Te2-  Te199  1  0.41158141  0.58523069  0.25580433  1
  Te2-  Te200  1  0.41574237  0.58545196  0.58134669  1
  Te2-  Te201  1  0.41435001  0.58460384  0.91806698  1
  Te2-  Te202  1  0.41275204  0.91557525  0.25184118  1
  Te2-  Te203  1  0.41488594  0.92137390  0.58856278  1
  Te2-  Te204  1  0.41413824  0.91765903  0.92088333  1
  Te2-  Te205  1  0.74594411  0.25119011  0.25047657  1
  Te2-  Te206  1  0.73839659  0.25495630  0.58426865  1
  Te2-  Te207  1  0.75357518  0.25517261  0.92395658  1
  Te2-  Te208  1  0.74664179  0.58572107  0.25176270  1
  Te2-  Te209  1  0.75200090  0.58047222  0.59092482  1
  Te2-  Te210  1  0.74802980  0.58824843  0.91755628  1
  Te2-  Te211  1  0.74306817  0.92076260  0.25246030  1
  Te2-  Te212  1  0.74613690  0.91598619  0.58458638  1
  Te2-  Te213  1  0.74757538  0.91991143  0.91835407  1
  Te2-  Te214  1  0.07161088  0.08138926  0.07540261  1
  Te2-  Te215  1  0.08049453  0.07840001  0.41833155  1
  Te2-  Te216  1  0.08396348  0.08042242  0.74634411  1
  Te2-  Te217  1  0.07745810  0.41766121  0.08267166  1
  Te2-  Te218  1  0.08204246  0.41423354  0.41381462  1
  Te2-  Te219  1  0.08597903  0.41203774  0.74895317  1
  Te2-  Te220  1  0.07270054  0.74885139  0.08173731  1
  Te2-  Te221  1  0.08123561  0.74600067  0.41493587  1
  Te2-  Te222  1  0.08211993  0.74787889  0.74533747  1
  Te2-  Te223  1  0.41420199  0.07531354  0.07777065  1
  Te2-  Te224  1  0.41282271  0.08074566  0.41112231  1
  Te2-  Te225  1  0.41312711  0.08388630  0.74966973  1
  Te2-  Te226  1  0.41475283  0.41715149  0.07986893  1
  Te2-  Te227  1  0.41683388  0.41320746  0.41029206  1
  Te2-  Te228  1  0.41281349  0.41430054  0.74545796  1
  Te2-  Te229  1  0.41545736  0.74435653  0.07545866  1
  Te2-  Te230  1  0.40797023  0.74805017  0.41833742  1
  Te2-  Te231  1  0.41503392  0.74640526  0.74968293  1
  Te2-  Te232  1  0.75213106  0.07726362  0.08372248  1
  Te2-  Te233  1  0.74457428  0.08597505  0.41128814  1
  Te2-  Te234  1  0.74887100  0.08574819  0.74750160  1
  Te2-  Te235  1  0.75091430  0.41386456  0.08302135  1
  Te2-  Te236  1  0.75498869  0.41344733  0.41351921  1
  Te2-  Te237  1  0.73640529  0.41374046  0.74659586  1
  Te2-  Te238  1  0.75156227  0.74590128  0.08465857  1
  Te2-  Te239  1  0.74660715  0.74220938  0.40982140  1
  Te2-  Te240  1  0.74319625  0.74868927  0.74519581  1
