# generated using pymatgen
data_Ti27(Cu53Te54)2
_symmetry_space_group_name_H-M   'P 1'
_cell_length_a   17.93042750
_cell_length_b   17.93357269
_cell_length_c   17.92812138
_cell_angle_alpha   90.01072029
_cell_angle_beta   90.01928322
_cell_angle_gamma   90.00521387
_symmetry_Int_Tables_number   1
_chemical_formula_structural   Ti27(Cu53Te54)2
_chemical_formula_sum   'Ti27 Cu106 Te108'
_cell_volume   5764.90575097
_cell_formula_units_Z   1
loop_
 _symmetry_equiv_pos_site_id
 _symmetry_equiv_pos_as_xyz
  1  'x, y, z'
loop_
 _atom_type_symbol
 _atom_type_oxidation_number
  Ti4+  4.0
  Cu+  1.0
  Te2-  -2.0
loop_
 _atom_site_type_symbol
 _atom_site_label
 _atom_site_symmetry_multiplicity
 _atom_site_fract_x
 _atom_site_fract_y
 _atom_site_fract_z
 _atom_site_occupancy
  Ti4+  Ti0  1  0.16457736  0.16247617  0.16692953  1
  Ti4+  Ti1  1  0.16287605  0.16956136  0.50169778  1
  Ti4+  Ti2  1  0.16722370  0.17309502  0.83377022  1
  Ti4+  Ti3  1  0.16545630  0.49779769  0.16570383  1
  Ti4+  Ti4  1  0.17148906  0.49888376  0.50401248  1
  Ti4+  Ti5  1  0.16645646  0.50338747  0.83374110  1
  Ti4+  Ti6  1  0.16742182  0.83180865  0.16718181  1
  Ti4+  Ti7  1  0.16802511  0.83449763  0.50410382  1
  Ti4+  Ti8  1  0.16732066  0.83632523  0.83413720  1
  Ti4+  Ti9  1  0.50070573  0.16221137  0.16643149  1
  Ti4+  Ti10  1  0.49711471  0.16458470  0.49830406  1
  Ti4+  Ti11  1  0.50265469  0.16754969  0.83120828  1
  Ti4+  Ti12  1  0.50105292  0.49678846  0.16834244  1
  Ti4+  Ti13  1  0.50233461  0.50355588  0.50045670  1
  Ti4+  Ti14  1  0.50426084  0.50112139  0.83518309  1
  Ti4+  Ti15  1  0.50119238  0.83351244  0.16859430  1
  Ti4+  Ti16  1  0.49738370  0.82809289  0.49728878  1
  Ti4+  Ti17  1  0.49913257  0.83496084  0.83501491  1
  Ti4+  Ti18  1  0.83371154  0.16865077  0.16553207  1
  Ti4+  Ti19  1  0.83006797  0.16450834  0.49829794  1
  Ti4+  Ti20  1  0.83444270  0.16813217  0.83097055  1
  Ti4+  Ti21  1  0.83003149  0.50019638  0.16490415  1
  Ti4+  Ti22  1  0.83530985  0.49812539  0.49896742  1
  Ti4+  Ti23  1  0.83428842  0.50241652  0.83258417  1
  Ti4+  Ti24  1  0.83334315  0.83602305  0.16584856  1
  Ti4+  Ti25  1  0.83473671  0.83157032  0.49974492  1
  Ti4+  Ti26  1  0.83198367  0.83440945  0.83165392  1
  Cu+  Cu27  1  0.16473941  0.17116754  0.00425510  1
  Cu+  Cu28  1  0.16402070  0.16113539  0.33542921  1
  Cu+  Cu29  1  0.16269671  0.17731767  0.67011666  1
  Cu+  Cu30  1  0.16354792  0.49874109  -0.00215459  1
  Cu+  Cu31  1  0.16623428  0.49739930  0.33054934  1
  Cu+  Cu32  1  0.17559787  0.49940115  0.66952806  1
  Cu+  Cu33  1  0.16571699  0.83423625  -0.00141087  1
  Cu+  Cu34  1  0.16875162  0.83202998  0.33606879  1
  Cu+  Cu35  1  0.16721198  0.83795198  0.67041433  1
  Cu+  Cu36  1  0.50018290  0.16168946  -0.00563061  1
  Cu+  Cu37  1  0.49647625  0.16284691  0.33275097  1
  Cu+  Cu38  1  0.50013199  0.16677944  0.66480426  1
  Cu+  Cu39  1  0.50414885  0.49593549  0.00313189  1
  Cu+  Cu40  1  0.50363690  0.50416687  0.33177660  1
  Cu+  Cu41  1  0.50503728  0.50177062  0.66742263  1
  Cu+  Cu42  1  0.49784135  0.83799219  0.00368520  1
  Cu+  Cu43  1  0.49875883  0.82955673  0.32967320  1
  Cu+  Cu44  1  0.50013725  0.82767872  0.66715456  1
  Cu+  Cu45  1  0.83877432  0.16946134  -0.00236164  1
  Cu+  Cu46  1  0.82841525  0.16582939  0.33344471  1
  Cu+  Cu47  1  0.83298392  0.16713459  0.66314529  1
  Cu+  Cu48  1  0.83189806  0.50192412  -0.00463201  1
  Cu+  Cu49  1  0.82923457  0.50103300  0.33471640  1
  Cu+  Cu50  1  0.83599653  0.49940201  0.66669845  1
  Cu+  Cu51  1  0.83008397  0.83570282  -0.00242618  1
  Cu+  Cu52  1  0.83801592  0.83319148  0.33356505  1
  Cu+  Cu53  1  0.83304731  0.83305892  0.66474103  1
  Cu+  Cu54  1  0.16210514  -0.00741892  0.16426964  1
  Cu+  Cu55  1  0.16573394  0.00386130  0.50179512  1
  Cu+  Cu56  1  0.16905340  0.00357838  0.83551016  1
  Cu+  Cu57  1  0.16443947  0.32925597  0.16621360  1
  Cu+  Cu58  1  0.17164272  0.33113030  0.50571075  1
  Cu+  Cu59  1  0.16453363  0.34023257  0.83074871  1
  Cu+  Cu60  1  0.16676038  0.66285480  0.16631598  1
  Cu+  Cu61  1  0.17177633  0.66561140  0.50768715  1
  Cu+  Cu62  1  0.16536940  0.67233135  0.83335320  1
  Cu+  Cu63  1  0.49818084  -0.00279542  0.17135673  1
  Cu+  Cu64  1  0.49704248  -0.00468055  0.49947070  1
  Cu+  Cu65  1  0.49805138  0.00211739  0.83410965  1
  Cu+  Cu66  1  0.50270718  0.32902267  0.16287279  1
  Cu+  Cu67  1  0.50171482  0.33590384  0.49929342  1
  Cu+  Cu68  1  0.50421337  0.33117551  0.83107236  1
  Cu+  Cu69  1  0.50238224  0.66509625  0.17171087  1
  Cu+  Cu70  1  0.49394697  0.66360272  0.49398267  1
  Cu+  Cu71  1  0.50472299  0.66926171  0.83433345  1
  Cu+  Cu72  1  0.83474148  0.00478523  0.16567212  1
  Cu+  Cu73  1  0.83113874  -0.00344116  0.49721026  1
  Cu+  Cu74  1  0.83351800  0.00005300  0.83222634  1
  Cu+  Cu75  1  0.82979460  0.33723785  0.16955958  1
  Cu+  Cu76  1  0.83282696  0.33048560  0.50092992  1
  Cu+  Cu77  1  0.83183964  0.33475743  0.83171244  1
  Cu+  Cu78  1  0.83086111  0.67131265  0.16260830  1
  Cu+  Cu79  1  0.83827505  0.66549920  0.49736396  1
  Cu+  Cu80  1  0.83551460  0.66849680  0.83313018  1
  Cu+  Cu81  1  -0.00283053  0.16464381  0.16036773  1
  Cu+  Cu82  1  -0.00687293  0.16955876  0.50411316  1
  Cu+  Cu83  1  0.00256096  0.17320644  0.83049178  1
  Cu+  Cu84  1  -0.00197879  0.50184776  0.16440933  1
  Cu+  Cu85  1  0.00400898  0.49557628  0.50069051  1
  Cu+  Cu86  1  -0.00239980  0.50585341  0.83884748  1
  Cu+  Cu87  1  0.00118382  0.83412807  0.16537269  1
  Cu+  Cu88  1  0.00224644  0.83403398  0.50337060  1
  Cu+  Cu89  1  -0.00024862  0.83548214  0.83255184  1
  Cu+  Cu90  1  0.33339655  0.15939954  0.17051561  1
  Cu+  Cu91  1  0.32965546  0.16681795  0.49770201  1
  Cu+  Cu92  1  0.33745911  0.16897533  0.83527718  1
  Cu+  Cu93  1  0.32929875  0.49564758  0.16395381  1
  Cu+  Cu94  1  0.33457659  0.50610993  0.50624816  1
  Cu+  Cu95  1  0.33870000  0.50293409  0.83354084  1
  Cu+  Cu96  1  0.33592854  0.83166984  0.16543102  1
  Cu+  Cu97  1  0.33012440  0.82752314  0.49667751  1
  Cu+  Cu98  1  0.33195851  0.83594264  0.83484096  1
  Cu+  Cu99  1  0.67031143  0.16283234  0.16718680  1
  Cu+  Cu100  1  0.66274603  0.16416184  0.49712157  1
  Cu+  Cu101  1  0.66730023  0.16868134  0.82910406  1
  Cu+  Cu102  1  0.66391506  0.49281840  0.17040269  1
  Cu+  Cu103  1  0.67069906  0.50358424  0.49775494  1
  Cu+  Cu104  1  0.67078802  0.49930006  0.83521802  1
  Cu+  Cu105  1  0.66716766  0.83885808  0.16957982  1
  Cu+  Cu106  1  0.66802154  0.82856942  0.49920807  1
  Cu+  Cu107  1  0.66302249  0.83226105  0.83073729  1
  Cu+  Cu108  1  0.74636790  0.07327077  0.26111312  1
  Cu+  Cu109  1  0.26457839  0.25131526  0.59581990  1
  Cu+  Cu110  1  0.26854280  0.41145433  0.74828583  1
  Cu+  Cu111  1  0.91789004  0.26113162  0.59213942  1
  Cu+  Cu112  1  0.25524606  0.07479759  0.40961825  1
  Cu+  Cu113  1  0.74145960  0.40463107  0.92037963  1
  Cu+  Cu114  1  0.07179028  0.41246698  0.92530773  1
  Cu+  Cu115  1  0.40788173  0.92533824  0.07618076  1
  Cu+  Cu116  1  0.07072865  0.91541673  0.06887918  1
  Cu+  Cu117  1  0.40444477  0.07300634  0.26200557  1
  Cu+  Cu118  1  0.92480644  0.60072723  0.92802476  1
  Cu+  Cu119  1  0.58977348  0.39881323  0.07290685  1
  Cu+  Cu120  1  0.24711966  0.73575241  0.40686549  1
  Cu+  Cu121  1  0.74631916  0.59673624  0.41096175  1
  Cu+  Cu122  1  0.26402669  0.59830242  0.60030795  1
  Cu+  Cu123  1  0.40414387  0.73510972  0.24853275  1
  Cu+  Cu124  1  0.59515951  0.59350906  0.25637764  1
  Cu+  Cu125  1  0.59395231  0.92494703  0.26407688  1
  Cu+  Cu126  1  0.07168456  0.26828085  0.74079462  1
  Cu+  Cu127  1  0.07014025  0.26132301  0.08102140  1
  Cu+  Cu128  1  0.40187783  0.57873389  0.40150647  1
  Cu+  Cu129  1  0.59319827  0.73988691  0.73803993  1
  Cu+  Cu130  1  0.92157792  0.07347228  0.06697790  1
  Cu+  Cu131  1  0.40509759  0.07430779  0.92012269  1
  Cu+  Cu132  1  0.74000397  0.40655269  0.26513454  1
  Te2-  Te133  1  0.25533934  0.24789947  0.08675678  1
  Te2-  Te134  1  0.24872692  0.25202559  0.41137754  1
  Te2-  Te135  1  0.25933728  0.25779425  0.74942502  1
  Te2-  Te136  1  0.25020929  0.58232428  0.07890460  1
  Te2-  Te137  1  0.25200678  0.58490823  0.41007748  1
  Te2-  Te138  1  0.25513776  0.59140322  0.75186569  1
  Te2-  Te139  1  0.25404144  0.91764537  0.08058402  1
  Te2-  Te140  1  0.25241382  0.92118621  0.41615116  1
  Te2-  Te141  1  0.25329282  0.92273400  0.75002727  1
  Te2-  Te142  1  0.58759562  0.24432675  0.07833665  1
  Te2-  Te143  1  0.58079323  0.24972060  0.41320914  1
  Te2-  Te144  1  0.58687912  0.25220560  0.74345022  1
  Te2-  Te145  1  0.58668981  0.58478266  0.08480967  1
  Te2-  Te146  1  0.59037160  0.59067211  0.41218960  1
  Te2-  Te147  1  0.59063838  0.58561270  0.74937776  1
  Te2-  Te148  1  0.58612730  0.92153740  0.08262585  1
  Te2-  Te149  1  0.58484871  0.91515668  0.41504290  1
  Te2-  Te150  1  0.58136689  0.92012364  0.74715071  1
  Te2-  Te151  1  0.91701429  0.25995082  0.08088002  1
  Te2-  Te152  1  0.91528053  0.25043965  0.41150307  1
  Te2-  Te153  1  0.91858622  0.25776793  0.74481458  1
  Te2-  Te154  1  0.91620689  0.58720673  0.08062339  1
  Te2-  Te155  1  0.92360585  0.58065651  0.41422923  1
  Te2-  Te156  1  0.92000533  0.58731932  0.74611258  1
  Te2-  Te157  1  0.91846394  0.92107875  0.07696577  1
  Te2-  Te158  1  0.92145302  0.91733423  0.41606066  1
  Te2-  Te159  1  0.91757123  0.91848230  0.74660932  1
  Te2-  Te160  1  0.24906438  0.07260462  0.25347243  1
  Te2-  Te161  1  0.24808309  0.08669144  0.59107478  1
  Te2-  Te162  1  0.25069097  0.08685364  0.92108856  1
  Te2-  Te163  1  0.24975174  0.41070864  0.25004466  1
  Te2-  Te164  1  0.26040869  0.41064315  0.58956868  1
  Te2-  Te165  1  0.25441812  0.41740944  0.91764642  1
  Te2-  Te166  1  0.25293051  0.74281570  0.25250096  1
  Te2-  Te167  1  0.25478300  0.75064566  0.59365884  1
  Te2-  Te168  1  0.25214826  0.74963873  0.91970745  1
  Te2-  Te169  1  0.58890144  0.07862159  0.25571380  1
  Te2-  Te170  1  0.58134288  0.07922213  0.58241059  1
  Te2-  Te171  1  0.59038288  0.08070176  0.91467960  1
  Te2-  Te172  1  0.58347220  0.40677971  0.25807793  1
  Te2-  Te173  1  0.58833018  0.41798447  0.58278918  1
  Te2-  Te174  1  0.58893954  0.40986331  0.91963342  1
  Te2-  Te175  1  0.59192052  0.74726582  0.25454164  1
  Te2-  Te176  1  0.58420844  0.74220706  0.58164434  1
  Te2-  Te177  1  0.58365963  0.75275369  0.92425451  1
  Te2-  Te178  1  0.91964258  0.08436247  0.25342500  1
  Te2-  Te179  1  0.91472584  0.07747545  0.58378315  1
  Te2-  Te180  1  0.92296241  0.08262731  0.91375936  1
  Te2-  Te181  1  0.91724831  0.41870376  0.25148833  1
  Te2-  Te182  1  0.92070296  0.41360951  0.58642957  1
  Te2-  Te183  1  0.91881604  0.41165262  0.91968352  1
  Te2-  Te184  1  0.91852262  0.74906837  0.24802230  1
  Te2-  Te185  1  0.91985694  0.74672250  0.58532353  1
  Te2-  Te186  1  0.91974888  0.75171145  0.92018836  1
  Te2-  Te187  1  0.07919440  0.24651132  0.25238218  1
  Te2-  Te188  1  0.07433212  0.25927770  0.58702053  1
  Te2-  Te189  1  0.07925211  0.25776968  0.92237656  1
  Te2-  Te190  1  0.08071535  0.58336250  0.25128352  1
  Te2-  Te191  1  0.08377834  0.58182339  0.58822464  1
  Te2-  Te192  1  0.08196002  0.59208392  0.92090955  1
  Te2-  Te193  1  0.08196546  0.91456198  0.25611276  1
  Te2-  Te194  1  0.08292573  0.92075621  0.58688232  1
  Te2-  Te195  1  0.07933133  0.92307591  0.91769123  1
  Te2-  Te196  1  0.41601185  0.25046472  0.24889382  1
  Te2-  Te197  1  0.41514919  0.25371913  0.58391399  1
  Te2-  Te198  1  0.41858752  0.25508209  0.91891167  1
  Te2-  Te199  1  0.40711056  0.58273828  0.25085465  1
  Te2-  Te200  1  0.41773300  0.58908935  0.59234370  1
  Te2-  Te201  1  0.42081708  0.58478505  0.92129557  1
  Te2-  Te202  1  0.40961757  0.91861086  0.25683492  1
  Te2-  Te203  1  0.41407547  0.91093102  0.58344860  1
  Te2-  Te204  1  0.41000885  0.92219913  0.92134592  1
  Te2-  Te205  1  0.74484479  0.25348833  0.25267618  1
  Te2-  Te206  1  0.74325649  0.24978725  0.58323984  1
  Te2-  Te207  1  0.74794377  0.25098216  0.91848084  1
  Te2-  Te208  1  0.74641160  0.59024921  0.25103961  1
  Te2-  Te209  1  0.75257681  0.58556388  0.58535384  1
  Te2-  Te210  1  0.74748402  0.59013146  0.91740959  1
  Te2-  Te211  1  0.75032676  0.92173625  0.25660410  1
  Te2-  Te212  1  0.74670740  0.91616581  0.58349370  1
  Te2-  Te213  1  0.74550192  0.91931776  0.91485759  1
  Te2-  Te214  1  0.07955542  0.07574715  0.07668184  1
  Te2-  Te215  1  0.07491597  0.08306035  0.41974078  1
  Te2-  Te216  1  0.08432350  0.08460597  0.74984281  1
  Te2-  Te217  1  0.07634153  0.41263787  0.07957634  1
  Te2-  Te218  1  0.08832535  0.41288529  0.41821540  1
  Te2-  Te219  1  0.07610726  0.42179949  0.74550460  1
  Te2-  Te220  1  0.08289737  0.74646746  0.08152424  1
  Te2-  Te221  1  0.08375113  0.74583695  0.41992676  1
  Te2-  Te222  1  0.08120495  0.75183244  0.74796178  1
  Te2-  Te223  1  0.41273733  0.07795299  0.07825923  1
  Te2-  Te224  1  0.40975484  0.07521561  0.41422700  1
  Te2-  Te225  1  0.41405524  0.08287837  0.74619326  1
  Te2-  Te226  1  0.41493178  0.41265872  0.08194503  1
  Te2-  Te227  1  0.41487783  0.41899079  0.41577162  1
  Te2-  Te228  1  0.42084358  0.41546675  0.74759793  1
  Te2-  Te229  1  0.41770164  0.74371002  0.08197525  1
  Te2-  Te230  1  0.40873542  0.74246293  0.40719174  1
  Te2-  Te231  1  0.41303977  0.74794722  0.75261323  1
  Te2-  Te232  1  0.75039799  0.08279243  0.07591837  1
  Te2-  Te233  1  0.74338424  0.07699433  0.41392601  1
  Te2-  Te234  1  0.75017596  0.08300630  0.74672149  1
  Te2-  Te235  1  0.74542835  0.41196604  0.07641012  1
  Te2-  Te236  1  0.74632587  0.40952130  0.41641707  1
  Te2-  Te237  1  0.74863540  0.41616159  0.74550112  1
  Te2-  Te238  1  0.74494747  0.75388091  0.08131403  1
  Te2-  Te239  1  0.74964884  0.74722741  0.41077465  1
  Te2-  Te240  1  0.74768603  0.74661676  0.74587077  1
