# generated using pymatgen
data_Ti27(Cu53Te54)2
_symmetry_space_group_name_H-M   'P 1'
_cell_length_a   17.87190489
_cell_length_b   17.87326783
_cell_length_c   17.87564881
_cell_angle_alpha   89.98291635
_cell_angle_beta   89.97301266
_cell_angle_gamma   89.99693472
_symmetry_Int_Tables_number   1
_chemical_formula_structural   Ti27(Cu53Te54)2
_chemical_formula_sum   'Ti27 Cu106 Te108'
_cell_volume   5710.00585711
_cell_formula_units_Z   1
loop_
 _symmetry_equiv_pos_site_id
 _symmetry_equiv_pos_as_xyz
  1  'x, y, z'
loop_
 _atom_type_symbol
 _atom_type_oxidation_number
  Ti4+  4.0
  Cu+  1.0
  Te2-  -2.0
loop_
 _atom_site_type_symbol
 _atom_site_label
 _atom_site_symmetry_multiplicity
 _atom_site_fract_x
 _atom_site_fract_y
 _atom_site_fract_z
 _atom_site_occupancy
  Ti4+  Ti0  1  0.16728978  0.17231764  0.16844191  1
  Ti4+  Ti1  1  0.17156082  0.16709670  0.49866269  1
  Ti4+  Ti2  1  0.16546905  0.16725482  0.83171487  1
  Ti4+  Ti3  1  0.16526682  0.49779952  0.16586398  1
  Ti4+  Ti4  1  0.16725421  0.50170850  0.50140159  1
  Ti4+  Ti5  1  0.16453124  0.50197284  0.83579740  1
  Ti4+  Ti6  1  0.16773870  0.83450945  0.16908759  1
  Ti4+  Ti7  1  0.16372240  0.83420165  0.49832022  1
  Ti4+  Ti8  1  0.16519914  0.83442953  0.83281902  1
  Ti4+  Ti9  1  0.50068539  0.16283295  0.16929698  1
  Ti4+  Ti10  1  0.49837892  0.16601214  0.50166503  1
  Ti4+  Ti11  1  0.49781060  0.16501822  0.83644842  1
  Ti4+  Ti12  1  0.50164945  0.49905963  0.16491970  1
  Ti4+  Ti13  1  0.50068136  0.50032488  0.49702904  1
  Ti4+  Ti14  1  0.49884160  0.49886891  0.83179823  1
  Ti4+  Ti15  1  0.50144247  0.83231191  0.16636189  1
  Ti4+  Ti16  1  0.50011742  0.83303821  0.49858395  1
  Ti4+  Ti17  1  0.49740869  0.83337709  0.83365301  1
  Ti4+  Ti18  1  0.83560698  0.16495774  0.16919521  1
  Ti4+  Ti19  1  0.83484452  0.16652577  0.49988225  1
  Ti4+  Ti20  1  0.83158631  0.16686175  0.83655151  1
  Ti4+  Ti21  1  0.83428045  0.50135459  0.16446022  1
  Ti4+  Ti22  1  0.83377710  0.49887537  0.49960046  1
  Ti4+  Ti23  1  0.82960516  0.49804811  0.83108090  1
  Ti4+  Ti24  1  0.83607568  0.83125132  0.16412426  1
  Ti4+  Ti25  1  0.83323983  0.83097831  0.49962463  1
  Ti4+  Ti26  1  0.83351053  0.83548481  0.83402343  1
  Cu+  Cu27  1  0.16759282  0.17568626  -0.00311142  1
  Cu+  Cu28  1  0.16694642  0.16656690  0.33441774  1
  Cu+  Cu29  1  0.17339206  0.15989198  0.66758896  1
  Cu+  Cu30  1  0.16130150  0.50185509  0.00361390  1
  Cu+  Cu31  1  0.16798194  0.49755903  0.33093566  1
  Cu+  Cu32  1  0.16704044  0.50085009  0.67115984  1
  Cu+  Cu33  1  0.16679157  0.83501387  -0.00000576  1
  Cu+  Cu34  1  0.16997186  0.83072939  0.33560043  1
  Cu+  Cu35  1  0.15975379  0.83273054  0.66451955  1
  Cu+  Cu36  1  0.49788838  0.16461655  0.00468786  1
  Cu+  Cu37  1  0.50246759  0.16378219  0.33727062  1
  Cu+  Cu38  1  0.49472675  0.16823271  0.67040642  1
  Cu+  Cu39  1  0.50047346  0.49763534  -0.00330916  1
  Cu+  Cu40  1  0.50411151  0.50274746  0.32795456  1
  Cu+  Cu41  1  0.49906397  0.49758482  0.66337607  1
  Cu+  Cu42  1  0.49952474  0.83758825  0.00038726  1
  Cu+  Cu43  1  0.50168509  0.83251331  0.33214644  1
  Cu+  Cu44  1  0.49837222  0.83254978  0.66558646  1
  Cu+  Cu45  1  0.83008860  0.16504271  0.00313207  1
  Cu+  Cu46  1  0.83837874  0.16915184  0.33290415  1
  Cu+  Cu47  1  0.83150135  0.16510736  0.66907163  1
  Cu+  Cu48  1  0.83242691  0.50159478  -0.00392515  1
  Cu+  Cu49  1  0.83258900  0.49959764  0.33395900  1
  Cu+  Cu50  1  0.83103068  0.49861132  0.66525557  1
  Cu+  Cu51  1  0.83707014  0.83647194  -0.00151151  1
  Cu+  Cu52  1  0.83658418  0.82776188  0.33188293  1
  Cu+  Cu53  1  0.83130797  0.83515834  0.66667458  1
  Cu+  Cu54  1  0.16663021  0.00431605  0.17070703  1
  Cu+  Cu55  1  0.16996271  0.00538495  0.50108661  1
  Cu+  Cu56  1  0.16768768  0.00011637  0.82822492  1
  Cu+  Cu57  1  0.16383717  0.33348749  0.16241740  1
  Cu+  Cu58  1  0.16882648  0.33322213  0.49923718  1
  Cu+  Cu59  1  0.16532861  0.33678290  0.83806416  1
  Cu+  Cu60  1  0.16641533  0.66657191  0.16768929  1
  Cu+  Cu61  1  0.16488873  0.66809348  0.49980680  1
  Cu+  Cu62  1  0.16466839  0.66898529  0.83402833  1
  Cu+  Cu63  1  0.49875533  -0.00426280  0.16628232  1
  Cu+  Cu64  1  0.50387355  -0.00086195  0.50090002  1
  Cu+  Cu65  1  0.50199198  -0.00383327  0.84097040  1
  Cu+  Cu66  1  0.50119897  0.33314975  0.16627714  1
  Cu+  Cu67  1  0.49317312  0.33690554  0.50208093  1
  Cu+  Cu68  1  0.49736112  0.33133068  0.82962042  1
  Cu+  Cu69  1  0.50386866  0.66475398  0.16714475  1
  Cu+  Cu70  1  0.50103523  0.66667568  0.49789839  1
  Cu+  Cu71  1  0.49852018  0.66599758  0.83086395  1
  Cu+  Cu72  1  0.83720337  -0.00345470  0.16768071  1
  Cu+  Cu73  1  0.83459310  -0.00342234  0.50065366  1
  Cu+  Cu74  1  0.83698281  0.00231435  0.83695313  1
  Cu+  Cu75  1  0.83350794  0.33622030  0.16803869  1
  Cu+  Cu76  1  0.83302506  0.33409270  0.50212216  1
  Cu+  Cu77  1  0.82673766  0.33215920  0.83345327  1
  Cu+  Cu78  1  0.83189715  0.66760228  0.16233452  1
  Cu+  Cu79  1  0.83509479  0.66509301  0.49700413  1
  Cu+  Cu80  1  0.83137868  0.66584139  0.83281072  1
  Cu+  Cu81  1  0.00079832  0.17172767  0.17193922  1
  Cu+  Cu82  1  0.00647366  0.16925078  0.50019229  1
  Cu+  Cu83  1  -0.00614839  0.16407538  0.82935484  1
  Cu+  Cu84  1  0.00295926  0.50241405  0.16226220  1
  Cu+  Cu85  1  -0.00059314  0.50064891  0.50311434  1
  Cu+  Cu86  1  -0.00427665  0.50063124  0.83649430  1
  Cu+  Cu87  1  -0.00047490  0.83667577  0.17183593  1
  Cu+  Cu88  1  -0.00275577  0.82718965  0.50221351  1
  Cu+  Cu89  1  0.00061220  0.83794163  0.83613676  1
  Cu+  Cu90  1  0.33795353  0.17039370  0.16416272  1
  Cu+  Cu91  1  0.33541785  0.16923718  0.49223147  1
  Cu+  Cu92  1  0.33018144  0.16829335  0.83130656  1
  Cu+  Cu93  1  0.33140185  0.49603055  0.16649419  1
  Cu+  Cu94  1  0.33394827  0.49904306  0.49971320  1
  Cu+  Cu95  1  0.33103748  0.50088242  0.83457542  1
  Cu+  Cu96  1  0.33491105  0.83346156  0.16498544  1
  Cu+  Cu97  1  0.33374786  0.83401296  0.49604337  1
  Cu+  Cu98  1  0.33084617  0.83138720  0.83161189  1
  Cu+  Cu99  1  0.66842373  0.16225130  0.17106629  1
  Cu+  Cu100  1  0.66593978  0.16187240  0.50039613  1
  Cu+  Cu101  1  0.66658759  0.16465375  0.83855404  1
  Cu+  Cu102  1  0.66679089  0.50213460  0.16691858  1
  Cu+  Cu103  1  0.66859560  0.49974647  0.49623375  1
  Cu+  Cu104  1  0.66383250  0.49688440  0.82918059  1
  Cu+  Cu105  1  0.67136669  0.82912187  0.16420371  1
  Cu+  Cu106  1  0.66742746  0.83187923  0.49964795  1
  Cu+  Cu107  1  0.66397068  0.83543480  0.83460196  1
  Cu+  Cu108  1  0.26253942  0.07370589  0.40132059  1
  Cu+  Cu109  1  0.92246009  0.26840587  0.25958873  1
  Cu+  Cu110  1  0.40228716  0.92335589  0.07162573  1
  Cu+  Cu111  1  0.07780342  0.08005513  0.59316734  1
  Cu+  Cu112  1  0.07477275  0.07558298  0.25787182  1
  Cu+  Cu113  1  0.07649164  0.60090619  0.07689117  1
  Cu+  Cu114  1  0.59616569  0.92431750  0.93069245  1
  Cu+  Cu115  1  0.59744781  0.07094590  0.40891249  1
  Cu+  Cu116  1  0.40285947  0.41302379  0.59415346  1
  Cu+  Cu117  1  0.93190327  0.93161163  0.92907788  1
  Cu+  Cu118  1  0.91839942  0.07400948  0.74017553  1
  Cu+  Cu119  1  0.06766434  0.25589984  0.06796557  1
  Cu+  Cu120  1  0.26049185  0.26498605  0.92226382  1
  Cu+  Cu121  1  0.92452209  0.92023645  0.59309408  1
  Cu+  Cu122  1  0.07537904  0.26511460  0.41285638  1
  Cu+  Cu123  1  0.41474973  0.26534922  0.40316966  1
  Cu+  Cu124  1  0.26358464  0.73644346  0.41128174  1
  Cu+  Cu125  1  0.26522713  0.06771450  0.74286897  1
  Cu+  Cu126  1  0.92384840  0.73319081  0.40102744  1
  Cu+  Cu127  1  0.41630281  0.26376613  0.07454135  1
  Cu+  Cu128  1  0.92158363  0.59396103  0.92218760  1
  Cu+  Cu129  1  0.07198196  0.73568034  0.59541884  1
  Cu+  Cu130  1  0.92206661  0.92403334  0.26399914  1
  Cu+  Cu131  1  0.59759984  0.59503547  0.25863318  1
  Cu+  Cu132  1  0.40335112  0.25964682  0.74107880  1
  Te2-  Te133  1  0.25716552  0.25716392  0.07990952  1
  Te2-  Te134  1  0.25513381  0.25780944  0.40929215  1
  Te2-  Te135  1  0.24884088  0.25777078  0.74478889  1
  Te2-  Te136  1  0.25235739  0.58462199  0.08204976  1
  Te2-  Te137  1  0.25272287  0.58470269  0.41305971  1
  Te2-  Te138  1  0.25069426  0.58737406  0.75066495  1
  Te2-  Te139  1  0.24929130  0.92263165  0.08221841  1
  Te2-  Te140  1  0.25241020  0.92157946  0.41339325  1
  Te2-  Te141  1  0.25210323  0.91580583  0.74233637  1
  Te2-  Te142  1  0.58761965  0.24785343  0.08447689  1
  Te2-  Te143  1  0.58407710  0.25418203  0.41907907  1
  Te2-  Te144  1  0.58620097  0.24749344  0.75082791  1
  Te2-  Te145  1  0.58581766  0.58410382  0.07692141  1
  Te2-  Te146  1  0.58834963  0.58757457  0.41284058  1
  Te2-  Te147  1  0.58284275  0.58370519  0.74502501  1
  Te2-  Te148  1  0.59164802  0.91965342  0.08327285  1
  Te2-  Te149  1  0.58898083  0.91758810  0.41249567  1
  Te2-  Te150  1  0.58255503  0.91893289  0.74673828  1
  Te2-  Te151  1  0.91695088  0.25324281  0.08007034  1
  Te2-  Te152  1  0.92198200  0.25671012  0.41600470  1
  Te2-  Te153  1  0.91467026  0.25432223  0.74838473  1
  Te2-  Te154  1  0.92028374  0.58954645  0.07703580  1
  Te2-  Te155  1  0.92253210  0.58299386  0.41186891  1
  Te2-  Te156  1  0.91653472  0.58445176  0.74618482  1
  Te2-  Te157  1  0.92425906  0.92062139  0.08004437  1
  Te2-  Te158  1  0.92217689  0.91862304  0.41419274  1
  Te2-  Te159  1  0.92192134  0.92096994  0.74545343  1
  Te2-  Te160  1  0.25784804  0.08483294  0.25054926  1
  Te2-  Te161  1  0.26251183  0.08034935  0.58537991  1
  Te2-  Te162  1  0.24932781  0.08193235  0.91924027  1
  Te2-  Te163  1  0.25102102  0.41047767  0.25058576  1
  Te2-  Te164  1  0.25023021  0.41403616  0.58782012  1
  Te2-  Te165  1  0.25176856  0.41814418  0.92383858  1
  Te2-  Te166  1  0.25472231  0.74628195  0.25111086  1
  Te2-  Te167  1  0.25127536  0.75092009  0.58416289  1
  Te2-  Te168  1  0.25009336  0.74898218  0.91921127  1
  Te2-  Te169  1  0.58655257  0.07600887  0.25424566  1
  Te2-  Te170  1  0.58242133  0.08266020  0.59075264  1
  Te2-  Te171  1  0.58537349  0.08156324  0.92465100  1
  Te2-  Te172  1  0.58764159  0.41198689  0.25030764  1
  Te2-  Te173  1  0.58695865  0.41428900  0.58184540  1
  Te2-  Te174  1  0.58370418  0.41123120  0.91539066  1
  Te2-  Te175  1  0.58982741  0.74794848  0.25286327  1
  Te2-  Te176  1  0.58492967  0.74778957  0.58444297  1
  Te2-  Te177  1  0.58266624  0.74751691  0.91896380  1
  Te2-  Te178  1  0.92273552  0.07686070  0.25672002  1
  Te2-  Te179  1  0.92270965  0.07963155  0.58618215  1
  Te2-  Te180  1  0.92166790  0.08330918  0.92614359  1
  Te2-  Te181  1  0.92219097  0.41928889  0.25225109  1
  Te2-  Te182  1  0.91914246  0.41407507  0.58676754  1
  Te2-  Te183  1  0.91455814  0.41078732  0.91757218  1
  Te2-  Te184  1  0.92233952  0.74068148  0.24867651  1
  Te2-  Te185  1  0.91644216  0.74299219  0.59149901  1
  Te2-  Te186  1  0.91994281  0.74784575  0.91818815  1
  Te2-  Te187  1  0.08120397  0.25983463  0.25869755  1
  Te2-  Te188  1  0.08770554  0.25160374  0.58983839  1
  Te2-  Te189  1  0.07332436  0.25268682  0.91414454  1
  Te2-  Te190  1  0.08147510  0.58459295  0.25345114  1
  Te2-  Te191  1  0.08082737  0.58496414  0.58885561  1
  Te2-  Te192  1  0.07743003  0.59084399  0.92136352  1
  Te2-  Te193  1  0.08215231  0.92067255  0.25847034  1
  Te2-  Te194  1  0.07851424  0.92420637  0.58490107  1
  Te2-  Te195  1  0.08404325  0.92461667  0.92066792  1
  Te2-  Te196  1  0.41658228  0.25251950  0.25428324  1
  Te2-  Te197  1  0.40751950  0.25350172  0.58809005  1
  Te2-  Te198  1  0.41221153  0.25441605  0.92230228  1
  Te2-  Te199  1  0.41269461  0.58425583  0.24840519  1
  Te2-  Te200  1  0.41532160  0.58644511  0.58328278  1
  Te2-  Te201  1  0.41508525  0.58483364  0.91793619  1
  Te2-  Te202  1  0.41488379  0.91656218  0.25383865  1
  Te2-  Te203  1  0.41436133  0.91825187  0.58328520  1
  Te2-  Te204  1  0.40640725  0.91930400  0.91912125  1
  Te2-  Te205  1  0.74888726  0.25168250  0.25252098  1
  Te2-  Te206  1  0.74812581  0.24814959  0.58411815  1
  Te2-  Te207  1  0.74572085  0.25163019  0.92295709  1
  Te2-  Te208  1  0.75051151  0.58769113  0.25233352  1
  Te2-  Te209  1  0.74803389  0.58579730  0.58313076  1
  Te2-  Te210  1  0.74252620  0.58432716  0.91568889  1
  Te2-  Te211  1  0.75051656  0.91454992  0.25217464  1
  Te2-  Te212  1  0.74595299  0.91815805  0.58432352  1
  Te2-  Te213  1  0.74817643  0.92196519  0.92014806  1
  Te2-  Te214  1  0.08350339  0.08751286  0.08107335  1
  Te2-  Te215  1  0.08009827  0.07854697  0.41294352  1
  Te2-  Te216  1  0.07698723  0.07818943  0.74559260  1
  Te2-  Te217  1  0.07629124  0.41072061  0.07733910  1
  Te2-  Te218  1  0.08074523  0.41710276  0.41558319  1
  Te2-  Te219  1  0.07910783  0.41624536  0.75118674  1
  Te2-  Te220  1  0.07984010  0.75270684  0.08255496  1
  Te2-  Te221  1  0.07810535  0.74578186  0.41078062  1
  Te2-  Te222  1  0.07622920  0.74763785  0.74973328  1
  Te2-  Te223  1  0.41236319  0.07708587  0.08194107  1
  Te2-  Te224  1  0.41502532  0.07511090  0.41369010  1
  Te2-  Te225  1  0.41519932  0.07506164  0.75109669  1
  Te2-  Te226  1  0.41362476  0.41429194  0.07856007  1
  Te2-  Te227  1  0.41333265  0.41793095  0.40632130  1
  Te2-  Te228  1  0.40781170  0.41309839  0.74614614  1
  Te2-  Te229  1  0.41743838  0.74580796  0.08069182  1
  Te2-  Te230  1  0.41560388  0.74575194  0.41098023  1
  Te2-  Te231  1  0.41316052  0.74771540  0.74669475  1
  Te2-  Te232  1  0.74961230  0.07796359  0.08592479  1
  Te2-  Te233  1  0.75231628  0.07988531  0.41260453  1
  Te2-  Te234  1  0.74622210  0.07945380  0.75140621  1
  Te2-  Te235  1  0.74867247  0.41667447  0.08104706  1
  Te2-  Te236  1  0.74915250  0.41237727  0.41340376  1
  Te2-  Te237  1  0.74502127  0.41209714  0.74439617  1
  Te2-  Te238  1  0.75063679  0.74832954  0.07513792  1
  Te2-  Te239  1  0.74725235  0.74651499  0.41316269  1
  Te2-  Te240  1  0.74708605  0.75043678  0.74962158  1
