# generated using pymatgen
data_Ti27(Cu53Te54)2
_symmetry_space_group_name_H-M   'P 1'
_cell_length_a   17.93243195
_cell_length_b   17.92802081
_cell_length_c   17.92441502
_cell_angle_alpha   89.96221795
_cell_angle_beta   90.02923038
_cell_angle_gamma   89.94248989
_symmetry_Int_Tables_number   1
_chemical_formula_structural   Ti27(Cu53Te54)2
_chemical_formula_sum   'Ti27 Cu106 Te108'
_cell_volume   5762.56928450
_cell_formula_units_Z   1
loop_
 _symmetry_equiv_pos_site_id
 _symmetry_equiv_pos_as_xyz
  1  'x, y, z'
loop_
 _atom_type_symbol
 _atom_type_oxidation_number
  Ti4+  4.0
  Cu+  1.0
  Te2-  -2.0
loop_
 _atom_site_type_symbol
 _atom_site_label
 _atom_site_symmetry_multiplicity
 _atom_site_fract_x
 _atom_site_fract_y
 _atom_site_fract_z
 _atom_site_occupancy
  Ti4+  Ti0  1  0.16844137  0.17032927  0.16811040  1
  Ti4+  Ti1  1  0.16467580  0.16070442  0.49681564  1
  Ti4+  Ti2  1  0.16611876  0.16601661  0.83374325  1
  Ti4+  Ti3  1  0.16776983  0.50020060  0.16775968  1
  Ti4+  Ti4  1  0.16612488  0.49877767  0.50010497  1
  Ti4+  Ti5  1  0.16556904  0.49848450  0.83396067  1
  Ti4+  Ti6  1  0.16743656  0.83426392  0.16622859  1
  Ti4+  Ti7  1  0.17027323  0.83337395  0.50088064  1
  Ti4+  Ti8  1  0.16549406  0.83250999  0.83370968  1
  Ti4+  Ti9  1  0.49999102  0.16682046  0.16415919  1
  Ti4+  Ti10  1  0.49672235  0.16780693  0.50127154  1
  Ti4+  Ti11  1  0.50003572  0.16211669  0.83388234  1
  Ti4+  Ti12  1  0.50317162  0.50019426  0.16665843  1
  Ti4+  Ti13  1  0.50050866  0.49869158  0.50400782  1
  Ti4+  Ti14  1  0.49550280  0.49561371  0.83353779  1
  Ti4+  Ti15  1  0.50123840  0.83627997  0.16437078  1
  Ti4+  Ti16  1  0.50248818  0.83379216  0.50309923  1
  Ti4+  Ti17  1  0.49726763  0.83185770  0.83380643  1
  Ti4+  Ti18  1  0.83452749  0.16791527  0.16703498  1
  Ti4+  Ti19  1  0.83397823  0.17086861  0.50314433  1
  Ti4+  Ti20  1  0.83528198  0.16811009  0.83243154  1
  Ti4+  Ti21  1  0.83541424  0.50428790  0.16592140  1
  Ti4+  Ti22  1  0.83012407  0.49987289  0.50044761  1
  Ti4+  Ti23  1  0.83201722  0.50002918  0.83752410  1
  Ti4+  Ti24  1  0.83087249  0.83362102  0.16278395  1
  Ti4+  Ti25  1  0.83563867  0.83544205  0.49897513  1
  Ti4+  Ti26  1  0.83469402  0.83209014  0.83096595  1
  Cu+  Cu27  1  0.16757827  0.16963199  0.00019010  1
  Cu+  Cu28  1  0.16259925  0.16264991  0.33187738  1
  Cu+  Cu29  1  0.16729826  0.16320439  0.66712104  1
  Cu+  Cu30  1  0.16898013  0.49748773  0.00186239  1
  Cu+  Cu31  1  0.16648017  0.50079686  0.33372364  1
  Cu+  Cu32  1  0.16325212  0.50005250  0.66654741  1
  Cu+  Cu33  1  0.16553775  0.83325607  -0.00057073  1
  Cu+  Cu34  1  0.17028860  0.83293842  0.33442408  1
  Cu+  Cu35  1  0.16852765  0.83267138  0.66874806  1
  Cu+  Cu36  1  0.50382770  0.16110282  0.00045514  1
  Cu+  Cu37  1  0.49718285  0.16794997  0.32935618  1
  Cu+  Cu38  1  0.49598279  0.16563352  0.66606219  1
  Cu+  Cu39  1  0.50076778  0.50023737  -0.00168939  1
  Cu+  Cu40  1  0.50562025  0.50097198  0.33526468  1
  Cu+  Cu41  1  0.49239465  0.49524729  0.66938240  1
  Cu+  Cu42  1  0.49943970  0.84022663  -0.00164766  1
  Cu+  Cu43  1  0.50336077  0.83688607  0.33459414  1
  Cu+  Cu44  1  0.49777205  0.82836824  0.66850585  1
  Cu+  Cu45  1  0.83557151  0.16869868  -0.00189082  1
  Cu+  Cu46  1  0.83363764  0.17004720  0.33759391  1
  Cu+  Cu47  1  0.83500531  0.17093764  0.66924225  1
  Cu+  Cu48  1  0.83739025  0.50751121  0.00271514  1
  Cu+  Cu49  1  0.82832136  0.50121851  0.33141257  1
  Cu+  Cu50  1  0.83074706  0.49795460  0.67028832  1
  Cu+  Cu51  1  0.83280721  0.83190968  -0.00180653  1
  Cu+  Cu52  1  0.83477343  0.83717769  0.32618387  1
  Cu+  Cu53  1  0.83565032  0.83249573  0.66289517  1
  Cu+  Cu54  1  0.16776195  0.00307380  0.16763974  1
  Cu+  Cu55  1  0.16703282  -0.00501309  0.48915843  1
  Cu+  Cu56  1  0.16537940  -0.00030242  0.83472172  1
  Cu+  Cu57  1  0.17287095  0.33807711  0.16642077  1
  Cu+  Cu58  1  0.16497756  0.32892702  0.49786621  1
  Cu+  Cu59  1  0.16524718  0.33092684  0.83276074  1
  Cu+  Cu60  1  0.16759771  0.66716631  0.16783481  1
  Cu+  Cu61  1  0.16936478  0.66585156  0.50099396  1
  Cu+  Cu62  1  0.16530398  0.66666677  0.83282629  1
  Cu+  Cu63  1  0.49968444  0.00162472  0.15937983  1
  Cu+  Cu64  1  0.49738613  0.00124504  0.50283853  1
  Cu+  Cu65  1  0.50255623  -0.00401163  0.83551480  1
  Cu+  Cu66  1  0.50330595  0.33195325  0.16560215  1
  Cu+  Cu67  1  0.50158081  0.33283767  0.50491727  1
  Cu+  Cu68  1  0.49638095  0.32892472  0.83286735  1
  Cu+  Cu69  1  0.50091676  0.66967494  0.16671639  1
  Cu+  Cu70  1  0.49975436  0.66826866  0.50553985  1
  Cu+  Cu71  1  0.49642299  0.66393169  0.83377696  1
  Cu+  Cu72  1  0.83357263  -0.00214679  0.16537658  1
  Cu+  Cu73  1  0.83891668  0.00299352  0.50331129  1
  Cu+  Cu74  1  0.83510791  0.00191297  0.83008990  1
  Cu+  Cu75  1  0.83638805  0.33539536  0.16715032  1
  Cu+  Cu76  1  0.82782042  0.33772488  0.50528912  1
  Cu+  Cu77  1  0.83497113  0.33526427  0.83182394  1
  Cu+  Cu78  1  0.82977191  0.66899042  0.16014115  1
  Cu+  Cu79  1  0.82893341  0.66837291  0.49862403  1
  Cu+  Cu80  1  0.83523689  0.66507868  0.83717663  1
  Cu+  Cu81  1  0.00347608  0.16980202  0.17131795  1
  Cu+  Cu82  1  -0.00259138  0.16587076  0.49024584  1
  Cu+  Cu83  1  0.00188956  0.16785535  0.83388303  1
  Cu+  Cu84  1  0.00116024  0.50079183  0.16509341  1
  Cu+  Cu85  1  -0.00161260  0.50156851  0.49878655  1
  Cu+  Cu86  1  -0.00158688  0.49845529  0.83696924  1
  Cu+  Cu87  1  -0.00259162  0.83273938  0.16376541  1
  Cu+  Cu88  1  0.00095962  0.83810707  0.50254574  1
  Cu+  Cu89  1  0.00240613  0.83230196  0.83099240  1
  Cu+  Cu90  1  0.33457008  0.17146486  0.16699752  1
  Cu+  Cu91  1  0.32927010  0.16013249  0.50380075  1
  Cu+  Cu92  1  0.33233611  0.16297261  0.83342291  1
  Cu+  Cu93  1  0.33574170  0.49924764  0.16694333  1
  Cu+  Cu94  1  0.33356691  0.49695199  0.50129936  1
  Cu+  Cu95  1  0.33029869  0.49813447  0.83201756  1
  Cu+  Cu96  1  0.33507923  0.83803080  0.16418878  1
  Cu+  Cu97  1  0.33792004  0.82993705  0.50445077  1
  Cu+  Cu98  1  0.32902016  0.83114896  0.83374135  1
  Cu+  Cu99  1  0.66687626  0.16581278  0.16500100  1
  Cu+  Cu100  1  0.66565022  0.17384921  0.50304823  1
  Cu+  Cu101  1  0.67107685  0.16524461  0.83218374  1
  Cu+  Cu102  1  0.67190074  0.50176856  0.16632479  1
  Cu+  Cu103  1  0.66415821  0.49334535  0.50241925  1
  Cu+  Cu104  1  0.65870529  0.50143538  0.83819186  1
  Cu+  Cu105  1  0.66644103  0.83217061  0.16509902  1
  Cu+  Cu106  1  0.66995801  0.83341534  0.50132124  1
  Cu+  Cu107  1  0.66706411  0.83068451  0.83250777  1
  Cu+  Cu108  1  0.92841721  0.40616412  0.07747407  1
  Cu+  Cu109  1  0.40281589  0.40751979  0.59467724  1
  Cu+  Cu110  1  0.93232448  0.59654425  0.92621040  1
  Cu+  Cu111  1  0.24720477  0.25777394  0.59492564  1
  Cu+  Cu112  1  0.58356427  0.59392518  0.92589815  1
  Cu+  Cu113  1  0.26294382  0.07144916  0.40273361  1
  Cu+  Cu114  1  0.91602071  0.07411360  0.40678750  1
  Cu+  Cu115  1  0.07324962  0.91216340  0.40429159  1
  Cu+  Cu116  1  0.07423196  0.07276634  0.25207319  1
  Cu+  Cu117  1  0.40529835  0.07076034  0.59687249  1
  Cu+  Cu118  1  0.74290782  0.74125995  0.59256505  1
  Cu+  Cu119  1  0.74502905  0.40601741  0.25518872  1
  Cu+  Cu120  1  0.92954024  0.92973370  0.59688941  1
  Cu+  Cu121  1  0.92604611  0.92379952  0.24868082  1
  Cu+  Cu122  1  0.73922129  0.59614081  0.07471974  1
  Cu+  Cu123  1  0.92758593  0.41015126  0.74029314  1
  Cu+  Cu124  1  0.26703843  0.41079003  0.07208384  1
  Cu+  Cu125  1  0.58710428  0.40352383  0.40546996  1
  Cu+  Cu126  1  0.59223411  0.25339475  0.59941669  1
  Cu+  Cu127  1  0.40181124  0.92982254  0.07087483  1
  Cu+  Cu128  1  0.40498095  0.73767948  0.59656536  1
  Cu+  Cu129  1  0.59913104  0.92373671  0.92156105  1
  Cu+  Cu130  1  0.59862009  0.07436377  0.07483261  1
  Cu+  Cu131  1  0.07283563  0.26209230  0.40584930  1
  Cu+  Cu132  1  0.74037537  0.40917902  0.60147304  1
  Te2-  Te133  1  0.25431821  0.25434770  0.07985454  1
  Te2-  Te134  1  0.25219641  0.24676005  0.41276229  1
  Te2-  Te135  1  0.25337587  0.25133366  0.74807871  1
  Te2-  Te136  1  0.25314856  0.58581713  0.08225242  1
  Te2-  Te137  1  0.25296180  0.58286852  0.41638412  1
  Te2-  Te138  1  0.24904394  0.58352584  0.74816625  1
  Te2-  Te139  1  0.24915849  0.92220100  0.07919133  1
  Te2-  Te140  1  0.26154320  0.91472459  0.41304452  1
  Te2-  Te141  1  0.25118722  0.91934734  0.74943185  1
  Te2-  Te142  1  0.58706385  0.25208876  0.07883734  1
  Te2-  Te143  1  0.58328247  0.25118581  0.41164930  1
  Te2-  Te144  1  0.58484144  0.24947747  0.74987090  1
  Te2-  Te145  1  0.58640020  0.58857811  0.08022179  1
  Te2-  Te146  1  0.58630645  0.58676807  0.42118903  1
  Te2-  Te147  1  0.57959142  0.58214203  0.74632796  1
  Te2-  Te148  1  0.59309513  0.92155004  0.07696042  1
  Te2-  Te149  1  0.58642826  0.92096822  0.41926558  1
  Te2-  Te150  1  0.58427966  0.91472020  0.74686549  1
  Te2-  Te151  1  0.92177466  0.25117621  0.08226654  1
  Te2-  Te152  1  0.91554600  0.26135650  0.41549408  1
  Te2-  Te153  1  0.92285716  0.25492994  0.74739958  1
  Te2-  Te154  1  0.92546767  0.59322848  0.08147381  1
  Te2-  Te155  1  0.91345100  0.58479137  0.41476316  1
  Te2-  Te156  1  0.91759532  0.58391420  0.74899001  1
  Te2-  Te157  1  0.91832767  0.91902556  0.07698474  1
  Te2-  Te158  1  0.92172708  0.92260331  0.40710452  1
  Te2-  Te159  1  0.92066403  0.91852899  0.74707181  1
  Te2-  Te160  1  0.25697158  0.08182831  0.25120677  1
  Te2-  Te161  1  0.24805100  0.07109689  0.58659529  1
  Te2-  Te162  1  0.25019845  0.08085128  0.92018415  1
  Te2-  Te163  1  0.25456036  0.41709676  0.25557301  1
  Te2-  Te164  1  0.24976706  0.41084152  0.58822517  1
  Te2-  Te165  1  0.25237094  0.41117962  0.91806555  1
  Te2-  Te166  1  0.25427287  0.75109580  0.24969991  1
  Te2-  Te167  1  0.25269555  0.74572459  0.58848414  1
  Te2-  Te168  1  0.24997709  0.74624066  0.92002127  1
  Te2-  Te169  1  0.58413941  0.08092069  0.25098662  1
  Te2-  Te170  1  0.58589122  0.08301950  0.58502650  1
  Te2-  Te171  1  0.59191876  0.07797328  0.91836501  1
  Te2-  Te172  1  0.59009817  0.41226923  0.25114111  1
  Te2-  Te173  1  0.58688599  0.41106211  0.59572115  1
  Te2-  Te174  1  0.58146037  0.40894343  0.91886808  1
  Te2-  Te175  1  0.58485927  0.75083842  0.25147310  1
  Te2-  Te176  1  0.58956226  0.74731042  0.58897004  1
  Te2-  Te177  1  0.58380850  0.74674612  0.91964697  1
  Te2-  Te178  1  0.92013664  0.08005066  0.25472327  1
  Te2-  Te179  1  0.92320719  0.08645165  0.58908204  1
  Te2-  Te180  1  0.91974752  0.08192726  0.91738200  1
  Te2-  Te181  1  0.92009120  0.41812308  0.25415955  1
  Te2-  Te182  1  0.92006959  0.41570747  0.58599387  1
  Te2-  Te183  1  0.91802606  0.41262516  0.92388895  1
  Te2-  Te184  1  0.91609529  0.74563890  0.24787637  1
  Te2-  Te185  1  0.92118289  0.74608763  0.58141853  1
  Te2-  Te186  1  0.92172456  0.74925738  0.91901249  1
  Te2-  Te187  1  0.08315965  0.25975699  0.25304365  1
  Te2-  Te188  1  0.07889697  0.24616407  0.58320520  1
  Te2-  Te189  1  0.08116458  0.25238978  0.91951989  1
  Te2-  Te190  1  0.08153687  0.58567596  0.25190941  1
  Te2-  Te191  1  0.08096734  0.58529096  0.58328255  1
  Te2-  Te192  1  0.08302358  0.58505632  0.92153684  1
  Te2-  Te193  1  0.07867870  0.92061748  0.25354245  1
  Te2-  Te194  1  0.08539266  0.92168312  0.58776903  1
  Te2-  Te195  1  0.07983760  0.91818555  0.91875785  1
  Te2-  Te196  1  0.41592680  0.25526386  0.24992265  1
  Te2-  Te197  1  0.40701940  0.25332080  0.58841900  1
  Te2-  Te198  1  0.41585700  0.24532951  0.91940481  1
  Te2-  Te199  1  0.41929852  0.58395532  0.25180378  1
  Te2-  Te200  1  0.41170227  0.58518315  0.58804439  1
  Te2-  Te201  1  0.41043514  0.58280631  0.91887865  1
  Te2-  Te202  1  0.41810946  0.92140620  0.25135503  1
  Te2-  Te203  1  0.41459892  0.91884374  0.58992379  1
  Te2-  Te204  1  0.40836875  0.91998051  0.91647707  1
  Te2-  Te205  1  0.74786096  0.25120536  0.25222945  1
  Te2-  Te206  1  0.74614521  0.25576526  0.59286771  1
  Te2-  Te207  1  0.74944276  0.25336922  0.91745380  1
  Te2-  Te208  1  0.74777285  0.59136977  0.25130105  1
  Te2-  Te209  1  0.74473558  0.58523928  0.58714682  1
  Te2-  Te210  1  0.74234575  0.58900865  0.92072153  1
  Te2-  Te211  1  0.74442593  0.91996547  0.24912712  1
  Te2-  Te212  1  0.75052001  0.92241592  0.58426929  1
  Te2-  Te213  1  0.75103238  0.91934280  0.91610295  1
  Te2-  Te214  1  0.08223533  0.08494429  0.08244239  1
  Te2-  Te215  1  0.07404104  0.07268166  0.40789146  1
  Te2-  Te216  1  0.08076018  0.08083022  0.74820690  1
  Te2-  Te217  1  0.08103201  0.41265880  0.08095038  1
  Te2-  Te218  1  0.07949622  0.41482983  0.41358045  1
  Te2-  Te219  1  0.07992529  0.41310768  0.74789169  1
  Te2-  Te220  1  0.08245579  0.74908948  0.08295412  1
  Te2-  Te221  1  0.08281323  0.74868217  0.41648166  1
  Te2-  Te222  1  0.08153774  0.74679442  0.74604371  1
  Te2-  Te223  1  0.40857666  0.08315476  0.07831396  1
  Te2-  Te224  1  0.41531587  0.08065292  0.41170894  1
  Te2-  Te225  1  0.41382193  0.07625667  0.74920631  1
  Te2-  Te226  1  0.41882988  0.41383987  0.08021300  1
  Te2-  Te227  1  0.41737560  0.41419083  0.41465267  1
  Te2-  Te228  1  0.40782726  0.40774817  0.74920219  1
  Te2-  Te229  1  0.41636834  0.75018614  0.07965997  1
  Te2-  Te230  1  0.41905438  0.74906860  0.41455672  1
  Te2-  Te231  1  0.41020172  0.74437812  0.74989503  1
  Te2-  Te232  1  0.75253785  0.08193994  0.07983510  1
  Te2-  Te233  1  0.74717402  0.08489804  0.41965653  1
  Te2-  Te234  1  0.75061716  0.08215799  0.74535490  1
  Te2-  Te235  1  0.75079401  0.41579167  0.07884766  1
  Te2-  Te236  1  0.74439308  0.41141775  0.41103708  1
  Te2-  Te237  1  0.74132178  0.41532048  0.75410483  1
  Te2-  Te238  1  0.74310578  0.74973166  0.07498742  1
  Te2-  Te239  1  0.75027175  0.75324771  0.41017863  1
  Te2-  Te240  1  0.74959810  0.74485915  0.74750236  1
