# generated using pymatgen
data_Ti27(Cu53Te54)2
_symmetry_space_group_name_H-M   'P 1'
_cell_length_a   17.89196081
_cell_length_b   17.89406032
_cell_length_c   17.88795833
_cell_angle_alpha   90.03118108
_cell_angle_beta   89.96740455
_cell_angle_gamma   90.02346058
_symmetry_Int_Tables_number   1
_chemical_formula_structural   Ti27(Cu53Te54)2
_chemical_formula_sum   'Ti27 Cu106 Te108'
_cell_volume   5727.00337158
_cell_formula_units_Z   1
loop_
 _symmetry_equiv_pos_site_id
 _symmetry_equiv_pos_as_xyz
  1  'x, y, z'
loop_
 _atom_type_symbol
 _atom_type_oxidation_number
  Ti4+  4.0
  Cu+  1.0
  Te2-  -2.0
loop_
 _atom_site_type_symbol
 _atom_site_label
 _atom_site_symmetry_multiplicity
 _atom_site_fract_x
 _atom_site_fract_y
 _atom_site_fract_z
 _atom_site_occupancy
  Ti4+  Ti0  1  0.16836217  0.16835245  0.16294369  1
  Ti4+  Ti1  1  0.16727823  0.16686308  0.49805668  1
  Ti4+  Ti2  1  0.16661217  0.16597284  0.83086155  1
  Ti4+  Ti3  1  0.16667482  0.50063772  0.16770860  1
  Ti4+  Ti4  1  0.16569893  0.50041085  0.50085110  1
  Ti4+  Ti5  1  0.16540896  0.50090735  0.83333332  1
  Ti4+  Ti6  1  0.16490765  0.83774699  0.16257900  1
  Ti4+  Ti7  1  0.16865178  0.83069212  0.49659633  1
  Ti4+  Ti8  1  0.17003141  0.83149603  0.83104763  1
  Ti4+  Ti9  1  0.50338281  0.16875004  0.16716395  1
  Ti4+  Ti10  1  0.49861922  0.16776465  0.49937827  1
  Ti4+  Ti11  1  0.49983737  0.16662604  0.83762210  1
  Ti4+  Ti12  1  0.50051804  0.49862988  0.16896995  1
  Ti4+  Ti13  1  0.50061200  0.50015940  0.49700162  1
  Ti4+  Ti14  1  0.49893534  0.49840185  0.83025780  1
  Ti4+  Ti15  1  0.49677376  0.83281499  0.17020110  1
  Ti4+  Ti16  1  0.50200006  0.83363864  0.50207132  1
  Ti4+  Ti17  1  0.49785266  0.83482057  0.83511462  1
  Ti4+  Ti18  1  0.83543895  0.16481860  0.16489898  1
  Ti4+  Ti19  1  0.83192445  0.16567254  0.50086500  1
  Ti4+  Ti20  1  0.83293852  0.16787719  0.83626682  1
  Ti4+  Ti21  1  0.83350859  0.50234360  0.16626745  1
  Ti4+  Ti22  1  0.83413422  0.49888685  0.49869837  1
  Ti4+  Ti23  1  0.83267251  0.50116269  0.83340235  1
  Ti4+  Ti24  1  0.83052433  0.82753200  0.16551591  1
  Ti4+  Ti25  1  0.83693968  0.83059418  0.50143739  1
  Ti4+  Ti26  1  0.83337662  0.83229151  0.83625713  1
  Cu+  Cu27  1  0.17038758  0.17053826  -0.00410295  1
  Cu+  Cu28  1  0.17050170  0.16646095  0.32892044  1
  Cu+  Cu29  1  0.16666078  0.16281131  0.66282551  1
  Cu+  Cu30  1  0.16665709  0.50168452  0.00122259  1
  Cu+  Cu31  1  0.16426569  0.50100445  0.33471022  1
  Cu+  Cu32  1  0.16536771  0.49987833  0.66955779  1
  Cu+  Cu33  1  0.17425913  0.83023798  -0.00327196  1
  Cu+  Cu34  1  0.15909515  0.84032677  0.33380614  1
  Cu+  Cu35  1  0.16902167  0.83090367  0.66315115  1
  Cu+  Cu36  1  0.50417509  0.17412153  0.00050113  1
  Cu+  Cu37  1  0.50235829  0.16511349  0.33542089  1
  Cu+  Cu38  1  0.49782752  0.16850828  0.67131514  1
  Cu+  Cu39  1  0.49915203  0.49805359  -0.00163669  1
  Cu+  Cu40  1  0.50585283  0.49571326  0.33361827  1
  Cu+  Cu41  1  0.49945746  0.49627825  0.66169879  1
  Cu+  Cu42  1  0.49573925  0.83383214  0.00522293  1
  Cu+  Cu43  1  0.49703115  0.83745917  0.33784132  1
  Cu+  Cu44  1  0.50133102  0.83425212  0.66825143  1
  Cu+  Cu45  1  0.82805287  0.16602168  0.00142243  1
  Cu+  Cu46  1  0.83491260  0.16440547  0.33384734  1
  Cu+  Cu47  1  0.83106762  0.16687056  0.66817544  1
  Cu+  Cu48  1  0.83375442  0.50196722  0.00280592  1
  Cu+  Cu49  1  0.82838059  0.50364502  0.33348650  1
  Cu+  Cu50  1  0.83584892  0.50318692  0.66421156  1
  Cu+  Cu51  1  0.82639305  0.82121538  -0.00123870  1
  Cu+  Cu52  1  0.83938505  0.82520247  0.33422722  1
  Cu+  Cu53  1  0.83776478  0.83355314  0.67151213  1
  Cu+  Cu54  1  0.16258628  0.00852540  0.16651664  1
  Cu+  Cu55  1  0.16993012  -0.00025074  0.49782667  1
  Cu+  Cu56  1  0.16981341  -0.00180530  0.82914006  1
  Cu+  Cu57  1  0.16736296  0.33457323  0.16717698  1
  Cu+  Cu58  1  0.16524023  0.33340013  0.49984456  1
  Cu+  Cu59  1  0.16695268  0.33505880  0.83131831  1
  Cu+  Cu60  1  0.16769899  0.66758243  0.16474288  1
  Cu+  Cu61  1  0.16772301  0.66562864  0.50073645  1
  Cu+  Cu62  1  0.16488765  0.66663238  0.83363422  1
  Cu+  Cu63  1  0.49958746  -0.00042456  0.16996008  1
  Cu+  Cu64  1  0.50076127  -0.00013742  0.49758931  1
  Cu+  Cu65  1  0.49925293  0.00154069  0.83644676  1
  Cu+  Cu66  1  0.50063010  0.33441485  0.16699700  1
  Cu+  Cu67  1  0.49624344  0.33745583  0.49705431  1
  Cu+  Cu68  1  0.49934655  0.32959630  0.83084664  1
  Cu+  Cu69  1  0.49888240  0.66528668  0.17209255  1
  Cu+  Cu70  1  0.50309617  0.66825309  0.50214154  1
  Cu+  Cu71  1  0.49808781  0.66521458  0.83043987  1
  Cu+  Cu72  1  0.83482163  -0.00779227  0.16648285  1
  Cu+  Cu73  1  0.83251280  0.00119743  0.50147387  1
  Cu+  Cu74  1  0.83352956  0.00032677  0.83806332  1
  Cu+  Cu75  1  0.83791417  0.33458216  0.16362465  1
  Cu+  Cu76  1  0.83156646  0.32943717  0.50169422  1
  Cu+  Cu77  1  0.83437066  0.33677575  0.83255840  1
  Cu+  Cu78  1  0.83065051  0.66506642  0.15864793  1
  Cu+  Cu79  1  0.83963335  0.66432320  0.49849068  1
  Cu+  Cu80  1  0.82976924  0.66754460  0.83499806  1
  Cu+  Cu81  1  0.00314848  0.16508004  0.16360309  1
  Cu+  Cu82  1  -0.00280859  0.16515588  0.50033295  1
  Cu+  Cu83  1  0.00001070  0.16516698  0.83085831  1
  Cu+  Cu84  1  0.00050175  0.49864764  0.16737611  1
  Cu+  Cu85  1  -0.00004403  0.50087467  0.50512974  1
  Cu+  Cu86  1  -0.00008837  0.50284667  0.83446052  1
  Cu+  Cu87  1  -0.00782101  0.83458520  0.16617458  1
  Cu+  Cu88  1  0.00170325  0.82487652  0.49485429  1
  Cu+  Cu89  1  0.00532047  0.83130391  0.83573830  1
  Cu+  Cu90  1  0.33663786  0.17038671  0.16307534  1
  Cu+  Cu91  1  0.33261123  0.17117328  0.49633822  1
  Cu+  Cu92  1  0.33053826  0.17143977  0.83475478  1
  Cu+  Cu93  1  0.33322506  0.49946074  0.17097371  1
  Cu+  Cu94  1  0.33127745  0.49945642  0.50106734  1
  Cu+  Cu95  1  0.33231691  0.49885815  0.83062014  1
  Cu+  Cu96  1  0.33239555  0.83690687  0.16145259  1
  Cu+  Cu97  1  0.33627100  0.83529550  0.49976906  1
  Cu+  Cu98  1  0.33186866  0.83631650  0.83534449  1
  Cu+  Cu99  1  0.67164514  0.16646045  0.16496838  1
  Cu+  Cu100  1  0.66533309  0.16326769  0.50017854  1
  Cu+  Cu101  1  0.66845387  0.16301366  0.84443801  1
  Cu+  Cu102  1  0.66610103  0.50346456  0.16798112  1
  Cu+  Cu103  1  0.66776219  0.49973071  0.49200325  1
  Cu+  Cu104  1  0.66442776  0.49859515  0.82857434  1
  Cu+  Cu105  1  0.66221799  0.83099486  0.17252502  1
  Cu+  Cu106  1  0.66861676  0.83323878  0.50463288  1
  Cu+  Cu107  1  0.66324911  0.83315862  0.83543850  1
  Cu+  Cu108  1  0.25278129  0.26648037  0.92429122  1
  Cu+  Cu109  1  0.40541142  0.92738827  0.41005249  1
  Cu+  Cu110  1  0.41061166  0.93239286  0.07533451  1
  Cu+  Cu111  1  0.07759109  0.73924883  0.92559161  1
  Cu+  Cu112  1  0.73013157  0.73615685  0.91793069  1
  Cu+  Cu113  1  0.93105840  0.40566553  0.07381320  1
  Cu+  Cu114  1  0.73862456  0.59786530  0.40958522  1
  Cu+  Cu115  1  0.26241506  0.73631959  0.07410690  1
  Cu+  Cu116  1  0.92615210  0.74090652  0.07159856  1
  Cu+  Cu117  1  0.06933056  0.93068512  0.42359843  1
  Cu+  Cu118  1  0.91691320  0.92445658  0.26229801  1
  Cu+  Cu119  1  0.92941429  0.59383027  0.59633685  1
  Cu+  Cu120  1  0.59778131  0.40357548  0.40572437  1
  Cu+  Cu121  1  0.59554934  0.06986957  0.40741056  1
  Cu+  Cu122  1  0.59668800  0.26554208  0.92024635  1
  Cu+  Cu123  1  0.40248531  0.25474167  0.74013807  1
  Cu+  Cu124  1  0.74453880  0.26355367  0.07742192  1
  Cu+  Cu125  1  0.07330048  0.08442841  0.26094521  1
  Cu+  Cu126  1  0.93305366  0.73167539  0.40227378  1
  Cu+  Cu127  1  0.25633791  0.92979511  0.92407560  1
  Cu+  Cu128  1  0.73331977  0.58966625  0.07089748  1
  Cu+  Cu129  1  0.40435913  0.26410867  0.40394925  1
  Cu+  Cu130  1  0.40221322  0.41166201  0.59115576  1
  Cu+  Cu131  1  0.74154738  0.06750259  0.93079393  1
  Cu+  Cu132  1  0.40913690  0.26452923  0.07567061  1
  Te2-  Te133  1  0.25476844  0.25897652  0.07867570  1
  Te2-  Te134  1  0.25010679  0.25585268  0.41080095  1
  Te2-  Te135  1  0.24969073  0.25350508  0.74168351  1
  Te2-  Te136  1  0.25533485  0.58422545  0.08124481  1
  Te2-  Te137  1  0.25168644  0.58460102  0.41503322  1
  Te2-  Te138  1  0.25130942  0.58588103  0.74819737  1
  Te2-  Te139  1  0.25138245  0.92855259  0.07970316  1
  Te2-  Te140  1  0.25391327  0.91956752  0.41067586  1
  Te2-  Te141  1  0.25393008  0.91722043  0.74275580  1
  Te2-  Te142  1  0.59161037  0.25764030  0.08165722  1
  Te2-  Te143  1  0.58770539  0.25308751  0.41448087  1
  Te2-  Te144  1  0.59074676  0.24732493  0.75174972  1
  Te2-  Te145  1  0.58111157  0.58646627  0.08025067  1
  Te2-  Te146  1  0.58502488  0.59043300  0.41105374  1
  Te2-  Te147  1  0.58271282  0.58366779  0.74413967  1
  Te2-  Te148  1  0.58512768  0.91715453  0.08508924  1
  Te2-  Te149  1  0.59166659  0.91801920  0.41456481  1
  Te2-  Te150  1  0.58402903  0.92026281  0.75131382  1
  Te2-  Te151  1  0.92261291  0.24970836  0.07768141  1
  Te2-  Te152  1  0.91780822  0.25088927  0.41493671  1
  Te2-  Te153  1  0.91719337  0.25201214  0.74905800  1
  Te2-  Te154  1  0.92438194  0.58651305  0.07902371  1
  Te2-  Te155  1  0.92470053  0.58149174  0.40977261  1
  Te2-  Te156  1  0.91876400  0.58893007  0.75019214  1
  Te2-  Te157  1  0.91281362  0.91281097  0.07371722  1
  Te2-  Te158  1  0.91987511  0.92249935  0.41411897  1
  Te2-  Te159  1  0.92109441  0.91846060  0.75472410  1
  Te2-  Te160  1  0.25707722  0.08329972  0.24758458  1
  Te2-  Te161  1  0.25444799  0.08162081  0.58138657  1
  Te2-  Te162  1  0.25413646  0.08094643  0.91810486  1
  Te2-  Te163  1  0.25001950  0.41512907  0.25422117  1
  Te2-  Te164  1  0.24935727  0.41292555  0.58796273  1
  Te2-  Te165  1  0.25305555  0.41682880  0.91995710  1
  Te2-  Te166  1  0.24773051  0.75544372  0.25053327  1
  Te2-  Te167  1  0.25512011  0.74752098  0.58256924  1
  Te2-  Te168  1  0.25839630  0.74116050  0.91717886  1
  Te2-  Te169  1  0.58894068  0.08086609  0.25109731  1
  Te2-  Te170  1  0.58081948  0.08277249  0.58798737  1
  Te2-  Te171  1  0.58352693  0.07740401  0.92623169  1
  Te2-  Te172  1  0.59072696  0.41142925  0.25097766  1
  Te2-  Te173  1  0.58901840  0.41439390  0.58091610  1
  Te2-  Te174  1  0.58579673  0.41503007  0.91773227  1
  Te2-  Te175  1  0.58075412  0.74837043  0.25784784  1
  Te2-  Te176  1  0.58696843  0.74825759  0.58848227  1
  Te2-  Te177  1  0.57908358  0.74583647  0.92136997  1
  Te2-  Te178  1  0.92057144  0.07815624  0.25274403  1
  Te2-  Te179  1  0.91707341  0.08120330  0.58745742  1
  Te2-  Te180  1  0.91997018  0.08363768  0.92118568  1
  Te2-  Te181  1  0.91671193  0.41699143  0.25397237  1
  Te2-  Te182  1  0.91728413  0.41191400  0.58511859  1
  Te2-  Te183  1  0.91948855  0.41626847  0.91947371  1
  Te2-  Te184  1  0.92060936  0.73855638  0.24930425  1
  Te2-  Te185  1  0.92256866  0.74715322  0.59010902  1
  Te2-  Te186  1  0.92272409  0.74167534  0.91939067  1
  Te2-  Te187  1  0.08164400  0.25242498  0.25025281  1
  Te2-  Te188  1  0.08101639  0.24962517  0.58374412  1
  Te2-  Te189  1  0.08066177  0.25232160  0.91524792  1
  Te2-  Te190  1  0.08145249  0.58685122  0.25109432  1
  Te2-  Te191  1  0.08234772  0.58802136  0.58914445  1
  Te2-  Te192  1  0.07977626  0.58602476  0.92218050  1
  Te2-  Te193  1  0.07512579  0.92377797  0.25013340  1
  Te2-  Te194  1  0.08175060  0.91538199  0.58211692  1
  Te2-  Te195  1  0.08601546  0.91908238  0.91900703  1
  Te2-  Te196  1  0.41593841  0.25324436  0.25350925  1
  Te2-  Te197  1  0.41165705  0.25502810  0.58731374  1
  Te2-  Te198  1  0.41039510  0.25782067  0.92300814  1
  Te2-  Te199  1  0.41601055  0.58201447  0.25635701  1
  Te2-  Te200  1  0.41532033  0.58582050  0.58330141  1
  Te2-  Te201  1  0.41439717  0.58273258  0.91624991  1
  Te2-  Te202  1  0.41013947  0.92148990  0.25454621  1
  Te2-  Te203  1  0.41661710  0.92038368  0.58702119  1
  Te2-  Te204  1  0.41161485  0.92337564  0.92283974  1
  Te2-  Te205  1  0.75297678  0.25170930  0.25109039  1
  Te2-  Te206  1  0.74494871  0.24993618  0.58613264  1
  Te2-  Te207  1  0.74796498  0.26143318  0.92254868  1
  Te2-  Te208  1  0.74589579  0.59046356  0.25236090  1
  Te2-  Te209  1  0.74657761  0.58528614  0.58196998  1
  Te2-  Te210  1  0.74130280  0.58473140  0.91909199  1
  Te2-  Te211  1  0.74913387  0.91294126  0.25544352  1
  Te2-  Te212  1  0.75315357  0.91630676  0.58741936  1
  Te2-  Te213  1  0.74538487  0.91666887  0.92248316  1
  Te2-  Te214  1  0.08304000  0.08483079  0.07314946  1
  Te2-  Te215  1  0.07855215  0.08104688  0.41205579  1
  Te2-  Te216  1  0.08206200  0.07915269  0.74658203  1
  Te2-  Te217  1  0.08243850  0.41318996  0.07977593  1
  Te2-  Te218  1  0.07931801  0.41574697  0.41663059  1
  Te2-  Te219  1  0.07872406  0.41556312  0.74915659  1
  Te2-  Te220  1  0.07923710  0.74778991  0.07936268  1
  Te2-  Te221  1  0.08455302  0.74068674  0.40842712  1
  Te2-  Te222  1  0.08270870  0.74769355  0.74472733  1
  Te2-  Te223  1  0.41786188  0.08391563  0.07964850  1
  Te2-  Te224  1  0.41142879  0.08099448  0.41254974  1
  Te2-  Te225  1  0.41276741  0.08221652  0.75195236  1
  Te2-  Te226  1  0.41300859  0.41607615  0.08145587  1
  Te2-  Te227  1  0.40906482  0.41683985  0.40905284  1
  Te2-  Te228  1  0.41094156  0.41063443  0.74485317  1
  Te2-  Te229  1  0.41373244  0.74251075  0.08317275  1
  Te2-  Te230  1  0.41609569  0.74647485  0.41705151  1
  Te2-  Te231  1  0.41361078  0.75073025  0.74895204  1
  Te2-  Te232  1  0.74782798  0.07339925  0.08377811  1
  Te2-  Te233  1  0.74775623  0.07825733  0.41225661  1
  Te2-  Te234  1  0.74745874  0.08158558  0.75209572  1
  Te2-  Te235  1  0.74464953  0.41626012  0.08098211  1
  Te2-  Te236  1  0.75062859  0.40876441  0.41109136  1
  Te2-  Te237  1  0.75011359  0.41685065  0.74526563  1
  Te2-  Te238  1  0.73465942  0.74382378  0.08084098  1
  Te2-  Te239  1  0.74717339  0.74820512  0.41595449  1
  Te2-  Te240  1  0.74693516  0.74963048  0.74856543  1
