# generated using pymatgen
data_Ti27(Cu53Te54)2
_symmetry_space_group_name_H-M   'P 1'
_cell_length_a   17.89469093
_cell_length_b   17.90135081
_cell_length_c   17.89578312
_cell_angle_alpha   90.01475906
_cell_angle_beta   90.06185316
_cell_angle_gamma   89.98964597
_symmetry_Int_Tables_number   1
_chemical_formula_structural   Ti27(Cu53Te54)2
_chemical_formula_sum   'Ti27 Cu106 Te108'
_cell_volume   5732.71614744
_cell_formula_units_Z   1
loop_
 _symmetry_equiv_pos_site_id
 _symmetry_equiv_pos_as_xyz
  1  'x, y, z'
loop_
 _atom_type_symbol
 _atom_type_oxidation_number
  Ti4+  4.0
  Cu+  1.0
  Te2-  -2.0
loop_
 _atom_site_type_symbol
 _atom_site_label
 _atom_site_symmetry_multiplicity
 _atom_site_fract_x
 _atom_site_fract_y
 _atom_site_fract_z
 _atom_site_occupancy
  Ti4+  Ti0  1  0.16585869  0.16819218  0.16392399  1
  Ti4+  Ti1  1  0.16625630  0.16401344  0.49998855  1
  Ti4+  Ti2  1  0.16481757  0.16667264  0.83101190  1
  Ti4+  Ti3  1  0.16778515  0.49745311  0.16712244  1
  Ti4+  Ti4  1  0.16897999  0.50063860  0.50087237  1
  Ti4+  Ti5  1  0.16830577  0.50185567  0.83229712  1
  Ti4+  Ti6  1  0.16638759  0.83376122  0.16628756  1
  Ti4+  Ti7  1  0.16404169  0.83325328  0.49790716  1
  Ti4+  Ti8  1  0.16822524  0.83385156  0.83247772  1
  Ti4+  Ti9  1  0.50228270  0.16614074  0.16775469  1
  Ti4+  Ti10  1  0.49993225  0.16301994  0.50357388  1
  Ti4+  Ti11  1  0.49723409  0.16670015  0.83675151  1
  Ti4+  Ti12  1  0.49963341  0.49929133  0.16952559  1
  Ti4+  Ti13  1  0.49654211  0.49562627  0.49866152  1
  Ti4+  Ti14  1  0.49912173  0.50095184  0.83557179  1
  Ti4+  Ti15  1  0.49905633  0.83512621  0.16770383  1
  Ti4+  Ti16  1  0.49837098  0.83008949  0.49951057  1
  Ti4+  Ti17  1  0.50395722  0.83131589  0.83564272  1
  Ti4+  Ti18  1  0.84113316  0.17146301  0.16558746  1
  Ti4+  Ti19  1  0.83441798  0.17472771  0.49930257  1
  Ti4+  Ti20  1  0.83162031  0.16615172  0.83369012  1
  Ti4+  Ti21  1  0.83091475  0.49960371  0.16780839  1
  Ti4+  Ti22  1  0.83120722  0.50066459  0.50100808  1
  Ti4+  Ti23  1  0.83268321  0.50004406  0.83433342  1
  Ti4+  Ti24  1  0.83623985  0.83120185  0.16645191  1
  Ti4+  Ti25  1  0.83026674  0.83571909  0.49901961  1
  Ti4+  Ti26  1  0.83462536  0.83371734  0.82953384  1
  Cu+  Cu27  1  0.16324257  0.16741205  -0.00255813  1
  Cu+  Cu28  1  0.16403844  0.16275592  0.32911213  1
  Cu+  Cu29  1  0.16837123  0.16749336  0.66319895  1
  Cu+  Cu30  1  0.17008305  0.50201019  -0.00332939  1
  Cu+  Cu31  1  0.17067632  0.49573912  0.33637177  1
  Cu+  Cu32  1  0.16942403  0.50167119  0.66783494  1
  Cu+  Cu33  1  0.16736533  0.83419770  0.00077909  1
  Cu+  Cu34  1  0.16315475  0.83036652  0.32998928  1
  Cu+  Cu35  1  0.16596333  0.83844701  0.66672929  1
  Cu+  Cu36  1  0.49759137  0.17102903  0.00369294  1
  Cu+  Cu37  1  0.50303964  0.16142541  0.33542585  1
  Cu+  Cu38  1  0.50009733  0.16206427  0.67474136  1
  Cu+  Cu39  1  0.50151237  0.50325570  0.00274586  1
  Cu+  Cu40  1  0.49056847  0.49578337  0.33284708  1
  Cu+  Cu41  1  0.49869294  0.50036630  0.66747892  1
  Cu+  Cu42  1  0.50178520  0.82794586  0.00266372  1
  Cu+  Cu43  1  0.49527787  0.83665176  0.33492603  1
  Cu+  Cu44  1  0.50618314  0.83187662  0.66564309  1
  Cu+  Cu45  1  0.84223407  0.16958079  -0.00385882  1
  Cu+  Cu46  1  0.84476589  0.17594277  0.33364002  1
  Cu+  Cu47  1  0.82941934  0.17147157  0.66649204  1
  Cu+  Cu48  1  0.82760295  0.49402728  -0.00063702  1
  Cu+  Cu49  1  0.82745015  0.50000766  0.33480909  1
  Cu+  Cu50  1  0.83208105  0.50162701  0.66867220  1
  Cu+  Cu51  1  0.83655288  0.83276856  -0.00377162  1
  Cu+  Cu52  1  0.83502471  0.83225450  0.33367162  1
  Cu+  Cu53  1  0.82896228  0.83301678  0.66220322  1
  Cu+  Cu54  1  0.16404903  0.00198125  0.16706052  1
  Cu+  Cu55  1  0.16473015  -0.00202156  0.49795660  1
  Cu+  Cu56  1  0.16360318  -0.00163746  0.82855459  1
  Cu+  Cu57  1  0.16464856  0.33036660  0.16140805  1
  Cu+  Cu58  1  0.17157430  0.33058171  0.50223173  1
  Cu+  Cu59  1  0.16780414  0.33891103  0.82999404  1
  Cu+  Cu60  1  0.16822482  0.66506264  0.16778530  1
  Cu+  Cu61  1  0.16700173  0.66853539  0.50142565  1
  Cu+  Cu62  1  0.16919707  0.66683736  0.83265708  1
  Cu+  Cu63  1  0.50239705  0.00131124  0.16858806  1
  Cu+  Cu64  1  0.49819304  -0.00588583  0.50046716  1
  Cu+  Cu65  1  0.50244455  -0.00006854  0.83532360  1
  Cu+  Cu66  1  0.49762623  0.33056233  0.16777960  1
  Cu+  Cu67  1  0.50001033  0.32809656  0.50379583  1
  Cu+  Cu68  1  0.49722729  0.33440233  0.83615731  1
  Cu+  Cu69  1  0.50325088  0.67073777  0.16703973  1
  Cu+  Cu70  1  0.49522513  0.66013083  0.49534851  1
  Cu+  Cu71  1  0.49929914  0.66648089  0.83776207  1
  Cu+  Cu72  1  0.83876999  -0.00268866  0.16346776  1
  Cu+  Cu73  1  0.83111538  0.00894742  0.49859044  1
  Cu+  Cu74  1  0.83328868  -0.00265869  0.82861208  1
  Cu+  Cu75  1  0.83863754  0.34048692  0.16997393  1
  Cu+  Cu76  1  0.83293756  0.33838773  0.50144669  1
  Cu+  Cu77  1  0.82808573  0.33313705  0.83854126  1
  Cu+  Cu78  1  0.83417310  0.66201978  0.16643669  1
  Cu+  Cu79  1  0.82836396  0.66653338  0.49978686  1
  Cu+  Cu80  1  0.83369327  0.66738555  0.83322088  1
  Cu+  Cu81  1  0.00250642  0.17069496  0.16615407  1
  Cu+  Cu82  1  -0.00166483  0.16827004  0.49483640  1
  Cu+  Cu83  1  -0.00202542  0.16645874  0.83160690  1
  Cu+  Cu84  1  0.00024708  0.50096408  0.16522130  1
  Cu+  Cu85  1  0.00101557  0.50196257  0.50127871  1
  Cu+  Cu86  1  0.00451245  0.50329327  0.83228954  1
  Cu+  Cu87  1  0.00394902  0.82865901  0.16886333  1
  Cu+  Cu88  1  -0.00455634  0.83381447  0.49477264  1
  Cu+  Cu89  1  0.00248977  0.83703389  0.82628300  1
  Cu+  Cu90  1  0.33623161  0.17097806  0.16205553  1
  Cu+  Cu91  1  0.33177336  0.16584737  0.50507057  1
  Cu+  Cu92  1  0.33110628  0.16542682  0.83587438  1
  Cu+  Cu93  1  0.33422143  0.49659662  0.17242367  1
  Cu+  Cu94  1  0.33204156  0.49727802  0.49170645  1
  Cu+  Cu95  1  0.33292710  0.50251339  0.83385493  1
  Cu+  Cu96  1  0.33059290  0.83784551  0.16717295  1
  Cu+  Cu97  1  0.33144696  0.83494220  0.49695836  1
  Cu+  Cu98  1  0.33726137  0.83142931  0.83559495  1
  Cu+  Cu99  1  0.66960356  0.16815473  0.16747622  1
  Cu+  Cu100  1  0.67131215  0.16581023  0.50368612  1
  Cu+  Cu101  1  0.66078773  0.16553988  0.83436031  1
  Cu+  Cu102  1  0.66692383  0.49733043  0.17223462  1
  Cu+  Cu103  1  0.66124327  0.49998954  0.50048765  1
  Cu+  Cu104  1  0.66488502  0.49891041  0.83592091  1
  Cu+  Cu105  1  0.66591302  0.83323375  0.16571389  1
  Cu+  Cu106  1  0.66430137  0.83077024  0.50628384  1
  Cu+  Cu107  1  0.67319780  0.83057509  0.83633589  1
  Cu+  Cu108  1  0.92313163  0.06718778  0.06734013  1
  Cu+  Cu109  1  0.73231053  0.40249404  0.92450037  1
  Cu+  Cu110  1  0.07226287  0.92888093  0.73521250  1
  Cu+  Cu111  1  0.74747597  0.07917285  0.59404561  1
  Cu+  Cu112  1  0.92996534  0.42094838  0.06891247  1
  Cu+  Cu113  1  0.91949673  0.73522159  0.41085616  1
  Cu+  Cu114  1  0.40359610  0.59377467  0.40326452  1
  Cu+  Cu115  1  0.07648346  0.26054890  0.06764804  1
  Cu+  Cu116  1  0.58989538  0.92397724  0.59205964  1
  Cu+  Cu117  1  0.75126861  0.73879419  0.92833105  1
  Cu+  Cu118  1  0.73776896  0.40592003  0.26561033  1
  Cu+  Cu119  1  0.59116875  0.07144230  0.74828062  1
  Cu+  Cu120  1  0.26227328  0.26106026  0.59639117  1
  Cu+  Cu121  1  0.59590745  0.73909159  0.07764836  1
  Cu+  Cu122  1  0.40372664  0.73923007  0.92917263  1
  Cu+  Cu123  1  0.40192205  0.92753276  0.40716300  1
  Cu+  Cu124  1  0.07762593  0.73245140  0.25742638  1
  Cu+  Cu125  1  0.92339123  0.07562355  0.40879854  1
  Cu+  Cu126  1  0.40770889  0.26326762  0.07094710  1
  Cu+  Cu127  1  0.40498021  0.39856626  0.25875319  1
  Cu+  Cu128  1  0.25619820  0.39809530  0.40694365  1
  Cu+  Cu129  1  0.07496385  0.07237265  0.25662325  1
  Cu+  Cu130  1  0.93248962  0.26947208  0.26289656  1
  Cu+  Cu131  1  0.92978428  0.26421051  0.91263021  1
  Cu+  Cu132  1  0.73771778  0.73540166  0.59181882  1
  Te2-  Te133  1  0.25309442  0.25358139  0.07548163  1
  Te2-  Te134  1  0.25327887  0.24597882  0.41061898  1
  Te2-  Te135  1  0.25284670  0.25287777  0.74835481  1
  Te2-  Te136  1  0.25335038  0.58221130  0.08462202  1
  Te2-  Te137  1  0.25135464  0.59024056  0.41183974  1
  Te2-  Te138  1  0.25459804  0.58769851  0.74737500  1
  Te2-  Te139  1  0.24994327  0.92194456  0.08121514  1
  Te2-  Te140  1  0.24814785  0.91908766  0.40977703  1
  Te2-  Te141  1  0.25672996  0.91829879  0.74912688  1
  Te2-  Te142  1  0.58827333  0.25343540  0.08297607  1
  Te2-  Te143  1  0.58549503  0.24715425  0.41892892  1
  Te2-  Te144  1  0.58257718  0.25457557  0.75112406  1
  Te2-  Te145  1  0.58845944  0.58436858  0.08471725  1
  Te2-  Te146  1  0.58152001  0.58048504  0.41060958  1
  Te2-  Te147  1  0.58402932  0.58487144  0.75013794  1
  Te2-  Te148  1  0.58486666  0.91967463  0.08155977  1
  Te2-  Te149  1  0.58739401  0.91584838  0.41540421  1
  Te2-  Te150  1  0.59194041  0.91749051  0.74923241  1
  Te2-  Te151  1  0.92444390  0.26306620  0.07483790  1
  Te2-  Te152  1  0.92410567  0.26472870  0.41634080  1
  Te2-  Te153  1  0.91491985  0.25428328  0.74892532  1
  Te2-  Te154  1  0.91722298  0.58306247  0.07783329  1
  Te2-  Te155  1  0.91771483  0.58377197  0.41400370  1
  Te2-  Te156  1  0.91813531  0.58532458  0.74969811  1
  Te2-  Te157  1  0.92431906  0.91304941  0.07939022  1
  Te2-  Te158  1  0.91617592  0.92400720  0.41299697  1
  Te2-  Te159  1  0.91789501  0.92008475  0.73987067  1
  Te2-  Te160  1  0.25436525  0.08367234  0.24728590  1
  Te2-  Te161  1  0.25014726  0.07601540  0.58486622  1
  Te2-  Te162  1  0.24697079  0.08015764  0.91699353  1
  Te2-  Te163  1  0.25198815  0.40656310  0.25260107  1
  Te2-  Te164  1  0.25624130  0.41550860  0.58848130  1
  Te2-  Te165  1  0.25391825  0.41505110  0.91783076  1
  Te2-  Te166  1  0.25401316  0.74822239  0.25201771  1
  Te2-  Te167  1  0.25058087  0.75226929  0.58463809  1
  Te2-  Te168  1  0.25223894  0.74711172  0.92104491  1
  Te2-  Te169  1  0.58991564  0.08094375  0.25216217  1
  Te2-  Te170  1  0.58832583  0.07691389  0.59023721  1
  Te2-  Te171  1  0.58297644  0.08246485  0.92486081  1
  Te2-  Te172  1  0.58334220  0.41085410  0.25593283  1
  Te2-  Te173  1  0.58251600  0.41361726  0.58647659  1
  Te2-  Te174  1  0.58276651  0.41289426  0.92338685  1
  Te2-  Te175  1  0.58461094  0.75191436  0.25605740  1
  Te2-  Te176  1  0.58231828  0.73769310  0.58467001  1
  Te2-  Te177  1  0.59240711  0.74294733  0.92191189  1
  Te2-  Te178  1  0.92212991  0.07844773  0.25323918  1
  Te2-  Te179  1  0.91919712  0.08713426  0.58712801  1
  Te2-  Te180  1  0.92049472  0.07567882  0.91471937  1
  Te2-  Te181  1  0.92303625  0.42009937  0.25841471  1
  Te2-  Te182  1  0.91833516  0.41851546  0.58682329  1
  Te2-  Te183  1  0.92545347  0.41525715  0.91838644  1
  Te2-  Te184  1  0.92054603  0.74189580  0.25342148  1
  Te2-  Te185  1  0.91763804  0.74889330  0.58383076  1
  Te2-  Te186  1  0.92339078  0.74979723  0.91340986  1
  Te2-  Te187  1  0.08287237  0.25742877  0.25556085  1
  Te2-  Te188  1  0.08017376  0.25096280  0.58308543  1
  Te2-  Te189  1  0.08061613  0.25778151  0.91516069  1
  Te2-  Te190  1  0.08255670  0.58055668  0.25470221  1
  Te2-  Te191  1  0.08374824  0.58573985  0.58578844  1
  Te2-  Te192  1  0.08347413  0.58803215  0.91887835  1
  Te2-  Te193  1  0.07837920  0.92052066  0.25337662  1
  Te2-  Te194  1  0.07657620  0.91956095  0.58169910  1
  Te2-  Te195  1  0.08143606  0.91808361  0.91868285  1
  Te2-  Te196  1  0.41414300  0.24777155  0.25782342  1
  Te2-  Te197  1  0.41573281  0.24876445  0.59156174  1
  Te2-  Te198  1  0.40963802  0.25461110  0.92010719  1
  Te2-  Te199  1  0.41308356  0.59007761  0.25069516  1
  Te2-  Te200  1  0.41112276  0.58132503  0.58399607  1
  Te2-  Te201  1  0.41245284  0.58614097  0.92333253  1
  Te2-  Te202  1  0.41199006  0.92335275  0.25203246  1
  Te2-  Te203  1  0.41329610  0.91461846  0.58859202  1
  Te2-  Te204  1  0.41923427  0.91709813  0.92027234  1
  Te2-  Te205  1  0.75110056  0.25365971  0.25238070  1
  Te2-  Te206  1  0.74659983  0.25895800  0.58614834  1
  Te2-  Te207  1  0.74261814  0.24826687  0.92220475  1
  Te2-  Te208  1  0.74606174  0.58779120  0.25326285  1
  Te2-  Te209  1  0.74327077  0.58369525  0.58703085  1
  Te2-  Te210  1  0.74606180  0.58650171  0.92071458  1
  Te2-  Te211  1  0.75148225  0.91759658  0.24903908  1
  Te2-  Te212  1  0.74508797  0.92570378  0.58691960  1
  Te2-  Te213  1  0.75085683  0.92053127  0.91842539  1
  Te2-  Te214  1  0.07865941  0.07961435  0.07674524  1
  Te2-  Te215  1  0.07804708  0.07770073  0.41153203  1
  Te2-  Te216  1  0.07885476  0.08323158  0.74312276  1
  Te2-  Te217  1  0.08220373  0.41564750  0.07536830  1
  Te2-  Te218  1  0.08260990  0.41325965  0.41819015  1
  Te2-  Te219  1  0.08155994  0.41723277  0.74531426  1
  Te2-  Te220  1  0.08297734  0.74526234  0.07966503  1
  Te2-  Te221  1  0.07780044  0.74365363  0.41282698  1
  Te2-  Te222  1  0.08422443  0.74713355  0.74619290  1
  Te2-  Te223  1  0.41591795  0.07973058  0.08214700  1
  Te2-  Te224  1  0.41318211  0.07990879  0.41678850  1
  Te2-  Te225  1  0.41129345  0.07806602  0.75250162  1
  Te2-  Te226  1  0.41364280  0.41574911  0.08031482  1
  Te2-  Te227  1  0.41118029  0.40173219  0.41374418  1
  Te2-  Te228  1  0.41424898  0.41639753  0.75022230  1
  Te2-  Te229  1  0.40976205  0.74756695  0.08435270  1
  Te2-  Te230  1  0.41048052  0.74612455  0.41178413  1
  Te2-  Te231  1  0.41934550  0.74855273  0.74766415  1
  Te2-  Te232  1  0.75529470  0.08554100  0.08179482  1
  Te2-  Te233  1  0.75070958  0.09000516  0.40771820  1
  Te2-  Te234  1  0.74490339  0.07951805  0.74698912  1
  Te2-  Te235  1  0.74262813  0.41036209  0.08264749  1
  Te2-  Te236  1  0.74292365  0.41377351  0.41697634  1
  Te2-  Te237  1  0.74679049  0.41489188  0.74914321  1
  Te2-  Te238  1  0.74987721  0.74452010  0.08045924  1
  Te2-  Te239  1  0.74391930  0.75012777  0.41286147  1
  Te2-  Te240  1  0.74697928  0.74529799  0.74422872  1
