# generated using pymatgen
data_Ti27(Cu53Te54)2
_symmetry_space_group_name_H-M   'P 1'
_cell_length_a   17.87289395
_cell_length_b   17.87799430
_cell_length_c   17.87554544
_cell_angle_alpha   90.00235794
_cell_angle_beta   90.01850319
_cell_angle_gamma   89.98464641
_symmetry_Int_Tables_number   1
_chemical_formula_structural   Ti27(Cu53Te54)2
_chemical_formula_sum   'Ti27 Cu106 Te108'
_cell_volume   5711.79927047
_cell_formula_units_Z   1
loop_
 _symmetry_equiv_pos_site_id
 _symmetry_equiv_pos_as_xyz
  1  'x, y, z'
loop_
 _atom_type_symbol
 _atom_type_oxidation_number
  Ti4+  4.0
  Cu+  1.0
  Te2-  -2.0
loop_
 _atom_site_type_symbol
 _atom_site_label
 _atom_site_symmetry_multiplicity
 _atom_site_fract_x
 _atom_site_fract_y
 _atom_site_fract_z
 _atom_site_occupancy
  Ti4+  Ti0  1  0.16615707  0.16463660  0.16273015  1
  Ti4+  Ti1  1  0.16703199  0.16624420  0.50058756  1
  Ti4+  Ti2  1  0.16657987  0.16937918  0.83255127  1
  Ti4+  Ti3  1  0.16673555  0.49927193  0.16814111  1
  Ti4+  Ti4  1  0.16508536  0.50187257  0.49794809  1
  Ti4+  Ti5  1  0.16658124  0.50288466  0.83347250  1
  Ti4+  Ti6  1  0.16452096  0.83719736  0.16930532  1
  Ti4+  Ti7  1  0.16606383  0.83322381  0.50059756  1
  Ti4+  Ti8  1  0.16737603  0.83194618  0.83427020  1
  Ti4+  Ti9  1  0.50249088  0.16666771  0.16644140  1
  Ti4+  Ti10  1  0.50147351  0.16397307  0.50052872  1
  Ti4+  Ti11  1  0.50043314  0.17054110  0.83373540  1
  Ti4+  Ti12  1  0.49890479  0.50186895  0.16908580  1
  Ti4+  Ti13  1  0.49737822  0.49803189  0.49841851  1
  Ti4+  Ti14  1  0.49809219  0.50242859  0.83527900  1
  Ti4+  Ti15  1  0.50025966  0.83471479  0.16521318  1
  Ti4+  Ti16  1  0.50314574  0.83054756  0.49824257  1
  Ti4+  Ti17  1  0.49786757  0.83408419  0.83110889  1
  Ti4+  Ti18  1  0.83367806  0.16954396  0.16597271  1
  Ti4+  Ti19  1  0.83597187  0.16949709  0.50136751  1
  Ti4+  Ti20  1  0.83365776  0.16817791  0.83193593  1
  Ti4+  Ti21  1  0.83334020  0.49900853  0.16498103  1
  Ti4+  Ti22  1  0.83379607  0.49465092  0.50069259  1
  Ti4+  Ti23  1  0.83406985  0.49953212  0.83374709  1
  Ti4+  Ti24  1  0.83255126  0.83298527  0.16829719  1
  Ti4+  Ti25  1  0.83665016  0.83132618  0.50322000  1
  Ti4+  Ti26  1  0.83182152  0.83086925  0.83101043  1
  Cu+  Cu27  1  0.16292727  0.16516661  -0.00477689  1
  Cu+  Cu28  1  0.16661998  0.16587922  0.33173075  1
  Cu+  Cu29  1  0.16768753  0.16539342  0.66821919  1
  Cu+  Cu30  1  0.16775506  0.50183712  0.00202293  1
  Cu+  Cu31  1  0.16762178  0.50099530  0.33282326  1
  Cu+  Cu32  1  0.16657557  0.50179200  0.66396446  1
  Cu+  Cu33  1  0.16737199  0.83762185  0.00488406  1
  Cu+  Cu34  1  0.16053283  0.83505004  0.33287800  1
  Cu+  Cu35  1  0.16956047  0.82761491  0.67045802  1
  Cu+  Cu36  1  0.50128537  0.16921725  -0.00102508  1
  Cu+  Cu37  1  0.50088284  0.16305371  0.33376277  1
  Cu+  Cu38  1  0.50434715  0.16652045  0.66793190  1
  Cu+  Cu39  1  0.50052425  0.50334765  0.00314213  1
  Cu+  Cu40  1  0.49180200  0.49934125  0.33394941  1
  Cu+  Cu41  1  0.49756349  0.50027928  0.66577702  1
  Cu+  Cu42  1  0.49362636  0.83340786  -0.00274562  1
  Cu+  Cu43  1  0.50374029  0.83522528  0.32999953  1
  Cu+  Cu44  1  0.50523958  0.82947337  0.66597839  1
  Cu+  Cu45  1  0.83790027  0.17045551  0.00161849  1
  Cu+  Cu46  1  0.83008662  0.17232202  0.33692406  1
  Cu+  Cu47  1  0.82843853  0.17199533  0.66466420  1
  Cu+  Cu48  1  0.83538862  0.50292067  -0.00185322  1
  Cu+  Cu49  1  0.83340335  0.49279933  0.33085085  1
  Cu+  Cu50  1  0.83789670  0.49582000  0.66901973  1
  Cu+  Cu51  1  0.82956130  0.83278606  0.00015972  1
  Cu+  Cu52  1  0.83523981  0.83400306  0.33615640  1
  Cu+  Cu53  1  0.83380328  0.83145418  0.66371098  1
  Cu+  Cu54  1  0.16268237  0.00461312  0.17096163  1
  Cu+  Cu55  1  0.16622355  -0.00222967  0.49696951  1
  Cu+  Cu56  1  0.16677724  -0.00151499  0.83379851  1
  Cu+  Cu57  1  0.16843629  0.33052523  0.16224026  1
  Cu+  Cu58  1  0.16685576  0.33375482  0.49846042  1
  Cu+  Cu59  1  0.16850540  0.33666131  0.83152239  1
  Cu+  Cu60  1  0.16610159  0.66715641  0.17032712  1
  Cu+  Cu61  1  0.16338923  0.67002757  0.50260528  1
  Cu+  Cu62  1  0.17059635  0.66758787  0.83161421  1
  Cu+  Cu63  1  0.50482513  -0.00089614  0.16733841  1
  Cu+  Cu64  1  0.50290079  -0.00303473  0.49928019  1
  Cu+  Cu65  1  0.50038777  0.00302189  0.83262927  1
  Cu+  Cu66  1  0.49835987  0.33620232  0.17051800  1
  Cu+  Cu67  1  0.49980838  0.33043932  0.50149323  1
  Cu+  Cu68  1  0.49838764  0.33776827  0.83645758  1
  Cu+  Cu69  1  0.49924226  0.66896954  0.16552999  1
  Cu+  Cu70  1  0.49749957  0.66171121  0.49480731  1
  Cu+  Cu71  1  0.49684354  0.66812593  0.83471505  1
  Cu+  Cu72  1  0.83513451  0.00083071  0.16714458  1
  Cu+  Cu73  1  0.83904111  -0.00044209  0.50747496  1
  Cu+  Cu74  1  0.83045780  -0.00347664  0.83084035  1
  Cu+  Cu75  1  0.82831001  0.33286775  0.16255066  1
  Cu+  Cu76  1  0.83944539  0.33215636  0.49319425  1
  Cu+  Cu77  1  0.83542406  0.33213280  0.82990393  1
  Cu+  Cu78  1  0.83261629  0.66655846  0.16710390  1
  Cu+  Cu79  1  0.83274865  0.66138733  0.50506540  1
  Cu+  Cu80  1  0.83477314  0.66403853  0.83556721  1
  Cu+  Cu81  1  -0.00217994  0.16036123  0.16359305  1
  Cu+  Cu82  1  0.00065772  0.16951558  0.50406776  1
  Cu+  Cu83  1  0.00309572  0.16646111  0.84204217  1
  Cu+  Cu84  1  0.00093869  0.49930581  0.16457625  1
  Cu+  Cu85  1  -0.00262533  0.49842999  0.49817773  1
  Cu+  Cu86  1  0.00034293  0.50179419  0.83453765  1
  Cu+  Cu87  1  -0.00075837  0.83111853  0.17046245  1
  Cu+  Cu88  1  0.00409927  0.83724497  0.50542553  1
  Cu+  Cu89  1  -0.00237727  0.83338384  0.83258762  1
  Cu+  Cu90  1  0.33412958  0.16683265  0.16201769  1
  Cu+  Cu91  1  0.33366331  0.16289435  0.49931815  1
  Cu+  Cu92  1  0.33355834  0.17211655  0.83302207  1
  Cu+  Cu93  1  0.33291985  0.49678645  0.17235782  1
  Cu+  Cu94  1  0.33216471  0.50407425  0.49381141  1
  Cu+  Cu95  1  0.33285601  0.50355810  0.83365620  1
  Cu+  Cu96  1  0.33116286  0.83756208  0.16639517  1
  Cu+  Cu97  1  0.33526659  0.83357639  0.49916679  1
  Cu+  Cu98  1  0.33235521  0.82828346  0.83477925  1
  Cu+  Cu99  1  0.66880160  0.17014378  0.16419133  1
  Cu+  Cu100  1  0.67043046  0.16682788  0.50072779  1
  Cu+  Cu101  1  0.66388761  0.16774397  0.82543312  1
  Cu+  Cu102  1  0.66574846  0.49952795  0.16671684  1
  Cu+  Cu103  1  0.66287789  0.49580163  0.50046519  1
  Cu+  Cu104  1  0.66538732  0.50039600  0.83505808  1
  Cu+  Cu105  1  0.66512475  0.83785424  0.16702331  1
  Cu+  Cu106  1  0.66962068  0.82797029  0.49969435  1
  Cu+  Cu107  1  0.66601548  0.83188310  0.82774336  1
  Cu+  Cu108  1  0.40396492  0.73863843  0.92914203  1
  Cu+  Cu109  1  0.93133075  0.25875205  0.59324041  1
  Cu+  Cu110  1  0.59361015  0.73420353  0.74679174  1
  Cu+  Cu111  1  0.07280331  0.92601619  0.40688824  1
  Cu+  Cu112  1  0.06927377  0.08326373  0.26397116  1
  Cu+  Cu113  1  0.74215500  0.07107363  0.58765596  1
  Cu+  Cu114  1  0.07709467  0.74107576  0.60008944  1
  Cu+  Cu115  1  0.73816638  0.73298431  0.58849513  1
  Cu+  Cu116  1  0.73563700  0.26074140  0.40760063  1
  Cu+  Cu117  1  0.92940907  0.59661551  0.92933329  1
  Cu+  Cu118  1  0.93056416  0.40722673  0.39879163  1
  Cu+  Cu119  1  0.93306131  0.40534604  0.74653119  1
  Cu+  Cu120  1  0.92952833  0.26156321  0.92993159  1
  Cu+  Cu121  1  0.07212429  0.73470992  0.25821085  1
  Cu+  Cu122  1  0.07751895  0.06728957  0.92108312  1
  Cu+  Cu123  1  0.73609685  0.26177128  0.06933829  1
  Cu+  Cu124  1  0.59534155  0.92854499  0.26112460  1
  Cu+  Cu125  1  0.26274628  0.73686278  0.73805894  1
  Cu+  Cu126  1  0.92478455  0.58923131  0.59325504  1
  Cu+  Cu127  1  0.92118162  0.06829281  0.07239126  1
  Cu+  Cu128  1  0.40359212  0.40145027  0.26246578  1
  Cu+  Cu129  1  0.40227005  0.59800000  0.40355925  1
  Cu+  Cu130  1  0.93391040  0.92967872  0.59744006  1
  Cu+  Cu131  1  0.58834337  0.07148169  0.74112286  1
  Cu+  Cu132  1  0.73513300  0.26434842  0.73917338  1
  Te2-  Te133  1  0.25129328  0.24893289  0.07603148  1
  Te2-  Te134  1  0.25174237  0.24979222  0.41435084  1
  Te2-  Te135  1  0.25199920  0.25433991  0.74634929  1
  Te2-  Te136  1  0.25298958  0.58576455  0.08624935  1
  Te2-  Te137  1  0.24794097  0.59179344  0.41227969  1
  Te2-  Te138  1  0.25404686  0.58535359  0.74415167  1
  Te2-  Te139  1  0.24959460  0.92475824  0.08483787  1
  Te2-  Te140  1  0.25276359  0.91637004  0.41332307  1
  Te2-  Te141  1  0.25284516  0.91812512  0.74941409  1
  Te2-  Te142  1  0.58420620  0.25754424  0.08080807  1
  Te2-  Te143  1  0.58497517  0.25110830  0.41376451  1
  Te2-  Te144  1  0.58340058  0.26153320  0.74578020  1
  Te2-  Te145  1  0.58564893  0.58727191  0.08360320  1
  Te2-  Te146  1  0.58589186  0.58090019  0.41187946  1
  Te2-  Te147  1  0.58509643  0.58460088  0.74683110  1
  Te2-  Te148  1  0.58402173  0.91789392  0.07496388  1
  Te2-  Te149  1  0.59118148  0.91748403  0.41535473  1
  Te2-  Te150  1  0.58625433  0.92025076  0.74499895  1
  Te2-  Te151  1  0.92476207  0.25738589  0.08291325  1
  Te2-  Te152  1  0.92679294  0.25147878  0.40940725  1
  Te2-  Te153  1  0.92672971  0.25012329  0.74611245  1
  Te2-  Te154  1  0.92061311  0.58758001  0.08194078  1
  Te2-  Te155  1  0.91433099  0.58324128  0.41281627  1
  Te2-  Te156  1  0.92094007  0.58814574  0.74683705  1
  Te2-  Te157  1  0.91956314  0.91582548  0.08027673  1
  Te2-  Te158  1  0.91958365  0.92116493  0.41626110  1
  Te2-  Te159  1  0.91899650  0.91880342  0.74705874  1
  Te2-  Te160  1  0.25479865  0.08347254  0.25036212  1
  Te2-  Te161  1  0.25062228  0.07874178  0.58474831  1
  Te2-  Te162  1  0.25389585  0.08299207  0.91606381  1
  Te2-  Te163  1  0.24945012  0.40908739  0.25489389  1
  Te2-  Te164  1  0.25198421  0.41808276  0.58098208  1
  Te2-  Te165  1  0.25189307  0.41816637  0.91814707  1
  Te2-  Te166  1  0.25130381  0.75239584  0.25423937  1
  Te2-  Te167  1  0.25659392  0.74628493  0.58395780  1
  Te2-  Te168  1  0.24976311  0.74679448  0.92610555  1
  Te2-  Te169  1  0.59133855  0.08249321  0.25244769  1
  Te2-  Te170  1  0.58960014  0.07706582  0.58673608  1
  Te2-  Te171  1  0.58771807  0.08413148  0.91819984  1
  Te2-  Te172  1  0.58501656  0.41693480  0.25522786  1
  Te2-  Te173  1  0.58221277  0.41331520  0.58680361  1
  Te2-  Te174  1  0.58401679  0.41755878  0.92124533  1
  Te2-  Te175  1  0.58665422  0.74729682  0.25003127  1
  Te2-  Te176  1  0.58639609  0.73875287  0.58441453  1
  Te2-  Te177  1  0.58511051  0.75015497  0.91797517  1
  Te2-  Te178  1  0.91463818  0.08290563  0.25849478  1
  Te2-  Te179  1  0.92296707  0.08376807  0.59301759  1
  Te2-  Te180  1  0.91646701  0.07520826  0.91829192  1
  Te2-  Te181  1  0.92058869  0.40965367  0.24707704  1
  Te2-  Te182  1  0.92386527  0.40897936  0.58906943  1
  Te2-  Te183  1  0.92067653  0.41271146  0.92098574  1
  Te2-  Te184  1  0.91729714  0.74528216  0.25565121  1
  Te2-  Te185  1  0.92462096  0.74295488  0.58929123  1
  Te2-  Te186  1  0.91859482  0.74937147  0.92060385  1
  Te2-  Te187  1  0.08011101  0.25016415  0.24786065  1
  Te2-  Te188  1  0.08495931  0.25464160  0.58862280  1
  Te2-  Te189  1  0.08285893  0.26068806  0.92040375  1
  Te2-  Te190  1  0.07771266  0.58362892  0.25450563  1
  Te2-  Te191  1  0.07762017  0.58628554  0.58739578  1
  Te2-  Te192  1  0.08249806  0.58930920  0.92079931  1
  Te2-  Te193  1  0.07316447  0.92606354  0.25421581  1
  Te2-  Te194  1  0.08636613  0.92201777  0.59411412  1
  Te2-  Te195  1  0.07897005  0.91592473  0.92007855  1
  Te2-  Te196  1  0.41341740  0.24863581  0.25318438  1
  Te2-  Te197  1  0.41528206  0.24753733  0.58555757  1
  Te2-  Te198  1  0.41455162  0.25475768  0.92006526  1
  Te2-  Te199  1  0.41047277  0.59177544  0.25190168  1
  Te2-  Te200  1  0.41251153  0.58490515  0.58469177  1
  Te2-  Te201  1  0.41162957  0.58698585  0.92284721  1
  Te2-  Te202  1  0.41477296  0.92051330  0.25171379  1
  Te2-  Te203  1  0.41896550  0.91516568  0.58470126  1
  Te2-  Te204  1  0.41242447  0.92210662  0.91473682  1
  Te2-  Te205  1  0.74527677  0.25545525  0.25329819  1
  Te2-  Te206  1  0.74629356  0.26153041  0.58390863  1
  Te2-  Te207  1  0.74574409  0.25203309  0.91699983  1
  Te2-  Te208  1  0.74955874  0.58222997  0.25235313  1
  Te2-  Te209  1  0.74470876  0.57783931  0.58873775  1
  Te2-  Te210  1  0.74635254  0.58517262  0.91855214  1
  Te2-  Te211  1  0.74984793  0.92168591  0.25520732  1
  Te2-  Te212  1  0.74503848  0.91762326  0.58630791  1
  Te2-  Te213  1  0.74576563  0.91597715  0.91561674  1
  Te2-  Te214  1  0.07769223  0.07547455  0.07444323  1
  Te2-  Te215  1  0.07603635  0.08108008  0.41575747  1
  Te2-  Te216  1  0.07971663  0.08164165  0.74922604  1
  Te2-  Te217  1  0.08267570  0.41441624  0.08054210  1
  Te2-  Te218  1  0.08158905  0.41354636  0.41194937  1
  Te2-  Te219  1  0.08295973  0.41582197  0.74574468  1
  Te2-  Te220  1  0.08200616  0.74933485  0.08251852  1
  Te2-  Te221  1  0.07625491  0.74686299  0.41412661  1
  Te2-  Te222  1  0.07703840  0.74465464  0.75101672  1
  Te2-  Te223  1  0.41936787  0.08098201  0.08114994  1
  Te2-  Te224  1  0.41651212  0.07805341  0.41548035  1
  Te2-  Te225  1  0.41370371  0.08499563  0.74839799  1
  Te2-  Te226  1  0.41435252  0.41639487  0.08170711  1
  Te2-  Te227  1  0.40989829  0.40760392  0.41560397  1
  Te2-  Te228  1  0.41330175  0.41703213  0.74944130  1
  Te2-  Te229  1  0.40978475  0.74814755  0.08252632  1
  Te2-  Te230  1  0.41478218  0.75045463  0.40994087  1
  Te2-  Te231  1  0.41341627  0.74566005  0.74257697  1
  Te2-  Te232  1  0.74963889  0.08223882  0.07925782  1
  Te2-  Te233  1  0.75306075  0.07805437  0.41722372  1
  Te2-  Te234  1  0.74764201  0.07799890  0.74454834  1
  Te2-  Te235  1  0.74562378  0.41677893  0.07617376  1
  Te2-  Te236  1  0.74391697  0.41234831  0.41348731  1
  Te2-  Te237  1  0.74429409  0.41573556  0.74719998  1
  Te2-  Te238  1  0.74617562  0.74905912  0.08409605  1
  Te2-  Te239  1  0.75310461  0.74424606  0.41572102  1
  Te2-  Te240  1  0.74798103  0.74094099  0.74405065  1
