# generated using pymatgen
data_Ti27(Cu53Te54)2
_symmetry_space_group_name_H-M   'P 1'
_cell_length_a   17.88841064
_cell_length_b   17.88124081
_cell_length_c   17.88671517
_cell_angle_alpha   89.98878031
_cell_angle_beta   89.94725277
_cell_angle_gamma   89.97026522
_symmetry_Int_Tables_number   1
_chemical_formula_structural   Ti27(Cu53Te54)2
_chemical_formula_sum   'Ti27 Cu106 Te108'
_cell_volume   5721.36622935
_cell_formula_units_Z   1
loop_
 _symmetry_equiv_pos_site_id
 _symmetry_equiv_pos_as_xyz
  1  'x, y, z'
loop_
 _atom_type_symbol
 _atom_type_oxidation_number
  Ti4+  4.0
  Cu+  1.0
  Te2-  -2.0
loop_
 _atom_site_type_symbol
 _atom_site_label
 _atom_site_symmetry_multiplicity
 _atom_site_fract_x
 _atom_site_fract_y
 _atom_site_fract_z
 _atom_site_occupancy
  Ti4+  Ti0  1  0.16780826  0.16643804  0.16429254  1
  Ti4+  Ti1  1  0.16760965  0.16864939  0.50320075  1
  Ti4+  Ti2  1  0.16210196  0.16787358  0.83116304  1
  Ti4+  Ti3  1  0.16496876  0.50079183  0.16622702  1
  Ti4+  Ti4  1  0.16484373  0.50122401  0.49972750  1
  Ti4+  Ti5  1  0.16870575  0.50250199  0.83594571  1
  Ti4+  Ti6  1  0.16675412  0.83315261  0.16781365  1
  Ti4+  Ti7  1  0.16803256  0.83155361  0.49971674  1
  Ti4+  Ti8  1  0.16862687  0.83242687  0.83610275  1
  Ti4+  Ti9  1  0.50476460  0.16749966  0.16484503  1
  Ti4+  Ti10  1  0.49621403  0.16163583  0.50073512  1
  Ti4+  Ti11  1  0.49703429  0.16532441  0.83345714  1
  Ti4+  Ti12  1  0.50072137  0.49905747  0.16688939  1
  Ti4+  Ti13  1  0.49803269  0.49917343  0.49901040  1
  Ti4+  Ti14  1  0.50013274  0.49827790  0.83284443  1
  Ti4+  Ti15  1  0.49894430  0.83455827  0.16760247  1
  Ti4+  Ti16  1  0.50029550  0.83391371  0.49977446  1
  Ti4+  Ti17  1  0.50234929  0.83274498  0.83434583  1
  Ti4+  Ti18  1  0.83740455  0.16624046  0.16629802  1
  Ti4+  Ti19  1  0.83205131  0.16847256  0.49979913  1
  Ti4+  Ti20  1  0.83409487  0.16584668  0.83387486  1
  Ti4+  Ti21  1  0.83584955  0.50049797  0.16615910  1
  Ti4+  Ti22  1  0.83190888  0.50227191  0.49782935  1
  Ti4+  Ti23  1  0.83162283  0.50350006  0.83239124  1
  Ti4+  Ti24  1  0.83258285  0.83346640  0.16930879  1
  Ti4+  Ti25  1  0.83582807  0.83490782  0.50099498  1
  Ti4+  Ti26  1  0.83301146  0.83030460  0.83146717  1
  Cu+  Cu27  1  0.16198436  0.17009105  -0.00239214  1
  Cu+  Cu28  1  0.17191284  0.16943038  0.33620334  1
  Cu+  Cu29  1  0.16028821  0.16445586  0.66347917  1
  Cu+  Cu30  1  0.16745661  0.50584388  0.00144194  1
  Cu+  Cu31  1  0.16081684  0.50071352  0.33319308  1
  Cu+  Cu32  1  0.16749955  0.50306522  0.66757083  1
  Cu+  Cu33  1  0.16721922  0.83224389  0.00223241  1
  Cu+  Cu34  1  0.17002645  0.82781335  0.33355033  1
  Cu+  Cu35  1  0.16752903  0.83496745  0.67144059  1
  Cu+  Cu36  1  0.50489908  0.16961297  -0.00085538  1
  Cu+  Cu37  1  0.49729150  0.16225287  0.32799221  1
  Cu+  Cu38  1  0.49064020  0.16143754  0.66697711  1
  Cu+  Cu39  1  0.50344391  0.49851274  0.00130215  1
  Cu+  Cu40  1  0.49916277  0.49858147  0.33321315  1
  Cu+  Cu41  1  0.49671323  0.49470426  0.66311863  1
  Cu+  Cu42  1  0.49922176  0.83371423  0.00286739  1
  Cu+  Cu43  1  0.50078009  0.84105414  0.33203101  1
  Cu+  Cu44  1  0.50503358  0.83430811  0.66793710  1
  Cu+  Cu45  1  0.83496583  0.16554905  0.00015810  1
  Cu+  Cu46  1  0.83456220  0.16615685  0.33289763  1
  Cu+  Cu47  1  0.83200966  0.17041600  0.66856510  1
  Cu+  Cu48  1  0.83725070  0.50230477  -0.00030348  1
  Cu+  Cu49  1  0.83735353  0.49540250  0.33222353  1
  Cu+  Cu50  1  0.82972464  0.50797392  0.66502588  1
  Cu+  Cu51  1  0.83130820  0.82924486  0.00110259  1
  Cu+  Cu52  1  0.83596453  0.83680535  0.33574168  1
  Cu+  Cu53  1  0.83464923  0.83121083  0.66535772  1
  Cu+  Cu54  1  0.16752483  -0.00300560  0.16832739  1
  Cu+  Cu55  1  0.16767573  0.00553190  0.50204735  1
  Cu+  Cu56  1  0.16042844  -0.00148660  0.83201626  1
  Cu+  Cu57  1  0.16468945  0.33248395  0.16292287  1
  Cu+  Cu58  1  0.16766585  0.33312390  0.50049057  1
  Cu+  Cu59  1  0.16933541  0.33544668  0.83457093  1
  Cu+  Cu60  1  0.16373111  0.66666225  0.16504094  1
  Cu+  Cu61  1  0.16943390  0.66409079  0.49803986  1
  Cu+  Cu62  1  0.17451643  0.66778215  0.83816601  1
  Cu+  Cu63  1  0.50351592  0.00196576  0.17055730  1
  Cu+  Cu64  1  0.49465541  -0.00576546  0.50501535  1
  Cu+  Cu65  1  0.50117443  -0.00137796  0.83310730  1
  Cu+  Cu66  1  0.50428272  0.33488863  0.16382541  1
  Cu+  Cu67  1  0.49759905  0.33292594  0.49690680  1
  Cu+  Cu68  1  0.49743855  0.32846294  0.83192069  1
  Cu+  Cu69  1  0.49884044  0.66676260  0.16792972  1
  Cu+  Cu70  1  0.49910383  0.66593558  0.49869013  1
  Cu+  Cu71  1  0.50375623  0.66546435  0.83411371  1
  Cu+  Cu72  1  0.83804622  -0.00081263  0.17029074  1
  Cu+  Cu73  1  0.83299697  0.00318559  0.49835636  1
  Cu+  Cu74  1  0.83404237  -0.00085607  0.83167185  1
  Cu+  Cu75  1  0.83742515  0.33419354  0.16591081  1
  Cu+  Cu76  1  0.83374947  0.33541432  0.49862286  1
  Cu+  Cu77  1  0.83135452  0.33524215  0.83061146  1
  Cu+  Cu78  1  0.83126239  0.66739661  0.16941134  1
  Cu+  Cu79  1  0.83511284  0.66875605  0.50266434  1
  Cu+  Cu80  1  0.82724399  0.66616697  0.83431556  1
  Cu+  Cu81  1  0.00385072  0.16827741  0.16356333  1
  Cu+  Cu82  1  0.00056279  0.17050529  0.50248316  1
  Cu+  Cu83  1  -0.00192365  0.16301394  0.83700006  1
  Cu+  Cu84  1  0.00221046  0.50346836  0.16253076  1
  Cu+  Cu85  1  -0.00395120  0.50234945  0.49572599  1
  Cu+  Cu86  1  -0.00129585  0.50290527  0.83451466  1
  Cu+  Cu87  1  -0.00265630  0.83521977  0.17162963  1
  Cu+  Cu88  1  0.00071763  0.83351982  0.49973763  1
  Cu+  Cu89  1  0.00259607  0.83183958  0.83015317  1
  Cu+  Cu90  1  0.33843126  0.16668511  0.16350969  1
  Cu+  Cu91  1  0.33116299  0.15854072  0.50297537  1
  Cu+  Cu92  1  0.32941717  0.17280722  0.82886985  1
  Cu+  Cu93  1  0.33456291  0.49573508  0.16825340  1
  Cu+  Cu94  1  0.33340382  0.50128738  0.50191329  1
  Cu+  Cu95  1  0.33277470  0.50001894  0.83705576  1
  Cu+  Cu96  1  0.33163562  0.83211216  0.16527318  1
  Cu+  Cu97  1  0.33141750  0.82860689  0.49492171  1
  Cu+  Cu98  1  0.33724631  0.83167978  0.83420913  1
  Cu+  Cu99  1  0.67357213  0.16698147  0.16393085  1
  Cu+  Cu100  1  0.66532974  0.16610505  0.50066057  1
  Cu+  Cu101  1  0.66645290  0.16765213  0.83374256  1
  Cu+  Cu102  1  0.66974249  0.49828776  0.16630436  1
  Cu+  Cu103  1  0.66278191  0.49818845  0.49830847  1
  Cu+  Cu104  1  0.66396571  0.50460838  0.83172278  1
  Cu+  Cu105  1  0.66300132  0.83643753  0.17018386  1
  Cu+  Cu106  1  0.66869964  0.83598325  0.50216944  1
  Cu+  Cu107  1  0.67000528  0.82755398  0.83440970  1
  Cu+  Cu108  1  0.40289963  0.92002593  0.40562773  1
  Cu+  Cu109  1  0.26305137  0.59124913  0.59508236  1
  Cu+  Cu110  1  0.25788177  0.25745085  0.92674424  1
  Cu+  Cu111  1  0.07153132  0.92285818  0.73967464  1
  Cu+  Cu112  1  0.74017122  0.74151884  0.93339905  1
  Cu+  Cu113  1  0.40596985  0.07486000  0.24943519  1
  Cu+  Cu114  1  0.25437486  0.07640955  0.40548729  1
  Cu+  Cu115  1  0.93057145  0.92805166  0.26392175  1
  Cu+  Cu116  1  0.73245954  0.59376197  0.73313235  1
  Cu+  Cu117  1  0.07354041  0.59891214  0.07261190  1
  Cu+  Cu118  1  0.59775632  0.25805599  0.92450129  1
  Cu+  Cu119  1  0.59626403  0.93105547  0.26024290  1
  Cu+  Cu120  1  0.06660698  0.07329777  0.58445145  1
  Cu+  Cu121  1  0.07103237  0.26319663  0.07098473  1
  Cu+  Cu122  1  0.07366337  0.06925706  0.92996713  1
  Cu+  Cu123  1  0.92584197  0.59460809  0.92514874  1
  Cu+  Cu124  1  0.58939921  0.59308941  0.93158794  1
  Cu+  Cu125  1  0.06882357  0.59564566  0.40599034  1
  Cu+  Cu126  1  0.40435747  0.06369527  0.60026534  1
  Cu+  Cu127  1  0.40425846  0.26194958  0.73466713  1
  Cu+  Cu128  1  0.26522692  0.59647139  0.93305886  1
  Cu+  Cu129  1  0.59892079  0.92410365  0.59811786  1
  Cu+  Cu130  1  0.26264978  0.73337796  0.40281619  1
  Cu+  Cu131  1  0.92604392  0.40337394  0.40448915  1
  Cu+  Cu132  1  0.92644602  0.59399322  0.59320586  1
  Te2-  Te133  1  0.25574089  0.25244346  0.07995920  1
  Te2-  Te134  1  0.25658823  0.25350282  0.41822313  1
  Te2-  Te135  1  0.24620809  0.25429600  0.74101197  1
  Te2-  Te136  1  0.25688633  0.58705761  0.08476392  1
  Te2-  Te137  1  0.25485986  0.58219122  0.40951995  1
  Te2-  Te138  1  0.25610253  0.58735857  0.74857649  1
  Te2-  Te139  1  0.25170615  0.91834761  0.08162015  1
  Te2-  Te140  1  0.25029147  0.92192957  0.41214597  1
  Te2-  Te141  1  0.25468815  0.91907278  0.75218515  1
  Te2-  Te142  1  0.59212634  0.25446032  0.08022807  1
  Te2-  Te143  1  0.57949167  0.24607121  0.41469979  1
  Te2-  Te144  1  0.58232652  0.24764747  0.74350332  1
  Te2-  Te145  1  0.58837066  0.58708474  0.08409356  1
  Te2-  Te146  1  0.58366166  0.58485048  0.41346758  1
  Te2-  Te147  1  0.58104930  0.58478024  0.74112062  1
  Te2-  Te148  1  0.58457867  0.92036142  0.08128063  1
  Te2-  Te149  1  0.58845509  0.92318610  0.41598568  1
  Te2-  Te150  1  0.59117696  0.91952066  0.75074154  1
  Te2-  Te151  1  0.92051384  0.25383542  0.07792013  1
  Te2-  Te152  1  0.92065567  0.25202301  0.41319610  1
  Te2-  Te153  1  0.91950775  0.25249171  0.75017247  1
  Te2-  Te154  1  0.91959165  0.59292917  0.08012720  1
  Te2-  Te155  1  0.91619586  0.59138029  0.40890816  1
  Te2-  Te156  1  0.92013399  0.59017163  0.74776901  1
  Te2-  Te157  1  0.91733228  0.91609618  0.08008439  1
  Te2-  Te158  1  0.92252269  0.92310240  0.41675746  1
  Te2-  Te159  1  0.91858783  0.91807576  0.74571434  1
  Te2-  Te160  1  0.25389870  0.07967121  0.25135330  1
  Te2-  Te161  1  0.25262695  0.07761912  0.59391896  1
  Te2-  Te162  1  0.24854741  0.08262975  0.91519735  1
  Te2-  Te163  1  0.24747466  0.41405208  0.25159253  1
  Te2-  Te164  1  0.25062870  0.41561795  0.58568129  1
  Te2-  Te165  1  0.25310997  0.41476259  0.92356475  1
  Te2-  Te166  1  0.25405477  0.74351330  0.24996743  1
  Te2-  Te167  1  0.25236154  0.74760656  0.58897075  1
  Te2-  Te168  1  0.25773715  0.74969326  0.92431738  1
  Te2-  Te169  1  0.59373596  0.08373161  0.25294887  1
  Te2-  Te170  1  0.58433444  0.07916093  0.58787117  1
  Te2-  Te171  1  0.58556657  0.08023712  0.91779243  1
  Te2-  Te172  1  0.58699516  0.41484011  0.25220103  1
  Te2-  Te173  1  0.58359305  0.41135803  0.58302989  1
  Te2-  Te174  1  0.58684867  0.41121582  0.91671584  1
  Te2-  Te175  1  0.58293644  0.74826523  0.25444840  1
  Te2-  Te176  1  0.58576088  0.74710232  0.58320385  1
  Te2-  Te177  1  0.58680921  0.74668056  0.92446352  1
  Te2-  Te178  1  0.92506650  0.08273221  0.25389237  1
  Te2-  Te179  1  0.91635439  0.08238309  0.58743811  1
  Te2-  Te180  1  0.91801386  0.07647743  0.92130438  1
  Te2-  Te181  1  0.92550315  0.41380269  0.24899911  1
  Te2-  Te182  1  0.91650892  0.41862805  0.58732345  1
  Te2-  Te183  1  0.91723453  0.41520776  0.91624971  1
  Te2-  Te184  1  0.91734119  0.74663799  0.25508680  1
  Te2-  Te185  1  0.92313807  0.74836660  0.58720664  1
  Te2-  Te186  1  0.92121483  0.74736438  0.91842779  1
  Te2-  Te187  1  0.08491929  0.25025757  0.25336328  1
  Te2-  Te188  1  0.08041923  0.25731845  0.58660415  1
  Te2-  Te189  1  0.07596752  0.25788237  0.91575604  1
  Te2-  Te190  1  0.07791796  0.58865559  0.25275207  1
  Te2-  Te191  1  0.07909621  0.58755224  0.58676202  1
  Te2-  Te192  1  0.07961711  0.59197060  0.91997639  1
  Te2-  Te193  1  0.08345942  0.91884399  0.25722378  1
  Te2-  Te194  1  0.08078322  0.91903964  0.58568959  1
  Te2-  Te195  1  0.07859836  0.91570180  0.92292035  1
  Te2-  Te196  1  0.41753348  0.25443602  0.24862376  1
  Te2-  Te197  1  0.41088860  0.25255833  0.58216691  1
  Te2-  Te198  1  0.41124967  0.25222361  0.92255057  1
  Te2-  Te199  1  0.41431744  0.58370000  0.25198619  1
  Te2-  Te200  1  0.41458223  0.58802718  0.58726184  1
  Te2-  Te201  1  0.41675853  0.58582841  0.92096332  1
  Te2-  Te202  1  0.40682320  0.92169194  0.25183444  1
  Te2-  Te203  1  0.40741205  0.91162785  0.59040667  1
  Te2-  Te204  1  0.41694025  0.91804954  0.91924426  1
  Te2-  Te205  1  0.75229798  0.25279589  0.25048639  1
  Te2-  Te206  1  0.74696781  0.25403354  0.58449230  1
  Te2-  Te207  1  0.74983878  0.25403310  0.91990071  1
  Te2-  Te208  1  0.74995757  0.58231103  0.25375379  1
  Te2-  Te209  1  0.74096656  0.58899440  0.58035074  1
  Te2-  Te210  1  0.74284046  0.58666160  0.92598638  1
  Te2-  Te211  1  0.74781306  0.92138284  0.25567387  1
  Te2-  Te212  1  0.75127802  0.92198988  0.58777094  1
  Te2-  Te213  1  0.74957797  0.91724370  0.91745241  1
  Te2-  Te214  1  0.08203269  0.07654714  0.08135982  1
  Te2-  Te215  1  0.08104222  0.08451370  0.41446320  1
  Te2-  Te216  1  0.07390662  0.07917824  0.74375327  1
  Te2-  Te217  1  0.07996725  0.41543421  0.07644137  1
  Te2-  Te218  1  0.08018867  0.41118396  0.41457777  1
  Te2-  Te219  1  0.08272363  0.41885920  0.75062946  1
  Te2-  Te220  1  0.07706262  0.75122183  0.08187052  1
  Te2-  Te221  1  0.07942703  0.74762943  0.41403807  1
  Te2-  Te222  1  0.08590055  0.74341804  0.74997435  1
  Te2-  Te223  1  0.42008373  0.08075579  0.07857922  1
  Te2-  Te224  1  0.41008360  0.07453209  0.40887241  1
  Te2-  Te225  1  0.40810349  0.07513534  0.75238754  1
  Te2-  Te226  1  0.41587347  0.41353133  0.08013895  1
  Te2-  Te227  1  0.41154543  0.41485095  0.41380590  1
  Te2-  Te228  1  0.41083703  0.41398374  0.74796496  1
  Te2-  Te229  1  0.41467135  0.74777826  0.08238873  1
  Te2-  Te230  1  0.41706696  0.74637128  0.40939619  1
  Te2-  Te231  1  0.41868642  0.74750582  0.74837105  1
  Te2-  Te232  1  0.75304364  0.07871758  0.08218015  1
  Te2-  Te233  1  0.74751546  0.08307156  0.41413458  1
  Te2-  Te234  1  0.74774942  0.08221166  0.74871618  1
  Te2-  Te235  1  0.75232222  0.41540336  0.08026687  1
  Te2-  Te236  1  0.74655885  0.41520513  0.41341429  1
  Te2-  Te237  1  0.74672752  0.41811201  0.74617379  1
  Te2-  Te238  1  0.74301519  0.74713018  0.08623919  1
  Te2-  Te239  1  0.74972577  0.75077626  0.41613251  1
  Te2-  Te240  1  0.74581046  0.74614763  0.74153746  1
