# generated using pymatgen
data_Ti27(Cu53Te54)2
_symmetry_space_group_name_H-M   'P 1'
_cell_length_a   17.88271764
_cell_length_b   17.88328503
_cell_length_c   17.88154061
_cell_angle_alpha   89.99333948
_cell_angle_beta   89.97367605
_cell_angle_gamma   90.04591272
_symmetry_Int_Tables_number   1
_chemical_formula_structural   Ti27(Cu53Te54)2
_chemical_formula_sum   'Ti27 Cu106 Te108'
_cell_volume   5718.54526209
_cell_formula_units_Z   1
loop_
 _symmetry_equiv_pos_site_id
 _symmetry_equiv_pos_as_xyz
  1  'x, y, z'
loop_
 _atom_type_symbol
 _atom_type_oxidation_number
  Ti4+  4.0
  Cu+  1.0
  Te2-  -2.0
loop_
 _atom_site_type_symbol
 _atom_site_label
 _atom_site_symmetry_multiplicity
 _atom_site_fract_x
 _atom_site_fract_y
 _atom_site_fract_z
 _atom_site_occupancy
  Ti4+  Ti0  1  0.16642536  0.16664129  0.16565987  1
  Ti4+  Ti1  1  0.17093635  0.16939183  0.49713352  1
  Ti4+  Ti2  1  0.16863955  0.16581730  0.83264451  1
  Ti4+  Ti3  1  0.16540068  0.49848350  0.16613983  1
  Ti4+  Ti4  1  0.16851246  0.50159099  0.50048398  1
  Ti4+  Ti5  1  0.16823968  0.49926852  0.83352191  1
  Ti4+  Ti6  1  0.16651248  0.83288566  0.16674475  1
  Ti4+  Ti7  1  0.16424107  0.83337484  0.49866601  1
  Ti4+  Ti8  1  0.16734829  0.83245836  0.83589833  1
  Ti4+  Ti9  1  0.49663484  0.16738917  0.16596040  1
  Ti4+  Ti10  1  0.49728342  0.16435142  0.50134480  1
  Ti4+  Ti11  1  0.50244557  0.16645363  0.83889795  1
  Ti4+  Ti12  1  0.50112965  0.50088377  0.16520682  1
  Ti4+  Ti13  1  0.50047588  0.50042021  0.50047477  1
  Ti4+  Ti14  1  0.49796548  0.49854212  0.83275525  1
  Ti4+  Ti15  1  0.49972133  0.83758602  0.16680537  1
  Ti4+  Ti16  1  0.49793074  0.83127935  0.49566490  1
  Ti4+  Ti17  1  0.50064034  0.83571829  0.83288561  1
  Ti4+  Ti18  1  0.83426622  0.16962180  0.16855573  1
  Ti4+  Ti19  1  0.83281614  0.16528801  0.50227456  1
  Ti4+  Ti20  1  0.83287141  0.16921391  0.83239681  1
  Ti4+  Ti21  1  0.83345216  0.50209834  0.16606363  1
  Ti4+  Ti22  1  0.83628284  0.49859513  0.50064353  1
  Ti4+  Ti23  1  0.82990340  0.49962312  0.83220903  1
  Ti4+  Ti24  1  0.83523113  0.83425424  0.16895229  1
  Ti4+  Ti25  1  0.82820614  0.82857561  0.50067863  1
  Ti4+  Ti26  1  0.83636681  0.83229368  0.83532649  1
  Cu+  Cu27  1  0.17003050  0.16787470  -0.00181861  1
  Cu+  Cu28  1  0.16841786  0.16936220  0.33233804  1
  Cu+  Cu29  1  0.16944749  0.16484379  0.66020129  1
  Cu+  Cu30  1  0.16617237  0.49652615  0.00244694  1
  Cu+  Cu31  1  0.16571647  0.49884778  0.33064348  1
  Cu+  Cu32  1  0.16940910  0.50133382  0.66501156  1
  Cu+  Cu33  1  0.16394818  0.83443841  0.00229679  1
  Cu+  Cu34  1  0.16666987  0.83040859  0.33143776  1
  Cu+  Cu35  1  0.16512062  0.83365519  0.66866357  1
  Cu+  Cu36  1  0.50085740  0.15696522  0.00275289  1
  Cu+  Cu37  1  0.49354141  0.16719287  0.33188906  1
  Cu+  Cu38  1  0.49882332  0.16405920  0.67284000  1
  Cu+  Cu39  1  0.49994414  0.50032251  -0.00042133  1
  Cu+  Cu40  1  0.50027994  0.50028416  0.32989377  1
  Cu+  Cu41  1  0.49831427  0.49888872  0.66804614  1
  Cu+  Cu42  1  0.50354023  0.83856410  -0.00076148  1
  Cu+  Cu43  1  0.49506826  0.83727055  0.33269512  1
  Cu+  Cu44  1  0.50135359  0.83148689  0.66120467  1
  Cu+  Cu45  1  0.83149962  0.17187765  -0.00085472  1
  Cu+  Cu46  1  0.83279558  0.16636374  0.33402822  1
  Cu+  Cu47  1  0.83131931  0.16796726  0.67152372  1
  Cu+  Cu48  1  0.83220185  0.50397347  -0.00312978  1
  Cu+  Cu49  1  0.83221054  0.50205649  0.33267939  1
  Cu+  Cu50  1  0.83751000  0.49504806  0.66758212  1
  Cu+  Cu51  1  0.83852540  0.82947965  0.00451698  1
  Cu+  Cu52  1  0.82999672  0.82975582  0.33654808  1
  Cu+  Cu53  1  0.83403827  0.83135912  0.66608032  1
  Cu+  Cu54  1  0.16497524  -0.00199129  0.16419563  1
  Cu+  Cu55  1  0.16643285  0.00656717  0.50181840  1
  Cu+  Cu56  1  0.16510008  -0.00444881  0.83124413  1
  Cu+  Cu57  1  0.16567582  0.33449903  0.16644495  1
  Cu+  Cu58  1  0.17191804  0.33652080  0.49866189  1
  Cu+  Cu59  1  0.17057121  0.33172514  0.83552579  1
  Cu+  Cu60  1  0.16726531  0.66165722  0.16883445  1
  Cu+  Cu61  1  0.16789131  0.66865215  0.49813187  1
  Cu+  Cu62  1  0.16852132  0.66818936  0.83726510  1
  Cu+  Cu63  1  0.49816236  0.00631692  0.16692599  1
  Cu+  Cu64  1  0.49810589  -0.00627748  0.49980481  1
  Cu+  Cu65  1  0.50816259  0.00013140  0.84174749  1
  Cu+  Cu66  1  0.50090276  0.33560463  0.16578142  1
  Cu+  Cu67  1  0.50038987  0.33240283  0.50117060  1
  Cu+  Cu68  1  0.49551042  0.33173311  0.83407158  1
  Cu+  Cu69  1  0.50164925  0.67021099  0.16552446  1
  Cu+  Cu70  1  0.49720720  0.66363553  0.49539237  1
  Cu+  Cu71  1  0.49765037  0.66677082  0.83088040  1
  Cu+  Cu72  1  0.83516550  0.00314498  0.17044230  1
  Cu+  Cu73  1  0.82708003  -0.00353420  0.50382930  1
  Cu+  Cu74  1  0.83509059  0.00193577  0.83557165  1
  Cu+  Cu75  1  0.83170894  0.33535509  0.16627597  1
  Cu+  Cu76  1  0.83506839  0.33245063  0.50431227  1
  Cu+  Cu77  1  0.83087711  0.33603493  0.82562380  1
  Cu+  Cu78  1  0.83684800  0.67050319  0.16557887  1
  Cu+  Cu79  1  0.83013078  0.66154422  0.49399437  1
  Cu+  Cu80  1  0.83420462  0.66371301  0.83846563  1
  Cu+  Cu81  1  -0.00117034  0.16800877  0.16495246  1
  Cu+  Cu82  1  0.00282204  0.16881628  0.50006966  1
  Cu+  Cu83  1  -0.00113752  0.16530136  0.83085951  1
  Cu+  Cu84  1  0.00091884  0.49906763  0.16601988  1
  Cu+  Cu85  1  0.00499251  0.50165572  0.50260870  1
  Cu+  Cu86  1  0.00055519  0.49709258  0.83266504  1
  Cu+  Cu87  1  0.00225072  0.83333639  0.16434234  1
  Cu+  Cu88  1  -0.00691710  0.82868564  0.50139272  1
  Cu+  Cu89  1  0.00522462  0.83337716  0.83347504  1
  Cu+  Cu90  1  0.33253527  0.16572283  0.16868325  1
  Cu+  Cu91  1  0.33486319  0.17307473  0.49569222  1
  Cu+  Cu92  1  0.33246670  0.17218188  0.84143218  1
  Cu+  Cu93  1  0.33193206  0.49904092  0.16641067  1
  Cu+  Cu94  1  0.33508026  0.50355418  0.49875605  1
  Cu+  Cu95  1  0.33575899  0.50103779  0.83051746  1
  Cu+  Cu96  1  0.33334749  0.83311868  0.16594281  1
  Cu+  Cu97  1  0.32868741  0.82985921  0.49301116  1
  Cu+  Cu98  1  0.33153180  0.83160152  0.83493342  1
  Cu+  Cu99  1  0.66778143  0.17114509  0.16678802  1
  Cu+  Cu100  1  0.66390224  0.16268177  0.50413381  1
  Cu+  Cu101  1  0.66951625  0.16950561  0.82967454  1
  Cu+  Cu102  1  0.66594846  0.50325614  0.16582692  1
  Cu+  Cu103  1  0.66911142  0.49874488  0.50071335  1
  Cu+  Cu104  1  0.66178033  0.49750433  0.83409662  1
  Cu+  Cu105  1  0.66733855  0.83621667  0.17039586  1
  Cu+  Cu106  1  0.66411191  0.83414818  0.49655301  1
  Cu+  Cu107  1  0.66997349  0.83556578  0.83488208  1
  Cu+  Cu108  1  0.41107604  0.26532436  0.40386745  1
  Cu+  Cu109  1  0.40200277  0.07547108  0.26073964  1
  Cu+  Cu110  1  0.40585321  0.58773942  0.39911956  1
  Cu+  Cu111  1  0.07535380  0.08119202  0.58712370  1
  Cu+  Cu112  1  0.07804115  0.92218691  0.73965107  1
  Cu+  Cu113  1  0.74112800  0.92911393  0.40509457  1
  Cu+  Cu114  1  0.40252158  0.07010434  0.92210314  1
  Cu+  Cu115  1  0.92460663  0.07336776  0.74612236  1
  Cu+  Cu116  1  0.59254206  0.07424620  0.74309186  1
  Cu+  Cu117  1  0.93033617  0.58691662  0.92254305  1
  Cu+  Cu118  1  0.59020300  0.92161807  0.58901199  1
  Cu+  Cu119  1  0.07226668  0.93049665  0.07461337  1
  Cu+  Cu120  1  0.92429717  0.73517227  0.40827984  1
  Cu+  Cu121  1  0.93190445  0.73967024  0.07504148  1
  Cu+  Cu122  1  0.40590436  0.59695992  0.73988835  1
  Cu+  Cu123  1  0.73703734  0.58515376  0.40304472  1
  Cu+  Cu124  1  0.73728558  0.26514388  0.73665600  1
  Cu+  Cu125  1  0.60232252  0.92198143  0.93054951  1
  Cu+  Cu126  1  0.25636928  0.73831635  0.40147187  1
  Cu+  Cu127  1  0.25975425  0.26527485  0.93228063  1
  Cu+  Cu128  1  0.59986889  0.07717530  0.08352555  1
  Cu+  Cu129  1  0.92233422  0.92148326  0.58677446  1
  Cu+  Cu130  1  0.40447292  0.25509196  0.74258025  1
  Cu+  Cu131  1  0.39878604  0.92601128  0.40951225  1
  Cu+  Cu132  1  0.93281702  0.40841959  0.73964269  1
  Te2-  Te133  1  0.25408167  0.25425270  0.08297153  1
  Te2-  Te134  1  0.25453664  0.25770179  0.40903410  1
  Te2-  Te135  1  0.25252651  0.25087557  0.74393647  1
  Te2-  Te136  1  0.25191281  0.58414409  0.08049678  1
  Te2-  Te137  1  0.25287214  0.58680326  0.40844197  1
  Te2-  Te138  1  0.25180761  0.58809272  0.74804140  1
  Te2-  Te139  1  0.25324414  0.91791532  0.08089010  1
  Te2-  Te140  1  0.24620825  0.92321905  0.41234742  1
  Te2-  Te141  1  0.25372479  0.91730562  0.74771999  1
  Te2-  Te142  1  0.58289878  0.25199835  0.07940295  1
  Te2-  Te143  1  0.58365776  0.24767692  0.41554047  1
  Te2-  Te144  1  0.58474211  0.25539400  0.74759600  1
  Te2-  Te145  1  0.58484776  0.58777436  0.07959308  1
  Te2-  Te146  1  0.58663798  0.58442962  0.41220273  1
  Te2-  Te147  1  0.58474799  0.58465007  0.74793115  1
  Te2-  Te148  1  0.58997732  0.92400987  0.08309073  1
  Te2-  Te149  1  0.58606429  0.92079086  0.40924055  1
  Te2-  Te150  1  0.58830458  0.91997659  0.74420642  1
  Te2-  Te151  1  0.91793713  0.25480703  0.08105945  1
  Te2-  Te152  1  0.91718327  0.25053833  0.41736691  1
  Te2-  Te153  1  0.92326333  0.25483689  0.74504707  1
  Te2-  Te154  1  0.92277693  0.58689208  0.07863076  1
  Te2-  Te155  1  0.92459355  0.58278249  0.41250602  1
  Te2-  Te156  1  0.91899926  0.58571494  0.74813855  1
  Te2-  Te157  1  0.91894473  0.92348963  0.08199430  1
  Te2-  Te158  1  0.91521112  0.91876415  0.41651142  1
  Te2-  Te159  1  0.92195581  0.91984231  0.74562280  1
  Te2-  Te160  1  0.24907404  0.07819973  0.25282654  1
  Te2-  Te161  1  0.25952844  0.08291947  0.58236503  1
  Te2-  Te162  1  0.25004124  0.07558428  0.91846362  1
  Te2-  Te163  1  0.25213371  0.41362843  0.25181201  1
  Te2-  Te164  1  0.25588865  0.41706222  0.58465384  1
  Te2-  Te165  1  0.25615847  0.41630447  0.91994920  1
  Te2-  Te166  1  0.25423180  0.74487828  0.24987215  1
  Te2-  Te167  1  0.25006958  0.75075179  0.58619860  1
  Te2-  Te168  1  0.25221515  0.74861615  0.92374582  1
  Te2-  Te169  1  0.58562716  0.08557591  0.25355720  1
  Te2-  Te170  1  0.58325747  0.07684250  0.58864023  1
  Te2-  Te171  1  0.59822965  0.08156123  0.92384817  1
  Te2-  Te172  1  0.58709055  0.41538487  0.25090325  1
  Te2-  Te173  1  0.58540960  0.41481608  0.58525118  1
  Te2-  Te174  1  0.58199326  0.41199950  0.91891648  1
  Te2-  Te175  1  0.58310414  0.75204068  0.25306037  1
  Te2-  Te176  1  0.58437659  0.74430942  0.57982486  1
  Te2-  Te177  1  0.58445124  0.74824460  0.91663008  1
  Te2-  Te178  1  0.92074435  0.08396250  0.25366589  1
  Te2-  Te179  1  0.91988205  0.07804909  0.58978206  1
  Te2-  Te180  1  0.91822429  0.08493017  0.92095603  1
  Te2-  Te181  1  0.91713442  0.41640540  0.25184311  1
  Te2-  Te182  1  0.92510516  0.41223873  0.58515176  1
  Te2-  Te183  1  0.91520175  0.41225793  0.91787125  1
  Te2-  Te184  1  0.92202581  0.74852158  0.25508644  1
  Te2-  Te185  1  0.91407779  0.74024389  0.58595895  1
  Te2-  Te186  1  0.92514482  0.74592206  0.91976767  1
  Te2-  Te187  1  0.08127149  0.25176808  0.25051719  1
  Te2-  Te188  1  0.08531349  0.25564741  0.58355909  1
  Te2-  Te189  1  0.08060234  0.24977084  0.91634390  1
  Te2-  Te190  1  0.07933601  0.58440960  0.25268138  1
  Te2-  Te191  1  0.08442675  0.58848909  0.58603360  1
  Te2-  Te192  1  0.08277805  0.58366057  0.92010894  1
  Te2-  Te193  1  0.08073901  0.91788990  0.25352038  1
  Te2-  Te194  1  0.07671524  0.92123031  0.58598911  1
  Te2-  Te195  1  0.07871280  0.92139310  0.92167280  1
  Te2-  Te196  1  0.41137508  0.25795158  0.25027159  1
  Te2-  Te197  1  0.41542328  0.25170444  0.58911361  1
  Te2-  Te198  1  0.41748946  0.25354080  0.92880694  1
  Te2-  Te199  1  0.41333744  0.58823265  0.24844652  1
  Te2-  Te200  1  0.41411030  0.58733303  0.58712612  1
  Te2-  Te201  1  0.41465197  0.58589673  0.91922395  1
  Te2-  Te202  1  0.40893530  0.92275827  0.25207066  1
  Te2-  Te203  1  0.40884657  0.91330531  0.58277250  1
  Te2-  Te204  1  0.41191701  0.91872454  0.91970194  1
  Te2-  Te205  1  0.74774274  0.25409691  0.25371581  1
  Te2-  Te206  1  0.74514229  0.25193208  0.58531024  1
  Te2-  Te207  1  0.74752653  0.25650658  0.91679412  1
  Te2-  Te208  1  0.74778360  0.59008165  0.24991356  1
  Te2-  Te209  1  0.75145154  0.58262292  0.58823375  1
  Te2-  Te210  1  0.74173297  0.58467129  0.91743884  1
  Te2-  Te211  1  0.74868730  0.92157228  0.25383504  1
  Te2-  Te212  1  0.74279697  0.91599389  0.59115692  1
  Te2-  Te213  1  0.75452319  0.91877374  0.92334571  1
  Te2-  Te214  1  0.08018305  0.08364203  0.07792007  1
  Te2-  Te215  1  0.08204745  0.08402162  0.41223037  1
  Te2-  Te216  1  0.08046631  0.07898674  0.74333873  1
  Te2-  Te217  1  0.07912421  0.41201519  0.08054905  1
  Te2-  Te218  1  0.08315459  0.41574170  0.41578573  1
  Te2-  Te219  1  0.08564927  0.41220675  0.74659763  1
  Te2-  Te220  1  0.08348306  0.74180935  0.08127085  1
  Te2-  Te221  1  0.07788785  0.74725731  0.41350243  1
  Te2-  Te222  1  0.08269866  0.74479969  0.74902201  1
  Te2-  Te223  1  0.40670358  0.07833152  0.07965484  1
  Te2-  Te224  1  0.41065561  0.07710048  0.41463842  1
  Te2-  Te225  1  0.41340916  0.07914996  0.75734425  1
  Te2-  Te226  1  0.41451102  0.41549352  0.08094446  1
  Te2-  Te227  1  0.41458953  0.41534013  0.41317737  1
  Te2-  Te228  1  0.41141896  0.41034527  0.74523042  1
  Te2-  Te229  1  0.41771654  0.75219030  0.07965670  1
  Te2-  Te230  1  0.41154689  0.74313273  0.40715146  1
  Te2-  Te231  1  0.41393688  0.75158311  0.74562415  1
  Te2-  Te232  1  0.75068475  0.08188526  0.08110219  1
  Te2-  Te233  1  0.74566885  0.08199618  0.41548303  1
  Te2-  Te234  1  0.74650646  0.07605356  0.74733833  1
  Te2-  Te235  1  0.74827349  0.41830645  0.08019529  1
  Te2-  Te236  1  0.75082260  0.41233030  0.41564248  1
  Te2-  Te237  1  0.74026673  0.41690619  0.74300617  1
  Te2-  Te238  1  0.74630739  0.75065704  0.08429604  1
  Te2-  Te239  1  0.74010189  0.74301287  0.41238799  1
  Te2-  Te240  1  0.75091485  0.74736437  0.75167883  1
