# generated using pymatgen
data_Ti27(Cu53Te54)2
_symmetry_space_group_name_H-M   'P 1'
_cell_length_a   17.90311203
_cell_length_b   17.90004528
_cell_length_c   17.90206610
_cell_angle_alpha   90.02168439
_cell_angle_beta   90.02500791
_cell_angle_gamma   90.00613965
_symmetry_Int_Tables_number   1
_chemical_formula_structural   Ti27(Cu53Te54)2
_chemical_formula_sum   'Ti27 Cu106 Te108'
_cell_volume   5737.01176055
_cell_formula_units_Z   1
loop_
 _symmetry_equiv_pos_site_id
 _symmetry_equiv_pos_as_xyz
  1  'x, y, z'
loop_
 _atom_type_symbol
 _atom_type_oxidation_number
  Ti4+  4.0
  Cu+  1.0
  Te2-  -2.0
loop_
 _atom_site_type_symbol
 _atom_site_label
 _atom_site_symmetry_multiplicity
 _atom_site_fract_x
 _atom_site_fract_y
 _atom_site_fract_z
 _atom_site_occupancy
  Ti4+  Ti0  1  0.16737332  0.16865635  0.16835945  1
  Ti4+  Ti1  1  0.16551801  0.16605465  0.49769732  1
  Ti4+  Ti2  1  0.16469988  0.16759194  0.83695150  1
  Ti4+  Ti3  1  0.16703545  0.50543802  0.16418761  1
  Ti4+  Ti4  1  0.16927742  0.49806177  0.50215091  1
  Ti4+  Ti5  1  0.16867525  0.49976572  0.83515756  1
  Ti4+  Ti6  1  0.16394793  0.83028611  0.16464481  1
  Ti4+  Ti7  1  0.16432661  0.83022967  0.49779235  1
  Ti4+  Ti8  1  0.17255133  0.83776260  0.83145069  1
  Ti4+  Ti9  1  0.49994641  0.16629417  0.16493306  1
  Ti4+  Ti10  1  0.49920313  0.16623941  0.49968654  1
  Ti4+  Ti11  1  0.49647986  0.16470314  0.83380681  1
  Ti4+  Ti12  1  0.50137121  0.49973668  0.16869951  1
  Ti4+  Ti13  1  0.50245333  0.50040312  0.49949300  1
  Ti4+  Ti14  1  0.50334057  0.49921448  0.83552843  1
  Ti4+  Ti15  1  0.50002156  0.83050542  0.16447935  1
  Ti4+  Ti16  1  0.49907783  0.82943828  0.50046866  1
  Ti4+  Ti17  1  0.49973093  0.83464141  0.82893094  1
  Ti4+  Ti18  1  0.83225474  0.16810212  0.16975021  1
  Ti4+  Ti19  1  0.83345767  0.16748775  0.50085954  1
  Ti4+  Ti20  1  0.83139793  0.16532535  0.83394070  1
  Ti4+  Ti21  1  0.83579240  0.50134437  0.16520846  1
  Ti4+  Ti22  1  0.83454668  0.49920660  0.50149856  1
  Ti4+  Ti23  1  0.83302642  0.50023328  0.83509018  1
  Ti4+  Ti24  1  0.83116642  0.83516153  0.16952440  1
  Ti4+  Ti25  1  0.83217549  0.83257671  0.50113995  1
  Ti4+  Ti26  1  0.83278384  0.83506181  0.83348677  1
  Cu+  Cu27  1  0.16468363  0.17098392  0.00630043  1
  Cu+  Cu28  1  0.16562274  0.16420820  0.33142417  1
  Cu+  Cu29  1  0.16277854  0.16726377  0.66561505  1
  Cu+  Cu30  1  0.16319436  0.50095815  -0.00305288  1
  Cu+  Cu31  1  0.16733138  0.50439282  0.33636869  1
  Cu+  Cu32  1  0.17061022  0.49659348  0.66646622  1
  Cu+  Cu33  1  0.17175380  0.83345514  -0.00427285  1
  Cu+  Cu34  1  0.16196884  0.82766979  0.33114997  1
  Cu+  Cu35  1  0.16898676  0.83221975  0.66217309  1
  Cu+  Cu36  1  0.49809576  0.16908713  -0.00116915  1
  Cu+  Cu37  1  0.49978861  0.16597909  0.33314671  1
  Cu+  Cu38  1  0.49876168  0.16534998  0.66461467  1
  Cu+  Cu39  1  0.50113050  0.49945663  0.00269074  1
  Cu+  Cu40  1  0.50195463  0.50019290  0.33630136  1
  Cu+  Cu41  1  0.50160271  0.49969051  0.66454235  1
  Cu+  Cu42  1  0.50365100  0.83581224  -0.00669106  1
  Cu+  Cu43  1  0.49886731  0.82595473  0.33180447  1
  Cu+  Cu44  1  0.49634401  0.82985864  0.66785985  1
  Cu+  Cu45  1  0.83189178  0.16552040  0.00397301  1
  Cu+  Cu46  1  0.83315369  0.16813601  0.33798570  1
  Cu+  Cu47  1  0.83397731  0.16815882  0.66445118  1
  Cu+  Cu48  1  0.83382241  0.50015026  -0.00071892  1
  Cu+  Cu49  1  0.83567512  0.49844663  0.33153730  1
  Cu+  Cu50  1  0.83339242  0.49872725  0.66907597  1
  Cu+  Cu51  1  0.83335850  0.83469889  0.00383361  1
  Cu+  Cu52  1  0.83000758  0.83692822  0.33640193  1
  Cu+  Cu53  1  0.83167426  0.83568254  0.66624283  1
  Cu+  Cu54  1  0.16291907  0.00390618  0.17066897  1
  Cu+  Cu55  1  0.16623881  -0.00477619  0.49720931  1
  Cu+  Cu56  1  0.17638207  0.00490338  0.83322006  1
  Cu+  Cu57  1  0.16942776  0.33571964  0.16861264  1
  Cu+  Cu58  1  0.16913219  0.33214238  0.49970863  1
  Cu+  Cu59  1  0.16455781  0.33358051  0.84028566  1
  Cu+  Cu60  1  0.16270772  0.66952727  0.15834126  1
  Cu+  Cu61  1  0.16263831  0.65933775  0.49802304  1
  Cu+  Cu62  1  0.17274845  0.67222825  0.83228058  1
  Cu+  Cu63  1  0.49834969  -0.00039379  0.16331117  1
  Cu+  Cu64  1  0.49883766  -0.00155278  0.50041381  1
  Cu+  Cu65  1  0.50087757  -0.00015023  0.82768198  1
  Cu+  Cu66  1  0.50570626  0.32894351  0.16961739  1
  Cu+  Cu67  1  0.49996299  0.33460499  0.50103796  1
  Cu+  Cu68  1  0.49807352  0.33226182  0.84193776  1
  Cu+  Cu69  1  0.49429824  0.66594520  0.16663409  1
  Cu+  Cu70  1  0.50431808  0.66690066  0.49725138  1
  Cu+  Cu71  1  0.50406614  0.66252619  0.82875246  1
  Cu+  Cu72  1  0.83104548  0.00041369  0.17072258  1
  Cu+  Cu73  1  0.83270376  0.00200927  0.50108526  1
  Cu+  Cu74  1  0.82958664  -0.00107215  0.83232019  1
  Cu+  Cu75  1  0.83361978  0.33644538  0.16952756  1
  Cu+  Cu76  1  0.83515204  0.33276543  0.50096099  1
  Cu+  Cu77  1  0.83121704  0.33245281  0.83273269  1
  Cu+  Cu78  1  0.83547102  0.66873024  0.16591432  1
  Cu+  Cu79  1  0.83383985  0.66593131  0.50238215  1
  Cu+  Cu80  1  0.83536285  0.66495394  0.83471379  1
  Cu+  Cu81  1  0.00030132  0.16850602  0.17133657  1
  Cu+  Cu82  1  -0.00078787  0.16527534  0.49903343  1
  Cu+  Cu83  1  -0.00225413  0.16549897  0.83635459  1
  Cu+  Cu84  1  0.00139990  0.50639641  0.16272960  1
  Cu+  Cu85  1  0.00130101  0.49794936  0.50192559  1
  Cu+  Cu86  1  -0.00050347  0.49718766  0.83580905  1
  Cu+  Cu87  1  -0.00697628  0.82898640  0.16616013  1
  Cu+  Cu88  1  -0.00321052  0.83206940  0.50158419  1
  Cu+  Cu89  1  0.00334698  0.83913823  0.83527646  1
  Cu+  Cu90  1  0.33360466  0.16699478  0.16444058  1
  Cu+  Cu91  1  0.33392174  0.16671363  0.49872081  1
  Cu+  Cu92  1  0.32601627  0.16376969  0.83035984  1
  Cu+  Cu93  1  0.33535271  0.50480913  0.16336433  1
  Cu+  Cu94  1  0.33485281  0.49774594  0.50262116  1
  Cu+  Cu95  1  0.34041958  0.49807882  0.83558607  1
  Cu+  Cu96  1  0.33508163  0.82677254  0.16506892  1
  Cu+  Cu97  1  0.32933375  0.83202449  0.49862991  1
  Cu+  Cu98  1  0.33252919  0.84163832  0.82802068  1
  Cu+  Cu99  1  0.66414791  0.16904396  0.16920385  1
  Cu+  Cu100  1  0.66900559  0.16779938  0.50135512  1
  Cu+  Cu101  1  0.66242469  0.16415485  0.83469455  1
  Cu+  Cu102  1  0.67237359  0.49656062  0.16980660  1
  Cu+  Cu103  1  0.66805519  0.50121970  0.50070681  1
  Cu+  Cu104  1  0.66828301  0.50284693  0.83913621  1
  Cu+  Cu105  1  0.66804716  0.83483817  0.16728618  1
  Cu+  Cu106  1  0.66371229  0.82917478  0.49952994  1
  Cu+  Cu107  1  0.66871048  0.83857559  0.82807389  1
  Cu+  Cu108  1  0.59337508  0.08282295  0.73503542  1
  Cu+  Cu109  1  0.40887230  0.92825779  0.73412350  1
  Cu+  Cu110  1  0.06959325  0.07761604  0.26178194  1
  Cu+  Cu111  1  0.91530083  0.74034603  0.07142521  1
  Cu+  Cu112  1  0.06978020  0.58463012  0.41029707  1
  Cu+  Cu113  1  0.74740574  0.92971733  0.73369166  1
  Cu+  Cu114  1  0.06847822  0.40348892  0.92636772  1
  Cu+  Cu115  1  0.59483195  0.25792288  0.92379339  1
  Cu+  Cu116  1  0.26203518  0.74307096  0.07087128  1
  Cu+  Cu117  1  0.59871246  0.73673653  0.74366341  1
  Cu+  Cu118  1  0.40911528  0.40489528  0.93307759  1
  Cu+  Cu119  1  0.59527639  0.92594788  0.92480843  1
  Cu+  Cu120  1  0.40363730  0.73836478  0.26346598  1
  Cu+  Cu121  1  0.25239048  0.08173057  0.73268373  1
  Cu+  Cu122  1  0.59637554  0.73985329  0.40218296  1
  Cu+  Cu123  1  0.25359096  0.73913305  0.73188822  1
  Cu+  Cu124  1  0.25830003  0.93473470  0.93326749  1
  Cu+  Cu125  1  0.07495980  0.74548900  0.91404281  1
  Cu+  Cu126  1  0.41075073  0.59179571  0.07290243  1
  Cu+  Cu127  1  0.74553159  0.40821470  0.26413433  1
  Cu+  Cu128  1  0.06559899  0.74312207  0.25977518  1
  Cu+  Cu129  1  0.59577317  0.59261795  0.93251304  1
  Cu+  Cu130  1  0.59210747  0.25277839  0.26608883  1
  Cu+  Cu131  1  0.07155969  0.59012303  0.06764257  1
  Cu+  Cu132  1  0.41050508  0.58388548  0.73606557  1
  Te2-  Te133  1  0.25306872  0.25539063  0.08297331  1
  Te2-  Te134  1  0.25149938  0.24990590  0.41272909  1
  Te2-  Te135  1  0.24702256  0.25453872  0.74909089  1
  Te2-  Te136  1  0.25495952  0.58869141  0.07330898  1
  Te2-  Te137  1  0.25663553  0.58460350  0.41686262  1
  Te2-  Te138  1  0.25614772  0.58432908  0.74648684  1
  Te2-  Te139  1  0.25207876  0.92104975  0.08607923  1
  Te2-  Te140  1  0.24903327  0.91373952  0.41010174  1
  Te2-  Te141  1  0.25415107  0.92528256  0.73726760  1
  Te2-  Te142  1  0.58767908  0.25290165  0.07732193  1
  Te2-  Te143  1  0.58652683  0.25305429  0.41682538  1
  Te2-  Te144  1  0.58105660  0.25266916  0.74946102  1
  Te2-  Te145  1  0.59007592  0.58546579  0.08582776  1
  Te2-  Te146  1  0.59003091  0.58598834  0.41243998  1
  Te2-  Te147  1  0.59171581  0.58229080  0.74426581  1
  Te2-  Te148  1  0.58665472  0.91873323  0.08064185  1
  Te2-  Te149  1  0.58198494  0.91518473  0.41398511  1
  Te2-  Te150  1  0.58743324  0.92231252  0.73842118  1
  Te2-  Te151  1  0.91731843  0.25166138  0.08506079  1
  Te2-  Te152  1  0.92009477  0.25302419  0.41544969  1
  Te2-  Te153  1  0.91743772  0.25028894  0.74996731  1
  Te2-  Te154  1  0.92004833  0.58922245  0.07479142  1
  Te2-  Te155  1  0.91842428  0.58548102  0.41418221  1
  Te2-  Te156  1  0.91991574  0.58358665  0.74972605  1
  Te2-  Te157  1  0.91724854  0.92225128  0.08413059  1
  Te2-  Te158  1  0.91729610  0.91904651  0.41717908  1
  Te2-  Te159  1  0.91976107  0.91963846  0.74877842  1
  Te2-  Te160  1  0.25519556  0.08143684  0.25169109  1
  Te2-  Te161  1  0.25165899  0.07917092  0.58186347  1
  Te2-  Te162  1  0.25316624  0.08568500  0.92817941  1
  Te2-  Te163  1  0.25146619  0.42255988  0.25033115  1
  Te2-  Te164  1  0.25490401  0.41096518  0.58648139  1
  Te2-  Te165  1  0.25557721  0.41472408  0.92194874  1
  Te2-  Te166  1  0.25048290  0.74292912  0.25113600  1
  Te2-  Te167  1  0.25132051  0.74167983  0.58114931  1
  Te2-  Te168  1  0.26208243  0.74879084  0.91727847  1
  Te2-  Te169  1  0.58374149  0.07875885  0.25109290  1
  Te2-  Te170  1  0.58712181  0.07931628  0.58356726  1
  Te2-  Te171  1  0.58291623  0.07804402  0.92183779  1
  Te2-  Te172  1  0.58797568  0.41329249  0.25592761  1
  Te2-  Te173  1  0.58698855  0.41492375  0.58498919  1
  Te2-  Te174  1  0.58996952  0.41293604  0.92372902  1
  Te2-  Te175  1  0.58832739  0.74398953  0.24829271  1
  Te2-  Te176  1  0.58585389  0.74507613  0.58994130  1
  Te2-  Te177  1  0.58881112  0.74759457  0.91483123  1
  Te2-  Te178  1  0.91684970  0.08138948  0.25634225  1
  Te2-  Te179  1  0.91919874  0.08120885  0.58611977  1
  Te2-  Te180  1  0.91448277  0.07973890  0.91946788  1
  Te2-  Te181  1  0.92499769  0.41779110  0.24934766  1
  Te2-  Te182  1  0.91890964  0.41463423  0.58674310  1
  Te2-  Te183  1  0.91719712  0.41123175  0.92098886  1
  Te2-  Te184  1  0.91473703  0.74703662  0.25912348  1
  Te2-  Te185  1  0.91678440  0.74830207  0.58806983  1
  Te2-  Te186  1  0.92044806  0.74845813  0.91889128  1
  Te2-  Te187  1  0.08274530  0.25637503  0.25382162  1
  Te2-  Te188  1  0.08088748  0.25157459  0.58299225  1
  Te2-  Te189  1  0.07671572  0.25148948  0.92388081  1
  Te2-  Te190  1  0.07941093  0.59013733  0.25346156  1
  Te2-  Te191  1  0.08187942  0.58178166  0.59031845  1
  Te2-  Te192  1  0.07989305  0.59166217  0.91544675  1
  Te2-  Te193  1  0.07750033  0.91612581  0.25053099  1
  Te2-  Te194  1  0.08131947  0.91600380  0.58409943  1
  Te2-  Te195  1  0.08721834  0.92497540  0.91796031  1
  Te2-  Te196  1  0.41390745  0.25144392  0.25149024  1
  Te2-  Te197  1  0.41447930  0.25204896  0.58485522  1
  Te2-  Te198  1  0.40624755  0.24917149  0.91921696  1
  Te2-  Te199  1  0.41379225  0.58435961  0.25656477  1
  Te2-  Te200  1  0.41549772  0.58758301  0.58384418  1
  Te2-  Te201  1  0.41602867  0.58921997  0.92065471  1
  Te2-  Te202  1  0.41559416  0.91549727  0.24959435  1
  Te2-  Te203  1  0.41124416  0.91762572  0.58305656  1
  Te2-  Te204  1  0.41394893  0.92249592  0.91836578  1
  Te2-  Te205  1  0.74648374  0.25477620  0.25778579  1
  Te2-  Te206  1  0.74802136  0.25418447  0.58644301  1
  Te2-  Te207  1  0.74677694  0.25119158  0.92058920  1
  Te2-  Te208  1  0.75131577  0.58741916  0.25172385  1
  Te2-  Te209  1  0.74939480  0.58439997  0.58694960  1
  Te2-  Te210  1  0.74917859  0.58950749  0.92325154  1
  Te2-  Te211  1  0.74499523  0.92006340  0.25481074  1
  Te2-  Te212  1  0.74365569  0.92008967  0.58270231  1
  Te2-  Te213  1  0.74783670  0.91992837  0.92318469  1
  Te2-  Te214  1  0.07896550  0.08307010  0.08302251  1
  Te2-  Te215  1  0.07925119  0.07772814  0.41390751  1
  Te2-  Te216  1  0.08056439  0.08093386  0.75130204  1
  Te2-  Te217  1  0.08122938  0.41419367  0.08160491  1
  Te2-  Te218  1  0.08329380  0.41379861  0.41447829  1
  Te2-  Te219  1  0.08393793  0.41501238  0.74992675  1
  Te2-  Te220  1  0.07412481  0.74807785  0.07103575  1
  Te2-  Te221  1  0.07474223  0.74299243  0.41458094  1
  Te2-  Te222  1  0.08246187  0.75123483  0.74759650  1
  Te2-  Te223  1  0.41377197  0.08139568  0.07931676  1
  Te2-  Te224  1  0.41535109  0.08053673  0.41413016  1
  Te2-  Te225  1  0.40858197  0.08074014  0.74297961  1
  Te2-  Te226  1  0.41605247  0.41009402  0.08544955  1
  Te2-  Te227  1  0.41578877  0.41508755  0.41543864  1
  Te2-  Te228  1  0.41901947  0.41233580  0.74780797  1
  Te2-  Te229  1  0.41625525  0.74666213  0.07086813  1
  Te2-  Te230  1  0.41018053  0.74371504  0.41567468  1
  Te2-  Te231  1  0.40943978  0.74294076  0.74610206  1
  Te2-  Te232  1  0.74613846  0.08233836  0.08599236  1
  Te2-  Te233  1  0.74702578  0.08158385  0.41536294  1
  Te2-  Te234  1  0.74514555  0.08144792  0.74331008  1
  Te2-  Te235  1  0.75018433  0.41455415  0.07958568  1
  Te2-  Te236  1  0.74818764  0.41333139  0.41576359  1
  Te2-  Te237  1  0.74623785  0.41622350  0.75108525  1
  Te2-  Te238  1  0.74640723  0.74798022  0.08166298  1
  Te2-  Te239  1  0.74815641  0.74503049  0.41423351  1
  Te2-  Te240  1  0.75047188  0.74481789  0.74744289  1
