# generated using pymatgen
data_Ti27(Cu53Te54)2
_symmetry_space_group_name_H-M   'P 1'
_cell_length_a   17.88791140
_cell_length_b   17.88206700
_cell_length_c   17.88103557
_cell_angle_alpha   90.00056714
_cell_angle_beta   89.98990699
_cell_angle_gamma   89.99188605
_symmetry_Int_Tables_number   1
_chemical_formula_structural   Ti27(Cu53Te54)2
_chemical_formula_sum   'Ti27 Cu106 Te108'
_cell_volume   5719.65730732
_cell_formula_units_Z   1
loop_
 _symmetry_equiv_pos_site_id
 _symmetry_equiv_pos_as_xyz
  1  'x, y, z'
loop_
 _atom_type_symbol
 _atom_type_oxidation_number
  Ti4+  4.0
  Cu+  1.0
  Te2-  -2.0
loop_
 _atom_site_type_symbol
 _atom_site_label
 _atom_site_symmetry_multiplicity
 _atom_site_fract_x
 _atom_site_fract_y
 _atom_site_fract_z
 _atom_site_occupancy
  Ti4+  Ti0  1  0.16611735  0.16837557  0.16787291  1
  Ti4+  Ti1  1  0.16740433  0.16740861  0.49730495  1
  Ti4+  Ti2  1  0.16623764  0.16642877  0.83099205  1
  Ti4+  Ti3  1  0.17120278  0.49455237  0.16498686  1
  Ti4+  Ti4  1  0.16615412  0.49975006  0.50171290  1
  Ti4+  Ti5  1  0.16514442  0.49772729  0.83587855  1
  Ti4+  Ti6  1  0.16695404  0.83737503  0.16313808  1
  Ti4+  Ti7  1  0.16606383  0.83223830  0.49987239  1
  Ti4+  Ti8  1  0.16622647  0.83342462  0.83526903  1
  Ti4+  Ti9  1  0.50057428  0.16562903  0.16716626  1
  Ti4+  Ti10  1  0.49900664  0.16536125  0.49908248  1
  Ti4+  Ti11  1  0.49810625  0.16673645  0.83392442  1
  Ti4+  Ti12  1  0.50345323  0.49951831  0.16681864  1
  Ti4+  Ti13  1  0.50293528  0.49956448  0.50129318  1
  Ti4+  Ti14  1  0.49495586  0.49945040  0.83176926  1
  Ti4+  Ti15  1  0.49931405  0.83288793  0.16995424  1
  Ti4+  Ti16  1  0.49931710  0.83222588  0.50190459  1
  Ti4+  Ti17  1  0.49965022  0.83523215  0.83442345  1
  Ti4+  Ti18  1  0.83540819  0.16644949  0.16236868  1
  Ti4+  Ti19  1  0.83228480  0.16469201  0.49826539  1
  Ti4+  Ti20  1  0.83199137  0.16652223  0.83097932  1
  Ti4+  Ti21  1  0.84119733  0.50013361  0.16496086  1
  Ti4+  Ti22  1  0.83395102  0.50338845  0.49966160  1
  Ti4+  Ti23  1  0.82653092  0.49990157  0.83647767  1
  Ti4+  Ti24  1  0.83297009  0.83394828  0.16662655  1
  Ti4+  Ti25  1  0.83410562  0.83474792  0.50312217  1
  Ti4+  Ti26  1  0.83458703  0.83258759  0.83386689  1
  Cu+  Cu27  1  0.16731644  0.16986493  -0.00197936  1
  Cu+  Cu28  1  0.17082668  0.17069048  0.33205832  1
  Cu+  Cu29  1  0.16221707  0.16459462  0.66064938  1
  Cu+  Cu30  1  0.16841932  0.50216817  0.00137694  1
  Cu+  Cu31  1  0.16984044  0.49333613  0.33653098  1
  Cu+  Cu32  1  0.16463850  0.49606909  0.66992828  1
  Cu+  Cu33  1  0.16588592  0.84262987  -0.00179022  1
  Cu+  Cu34  1  0.16579498  0.83356263  0.33079703  1
  Cu+  Cu35  1  0.16712087  0.83085964  0.66822567  1
  Cu+  Cu36  1  0.50046928  0.16762711  0.00000625  1
  Cu+  Cu37  1  0.49625938  0.16129288  0.33396464  1
  Cu+  Cu38  1  0.49698931  0.16576512  0.66542370  1
  Cu+  Cu39  1  0.49942552  0.50239087  -0.00164279  1
  Cu+  Cu40  1  0.50539557  0.50020754  0.33228565  1
  Cu+  Cu41  1  0.50005047  0.49533296  0.66752785  1
  Cu+  Cu42  1  0.49826018  0.83560662  0.00617105  1
  Cu+  Cu43  1  0.49935060  0.83079417  0.33643055  1
  Cu+  Cu44  1  0.50001728  0.83288034  0.66674765  1
  Cu+  Cu45  1  0.83222753  0.16511793  -0.00531133  1
  Cu+  Cu46  1  0.83279664  0.16395819  0.33027292  1
  Cu+  Cu47  1  0.83417968  0.16553507  0.66577727  1
  Cu+  Cu48  1  0.83698506  0.50397336  0.00238880  1
  Cu+  Cu49  1  0.83758972  0.50385944  0.33370957  1
  Cu+  Cu50  1  0.82544173  0.49966814  0.66475361  1
  Cu+  Cu51  1  0.83338224  0.82761844  -0.00085690  1
  Cu+  Cu52  1  0.83455855  0.83489137  0.33772248  1
  Cu+  Cu53  1  0.83074486  0.83600847  0.67096564  1
  Cu+  Cu54  1  0.16175231  0.00122148  0.16035086  1
  Cu+  Cu55  1  0.16362649  0.00021085  0.49899146  1
  Cu+  Cu56  1  0.16744348  -0.00068382  0.83266355  1
  Cu+  Cu57  1  0.16794889  0.33251040  0.17452848  1
  Cu+  Cu58  1  0.17067206  0.33589011  0.49541257  1
  Cu+  Cu59  1  0.16901685  0.33108718  0.83264234  1
  Cu+  Cu60  1  0.17002200  0.66584759  0.16552425  1
  Cu+  Cu61  1  0.16477956  0.66470683  0.50174518  1
  Cu+  Cu62  1  0.16684321  0.66752644  0.83890407  1
  Cu+  Cu63  1  0.49422653  -0.00047420  0.17140503  1
  Cu+  Cu64  1  0.49939154  -0.00129990  0.50215687  1
  Cu+  Cu65  1  0.50002291  0.00443672  0.83285577  1
  Cu+  Cu66  1  0.50464277  0.33514908  0.16593940  1
  Cu+  Cu67  1  0.50125714  0.32870911  0.49876718  1
  Cu+  Cu68  1  0.49546201  0.33287996  0.82999186  1
  Cu+  Cu69  1  0.50186464  0.66741622  0.16896297  1
  Cu+  Cu70  1  0.50217906  0.66557822  0.50138308  1
  Cu+  Cu71  1  0.49671812  0.66761259  0.83485865  1
  Cu+  Cu72  1  0.83028259  0.00401011  0.16816377  1
  Cu+  Cu73  1  0.83033609  -0.00361787  0.49743568  1
  Cu+  Cu74  1  0.83247082  -0.00100534  0.82998106  1
  Cu+  Cu75  1  0.84591981  0.33226529  0.16388146  1
  Cu+  Cu76  1  0.83314088  0.33513276  0.49857190  1
  Cu+  Cu77  1  0.82881501  0.32940653  0.83107305  1
  Cu+  Cu78  1  0.83868585  0.67095350  0.16096965  1
  Cu+  Cu79  1  0.83829504  0.67108190  0.50011416  1
  Cu+  Cu80  1  0.82902413  0.66711393  0.84198144  1
  Cu+  Cu81  1  -0.00322092  0.17235708  0.16669047  1
  Cu+  Cu82  1  0.00305017  0.16394335  0.49976205  1
  Cu+  Cu83  1  -0.00257088  0.16536454  0.82883635  1
  Cu+  Cu84  1  0.00852591  0.48969145  0.16048818  1
  Cu+  Cu85  1  -0.00161311  0.50353174  0.50309297  1
  Cu+  Cu86  1  -0.00423231  0.49905861  0.83461324  1
  Cu+  Cu87  1  0.00007281  0.83688676  0.16222392  1
  Cu+  Cu88  1  -0.00059617  0.83008067  0.50120225  1
  Cu+  Cu89  1  0.00274522  0.83147611  0.83284931  1
  Cu+  Cu90  1  0.33428636  0.16384880  0.17186177  1
  Cu+  Cu91  1  0.33382005  0.16648234  0.49963738  1
  Cu+  Cu92  1  0.33261977  0.17079327  0.83352702  1
  Cu+  Cu93  1  0.34083695  0.49878766  0.16581819  1
  Cu+  Cu94  1  0.33611379  0.50000430  0.50049277  1
  Cu+  Cu95  1  0.32757716  0.49778871  0.83339030  1
  Cu+  Cu96  1  0.33556644  0.83653592  0.16209202  1
  Cu+  Cu97  1  0.33222144  0.83327786  0.50013105  1
  Cu+  Cu98  1  0.33200114  0.83395763  0.83767669  1
  Cu+  Cu99  1  0.66929935  0.16525672  0.16607018  1
  Cu+  Cu100  1  0.66249130  0.16639735  0.49880888  1
  Cu+  Cu101  1  0.66533829  0.16592161  0.83254693  1
  Cu+  Cu102  1  0.67190128  0.49963502  0.16611286  1
  Cu+  Cu103  1  0.67133104  0.49950984  0.50281769  1
  Cu+  Cu104  1  0.65644455  0.50012438  0.83209040  1
  Cu+  Cu105  1  0.66131335  0.83470858  0.17069565  1
  Cu+  Cu106  1  0.66547021  0.83510170  0.50302950  1
  Cu+  Cu107  1  0.66817844  0.83469784  0.83213859  1
  Cu+  Cu108  1  0.73781238  0.92911372  0.74299287  1
  Cu+  Cu109  1  0.58865010  0.40237737  0.74183179  1
  Cu+  Cu110  1  0.92856806  0.74272116  0.40681651  1
  Cu+  Cu111  1  0.73499461  0.91956187  0.40741949  1
  Cu+  Cu112  1  0.93240331  0.40144030  0.06637677  1
  Cu+  Cu113  1  0.40050734  0.06858091  0.26524518  1
  Cu+  Cu114  1  0.92031506  0.25663035  0.26523272  1
  Cu+  Cu115  1  0.58456234  0.59416620  0.92377517  1
  Cu+  Cu116  1  0.25937017  0.59569376  0.92585073  1
  Cu+  Cu117  1  0.26707369  0.25862025  0.25947585  1
  Cu+  Cu118  1  0.73450108  0.74811400  0.92595536  1
  Cu+  Cu119  1  0.25436815  0.40226822  0.73832766  1
  Cu+  Cu120  1  0.93146054  0.74812137  0.07184021  1
  Cu+  Cu121  1  0.08344381  0.59333461  0.07790297  1
  Cu+  Cu122  1  0.26055593  0.25996672  0.92861128  1
  Cu+  Cu123  1  0.92647814  0.59208615  0.92065326  1
  Cu+  Cu124  1  0.07188822  0.06950035  0.59076498  1
  Cu+  Cu125  1  0.41182091  0.93118862  0.07337073  1
  Cu+  Cu126  1  0.06576350  0.93485474  0.07062183  1
  Cu+  Cu127  1  0.73883168  0.07793167  0.25781943  1
  Cu+  Cu128  1  0.26896025  0.41065993  0.40868665  1
  Cu+  Cu129  1  0.74245935  0.40235296  0.58855804  1
  Cu+  Cu130  1  0.07560005  0.40996623  0.26631219  1
  Cu+  Cu131  1  0.73974592  0.59449558  0.08357895  1
  Cu+  Cu132  1  0.26227630  0.93209498  0.92067794  1
  Te2-  Te133  1  0.25479696  0.25273735  0.08380236  1
  Te2-  Te134  1  0.25928765  0.25494678  0.41212523  1
  Te2-  Te135  1  0.25134185  0.24937110  0.74039187  1
  Te2-  Te136  1  0.25883805  0.58493819  0.08223404  1
  Te2-  Te137  1  0.25165845  0.58494874  0.41523944  1
  Te2-  Te138  1  0.24799721  0.58620482  0.74928123  1
  Te2-  Te139  1  0.25607949  0.92629251  0.07795718  1
  Te2-  Te140  1  0.24979740  0.91811056  0.41460747  1
  Te2-  Te141  1  0.25249380  0.91727873  0.74785123  1
  Te2-  Te142  1  0.58691632  0.25019433  0.08252963  1
  Te2-  Te143  1  0.58419064  0.24936977  0.41052892  1
  Te2-  Te144  1  0.58431086  0.25022495  0.74545270  1
  Te2-  Te145  1  0.58717447  0.58911710  0.08017748  1
  Te2-  Te146  1  0.58871322  0.58395817  0.41694692  1
  Te2-  Te147  1  0.58029179  0.58860802  0.74609641  1
  Te2-  Te148  1  0.58446077  0.92240162  0.08506567  1
  Te2-  Te149  1  0.58357135  0.91996120  0.41422392  1
  Te2-  Te150  1  0.58400264  0.92080000  0.74766641  1
  Te2-  Te151  1  0.92242183  0.24973529  0.07030448  1
  Te2-  Te152  1  0.91918823  0.25126983  0.41628440  1
  Te2-  Te153  1  0.91750728  0.25296633  0.74529057  1
  Te2-  Te154  1  0.93062886  0.59043332  0.07843835  1
  Te2-  Te155  1  0.92312473  0.58882867  0.41337234  1
  Te2-  Te156  1  0.91081160  0.58378812  0.75048709  1
  Te2-  Te157  1  0.91332572  0.92311368  0.07807899  1
  Te2-  Te158  1  0.92269765  0.91973188  0.41614887  1
  Te2-  Te159  1  0.92199387  0.91732515  0.74906140  1
  Te2-  Te160  1  0.24771108  0.07593754  0.25228824  1
  Te2-  Te161  1  0.25212760  0.08064835  0.58281253  1
  Te2-  Te162  1  0.25343071  0.08257566  0.91916914  1
  Te2-  Te163  1  0.26282647  0.41272211  0.25364375  1
  Te2-  Te164  1  0.25419387  0.41364605  0.58663520  1
  Te2-  Te165  1  0.25271474  0.41182863  0.92378024  1
  Te2-  Te166  1  0.25220085  0.75130451  0.24766098  1
  Te2-  Te167  1  0.25120126  0.74708596  0.58462367  1
  Te2-  Te168  1  0.25261203  0.74884390  0.92496891  1
  Te2-  Te169  1  0.58629308  0.07888144  0.25308868  1
  Te2-  Te170  1  0.58408759  0.08077418  0.58602617  1
  Te2-  Te171  1  0.58506422  0.08242191  0.91923585  1
  Te2-  Te172  1  0.59094313  0.41516114  0.25122440  1
  Te2-  Te173  1  0.58827671  0.40861720  0.58628245  1
  Te2-  Te174  1  0.58032655  0.41164142  0.91851906  1
  Te2-  Te175  1  0.58542941  0.74699586  0.25585359  1
  Te2-  Te176  1  0.58624645  0.74767301  0.58713747  1
  Te2-  Te177  1  0.58346078  0.74975024  0.92337407  1
  Te2-  Te178  1  0.92236096  0.08002731  0.25008532  1
  Te2-  Te179  1  0.91711731  0.07820421  0.58381794  1
  Te2-  Te180  1  0.91790529  0.07977864  0.91509942  1
  Te2-  Te181  1  0.92378898  0.41443917  0.25760513  1
  Te2-  Te182  1  0.91744431  0.41641077  0.58711758  1
  Te2-  Te183  1  0.91509355  0.41049386  0.91656445  1
  Te2-  Te184  1  0.92104378  0.75042964  0.25233330  1
  Te2-  Te185  1  0.91820798  0.75016417  0.59214781  1
  Te2-  Te186  1  0.92662722  0.74508063  0.92067320  1
  Te2-  Te187  1  0.07686859  0.25392645  0.25747983  1
  Te2-  Te188  1  0.08250823  0.25609836  0.58074313  1
  Te2-  Te189  1  0.07886338  0.25103761  0.91464294  1
  Te2-  Te190  1  0.08546772  0.58007752  0.25091966  1
  Te2-  Te191  1  0.08170659  0.58396211  0.58933480  1
  Te2-  Te192  1  0.07768659  0.58696709  0.92194591  1
  Te2-  Te193  1  0.08003915  0.92005220  0.25043926  1
  Te2-  Te194  1  0.07958342  0.91644668  0.58754172  1
  Te2-  Te195  1  0.07551192  0.92348577  0.91746575  1
  Te2-  Te196  1  0.41845416  0.25554375  0.25319150  1
  Te2-  Te197  1  0.41366600  0.25194147  0.58461148  1
  Te2-  Te198  1  0.41404055  0.25502295  0.92158293  1
  Te2-  Te199  1  0.41793734  0.58454586  0.25305328  1
  Te2-  Te200  1  0.41718904  0.58346663  0.58635990  1
  Te2-  Te201  1  0.40974900  0.58660549  0.91961071  1
  Te2-  Te202  1  0.41046541  0.91600639  0.25889283  1
  Te2-  Te203  1  0.41321101  0.91776880  0.58665513  1
  Te2-  Te204  1  0.41507383  0.92400448  0.92033408  1
  Te2-  Te205  1  0.75161923  0.25587581  0.24776955  1
  Te2-  Te206  1  0.74677433  0.24952158  0.58426899  1
  Te2-  Te207  1  0.74512558  0.25073820  0.91779476  1
  Te2-  Te208  1  0.75502205  0.58771205  0.24873638  1
  Te2-  Te209  1  0.74902591  0.59223723  0.58376884  1
  Te2-  Te210  1  0.73800097  0.58697453  0.92552227  1
  Te2-  Te211  1  0.74591977  0.91929867  0.25358069  1
  Te2-  Te212  1  0.74512646  0.92136048  0.58907617  1
  Te2-  Te213  1  0.74960787  0.91878778  0.92107948  1
  Te2-  Te214  1  0.07793002  0.08793743  0.07845373  1
  Te2-  Te215  1  0.08328608  0.08258674  0.40922950  1
  Te2-  Te216  1  0.08011437  0.07861297  0.74632883  1
  Te2-  Te217  1  0.08863153  0.40415725  0.07422887  1
  Te2-  Te218  1  0.07557934  0.41365984  0.41800704  1
  Te2-  Te219  1  0.07740701  0.41275812  0.75152758  1
  Te2-  Te220  1  0.08343426  0.74724376  0.07657868  1
  Te2-  Te221  1  0.08200831  0.74525343  0.41208219  1
  Te2-  Te222  1  0.08304076  0.74511251  0.74987341  1
  Te2-  Te223  1  0.41224382  0.08327997  0.07883344  1
  Te2-  Te224  1  0.41070581  0.07622207  0.41642350  1
  Te2-  Te225  1  0.41190297  0.08261064  0.74840299  1
  Te2-  Te226  1  0.41879856  0.41375401  0.07967255  1
  Te2-  Te227  1  0.41982641  0.41360604  0.41305239  1
  Te2-  Te228  1  0.40812907  0.41245190  0.74548004  1
  Te2-  Te229  1  0.41531668  0.74498733  0.08294895  1
  Te2-  Te230  1  0.41413997  0.74588170  0.41747169  1
  Te2-  Te231  1  0.41333914  0.75057735  0.75044663  1
  Te2-  Te232  1  0.74784152  0.08111311  0.07692469  1
  Te2-  Te233  1  0.74351436  0.07955020  0.41225071  1
  Te2-  Te234  1  0.74480271  0.08142212  0.74459028  1
  Te2-  Te235  1  0.75447295  0.41261757  0.08264691  1
  Te2-  Te236  1  0.75025278  0.41731967  0.41100425  1
  Te2-  Te237  1  0.74243924  0.41270399  0.74851837  1
  Te2-  Te238  1  0.74027745  0.74865340  0.08184178  1
  Te2-  Te239  1  0.74673756  0.74897980  0.41690692  1
  Te2-  Te240  1  0.74827421  0.74463202  0.74928109  1
