# generated using pymatgen
data_Ti27(Cu53Te54)2
_symmetry_space_group_name_H-M   'P 1'
_cell_length_a   17.88260885
_cell_length_b   17.88349277
_cell_length_c   17.88589775
_cell_angle_alpha   89.97779881
_cell_angle_beta   90.03224923
_cell_angle_gamma   89.96737837
_symmetry_Int_Tables_number   1
_chemical_formula_structural   Ti27(Cu53Te54)2
_chemical_formula_sum   'Ti27 Cu106 Te108'
_cell_volume   5719.97054413
_cell_formula_units_Z   1
loop_
 _symmetry_equiv_pos_site_id
 _symmetry_equiv_pos_as_xyz
  1  'x, y, z'
loop_
 _atom_type_symbol
 _atom_type_oxidation_number
  Ti4+  4.0
  Cu+  1.0
  Te2-  -2.0
loop_
 _atom_site_type_symbol
 _atom_site_label
 _atom_site_symmetry_multiplicity
 _atom_site_fract_x
 _atom_site_fract_y
 _atom_site_fract_z
 _atom_site_occupancy
  Ti4+  Ti0  1  0.16730064  0.16991334  0.16620928  1
  Ti4+  Ti1  1  0.16769151  0.16680611  0.49902602  1
  Ti4+  Ti2  1  0.16925335  0.16719750  0.83564700  1
  Ti4+  Ti3  1  0.16295733  0.50077660  0.16471223  1
  Ti4+  Ti4  1  0.16918692  0.49675505  0.50093743  1
  Ti4+  Ti5  1  0.16677200  0.49990290  0.83216164  1
  Ti4+  Ti6  1  0.16360913  0.83567137  0.16532559  1
  Ti4+  Ti7  1  0.16655857  0.83317365  0.49942163  1
  Ti4+  Ti8  1  0.16655287  0.82967938  0.83415100  1
  Ti4+  Ti9  1  0.50148406  0.16391368  0.16707345  1
  Ti4+  Ti10  1  0.49939797  0.16611653  0.50085307  1
  Ti4+  Ti11  1  0.50300722  0.16728165  0.83723531  1
  Ti4+  Ti12  1  0.50003903  0.49844018  0.16604841  1
  Ti4+  Ti13  1  0.50005687  0.49922872  0.49691792  1
  Ti4+  Ti14  1  0.50047065  0.49892747  0.83244046  1
  Ti4+  Ti15  1  0.49889309  0.83183228  0.16389342  1
  Ti4+  Ti16  1  0.49755054  0.83496672  0.49819404  1
  Ti4+  Ti17  1  0.49595983  0.83551112  0.83237263  1
  Ti4+  Ti18  1  0.83384999  0.16682341  0.16700430  1
  Ti4+  Ti19  1  0.83201579  0.16638302  0.49728172  1
  Ti4+  Ti20  1  0.83825558  0.17020973  0.82986157  1
  Ti4+  Ti21  1  0.82994444  0.50469376  0.16649819  1
  Ti4+  Ti22  1  0.83160276  0.50093961  0.49791229  1
  Ti4+  Ti23  1  0.83238195  0.49992804  0.83598957  1
  Ti4+  Ti24  1  0.83562576  0.83211596  0.17114845  1
  Ti4+  Ti25  1  0.82892083  0.83393889  0.50266117  1
  Ti4+  Ti26  1  0.83178742  0.83421826  0.83521285  1
  Cu+  Cu27  1  0.17334621  0.17313438  0.00130092  1
  Cu+  Cu28  1  0.16477294  0.16712029  0.33123322  1
  Cu+  Cu29  1  0.16534485  0.16569984  0.66736967  1
  Cu+  Cu30  1  0.15569337  0.50308514  -0.00233254  1
  Cu+  Cu31  1  0.16969516  0.49693584  0.33745908  1
  Cu+  Cu32  1  0.17314532  0.49678454  0.66753087  1
  Cu+  Cu33  1  0.17257110  0.83165260  0.00213309  1
  Cu+  Cu34  1  0.16361689  0.83462701  0.33249959  1
  Cu+  Cu35  1  0.16588545  0.82911120  0.66603099  1
  Cu+  Cu36  1  0.49942165  0.16284130  0.00239508  1
  Cu+  Cu37  1  0.50041175  0.16319142  0.33454095  1
  Cu+  Cu38  1  0.50152560  0.16747806  0.67173677  1
  Cu+  Cu39  1  0.50077630  0.49815857  0.00122849  1
  Cu+  Cu40  1  0.50002632  0.49979066  0.32968092  1
  Cu+  Cu41  1  0.49838228  0.49927105  0.66282330  1
  Cu+  Cu42  1  0.49711792  0.83160207  -0.00424238  1
  Cu+  Cu43  1  0.50014941  0.83557685  0.32955568  1
  Cu+  Cu44  1  0.49817042  0.83872102  0.66271691  1
  Cu+  Cu45  1  0.83578105  0.16872619  -0.00291289  1
  Cu+  Cu46  1  0.83242498  0.16587028  0.33435693  1
  Cu+  Cu47  1  0.83773817  0.17197123  0.65952855  1
  Cu+  Cu48  1  0.83468366  0.49928175  0.00290136  1
  Cu+  Cu49  1  0.82527969  0.50556086  0.33199373  1
  Cu+  Cu50  1  0.83199468  0.50123484  0.66763370  1
  Cu+  Cu51  1  0.83361702  0.83358152  0.00489778  1
  Cu+  Cu52  1  0.83358423  0.83041040  0.34048848  1
  Cu+  Cu53  1  0.82937915  0.83353681  0.67035270  1
  Cu+  Cu54  1  0.16139131  0.00773042  0.16779950  1
  Cu+  Cu55  1  0.16577869  -0.00200374  0.50012077  1
  Cu+  Cu56  1  0.17032171  -0.00532199  0.83657996  1
  Cu+  Cu57  1  0.16613721  0.33236999  0.16583112  1
  Cu+  Cu58  1  0.17123004  0.33412932  0.49529815  1
  Cu+  Cu59  1  0.16855246  0.33200886  0.83551544  1
  Cu+  Cu60  1  0.15897343  0.66599273  0.16015680  1
  Cu+  Cu61  1  0.16778476  0.66085670  0.50171739  1
  Cu+  Cu62  1  0.16853690  0.66911457  0.82687923  1
  Cu+  Cu63  1  0.50300421  -0.00468925  0.16768186  1
  Cu+  Cu64  1  0.50055909  0.00098866  0.50200599  1
  Cu+  Cu65  1  0.50000285  0.00267101  0.83969701  1
  Cu+  Cu66  1  0.50006801  0.33012912  0.16534274  1
  Cu+  Cu67  1  0.49938490  0.33236206  0.50202207  1
  Cu+  Cu68  1  0.50365317  0.33244685  0.83321167  1
  Cu+  Cu69  1  0.50009264  0.66282503  0.16442908  1
  Cu+  Cu70  1  0.49775144  0.66899460  0.49631227  1
  Cu+  Cu71  1  0.49465816  0.66472556  0.82924518  1
  Cu+  Cu72  1  0.83501071  -0.00241546  0.16687554  1
  Cu+  Cu73  1  0.82825276  0.00103084  0.50068766  1
  Cu+  Cu74  1  0.83334584  0.00345796  0.83305627  1
  Cu+  Cu75  1  0.83016159  0.33468515  0.16797345  1
  Cu+  Cu76  1  0.83410066  0.33040269  0.49805024  1
  Cu+  Cu77  1  0.83842927  0.33777609  0.82734611  1
  Cu+  Cu78  1  0.83682334  0.66662751  0.17460078  1
  Cu+  Cu79  1  0.82817041  0.66857994  0.49612492  1
  Cu+  Cu80  1  0.83101330  0.66697731  0.83733563  1
  Cu+  Cu81  1  0.00238772  0.16696657  0.16810894  1
  Cu+  Cu82  1  -0.00259443  0.16691628  0.49827929  1
  Cu+  Cu83  1  0.00513415  0.16949977  0.82704024  1
  Cu+  Cu84  1  -0.00344764  0.50753953  0.15798370  1
  Cu+  Cu85  1  0.00578516  0.49989492  0.50206644  1
  Cu+  Cu86  1  -0.00153861  0.49629000  0.83708608  1
  Cu+  Cu87  1  0.00201971  0.83075582  0.17358204  1
  Cu+  Cu88  1  -0.00238279  0.83259614  0.50330523  1
  Cu+  Cu89  1  -0.00131186  0.83392854  0.83547642  1
  Cu+  Cu90  1  0.33449300  0.16634742  0.16578216  1
  Cu+  Cu91  1  0.33377857  0.16628871  0.50136017  1
  Cu+  Cu92  1  0.33715451  0.16922714  0.84190430  1
  Cu+  Cu93  1  0.33579084  0.49945032  0.16535225  1
  Cu+  Cu94  1  0.33586978  0.49260148  0.49913671  1
  Cu+  Cu95  1  0.33223090  0.49797847  0.83074641  1
  Cu+  Cu96  1  0.32993045  0.83224563  0.15946300  1
  Cu+  Cu97  1  0.33318033  0.83384437  0.49597574  1
  Cu+  Cu98  1  0.33014817  0.82760914  0.83645219  1
  Cu+  Cu99  1  0.66637010  0.16377733  0.16453002  1
  Cu+  Cu100  1  0.66663136  0.16575374  0.49858463  1
  Cu+  Cu101  1  0.67408462  0.16499630  0.83454043  1
  Cu+  Cu102  1  0.66498163  0.49787179  0.17008949  1
  Cu+  Cu103  1  0.66698547  0.50336626  0.49436987  1
  Cu+  Cu104  1  0.66579245  0.50292175  0.83419475  1
  Cu+  Cu105  1  0.66806871  0.83404021  0.16912793  1
  Cu+  Cu106  1  0.66054979  0.83758372  0.50486222  1
  Cu+  Cu107  1  0.66450128  0.83791248  0.83309890  1
  Cu+  Cu108  1  0.07378967  0.40267537  0.92620850  1
  Cu+  Cu109  1  0.26149672  0.74349148  0.73286975  1
  Cu+  Cu110  1  0.92883262  0.74079292  0.41764558  1
  Cu+  Cu111  1  0.26685653  0.26534426  0.93086969  1
  Cu+  Cu112  1  0.59714419  0.92405122  0.26106088  1
  Cu+  Cu113  1  0.26496124  0.40448111  0.40057098  1
  Cu+  Cu114  1  0.06593839  0.60084585  0.06365791  1
  Cu+  Cu115  1  0.26220583  0.40198917  0.74515868  1
  Cu+  Cu116  1  0.59062040  0.93174841  0.59554592  1
  Cu+  Cu117  1  0.40703380  0.07533157  0.93160424  1
  Cu+  Cu118  1  0.92962769  0.58125048  0.26377446  1
  Cu+  Cu119  1  0.08526256  0.73641456  0.26349192  1
  Cu+  Cu120  1  0.92582043  0.41870493  0.73596626  1
  Cu+  Cu121  1  0.08266493  0.26075077  0.73703727  1
  Cu+  Cu122  1  0.74922043  0.07598468  0.92763220  1
  Cu+  Cu123  1  0.92068080  0.40457782  0.08127423  1
  Cu+  Cu124  1  0.41151667  0.40271405  0.59368053  1
  Cu+  Cu125  1  0.59364753  0.92300453  0.92709374  1
  Cu+  Cu126  1  0.25940445  0.73404084  0.08060109  1
  Cu+  Cu127  1  0.73310310  0.60040084  0.40514913  1
  Cu+  Cu128  1  0.07054742  0.07851552  0.26292720  1
  Cu+  Cu129  1  0.73823342  0.40376723  0.25975122  1
  Cu+  Cu130  1  0.25532822  0.92448433  0.92976866  1
  Cu+  Cu131  1  0.92947404  0.26142033  0.58273752  1
  Cu+  Cu132  1  0.40943075  0.73289361  0.92391324  1
  Te2-  Te133  1  0.25810296  0.25757352  0.08299973  1
  Te2-  Te134  1  0.25508025  0.24955113  0.41108729  1
  Te2-  Te135  1  0.25745413  0.24972949  0.74732810  1
  Te2-  Te136  1  0.25177614  0.58183627  0.07834764  1
  Te2-  Te137  1  0.25544204  0.58336245  0.41620990  1
  Te2-  Te138  1  0.25518561  0.58670515  0.74579814  1
  Te2-  Te139  1  0.25002656  0.92676521  0.08356505  1
  Te2-  Te140  1  0.25006827  0.91822529  0.41253055  1
  Te2-  Te141  1  0.25244665  0.91479524  0.74706194  1
  Te2-  Te142  1  0.58585556  0.24952162  0.08064356  1
  Te2-  Te143  1  0.58391644  0.25112359  0.41531691  1
  Te2-  Te144  1  0.58967975  0.25037172  0.75115307  1
  Te2-  Te145  1  0.58696558  0.58320193  0.08072309  1
  Te2-  Te146  1  0.58230651  0.58852076  0.40981953  1
  Te2-  Te147  1  0.58297901  0.58472947  0.74589948  1
  Te2-  Te148  1  0.58702240  0.91636153  0.07802943  1
  Te2-  Te149  1  0.58510258  0.92205147  0.41261551  1
  Te2-  Te150  1  0.58265155  0.92360490  0.74812384  1
  Te2-  Te151  1  0.91996916  0.25194375  0.08217452  1
  Te2-  Te152  1  0.91951339  0.25274659  0.41035037  1
  Te2-  Te153  1  0.92608930  0.25845771  0.74039116  1
  Te2-  Te154  1  0.91455816  0.59544923  0.07551388  1
  Te2-  Te155  1  0.92369625  0.58589780  0.41530507  1
  Te2-  Te156  1  0.91818127  0.58573654  0.75091393  1
  Te2-  Te157  1  0.92135775  0.91597771  0.08563027  1
  Te2-  Te158  1  0.91663771  0.92007531  0.41890013  1
  Te2-  Te159  1  0.91750472  0.91883322  0.74965554  1
  Te2-  Te160  1  0.25309062  0.08300029  0.25151975  1
  Te2-  Te161  1  0.25065981  0.08098154  0.58556768  1
  Te2-  Te162  1  0.25398421  0.07897570  0.92428071  1
  Te2-  Te163  1  0.25179853  0.41498365  0.24811934  1
  Te2-  Te164  1  0.25611811  0.40685995  0.58907609  1
  Te2-  Te165  1  0.25240628  0.41756077  0.92403402  1
  Te2-  Te166  1  0.24880892  0.74619183  0.24892004  1
  Te2-  Te167  1  0.25468318  0.74556148  0.58181091  1
  Te2-  Te168  1  0.25342157  0.73753190  0.92402408  1
  Te2-  Te169  1  0.58838989  0.07849613  0.25378962  1
  Te2-  Te170  1  0.58703452  0.08328786  0.58883741  1
  Te2-  Te171  1  0.59257230  0.08045174  0.92390157  1
  Te2-  Te172  1  0.58420786  0.40985049  0.25339028  1
  Te2-  Te173  1  0.58852479  0.41630144  0.58229735  1
  Te2-  Te174  1  0.58617137  0.41543079  0.91822342  1
  Te2-  Te175  1  0.58349844  0.74639150  0.24960308  1
  Te2-  Te176  1  0.58085318  0.74703817  0.58568599  1
  Te2-  Te177  1  0.58293442  0.74634633  0.91364742  1
  Te2-  Te178  1  0.91805415  0.08034237  0.25345794  1
  Te2-  Te179  1  0.91845868  0.07911102  0.58304114  1
  Te2-  Te180  1  0.92405973  0.08462520  0.91519254  1
  Te2-  Te181  1  0.91933641  0.42030942  0.25221162  1
  Te2-  Te182  1  0.92051024  0.41549752  0.58366219  1
  Te2-  Te183  1  0.91984510  0.40975897  0.92510508  1
  Te2-  Te184  1  0.92383762  0.74386253  0.26135905  1
  Te2-  Te185  1  0.91356240  0.74640103  0.58741718  1
  Te2-  Te186  1  0.91707485  0.74933847  0.92062270  1
  Te2-  Te187  1  0.08044348  0.25590068  0.25271257  1
  Te2-  Te188  1  0.08251449  0.25612648  0.58380971  1
  Te2-  Te189  1  0.07917933  0.25129964  0.92221763  1
  Te2-  Te190  1  0.08130141  0.58421023  0.25796252  1
  Te2-  Te191  1  0.08481476  0.58237246  0.58943125  1
  Te2-  Te192  1  0.07814747  0.59201686  0.91192095  1
  Te2-  Te193  1  0.07925805  0.92324980  0.25401260  1
  Te2-  Te194  1  0.08137322  0.91647234  0.58647939  1
  Te2-  Te195  1  0.08232434  0.91577100  0.92124764  1
  Te2-  Te196  1  0.41650286  0.24894763  0.25229358  1
  Te2-  Te197  1  0.41362986  0.24995920  0.58979132  1
  Te2-  Te198  1  0.41945033  0.25764771  0.92435617  1
  Te2-  Te199  1  0.41367556  0.58532979  0.25081834  1
  Te2-  Te200  1  0.41397079  0.58568912  0.58095287  1
  Te2-  Te201  1  0.41221562  0.58120247  0.91986520  1
  Te2-  Te202  1  0.40999718  0.91568890  0.24755227  1
  Te2-  Te203  1  0.40972485  0.92103198  0.58276358  1
  Te2-  Te204  1  0.40782857  0.92151279  0.92251410  1
  Te2-  Te205  1  0.74564856  0.25009860  0.25285835  1
  Te2-  Te206  1  0.74521372  0.25342043  0.58294129  1
  Te2-  Te207  1  0.75341965  0.25696771  0.91504987  1
  Te2-  Te208  1  0.73960787  0.59278904  0.25161686  1
  Te2-  Te209  1  0.74777161  0.58508433  0.58510155  1
  Te2-  Te210  1  0.74742487  0.58431678  0.92211751  1
  Te2-  Te211  1  0.75083210  0.91936659  0.25647259  1
  Te2-  Te212  1  0.74522600  0.92161229  0.58990676  1
  Te2-  Te213  1  0.74763078  0.92166618  0.92388709  1
  Te2-  Te214  1  0.08221295  0.08705161  0.07603396  1
  Te2-  Te215  1  0.07996589  0.08075103  0.41600515  1
  Te2-  Te216  1  0.08653521  0.07645230  0.75099289  1
  Te2-  Te217  1  0.07666393  0.40968247  0.08076519  1
  Te2-  Te218  1  0.08014772  0.41304402  0.41445243  1
  Te2-  Te219  1  0.07969828  0.41327705  0.74333408  1
  Te2-  Te220  1  0.07477412  0.75200553  0.07513845  1
  Te2-  Te221  1  0.08109521  0.74258523  0.41600482  1
  Te2-  Te222  1  0.07686012  0.74856485  0.74796999  1
  Te2-  Te223  1  0.41367782  0.07602639  0.08380924  1
  Te2-  Te224  1  0.41417797  0.08012403  0.41630485  1
  Te2-  Te225  1  0.41474783  0.08338871  0.75201099  1
  Te2-  Te226  1  0.41485772  0.41247788  0.08079207  1
  Te2-  Te227  1  0.41714628  0.40987455  0.40855153  1
  Te2-  Te228  1  0.41502125  0.40909466  0.74670746  1
  Te2-  Te229  1  0.41292783  0.74177440  0.07766800  1
  Te2-  Te230  1  0.41415955  0.75001461  0.40991098  1
  Te2-  Te231  1  0.41396626  0.74918663  0.74185851  1
  Te2-  Te232  1  0.75048939  0.07947721  0.08094571  1
  Te2-  Te233  1  0.74547615  0.08027981  0.41263846  1
  Te2-  Te234  1  0.75387995  0.08581133  0.74249105  1
  Te2-  Te235  1  0.74515584  0.41581757  0.08079630  1
  Te2-  Te236  1  0.74730515  0.41093107  0.41344776  1
  Te2-  Te237  1  0.74553758  0.41701675  0.74843429  1
  Te2-  Te238  1  0.75012220  0.74750138  0.08666088  1
  Te2-  Te239  1  0.73755837  0.75180565  0.41527344  1
  Te2-  Te240  1  0.74485948  0.74812937  0.75181668  1
