# generated using pymatgen
data_Ti27(Cu53Te54)2
_symmetry_space_group_name_H-M   'P 1'
_cell_length_a   17.87346695
_cell_length_b   17.87412906
_cell_length_c   17.86810772
_cell_angle_alpha   90.01717083
_cell_angle_beta   90.01821302
_cell_angle_gamma   90.02017542
_symmetry_Int_Tables_number   1
_chemical_formula_structural   Ti27(Cu53Te54)2
_chemical_formula_sum   'Ti27 Cu106 Te108'
_cell_volume   5708.37091656
_cell_formula_units_Z   1
loop_
 _symmetry_equiv_pos_site_id
 _symmetry_equiv_pos_as_xyz
  1  'x, y, z'
loop_
 _atom_type_symbol
 _atom_type_oxidation_number
  Ti4+  4.0
  Cu+  1.0
  Te2-  -2.0
loop_
 _atom_site_type_symbol
 _atom_site_label
 _atom_site_symmetry_multiplicity
 _atom_site_fract_x
 _atom_site_fract_y
 _atom_site_fract_z
 _atom_site_occupancy
  Ti4+  Ti0  1  0.16692174  0.16820673  0.16950518  1
  Ti4+  Ti1  1  0.16801270  0.16612582  0.50208020  1
  Ti4+  Ti2  1  0.16714447  0.16607158  0.83640848  1
  Ti4+  Ti3  1  0.17107700  0.50122184  0.16599584  1
  Ti4+  Ti4  1  0.16294166  0.49955761  0.50029440  1
  Ti4+  Ti5  1  0.16936366  0.49941780  0.83076655  1
  Ti4+  Ti6  1  0.16639550  0.83181133  0.16760408  1
  Ti4+  Ti7  1  0.16518779  0.83240184  0.50015761  1
  Ti4+  Ti8  1  0.16792871  0.83137854  0.83249150  1
  Ti4+  Ti9  1  0.49951541  0.16744396  0.16475851  1
  Ti4+  Ti10  1  0.50036016  0.16564464  0.49782107  1
  Ti4+  Ti11  1  0.50168791  0.16566510  0.83471949  1
  Ti4+  Ti12  1  0.49959914  0.50188088  0.16607836  1
  Ti4+  Ti13  1  0.49966900  0.49806620  0.49897352  1
  Ti4+  Ti14  1  0.50101331  0.49954835  0.83442438  1
  Ti4+  Ti15  1  0.49799116  0.83563588  0.16676145  1
  Ti4+  Ti16  1  0.49890742  0.83071295  0.50061574  1
  Ti4+  Ti17  1  0.49819903  0.83476127  0.83075585  1
  Ti4+  Ti18  1  0.83326344  0.16507840  0.16690375  1
  Ti4+  Ti19  1  0.83535493  0.16667138  0.50345827  1
  Ti4+  Ti20  1  0.83342613  0.16937184  0.83425422  1
  Ti4+  Ti21  1  0.83423540  0.50161576  0.16393854  1
  Ti4+  Ti22  1  0.83421952  0.50034920  0.50168983  1
  Ti4+  Ti23  1  0.83183738  0.50085184  0.83101918  1
  Ti4+  Ti24  1  0.83254153  0.83095290  0.16737821  1
  Ti4+  Ti25  1  0.82871844  0.83649849  0.50228056  1
  Ti4+  Ti26  1  0.83553283  0.83257911  0.83025829  1
  Cu+  Cu27  1  0.16604892  0.16819402  0.00308166  1
  Cu+  Cu28  1  0.16552484  0.16960479  0.33875656  1
  Cu+  Cu29  1  0.16823488  0.16510832  0.66925756  1
  Cu+  Cu30  1  0.17470940  0.49956894  -0.00154027  1
  Cu+  Cu31  1  0.16314039  0.49867255  0.33127033  1
  Cu+  Cu32  1  0.16135634  0.50266502  0.66576562  1
  Cu+  Cu33  1  0.17010745  0.83037399  0.00104759  1
  Cu+  Cu34  1  0.16208561  0.83441893  0.33371357  1
  Cu+  Cu35  1  0.17178844  0.83297028  0.66526564  1
  Cu+  Cu36  1  0.50304905  0.16032343  -0.00079619  1
  Cu+  Cu37  1  0.49845191  0.16519183  0.33200468  1
  Cu+  Cu38  1  0.50020334  0.16661734  0.66660854  1
  Cu+  Cu39  1  0.50190944  0.50292480  -0.00138405  1
  Cu+  Cu40  1  0.49871634  0.49764139  0.33298375  1
  Cu+  Cu41  1  0.49983035  0.49866735  0.66791351  1
  Cu+  Cu42  1  0.49999535  0.83762128  -0.00425186  1
  Cu+  Cu43  1  0.49475569  0.83097080  0.33389017  1
  Cu+  Cu44  1  0.50405141  0.83554700  0.66297763  1
  Cu+  Cu45  1  0.82902642  0.16914752  0.00234252  1
  Cu+  Cu46  1  0.83446586  0.16555683  0.33349657  1
  Cu+  Cu47  1  0.83528862  0.16808803  0.67246749  1
  Cu+  Cu48  1  0.82958229  0.50494007  -0.00109373  1
  Cu+  Cu49  1  0.83463326  0.50163387  0.33236142  1
  Cu+  Cu50  1  0.83365383  0.49239450  0.66508867  1
  Cu+  Cu51  1  0.83831625  0.82827997  -0.00090817  1
  Cu+  Cu52  1  0.83237569  0.83004112  0.33660408  1
  Cu+  Cu53  1  0.82631021  0.84047046  0.66662280  1
  Cu+  Cu54  1  0.16610710  -0.00154349  0.16943971  1
  Cu+  Cu55  1  0.16987386  -0.00032396  0.50323338  1
  Cu+  Cu56  1  0.16627623  -0.00195391  0.83636569  1
  Cu+  Cu57  1  0.16880684  0.33719378  0.16804546  1
  Cu+  Cu58  1  0.16380255  0.33151688  0.49806443  1
  Cu+  Cu59  1  0.16842931  0.32990239  0.83642225  1
  Cu+  Cu60  1  0.17387936  0.66798062  0.16294380  1
  Cu+  Cu61  1  0.16342192  0.66466676  0.49864560  1
  Cu+  Cu62  1  0.16778378  0.66466828  0.82671287  1
  Cu+  Cu63  1  0.49927132  0.00304727  0.16437461  1
  Cu+  Cu64  1  0.50104893  -0.00141281  0.49816622  1
  Cu+  Cu65  1  0.49742499  0.00342605  0.83815619  1
  Cu+  Cu66  1  0.49954569  0.33687311  0.16825151  1
  Cu+  Cu67  1  0.50096412  0.32907772  0.49700085  1
  Cu+  Cu68  1  0.50236478  0.33355607  0.83701245  1
  Cu+  Cu69  1  0.49558064  0.67023161  0.16894133  1
  Cu+  Cu70  1  0.49854601  0.66281402  0.49766374  1
  Cu+  Cu71  1  0.49875476  0.66669744  0.83023319  1
  Cu+  Cu72  1  0.83341446  -0.00312887  0.17116867  1
  Cu+  Cu73  1  0.83720186  0.00128914  0.50621334  1
  Cu+  Cu74  1  0.83466839  0.00043192  0.83049958  1
  Cu+  Cu75  1  0.83226135  0.33037696  0.16451092  1
  Cu+  Cu76  1  0.83297096  0.33537051  0.50395209  1
  Cu+  Cu77  1  0.83353210  0.33695851  0.82779073  1
  Cu+  Cu78  1  0.83413917  0.66637589  0.15919305  1
  Cu+  Cu79  1  0.83092505  0.66956720  0.49946594  1
  Cu+  Cu80  1  0.83410050  0.66675954  0.83223957  1
  Cu+  Cu81  1  -0.00127616  0.16580479  0.16872095  1
  Cu+  Cu82  1  0.00345466  0.16811635  0.50106957  1
  Cu+  Cu83  1  0.00080387  0.16477096  0.83595467  1
  Cu+  Cu84  1  0.00317955  0.50085769  0.16781590  1
  Cu+  Cu85  1  -0.00204329  0.50287451  0.50060527  1
  Cu+  Cu86  1  0.00109558  0.50039112  0.82919304  1
  Cu+  Cu87  1  -0.00169396  0.82877282  0.16568963  1
  Cu+  Cu88  1  -0.00292810  0.83342908  0.49888236  1
  Cu+  Cu89  1  0.00419634  0.83241060  0.83474819  1
  Cu+  Cu90  1  0.33297508  0.16684981  0.17120328  1
  Cu+  Cu91  1  0.33450029  0.16422892  0.50004057  1
  Cu+  Cu92  1  0.33369198  0.16384748  0.83705634  1
  Cu+  Cu93  1  0.33486243  0.49569165  0.16542626  1
  Cu+  Cu94  1  0.32802990  0.49704368  0.49972534  1
  Cu+  Cu95  1  0.33998913  0.50275542  0.83154662  1
  Cu+  Cu96  1  0.33320524  0.82956583  0.16913469  1
  Cu+  Cu97  1  0.33048521  0.83506353  0.50086839  1
  Cu+  Cu98  1  0.33109382  0.82887079  0.82849595  1
  Cu+  Cu99  1  0.66745168  0.16752377  0.15995995  1
  Cu+  Cu100  1  0.66680371  0.16537920  0.49864069  1
  Cu+  Cu101  1  0.66811147  0.17310013  0.83449931  1
  Cu+  Cu102  1  0.66704621  0.50556776  0.16267638  1
  Cu+  Cu103  1  0.66629548  0.49897963  0.50068144  1
  Cu+  Cu104  1  0.66295659  0.50119183  0.83650896  1
  Cu+  Cu105  1  0.66515286  0.83560211  0.16797889  1
  Cu+  Cu106  1  0.66286350  0.83327866  0.50900591  1
  Cu+  Cu107  1  0.66697474  0.83534037  0.82957231  1
  Cu+  Cu108  1  0.73724261  0.26355460  0.07424644  1
  Cu+  Cu109  1  0.40535052  0.07361594  0.26115767  1
  Cu+  Cu110  1  0.73814646  0.73671542  0.59337353  1
  Cu+  Cu111  1  0.73466822  0.40472946  0.58773804  1
  Cu+  Cu112  1  0.26615993  0.74354210  0.06986234  1
  Cu+  Cu113  1  0.40855540  0.40571968  0.26371534  1
  Cu+  Cu114  1  0.26174862  0.40317226  0.06891816  1
  Cu+  Cu115  1  0.26238970  0.92889169  0.59471580  1
  Cu+  Cu116  1  0.93282695  0.40707272  0.73905737  1
  Cu+  Cu117  1  0.41456551  0.59353118  0.73549930  1
  Cu+  Cu118  1  0.25804963  0.73655373  0.73363137  1
  Cu+  Cu119  1  0.92980474  0.92262723  0.59154686  1
  Cu+  Cu120  1  0.40169949  0.07289873  0.92742851  1
  Cu+  Cu121  1  0.40393757  0.73766350  0.26382028  1
  Cu+  Cu122  1  0.73657806  0.93154068  0.74593457  1
  Cu+  Cu123  1  0.93121871  0.07265488  0.74749240  1
  Cu+  Cu124  1  0.93035720  0.73761938  0.06903559  1
  Cu+  Cu125  1  0.92485431  0.74104542  0.40896130  1
  Cu+  Cu126  1  0.07083415  0.40869109  0.25541199  1
  Cu+  Cu127  1  0.58923572  0.93200436  0.59096563  1
  Cu+  Cu128  1  0.73781390  0.26245262  0.74004717  1
  Cu+  Cu129  1  0.73508363  0.59941500  0.07093503  1
  Cu+  Cu130  1  0.59713378  0.07045642  0.07264335  1
  Cu+  Cu131  1  0.07056574  0.25899133  0.41010465  1
  Cu+  Cu132  1  0.06804794  0.59605322  0.73950425  1
  Te2-  Te133  1  0.25404974  0.25222045  0.08275804  1
  Te2-  Te134  1  0.25518956  0.25225740  0.41712586  1
  Te2-  Te135  1  0.25435937  0.24945170  0.75101041  1
  Te2-  Te136  1  0.25973134  0.58700553  0.07847101  1
  Te2-  Te137  1  0.24856196  0.58344645  0.41369839  1
  Te2-  Te138  1  0.25785562  0.58404528  0.74150332  1
  Te2-  Te139  1  0.25285088  0.91802535  0.08400683  1
  Te2-  Te140  1  0.24968599  0.91774276  0.41314953  1
  Te2-  Te141  1  0.25341417  0.92256657  0.74857462  1
  Te2-  Te142  1  0.58283695  0.25688128  0.07806793  1
  Te2-  Te143  1  0.58683331  0.24960268  0.41138039  1
  Te2-  Te144  1  0.58415235  0.25438578  0.74649217  1
  Te2-  Te145  1  0.58206670  0.59194244  0.08023664  1
  Te2-  Te146  1  0.58531147  0.58264889  0.41319961  1
  Te2-  Te147  1  0.58675890  0.58573687  0.74677301  1
  Te2-  Te148  1  0.58579462  0.91901308  0.07930648  1
  Te2-  Te149  1  0.58502496  0.91396989  0.41372663  1
  Te2-  Te150  1  0.58394299  0.92598520  0.74746301  1
  Te2-  Te151  1  0.92065189  0.25039009  0.08125609  1
  Te2-  Te152  1  0.91668282  0.25369913  0.41583457  1
  Te2-  Te153  1  0.92473958  0.25424315  0.74861592  1
  Te2-  Te154  1  0.92526459  0.58380098  0.07720957  1
  Te2-  Te155  1  0.91841312  0.58752871  0.41403953  1
  Te2-  Te156  1  0.91638622  0.58747702  0.74300550  1
  Te2-  Te157  1  0.91765292  0.91759400  0.08258836  1
  Te2-  Te158  1  0.91626387  0.92086288  0.41438447  1
  Te2-  Te159  1  0.92620790  0.91900360  0.74567148  1
  Te2-  Te160  1  0.24972241  0.08092914  0.25681880  1
  Te2-  Te161  1  0.25580785  0.08115897  0.58954482  1
  Te2-  Te162  1  0.25006016  0.07859388  0.92404357  1
  Te2-  Te163  1  0.25516456  0.41392048  0.25709162  1
  Te2-  Te164  1  0.24620610  0.41361593  0.58574971  1
  Te2-  Te165  1  0.25819647  0.41349668  0.91450136  1
  Te2-  Te166  1  0.25077097  0.74644767  0.25878787  1
  Te2-  Te167  1  0.25315811  0.74209752  0.58174951  1
  Te2-  Te168  1  0.25354176  0.74282609  0.91743165  1
  Te2-  Te169  1  0.58757289  0.08342194  0.24952601  1
  Te2-  Te170  1  0.58636944  0.08234040  0.58653644  1
  Te2-  Te171  1  0.59413683  0.07925656  0.91779823  1
  Te2-  Te172  1  0.58906661  0.41822263  0.24942682  1
  Te2-  Te173  1  0.58295779  0.41131564  0.58619878  1
  Te2-  Te174  1  0.58676721  0.41437016  0.92218382  1
  Te2-  Te175  1  0.58393444  0.74996933  0.25202704  1
  Te2-  Te176  1  0.58265411  0.73964401  0.58760093  1
  Te2-  Te177  1  0.58417249  0.75062838  0.91403443  1
  Te2-  Te178  1  0.91906086  0.07994542  0.25346487  1
  Te2-  Te179  1  0.92486921  0.08244886  0.59087758  1
  Te2-  Te180  1  0.91544824  0.08185826  0.92121546  1
  Te2-  Te181  1  0.91701879  0.41317226  0.25068079  1
  Te2-  Te182  1  0.92504661  0.41188259  0.58509169  1
  Te2-  Te183  1  0.91718026  0.41799444  0.91794044  1
  Te2-  Te184  1  0.91767789  0.74336718  0.25383534  1
  Te2-  Te185  1  0.91537558  0.75070951  0.58982965  1
  Te2-  Te186  1  0.92275892  0.74425072  0.91500554  1
  Te2-  Te187  1  0.07815442  0.25505172  0.25441208  1
  Te2-  Te188  1  0.08324670  0.25174803  0.58980485  1
  Te2-  Te189  1  0.08040776  0.25157605  0.92102890  1
  Te2-  Te190  1  0.08513329  0.58969093  0.24904857  1
  Te2-  Te191  1  0.07660802  0.58916577  0.58531995  1
  Te2-  Te192  1  0.08469179  0.58343310  0.91725516  1
  Te2-  Te193  1  0.07781083  0.91668682  0.25050100  1
  Te2-  Te194  1  0.08078546  0.91845309  0.58743436  1
  Te2-  Te195  1  0.08395556  0.91566693  0.92147569  1
  Te2-  Te196  1  0.41434589  0.25418131  0.25380444  1
  Te2-  Te197  1  0.41543670  0.25059238  0.58436627  1
  Te2-  Te198  1  0.41713700  0.25051968  0.92139060  1
  Te2-  Te199  1  0.41132215  0.58550446  0.25355258  1
  Te2-  Te200  1  0.41154580  0.58322922  0.58314381  1
  Te2-  Te201  1  0.41592284  0.58815366  0.92016961  1
  Te2-  Te202  1  0.41194856  0.92183335  0.25243463  1
  Te2-  Te203  1  0.41368832  0.92048984  0.58605009  1
  Te2-  Te204  1  0.40904973  0.91723863  0.91689886  1
  Te2-  Te205  1  0.74672875  0.25004962  0.25246831  1
  Te2-  Te206  1  0.74482988  0.25165872  0.58803327  1
  Te2-  Te207  1  0.74852975  0.25911549  0.91975841  1
  Te2-  Te208  1  0.75014429  0.58731804  0.25051917  1
  Te2-  Te209  1  0.74767195  0.58532228  0.58805929  1
  Te2-  Te210  1  0.74505929  0.58963359  0.91610457  1
  Te2-  Te211  1  0.74813231  0.91575344  0.25523288  1
  Te2-  Te212  1  0.74130640  0.92951874  0.58871233  1
  Te2-  Te213  1  0.75245865  0.91637303  0.91853034  1
  Te2-  Te214  1  0.08285694  0.08221027  0.08504647  1
  Te2-  Te215  1  0.08253323  0.07813367  0.41707361  1
  Te2-  Te216  1  0.08294096  0.07856568  0.74901290  1
  Te2-  Te217  1  0.08420144  0.41678601  0.07875389  1
  Te2-  Te218  1  0.07458870  0.41384698  0.41236922  1
  Te2-  Te219  1  0.08461763  0.40911915  0.74731509  1
  Te2-  Te220  1  0.08170430  0.74428885  0.07935425  1
  Te2-  Te221  1  0.07866098  0.74642702  0.41375336  1
  Te2-  Te222  1  0.07940961  0.74870934  0.74329800  1
  Te2-  Te223  1  0.40909825  0.08085991  0.08008925  1
  Te2-  Te224  1  0.41335418  0.07744322  0.41393667  1
  Te2-  Te225  1  0.41499161  0.08223706  0.74749313  1
  Te2-  Te226  1  0.41684977  0.41395755  0.07592131  1
  Te2-  Te227  1  0.41195035  0.41145363  0.41586472  1
  Te2-  Te228  1  0.41640407  0.41051285  0.74929607  1
  Te2-  Te229  1  0.41644699  0.74906915  0.07545091  1
  Te2-  Te230  1  0.40946088  0.74531895  0.41714725  1
  Te2-  Te231  1  0.41458303  0.74791935  0.73989729  1
  Te2-  Te232  1  0.74982224  0.07421143  0.07984147  1
  Te2-  Te233  1  0.75226238  0.08075621  0.41801281  1
  Te2-  Te234  1  0.74400387  0.08295667  0.74823585  1
  Te2-  Te235  1  0.74641848  0.41528376  0.07924787  1
  Te2-  Te236  1  0.74996241  0.41541531  0.41406371  1
  Te2-  Te237  1  0.73876966  0.41553616  0.74622470  1
  Te2-  Te238  1  0.74276330  0.75044348  0.07776166  1
  Te2-  Te239  1  0.74082589  0.75027278  0.41743486  1
  Te2-  Te240  1  0.74662043  0.74496702  0.74645735  1
