# generated using pymatgen
data_Ti27(Cu53Te54)2
_symmetry_space_group_name_H-M   'P 1'
_cell_length_a   17.88914053
_cell_length_b   17.89281870
_cell_length_c   17.88770705
_cell_angle_alpha   89.97176359
_cell_angle_beta   89.99281041
_cell_angle_gamma   89.99946871
_symmetry_Int_Tables_number   1
_chemical_formula_structural   Ti27(Cu53Te54)2
_chemical_formula_sum   'Ti27 Cu106 Te108'
_cell_volume   5725.62439403
_cell_formula_units_Z   1
loop_
 _symmetry_equiv_pos_site_id
 _symmetry_equiv_pos_as_xyz
  1  'x, y, z'
loop_
 _atom_type_symbol
 _atom_type_oxidation_number
  Ti4+  4.0
  Cu+  1.0
  Te2-  -2.0
loop_
 _atom_site_type_symbol
 _atom_site_label
 _atom_site_symmetry_multiplicity
 _atom_site_fract_x
 _atom_site_fract_y
 _atom_site_fract_z
 _atom_site_occupancy
  Ti4+  Ti0  1  0.16596973  0.16422361  0.16778941  1
  Ti4+  Ti1  1  0.16532988  0.16684893  0.49791404  1
  Ti4+  Ti2  1  0.16624174  0.16392723  0.83397643  1
  Ti4+  Ti3  1  0.16892859  0.50234534  0.16812079  1
  Ti4+  Ti4  1  0.16365244  0.50275265  0.50034727  1
  Ti4+  Ti5  1  0.16779921  0.49605659  0.83450874  1
  Ti4+  Ti6  1  0.17023990  0.83534397  0.17107552  1
  Ti4+  Ti7  1  0.16458995  0.83040411  0.49899684  1
  Ti4+  Ti8  1  0.16797145  0.83210147  0.83495725  1
  Ti4+  Ti9  1  0.49784513  0.16563535  0.16572292  1
  Ti4+  Ti10  1  0.49814568  0.16427041  0.49987926  1
  Ti4+  Ti11  1  0.50123474  0.17007789  0.83366489  1
  Ti4+  Ti12  1  0.49906751  0.49783411  0.16717713  1
  Ti4+  Ti13  1  0.50100612  0.49804643  0.50050204  1
  Ti4+  Ti14  1  0.50058524  0.49984485  0.83402039  1
  Ti4+  Ti15  1  0.50148585  0.83098974  0.16612036  1
  Ti4+  Ti16  1  0.50283226  0.83314178  0.49800499  1
  Ti4+  Ti17  1  0.49978924  0.83485445  0.83205193  1
  Ti4+  Ti18  1  0.83223572  0.16628253  0.16374081  1
  Ti4+  Ti19  1  0.83187859  0.16678722  0.49960524  1
  Ti4+  Ti20  1  0.83435375  0.17111315  0.83312051  1
  Ti4+  Ti21  1  0.83533221  0.49805109  0.16610486  1
  Ti4+  Ti22  1  0.83056304  0.50214556  0.49946972  1
  Ti4+  Ti23  1  0.83581474  0.50265285  0.83208825  1
  Ti4+  Ti24  1  0.83462227  0.83358632  0.16617911  1
  Ti4+  Ti25  1  0.83031267  0.83474508  0.50082829  1
  Ti4+  Ti26  1  0.83326339  0.83561002  0.83506293  1
  Cu+  Cu27  1  0.16610685  0.16566948  0.00300966  1
  Cu+  Cu28  1  0.17035404  0.16236747  0.33415827  1
  Cu+  Cu29  1  0.16493360  0.16524622  0.66445242  1
  Cu+  Cu30  1  0.17262615  0.50140584  -0.00423315  1
  Cu+  Cu31  1  0.16679898  0.50716506  0.33541011  1
  Cu+  Cu32  1  0.16245022  0.50108716  0.67168421  1
  Cu+  Cu33  1  0.17028024  0.83427400  0.00564674  1
  Cu+  Cu34  1  0.16276013  0.82919066  0.33219797  1
  Cu+  Cu35  1  0.16744104  0.83054179  0.66382758  1
  Cu+  Cu36  1  0.49955608  0.16828563  -0.00321795  1
  Cu+  Cu37  1  0.49814375  0.16130637  0.33333934  1
  Cu+  Cu38  1  0.50160514  0.17337536  0.66483715  1
  Cu+  Cu39  1  0.49613185  0.49678958  0.00162476  1
  Cu+  Cu40  1  0.49871520  0.49427082  0.33323834  1
  Cu+  Cu41  1  0.50322466  0.50038592  0.66752451  1
  Cu+  Cu42  1  0.49985341  0.83397870  -0.00219971  1
  Cu+  Cu43  1  0.50408444  0.82775596  0.33218596  1
  Cu+  Cu44  1  0.50010179  0.83803542  0.66571601  1
  Cu+  Cu45  1  0.83029898  0.16627689  -0.00454060  1
  Cu+  Cu46  1  0.83164684  0.16779925  0.33054513  1
  Cu+  Cu47  1  0.83512515  0.16709111  0.66939165  1
  Cu+  Cu48  1  0.83500711  0.49979104  -0.00062172  1
  Cu+  Cu49  1  0.83386903  0.49470212  0.33294471  1
  Cu+  Cu50  1  0.83665374  0.50546425  0.66362187  1
  Cu+  Cu51  1  0.83213034  0.83571506  0.00250639  1
  Cu+  Cu52  1  0.83338238  0.83398215  0.33388389  1
  Cu+  Cu53  1  0.83039023  0.83563354  0.66963815  1
  Cu+  Cu54  1  0.16370973  0.00186001  0.16609627  1
  Cu+  Cu55  1  0.16596563  -0.00267127  0.49651871  1
  Cu+  Cu56  1  0.16593315  -0.00360669  0.83379634  1
  Cu+  Cu57  1  0.16482822  0.32989863  0.16841444  1
  Cu+  Cu58  1  0.16436004  0.33592702  0.50060530  1
  Cu+  Cu59  1  0.16846239  0.32858048  0.83384079  1
  Cu+  Cu60  1  0.17542189  0.66954253  0.17439282  1
  Cu+  Cu61  1  0.16172199  0.66595582  0.49489761  1
  Cu+  Cu62  1  0.16808843  0.66356447  0.83577202  1
  Cu+  Cu63  1  0.49961110  -0.00380374  0.16711797  1
  Cu+  Cu64  1  0.50516882  -0.00085766  0.49809118  1
  Cu+  Cu65  1  0.49838471  0.00343457  0.83223250  1
  Cu+  Cu66  1  0.49553757  0.33248340  0.16623302  1
  Cu+  Cu67  1  0.49902624  0.32885543  0.50270608  1
  Cu+  Cu68  1  0.50217777  0.33649970  0.83838918  1
  Cu+  Cu69  1  0.49938326  0.66301280  0.16548946  1
  Cu+  Cu70  1  0.50577708  0.66463285  0.49906430  1
  Cu+  Cu71  1  0.49925231  0.67109772  0.83080609  1
  Cu+  Cu72  1  0.83194731  -0.00281938  0.16167097  1
  Cu+  Cu73  1  0.83013150  0.00057599  0.50162311  1
  Cu+  Cu74  1  0.83392451  0.00611796  0.83199123  1
  Cu+  Cu75  1  0.83370106  0.33252937  0.16661044  1
  Cu+  Cu76  1  0.83109525  0.33554992  0.49600997  1
  Cu+  Cu77  1  0.83563025  0.33843364  0.83027932  1
  Cu+  Cu78  1  0.83575825  0.66367420  0.16732639  1
  Cu+  Cu79  1  0.83132397  0.66853419  0.50318999  1
  Cu+  Cu80  1  0.83403699  0.67000063  0.83485893  1
  Cu+  Cu81  1  0.00005259  0.16587142  0.16489960  1
  Cu+  Cu82  1  -0.00118798  0.16923086  0.50094779  1
  Cu+  Cu83  1  -0.00064017  0.16576766  0.82944543  1
  Cu+  Cu84  1  -0.00156269  0.49721735  0.16518423  1
  Cu+  Cu85  1  -0.00506679  0.50489643  0.49713784  1
  Cu+  Cu86  1  0.00330865  0.49918301  0.82924729  1
  Cu+  Cu87  1  0.00322332  0.83714156  0.16994521  1
  Cu+  Cu88  1  -0.00343610  0.83443221  0.50010021  1
  Cu+  Cu89  1  -0.00114281  0.83315874  0.83567402  1
  Cu+  Cu90  1  0.32975576  0.16506235  0.16820613  1
  Cu+  Cu91  1  0.32914862  0.16298820  0.49477177  1
  Cu+  Cu92  1  0.33409784  0.16491235  0.83446019  1
  Cu+  Cu93  1  0.33232499  0.50303476  0.17098344  1
  Cu+  Cu94  1  0.33583191  0.49733736  0.50249452  1
  Cu+  Cu95  1  0.33643577  0.49448675  0.83823272  1
  Cu+  Cu96  1  0.33685256  0.83082650  0.16543004  1
  Cu+  Cu97  1  0.33440898  0.82961810  0.49923933  1
  Cu+  Cu98  1  0.33482224  0.83508714  0.83118850  1
  Cu+  Cu99  1  0.66507897  0.16613248  0.16446039  1
  Cu+  Cu100  1  0.66498470  0.16533743  0.49977849  1
  Cu+  Cu101  1  0.66734073  0.17501130  0.83855715  1
  Cu+  Cu102  1  0.66648267  0.49612355  0.16640583  1
  Cu+  Cu103  1  0.66436910  0.50218424  0.50436075  1
  Cu+  Cu104  1  0.67191662  0.50162701  0.83170151  1
  Cu+  Cu105  1  0.66927912  0.83280286  0.16604436  1
  Cu+  Cu106  1  0.66391514  0.83454305  0.49983221  1
  Cu+  Cu107  1  0.66504069  0.83562441  0.83362773  1
  Cu+  Cu108  1  0.26234701  0.74064386  0.07616419  1
  Cu+  Cu109  1  0.26576678  0.59396527  0.91618444  1
  Cu+  Cu110  1  0.07067110  0.73971498  0.25333463  1
  Cu+  Cu111  1  0.25959901  0.07568980  0.07281596  1
  Cu+  Cu112  1  0.92648356  0.59943149  0.59127380  1
  Cu+  Cu113  1  0.58988994  0.59622340  0.59833834  1
  Cu+  Cu114  1  0.06611829  0.08129070  0.26582813  1
  Cu+  Cu115  1  0.26633855  0.59638364  0.26795305  1
  Cu+  Cu116  1  0.07486456  0.92382082  0.07330943  1
  Cu+  Cu117  1  0.07272403  0.26252604  0.07382012  1
  Cu+  Cu118  1  0.92757816  0.07385874  0.73871535  1
  Cu+  Cu119  1  0.40606071  0.40486192  0.93222352  1
  Cu+  Cu120  1  0.59664292  0.26000223  0.58874390  1
  Cu+  Cu121  1  0.59661076  0.07620489  0.40238814  1
  Cu+  Cu122  1  0.73572290  0.92357151  0.07537467  1
  Cu+  Cu123  1  0.26021576  0.06450839  0.40926554  1
  Cu+  Cu124  1  0.06589262  0.59254099  0.40327747  1
  Cu+  Cu125  1  0.40735760  0.07156446  0.92270889  1
  Cu+  Cu126  1  0.07595218  0.59607484  0.74802781  1
  Cu+  Cu127  1  0.59623299  0.26688522  0.93201579  1
  Cu+  Cu128  1  0.73913517  0.07565323  0.91906169  1
  Cu+  Cu129  1  0.59468083  0.73297723  0.40211054  1
  Cu+  Cu130  1  0.25847245  0.26083295  0.26084855  1
  Cu+  Cu131  1  0.92565153  0.40401798  0.40687191  1
  Cu+  Cu132  1  0.59250498  0.92907798  0.59583334  1
  Te2-  Te133  1  0.25252038  0.25248316  0.08137970  1
  Te2-  Te134  1  0.25157794  0.25699918  0.41389491  1
  Te2-  Te135  1  0.25150943  0.24718638  0.74772693  1
  Te2-  Te136  1  0.25575468  0.58752109  0.07910743  1
  Te2-  Te137  1  0.25717452  0.58677865  0.41859270  1
  Te2-  Te138  1  0.25656260  0.58187360  0.75001312  1
  Te2-  Te139  1  0.25760537  0.92181702  0.08351116  1
  Te2-  Te140  1  0.25274661  0.91320025  0.41205283  1
  Te2-  Te141  1  0.25026010  0.91669326  0.74686998  1
  Te2-  Te142  1  0.58372221  0.25339769  0.08201393  1
  Te2-  Te143  1  0.58319097  0.25030346  0.41245131  1
  Te2-  Te144  1  0.58743158  0.25751794  0.74793087  1
  Te2-  Te145  1  0.58464081  0.58146886  0.08106734  1
  Te2-  Te146  1  0.58743848  0.58100930  0.40956131  1
  Te2-  Te147  1  0.58742616  0.58767904  0.75041552  1
  Te2-  Te148  1  0.58479169  0.91855439  0.07920491  1
  Te2-  Te149  1  0.58860466  0.91992279  0.40809074  1
  Te2-  Te150  1  0.58642816  0.92362289  0.74879353  1
  Te2-  Te151  1  0.91814341  0.25233067  0.07818761  1
  Te2-  Te152  1  0.91807240  0.25106704  0.41234126  1
  Te2-  Te153  1  0.92047144  0.25605843  0.74677241  1
  Te2-  Te154  1  0.92036469  0.58456295  0.08038458  1
  Te2-  Te155  1  0.91323511  0.59134947  0.40952313  1
  Te2-  Te156  1  0.92193777  0.59211887  0.74676827  1
  Te2-  Te157  1  0.92305065  0.91941454  0.07951556  1
  Te2-  Te158  1  0.91566755  0.91999646  0.41602953  1
  Te2-  Te159  1  0.91978145  0.92047214  0.74786510  1
  Te2-  Te160  1  0.25537896  0.07404039  0.25408652  1
  Te2-  Te161  1  0.24950474  0.07940778  0.58361929  1
  Te2-  Te162  1  0.25278096  0.07641766  0.92023990  1
  Te2-  Te163  1  0.25039226  0.41452775  0.25542054  1
  Te2-  Te164  1  0.24772433  0.41848881  0.58631735  1
  Te2-  Te165  1  0.25292007  0.40663546  0.92171596  1
  Te2-  Te166  1  0.26060952  0.75035009  0.25974198  1
  Te2-  Te167  1  0.25044771  0.74459622  0.58195365  1
  Te2-  Te168  1  0.25700253  0.74749690  0.92100740  1
  Te2-  Te169  1  0.58564013  0.07925808  0.24900075  1
  Te2-  Te170  1  0.58635068  0.08096279  0.58999863  1
  Te2-  Te171  1  0.58674887  0.08046982  0.91958192  1
  Te2-  Te172  1  0.58375506  0.41100369  0.25072629  1
  Te2-  Te173  1  0.58684429  0.41112096  0.58762282  1
  Te2-  Te174  1  0.59119556  0.41878253  0.92147333  1
  Te2-  Te175  1  0.58933273  0.74316930  0.24819315  1
  Te2-  Te176  1  0.58705815  0.74842491  0.58958461  1
  Te2-  Te177  1  0.58503369  0.74930503  0.91769812  1
  Te2-  Te178  1  0.91519308  0.07888976  0.25053722  1
  Te2-  Te179  1  0.91864675  0.08091760  0.58477407  1
  Te2-  Te180  1  0.92092667  0.08342188  0.91918216  1
  Te2-  Te181  1  0.92197399  0.40984642  0.25220904  1
  Te2-  Te182  1  0.91788083  0.41495231  0.58318060  1
  Te2-  Te183  1  0.92142622  0.41707325  0.91667463  1
  Te2-  Te184  1  0.91886565  0.74729807  0.25353602  1
  Te2-  Te185  1  0.91752980  0.75132438  0.58865636  1
  Te2-  Te186  1  0.91744732  0.75034543  0.92136251  1
  Te2-  Te187  1  0.07929704  0.24926174  0.25575972  1
  Te2-  Te188  1  0.08140694  0.25237870  0.58473094  1
  Te2-  Te189  1  0.07983861  0.25028719  0.91878843  1
  Te2-  Te190  1  0.07653564  0.58713816  0.25070610  1
  Te2-  Te191  1  0.07840978  0.58993705  0.58931857  1
  Te2-  Te192  1  0.07990925  0.58310704  0.92031764  1
  Te2-  Te193  1  0.08117761  0.92332931  0.25747238  1
  Te2-  Te194  1  0.08150943  0.91705782  0.58380030  1
  Te2-  Te195  1  0.08140145  0.91729884  0.92110400  1
  Te2-  Te196  1  0.41331833  0.25015363  0.25409218  1
  Te2-  Te197  1  0.40825285  0.24854176  0.58276758  1
  Te2-  Te198  1  0.41087310  0.25421711  0.92013126  1
  Te2-  Te199  1  0.41644559  0.58599699  0.25631134  1
  Te2-  Te200  1  0.41687204  0.58557796  0.58559982  1
  Te2-  Te201  1  0.41697526  0.58934353  0.91985416  1
  Te2-  Te202  1  0.41700593  0.91462774  0.25328595  1
  Te2-  Te203  1  0.41439783  0.91907700  0.58097609  1
  Te2-  Te204  1  0.41296212  0.91984776  0.91943358  1
  Te2-  Te205  1  0.74673626  0.25079002  0.24868543  1
  Te2-  Te206  1  0.74919304  0.25347375  0.58621679  1
  Te2-  Te207  1  0.75067644  0.26230648  0.92058833  1
  Te2-  Te208  1  0.74902173  0.58187665  0.25118671  1
  Te2-  Te209  1  0.74457852  0.58906445  0.58813366  1
  Te2-  Te210  1  0.75065860  0.58643938  0.91889030  1
  Te2-  Te211  1  0.74856997  0.91913536  0.25249288  1
  Te2-  Te212  1  0.74556445  0.92097289  0.58814983  1
  Te2-  Te213  1  0.74529345  0.92253713  0.92004876  1
  Te2-  Te214  1  0.07683607  0.07809635  0.07726778  1
  Te2-  Te215  1  0.07561505  0.07962710  0.41541433  1
  Te2-  Te216  1  0.08234358  0.07793118  0.74634000  1
  Te2-  Te217  1  0.08470684  0.41664121  0.08035148  1
  Te2-  Te218  1  0.07964605  0.41605334  0.41266734  1
  Te2-  Te219  1  0.08269838  0.40841630  0.74892772  1
  Te2-  Te220  1  0.08435301  0.74648115  0.08652445  1
  Te2-  Te221  1  0.07278197  0.74636167  0.41160125  1
  Te2-  Te222  1  0.08155005  0.74831686  0.74902922  1
  Te2-  Te223  1  0.41370656  0.07779474  0.07930554  1
  Te2-  Te224  1  0.41296778  0.07542936  0.41344530  1
  Te2-  Te225  1  0.41673989  0.08583632  0.74509605  1
  Te2-  Te226  1  0.40793923  0.41276540  0.08380960  1
  Te2-  Te227  1  0.41503219  0.41124881  0.41728995  1
  Te2-  Te228  1  0.41721111  0.41410498  0.74727083  1
  Te2-  Te229  1  0.41677019  0.74511980  0.07810496  1
  Te2-  Te230  1  0.41736177  0.74477570  0.41508826  1
  Te2-  Te231  1  0.41474740  0.75084330  0.74485135  1
  Te2-  Te232  1  0.74387782  0.08003678  0.07728623  1
  Te2-  Te233  1  0.74795930  0.08069832  0.41243724  1
  Te2-  Te234  1  0.74338374  0.08662393  0.74931158  1
  Te2-  Te235  1  0.74996532  0.41387605  0.08034074  1
  Te2-  Te236  1  0.74257062  0.41685728  0.41532763  1
  Te2-  Te237  1  0.75140442  0.41851401  0.74405486  1
  Te2-  Te238  1  0.75025633  0.74526276  0.08207983  1
  Te2-  Te239  1  0.74676161  0.74745476  0.41368877  1
  Te2-  Te240  1  0.74744045  0.75020651  0.75091259  1
