# generated using pymatgen
data_Ti27(Cu53Te54)2
_symmetry_space_group_name_H-M   'P 1'
_cell_length_a   17.87954161
_cell_length_b   17.88218552
_cell_length_c   17.88559141
_cell_angle_alpha   90.04378480
_cell_angle_beta   89.97470751
_cell_angle_gamma   90.01096439
_symmetry_Int_Tables_number   1
_chemical_formula_structural   Ti27(Cu53Te54)2
_chemical_formula_sum   'Ti27 Cu106 Te108'
_cell_volume   5718.47339220
_cell_formula_units_Z   1
loop_
 _symmetry_equiv_pos_site_id
 _symmetry_equiv_pos_as_xyz
  1  'x, y, z'
loop_
 _atom_type_symbol
 _atom_type_oxidation_number
  Ti4+  4.0
  Cu+  1.0
  Te2-  -2.0
loop_
 _atom_site_type_symbol
 _atom_site_label
 _atom_site_symmetry_multiplicity
 _atom_site_fract_x
 _atom_site_fract_y
 _atom_site_fract_z
 _atom_site_occupancy
  Ti4+  Ti0  1  0.16592389  0.16804040  0.16634412  1
  Ti4+  Ti1  1  0.16362801  0.16215085  0.49944908  1
  Ti4+  Ti2  1  0.17211075  0.16749856  0.83177962  1
  Ti4+  Ti3  1  0.16675702  0.50135055  0.17118436  1
  Ti4+  Ti4  1  0.16283560  0.49953333  0.50148932  1
  Ti4+  Ti5  1  0.16760535  0.49934290  0.83915563  1
  Ti4+  Ti6  1  0.16751849  0.83453337  0.16374554  1
  Ti4+  Ti7  1  0.16553354  0.83203223  0.49893250  1
  Ti4+  Ti8  1  0.16644111  0.83405165  0.83442870  1
  Ti4+  Ti9  1  0.49859027  0.16864656  0.16839936  1
  Ti4+  Ti10  1  0.49867355  0.16494590  0.49982055  1
  Ti4+  Ti11  1  0.50398356  0.16854368  0.83530006  1
  Ti4+  Ti12  1  0.49878690  0.50022014  0.16665755  1
  Ti4+  Ti13  1  0.49850006  0.49830872  0.49761011  1
  Ti4+  Ti14  1  0.49941021  0.49992889  0.83052209  1
  Ti4+  Ti15  1  0.49971590  0.83597044  0.16742047  1
  Ti4+  Ti16  1  0.50036474  0.83228078  0.49746290  1
  Ti4+  Ti17  1  0.50605105  0.83369818  0.83380657  1
  Ti4+  Ti18  1  0.83395023  0.16792503  0.16530900  1
  Ti4+  Ti19  1  0.83106555  0.16578691  0.49872397  1
  Ti4+  Ti20  1  0.83769055  0.16600533  0.83291421  1
  Ti4+  Ti21  1  0.83301485  0.49974599  0.16638778  1
  Ti4+  Ti22  1  0.83390891  0.50032218  0.49880993  1
  Ti4+  Ti23  1  0.83386069  0.50001860  0.83148838  1
  Ti4+  Ti24  1  0.83068115  0.83314526  0.16667549  1
  Ti4+  Ti25  1  0.83343803  0.83507544  0.50338297  1
  Ti4+  Ti26  1  0.83113814  0.82825019  0.83529765  1
  Cu+  Cu27  1  0.17173816  0.16411882  0.00001957  1
  Cu+  Cu28  1  0.16053376  0.16712956  0.33507290  1
  Cu+  Cu29  1  0.17327774  0.17031030  0.66055830  1
  Cu+  Cu30  1  0.16988760  0.50243655  0.00801547  1
  Cu+  Cu31  1  0.16281691  0.50113601  0.33778846  1
  Cu+  Cu32  1  0.16320578  0.49997498  0.67407088  1
  Cu+  Cu33  1  0.16507356  0.83169321  -0.00246401  1
  Cu+  Cu34  1  0.16447579  0.83120660  0.32736466  1
  Cu+  Cu35  1  0.16908973  0.83377596  0.66559709  1
  Cu+  Cu36  1  0.50399996  0.16857154  0.00341045  1
  Cu+  Cu37  1  0.49720288  0.16764803  0.33508920  1
  Cu+  Cu38  1  0.50021201  0.16600464  0.67083730  1
  Cu+  Cu39  1  0.49781708  0.50018425  -0.00521192  1
  Cu+  Cu40  1  0.49610704  0.49654714  0.33163721  1
  Cu+  Cu41  1  0.49923871  0.49930245  0.65824257  1
  Cu+  Cu42  1  0.50862114  0.83449054  0.00332332  1
  Cu+  Cu43  1  0.49525992  0.83721817  0.33338073  1
  Cu+  Cu44  1  0.50792255  0.83419111  0.66168890  1
  Cu+  Cu45  1  0.83600105  0.16671680  0.00112470  1
  Cu+  Cu46  1  0.83092156  0.16316783  0.32844556  1
  Cu+  Cu47  1  0.83466302  0.16771802  0.66562529  1
  Cu+  Cu48  1  0.83679762  0.49727672  0.00124799  1
  Cu+  Cu49  1  0.83263752  0.50022341  0.33115206  1
  Cu+  Cu50  1  0.83575841  0.50449711  0.66253055  1
  Cu+  Cu51  1  0.83171835  0.83006024  -0.00218717  1
  Cu+  Cu52  1  0.83215908  0.83525008  0.33700924  1
  Cu+  Cu53  1  0.82962938  0.83505669  0.67177680  1
  Cu+  Cu54  1  0.17103947  0.00174654  0.16071894  1
  Cu+  Cu55  1  0.16473997  -0.00241711  0.49791038  1
  Cu+  Cu56  1  0.16535412  0.00417412  0.83436910  1
  Cu+  Cu57  1  0.16698840  0.33449816  0.16988164  1
  Cu+  Cu58  1  0.16023863  0.32783633  0.49949810  1
  Cu+  Cu59  1  0.17599565  0.33600980  0.83388458  1
  Cu+  Cu60  1  0.16456080  0.66955293  0.17051815  1
  Cu+  Cu61  1  0.16384990  0.66710689  0.49768944  1
  Cu+  Cu62  1  0.16448458  0.66682955  0.83791328  1
  Cu+  Cu63  1  0.49821930  0.00283106  0.16909561  1
  Cu+  Cu64  1  0.49775187  -0.00216099  0.49942512  1
  Cu+  Cu65  1  0.50779967  0.00213490  0.84045755  1
  Cu+  Cu66  1  0.49564234  0.33432501  0.17007663  1
  Cu+  Cu67  1  0.49918461  0.33286699  0.49876148  1
  Cu+  Cu68  1  0.49776868  0.33420657  0.83354383  1
  Cu+  Cu69  1  0.50053873  0.66777804  0.16600976  1
  Cu+  Cu70  1  0.49936965  0.66272760  0.49615972  1
  Cu+  Cu71  1  0.50241545  0.66722470  0.82698135  1
  Cu+  Cu72  1  0.82937646  0.00373824  0.16775487  1
  Cu+  Cu73  1  0.83019850  -0.00033317  0.49706917  1
  Cu+  Cu74  1  0.83777524  -0.00461658  0.83527752  1
  Cu+  Cu75  1  0.83445400  0.33395611  0.16529589  1
  Cu+  Cu76  1  0.83311949  0.33496854  0.50025498  1
  Cu+  Cu77  1  0.83695702  0.33228855  0.82936527  1
  Cu+  Cu78  1  0.83411789  0.66262703  0.16724839  1
  Cu+  Cu79  1  0.83710162  0.66875920  0.50515350  1
  Cu+  Cu80  1  0.82472210  0.66285850  0.83299844  1
  Cu+  Cu81  1  -0.00224420  0.16895102  0.16597522  1
  Cu+  Cu82  1  -0.00266942  0.16449365  0.49540657  1
  Cu+  Cu83  1  0.00612276  0.16433939  0.83377310  1
  Cu+  Cu84  1  -0.00229334  0.49993089  0.16798053  1
  Cu+  Cu85  1  -0.00239159  0.50518753  0.50094998  1
  Cu+  Cu86  1  0.00321762  0.50390033  0.83412286  1
  Cu+  Cu87  1  -0.00090655  0.83392396  0.16617360  1
  Cu+  Cu88  1  -0.00150191  0.83270791  0.50215116  1
  Cu+  Cu89  1  -0.00018117  0.82686946  0.84148906  1
  Cu+  Cu90  1  0.32955780  0.16510913  0.16517799  1
  Cu+  Cu91  1  0.33005562  0.16178554  0.50261062  1
  Cu+  Cu92  1  0.34102615  0.17079312  0.83126691  1
  Cu+  Cu93  1  0.33306825  0.49835573  0.17195407  1
  Cu+  Cu94  1  0.33237157  0.49746061  0.50095317  1
  Cu+  Cu95  1  0.33428109  0.49419622  0.83755377  1
  Cu+  Cu96  1  0.33401592  0.83663890  0.16358702  1
  Cu+  Cu97  1  0.33228519  0.83155018  0.49541466  1
  Cu+  Cu98  1  0.33615937  0.83695996  0.83237144  1
  Cu+  Cu99  1  0.66633616  0.16752717  0.16787328  1
  Cu+  Cu100  1  0.66407849  0.16607137  0.50102859  1
  Cu+  Cu101  1  0.67280699  0.16890999  0.83122179  1
  Cu+  Cu102  1  0.66798469  0.50018582  0.16451042  1
  Cu+  Cu103  1  0.66381687  0.49767210  0.49614965  1
  Cu+  Cu104  1  0.66832775  0.50116095  0.82742713  1
  Cu+  Cu105  1  0.66217423  0.83071604  0.16531595  1
  Cu+  Cu106  1  0.66799934  0.83791891  0.50252536  1
  Cu+  Cu107  1  0.66635070  0.82856565  0.83301408  1
  Cu+  Cu108  1  0.73524706  0.07613384  0.25637122  1
  Cu+  Cu109  1  0.06908016  0.74444167  0.25839456  1
  Cu+  Cu110  1  0.07383278  0.73545439  0.92971811  1
  Cu+  Cu111  1  0.73923169  0.73284390  0.92958421  1
  Cu+  Cu112  1  0.59138639  0.93439992  0.93596187  1
  Cu+  Cu113  1  0.07776409  0.59627364  0.74620593  1
  Cu+  Cu114  1  0.74117563  0.92822721  0.75069720  1
  Cu+  Cu115  1  0.40398996  0.40407658  0.26403605  1
  Cu+  Cu116  1  0.07659050  0.08053126  0.92901527  1
  Cu+  Cu117  1  0.92606999  0.92179175  0.92824928  1
  Cu+  Cu118  1  0.92797219  0.59750194  0.59404694  1
  Cu+  Cu119  1  0.73822892  0.58824379  0.73199684  1
  Cu+  Cu120  1  0.07089541  0.59444624  0.40708414  1
  Cu+  Cu121  1  0.25982156  0.41618139  0.73904200  1
  Cu+  Cu122  1  0.26484139  0.07276903  0.06960384  1
  Cu+  Cu123  1  0.41369187  0.26068779  0.73845045  1
  Cu+  Cu124  1  0.74054096  0.92453163  0.40590955  1
  Cu+  Cu125  1  0.40793608  0.40398718  0.92982409  1
  Cu+  Cu126  1  0.06691315  0.25709854  0.40549042  1
  Cu+  Cu127  1  0.26068884  0.26152289  0.57887474  1
  Cu+  Cu128  1  0.58873651  0.73699212  0.73097700  1
  Cu+  Cu129  1  0.74591380  0.26091000  0.73805287  1
  Cu+  Cu130  1  0.40092727  0.92667468  0.40680769  1
  Cu+  Cu131  1  0.59045576  0.73495741  0.07779828  1
  Cu+  Cu132  1  0.59204636  0.93127761  0.58905788  1
  Te2-  Te133  1  0.25111550  0.25515817  0.08173554  1
  Te2-  Te134  1  0.25186631  0.24981715  0.41491907  1
  Te2-  Te135  1  0.25920248  0.25632657  0.74306213  1
  Te2-  Te136  1  0.25334394  0.58769368  0.08848981  1
  Te2-  Te137  1  0.25117120  0.58348879  0.41766869  1
  Te2-  Te138  1  0.25390130  0.58564414  0.75328425  1
  Te2-  Te139  1  0.25445699  0.91844261  0.07441097  1
  Te2-  Te140  1  0.24851289  0.91784239  0.40990268  1
  Te2-  Te141  1  0.25091108  0.92015718  0.74984496  1
  Te2-  Te142  1  0.58491048  0.25513088  0.08601629  1
  Te2-  Te143  1  0.58371868  0.25084012  0.41539403  1
  Te2-  Te144  1  0.58882339  0.25524797  0.74727160  1
  Te2-  Te145  1  0.58528173  0.58323616  0.07790485  1
  Te2-  Te146  1  0.58358824  0.58217307  0.41021936  1
  Te2-  Te147  1  0.58531380  0.58406539  0.73924011  1
  Te2-  Te148  1  0.58866254  0.92690446  0.08551256  1
  Te2-  Te149  1  0.58700720  0.92097120  0.41116596  1
  Te2-  Te150  1  0.58981459  0.92459349  0.74559153  1
  Te2-  Te151  1  0.91993876  0.25420328  0.07962596  1
  Te2-  Te152  1  0.91388441  0.25190439  0.41102005  1
  Te2-  Te153  1  0.92498183  0.24930511  0.74745870  1
  Te2-  Te154  1  0.92008559  0.58517655  0.08063611  1
  Te2-  Te155  1  0.91672709  0.58942677  0.41089177  1
  Te2-  Te156  1  0.92178017  0.59115154  0.74810338  1
  Te2-  Te157  1  0.91543838  0.91937585  0.08194002  1
  Te2-  Te158  1  0.91999617  0.91897905  0.41644725  1
  Te2-  Te159  1  0.92287119  0.91228147  0.75151290  1
  Te2-  Te160  1  0.24856696  0.08262079  0.25465033  1
  Te2-  Te161  1  0.25058129  0.07428760  0.58494722  1
  Te2-  Te162  1  0.26055128  0.08102986  0.91535043  1
  Te2-  Te163  1  0.24981544  0.41366710  0.25879350  1
  Te2-  Te164  1  0.24994635  0.41309984  0.58667451  1
  Te2-  Te165  1  0.25333588  0.41347137  0.92895220  1
  Te2-  Te166  1  0.25563712  0.75018256  0.24904437  1
  Te2-  Te167  1  0.25176681  0.74702865  0.58284231  1
  Te2-  Te168  1  0.25557055  0.74937841  0.91680588  1
  Te2-  Te169  1  0.58303867  0.08189064  0.25523039  1
  Te2-  Te170  1  0.58470025  0.08165369  0.58779820  1
  Te2-  Te171  1  0.59355619  0.08705683  0.92294902  1
  Te2-  Te172  1  0.58616478  0.41525175  0.25047241  1
  Te2-  Te173  1  0.58564408  0.41235164  0.58267286  1
  Te2-  Te174  1  0.58760537  0.41615268  0.91437585  1
  Te2-  Te175  1  0.58245615  0.74953004  0.25559563  1
  Te2-  Te176  1  0.58858729  0.74220770  0.57928063  1
  Te2-  Te177  1  0.58763644  0.74001221  0.92180967  1
  Te2-  Te178  1  0.92091130  0.08030986  0.25056673  1
  Te2-  Te179  1  0.91664962  0.08048298  0.58262977  1
  Te2-  Te180  1  0.92208088  0.07887536  0.92219666  1
  Te2-  Te181  1  0.91821620  0.41399236  0.25265945  1
  Te2-  Te182  1  0.91984831  0.41449042  0.58511008  1
  Te2-  Te183  1  0.92019893  0.41547385  0.91506250  1
  Te2-  Te184  1  0.91500628  0.74852102  0.25352153  1
  Te2-  Te185  1  0.91997029  0.75132498  0.59233994  1
  Te2-  Te186  1  0.91640613  0.73778826  0.92159716  1
  Te2-  Te187  1  0.07785318  0.25448464  0.25191332  1
  Te2-  Te188  1  0.07560150  0.24786716  0.58622992  1
  Te2-  Te189  1  0.08806321  0.25285989  0.91787896  1
  Te2-  Te190  1  0.07574335  0.58774875  0.25464416  1
  Te2-  Te191  1  0.08086827  0.58957226  0.59139269  1
  Te2-  Te192  1  0.08064022  0.58420608  0.92792920  1
  Te2-  Te193  1  0.08242268  0.92251285  0.24735592  1
  Te2-  Te194  1  0.08155325  0.91726049  0.58523726  1
  Te2-  Te195  1  0.07957248  0.92334979  0.92236369  1
  Te2-  Te196  1  0.40854065  0.25045939  0.25423461  1
  Te2-  Te197  1  0.41347515  0.25317674  0.58597179  1
  Te2-  Te198  1  0.41607993  0.25237120  0.92456995  1
  Te2-  Te199  1  0.41518055  0.58827001  0.25179731  1
  Te2-  Te200  1  0.41244084  0.58580625  0.58269061  1
  Te2-  Te201  1  0.41514197  0.58912141  0.91351509  1
  Te2-  Te202  1  0.41064056  0.92303819  0.25140505  1
  Te2-  Te203  1  0.41317286  0.91496595  0.58576095  1
  Te2-  Te204  1  0.42008040  0.91719344  0.92055808  1
  Te2-  Te205  1  0.74819500  0.25460521  0.25114538  1
  Te2-  Te206  1  0.74627041  0.25316886  0.58447515  1
  Te2-  Te207  1  0.75329419  0.25285427  0.91866394  1
  Te2-  Te208  1  0.74614200  0.58541195  0.25214463  1
  Te2-  Te209  1  0.74285452  0.58659517  0.58100061  1
  Te2-  Te210  1  0.74560340  0.57944871  0.92320010  1
  Te2-  Te211  1  0.74295396  0.91851103  0.25212022  1
  Te2-  Te212  1  0.74689047  0.92484396  0.59198612  1
  Te2-  Te213  1  0.74415427  0.91966543  0.92055052  1
  Te2-  Te214  1  0.07811534  0.08160256  0.08118654  1
  Te2-  Te215  1  0.07809362  0.07611191  0.41266268  1
  Te2-  Te216  1  0.08733421  0.08517988  0.74275153  1
  Te2-  Te217  1  0.08239212  0.41621851  0.08511383  1
  Te2-  Te218  1  0.07589930  0.41307752  0.41614400  1
  Te2-  Te219  1  0.08076407  0.41101919  0.75395869  1
  Te2-  Te220  1  0.07860496  0.74645982  0.08014332  1
  Te2-  Te221  1  0.07517908  0.74776131  0.41212832  1
  Te2-  Te222  1  0.08054005  0.74923661  0.74659318  1
  Te2-  Te223  1  0.41592316  0.08124724  0.07974702  1
  Te2-  Te224  1  0.41094150  0.08030688  0.41398852  1
  Te2-  Te225  1  0.41991480  0.07713900  0.75294187  1
  Te2-  Te226  1  0.41207330  0.41452474  0.08054289  1
  Te2-  Te227  1  0.40990935  0.41020185  0.41503406  1
  Te2-  Te228  1  0.41371133  0.41419436  0.74004548  1
  Te2-  Te229  1  0.41604213  0.75071341  0.07940578  1
  Te2-  Te230  1  0.41508165  0.74546603  0.41238396  1
  Te2-  Te231  1  0.41810109  0.75353737  0.74522721  1
  Te2-  Te232  1  0.74623750  0.08319390  0.07865332  1
  Te2-  Te233  1  0.74186402  0.08010492  0.41220899  1
  Te2-  Te234  1  0.75144562  0.07893829  0.74757587  1
  Te2-  Te235  1  0.74839915  0.41356928  0.08005298  1
  Te2-  Te236  1  0.74893505  0.41495350  0.41345620  1
  Te2-  Te237  1  0.75037764  0.41430848  0.74225667  1
  Te2-  Te238  1  0.74609180  0.74288568  0.08203696  1
  Te2-  Te239  1  0.74873262  0.74773053  0.41919595  1
  Te2-  Te240  1  0.74347622  0.74189732  0.74114405  1
