# generated using pymatgen
data_Ti27(Cu53Te54)2
_symmetry_space_group_name_H-M   'P 1'
_cell_length_a   17.87012303
_cell_length_b   17.86886467
_cell_length_c   17.86985942
_cell_angle_alpha   89.99908483
_cell_angle_beta   89.99675465
_cell_angle_gamma   90.01578863
_symmetry_Int_Tables_number   1
_chemical_formula_structural   Ti27(Cu53Te54)2
_chemical_formula_sum   'Ti27 Cu106 Te108'
_cell_volume   5706.18201822
_cell_formula_units_Z   1
loop_
 _symmetry_equiv_pos_site_id
 _symmetry_equiv_pos_as_xyz
  1  'x, y, z'
loop_
 _atom_type_symbol
 _atom_type_oxidation_number
  Ti4+  4.0
  Cu+  1.0
  Te2-  -2.0
loop_
 _atom_site_type_symbol
 _atom_site_label
 _atom_site_symmetry_multiplicity
 _atom_site_fract_x
 _atom_site_fract_y
 _atom_site_fract_z
 _atom_site_occupancy
  Ti4+  Ti0  1  0.16666776  0.16779425  0.16566926  1
  Ti4+  Ti1  1  0.16756446  0.16657666  0.49996379  1
  Ti4+  Ti2  1  0.16518844  0.16690512  0.83322218  1
  Ti4+  Ti3  1  0.16474736  0.50080576  0.17027923  1
  Ti4+  Ti4  1  0.16741557  0.49937981  0.50241576  1
  Ti4+  Ti5  1  0.16676213  0.50102894  0.83389457  1
  Ti4+  Ti6  1  0.17047751  0.82803294  0.16579100  1
  Ti4+  Ti7  1  0.16450064  0.83432063  0.49600750  1
  Ti4+  Ti8  1  0.16707493  0.83362701  0.83134663  1
  Ti4+  Ti9  1  0.50087158  0.16933866  0.16341054  1
  Ti4+  Ti10  1  0.50310305  0.16812680  0.49961537  1
  Ti4+  Ti11  1  0.49843553  0.16662434  0.83405325  1
  Ti4+  Ti12  1  0.49980964  0.49607630  0.16909043  1
  Ti4+  Ti13  1  0.50165258  0.49785173  0.49978056  1
  Ti4+  Ti14  1  0.49993015  0.50171048  0.83412868  1
  Ti4+  Ti15  1  0.49976480  0.83524685  0.17116473  1
  Ti4+  Ti16  1  0.49984866  0.83177613  0.49546239  1
  Ti4+  Ti17  1  0.49822012  0.83354698  0.83271717  1
  Ti4+  Ti18  1  0.83324965  0.16452973  0.16773589  1
  Ti4+  Ti19  1  0.83411362  0.16800174  0.50383184  1
  Ti4+  Ti20  1  0.83047673  0.16086110  0.83350340  1
  Ti4+  Ti21  1  0.83313453  0.50012939  0.16267274  1
  Ti4+  Ti22  1  0.83343905  0.49972389  0.50001724  1
  Ti4+  Ti23  1  0.83429595  0.50120684  0.83130410  1
  Ti4+  Ti24  1  0.83412973  0.83518015  0.16769365  1
  Ti4+  Ti25  1  0.83334965  0.83489488  0.50207706  1
  Ti4+  Ti26  1  0.83394122  0.83679682  0.83465267  1
  Cu+  Cu27  1  0.16500715  0.16709540  -0.00135550  1
  Cu+  Cu28  1  0.16731397  0.16902476  0.33208419  1
  Cu+  Cu29  1  0.16894465  0.16437408  0.66731556  1
  Cu+  Cu30  1  0.16625546  0.50322580  0.00183314  1
  Cu+  Cu31  1  0.16308741  0.50381227  0.33980585  1
  Cu+  Cu32  1  0.16815726  0.50055822  0.66784292  1
  Cu+  Cu33  1  0.16881995  0.83194756  -0.00250079  1
  Cu+  Cu34  1  0.17256647  0.82547166  0.33116402  1
  Cu+  Cu35  1  0.16480923  0.83397037  0.66414429  1
  Cu+  Cu36  1  0.49452360  0.17074752  0.00015751  1
  Cu+  Cu37  1  0.50502925  0.16930413  0.32828122  1
  Cu+  Cu38  1  0.50332301  0.16942655  0.66673972  1
  Cu+  Cu39  1  0.50101517  0.49945710  -0.00038339  1
  Cu+  Cu40  1  0.49936457  0.48949449  0.33622058  1
  Cu+  Cu41  1  0.49959557  0.50203421  0.66936546  1
  Cu+  Cu42  1  0.49836008  0.83445416  -0.00014206  1
  Cu+  Cu43  1  0.50075613  0.83277970  0.33360229  1
  Cu+  Cu44  1  0.49725358  0.83194720  0.66321937  1
  Cu+  Cu45  1  0.82880552  0.16057098  -0.00043103  1
  Cu+  Cu46  1  0.83648109  0.16268754  0.33890809  1
  Cu+  Cu47  1  0.82643113  0.16099830  0.66584711  1
  Cu+  Cu48  1  0.83463824  0.50137336  -0.00608184  1
  Cu+  Cu49  1  0.83357763  0.50018962  0.32731293  1
  Cu+  Cu50  1  0.83254678  0.50093160  0.66509598  1
  Cu+  Cu51  1  0.83652244  0.83867407  0.00224946  1
  Cu+  Cu52  1  0.83263226  0.83369479  0.33422926  1
  Cu+  Cu53  1  0.83833970  0.83835883  0.66922806  1
  Cu+  Cu54  1  0.17094832  0.00144581  0.16467486  1
  Cu+  Cu55  1  0.16496800  0.00295893  0.50059171  1
  Cu+  Cu56  1  0.16868301  0.00175673  0.82924984  1
  Cu+  Cu57  1  0.16709406  0.33447933  0.16867456  1
  Cu+  Cu58  1  0.16835604  0.33277975  0.50314483  1
  Cu+  Cu59  1  0.16502219  0.33418314  0.83612182  1
  Cu+  Cu60  1  0.15897501  0.66289755  0.16635775  1
  Cu+  Cu61  1  0.16448326  0.66542158  0.49476234  1
  Cu+  Cu62  1  0.16626161  0.66729145  0.83277145  1
  Cu+  Cu63  1  0.50053345  -0.00190299  0.16681517  1
  Cu+  Cu64  1  0.49816944  0.00001740  0.49605823  1
  Cu+  Cu65  1  0.49933906  0.00086304  0.83322479  1
  Cu+  Cu66  1  0.50007713  0.33397606  0.16571521  1
  Cu+  Cu67  1  0.50807519  0.33317652  0.50028068  1
  Cu+  Cu68  1  0.49919184  0.33442408  0.83386344  1
  Cu+  Cu69  1  0.49775436  0.66559941  0.17200915  1
  Cu+  Cu70  1  0.50478881  0.66409527  0.49613498  1
  Cu+  Cu71  1  0.49920115  0.66777760  0.83425553  1
  Cu+  Cu72  1  0.83509802  -0.00026092  0.16830904  1
  Cu+  Cu73  1  0.83732273  0.00283299  0.50499991  1
  Cu+  Cu74  1  0.82710508  -0.00266324  0.83800954  1
  Cu+  Cu75  1  0.83144406  0.33165892  0.16397966  1
  Cu+  Cu76  1  0.83394057  0.33426624  0.50095731  1
  Cu+  Cu77  1  0.83397630  0.33363160  0.83090720  1
  Cu+  Cu78  1  0.83227849  0.66826273  0.16480353  1
  Cu+  Cu79  1  0.83219744  0.66508308  0.50192091  1
  Cu+  Cu80  1  0.83629392  0.66929987  0.83018217  1
  Cu+  Cu81  1  0.00093692  0.16487019  0.16756879  1
  Cu+  Cu82  1  0.00207291  0.16574146  0.49793676  1
  Cu+  Cu83  1  -0.00104645  0.16592185  0.83310071  1
  Cu+  Cu84  1  -0.00221551  0.50343530  0.16335518  1
  Cu+  Cu85  1  -0.00062479  0.50086330  0.50045396  1
  Cu+  Cu86  1  0.00021697  0.50012257  0.83231883  1
  Cu+  Cu87  1  0.00223049  0.82819902  0.16600337  1
  Cu+  Cu88  1  -0.00374993  0.83769104  0.50425185  1
  Cu+  Cu89  1  -0.00035843  0.83416517  0.83300725  1
  Cu+  Cu90  1  0.33386186  0.16915507  0.16025459  1
  Cu+  Cu91  1  0.33544366  0.16831568  0.49915765  1
  Cu+  Cu92  1  0.32961965  0.16429029  0.83027426  1
  Cu+  Cu93  1  0.33159802  0.49578479  0.17411161  1
  Cu+  Cu94  1  0.33550724  0.49935539  0.50476684  1
  Cu+  Cu95  1  0.33335605  0.50092678  0.83534724  1
  Cu+  Cu96  1  0.33448296  0.83642360  0.17312311  1
  Cu+  Cu97  1  0.33098394  0.83227252  0.49100241  1
  Cu+  Cu98  1  0.33325329  0.83342846  0.83185960  1
  Cu+  Cu99  1  0.67066857  0.17384119  0.16405154  1
  Cu+  Cu100  1  0.66660595  0.17108136  0.50944068  1
  Cu+  Cu101  1  0.66530015  0.16048061  0.83816541  1
  Cu+  Cu102  1  0.66634845  0.49733016  0.16181863  1
  Cu+  Cu103  1  0.66859031  0.49663384  0.49758452  1
  Cu+  Cu104  1  0.66861513  0.50237502  0.83246462  1
  Cu+  Cu105  1  0.66827892  0.83648595  0.17079981  1
  Cu+  Cu106  1  0.66423521  0.83010910  0.49625292  1
  Cu+  Cu107  1  0.66294119  0.83605159  0.83249458  1
  Cu+  Cu108  1  0.59779507  0.92941238  0.26073541  1
  Cu+  Cu109  1  0.59819860  0.73497056  0.40535767  1
  Cu+  Cu110  1  0.40838584  0.73688633  0.25843836  1
  Cu+  Cu111  1  0.59290098  0.41021627  0.06718541  1
  Cu+  Cu112  1  0.74974492  0.26134322  0.06638189  1
  Cu+  Cu113  1  0.06960575  0.74183747  0.25967475  1
  Cu+  Cu114  1  0.93010630  0.93231731  0.59768992  1
  Cu+  Cu115  1  0.59374654  0.26569679  0.60151456  1
  Cu+  Cu116  1  0.06632599  0.59291002  0.41389337  1
  Cu+  Cu117  1  0.73384489  0.92018164  0.73884663  1
  Cu+  Cu118  1  0.93060965  0.07279669  0.40826899  1
  Cu+  Cu119  1  0.40234886  0.93432082  0.41320105  1
  Cu+  Cu120  1  0.60080291  0.40378234  0.40936183  1
  Cu+  Cu121  1  0.93309872  0.92510176  0.93175192  1
  Cu+  Cu122  1  0.40665199  0.92252911  0.06966311  1
  Cu+  Cu123  1  0.39973604  0.40264192  0.26674130  1
  Cu+  Cu124  1  0.59841654  0.26004085  0.25563315  1
  Cu+  Cu125  1  0.06933802  0.58976727  0.06769289  1
  Cu+  Cu126  1  0.40160368  0.26459553  0.06959192  1
  Cu+  Cu127  1  0.26022552  0.07115151  0.73644216  1
  Cu+  Cu128  1  0.92852664  0.73933050  0.74090318  1
  Cu+  Cu129  1  0.73315660  0.06859680  0.93319406  1
  Cu+  Cu130  1  0.73471115  0.07014204  0.58679181  1
  Cu+  Cu131  1  0.26012367  0.73246475  0.40856353  1
  Cu+  Cu132  1  0.25291620  0.93203991  0.25857004  1
  Te2-  Te133  1  0.24940925  0.25612236  0.07766933  1
  Te2-  Te134  1  0.25269142  0.25304654  0.41490027  1
  Te2-  Te135  1  0.25020630  0.25500323  0.74846354  1
  Te2-  Te136  1  0.25430228  0.58402748  0.08683594  1
  Te2-  Te137  1  0.25850870  0.58258979  0.41457047  1
  Te2-  Te138  1  0.25276298  0.58653531  0.74870115  1
  Te2-  Te139  1  0.25410580  0.91751633  0.07841653  1
  Te2-  Te140  1  0.24981039  0.92597550  0.41074229  1
  Te2-  Te141  1  0.25407018  0.91739590  0.74337907  1
  Te2-  Te142  1  0.58890797  0.25591554  0.07412651  1
  Te2-  Te143  1  0.59396868  0.25134956  0.41124820  1
  Te2-  Te144  1  0.58909644  0.25237731  0.75280740  1
  Te2-  Te145  1  0.58156087  0.58696138  0.08425491  1
  Te2-  Te146  1  0.58810976  0.58139635  0.40932964  1
  Te2-  Te147  1  0.58563490  0.58744209  0.74896660  1
  Te2-  Te148  1  0.58645123  0.91713609  0.08163761  1
  Te2-  Te149  1  0.58895641  0.92249299  0.41234423  1
  Te2-  Te150  1  0.58081963  0.92052806  0.74333601  1
  Te2-  Te151  1  0.91791688  0.24731085  0.07926361  1
  Te2-  Te152  1  0.91929534  0.25361277  0.41667242  1
  Te2-  Te153  1  0.91381114  0.24637151  0.74712173  1
  Te2-  Te154  1  0.91624825  0.58923215  0.07661545  1
  Te2-  Te155  1  0.91576939  0.58706886  0.41201702  1
  Te2-  Te156  1  0.92160264  0.58590916  0.74392924  1
  Te2-  Te157  1  0.92516926  0.92131213  0.08524080  1
  Te2-  Te158  1  0.91829386  0.91996683  0.41279850  1
  Te2-  Te159  1  0.92263137  0.92762692  0.75000040  1
  Te2-  Te160  1  0.25630304  0.08527461  0.25198338  1
  Te2-  Te161  1  0.25660632  0.07949613  0.58356628  1
  Te2-  Te162  1  0.25122838  0.08082521  0.92010772  1
  Te2-  Te163  1  0.24702246  0.41318261  0.26013067  1
  Te2-  Te164  1  0.25307288  0.41437272  0.58804567  1
  Te2-  Te165  1  0.25082874  0.41639250  0.92120569  1
  Te2-  Te166  1  0.25651778  0.73579664  0.25130530  1
  Te2-  Te167  1  0.24994876  0.74905768  0.58081214  1
  Te2-  Te168  1  0.25286216  0.74783392  0.91603003  1
  Te2-  Te169  1  0.58928440  0.08241894  0.24822056  1
  Te2-  Te170  1  0.58216312  0.07561372  0.58664142  1
  Te2-  Te171  1  0.58033566  0.07937503  0.92441537  1
  Te2-  Te172  1  0.59302917  0.41102606  0.25435451  1
  Te2-  Te173  1  0.58861370  0.41713923  0.59114956  1
  Te2-  Te174  1  0.58865392  0.41382171  0.91677473  1
  Te2-  Te175  1  0.58976980  0.74446474  0.25337538  1
  Te2-  Te176  1  0.58411433  0.74762350  0.58441628  1
  Te2-  Te177  1  0.58429833  0.74991340  0.91937861  1
  Te2-  Te178  1  0.92132586  0.07924239  0.25325601  1
  Te2-  Te179  1  0.92492655  0.08404659  0.59156045  1
  Te2-  Te180  1  0.91999395  0.07881504  0.92060266  1
  Te2-  Te181  1  0.91839375  0.41405136  0.24667777  1
  Te2-  Te182  1  0.91953267  0.41553704  0.58566716  1
  Te2-  Te183  1  0.91948639  0.41351520  0.91602097  1
  Te2-  Te184  1  0.91691395  0.74626405  0.25426102  1
  Te2-  Te185  1  0.91857559  0.74558707  0.58638348  1
  Te2-  Te186  1  0.91847818  0.74946544  0.92085488  1
  Te2-  Te187  1  0.08057220  0.25258770  0.25121062  1
  Te2-  Te188  1  0.08239999  0.24966426  0.58623024  1
  Te2-  Te189  1  0.07830727  0.25200066  0.91884895  1
  Te2-  Te190  1  0.07394848  0.58656797  0.25835388  1
  Te2-  Te191  1  0.08203641  0.58711367  0.58649017  1
  Te2-  Te192  1  0.07857106  0.58847848  0.91754082  1
  Te2-  Te193  1  0.08604612  0.91551203  0.25080380  1
  Te2-  Te194  1  0.08225649  0.92189928  0.58591049  1
  Te2-  Te195  1  0.08433082  0.92128245  0.91885383  1
  Te2-  Te196  1  0.41183348  0.25194499  0.25250857  1
  Te2-  Te197  1  0.41738127  0.25382711  0.58412041  1
  Te2-  Te198  1  0.40923582  0.25383431  0.91553197  1
  Te2-  Te199  1  0.41468812  0.58095401  0.25819885  1
  Te2-  Te200  1  0.41864475  0.58664242  0.58423013  1
  Te2-  Te201  1  0.41481249  0.58619967  0.92105857  1
  Te2-  Te202  1  0.41172185  0.92627372  0.25937691  1
  Te2-  Te203  1  0.41186560  0.91622618  0.58023173  1
  Te2-  Te204  1  0.41142172  0.92093544  0.91739203  1
  Te2-  Te205  1  0.75247415  0.25190261  0.25895650  1
  Te2-  Te206  1  0.74928799  0.25909291  0.59134540  1
  Te2-  Te207  1  0.74718480  0.25331597  0.91576146  1
  Te2-  Te208  1  0.74627653  0.58471386  0.24741130  1
  Te2-  Te209  1  0.74540679  0.58448543  0.58439315  1
  Te2-  Te210  1  0.74964952  0.58955542  0.91563788  1
  Te2-  Te211  1  0.75007210  0.92249445  0.25657352  1
  Te2-  Te212  1  0.74112156  0.91834936  0.58573390  1
  Te2-  Te213  1  0.74090015  0.91699929  0.92529337  1
  Te2-  Te214  1  0.08226563  0.08005660  0.08144747  1
  Te2-  Te215  1  0.08289348  0.08012662  0.41032740  1
  Te2-  Te216  1  0.07889753  0.08115784  0.74677093  1
  Te2-  Te217  1  0.08169120  0.41528421  0.08277482  1
  Te2-  Te218  1  0.08137282  0.41226171  0.41805746  1
  Te2-  Te219  1  0.08201942  0.41514338  0.74789290  1
  Te2-  Te220  1  0.08117669  0.74688128  0.07526170  1
  Te2-  Te221  1  0.07200083  0.74913104  0.41301559  1
  Te2-  Te222  1  0.08113028  0.74726820  0.74520231  1
  Te2-  Te223  1  0.41442357  0.07866915  0.08040192  1
  Te2-  Te224  1  0.41578480  0.08693944  0.40988188  1
  Te2-  Te225  1  0.41584740  0.08132058  0.74449339  1
  Te2-  Te226  1  0.41043205  0.41535719  0.07932736  1
  Te2-  Te227  1  0.41086353  0.40808737  0.41989052  1
  Te2-  Te228  1  0.41421416  0.41583080  0.74886350  1
  Te2-  Te229  1  0.41422267  0.74836151  0.08490831  1
  Te2-  Te230  1  0.41306000  0.73972557  0.41067589  1
  Te2-  Te231  1  0.41387336  0.74777120  0.74681036  1
  Te2-  Te232  1  0.74372744  0.07562787  0.08506018  1
  Te2-  Te233  1  0.74540866  0.08160650  0.42069279  1
  Te2-  Te234  1  0.74029226  0.07510481  0.74542452  1
  Te2-  Te235  1  0.74757236  0.41341038  0.07290721  1
  Te2-  Te236  1  0.75193957  0.41210899  0.41026228  1
  Te2-  Te237  1  0.74813464  0.41515035  0.74712675  1
  Te2-  Te238  1  0.74815911  0.75313142  0.08176971  1
  Te2-  Te239  1  0.75072101  0.74605816  0.41411694  1
  Te2-  Te240  1  0.74769552  0.75202344  0.74706558  1
