# generated using pymatgen
data_Ti27(Cu53Te54)2
_symmetry_space_group_name_H-M   'P 1'
_cell_length_a   17.93957043
_cell_length_b   17.95065435
_cell_length_c   17.95535123
_cell_angle_alpha   89.94913964
_cell_angle_beta   89.87546901
_cell_angle_gamma   89.95946218
_symmetry_Int_Tables_number   1
_chemical_formula_structural   Ti27(Cu53Te54)2
_chemical_formula_sum   'Ti27 Cu106 Te108'
_cell_volume   5782.09101617
_cell_formula_units_Z   1
loop_
 _symmetry_equiv_pos_site_id
 _symmetry_equiv_pos_as_xyz
  1  'x, y, z'
loop_
 _atom_type_symbol
 _atom_type_oxidation_number
  Ti4+  4.0
  Cu+  1.0
  Te2-  -2.0
loop_
 _atom_site_type_symbol
 _atom_site_label
 _atom_site_symmetry_multiplicity
 _atom_site_fract_x
 _atom_site_fract_y
 _atom_site_fract_z
 _atom_site_occupancy
  Ti4+  Ti0  1  0.16891413  0.16740446  0.16969127  1
  Ti4+  Ti1  1  0.16609917  0.16606011  0.50235529  1
  Ti4+  Ti2  1  0.16904476  0.16497904  0.83622481  1
  Ti4+  Ti3  1  0.16612996  0.50150152  0.16828211  1
  Ti4+  Ti4  1  0.16834905  0.49802949  0.50332052  1
  Ti4+  Ti5  1  0.16658893  0.49859997  0.83271036  1
  Ti4+  Ti6  1  0.16696013  0.83628507  0.16614280  1
  Ti4+  Ti7  1  0.16686718  0.83349475  0.49670196  1
  Ti4+  Ti8  1  0.16720612  0.83422357  0.83168706  1
  Ti4+  Ti9  1  0.50379496  0.16577146  0.16914847  1
  Ti4+  Ti10  1  0.50168468  0.16704822  0.50358943  1
  Ti4+  Ti11  1  0.49816467  0.16675339  0.83529458  1
  Ti4+  Ti12  1  0.50174939  0.50229443  0.16348459  1
  Ti4+  Ti13  1  0.49735820  0.50242272  0.49702013  1
  Ti4+  Ti14  1  0.49135814  0.50274511  0.83344704  1
  Ti4+  Ti15  1  0.50197929  0.83278756  0.16566255  1
  Ti4+  Ti16  1  0.50253619  0.83626822  0.49691334  1
  Ti4+  Ti17  1  0.49897116  0.83373341  0.83167369  1
  Ti4+  Ti18  1  0.83332485  0.16262144  0.16619192  1
  Ti4+  Ti19  1  0.83235241  0.16725859  0.50224849  1
  Ti4+  Ti20  1  0.83265393  0.16907258  0.83453507  1
  Ti4+  Ti21  1  0.83077030  0.49697864  0.16429945  1
  Ti4+  Ti22  1  0.83355404  0.50041825  0.49883869  1
  Ti4+  Ti23  1  0.83089330  0.49848441  0.83037574  1
  Ti4+  Ti24  1  0.83406403  0.82933537  0.16583994  1
  Ti4+  Ti25  1  0.83503972  0.83268254  0.50124765  1
  Ti4+  Ti26  1  0.83378301  0.83237558  0.83213809  1
  Cu+  Cu27  1  0.17121520  0.16732250  0.00513673  1
  Cu+  Cu28  1  0.16582723  0.16720298  0.33602739  1
  Cu+  Cu29  1  0.16573256  0.16398600  0.66945118  1
  Cu+  Cu30  1  0.16709933  0.50115549  -0.00055486  1
  Cu+  Cu31  1  0.16419554  0.50188983  0.33894733  1
  Cu+  Cu32  1  0.17080012  0.49343562  0.66933826  1
  Cu+  Cu33  1  0.16772742  0.83814629  -0.00122869  1
  Cu+  Cu34  1  0.16810928  0.83439594  0.32985429  1
  Cu+  Cu35  1  0.16585339  0.83141387  0.66326362  1
  Cu+  Cu36  1  0.50226620  0.16362530  0.00177120  1
  Cu+  Cu37  1  0.50474041  0.16495662  0.33961124  1
  Cu+  Cu38  1  0.49816910  0.16798137  0.66927460  1
  Cu+  Cu39  1  0.48989079  0.50514316  0.00186624  1
  Cu+  Cu40  1  0.50002232  0.49987240  0.32768740  1
  Cu+  Cu41  1  0.49016450  0.50392377  0.66496261  1
  Cu+  Cu42  1  0.50108646  0.82837166  -0.00133189  1
  Cu+  Cu43  1  0.50300346  0.83854300  0.33017195  1
  Cu+  Cu44  1  0.50251182  0.83689330  0.66305224  1
  Cu+  Cu45  1  0.83061463  0.16782167  0.00141241  1
  Cu+  Cu46  1  0.83352277  0.16530816  0.33349285  1
  Cu+  Cu47  1  0.83069219  0.16979423  0.66814114  1
  Cu+  Cu48  1  0.82864098  0.49637566  -0.00462165  1
  Cu+  Cu49  1  0.83513011  0.49666771  0.33130032  1
  Cu+  Cu50  1  0.83331030  0.50093155  0.66420953  1
  Cu+  Cu51  1  0.83384025  0.83070173  -0.00383580  1
  Cu+  Cu52  1  0.83605724  0.83235728  0.33441700  1
  Cu+  Cu53  1  0.83485837  0.83179280  0.66851397  1
  Cu+  Cu54  1  0.17151931  0.00180341  0.16992196  1
  Cu+  Cu55  1  0.16487317  0.00021995  0.49918948  1
  Cu+  Cu56  1  0.17331075  -0.00098761  0.83387106  1
  Cu+  Cu57  1  0.16631740  0.33495264  0.16800743  1
  Cu+  Cu58  1  0.16714609  0.33078703  0.50313227  1
  Cu+  Cu59  1  0.16819258  0.32917018  0.83307988  1
  Cu+  Cu60  1  0.16095821  0.67205187  0.16774583  1
  Cu+  Cu61  1  0.16741933  0.66388133  0.49828611  1
  Cu+  Cu62  1  0.16485380  0.66790619  0.83554740  1
  Cu+  Cu63  1  0.50699351  0.00063610  0.16612239  1
  Cu+  Cu64  1  0.50808934  0.00100286  0.50101416  1
  Cu+  Cu65  1  0.49841147  -0.00002426  0.83366576  1
  Cu+  Cu66  1  0.50122233  0.33460910  0.17155977  1
  Cu+  Cu67  1  0.49776544  0.33441505  0.50120830  1
  Cu+  Cu68  1  0.49595003  0.33360753  0.83691015  1
  Cu+  Cu69  1  0.50689691  0.66758291  0.16108030  1
  Cu+  Cu70  1  0.49968152  0.67105030  0.49417358  1
  Cu+  Cu71  1  0.49111796  0.66716225  0.82977945  1
  Cu+  Cu72  1  0.83641952  -0.00399619  0.16889567  1
  Cu+  Cu73  1  0.83407388  0.00050556  0.50142610  1
  Cu+  Cu74  1  0.83452477  0.00051063  0.83522336  1
  Cu+  Cu75  1  0.82934397  0.32937615  0.16301811  1
  Cu+  Cu76  1  0.83301261  0.33449636  0.49938984  1
  Cu+  Cu77  1  0.82773985  0.33315490  0.82898945  1
  Cu+  Cu78  1  0.83290809  0.66055520  0.16348977  1
  Cu+  Cu79  1  0.83622587  0.66594549  0.50328792  1
  Cu+  Cu80  1  0.83318202  0.66781392  0.83163888  1
  Cu+  Cu81  1  0.00294698  0.16450002  0.16880814  1
  Cu+  Cu82  1  -0.00232575  0.16640493  0.50271619  1
  Cu+  Cu83  1  0.00172387  0.16896261  0.83519043  1
  Cu+  Cu84  1  -0.00352947  0.49877602  0.16760884  1
  Cu+  Cu85  1  0.00082804  0.50414404  0.50265741  1
  Cu+  Cu86  1  -0.00132198  0.49639750  0.83261476  1
  Cu+  Cu87  1  -0.00058196  0.83305898  0.16968754  1
  Cu+  Cu88  1  0.00069844  0.83118162  0.49817012  1
  Cu+  Cu89  1  -0.00011216  0.83298205  0.83151205  1
  Cu+  Cu90  1  0.33702507  0.16766950  0.17032853  1
  Cu+  Cu91  1  0.33285403  0.16715575  0.50205847  1
  Cu+  Cu92  1  0.33160089  0.16485070  0.83717506  1
  Cu+  Cu93  1  0.33379233  0.49952516  0.16704961  1
  Cu+  Cu94  1  0.33644674  0.49465779  0.50347646  1
  Cu+  Cu95  1  0.32804394  0.50561335  0.82926076  1
  Cu+  Cu96  1  0.33220569  0.83671078  0.16830662  1
  Cu+  Cu97  1  0.33478717  0.83493158  0.49582444  1
  Cu+  Cu98  1  0.33281261  0.83677923  0.83476990  1
  Cu+  Cu99  1  0.66853498  0.16326267  0.16034386  1
  Cu+  Cu100  1  0.66689034  0.16479952  0.50151173  1
  Cu+  Cu101  1  0.66625803  0.17028713  0.83256937  1
  Cu+  Cu102  1  0.66824753  0.50793760  0.16148909  1
  Cu+  Cu103  1  0.66592623  0.50044496  0.49580975  1
  Cu+  Cu104  1  0.65999510  0.49848560  0.83327919  1
  Cu+  Cu105  1  0.66502822  0.82949820  0.16370436  1
  Cu+  Cu106  1  0.66882750  0.83549455  0.50252275  1
  Cu+  Cu107  1  0.66838342  0.83205663  0.83198599  1
  Cu+  Cu108  1  0.24993501  0.59699377  0.92800352  1
  Cu+  Cu109  1  0.07473764  0.59174931  0.41377497  1
  Cu+  Cu110  1  0.25870098  0.25995517  0.93367033  1
  Cu+  Cu111  1  0.41260073  0.40329200  0.59526204  1
  Cu+  Cu112  1  0.74800651  0.59321224  0.06484991  1
  Cu+  Cu113  1  0.92590199  0.92778673  0.26275390  1
  Cu+  Cu114  1  0.26205143  0.92698347  0.92772865  1
  Cu+  Cu115  1  0.92297666  0.58555104  0.25696760  1
  Cu+  Cu116  1  0.59785423  0.92787510  0.59709835  1
  Cu+  Cu117  1  0.59291769  0.59048469  0.26162173  1
  Cu+  Cu118  1  0.26287401  0.93051610  0.26180677  1
  Cu+  Cu119  1  0.25943991  0.07034700  0.73787398  1
  Cu+  Cu120  1  0.40218160  0.59891273  0.08501852  1
  Cu+  Cu121  1  0.59803910  0.07564175  0.41087674  1
  Cu+  Cu122  1  0.59605031  0.07290987  0.06809846  1
  Cu+  Cu123  1  0.59669089  0.92612795  0.25485038  1
  Cu+  Cu124  1  0.73476729  0.25999750  0.73639482  1
  Cu+  Cu125  1  0.40527678  0.40526275  0.25522398  1
  Cu+  Cu126  1  0.25842520  0.40251538  0.74400643  1
  Cu+  Cu127  1  0.07352280  0.74720747  0.26004996  1
  Cu+  Cu128  1  0.07362568  0.25558874  0.74055036  1
  Cu+  Cu129  1  0.59471374  0.74085317  0.06654971  1
  Cu+  Cu130  1  0.40280327  0.60062668  0.73295150  1
  Cu+  Cu131  1  0.92732214  0.59325397  0.59778176  1
  Cu+  Cu132  1  0.73917532  0.25896527  0.07343825  1
  Te2-  Te133  1  0.25649561  0.25499572  0.08631740  1
  Te2-  Te134  1  0.25163013  0.25112431  0.41689183  1
  Te2-  Te135  1  0.25628806  0.24967538  0.74574892  1
  Te2-  Te136  1  0.25014599  0.59052269  0.08263299  1
  Te2-  Te137  1  0.25576425  0.58130059  0.41777904  1
  Te2-  Te138  1  0.24814870  0.59096653  0.74375655  1
  Te2-  Te139  1  0.25506319  0.92226764  0.08031026  1
  Te2-  Te140  1  0.25244912  0.92134380  0.41305498  1
  Te2-  Te141  1  0.25366481  0.91726322  0.74189905  1
  Te2-  Te142  1  0.58413928  0.25517390  0.08132188  1
  Te2-  Te143  1  0.58670159  0.25447917  0.41898976  1
  Te2-  Te144  1  0.58139099  0.25521571  0.74914447  1
  Te2-  Te145  1  0.58884878  0.58765701  0.06954486  1
  Te2-  Te146  1  0.58519683  0.58730169  0.41255091  1
  Te2-  Te147  1  0.57884798  0.58401247  0.74761589  1
  Te2-  Te148  1  0.58785464  0.91773843  0.07584290  1
  Te2-  Te149  1  0.59368256  0.92123062  0.41006314  1
  Te2-  Te150  1  0.58683950  0.92005266  0.74958589  1
  Te2-  Te151  1  0.92038602  0.24827079  0.08315743  1
  Te2-  Te152  1  0.91713275  0.25074349  0.41581566  1
  Te2-  Te153  1  0.91997348  0.25374978  0.74747361  1
  Te2-  Te154  1  0.91747043  0.58060916  0.07574716  1
  Te2-  Te155  1  0.92035555  0.58827351  0.41078530  1
  Te2-  Te156  1  0.91973016  0.58514105  0.74865283  1
  Te2-  Te157  1  0.91803133  0.91386826  0.08016891  1
  Te2-  Te158  1  0.92084602  0.91996457  0.41576942  1
  Te2-  Te159  1  0.91869751  0.91953066  0.74834941  1
  Te2-  Te160  1  0.25578467  0.08370765  0.25732545  1
  Te2-  Te161  1  0.25278356  0.07849706  0.58562787  1
  Te2-  Te162  1  0.25521916  0.07858975  0.92561030  1
  Te2-  Te163  1  0.24993300  0.41672546  0.25507941  1
  Te2-  Te164  1  0.25567241  0.40777849  0.58807515  1
  Te2-  Te165  1  0.25354737  0.41316698  0.92013281  1
  Te2-  Te166  1  0.25329309  0.74755587  0.25032161  1
  Te2-  Te167  1  0.25233358  0.74916293  0.58033871  1
  Te2-  Te168  1  0.25254654  0.74900665  0.92041128  1
  Te2-  Te169  1  0.59256202  0.08041634  0.25601973  1
  Te2-  Te170  1  0.58827914  0.08260668  0.59288208  1
  Te2-  Te171  1  0.58741329  0.08044680  0.91626210  1
  Te2-  Te172  1  0.59119190  0.41851472  0.24819947  1
  Te2-  Te173  1  0.58162343  0.42003645  0.58497695  1
  Te2-  Te174  1  0.57602887  0.41913222  0.92017455  1
  Te2-  Te175  1  0.58737827  0.74593452  0.25421835  1
  Te2-  Te176  1  0.58474398  0.74783516  0.58240805  1
  Te2-  Te177  1  0.58475869  0.74421678  0.91280152  1
  Te2-  Te178  1  0.92057991  0.08006735  0.25418748  1
  Te2-  Te179  1  0.91633265  0.08263556  0.58831032  1
  Te2-  Te180  1  0.91815202  0.08445832  0.91932453  1
  Te2-  Te181  1  0.91581243  0.40892665  0.24855649  1
  Te2-  Te182  1  0.91899484  0.41482268  0.58396035  1
  Te2-  Te183  1  0.91445979  0.41275210  0.91512220  1
  Te2-  Te184  1  0.91865284  0.74110582  0.25329001  1
  Te2-  Te185  1  0.92227441  0.74787209  0.58759191  1
  Te2-  Te186  1  0.92004129  0.74647521  0.91658904  1
  Te2-  Te187  1  0.08229984  0.25206531  0.25309449  1
  Te2-  Te188  1  0.07930509  0.25168150  0.58785874  1
  Te2-  Te189  1  0.08426880  0.25105174  0.92323803  1
  Te2-  Te190  1  0.07746361  0.58743563  0.25511284  1
  Te2-  Te191  1  0.08490578  0.58531726  0.59167203  1
  Te2-  Te192  1  0.07907304  0.58334492  0.91714969  1
  Te2-  Te193  1  0.07962816  0.92273146  0.25362545  1
  Te2-  Te194  1  0.08138518  0.91655986  0.58267250  1
  Te2-  Te195  1  0.08094624  0.92004746  0.91563905  1
  Te2-  Te196  1  0.41842486  0.25017028  0.25758830  1
  Te2-  Te197  1  0.41259280  0.25157765  0.58812229  1
  Te2-  Te198  1  0.41400935  0.25098082  0.92373462  1
  Te2-  Te199  1  0.41574363  0.59105829  0.24834258  1
  Te2-  Te200  1  0.41114594  0.59323635  0.58002569  1
  Te2-  Te201  1  0.40529290  0.59128966  0.92192455  1
  Te2-  Te202  1  0.41628653  0.92222058  0.25035763  1
  Te2-  Te203  1  0.41560466  0.92063778  0.58120577  1
  Te2-  Te204  1  0.41665324  0.91905086  0.92168458  1
  Te2-  Te205  1  0.74710587  0.24764981  0.25119586  1
  Te2-  Te206  1  0.74498614  0.25541911  0.58474398  1
  Te2-  Te207  1  0.74467107  0.25480522  0.92079106  1
  Te2-  Te208  1  0.74764237  0.58590684  0.25504456  1
  Te2-  Te209  1  0.74566810  0.58441796  0.58297064  1
  Te2-  Te210  1  0.74440942  0.58605632  0.91325014  1
  Te2-  Te211  1  0.74787609  0.91466704  0.25134335  1
  Te2-  Te212  1  0.75105314  0.91961407  0.58838035  1
  Te2-  Te213  1  0.74834931  0.91738156  0.91796066  1
  Te2-  Te214  1  0.08543104  0.08132883  0.08404028  1
  Te2-  Te215  1  0.08012486  0.08336454  0.41702695  1
  Te2-  Te216  1  0.08165649  0.07867045  0.75293445  1
  Te2-  Te217  1  0.08227280  0.41754957  0.08304276  1
  Te2-  Te218  1  0.08133339  0.41322055  0.41981860  1
  Te2-  Te219  1  0.07968216  0.41112710  0.74806539  1
  Te2-  Te220  1  0.08086594  0.75283881  0.07840516  1
  Te2-  Te221  1  0.07919217  0.74552844  0.41138351  1
  Te2-  Te222  1  0.08263271  0.74826293  0.74790525  1
  Te2-  Te223  1  0.41674835  0.08106055  0.08556455  1
  Te2-  Te224  1  0.41630086  0.08125904  0.41926824  1
  Te2-  Te225  1  0.41374114  0.08060841  0.74873711  1
  Te2-  Te226  1  0.41452486  0.41157382  0.08304806  1
  Te2-  Te227  1  0.41479927  0.41366877  0.40963368  1
  Te2-  Te228  1  0.40945621  0.40987891  0.74780418  1
  Te2-  Te229  1  0.41082427  0.75006884  0.08141820  1
  Te2-  Te230  1  0.41692889  0.75318510  0.40950676  1
  Te2-  Te231  1  0.41137787  0.75385258  0.74306686  1
  Te2-  Te232  1  0.75044538  0.07279963  0.07876508  1
  Te2-  Te233  1  0.74973668  0.07959835  0.41481382  1
  Te2-  Te234  1  0.74819456  0.08197109  0.75043188  1
  Te2-  Te235  1  0.74319402  0.41227492  0.07817586  1
  Te2-  Te236  1  0.74862561  0.41500777  0.41362575  1
  Te2-  Te237  1  0.74240165  0.41663475  0.74391012  1
  Te2-  Te238  1  0.74791945  0.74474597  0.07613240  1
  Te2-  Te239  1  0.75046723  0.74823281  0.41756759  1
  Te2-  Te240  1  0.74799575  0.74708608  0.74635916  1
