# generated using pymatgen
data_Ti27(Cu53Te54)2
_symmetry_space_group_name_H-M   'P 1'
_cell_length_a   17.87654770
_cell_length_b   17.87693291
_cell_length_c   17.87807123
_cell_angle_alpha   89.99577833
_cell_angle_beta   89.98684048
_cell_angle_gamma   89.96891632
_symmetry_Int_Tables_number   1
_chemical_formula_structural   Ti27(Cu53Te54)2
_chemical_formula_sum   'Ti27 Cu106 Te108'
_cell_volume   5713.43445176
_cell_formula_units_Z   1
loop_
 _symmetry_equiv_pos_site_id
 _symmetry_equiv_pos_as_xyz
  1  'x, y, z'
loop_
 _atom_type_symbol
 _atom_type_oxidation_number
  Ti4+  4.0
  Cu+  1.0
  Te2-  -2.0
loop_
 _atom_site_type_symbol
 _atom_site_label
 _atom_site_symmetry_multiplicity
 _atom_site_fract_x
 _atom_site_fract_y
 _atom_site_fract_z
 _atom_site_occupancy
  Ti4+  Ti0  1  0.16476615  0.16528678  0.16597728  1
  Ti4+  Ti1  1  0.16714983  0.16761927  0.49950245  1
  Ti4+  Ti2  1  0.16943350  0.16550605  0.83742114  1
  Ti4+  Ti3  1  0.16635752  0.49900048  0.16492056  1
  Ti4+  Ti4  1  0.16589971  0.50336957  0.49542548  1
  Ti4+  Ti5  1  0.16350674  0.50064755  0.83162668  1
  Ti4+  Ti6  1  0.16761806  0.83262395  0.16389720  1
  Ti4+  Ti7  1  0.16970032  0.83501585  0.49770553  1
  Ti4+  Ti8  1  0.16494556  0.83125976  0.83498670  1
  Ti4+  Ti9  1  0.49865626  0.16647871  0.16730311  1
  Ti4+  Ti10  1  0.49705307  0.16619255  0.49957529  1
  Ti4+  Ti11  1  0.50200056  0.16591596  0.83167731  1
  Ti4+  Ti12  1  0.49845253  0.49871445  0.16604131  1
  Ti4+  Ti13  1  0.49979002  0.50314686  0.50440403  1
  Ti4+  Ti14  1  0.50368323  0.49987524  0.83492992  1
  Ti4+  Ti15  1  0.50231277  0.83317767  0.16806637  1
  Ti4+  Ti16  1  0.50287265  0.83085466  0.49806893  1
  Ti4+  Ti17  1  0.50032846  0.83134825  0.83395939  1
  Ti4+  Ti18  1  0.83221395  0.16731097  0.16674720  1
  Ti4+  Ti19  1  0.82913569  0.16330720  0.49724622  1
  Ti4+  Ti20  1  0.83305410  0.17065135  0.83400149  1
  Ti4+  Ti21  1  0.83124919  0.50189047  0.16907294  1
  Ti4+  Ti22  1  0.83392539  0.49944344  0.50172010  1
  Ti4+  Ti23  1  0.83452856  0.50074828  0.83278446  1
  Ti4+  Ti24  1  0.83337943  0.83287407  0.16426216  1
  Ti4+  Ti25  1  0.83549301  0.83376476  0.49919423  1
  Ti4+  Ti26  1  0.83290474  0.83591579  0.83620020  1
  Cu+  Cu27  1  0.17117451  0.15932042  0.00408768  1
  Cu+  Cu28  1  0.16769782  0.16955648  0.33160650  1
  Cu+  Cu29  1  0.16916330  0.16694554  0.67053166  1
  Cu+  Cu30  1  0.16791523  0.49752460  -0.00142230  1
  Cu+  Cu31  1  0.16518708  0.50042175  0.32973698  1
  Cu+  Cu32  1  0.16114855  0.50529647  0.65890040  1
  Cu+  Cu33  1  0.15951832  0.83311124  0.00031622  1
  Cu+  Cu34  1  0.17296156  0.83182489  0.33082099  1
  Cu+  Cu35  1  0.16713560  0.83660516  0.66675110  1
  Cu+  Cu36  1  0.50039430  0.16796408  -0.00056449  1
  Cu+  Cu37  1  0.49831509  0.16611663  0.33326109  1
  Cu+  Cu38  1  0.49750424  0.16343053  0.66398779  1
  Cu+  Cu39  1  0.49795133  0.49888367  0.00363728  1
  Cu+  Cu40  1  0.49923067  0.50246539  0.33381419  1
  Cu+  Cu41  1  0.50655848  0.50407340  0.67131455  1
  Cu+  Cu42  1  0.50433586  0.83494839  0.00158447  1
  Cu+  Cu43  1  0.49790982  0.83588899  0.33581714  1
  Cu+  Cu44  1  0.50067455  0.82753317  0.66629299  1
  Cu+  Cu45  1  0.83441013  0.16820197  0.00282096  1
  Cu+  Cu46  1  0.82967062  0.16349896  0.33179086  1
  Cu+  Cu47  1  0.83178783  0.16782346  0.66208359  1
  Cu+  Cu48  1  0.83049850  0.50211269  0.00269195  1
  Cu+  Cu49  1  0.83125748  0.49894699  0.33723999  1
  Cu+  Cu50  1  0.83852521  0.49930400  0.66916532  1
  Cu+  Cu51  1  0.82733833  0.83390652  -0.00191069  1
  Cu+  Cu52  1  0.83555047  0.83248934  0.33201773  1
  Cu+  Cu53  1  0.83556916  0.83590010  0.66704283  1
  Cu+  Cu54  1  0.16533697  -0.00222646  0.15911876  1
  Cu+  Cu55  1  0.16769474  0.00332098  0.49989362  1
  Cu+  Cu56  1  0.16871596  -0.00038434  0.83623792  1
  Cu+  Cu57  1  0.16674909  0.33066536  0.16824579  1
  Cu+  Cu58  1  0.16571345  0.33676002  0.49643625  1
  Cu+  Cu59  1  0.16176593  0.32829227  0.83334220  1
  Cu+  Cu60  1  0.16760359  0.66363138  0.16576374  1
  Cu+  Cu61  1  0.17426985  0.67010163  0.49370543  1
  Cu+  Cu62  1  0.16132076  0.66591079  0.83697413  1
  Cu+  Cu63  1  0.50098773  0.00098406  0.16755600  1
  Cu+  Cu64  1  0.49817975  -0.00213664  0.49459947  1
  Cu+  Cu65  1  0.50229296  -0.00332758  0.83472156  1
  Cu+  Cu66  1  0.49734865  0.33490128  0.16635453  1
  Cu+  Cu67  1  0.49659438  0.33279132  0.50032790  1
  Cu+  Cu68  1  0.50841300  0.33193092  0.83233030  1
  Cu+  Cu69  1  0.50288716  0.66441613  0.16866976  1
  Cu+  Cu70  1  0.50223884  0.66862073  0.50951145  1
  Cu+  Cu71  1  0.49855895  0.66343504  0.83049975  1
  Cu+  Cu72  1  0.83357298  0.00150350  0.16440528  1
  Cu+  Cu73  1  0.83256505  -0.00140034  0.49628817  1
  Cu+  Cu74  1  0.83315561  0.00456091  0.83172997  1
  Cu+  Cu75  1  0.83225272  0.33282791  0.16868398  1
  Cu+  Cu76  1  0.83078731  0.32892410  0.50034286  1
  Cu+  Cu77  1  0.83296076  0.33940827  0.83625547  1
  Cu+  Cu78  1  0.82986023  0.66897463  0.16907326  1
  Cu+  Cu79  1  0.83609197  0.66548932  0.50100764  1
  Cu+  Cu80  1  0.83379646  0.67288583  0.83371779  1
  Cu+  Cu81  1  -0.00372127  0.16636015  0.16720298  1
  Cu+  Cu82  1  -0.00396029  0.16551229  0.49821107  1
  Cu+  Cu83  1  0.00301333  0.16930993  0.83473846  1
  Cu+  Cu84  1  -0.00316457  0.49995028  0.16536772  1
  Cu+  Cu85  1  0.00195347  0.49879691  0.49973017  1
  Cu+  Cu86  1  0.00159424  0.49971893  0.82872502  1
  Cu+  Cu87  1  0.00031898  0.83757451  0.16181332  1
  Cu+  Cu88  1  0.00312206  0.83479613  0.49935544  1
  Cu+  Cu89  1  -0.00172184  0.82781057  0.83584367  1
  Cu+  Cu90  1  0.33085275  0.16576988  0.16692673  1
  Cu+  Cu91  1  0.33262128  0.16726075  0.50082939  1
  Cu+  Cu92  1  0.33658905  0.16347295  0.83459474  1
  Cu+  Cu93  1  0.33452588  0.49737346  0.16473938  1
  Cu+  Cu94  1  0.32953353  0.50574981  0.50065731  1
  Cu+  Cu95  1  0.33342310  0.50373661  0.83442411  1
  Cu+  Cu96  1  0.33712840  0.83287686  0.16599812  1
  Cu+  Cu97  1  0.33631107  0.83007309  0.49068323  1
  Cu+  Cu98  1  0.33165209  0.83050966  0.83530898  1
  Cu+  Cu99  1  0.66763888  0.16587390  0.16695598  1
  Cu+  Cu100  1  0.66241779  0.16259238  0.49623827  1
  Cu+  Cu101  1  0.66586867  0.17266500  0.83574855  1
  Cu+  Cu102  1  0.66107812  0.50253226  0.17017051  1
  Cu+  Cu103  1  0.66820115  0.50301930  0.50619334  1
  Cu+  Cu104  1  0.66866392  0.49163893  0.83376983  1
  Cu+  Cu105  1  0.66991400  0.83020053  0.16860482  1
  Cu+  Cu106  1  0.67005762  0.83340689  0.49854940  1
  Cu+  Cu107  1  0.66423098  0.83628047  0.83970134  1
  Cu+  Cu108  1  0.59077609  0.25940477  0.93269781  1
  Cu+  Cu109  1  0.26544664  0.06843796  0.07830380  1
  Cu+  Cu110  1  0.60122751  0.59611417  0.59940563  1
  Cu+  Cu111  1  0.07351437  0.59529125  0.73478444  1
  Cu+  Cu112  1  0.07019146  0.73731123  0.93228084  1
  Cu+  Cu113  1  0.25309151  0.59573810  0.59076493  1
  Cu+  Cu114  1  0.06821235  0.92968612  0.07024362  1
  Cu+  Cu115  1  0.40355363  0.75084712  0.59368223  1
  Cu+  Cu116  1  0.92421939  0.74818851  0.73604447  1
  Cu+  Cu117  1  0.40791933  0.58830472  0.74380121  1
  Cu+  Cu118  1  0.92193396  0.25355828  0.58583192  1
  Cu+  Cu119  1  0.26586846  0.73851436  0.39711659  1
  Cu+  Cu120  1  0.25988422  0.26015151  0.25914998  1
  Cu+  Cu121  1  0.92541567  0.40682990  0.74531373  1
  Cu+  Cu122  1  0.07663833  0.24957446  0.74059084  1
  Cu+  Cu123  1  0.58898129  0.59213907  0.26335207  1
  Cu+  Cu124  1  0.07776977  0.40723695  0.58397219  1
  Cu+  Cu125  1  0.73520220  0.73953679  0.92420415  1
  Cu+  Cu126  1  0.59168370  0.92916901  0.93162129  1
  Cu+  Cu127  1  0.40595155  0.93007186  0.40516074  1
  Cu+  Cu128  1  0.25937206  0.59223329  0.92923790  1
  Cu+  Cu129  1  0.74296930  0.40988896  0.93359926  1
  Cu+  Cu130  1  0.08033292  0.40115436  0.93165516  1
  Cu+  Cu131  1  0.59233331  0.40200621  0.73613387  1
  Cu+  Cu132  1  0.74381831  0.74377829  0.26494731  1
  Te2-  Te133  1  0.25164286  0.25269414  0.08013493  1
  Te2-  Te134  1  0.25365220  0.25510489  0.41521010  1
  Te2-  Te135  1  0.25554981  0.25178610  0.75167490  1
  Te2-  Te136  1  0.25431055  0.58476411  0.08015617  1
  Te2-  Te137  1  0.25489453  0.58538874  0.40527818  1
  Te2-  Te138  1  0.25096602  0.58918588  0.74502260  1
  Te2-  Te139  1  0.25665173  0.91467527  0.07586148  1
  Te2-  Te140  1  0.25337621  0.92370409  0.41158251  1
  Te2-  Te141  1  0.25177051  0.91707387  0.75129499  1
  Te2-  Te142  1  0.58633040  0.25341069  0.08426275  1
  Te2-  Te143  1  0.58219405  0.25249109  0.41447364  1
  Te2-  Te144  1  0.58754684  0.24946949  0.74002224  1
  Te2-  Te145  1  0.58496980  0.58531315  0.07887221  1
  Te2-  Te146  1  0.58627888  0.58765145  0.41816840  1
  Te2-  Te147  1  0.59528627  0.58884512  0.75252428  1
  Te2-  Te148  1  0.59010897  0.92041771  0.08496485  1
  Te2-  Te149  1  0.58909736  0.91782274  0.41376247  1
  Te2-  Te150  1  0.58471606  0.91509897  0.74580576  1
  Te2-  Te151  1  0.91867789  0.25472270  0.08238561  1
  Te2-  Te152  1  0.91537639  0.25041823  0.41131305  1
  Te2-  Te153  1  0.92114244  0.25559422  0.74520721  1
  Te2-  Te154  1  0.91543680  0.58745953  0.08303809  1
  Te2-  Te155  1  0.91926780  0.58361090  0.41572126  1
  Te2-  Te156  1  0.92019244  0.59222033  0.74564210  1
  Te2-  Te157  1  0.91549605  0.92107824  0.07581022  1
  Te2-  Te158  1  0.92054331  0.91760786  0.41284816  1
  Te2-  Te159  1  0.92067733  0.92031642  0.75110525  1
  Te2-  Te160  1  0.24919041  0.07655286  0.25065907  1
  Te2-  Te161  1  0.25144948  0.08347155  0.58658920  1
  Te2-  Te162  1  0.25722235  0.07691435  0.92043512  1
  Te2-  Te163  1  0.25306727  0.41478925  0.25237823  1
  Te2-  Te164  1  0.25086604  0.41643989  0.58471913  1
  Te2-  Te165  1  0.25188174  0.41246307  0.91309319  1
  Te2-  Te166  1  0.25619228  0.74478581  0.24686717  1
  Te2-  Te167  1  0.25413509  0.74906747  0.58988692  1
  Te2-  Te168  1  0.25200222  0.74626302  0.92241886  1
  Te2-  Te169  1  0.58491318  0.08271468  0.25230324  1
  Te2-  Te170  1  0.58187969  0.07751509  0.58253610  1
  Te2-  Te171  1  0.58799906  0.08090664  0.92024422  1
  Te2-  Te172  1  0.58284290  0.41275677  0.25443955  1
  Te2-  Te173  1  0.58519001  0.41200919  0.58533215  1
  Te2-  Te174  1  0.58753011  0.41348555  0.92748158  1
  Te2-  Te175  1  0.58705130  0.74732859  0.25828443  1
  Te2-  Te176  1  0.59437870  0.74899105  0.58838068  1
  Te2-  Te177  1  0.58310832  0.74153872  0.92067271  1
  Te2-  Te178  1  0.91748292  0.08004419  0.25213256  1
  Te2-  Te179  1  0.91692481  0.07831309  0.58423011  1
  Te2-  Te180  1  0.91832005  0.08522439  0.91755352  1
  Te2-  Te181  1  0.91619297  0.41617156  0.25287939  1
  Te2-  Te182  1  0.92237134  0.41011190  0.58770928  1
  Te2-  Te183  1  0.92281083  0.41739960  0.92243567  1
  Te2-  Te184  1  0.92235675  0.74964163  0.24874078  1
  Te2-  Te185  1  0.92256871  0.74780722  0.58448431  1
  Te2-  Te186  1  0.91804417  0.74624762  0.92615960  1
  Te2-  Te187  1  0.07781026  0.25121210  0.25125430  1
  Te2-  Te188  1  0.07838157  0.25390507  0.58726984  1
  Te2-  Te189  1  0.08156873  0.24882129  0.92799424  1
  Te2-  Te190  1  0.08020185  0.58434852  0.24902263  1
  Te2-  Te191  1  0.07785889  0.59587446  0.57877700  1
  Te2-  Te192  1  0.07518950  0.58358624  0.92313798  1
  Te2-  Te193  1  0.08464029  0.91758618  0.25147863  1
  Te2-  Te194  1  0.08395709  0.91998902  0.58345511  1
  Te2-  Te195  1  0.07708025  0.92138593  0.91642906  1
  Te2-  Te196  1  0.41296375  0.25291826  0.25318114  1
  Te2-  Te197  1  0.41260937  0.25233901  0.58661068  1
  Te2-  Te198  1  0.41661795  0.25394640  0.91568049  1
  Te2-  Te199  1  0.41193801  0.58522955  0.25119439  1
  Te2-  Te200  1  0.40954446  0.58963431  0.59211776  1
  Te2-  Te201  1  0.41583388  0.58644861  0.92279610  1
  Te2-  Te202  1  0.41389048  0.92075544  0.25118987  1
  Te2-  Te203  1  0.41473104  0.91483765  0.58381158  1
  Te2-  Te204  1  0.41423344  0.91597770  0.91940928  1
  Te2-  Te205  1  0.74605747  0.25219257  0.25303055  1
  Te2-  Te206  1  0.74139271  0.24931230  0.58273779  1
  Te2-  Te207  1  0.74826267  0.25646893  0.92426158  1
  Te2-  Te208  1  0.74468681  0.58745034  0.25842437  1
  Te2-  Te209  1  0.75321155  0.58799968  0.59106838  1
  Te2-  Te210  1  0.74652374  0.58629178  0.91708276  1
  Te2-  Te211  1  0.75012401  0.91953702  0.25116842  1
  Te2-  Te212  1  0.74966653  0.91854354  0.58503839  1
  Te2-  Te213  1  0.74734753  0.92704221  0.92009091  1
  Te2-  Te214  1  0.07402498  0.08136609  0.07888383  1
  Te2-  Te215  1  0.08230929  0.08389117  0.41376900  1
  Te2-  Te216  1  0.08307623  0.08034782  0.75072667  1
  Te2-  Te217  1  0.07955440  0.41161408  0.08242904  1
  Te2-  Te218  1  0.08017991  0.41567021  0.40984953  1
  Te2-  Te219  1  0.07958091  0.40970837  0.73982778  1
  Te2-  Te220  1  0.07867991  0.74234896  0.08330885  1
  Te2-  Te221  1  0.08334090  0.75008420  0.41268435  1
  Te2-  Te222  1  0.08013482  0.74730841  0.74162945  1
  Te2-  Te223  1  0.41590470  0.07971287  0.07919871  1
  Te2-  Te224  1  0.40990923  0.08182182  0.41150555  1
  Te2-  Te225  1  0.41693904  0.07790235  0.74917363  1
  Te2-  Te226  1  0.41249757  0.41199243  0.07929506  1
  Te2-  Te227  1  0.41439048  0.42017103  0.41837856  1
  Te2-  Te228  1  0.41656949  0.41534793  0.75015795  1
  Te2-  Te229  1  0.41966980  0.74778305  0.08218874  1
  Te2-  Te230  1  0.41905789  0.73857633  0.41032044  1
  Te2-  Te231  1  0.40973516  0.74469916  0.74795818  1
  Te2-  Te232  1  0.74699641  0.08167266  0.07993200  1
  Te2-  Te233  1  0.74457223  0.07754431  0.41186370  1
  Te2-  Te234  1  0.74760678  0.08701278  0.74881760  1
  Te2-  Te235  1  0.74408200  0.41499416  0.08585096  1
  Te2-  Te236  1  0.74600069  0.41509247  0.41955277  1
  Te2-  Te237  1  0.74863597  0.41230080  0.74246891  1
  Te2-  Te238  1  0.74463293  0.74500015  0.07825265  1
  Te2-  Te239  1  0.74927369  0.74502416  0.41564010  1
  Te2-  Te240  1  0.74553496  0.75287203  0.74902734  1
