# generated using pymatgen
data_Ti27(Cu53Te54)2
_symmetry_space_group_name_H-M   'P 1'
_cell_length_a   17.89845650
_cell_length_b   17.90372071
_cell_length_c   17.89627911
_cell_angle_alpha   90.04917675
_cell_angle_beta   90.02000065
_cell_angle_gamma   89.96579269
_symmetry_Int_Tables_number   1
_chemical_formula_structural   Ti27(Cu53Te54)2
_chemical_formula_sum   'Ti27 Cu106 Te108'
_cell_volume   5734.84065814
_cell_formula_units_Z   1
loop_
 _symmetry_equiv_pos_site_id
 _symmetry_equiv_pos_as_xyz
  1  'x, y, z'
loop_
 _atom_type_symbol
 _atom_type_oxidation_number
  Ti4+  4.0
  Cu+  1.0
  Te2-  -2.0
loop_
 _atom_site_type_symbol
 _atom_site_label
 _atom_site_symmetry_multiplicity
 _atom_site_fract_x
 _atom_site_fract_y
 _atom_site_fract_z
 _atom_site_occupancy
  Ti4+  Ti0  1  0.16559603  0.16829172  0.16199109  1
  Ti4+  Ti1  1  0.16777640  0.16216751  0.50037279  1
  Ti4+  Ti2  1  0.16528867  0.16718123  0.83390991  1
  Ti4+  Ti3  1  0.16670400  0.49915957  0.16651610  1
  Ti4+  Ti4  1  0.16630663  0.49595212  0.50047032  1
  Ti4+  Ti5  1  0.16778687  0.49868300  0.83321681  1
  Ti4+  Ti6  1  0.16618737  0.83407642  0.16963644  1
  Ti4+  Ti7  1  0.16625983  0.83255099  0.50146916  1
  Ti4+  Ti8  1  0.16731686  0.83225692  0.83545193  1
  Ti4+  Ti9  1  0.50041655  0.16735897  0.16622886  1
  Ti4+  Ti10  1  0.49985046  0.16718892  0.50136500  1
  Ti4+  Ti11  1  0.50104813  0.16448869  0.83427662  1
  Ti4+  Ti12  1  0.50181264  0.50030227  0.16545201  1
  Ti4+  Ti13  1  0.49407212  0.50063818  0.50033919  1
  Ti4+  Ti14  1  0.49981025  0.50057451  0.83335248  1
  Ti4+  Ti15  1  0.49968139  0.83103019  0.16724948  1
  Ti4+  Ti16  1  0.50357205  0.83455591  0.49924156  1
  Ti4+  Ti17  1  0.49891235  0.83006915  0.83271227  1
  Ti4+  Ti18  1  0.83256435  0.17025552  0.16789483  1
  Ti4+  Ti19  1  0.83764425  0.16920184  0.49751919  1
  Ti4+  Ti20  1  0.83212954  0.16651676  0.83084610  1
  Ti4+  Ti21  1  0.83430479  0.50116820  0.16448325  1
  Ti4+  Ti22  1  0.83124481  0.49852440  0.50008528  1
  Ti4+  Ti23  1  0.83119539  0.50076561  0.83350582  1
  Ti4+  Ti24  1  0.83287328  0.84072032  0.16801034  1
  Ti4+  Ti25  1  0.83554766  0.82789539  0.49817745  1
  Ti4+  Ti26  1  0.83446648  0.83163520  0.83634443  1
  Cu+  Cu27  1  0.16579223  0.17685141  -0.00396940  1
  Cu+  Cu28  1  0.16357060  0.16253307  0.32994672  1
  Cu+  Cu29  1  0.16616837  0.16080714  0.66707486  1
  Cu+  Cu30  1  0.16927742  0.49919332  0.00082859  1
  Cu+  Cu31  1  0.16916795  0.49700106  0.33219213  1
  Cu+  Cu32  1  0.16607561  0.49651121  0.66637666  1
  Cu+  Cu33  1  0.16635550  0.83416517  0.00287771  1
  Cu+  Cu34  1  0.16674961  0.83327909  0.33745984  1
  Cu+  Cu35  1  0.16806293  0.83388646  0.67071112  1
  Cu+  Cu36  1  0.50186978  0.16496490  0.00104513  1
  Cu+  Cu37  1  0.49889436  0.16957960  0.33587855  1
  Cu+  Cu38  1  0.49966308  0.16547966  0.66911878  1
  Cu+  Cu39  1  0.50899702  0.50055691  0.00079842  1
  Cu+  Cu40  1  0.49441985  0.49834566  0.33150456  1
  Cu+  Cu41  1  0.49342015  0.50477249  0.66550854  1
  Cu+  Cu42  1  0.49639157  0.82699337  0.00009511  1
  Cu+  Cu43  1  0.50442899  0.83376160  0.33369593  1
  Cu+  Cu44  1  0.50062311  0.82909551  0.66297921  1
  Cu+  Cu45  1  0.83164530  0.16493744  -0.00448905  1
  Cu+  Cu46  1  0.82983665  0.17500053  0.33643327  1
  Cu+  Cu47  1  0.83604587  0.16601213  0.66478256  1
  Cu+  Cu48  1  0.83740433  0.50623218  -0.00432995  1
  Cu+  Cu49  1  0.83220239  0.49648904  0.33163693  1
  Cu+  Cu50  1  0.82896254  0.49872856  0.66893745  1
  Cu+  Cu51  1  0.83712235  0.83447368  0.00515785  1
  Cu+  Cu52  1  0.82672733  0.83317443  0.33282557  1
  Cu+  Cu53  1  0.83628393  0.82933297  0.66723569  1
  Cu+  Cu54  1  0.16022824  -0.00070777  0.16546099  1
  Cu+  Cu55  1  0.16519459  -0.00249855  0.50587399  1
  Cu+  Cu56  1  0.16886798  0.00017379  0.83508375  1
  Cu+  Cu57  1  0.16458827  0.33367122  0.15934139  1
  Cu+  Cu58  1  0.16740222  0.32637018  0.49782769  1
  Cu+  Cu59  1  0.17088303  0.33222706  0.83556887  1
  Cu+  Cu60  1  0.16820671  0.66487114  0.17065490  1
  Cu+  Cu61  1  0.16758900  0.66262719  0.50108555  1
  Cu+  Cu62  1  0.16698211  0.66725091  0.83320944  1
  Cu+  Cu63  1  0.50062020  -0.00229474  0.16583658  1
  Cu+  Cu64  1  0.50399982  0.00295605  0.49955972  1
  Cu+  Cu65  1  0.50089581  -0.00344429  0.83142055  1
  Cu+  Cu66  1  0.50167728  0.33591572  0.16538263  1
  Cu+  Cu67  1  0.49428153  0.33467727  0.50326659  1
  Cu+  Cu68  1  0.50159222  0.32948563  0.83161211  1
  Cu+  Cu69  1  0.50060776  0.66516377  0.16491121  1
  Cu+  Cu70  1  0.49944816  0.66982751  0.50538613  1
  Cu+  Cu71  1  0.49501529  0.66448912  0.83586867  1
  Cu+  Cu72  1  0.83570732  0.01189650  0.16901690  1
  Cu+  Cu73  1  0.83894180  -0.00468558  0.49817179  1
  Cu+  Cu74  1  0.82896167  -0.00108424  0.83473241  1
  Cu+  Cu75  1  0.83070454  0.33776459  0.16766793  1
  Cu+  Cu76  1  0.83700505  0.33741105  0.49253815  1
  Cu+  Cu77  1  0.83046920  0.33406880  0.83117151  1
  Cu+  Cu78  1  0.83316570  0.67243659  0.16610997  1
  Cu+  Cu79  1  0.83430409  0.66260752  0.49973907  1
  Cu+  Cu80  1  0.83768191  0.66545200  0.83641660  1
  Cu+  Cu81  1  0.00121845  0.16679090  0.16279845  1
  Cu+  Cu82  1  0.00614143  0.16542212  0.49815797  1
  Cu+  Cu83  1  -0.00257937  0.16803068  0.82943329  1
  Cu+  Cu84  1  0.00274952  0.50387333  0.16628890  1
  Cu+  Cu85  1  -0.00172747  0.49502690  0.50023175  1
  Cu+  Cu86  1  0.00046874  0.49840444  0.83328219  1
  Cu+  Cu87  1  0.00133940  0.84081845  0.16213424  1
  Cu+  Cu88  1  -0.00018649  0.82902372  0.50077360  1
  Cu+  Cu89  1  0.00032739  0.83291636  0.83496285  1
  Cu+  Cu90  1  0.33425286  0.16654785  0.16427009  1
  Cu+  Cu91  1  0.33286215  0.16431832  0.49956580  1
  Cu+  Cu92  1  0.33339993  0.16729682  0.83549321  1
  Cu+  Cu93  1  0.33440982  0.49707927  0.16638854  1
  Cu+  Cu94  1  0.33028411  0.49332088  0.50290271  1
  Cu+  Cu95  1  0.33441256  0.50186178  0.83006059  1
  Cu+  Cu96  1  0.33210069  0.83217349  0.16906782  1
  Cu+  Cu97  1  0.33325179  0.83509378  0.50026222  1
  Cu+  Cu98  1  0.33267641  0.82883743  0.83781205  1
  Cu+  Cu99  1  0.66647547  0.16844297  0.16956381  1
  Cu+  Cu100  1  0.66478365  0.16994058  0.50075404  1
  Cu+  Cu101  1  0.66835297  0.16125901  0.83453338  1
  Cu+  Cu102  1  0.66803833  0.49570920  0.16260981  1
  Cu+  Cu103  1  0.65857456  0.50462382  0.50142370  1
  Cu+  Cu104  1  0.66500148  0.50466219  0.83556091  1
  Cu+  Cu105  1  0.66196470  0.83906296  0.17545710  1
  Cu+  Cu106  1  0.67324845  0.83264412  0.49369640  1
  Cu+  Cu107  1  0.66842818  0.83111781  0.83166865  1
  Cu+  Cu108  1  0.58231493  0.93152741  0.26216132  1
  Cu+  Cu109  1  0.92993602  0.41383182  0.40104884  1
  Cu+  Cu110  1  0.73811657  0.74030913  0.25578659  1
  Cu+  Cu111  1  0.59603151  0.40220399  0.06981292  1
  Cu+  Cu112  1  0.07670907  0.92633386  0.06858571  1
  Cu+  Cu113  1  0.74525780  0.92861864  0.41232029  1
  Cu+  Cu114  1  0.40375435  0.40269660  0.59750563  1
  Cu+  Cu115  1  0.73913434  0.08443035  0.26412941  1
  Cu+  Cu116  1  0.07455101  0.06877260  0.59894228  1
  Cu+  Cu117  1  0.92942403  0.74275839  0.08216152  1
  Cu+  Cu118  1  0.93367494  0.59251350  0.91975258  1
  Cu+  Cu119  1  0.40207410  0.59415804  0.74043828  1
  Cu+  Cu120  1  0.06882773  0.26597366  0.06782396  1
  Cu+  Cu121  1  0.08252348  0.25716030  0.40289496  1
  Cu+  Cu122  1  0.40375724  0.40565054  0.25649225  1
  Cu+  Cu123  1  0.92681413  0.08466918  0.06609066  1
  Cu+  Cu124  1  0.40229884  0.74765370  0.58856165  1
  Cu+  Cu125  1  0.59347725  0.59574390  0.92827217  1
  Cu+  Cu126  1  0.59271304  0.59606556  0.59330827  1
  Cu+  Cu127  1  0.07418423  0.07090766  0.25909945  1
  Cu+  Cu128  1  0.40240881  0.73701026  0.93198187  1
  Cu+  Cu129  1  0.73874094  0.41224576  0.25900440  1
  Cu+  Cu130  1  0.26683395  0.26242641  0.92371252  1
  Cu+  Cu131  1  0.73724895  0.06881657  0.92577552  1
  Cu+  Cu132  1  0.73377100  0.26551152  0.41944928  1
  Te2-  Te133  1  0.25637528  0.25477420  0.07928209  1
  Te2-  Te134  1  0.25271130  0.24681700  0.41098541  1
  Te2-  Te135  1  0.25137037  0.24931034  0.74647985  1
  Te2-  Te136  1  0.25296314  0.58443459  0.08333395  1
  Te2-  Te137  1  0.25230855  0.58056803  0.41604536  1
  Te2-  Te138  1  0.24978328  0.58628465  0.74510297  1
  Te2-  Te139  1  0.25235227  0.91920173  0.08396569  1
  Te2-  Te140  1  0.25112716  0.91955265  0.41766740  1
  Te2-  Te141  1  0.25425190  0.91733572  0.75223781  1
  Te2-  Te142  1  0.58833047  0.25168499  0.08003505  1
  Te2-  Te143  1  0.58225315  0.25763731  0.41534251  1
  Te2-  Te144  1  0.58767548  0.24798623  0.74897015  1
  Te2-  Te145  1  0.59110156  0.58962066  0.08191689  1
  Te2-  Te146  1  0.57787721  0.58633457  0.41320718  1
  Te2-  Te147  1  0.58510067  0.58865174  0.74678890  1
  Te2-  Te148  1  0.58318987  0.91532195  0.07874710  1
  Te2-  Te149  1  0.59045834  0.92333542  0.41325784  1
  Te2-  Te150  1  0.58496859  0.91384194  0.74694665  1
  Te2-  Te151  1  0.91523763  0.25563329  0.07813702  1
  Te2-  Te152  1  0.92665109  0.25523131  0.41063360  1
  Te2-  Te153  1  0.91681685  0.25402658  0.74595216  1
  Te2-  Te154  1  0.92181150  0.58962965  0.08046018  1
  Te2-  Te155  1  0.91815057  0.58160211  0.41326609  1
  Te2-  Te156  1  0.91888894  0.58375391  0.74656203  1
  Te2-  Te157  1  0.91884027  0.92975191  0.08003830  1
  Te2-  Te158  1  0.92140397  0.91348250  0.41155314  1
  Te2-  Te159  1  0.91707060  0.91706679  0.75055941  1
  Te2-  Te160  1  0.25066032  0.08143892  0.24643953  1
  Te2-  Te161  1  0.25509767  0.07804314  0.58669593  1
  Te2-  Te162  1  0.25058583  0.08309714  0.92107146  1
  Te2-  Te163  1  0.25125194  0.40938710  0.25048085  1
  Te2-  Te164  1  0.24957792  0.40700896  0.58772855  1
  Te2-  Te165  1  0.25633059  0.41584456  0.91985747  1
  Te2-  Te166  1  0.25095774  0.74877204  0.25519641  1
  Te2-  Te167  1  0.25070880  0.74654313  0.58784543  1
  Te2-  Te168  1  0.25042157  0.74462878  0.92388522  1
  Te2-  Te169  1  0.58540916  0.08253499  0.25691442  1
  Te2-  Te170  1  0.58703748  0.08371057  0.58661897  1
  Te2-  Te171  1  0.58486256  0.07609803  0.92061394  1
  Te2-  Te172  1  0.58692601  0.41405659  0.25523055  1
  Te2-  Te173  1  0.58102752  0.41611560  0.58688284  1
  Te2-  Te174  1  0.58789893  0.41116933  0.91598998  1
  Te2-  Te175  1  0.58527364  0.74217384  0.25467741  1
  Te2-  Te176  1  0.59392917  0.74952573  0.58442841  1
  Te2-  Te177  1  0.58762661  0.74617885  0.91918060  1
  Te2-  Te178  1  0.92056636  0.08795800  0.25853105  1
  Te2-  Te179  1  0.92074802  0.08030395  0.58311186  1
  Te2-  Te180  1  0.92110190  0.07914392  0.91544905  1
  Te2-  Te181  1  0.92320156  0.41464075  0.24878478  1
  Te2-  Te182  1  0.91512628  0.41434396  0.58810157  1
  Te2-  Te183  1  0.91733842  0.41298372  0.91754181  1
  Te2-  Te184  1  0.92055380  0.75470323  0.25081261  1
  Te2-  Te185  1  0.91947985  0.74298227  0.58522568  1
  Te2-  Te186  1  0.92382308  0.74718284  0.92458322  1
  Te2-  Te187  1  0.08000289  0.25564971  0.24871788  1
  Te2-  Te188  1  0.08263966  0.25001060  0.58780167  1
  Te2-  Te189  1  0.07457386  0.25660330  0.91494188  1
  Te2-  Te190  1  0.08328869  0.58410370  0.25484637  1
  Te2-  Te191  1  0.08062519  0.58047863  0.58441738  1
  Te2-  Te192  1  0.08410878  0.58541945  0.92003723  1
  Te2-  Te193  1  0.07876171  0.91878493  0.25810744  1
  Te2-  Te194  1  0.07814993  0.91518400  0.58952462  1
  Te2-  Te195  1  0.08051462  0.92033166  0.91893090  1
  Te2-  Te196  1  0.41365540  0.25257348  0.25177020  1
  Te2-  Te197  1  0.41126155  0.24948927  0.58867654  1
  Te2-  Te198  1  0.41773484  0.25286193  0.92159599  1
  Te2-  Te199  1  0.41388164  0.58631764  0.24973308  1
  Te2-  Te200  1  0.40402704  0.59021462  0.58543982  1
  Te2-  Te201  1  0.41187818  0.58231974  0.92477099  1
  Te2-  Te202  1  0.41482746  0.91726148  0.25356664  1
  Te2-  Te203  1  0.41852370  0.92064478  0.58404156  1
  Te2-  Te204  1  0.41532907  0.91692218  0.91859979  1
  Te2-  Te205  1  0.74375751  0.25920677  0.25485786  1
  Te2-  Te206  1  0.75265282  0.25406298  0.58263589  1
  Te2-  Te207  1  0.74679085  0.25263387  0.91715740  1
  Te2-  Te208  1  0.74756023  0.58568154  0.25026232  1
  Te2-  Te209  1  0.74618476  0.58566287  0.58645840  1
  Te2-  Te210  1  0.74572379  0.59032879  0.92110801  1
  Te2-  Te211  1  0.74472919  0.93000240  0.25631717  1
  Te2-  Te212  1  0.75194179  0.91581151  0.58488394  1
  Te2-  Te213  1  0.74606377  0.91577105  0.92241594  1
  Te2-  Te214  1  0.08009285  0.08117860  0.07117505  1
  Te2-  Te215  1  0.08066990  0.07377592  0.41281538  1
  Te2-  Te216  1  0.07932730  0.07766179  0.75020568  1
  Te2-  Te217  1  0.07810487  0.41700436  0.07683589  1
  Te2-  Te218  1  0.08155666  0.41028953  0.41068557  1
  Te2-  Te219  1  0.08302778  0.41276074  0.75028250  1
  Te2-  Te220  1  0.08242022  0.74485779  0.08272597  1
  Te2-  Te221  1  0.08292300  0.74535871  0.41655459  1
  Te2-  Te222  1  0.08109462  0.74808788  0.74979965  1
  Te2-  Te223  1  0.41677185  0.08022842  0.08211571  1
  Te2-  Te224  1  0.41594267  0.08122835  0.41471641  1
  Te2-  Te225  1  0.41432394  0.08048927  0.75035474  1
  Te2-  Te226  1  0.41667319  0.41568977  0.07715771  1
  Te2-  Te227  1  0.41002031  0.41189221  0.41252570  1
  Te2-  Te228  1  0.41373516  0.41065647  0.74927532  1
  Te2-  Te229  1  0.41074102  0.74420535  0.08364393  1
  Te2-  Te230  1  0.41665783  0.75034890  0.41445297  1
  Te2-  Te231  1  0.40960676  0.74564500  0.74374695  1
  Te2-  Te232  1  0.74446671  0.08309715  0.08104755  1
  Te2-  Te233  1  0.74659476  0.08089031  0.41588899  1
  Te2-  Te234  1  0.74872873  0.07991213  0.74337052  1
  Te2-  Te235  1  0.75141674  0.41566460  0.07326421  1
  Te2-  Te236  1  0.73817471  0.41607101  0.41375928  1
  Te2-  Te237  1  0.74287654  0.41600551  0.74956872  1
  Te2-  Te238  1  0.74382048  0.75581905  0.08509533  1
  Te2-  Te239  1  0.74766536  0.73903488  0.41130406  1
  Te2-  Te240  1  0.75195361  0.74551986  0.75021405  1
