# generated using pymatgen
data_Ti27(Cu53Te54)2
_symmetry_space_group_name_H-M   'P 1'
_cell_length_a   17.89489710
_cell_length_b   17.89334225
_cell_length_c   17.89062189
_cell_angle_alpha   90.06834776
_cell_angle_beta   90.02109406
_cell_angle_gamma   89.95408916
_symmetry_Int_Tables_number   1
_chemical_formula_structural   Ti27(Cu53Te54)2
_chemical_formula_sum   'Ti27 Cu106 Te108'
_cell_volume   5728.56221065
_cell_formula_units_Z   1
loop_
 _symmetry_equiv_pos_site_id
 _symmetry_equiv_pos_as_xyz
  1  'x, y, z'
loop_
 _atom_type_symbol
 _atom_type_oxidation_number
  Ti4+  4.0
  Cu+  1.0
  Te2-  -2.0
loop_
 _atom_site_type_symbol
 _atom_site_label
 _atom_site_symmetry_multiplicity
 _atom_site_fract_x
 _atom_site_fract_y
 _atom_site_fract_z
 _atom_site_occupancy
  Ti4+  Ti0  1  0.16597356  0.16831885  0.16777317  1
  Ti4+  Ti1  1  0.16907242  0.16635162  0.49328207  1
  Ti4+  Ti2  1  0.16743847  0.16488584  0.83449793  1
  Ti4+  Ti3  1  0.16575394  0.50184257  0.16832973  1
  Ti4+  Ti4  1  0.16765871  0.49888609  0.50248598  1
  Ti4+  Ti5  1  0.16446409  0.50079776  0.83556701  1
  Ti4+  Ti6  1  0.16488761  0.83012355  0.16503207  1
  Ti4+  Ti7  1  0.16986928  0.83054820  0.49894348  1
  Ti4+  Ti8  1  0.16732995  0.83351720  0.83013355  1
  Ti4+  Ti9  1  0.49935552  0.16855673  0.16633541  1
  Ti4+  Ti10  1  0.49712703  0.16942724  0.50359553  1
  Ti4+  Ti11  1  0.49915606  0.16513981  0.83230378  1
  Ti4+  Ti12  1  0.49948107  0.50279017  0.16570103  1
  Ti4+  Ti13  1  0.50183384  0.49959246  0.50193150  1
  Ti4+  Ti14  1  0.49900638  0.50151543  0.83346136  1
  Ti4+  Ti15  1  0.50174868  0.83471182  0.16776547  1
  Ti4+  Ti16  1  0.49864096  0.83311920  0.49595441  1
  Ti4+  Ti17  1  0.49992669  0.83410980  0.83331498  1
  Ti4+  Ti18  1  0.83440305  0.16573131  0.16909125  1
  Ti4+  Ti19  1  0.83233686  0.16693408  0.49694536  1
  Ti4+  Ti20  1  0.83513050  0.16492030  0.83268613  1
  Ti4+  Ti21  1  0.83137429  0.50160083  0.16844840  1
  Ti4+  Ti22  1  0.83894783  0.49725061  0.50185715  1
  Ti4+  Ti23  1  0.83239524  0.49891079  0.83485019  1
  Ti4+  Ti24  1  0.83391222  0.83318237  0.16630288  1
  Ti4+  Ti25  1  0.83353512  0.83350224  0.49898939  1
  Ti4+  Ti26  1  0.83347499  0.83434371  0.83128692  1
  Cu+  Cu27  1  0.16855466  0.16510445  0.00169111  1
  Cu+  Cu28  1  0.16213312  0.17089836  0.32757651  1
  Cu+  Cu29  1  0.16960857  0.16394085  0.66780712  1
  Cu+  Cu30  1  0.16420121  0.50330247  0.00271657  1
  Cu+  Cu31  1  0.16849967  0.49966525  0.33617028  1
  Cu+  Cu32  1  0.16632807  0.49971569  0.67312511  1
  Cu+  Cu33  1  0.16386040  0.83045290  -0.00502533  1
  Cu+  Cu34  1  0.17016425  0.83090992  0.33061333  1
  Cu+  Cu35  1  0.16644177  0.83147692  0.66322087  1
  Cu+  Cu36  1  0.49859622  0.16527621  -0.00105331  1
  Cu+  Cu37  1  0.49714015  0.16833731  0.33538104  1
  Cu+  Cu38  1  0.49871992  0.16622922  0.66620123  1
  Cu+  Cu39  1  0.49827565  0.50141058  -0.00264795  1
  Cu+  Cu40  1  0.50206672  0.50602011  0.33426273  1
  Cu+  Cu41  1  0.49986561  0.49719003  0.66975981  1
  Cu+  Cu42  1  0.50416764  0.83341553  0.00263213  1
  Cu+  Cu43  1  0.49377379  0.83256472  0.32821561  1
  Cu+  Cu44  1  0.50072836  0.83370839  0.66585362  1
  Cu+  Cu45  1  0.83551717  0.16549398  0.00095836  1
  Cu+  Cu46  1  0.83710311  0.16430672  0.33487285  1
  Cu+  Cu47  1  0.83496881  0.16505047  0.66673488  1
  Cu+  Cu48  1  0.82996595  0.49975129  0.00000904  1
  Cu+  Cu49  1  0.83705238  0.50318332  0.33704704  1
  Cu+  Cu50  1  0.83631638  0.49542288  0.66893355  1
  Cu+  Cu51  1  0.83593539  0.83661699  -0.00185240  1
  Cu+  Cu52  1  0.83008327  0.83631590  0.33416114  1
  Cu+  Cu53  1  0.83467209  0.83307282  0.66651604  1
  Cu+  Cu54  1  0.16877980  -0.00232599  0.16799614  1
  Cu+  Cu55  1  0.17114297  -0.00398152  0.49303797  1
  Cu+  Cu56  1  0.16945978  -0.00105580  0.82968327  1
  Cu+  Cu57  1  0.16816150  0.33679113  0.16869676  1
  Cu+  Cu58  1  0.16891580  0.32973981  0.49747835  1
  Cu+  Cu59  1  0.16645239  0.33361073  0.83678324  1
  Cu+  Cu60  1  0.15733125  0.66264540  0.16440967  1
  Cu+  Cu61  1  0.16679145  0.66592392  0.50459926  1
  Cu+  Cu62  1  0.16355588  0.66957381  0.83611574  1
  Cu+  Cu63  1  0.50111141  0.00201967  0.16569994  1
  Cu+  Cu64  1  0.50002649  0.00432752  0.49893070  1
  Cu+  Cu65  1  0.49750063  -0.00001292  0.83516286  1
  Cu+  Cu66  1  0.50108893  0.33703143  0.16333235  1
  Cu+  Cu67  1  0.49623344  0.33385100  0.50831492  1
  Cu+  Cu68  1  0.49970891  0.33351536  0.83133440  1
  Cu+  Cu69  1  0.50588680  0.66872255  0.16787767  1
  Cu+  Cu70  1  0.49754464  0.66790560  0.49734604  1
  Cu+  Cu71  1  0.50002812  0.66565530  0.83239915  1
  Cu+  Cu72  1  0.83461976  -0.00140887  0.16538392  1
  Cu+  Cu73  1  0.83109488  -0.00132548  0.49451758  1
  Cu+  Cu74  1  0.83622711  0.00000986  0.83292224  1
  Cu+  Cu75  1  0.83308553  0.33357727  0.16837832  1
  Cu+  Cu76  1  0.83227940  0.33621990  0.50462494  1
  Cu+  Cu77  1  0.83533614  0.32946696  0.83421329  1
  Cu+  Cu78  1  0.83033932  0.67138376  0.16954906  1
  Cu+  Cu79  1  0.83720313  0.66164454  0.49849259  1
  Cu+  Cu80  1  0.83084557  0.66560700  0.83147094  1
  Cu+  Cu81  1  0.00040589  0.16450503  0.16988702  1
  Cu+  Cu82  1  0.00067920  0.16587469  0.48928856  1
  Cu+  Cu83  1  0.00153608  0.16598649  0.83340163  1
  Cu+  Cu84  1  -0.00225125  0.50327940  0.16677297  1
  Cu+  Cu85  1  0.00162142  0.49682291  0.50394313  1
  Cu+  Cu86  1  -0.00363601  0.49734549  0.83436663  1
  Cu+  Cu87  1  -0.00119439  0.82895728  0.16803417  1
  Cu+  Cu88  1  0.00380233  0.82983277  0.50113993  1
  Cu+  Cu89  1  -0.00055131  0.83350608  0.83153496  1
  Cu+  Cu90  1  0.33145405  0.16923013  0.16805500  1
  Cu+  Cu91  1  0.33374759  0.17386319  0.50369032  1
  Cu+  Cu92  1  0.33511391  0.16287252  0.83477514  1
  Cu+  Cu93  1  0.33211617  0.50088520  0.16507122  1
  Cu+  Cu94  1  0.33535109  0.49811622  0.50199078  1
  Cu+  Cu95  1  0.33012859  0.50294185  0.83622036  1
  Cu+  Cu96  1  0.33031177  0.83706529  0.16906780  1
  Cu+  Cu97  1  0.33653594  0.82847262  0.50087001  1
  Cu+  Cu98  1  0.33251068  0.83611776  0.83055800  1
  Cu+  Cu99  1  0.66825325  0.16894994  0.16743460  1
  Cu+  Cu100  1  0.65908716  0.16885295  0.49903602  1
  Cu+  Cu101  1  0.66961372  0.16451260  0.83143867  1
  Cu+  Cu102  1  0.66407473  0.50450377  0.16831970  1
  Cu+  Cu103  1  0.67535101  0.49575895  0.50221672  1
  Cu+  Cu104  1  0.66449041  0.49978362  0.83212428  1
  Cu+  Cu105  1  0.66734706  0.82769179  0.16454638  1
  Cu+  Cu106  1  0.66631080  0.83907738  0.49500123  1
  Cu+  Cu107  1  0.66791775  0.83553103  0.83300123  1
  Cu+  Cu108  1  0.24876386  0.25998497  0.59927274  1
  Cu+  Cu109  1  0.59291483  0.59304087  0.26242041  1
  Cu+  Cu110  1  0.40402745  0.59071002  0.41018627  1
  Cu+  Cu111  1  0.40699054  0.07158007  0.93057182  1
  Cu+  Cu112  1  0.07208681  0.06748724  0.25117516  1
  Cu+  Cu113  1  0.73793737  0.92920524  0.40333653  1
  Cu+  Cu114  1  0.74534998  0.58799302  0.41315004  1
  Cu+  Cu115  1  0.07158857  0.73767985  0.59391807  1
  Cu+  Cu116  1  0.06526146  0.58664466  0.07076187  1
  Cu+  Cu117  1  0.07001063  0.26368721  0.40386936  1
  Cu+  Cu118  1  0.59351804  0.25748587  0.59790290  1
  Cu+  Cu119  1  0.74057217  0.74670033  0.26308440  1
  Cu+  Cu120  1  0.58501781  0.07757364  0.40498436  1
  Cu+  Cu121  1  0.25934879  0.92833272  0.26108920  1
  Cu+  Cu122  1  0.41289083  0.73953631  0.59736213  1
  Cu+  Cu123  1  0.41317755  0.26291267  0.40567330  1
  Cu+  Cu124  1  0.07199935  0.73656545  0.26142698  1
  Cu+  Cu125  1  0.26209381  0.26703377  0.25172468  1
  Cu+  Cu126  1  0.40464380  0.41220396  0.59981621  1
  Cu+  Cu127  1  0.06818787  0.74408979  0.92280439  1
  Cu+  Cu128  1  0.59552729  0.73934527  0.06801723  1
  Cu+  Cu129  1  0.40167067  0.73785501  0.24529029  1
  Cu+  Cu130  1  0.40389793  0.07156317  0.59086629  1
  Cu+  Cu131  1  0.74647942  0.40791918  0.59973866  1
  Cu+  Cu132  1  0.92821228  0.06729604  0.41042989  1
  Te2-  Te133  1  0.25128080  0.25417523  0.08123883  1
  Te2-  Te134  1  0.25714988  0.25568394  0.40693571  1
  Te2-  Te135  1  0.25396186  0.25295950  0.75141345  1
  Te2-  Te136  1  0.25156421  0.58760630  0.08242438  1
  Te2-  Te137  1  0.25213821  0.58618271  0.41711233  1
  Te2-  Te138  1  0.24960867  0.58796657  0.75131952  1
  Te2-  Te139  1  0.24865452  0.91554043  0.07792339  1
  Te2-  Te140  1  0.25863992  0.91525785  0.41220013  1
  Te2-  Te141  1  0.25226657  0.91823276  0.74297794  1
  Te2-  Te142  1  0.58477920  0.25138996  0.08058694  1
  Te2-  Te143  1  0.58130573  0.25873501  0.41515078  1
  Te2-  Te144  1  0.58731762  0.25229625  0.74845166  1
  Te2-  Te145  1  0.58615601  0.58666266  0.07661620  1
  Te2-  Te146  1  0.59149797  0.58724138  0.41832397  1
  Te2-  Te147  1  0.58505575  0.58553947  0.74635448  1
  Te2-  Te148  1  0.58824789  0.92048868  0.08342280  1
  Te2-  Te149  1  0.58246932  0.92152472  0.40737818  1
  Te2-  Te150  1  0.58402846  0.91946152  0.74845170  1
  Te2-  Te151  1  0.91933964  0.25076235  0.08433804  1
  Te2-  Te152  1  0.91599530  0.25847890  0.41318347  1
  Te2-  Te153  1  0.92083355  0.25044270  0.74696750  1
  Te2-  Te154  1  0.91352037  0.58897083  0.08090252  1
  Te2-  Te155  1  0.92687276  0.58406292  0.41630248  1
  Te2-  Te156  1  0.91772096  0.58385660  0.74848982  1
  Te2-  Te157  1  0.92120192  0.91750839  0.08248600  1
  Te2-  Te158  1  0.92402305  0.91527941  0.41304996  1
  Te2-  Te159  1  0.92008648  0.91892512  0.74607212  1
  Te2-  Te160  1  0.25420425  0.08113604  0.25472965  1
  Te2-  Te161  1  0.25170382  0.07796738  0.58211703  1
  Te2-  Te162  1  0.25265281  0.07732587  0.92083808  1
  Te2-  Te163  1  0.25527200  0.41795481  0.25501465  1
  Te2-  Te164  1  0.25189771  0.41288102  0.59082114  1
  Te2-  Te165  1  0.24976707  0.41727782  0.92211976  1
  Te2-  Te166  1  0.25021870  0.74031806  0.24935390  1
  Te2-  Te167  1  0.25651981  0.74481959  0.58752988  1
  Te2-  Te168  1  0.25468730  0.74889235  0.91672833  1
  Te2-  Te169  1  0.58550484  0.08338077  0.25222173  1
  Te2-  Te170  1  0.58618654  0.08049952  0.58786512  1
  Te2-  Te171  1  0.58644276  0.08136650  0.91750208  1
  Te2-  Te172  1  0.58424161  0.41668568  0.25225435  1
  Te2-  Te173  1  0.59043216  0.41385463  0.58985702  1
  Te2-  Te174  1  0.58374646  0.41461569  0.91791492  1
  Te2-  Te175  1  0.58924638  0.74718796  0.26003539  1
  Te2-  Te176  1  0.58628263  0.75066062  0.58060594  1
  Te2-  Te177  1  0.58716815  0.74725425  0.91645797  1
  Te2-  Te178  1  0.92040048  0.07453273  0.25554404  1
  Te2-  Te179  1  0.91890783  0.08184148  0.57944849  1
  Te2-  Te180  1  0.92081772  0.08080279  0.91908972  1
  Te2-  Te181  1  0.91776761  0.41750226  0.25204521  1
  Te2-  Te182  1  0.92397398  0.41032373  0.58929341  1
  Te2-  Te183  1  0.91651969  0.41321719  0.92126294  1
  Te2-  Te184  1  0.91835560  0.74684515  0.25708874  1
  Te2-  Te185  1  0.91820644  0.74578362  0.58507010  1
  Te2-  Te186  1  0.91694771  0.74604289  0.91808485  1
  Te2-  Te187  1  0.07571918  0.25931429  0.25059085  1
  Te2-  Te188  1  0.08193180  0.24647692  0.58225312  1
  Te2-  Te189  1  0.08283152  0.24956849  0.92040188  1
  Te2-  Te190  1  0.07767906  0.58385694  0.25908902  1
  Te2-  Te191  1  0.08129188  0.58301090  0.58949290  1
  Te2-  Te192  1  0.07425963  0.58735165  0.91979350  1
  Te2-  Te193  1  0.07881405  0.91582304  0.25357931  1
  Te2-  Te194  1  0.08480957  0.92011412  0.58125209  1
  Te2-  Te195  1  0.08156755  0.92045307  0.91550132  1
  Te2-  Te196  1  0.41480080  0.25855709  0.25176124  1
  Te2-  Te197  1  0.40776621  0.25796744  0.59691523  1
  Te2-  Te198  1  0.41495580  0.25281082  0.91740874  1
  Te2-  Te199  1  0.40942964  0.58805977  0.25350010  1
  Te2-  Te200  1  0.41550121  0.58603343  0.58897548  1
  Te2-  Te201  1  0.41357561  0.58787831  0.91854145  1
  Te2-  Te202  1  0.41398747  0.92499032  0.25190445  1
  Te2-  Te203  1  0.41477177  0.91963097  0.58403723  1
  Te2-  Te204  1  0.41343014  0.91661679  0.92221416  1
  Te2-  Te205  1  0.74985986  0.25139528  0.25468535  1
  Te2-  Te206  1  0.74667201  0.25107619  0.58754870  1
  Te2-  Te207  1  0.74908135  0.24915136  0.91920664  1
  Te2-  Te208  1  0.74543149  0.59032505  0.25787140  1
  Te2-  Te209  1  0.75236868  0.58468460  0.58874225  1
  Te2-  Te210  1  0.74555853  0.58514539  0.91770048  1
  Te2-  Te211  1  0.74463625  0.92111049  0.24969351  1
  Te2-  Te212  1  0.74899770  0.91872645  0.58484197  1
  Te2-  Te213  1  0.74958295  0.92031604  0.91782171  1
  Te2-  Te214  1  0.08235487  0.07978585  0.08269938  1
  Te2-  Te215  1  0.08350658  0.07462816  0.40788110  1
  Te2-  Te216  1  0.08276474  0.08101214  0.74725116  1
  Te2-  Te217  1  0.08012069  0.41540522  0.08350367  1
  Te2-  Te218  1  0.08185063  0.41442978  0.41520943  1
  Te2-  Te219  1  0.08033957  0.41301964  0.75102767  1
  Te2-  Te220  1  0.07522701  0.74532119  0.07629013  1
  Te2-  Te221  1  0.08297343  0.74418477  0.41312135  1
  Te2-  Te222  1  0.07908240  0.74660951  0.74470773  1
  Te2-  Te223  1  0.41180703  0.08141104  0.08334591  1
  Te2-  Te224  1  0.40974203  0.08310117  0.41584070  1
  Te2-  Te225  1  0.41249369  0.07790829  0.74462657  1
  Te2-  Te226  1  0.41439007  0.41768561  0.08030493  1
  Te2-  Te227  1  0.41627313  0.41552597  0.41212094  1
  Te2-  Te228  1  0.40948530  0.41411166  0.75096219  1
  Te2-  Te229  1  0.41383650  0.74946207  0.08357709  1
  Te2-  Te230  1  0.41046727  0.74505271  0.40721437  1
  Te2-  Te231  1  0.41383022  0.74736341  0.74840123  1
  Te2-  Te232  1  0.74908704  0.08179024  0.08284690  1
  Te2-  Te233  1  0.74110700  0.08245977  0.41048940  1
  Te2-  Te234  1  0.75000333  0.07889141  0.74622734  1
  Te2-  Te235  1  0.74607721  0.41647404  0.08506826  1
  Te2-  Te236  1  0.75155899  0.41263527  0.41136424  1
  Te2-  Te237  1  0.74654423  0.41031153  0.75064984  1
  Te2-  Te238  1  0.75009778  0.74735483  0.07520409  1
  Te2-  Te239  1  0.74556131  0.74387007  0.41547325  1
  Te2-  Te240  1  0.74726175  0.74899453  0.74657357  1
