# generated using pymatgen
data_Ti27(Cu53Te54)2
_symmetry_space_group_name_H-M   'P 1'
_cell_length_a   17.87481209
_cell_length_b   17.87309240
_cell_length_c   17.87331169
_cell_angle_alpha   89.99430235
_cell_angle_beta   90.03605393
_cell_angle_gamma   89.99172675
_symmetry_Int_Tables_number   1
_chemical_formula_structural   Ti27(Cu53Te54)2
_chemical_formula_sum   'Ti27 Cu106 Te108'
_cell_volume   5710.13165573
_cell_formula_units_Z   1
loop_
 _symmetry_equiv_pos_site_id
 _symmetry_equiv_pos_as_xyz
  1  'x, y, z'
loop_
 _atom_type_symbol
 _atom_type_oxidation_number
  Ti4+  4.0
  Cu+  1.0
  Te2-  -2.0
loop_
 _atom_site_type_symbol
 _atom_site_label
 _atom_site_symmetry_multiplicity
 _atom_site_fract_x
 _atom_site_fract_y
 _atom_site_fract_z
 _atom_site_occupancy
  Ti4+  Ti0  1  0.16670769  0.16727982  0.16897840  1
  Ti4+  Ti1  1  0.16502184  0.16638502  0.50233570  1
  Ti4+  Ti2  1  0.16814018  0.16789224  0.83264571  1
  Ti4+  Ti3  1  0.16620367  0.50027630  0.16690632  1
  Ti4+  Ti4  1  0.16584546  0.49911910  0.49890255  1
  Ti4+  Ti5  1  0.16865819  0.50070655  0.83327926  1
  Ti4+  Ti6  1  0.16489959  0.83395639  0.16703086  1
  Ti4+  Ti7  1  0.16502104  0.83150556  0.49936508  1
  Ti4+  Ti8  1  0.16639473  0.83017311  0.83403733  1
  Ti4+  Ti9  1  0.49693219  0.16550163  0.16953857  1
  Ti4+  Ti10  1  0.49901679  0.16636092  0.50058774  1
  Ti4+  Ti11  1  0.50641988  0.16515445  0.83575447  1
  Ti4+  Ti12  1  0.49977378  0.50492607  0.16599737  1
  Ti4+  Ti13  1  0.50063643  0.49912327  0.49985771  1
  Ti4+  Ti14  1  0.49989870  0.49915266  0.83494951  1
  Ti4+  Ti15  1  0.49908643  0.83433241  0.16761725  1
  Ti4+  Ti16  1  0.49957785  0.83638310  0.49856330  1
  Ti4+  Ti17  1  0.49389128  0.83773255  0.83398725  1
  Ti4+  Ti18  1  0.83549509  0.16679804  0.16586113  1
  Ti4+  Ti19  1  0.83344814  0.16794381  0.49785932  1
  Ti4+  Ti20  1  0.83418708  0.16592442  0.83072803  1
  Ti4+  Ti21  1  0.83122968  0.49973097  0.16061373  1
  Ti4+  Ti22  1  0.83307880  0.49911926  0.50044129  1
  Ti4+  Ti23  1  0.83387764  0.50129484  0.83533657  1
  Ti4+  Ti24  1  0.83669859  0.83296122  0.16484036  1
  Ti4+  Ti25  1  0.83224208  0.83197935  0.49827153  1
  Ti4+  Ti26  1  0.83363369  0.83270872  0.83383271  1
  Cu+  Cu27  1  0.16819986  0.16992488  0.00325507  1
  Cu+  Cu28  1  0.16261672  0.16916257  0.33775177  1
  Cu+  Cu29  1  0.16799782  0.16511792  0.66855245  1
  Cu+  Cu30  1  0.16829017  0.50247117  -0.00095950  1
  Cu+  Cu31  1  0.16565257  0.50024356  0.33403687  1
  Cu+  Cu32  1  0.16654828  0.49891520  0.66477014  1
  Cu+  Cu33  1  0.16889230  0.83579548  -0.00184864  1
  Cu+  Cu34  1  0.16321177  0.83007433  0.33349671  1
  Cu+  Cu35  1  0.16689328  0.82837789  0.66653268  1
  Cu+  Cu36  1  0.50261143  0.15879283  0.00446773  1
  Cu+  Cu37  1  0.49654451  0.16173123  0.33529907  1
  Cu+  Cu38  1  0.50305546  0.16977196  0.67049512  1
  Cu+  Cu39  1  0.50388787  0.49922937  0.00307803  1
  Cu+  Cu40  1  0.49793613  0.50050945  0.33046413  1
  Cu+  Cu41  1  0.50170828  0.49974427  0.66646734  1
  Cu+  Cu42  1  0.49251836  0.83697186  0.00071624  1
  Cu+  Cu43  1  0.50528364  0.83176638  0.33723365  1
  Cu+  Cu44  1  0.49541515  0.83781637  0.66270773  1
  Cu+  Cu45  1  0.83258309  0.16586171  -0.00171615  1
  Cu+  Cu46  1  0.83196322  0.16765238  0.32994226  1
  Cu+  Cu47  1  0.83687913  0.17101068  0.66199641  1
  Cu+  Cu48  1  0.82822873  0.49775895  -0.00197134  1
  Cu+  Cu49  1  0.83199222  0.49937787  0.33365788  1
  Cu+  Cu50  1  0.83316230  0.50163463  0.66871048  1
  Cu+  Cu51  1  0.84382649  0.83429041  -0.00122089  1
  Cu+  Cu52  1  0.83409700  0.83312066  0.32982508  1
  Cu+  Cu53  1  0.82926987  0.83216665  0.66582644  1
  Cu+  Cu54  1  0.16497912  0.00341851  0.16775839  1
  Cu+  Cu55  1  0.16507920  -0.00159810  0.50163784  1
  Cu+  Cu56  1  0.16790166  -0.00065390  0.83270111  1
  Cu+  Cu57  1  0.16760644  0.33271583  0.16710908  1
  Cu+  Cu58  1  0.16225619  0.33293920  0.49802912  1
  Cu+  Cu59  1  0.16829426  0.33558463  0.83413935  1
  Cu+  Cu60  1  0.16435262  0.66645857  0.16914200  1
  Cu+  Cu61  1  0.16641761  0.66343182  0.49899013  1
  Cu+  Cu62  1  0.16920491  0.66611111  0.82798102  1
  Cu+  Cu63  1  0.49476871  0.00048429  0.16773106  1
  Cu+  Cu64  1  0.50202112  0.00238811  0.49734559  1
  Cu+  Cu65  1  0.50709152  0.00251477  0.83915263  1
  Cu+  Cu66  1  0.49706839  0.33834536  0.17075630  1
  Cu+  Cu67  1  0.50066746  0.33289668  0.50060113  1
  Cu+  Cu68  1  0.49997008  0.32787278  0.83063324  1
  Cu+  Cu69  1  0.50085201  0.66813567  0.16764005  1
  Cu+  Cu70  1  0.49945646  0.66666141  0.49929733  1
  Cu+  Cu71  1  0.49343852  0.66655386  0.83368584  1
  Cu+  Cu72  1  0.84012422  -0.00217988  0.16814464  1
  Cu+  Cu73  1  0.83122735  -0.00054218  0.49778903  1
  Cu+  Cu74  1  0.83453802  -0.00056690  0.83360562  1
  Cu+  Cu75  1  0.83554786  0.33164554  0.16092417  1
  Cu+  Cu76  1  0.83612017  0.33341894  0.50293282  1
  Cu+  Cu77  1  0.83346757  0.33605267  0.83512495  1
  Cu+  Cu78  1  0.83022594  0.66744411  0.15941964  1
  Cu+  Cu79  1  0.83373259  0.66333049  0.50056622  1
  Cu+  Cu80  1  0.83179427  0.66751546  0.83208791  1
  Cu+  Cu81  1  0.00161813  0.16677885  0.16631955  1
  Cu+  Cu82  1  -0.00056981  0.17284143  0.49962176  1
  Cu+  Cu83  1  0.00386253  0.16855025  0.83134973  1
  Cu+  Cu84  1  -0.00164349  0.49797593  0.16235010  1
  Cu+  Cu85  1  -0.00104299  0.49965751  0.50033116  1
  Cu+  Cu86  1  0.00241506  0.50313224  0.83393796  1
  Cu+  Cu87  1  0.00081341  0.82958898  0.16919882  1
  Cu+  Cu88  1  -0.00135991  0.83164251  0.50020809  1
  Cu+  Cu89  1  -0.00135528  0.83528133  0.83473954  1
  Cu+  Cu90  1  0.33045781  0.16604218  0.17602612  1
  Cu+  Cu91  1  0.32986250  0.16720205  0.50510225  1
  Cu+  Cu92  1  0.33709983  0.17064357  0.83223091  1
  Cu+  Cu93  1  0.33347010  0.50209900  0.17085976  1
  Cu+  Cu94  1  0.33229129  0.49958749  0.49890450  1
  Cu+  Cu95  1  0.33338734  0.49906116  0.83355631  1
  Cu+  Cu96  1  0.33292347  0.83786886  0.16517180  1
  Cu+  Cu97  1  0.33363499  0.83620296  0.49879660  1
  Cu+  Cu98  1  0.32845269  0.82618165  0.83703641  1
  Cu+  Cu99  1  0.66786644  0.16752929  0.16447603  1
  Cu+  Cu100  1  0.66652681  0.16554498  0.49660658  1
  Cu+  Cu101  1  0.67227158  0.15739604  0.83143620  1
  Cu+  Cu102  1  0.66476026  0.50539905  0.15518283  1
  Cu+  Cu103  1  0.66847445  0.49836879  0.50053144  1
  Cu+  Cu104  1  0.66556406  0.49877180  0.83685679  1
  Cu+  Cu105  1  0.67263735  0.82900323  0.16961883  1
  Cu+  Cu106  1  0.66441196  0.83228633  0.49685899  1
  Cu+  Cu107  1  0.66391721  0.83739942  0.83148524  1
  Cu+  Cu108  1  0.40682841  0.25930747  0.73919803  1
  Cu+  Cu109  1  0.93176239  0.73854054  0.07121170  1
  Cu+  Cu110  1  0.07047274  0.26266864  0.40419852  1
  Cu+  Cu111  1  0.40331394  0.41142739  0.26169557  1
  Cu+  Cu112  1  0.40360491  0.92844491  0.07712054  1
  Cu+  Cu113  1  0.07703979  0.73445434  0.26432191  1
  Cu+  Cu114  1  0.59626778  0.07623251  0.40539963  1
  Cu+  Cu115  1  0.92802251  0.92780823  0.26341349  1
  Cu+  Cu116  1  0.59238317  0.73391549  0.41372709  1
  Cu+  Cu117  1  0.59613442  0.06968180  0.08546096  1
  Cu+  Cu118  1  0.58708368  0.40375695  0.07875227  1
  Cu+  Cu119  1  0.93163269  0.40245693  0.07312664  1
  Cu+  Cu120  1  0.59615285  0.07350669  0.73641396  1
  Cu+  Cu121  1  0.40088915  0.06942213  0.26602355  1
  Cu+  Cu122  1  0.92990343  0.26343130  0.59500662  1
  Cu+  Cu123  1  0.25405857  0.92806762  0.92249171  1
  Cu+  Cu124  1  0.75166336  0.06987052  0.92853742  1
  Cu+  Cu125  1  0.74598851  0.73666768  0.25938732  1
  Cu+  Cu126  1  0.73814338  0.40358618  0.92129033  1
  Cu+  Cu127  1  0.40586139  0.73505889  0.92954644  1
  Cu+  Cu128  1  0.93029844  0.93109935  0.92290021  1
  Cu+  Cu129  1  0.73723331  0.59985158  0.06675058  1
  Cu+  Cu130  1  0.40461474  0.08515800  0.92397664  1
  Cu+  Cu131  1  0.25869711  0.73657059  0.73351825  1
  Cu+  Cu132  1  0.59431960  0.91488882  0.93058232  1
  Te2-  Te133  1  0.25501551  0.25193742  0.08497647  1
  Te2-  Te134  1  0.25225772  0.25207305  0.41730897  1
  Te2-  Te135  1  0.25300881  0.25458207  0.74691224  1
  Te2-  Te136  1  0.25194831  0.58617103  0.08442429  1
  Te2-  Te137  1  0.25203614  0.58480651  0.41311336  1
  Te2-  Te138  1  0.25593704  0.58346363  0.74331653  1
  Te2-  Te139  1  0.25046282  0.92486411  0.08088386  1
  Te2-  Te140  1  0.24832489  0.91765355  0.41319472  1
  Te2-  Te141  1  0.25277101  0.91573962  0.74804437  1
  Te2-  Te142  1  0.58218690  0.25232563  0.08283934  1
  Te2-  Te143  1  0.58302783  0.25105965  0.41272329  1
  Te2-  Te144  1  0.59415866  0.25111900  0.75030879  1
  Te2-  Te145  1  0.58349126  0.59584534  0.07535981  1
  Te2-  Te146  1  0.58728258  0.58263661  0.41234577  1
  Te2-  Te147  1  0.58365353  0.58549381  0.75184313  1
  Te2-  Te148  1  0.59079885  0.91773347  0.08349483  1
  Te2-  Te149  1  0.58906584  0.92306900  0.41164298  1
  Te2-  Te150  1  0.58342678  0.91997453  0.74380208  1
  Te2-  Te151  1  0.92184137  0.24906895  0.07655804  1
  Te2-  Te152  1  0.91696517  0.25559486  0.40900948  1
  Te2-  Te153  1  0.92024380  0.25551392  0.74977311  1
  Te2-  Te154  1  0.91980073  0.58573773  0.07520021  1
  Te2-  Te155  1  0.91831394  0.58414024  0.41349079  1
  Te2-  Te156  1  0.91860351  0.58633989  0.74923463  1
  Te2-  Te157  1  0.92667401  0.92207875  0.08006976  1
  Te2-  Te158  1  0.91955945  0.91858968  0.41458950  1
  Te2-  Te159  1  0.91695362  0.91740428  0.74580474  1
  Te2-  Te160  1  0.24785931  0.07917968  0.25989543  1
  Te2-  Te161  1  0.25052735  0.07895660  0.58719777  1
  Te2-  Te162  1  0.25327531  0.08280195  0.92182790  1
  Te2-  Te163  1  0.25071623  0.41364868  0.25447745  1
  Te2-  Te164  1  0.25096807  0.41255701  0.58327229  1
  Te2-  Te165  1  0.25349162  0.41500485  0.92018668  1
  Te2-  Te166  1  0.25345508  0.75021453  0.25046736  1
  Te2-  Te167  1  0.25442374  0.74522252  0.58174869  1
  Te2-  Te168  1  0.25029865  0.74037331  0.92494462  1
  Te2-  Te169  1  0.58778674  0.07891292  0.25153020  1
  Te2-  Te170  1  0.58687263  0.08167831  0.58620413  1
  Te2-  Te171  1  0.59624504  0.07549553  0.92856258  1
  Te2-  Te172  1  0.59041711  0.41996387  0.24916792  1
  Te2-  Te173  1  0.58623512  0.41364819  0.58544372  1
  Te2-  Te174  1  0.58446945  0.40778193  0.92061234  1
  Te2-  Te175  1  0.58730152  0.74570928  0.25313425  1
  Te2-  Te176  1  0.58320308  0.74992997  0.58626453  1
  Te2-  Te177  1  0.58088215  0.75150777  0.91797875  1
  Te2-  Te178  1  0.92204890  0.08322404  0.25387535  1
  Te2-  Te179  1  0.91936405  0.08085838  0.58140338  1
  Te2-  Te180  1  0.92346476  0.08307223  0.91845464  1
  Te2-  Te181  1  0.91526973  0.41549646  0.24905001  1
  Te2-  Te182  1  0.92052455  0.41605952  0.58978625  1
  Te2-  Te183  1  0.92331949  0.41513936  0.92002598  1
  Te2-  Te184  1  0.91911332  0.74012261  0.25247948  1
  Te2-  Te185  1  0.91600146  0.74786651  0.58528992  1
  Te2-  Te186  1  0.92207186  0.74261629  0.91612197  1
  Te2-  Te187  1  0.07885791  0.25506712  0.25153440  1
  Te2-  Te188  1  0.08190730  0.25452802  0.59179290  1
  Te2-  Te189  1  0.08383985  0.25284691  0.91847472  1
  Te2-  Te190  1  0.07622645  0.58258663  0.25276532  1
  Te2-  Te191  1  0.08062241  0.58463691  0.58510349  1
  Te2-  Te192  1  0.08418278  0.58848436  0.91783062  1
  Te2-  Te193  1  0.08050853  0.92131087  0.25353859  1
  Te2-  Te194  1  0.08088921  0.91535045  0.58690609  1
  Te2-  Te195  1  0.08135536  0.92136434  0.91998860  1
  Te2-  Te196  1  0.41447281  0.25423465  0.25657803  1
  Te2-  Te197  1  0.41437051  0.25301076  0.58688411  1
  Te2-  Te198  1  0.41925261  0.24993297  0.92462681  1
  Te2-  Te199  1  0.41412878  0.59086011  0.25301937  1
  Te2-  Te200  1  0.41530574  0.58446532  0.58458276  1
  Te2-  Te201  1  0.41290182  0.58217641  0.92293636  1
  Te2-  Te202  1  0.41414633  0.91654754  0.25833328  1
  Te2-  Te203  1  0.41316696  0.92392417  0.58195398  1
  Te2-  Te204  1  0.40631504  0.92808452  0.92158941  1
  Te2-  Te205  1  0.74875496  0.25351273  0.24804896  1
  Te2-  Te206  1  0.74496718  0.25194297  0.58260052  1
  Te2-  Te207  1  0.74617360  0.25055554  0.91772169  1
  Te2-  Te208  1  0.74619435  0.58400272  0.24998175  1
  Te2-  Te209  1  0.74741376  0.58468732  0.58644623  1
  Te2-  Te210  1  0.74452640  0.59041545  0.91740027  1
  Te2-  Te211  1  0.74921480  0.92080040  0.25021457  1
  Te2-  Te212  1  0.74632519  0.91736094  0.58254324  1
  Te2-  Te213  1  0.74717155  0.91813158  0.92413969  1
  Te2-  Te214  1  0.08203642  0.08300303  0.08050805  1
  Te2-  Te215  1  0.07837219  0.08045167  0.41799037  1
  Te2-  Te216  1  0.08285938  0.08024873  0.74875600  1
  Te2-  Te217  1  0.08398197  0.41297574  0.07822895  1
  Te2-  Te218  1  0.07677233  0.41519364  0.41160696  1
  Te2-  Te219  1  0.08195389  0.41566765  0.74892000  1
  Te2-  Te220  1  0.08344940  0.74744553  0.07702800  1
  Te2-  Te221  1  0.07761715  0.74327543  0.41559818  1
  Te2-  Te222  1  0.07750244  0.74786904  0.74890528  1
  Te2-  Te223  1  0.40527393  0.08111270  0.08163241  1
  Te2-  Te224  1  0.40742513  0.08032881  0.41838653  1
  Te2-  Te225  1  0.41799820  0.07952289  0.74946517  1
  Te2-  Te226  1  0.41221898  0.41731262  0.08165972  1
  Te2-  Te227  1  0.41382278  0.41256529  0.41446842  1
  Te2-  Te228  1  0.41511912  0.41411891  0.74715153  1
  Te2-  Te229  1  0.41195610  0.74623380  0.08350273  1
  Te2-  Te230  1  0.41355950  0.74921811  0.41408637  1
  Te2-  Te231  1  0.41331296  0.74938804  0.74400953  1
  Te2-  Te232  1  0.75014667  0.07516703  0.08224183  1
  Te2-  Te233  1  0.74887140  0.08025800  0.41011010  1
  Te2-  Te234  1  0.75382331  0.07783716  0.73953380  1
  Te2-  Te235  1  0.74247424  0.40738565  0.07687698  1
  Te2-  Te236  1  0.74897349  0.41217903  0.41494335  1
  Te2-  Te237  1  0.74770901  0.41635000  0.74885929  1
  Te2-  Te238  1  0.74638351  0.75251803  0.07205451  1
  Te2-  Te239  1  0.74710180  0.74282345  0.41154018  1
  Te2-  Te240  1  0.74470495  0.74956687  0.74990671  1
