# generated using pymatgen
data_Ti27(Cu53Te54)2
_symmetry_space_group_name_H-M   'P 1'
_cell_length_a   17.88557276
_cell_length_b   17.88268099
_cell_length_c   17.88535334
_cell_angle_alpha   90.03128386
_cell_angle_beta   89.98415083
_cell_angle_gamma   90.00428459
_symmetry_Int_Tables_number   1
_chemical_formula_structural   Ti27(Cu53Te54)2
_chemical_formula_sum   'Ti27 Cu106 Te108'
_cell_volume   5720.48595299
_cell_formula_units_Z   1
loop_
 _symmetry_equiv_pos_site_id
 _symmetry_equiv_pos_as_xyz
  1  'x, y, z'
loop_
 _atom_type_symbol
 _atom_type_oxidation_number
  Ti4+  4.0
  Cu+  1.0
  Te2-  -2.0
loop_
 _atom_site_type_symbol
 _atom_site_label
 _atom_site_symmetry_multiplicity
 _atom_site_fract_x
 _atom_site_fract_y
 _atom_site_fract_z
 _atom_site_occupancy
  Ti4+  Ti0  1  0.16759203  0.16814306  0.16680152  1
  Ti4+  Ti1  1  0.16047185  0.16546118  0.50245129  1
  Ti4+  Ti2  1  0.16752080  0.16862388  0.83340845  1
  Ti4+  Ti3  1  0.16352051  0.50166009  0.16735059  1
  Ti4+  Ti4  1  0.16726721  0.49651752  0.49982338  1
  Ti4+  Ti5  1  0.17070352  0.49843159  0.83671913  1
  Ti4+  Ti6  1  0.16347929  0.83499545  0.16714237  1
  Ti4+  Ti7  1  0.16475380  0.83217974  0.50036804  1
  Ti4+  Ti8  1  0.16635938  0.83173865  0.83325139  1
  Ti4+  Ti9  1  0.49822073  0.16103056  0.16453369  1
  Ti4+  Ti10  1  0.49900450  0.16660041  0.49916443  1
  Ti4+  Ti11  1  0.50009699  0.16727107  0.83301707  1
  Ti4+  Ti12  1  0.50234724  0.49918473  0.16914910  1
  Ti4+  Ti13  1  0.49775317  0.50174445  0.50051650  1
  Ti4+  Ti14  1  0.50369972  0.50366644  0.83274447  1
  Ti4+  Ti15  1  0.50051920  0.83842044  0.16803367  1
  Ti4+  Ti16  1  0.50277288  0.83381707  0.50127799  1
  Ti4+  Ti17  1  0.49833828  0.83367885  0.83269457  1
  Ti4+  Ti18  1  0.83078839  0.16633110  0.16400233  1
  Ti4+  Ti19  1  0.83714078  0.16647405  0.49725047  1
  Ti4+  Ti20  1  0.83313917  0.16737183  0.83301108  1
  Ti4+  Ti21  1  0.83525855  0.50163950  0.16443199  1
  Ti4+  Ti22  1  0.83541532  0.49622938  0.49896741  1
  Ti4+  Ti23  1  0.83461477  0.50153361  0.83323952  1
  Ti4+  Ti24  1  0.83371393  0.83292594  0.16723170  1
  Ti4+  Ti25  1  0.83491916  0.83082694  0.50105695  1
  Ti4+  Ti26  1  0.83306868  0.83381246  0.83233540  1
  Cu+  Cu27  1  0.16875727  0.17461114  0.00128009  1
  Cu+  Cu28  1  0.15889555  0.16311140  0.33301200  1
  Cu+  Cu29  1  0.17113282  0.16642976  0.66662679  1
  Cu+  Cu30  1  0.16889446  0.50043600  0.00606267  1
  Cu+  Cu31  1  0.16447187  0.50341967  0.33275058  1
  Cu+  Cu32  1  0.16944542  0.49483447  0.66890307  1
  Cu+  Cu33  1  0.16557041  0.83436769  -0.00297646  1
  Cu+  Cu34  1  0.16275417  0.83440131  0.33383841  1
  Cu+  Cu35  1  0.16687827  0.82910719  0.66820098  1
  Cu+  Cu36  1  0.49517541  0.15531030  -0.00459200  1
  Cu+  Cu37  1  0.49865648  0.16363545  0.33165299  1
  Cu+  Cu38  1  0.49948306  0.16792261  0.66718907  1
  Cu+  Cu39  1  0.50396367  0.50075833  0.00113200  1
  Cu+  Cu40  1  0.50152481  0.49774022  0.33691334  1
  Cu+  Cu41  1  0.49913962  0.50781905  0.66740941  1
  Cu+  Cu42  1  0.49702582  0.83489758  -0.00013547  1
  Cu+  Cu43  1  0.50252826  0.84112151  0.33784837  1
  Cu+  Cu44  1  0.50117519  0.83334280  0.66549820  1
  Cu+  Cu45  1  0.83315231  0.16721093  -0.00430261  1
  Cu+  Cu46  1  0.83076811  0.16268625  0.33047438  1
  Cu+  Cu47  1  0.83545360  0.16713551  0.66651967  1
  Cu+  Cu48  1  0.83454675  0.50229393  -0.00220247  1
  Cu+  Cu49  1  0.83677458  0.49602383  0.33029517  1
  Cu+  Cu50  1  0.83365852  0.50193991  0.67013913  1
  Cu+  Cu51  1  0.83185129  0.83199225  -0.00109555  1
  Cu+  Cu52  1  0.83326628  0.82872776  0.33464449  1
  Cu+  Cu53  1  0.83683907  0.83320413  0.66616006  1
  Cu+  Cu54  1  0.16459306  0.00447509  0.16999194  1
  Cu+  Cu55  1  0.15913549  -0.00329232  0.49572862  1
  Cu+  Cu56  1  0.16669286  -0.00211643  0.83137454  1
  Cu+  Cu57  1  0.16611373  0.33509376  0.16018141  1
  Cu+  Cu58  1  0.16011325  0.33078408  0.50728570  1
  Cu+  Cu59  1  0.17290310  0.33045972  0.83879745  1
  Cu+  Cu60  1  0.16210501  0.66878862  0.16622615  1
  Cu+  Cu61  1  0.16617657  0.66380715  0.49864845  1
  Cu+  Cu62  1  0.16882028  0.66726464  0.83466737  1
  Cu+  Cu63  1  0.49894187  -0.00112686  0.16466159  1
  Cu+  Cu64  1  0.49904863  -0.00052708  0.49865501  1
  Cu+  Cu65  1  0.49758836  0.00052895  0.83439042  1
  Cu+  Cu66  1  0.50383794  0.32524860  0.16601796  1
  Cu+  Cu67  1  0.49854312  0.33641388  0.49952049  1
  Cu+  Cu68  1  0.50265094  0.33823268  0.83439512  1
  Cu+  Cu69  1  0.50228718  0.66814211  0.17012223  1
  Cu+  Cu70  1  0.50134252  0.66864295  0.50172875  1
  Cu+  Cu71  1  0.49876280  0.66758743  0.83031976  1
  Cu+  Cu72  1  0.82951476  -0.00384273  0.16135451  1
  Cu+  Cu73  1  0.83824143  -0.00145951  0.50309804  1
  Cu+  Cu74  1  0.83231665  0.00316529  0.83179680  1
  Cu+  Cu75  1  0.83112279  0.33602207  0.16814282  1
  Cu+  Cu76  1  0.84365252  0.33328817  0.49440480  1
  Cu+  Cu77  1  0.83277801  0.33604353  0.83389014  1
  Cu+  Cu78  1  0.83411230  0.66817632  0.16674938  1
  Cu+  Cu79  1  0.83472698  0.66499099  0.50093542  1
  Cu+  Cu80  1  0.83386658  0.66727709  0.83141848  1
  Cu+  Cu81  1  -0.00123301  0.16840161  0.16424297  1
  Cu+  Cu82  1  -0.00237491  0.17691033  0.49971321  1
  Cu+  Cu83  1  0.00052116  0.16494486  0.83227503  1
  Cu+  Cu84  1  0.00179052  0.50718976  0.16242745  1
  Cu+  Cu85  1  0.00300624  0.49334198  0.49792959  1
  Cu+  Cu86  1  -0.00071982  0.50005162  0.83449672  1
  Cu+  Cu87  1  -0.00406134  0.83337816  0.16726873  1
  Cu+  Cu88  1  -0.00203418  0.83523424  0.50276183  1
  Cu+  Cu89  1  0.00164777  0.83195630  0.83194453  1
  Cu+  Cu90  1  0.33606990  0.16059397  0.16918949  1
  Cu+  Cu91  1  0.32701702  0.16627096  0.50193436  1
  Cu+  Cu92  1  0.33316154  0.16862852  0.83543747  1
  Cu+  Cu93  1  0.33384254  0.49947184  0.17092508  1
  Cu+  Cu94  1  0.33351799  0.49931536  0.50174237  1
  Cu+  Cu95  1  0.34162063  0.50167547  0.83434304  1
  Cu+  Cu96  1  0.32786972  0.83556852  0.16723299  1
  Cu+  Cu97  1  0.33397781  0.83140201  0.50031853  1
  Cu+  Cu98  1  0.32824792  0.83071363  0.83204559  1
  Cu+  Cu99  1  0.66078127  0.16323959  0.16410628  1
  Cu+  Cu100  1  0.67040225  0.16557717  0.49951427  1
  Cu+  Cu101  1  0.66873258  0.17017850  0.83029150  1
  Cu+  Cu102  1  0.67057305  0.49863006  0.16858343  1
  Cu+  Cu103  1  0.66384998  0.49823539  0.49853668  1
  Cu+  Cu104  1  0.66908811  0.50319462  0.83206827  1
  Cu+  Cu105  1  0.66984820  0.84047611  0.16699268  1
  Cu+  Cu106  1  0.67079496  0.83102977  0.50153000  1
  Cu+  Cu107  1  0.66365665  0.83294447  0.83296600  1
  Cu+  Cu108  1  0.91650811  0.26346329  0.60010879  1
  Cu+  Cu109  1  0.40537683  0.59724304  0.73907496  1
  Cu+  Cu110  1  0.07312451  0.41091359  0.60256057  1
  Cu+  Cu111  1  0.06632585  0.07620534  0.25536764  1
  Cu+  Cu112  1  0.58993012  0.25155066  0.25970277  1
  Cu+  Cu113  1  0.06764147  0.25892145  0.07044658  1
  Cu+  Cu114  1  0.59022885  0.40685217  0.41312862  1
  Cu+  Cu115  1  0.41711717  0.41204093  0.92738975  1
  Cu+  Cu116  1  0.26479912  0.25642045  0.93025028  1
  Cu+  Cu117  1  0.06763338  0.92264225  0.40621558  1
  Cu+  Cu118  1  0.07211129  0.59412081  0.41176084  1
  Cu+  Cu119  1  0.39769440  0.91655855  0.06988561  1
  Cu+  Cu120  1  0.92730614  0.92698393  0.59812922  1
  Cu+  Cu121  1  0.40831733  0.07197976  0.26208951  1
  Cu+  Cu122  1  0.59408652  0.07523171  0.06523574  1
  Cu+  Cu123  1  0.26377161  0.41167649  0.08148321  1
  Cu+  Cu124  1  0.40316083  0.92452914  0.41441729  1
  Cu+  Cu125  1  0.60254565  0.92085467  0.26894381  1
  Cu+  Cu126  1  0.74353669  0.40893766  0.25952194  1
  Cu+  Cu127  1  0.39956121  0.06904384  0.91551330  1
  Cu+  Cu128  1  0.07810716  0.25921988  0.40353283  1
  Cu+  Cu129  1  0.26069357  0.25873848  0.59177441  1
  Cu+  Cu130  1  0.93084506  0.40813602  0.39790413  1
  Cu+  Cu131  1  0.07446198  0.60011938  0.06920349  1
  Cu+  Cu132  1  0.74362088  0.92291278  0.06632158  1
  Te2-  Te133  1  0.26226718  0.25335152  0.08354007  1
  Te2-  Te134  1  0.24477607  0.25105036  0.41477639  1
  Te2-  Te135  1  0.25640326  0.25416818  0.74672463  1
  Te2-  Te136  1  0.25389874  0.58807255  0.08605985  1
  Te2-  Te137  1  0.25337086  0.58293881  0.41492957  1
  Te2-  Te138  1  0.25262177  0.58416823  0.74867780  1
  Te2-  Te139  1  0.24613979  0.92260903  0.08028095  1
  Te2-  Te140  1  0.25084458  0.91873610  0.41377558  1
  Te2-  Te141  1  0.25142388  0.91761852  0.74605239  1
  Te2-  Te142  1  0.58203548  0.24575900  0.07326840  1
  Te2-  Te143  1  0.58797153  0.25132671  0.41385268  1
  Te2-  Te144  1  0.58385524  0.25399197  0.74814688  1
  Te2-  Te145  1  0.58722766  0.58509770  0.08568717  1
  Te2-  Te146  1  0.58502242  0.58750724  0.41513220  1
  Te2-  Te147  1  0.58957299  0.58957816  0.74703138  1
  Te2-  Te148  1  0.58809224  0.92162251  0.07460753  1
  Te2-  Te149  1  0.59386468  0.92257834  0.41974440  1
  Te2-  Te150  1  0.58278979  0.91996686  0.74841263  1
  Te2-  Te151  1  0.91442671  0.25426931  0.07949088  1
  Te2-  Te152  1  0.92144240  0.25251291  0.40072736  1
  Te2-  Te153  1  0.92071560  0.25523446  0.75085509  1
  Te2-  Te154  1  0.91812790  0.59060752  0.07708150  1
  Te2-  Te155  1  0.91972863  0.58435552  0.41376242  1
  Te2-  Te156  1  0.92155347  0.58679836  0.74777473  1
  Te2-  Te157  1  0.91891504  0.91791261  0.07864407  1
  Te2-  Te158  1  0.91733738  0.91865453  0.41074740  1
  Te2-  Te159  1  0.92100932  0.92130693  0.74945089  1
  Te2-  Te160  1  0.25144852  0.08099278  0.25697293  1
  Te2-  Te161  1  0.24674926  0.07527269  0.58245352  1
  Te2-  Te162  1  0.24860594  0.07954092  0.92133020  1
  Te2-  Te163  1  0.24859410  0.41414441  0.25310747  1
  Te2-  Te164  1  0.25562679  0.41180123  0.58647551  1
  Te2-  Te165  1  0.25996663  0.41334781  0.92493996  1
  Te2-  Te166  1  0.24779496  0.74933234  0.25207499  1
  Te2-  Te167  1  0.25080745  0.74611163  0.58323128  1
  Te2-  Te168  1  0.25227734  0.74689430  0.92139054  1
  Te2-  Te169  1  0.58718826  0.07566166  0.25529802  1
  Te2-  Te170  1  0.58418405  0.08323381  0.58413733  1
  Te2-  Te171  1  0.59079650  0.07926466  0.91289097  1
  Te2-  Te172  1  0.58909144  0.40890535  0.25531975  1
  Te2-  Te173  1  0.58272583  0.41678027  0.58832485  1
  Te2-  Te174  1  0.59055612  0.41730258  0.91899346  1
  Te2-  Te175  1  0.58677044  0.75397724  0.25304105  1
  Te2-  Te176  1  0.58785032  0.74821687  0.58669998  1
  Te2-  Te177  1  0.58201204  0.74860824  0.91894392  1
  Te2-  Te178  1  0.91526987  0.07847254  0.24756815  1
  Te2-  Te179  1  0.92374479  0.08269656  0.58588865  1
  Te2-  Te180  1  0.91938314  0.08102470  0.91794519  1
  Te2-  Te181  1  0.92623246  0.41364392  0.24629792  1
  Te2-  Te182  1  0.92115470  0.41445240  0.59282716  1
  Te2-  Te183  1  0.91918761  0.41495421  0.91953445  1
  Te2-  Te184  1  0.91923863  0.74673394  0.25315673  1
  Te2-  Te185  1  0.92065793  0.74403493  0.58631569  1
  Te2-  Te186  1  0.91818129  0.74874332  0.91740226  1
  Te2-  Te187  1  0.07971150  0.25676402  0.24930006  1
  Te2-  Te188  1  0.07532398  0.25287217  0.59687894  1
  Te2-  Te189  1  0.07726687  0.25438404  0.91810007  1
  Te2-  Te190  1  0.07764109  0.58967176  0.25460815  1
  Te2-  Te191  1  0.08217909  0.58134590  0.58696144  1
  Te2-  Te192  1  0.08334903  0.58453809  0.91859434  1
  Te2-  Te193  1  0.07471669  0.92159640  0.25261214  1
  Te2-  Te194  1  0.08148717  0.91829468  0.59081146  1
  Te2-  Te195  1  0.08027975  0.91942272  0.91699247  1
  Te2-  Te196  1  0.41372534  0.25101390  0.25168289  1
  Te2-  Te197  1  0.41415906  0.25285914  0.58494859  1
  Te2-  Te198  1  0.41643074  0.25605210  0.92309472  1
  Te2-  Te199  1  0.41770080  0.58411216  0.25406783  1
  Te2-  Te200  1  0.41061688  0.59030065  0.58450395  1
  Te2-  Te201  1  0.41813725  0.58865067  0.92272035  1
  Te2-  Te202  1  0.40820481  0.92091680  0.25652043  1
  Te2-  Te203  1  0.41441546  0.91880717  0.58607675  1
  Te2-  Te204  1  0.40691537  0.91848446  0.91818470  1
  Te2-  Te205  1  0.74422340  0.25042195  0.25237748  1
  Te2-  Te206  1  0.75268578  0.25454022  0.58124148  1
  Te2-  Te207  1  0.74754629  0.25410541  0.91787171  1
  Te2-  Te208  1  0.75105234  0.58601389  0.25341403  1
  Te2-  Te209  1  0.74935614  0.58073402  0.58253171  1
  Te2-  Te210  1  0.74879565  0.58798662  0.91821081  1
  Te2-  Te211  1  0.75219377  0.92140171  0.25866521  1
  Te2-  Te212  1  0.74980954  0.91834948  0.58622008  1
  Te2-  Te213  1  0.74557947  0.92067645  0.91573524  1
  Te2-  Te214  1  0.08292649  0.08400211  0.07795758  1
  Te2-  Te215  1  0.07053646  0.07882290  0.41379396  1
  Te2-  Te216  1  0.08407403  0.08256349  0.74778540  1
  Te2-  Te217  1  0.07574025  0.41416076  0.07772385  1
  Te2-  Te218  1  0.08239863  0.40894839  0.40744200  1
  Te2-  Te219  1  0.08335727  0.41167125  0.75495920  1
  Te2-  Te220  1  0.07770475  0.75183828  0.07873094  1
  Te2-  Te221  1  0.07693776  0.74681235  0.41484780  1
  Te2-  Te222  1  0.08131408  0.74421620  0.74820629  1
  Te2-  Te223  1  0.40575847  0.07359600  0.07628809  1
  Te2-  Te224  1  0.40866436  0.08098830  0.41525900  1
  Te2-  Te225  1  0.41272734  0.08266338  0.74762632  1
  Te2-  Te226  1  0.41780719  0.41099574  0.08337692  1
  Te2-  Te227  1  0.41113551  0.41455768  0.41426903  1
  Te2-  Te228  1  0.41811539  0.41549303  0.74561718  1
  Te2-  Te229  1  0.41480936  0.74971612  0.08602876  1
  Te2-  Te230  1  0.41784936  0.74888375  0.41324181  1
  Te2-  Te231  1  0.41187353  0.74998684  0.74492953  1
  Te2-  Te232  1  0.74657954  0.08060723  0.07549583  1
  Te2-  Te233  1  0.75091851  0.07822604  0.41618638  1
  Te2-  Te234  1  0.74796701  0.08336961  0.74509448  1
  Te2-  Te235  1  0.74941248  0.41617564  0.07826644  1
  Te2-  Te236  1  0.74674228  0.40930026  0.41320340  1
  Te2-  Te237  1  0.74798566  0.41564383  0.74787319  1
  Te2-  Te238  1  0.74575090  0.74798916  0.08272151  1
  Te2-  Te239  1  0.74893638  0.74461206  0.41573686  1
  Te2-  Te240  1  0.74809078  0.74969349  0.74680978  1
