# generated using pymatgen
data_Ti27(Cu53Te54)2
_symmetry_space_group_name_H-M   'P 1'
_cell_length_a   17.87870027
_cell_length_b   17.87661332
_cell_length_c   17.88181878
_cell_angle_alpha   90.04270091
_cell_angle_beta   90.00065724
_cell_angle_gamma   90.01142334
_symmetry_Int_Tables_number   1
_chemical_formula_structural   Ti27(Cu53Te54)2
_chemical_formula_sum   'Ti27 Cu106 Te108'
_cell_volume   5715.21733309
_cell_formula_units_Z   1
loop_
 _symmetry_equiv_pos_site_id
 _symmetry_equiv_pos_as_xyz
  1  'x, y, z'
loop_
 _atom_type_symbol
 _atom_type_oxidation_number
  Ti4+  4.0
  Cu+  1.0
  Te2-  -2.0
loop_
 _atom_site_type_symbol
 _atom_site_label
 _atom_site_symmetry_multiplicity
 _atom_site_fract_x
 _atom_site_fract_y
 _atom_site_fract_z
 _atom_site_occupancy
  Ti4+  Ti0  1  0.16646227  0.16897687  0.16525831  1
  Ti4+  Ti1  1  0.16760833  0.16516700  0.49633644  1
  Ti4+  Ti2  1  0.16743852  0.16414278  0.83208122  1
  Ti4+  Ti3  1  0.16828540  0.49981056  0.16527731  1
  Ti4+  Ti4  1  0.16725794  0.49852938  0.50126588  1
  Ti4+  Ti5  1  0.16867149  0.49872025  0.83481971  1
  Ti4+  Ti6  1  0.16689097  0.83464550  0.16599840  1
  Ti4+  Ti7  1  0.16515971  0.83418237  0.50018962  1
  Ti4+  Ti8  1  0.16583657  0.83464667  0.82992311  1
  Ti4+  Ti9  1  0.49994331  0.16798819  0.17156545  1
  Ti4+  Ti10  1  0.50063141  0.16756494  0.50433286  1
  Ti4+  Ti11  1  0.50046508  0.16388672  0.83622351  1
  Ti4+  Ti12  1  0.49584009  0.50127692  0.16682938  1
  Ti4+  Ti13  1  0.50285889  0.50448064  0.50189777  1
  Ti4+  Ti14  1  0.50081428  0.49935528  0.83430815  1
  Ti4+  Ti15  1  0.49996589  0.83350072  0.16627130  1
  Ti4+  Ti16  1  0.49755746  0.83091819  0.50102571  1
  Ti4+  Ti17  1  0.49631087  0.83327621  0.83565987  1
  Ti4+  Ti18  1  0.83247851  0.16735096  0.16433221  1
  Ti4+  Ti19  1  0.83409526  0.16908266  0.49808646  1
  Ti4+  Ti20  1  0.83210265  0.16593910  0.83098081  1
  Ti4+  Ti21  1  0.83318512  0.49861252  0.16740285  1
  Ti4+  Ti22  1  0.83423374  0.50326729  0.50012089  1
  Ti4+  Ti23  1  0.83622907  0.49884786  0.83673542  1
  Ti4+  Ti24  1  0.83613799  0.83157009  0.16569928  1
  Ti4+  Ti25  1  0.83770452  0.83210453  0.50030488  1
  Ti4+  Ti26  1  0.83099238  0.83220928  0.82843506  1
  Cu+  Cu27  1  0.16537824  0.16444379  -0.00133726  1
  Cu+  Cu28  1  0.16945716  0.17039071  0.32890671  1
  Cu+  Cu29  1  0.16915018  0.16222612  0.66271719  1
  Cu+  Cu30  1  0.16896609  0.49785297  -0.00174783  1
  Cu+  Cu31  1  0.16669853  0.49821207  0.33273118  1
  Cu+  Cu32  1  0.16788613  0.49945252  0.67174976  1
  Cu+  Cu33  1  0.16873589  0.83565666  -0.00129424  1
  Cu+  Cu34  1  0.16614176  0.83866276  0.33417618  1
  Cu+  Cu35  1  0.15682495  0.83519878  0.66545541  1
  Cu+  Cu36  1  0.50182550  0.16548519  0.00644155  1
  Cu+  Cu37  1  0.49980286  0.16663835  0.33976227  1
  Cu+  Cu38  1  0.50153193  0.16742286  0.67211504  1
  Cu+  Cu39  1  0.49758175  0.50193089  0.00005018  1
  Cu+  Cu40  1  0.49960070  0.50684804  0.33604382  1
  Cu+  Cu41  1  0.50151120  0.49689986  0.66373059  1
  Cu+  Cu42  1  0.50021474  0.83476169  0.00126858  1
  Cu+  Cu43  1  0.49957099  0.82931588  0.33036254  1
  Cu+  Cu44  1  0.49401872  0.83058695  0.66906209  1
  Cu+  Cu45  1  0.82948923  0.16414477  -0.00539100  1
  Cu+  Cu46  1  0.83441369  0.17054004  0.33097426  1
  Cu+  Cu47  1  0.83213425  0.16571711  0.66334256  1
  Cu+  Cu48  1  0.83766799  0.49435153  0.00322037  1
  Cu+  Cu49  1  0.83110620  0.50387056  0.33468096  1
  Cu+  Cu50  1  0.83413917  0.50211696  0.66969116  1
  Cu+  Cu51  1  0.83239623  0.83350206  -0.00139979  1
  Cu+  Cu52  1  0.84225735  0.83100364  0.33251724  1
  Cu+  Cu53  1  0.83510510  0.82564495  0.66552956  1
  Cu+  Cu54  1  0.16498003  0.00464696  0.16541210  1
  Cu+  Cu55  1  0.16302827  -0.00104892  0.49278754  1
  Cu+  Cu56  1  0.16822671  -0.00196344  0.83191208  1
  Cu+  Cu57  1  0.17157852  0.33305968  0.16861756  1
  Cu+  Cu58  1  0.16835216  0.33240825  0.49939905  1
  Cu+  Cu59  1  0.16830478  0.33313216  0.83401560  1
  Cu+  Cu60  1  0.16708532  0.66728911  0.16644664  1
  Cu+  Cu61  1  0.16658462  0.66559892  0.50423919  1
  Cu+  Cu62  1  0.16860208  0.66399712  0.83449124  1
  Cu+  Cu63  1  0.50434121  0.00127896  0.16888953  1
  Cu+  Cu64  1  0.50293636  -0.00052023  0.50048387  1
  Cu+  Cu65  1  0.49487468  -0.00356844  0.83440888  1
  Cu+  Cu66  1  0.49426172  0.33354179  0.16820477  1
  Cu+  Cu67  1  0.50385408  0.33718155  0.50597163  1
  Cu+  Cu68  1  0.50186721  0.33219327  0.83569973  1
  Cu+  Cu69  1  0.49433989  0.66814874  0.16554665  1
  Cu+  Cu70  1  0.49285063  0.66662467  0.50032778  1
  Cu+  Cu71  1  0.50156838  0.66886849  0.83276060  1
  Cu+  Cu72  1  0.83430217  -0.00423388  0.16519472  1
  Cu+  Cu73  1  0.83252743  0.00502385  0.50193052  1
  Cu+  Cu74  1  0.82967712  0.00010676  0.83235325  1
  Cu+  Cu75  1  0.83732517  0.33334144  0.16488250  1
  Cu+  Cu76  1  0.83448611  0.33652172  0.49954226  1
  Cu+  Cu77  1  0.83642529  0.33153977  0.83297656  1
  Cu+  Cu78  1  0.83410323  0.66576586  0.16782637  1
  Cu+  Cu79  1  0.83406917  0.66772437  0.49453570  1
  Cu+  Cu80  1  0.83104864  0.66130609  0.82990061  1
  Cu+  Cu81  1  -0.00240893  0.17064237  0.16732986  1
  Cu+  Cu82  1  0.00174991  0.16700729  0.49389452  1
  Cu+  Cu83  1  -0.00183801  0.16611097  0.83027564  1
  Cu+  Cu84  1  0.00120566  0.49525547  0.16509529  1
  Cu+  Cu85  1  0.00079872  0.49935913  0.50143343  1
  Cu+  Cu86  1  0.00593868  0.49844275  0.83771968  1
  Cu+  Cu87  1  0.00127393  0.83357376  0.16468410  1
  Cu+  Cu88  1  0.00256689  0.83053939  0.49551574  1
  Cu+  Cu89  1  -0.00257436  0.83465786  0.82508499  1
  Cu+  Cu90  1  0.33321772  0.17460239  0.16876512  1
  Cu+  Cu91  1  0.33074159  0.16921483  0.50403265  1
  Cu+  Cu92  1  0.33613155  0.16547594  0.83323070  1
  Cu+  Cu93  1  0.33352375  0.50330425  0.16102812  1
  Cu+  Cu94  1  0.33448095  0.50195967  0.50195573  1
  Cu+  Cu95  1  0.33166289  0.49796116  0.83329860  1
  Cu+  Cu96  1  0.33370787  0.83457921  0.16868911  1
  Cu+  Cu97  1  0.33221298  0.82949678  0.50489884  1
  Cu+  Cu98  1  0.33110653  0.84280023  0.83271753  1
  Cu+  Cu99  1  0.66417350  0.16379731  0.16600708  1
  Cu+  Cu100  1  0.66785908  0.16609458  0.50208137  1
  Cu+  Cu101  1  0.66839038  0.16111194  0.83867641  1
  Cu+  Cu102  1  0.66251793  0.49802095  0.16953977  1
  Cu+  Cu103  1  0.66891511  0.50810615  0.49609889  1
  Cu+  Cu104  1  0.66856663  0.50058252  0.83785515  1
  Cu+  Cu105  1  0.67095790  0.83243675  0.16665650  1
  Cu+  Cu106  1  0.66715566  0.83449044  0.50294371  1
  Cu+  Cu107  1  0.65983090  0.83002219  0.83159697  1
  Cu+  Cu108  1  0.92844478  0.73203222  0.74804085  1
  Cu+  Cu109  1  0.07102282  0.92897863  0.40127166  1
  Cu+  Cu110  1  0.24961566  0.25951899  0.59534597  1
  Cu+  Cu111  1  0.25772287  0.92836884  0.93069318  1
  Cu+  Cu112  1  0.07436285  0.73493524  0.59181710  1
  Cu+  Cu113  1  0.93184194  0.40323223  0.07223941  1
  Cu+  Cu114  1  0.40607673  0.25887523  0.07344321  1
  Cu+  Cu115  1  0.41067360  0.26086462  0.74662640  1
  Cu+  Cu116  1  0.74265427  0.06761025  0.92769089  1
  Cu+  Cu117  1  0.40642439  0.59855055  0.06660681  1
  Cu+  Cu118  1  0.40310367  0.74235931  0.25715186  1
  Cu+  Cu119  1  0.26363706  0.26526401  0.26180023  1
  Cu+  Cu120  1  0.40101390  0.73890802  0.59975587  1
  Cu+  Cu121  1  0.93300652  0.73680449  0.40145245  1
  Cu+  Cu122  1  0.40541578  0.92780974  0.73603679  1
  Cu+  Cu123  1  0.06725249  0.93206523  0.74242391  1
  Cu+  Cu124  1  0.40078052  0.58929851  0.40807982  1
  Cu+  Cu125  1  0.92534173  0.26229478  0.26134794  1
  Cu+  Cu126  1  0.59133414  0.07164228  0.07700440  1
  Cu+  Cu127  1  0.73975354  0.59813358  0.40072020  1
  Cu+  Cu128  1  0.73977887  0.74035547  0.58493049  1
  Cu+  Cu129  1  0.58542977  0.74185217  0.73925869  1
  Cu+  Cu130  1  0.40742009  0.40915985  0.58748182  1
  Cu+  Cu131  1  0.73777030  0.58320906  0.74287446  1
  Cu+  Cu132  1  0.73850645  0.07626993  0.59230687  1
  Te2-  Te133  1  0.25155636  0.25402984  0.07491159  1
  Te2-  Te134  1  0.25528882  0.25493605  0.41299882  1
  Te2-  Te135  1  0.25416139  0.25309572  0.74726464  1
  Te2-  Te136  1  0.25114439  0.58877129  0.07731806  1
  Te2-  Te137  1  0.24965677  0.58669027  0.41491958  1
  Te2-  Te138  1  0.25414439  0.58561517  0.74843617  1
  Te2-  Te139  1  0.25343633  0.92282513  0.08323858  1
  Te2-  Te140  1  0.25610601  0.91673203  0.41688886  1
  Te2-  Te141  1  0.25078829  0.92085535  0.73846476  1
  Te2-  Te142  1  0.58549210  0.25567714  0.08522662  1
  Te2-  Te143  1  0.58532534  0.25305648  0.41972920  1
  Te2-  Te144  1  0.58907927  0.24917270  0.75373695  1
  Te2-  Te145  1  0.58347006  0.58573996  0.08341173  1
  Te2-  Te146  1  0.58627343  0.59448103  0.41317952  1
  Te2-  Te147  1  0.58586842  0.58532503  0.74520160  1
  Te2-  Te148  1  0.58868886  0.91780330  0.08105626  1
  Te2-  Te149  1  0.58377088  0.91402252  0.41505060  1
  Te2-  Te150  1  0.58216778  0.91853665  0.74704970  1
  Te2-  Te151  1  0.91847000  0.24970434  0.07351863  1
  Te2-  Te152  1  0.92092668  0.25710198  0.41372723  1
  Te2-  Te153  1  0.91771720  0.25059786  0.74455003  1
  Te2-  Te154  1  0.91983150  0.58450700  0.08315358  1
  Te2-  Te155  1  0.92476181  0.58498686  0.41241777  1
  Te2-  Te156  1  0.92622002  0.58155834  0.74861026  1
  Te2-  Te157  1  0.91997727  0.91740481  0.07827131  1
  Te2-  Te158  1  0.91914855  0.92369913  0.41532396  1
  Te2-  Te159  1  0.91378233  0.92352176  0.74207644  1
  Te2-  Te160  1  0.25357847  0.08281743  0.24919953  1
  Te2-  Te161  1  0.25068733  0.07508761  0.58057768  1
  Te2-  Te162  1  0.25403146  0.08067378  0.91945227  1
  Te2-  Te163  1  0.25743873  0.41759521  0.25293736  1
  Te2-  Te164  1  0.25381519  0.41371148  0.59005106  1
  Te2-  Te165  1  0.25477307  0.41147669  0.91955493  1
  Te2-  Te166  1  0.24963189  0.74854832  0.25494070  1
  Te2-  Te167  1  0.24889614  0.74701150  0.59140356  1
  Te2-  Te168  1  0.25266122  0.75037924  0.91515977  1
  Te2-  Te169  1  0.58579986  0.08266285  0.25843382  1
  Te2-  Te170  1  0.58516987  0.07971641  0.58930125  1
  Te2-  Te171  1  0.58444679  0.07404133  0.92232774  1
  Te2-  Te172  1  0.57879781  0.41598677  0.25432162  1
  Te2-  Te173  1  0.59409221  0.41977753  0.58424434  1
  Te2-  Te174  1  0.58475183  0.41603504  0.92067048  1
  Te2-  Te175  1  0.58674648  0.74618139  0.24838888  1
  Te2-  Te176  1  0.58532323  0.74403312  0.58688831  1
  Te2-  Te177  1  0.58348683  0.74757536  0.92248211  1
  Te2-  Te178  1  0.91676318  0.08101119  0.24947171  1
  Te2-  Te179  1  0.92282326  0.08455075  0.58306447  1
  Te2-  Te180  1  0.91890977  0.07952164  0.91593933  1
  Te2-  Te181  1  0.91965250  0.41582669  0.25744526  1
  Te2-  Te182  1  0.91755837  0.41716130  0.58663318  1
  Te2-  Te183  1  0.92361376  0.41025497  0.91867453  1
  Te2-  Te184  1  0.92516437  0.74368326  0.24962876  1
  Te2-  Te185  1  0.92417356  0.74137406  0.58681244  1
  Te2-  Te186  1  0.91703872  0.74846536  0.91371987  1
  Te2-  Te187  1  0.07991819  0.25638700  0.25240934  1
  Te2-  Te188  1  0.08197536  0.25005839  0.58342798  1
  Te2-  Te189  1  0.08199891  0.24925976  0.91545982  1
  Te2-  Te190  1  0.08174093  0.58326185  0.25009575  1
  Te2-  Te191  1  0.08093883  0.58174275  0.58915549  1
  Te2-  Te192  1  0.08385419  0.58592662  0.92140689  1
  Te2-  Te193  1  0.07952529  0.92205829  0.24964805  1
  Te2-  Te194  1  0.07563443  0.92354554  0.58327565  1
  Te2-  Te195  1  0.07767211  0.91723576  0.91580135  1
  Te2-  Te196  1  0.41571852  0.25513197  0.26141686  1
  Te2-  Te197  1  0.41229783  0.25564284  0.59173164  1
  Te2-  Te198  1  0.41518098  0.25119025  0.92189954  1
  Te2-  Te199  1  0.40757663  0.58813133  0.25510762  1
  Te2-  Te200  1  0.41197269  0.58726599  0.59276201  1
  Te2-  Te201  1  0.41270242  0.58731448  0.91494992  1
  Te2-  Te202  1  0.41681219  0.92138330  0.25249500  1
  Te2-  Te203  1  0.41349074  0.92112692  0.58414052  1
  Te2-  Te204  1  0.41274366  0.92134939  0.92628470  1
  Te2-  Te205  1  0.74589892  0.25283224  0.24798456  1
  Te2-  Te206  1  0.74909890  0.25564145  0.58415337  1
  Te2-  Te207  1  0.74750993  0.25432119  0.91673533  1
  Te2-  Te208  1  0.74468487  0.58719398  0.25029199  1
  Te2-  Te209  1  0.74694735  0.58953596  0.58895944  1
  Te2-  Te210  1  0.75211741  0.58358938  0.92479649  1
  Te2-  Te211  1  0.75202376  0.91569178  0.25418849  1
  Te2-  Te212  1  0.75031966  0.91870066  0.58716644  1
  Te2-  Te213  1  0.74352014  0.91440718  0.91635096  1
  Te2-  Te214  1  0.07808649  0.08427185  0.08148487  1
  Te2-  Te215  1  0.08071232  0.08357546  0.40592432  1
  Te2-  Te216  1  0.08070312  0.08157968  0.74463501  1
  Te2-  Te217  1  0.08535090  0.41018472  0.07957345  1
  Te2-  Te218  1  0.08224291  0.41411742  0.41608123  1
  Te2-  Te219  1  0.08230357  0.41248188  0.74919160  1
  Te2-  Te220  1  0.08375434  0.74944559  0.07920991  1
  Te2-  Te221  1  0.08538041  0.74301868  0.41002876  1
  Te2-  Te222  1  0.08063702  0.73968333  0.74671158  1
  Te2-  Te223  1  0.41234779  0.08171726  0.08703108  1
  Te2-  Te224  1  0.41433247  0.08244460  0.42054078  1
  Te2-  Te225  1  0.41326304  0.07918810  0.74643908  1
  Te2-  Te226  1  0.41180527  0.41337792  0.07794184  1
  Te2-  Te227  1  0.41779465  0.41612267  0.41685401  1
  Te2-  Te228  1  0.41349873  0.41327511  0.74737484  1
  Te2-  Te229  1  0.41023252  0.75052355  0.07696150  1
  Te2-  Te230  1  0.40840111  0.74720713  0.41167725  1
  Te2-  Te231  1  0.40598333  0.74490180  0.75230010  1
  Te2-  Te232  1  0.74637506  0.07576325  0.08002580  1
  Te2-  Te233  1  0.74887915  0.08353054  0.41127023  1
  Te2-  Te234  1  0.74436036  0.07891718  0.74448972  1
  Te2-  Te235  1  0.74520018  0.41400216  0.08367534  1
  Te2-  Te236  1  0.74842770  0.41673512  0.41579949  1
  Te2-  Te237  1  0.74945624  0.41465441  0.75034914  1
  Te2-  Te238  1  0.75016385  0.74617072  0.08034059  1
  Te2-  Te239  1  0.74625748  0.75190004  0.41108686  1
  Te2-  Te240  1  0.74071293  0.74270691  0.74389773  1
