# generated using pymatgen
data_Ti27(Cu53Te54)2
_symmetry_space_group_name_H-M   'P 1'
_cell_length_a   17.92759671
_cell_length_b   17.93136947
_cell_length_c   17.94371118
_cell_angle_alpha   89.99364496
_cell_angle_beta   90.07518403
_cell_angle_gamma   90.01233955
_symmetry_Int_Tables_number   1
_chemical_formula_structural   Ti27(Cu53Te54)2
_chemical_formula_sum   'Ti27 Cu106 Te108'
_cell_volume   5768.29438971
_cell_formula_units_Z   1
loop_
 _symmetry_equiv_pos_site_id
 _symmetry_equiv_pos_as_xyz
  1  'x, y, z'
loop_
 _atom_type_symbol
 _atom_type_oxidation_number
  Ti4+  4.0
  Cu+  1.0
  Te2-  -2.0
loop_
 _atom_site_type_symbol
 _atom_site_label
 _atom_site_symmetry_multiplicity
 _atom_site_fract_x
 _atom_site_fract_y
 _atom_site_fract_z
 _atom_site_occupancy
  Ti4+  Ti0  1  0.16691055  0.16724030  0.16958876  1
  Ti4+  Ti1  1  0.16708517  0.16910950  0.50197403  1
  Ti4+  Ti2  1  0.16827815  0.16266332  0.83641797  1
  Ti4+  Ti3  1  0.16656684  0.50080598  0.16427767  1
  Ti4+  Ti4  1  0.16837073  0.50317278  0.49883026  1
  Ti4+  Ti5  1  0.16757809  0.50004414  0.83334022  1
  Ti4+  Ti6  1  0.16528123  0.83348197  0.16556934  1
  Ti4+  Ti7  1  0.16345956  0.83553956  0.49963687  1
  Ti4+  Ti8  1  0.16407574  0.83233002  0.82888080  1
  Ti4+  Ti9  1  0.49741992  0.16535304  0.16625173  1
  Ti4+  Ti10  1  0.50186809  0.16492085  0.50109996  1
  Ti4+  Ti11  1  0.49830022  0.16920760  0.82864013  1
  Ti4+  Ti12  1  0.50230550  0.50029244  0.16867302  1
  Ti4+  Ti13  1  0.50342946  0.50238172  0.50135781  1
  Ti4+  Ti14  1  0.50046324  0.50338486  0.83695984  1
  Ti4+  Ti15  1  0.49953067  0.83460757  0.16726696  1
  Ti4+  Ti16  1  0.50013092  0.83497878  0.50059143  1
  Ti4+  Ti17  1  0.49994341  0.83430312  0.83420389  1
  Ti4+  Ti18  1  0.83156977  0.16674605  0.16378957  1
  Ti4+  Ti19  1  0.83548764  0.17203383  0.49708294  1
  Ti4+  Ti20  1  0.83193501  0.16502580  0.83169092  1
  Ti4+  Ti21  1  0.82989291  0.49812326  0.16884164  1
  Ti4+  Ti22  1  0.83372540  0.49312357  0.50037968  1
  Ti4+  Ti23  1  0.83475194  0.49735705  0.83446052  1
  Ti4+  Ti24  1  0.83276839  0.83347381  0.16544793  1
  Ti4+  Ti25  1  0.83299322  0.83235728  0.49843980  1
  Ti4+  Ti26  1  0.83263884  0.83362469  0.83292691  1
  Cu+  Cu27  1  0.17131023  0.16312419  0.00591960  1
  Cu+  Cu28  1  0.16656520  0.17050589  0.33807044  1
  Cu+  Cu29  1  0.16836905  0.16531474  0.66983439  1
  Cu+  Cu30  1  0.16511237  0.49855634  -0.00254306  1
  Cu+  Cu31  1  0.16898725  0.50548615  0.32989949  1
  Cu+  Cu32  1  0.16517268  0.50335198  0.66732982  1
  Cu+  Cu33  1  0.16590972  0.83191139  -0.00297856  1
  Cu+  Cu34  1  0.16494968  0.83427706  0.33284951  1
  Cu+  Cu35  1  0.15898647  0.83529116  0.66435175  1
  Cu+  Cu36  1  0.49444788  0.16906410  -0.00572795  1
  Cu+  Cu37  1  0.49675861  0.16404501  0.33256515  1
  Cu+  Cu38  1  0.50535230  0.16466126  0.66632665  1
  Cu+  Cu39  1  0.50033138  0.50250162  0.00504534  1
  Cu+  Cu40  1  0.50753815  0.50123787  0.33578407  1
  Cu+  Cu41  1  0.50294634  0.50495485  0.67004310  1
  Cu+  Cu42  1  0.50343315  0.83062481  0.00343295  1
  Cu+  Cu43  1  0.49855962  0.83494761  0.33590256  1
  Cu+  Cu44  1  0.49679209  0.83594541  0.66734300  1
  Cu+  Cu45  1  0.83086741  0.16619674  -0.00365063  1
  Cu+  Cu46  1  0.83813803  0.17284514  0.32757512  1
  Cu+  Cu47  1  0.83222003  0.16876194  0.66379510  1
  Cu+  Cu48  1  0.83391021  0.49550181  0.00171292  1
  Cu+  Cu49  1  0.82625266  0.49342900  0.33597034  1
  Cu+  Cu50  1  0.83292907  0.49534897  0.66791183  1
  Cu+  Cu51  1  0.83106226  0.83659840  -0.00059207  1
  Cu+  Cu52  1  0.83302055  0.83169202  0.33157408  1
  Cu+  Cu53  1  0.83259081  0.83086822  0.66450733  1
  Cu+  Cu54  1  0.16743234  0.00133496  0.16669005  1
  Cu+  Cu55  1  0.16454166  0.00244848  0.50110434  1
  Cu+  Cu56  1  0.16791265  -0.00556867  0.83373853  1
  Cu+  Cu57  1  0.16871925  0.33423479  0.16777115  1
  Cu+  Cu58  1  0.16777943  0.33601132  0.50192576  1
  Cu+  Cu59  1  0.16807473  0.33016508  0.83823093  1
  Cu+  Cu60  1  0.16565954  0.66785177  0.16479009  1
  Cu+  Cu61  1  0.16732379  0.66986625  0.49846162  1
  Cu+  Cu62  1  0.16372377  0.66464764  0.82698793  1
  Cu+  Cu63  1  0.49435765  0.00190596  0.17106049  1
  Cu+  Cu64  1  0.50300334  -0.00128026  0.50020925  1
  Cu+  Cu65  1  0.49472803  -0.00204264  0.82630159  1
  Cu+  Cu66  1  0.50059756  0.32976354  0.16458548  1
  Cu+  Cu67  1  0.50201783  0.33115957  0.50012897  1
  Cu+  Cu68  1  0.50162401  0.33827074  0.83037813  1
  Cu+  Cu69  1  0.50312960  0.66820438  0.16390272  1
  Cu+  Cu70  1  0.50067794  0.67130235  0.50237209  1
  Cu+  Cu71  1  0.49917831  0.66786004  0.83903579  1
  Cu+  Cu72  1  0.82951748  -0.00127573  0.16242323  1
  Cu+  Cu73  1  0.83284485  0.00098732  0.49623862  1
  Cu+  Cu74  1  0.83235044  0.00022526  0.83210905  1
  Cu+  Cu75  1  0.83223246  0.33256394  0.16742026  1
  Cu+  Cu76  1  0.84157546  0.33439132  0.50271162  1
  Cu+  Cu77  1  0.83396705  0.32948353  0.83410567  1
  Cu+  Cu78  1  0.83216652  0.66754860  0.16947142  1
  Cu+  Cu79  1  0.83321076  0.66342234  0.49821037  1
  Cu+  Cu80  1  0.83517374  0.66662155  0.83455139  1
  Cu+  Cu81  1  -0.00015766  0.17086694  0.16802106  1
  Cu+  Cu82  1  0.00108085  0.17458069  0.50042683  1
  Cu+  Cu83  1  0.00045414  0.16312751  0.83561858  1
  Cu+  Cu84  1  -0.00113804  0.49881308  0.16259843  1
  Cu+  Cu85  1  0.00601844  0.49274679  0.50294004  1
  Cu+  Cu86  1  0.00380963  0.49846589  0.83361806  1
  Cu+  Cu87  1  0.00021209  0.83288231  0.16608955  1
  Cu+  Cu88  1  -0.00353950  0.83216576  0.49897379  1
  Cu+  Cu89  1  -0.00189096  0.83399203  0.82872868  1
  Cu+  Cu90  1  0.33275027  0.16164060  0.17043432  1
  Cu+  Cu91  1  0.33354237  0.16755063  0.50221415  1
  Cu+  Cu92  1  0.33589682  0.16249634  0.83776600  1
  Cu+  Cu93  1  0.33533544  0.50534652  0.16520450  1
  Cu+  Cu94  1  0.33509861  0.50534283  0.49945562  1
  Cu+  Cu95  1  0.33286431  0.50248621  0.83803841  1
  Cu+  Cu96  1  0.33094946  0.83287994  0.16894278  1
  Cu+  Cu97  1  0.32981678  0.83481195  0.49965375  1
  Cu+  Cu98  1  0.33262288  0.83653059  0.83039897  1
  Cu+  Cu99  1  0.66252890  0.16425586  0.16257257  1
  Cu+  Cu100  1  0.67108613  0.16512877  0.50053856  1
  Cu+  Cu101  1  0.66405224  0.16722124  0.82742999  1
  Cu+  Cu102  1  0.66367528  0.49787501  0.17562928  1
  Cu+  Cu103  1  0.66784385  0.49453569  0.49445335  1
  Cu+  Cu104  1  0.66653851  0.50082262  0.83427102  1
  Cu+  Cu105  1  0.66739339  0.83534766  0.16028314  1
  Cu+  Cu106  1  0.66563766  0.83315578  0.49964863  1
  Cu+  Cu107  1  0.66810523  0.83136715  0.83459876  1
  Cu+  Cu108  1  0.93105721  0.25996949  0.25381084  1
  Cu+  Cu109  1  0.58536023  0.40088772  0.07254630  1
  Cu+  Cu110  1  0.59350774  0.07012710  0.74348389  1
  Cu+  Cu111  1  0.40401743  0.07030333  0.26688644  1
  Cu+  Cu112  1  0.59793269  0.74050091  0.07340533  1
  Cu+  Cu113  1  0.40365967  0.92482301  0.73441324  1
  Cu+  Cu114  1  0.07868254  0.40134293  0.92672687  1
  Cu+  Cu115  1  0.25953016  0.07141268  0.08114517  1
  Cu+  Cu116  1  0.74856274  0.07010840  0.58848833  1
  Cu+  Cu117  1  0.59232843  0.41305876  0.74259780  1
  Cu+  Cu118  1  0.25976843  0.91456596  0.92751874  1
  Cu+  Cu119  1  0.58673669  0.40023918  0.40821682  1
  Cu+  Cu120  1  0.07082999  0.59143013  0.73753079  1
  Cu+  Cu121  1  0.74376565  0.59433237  0.41193573  1
  Cu+  Cu122  1  0.58686951  0.60036957  0.26308824  1
  Cu+  Cu123  1  0.93450067  0.41467134  0.40539904  1
  Cu+  Cu124  1  0.73784149  0.39997773  0.25736482  1
  Cu+  Cu125  1  0.92560479  0.40698780  0.07431162  1
  Cu+  Cu126  1  0.73843064  0.40989229  0.59604594  1
  Cu+  Cu127  1  0.73965134  0.93059990  0.06986892  1
  Cu+  Cu128  1  0.93032334  0.25520063  0.59860929  1
  Cu+  Cu129  1  0.08454612  0.40703261  0.59550591  1
  Cu+  Cu130  1  0.41648381  0.07011417  0.92437754  1
  Cu+  Cu131  1  0.06712780  0.92806270  0.73746991  1
  Cu+  Cu132  1  0.40463263  0.59542974  0.07587382  1
  Te2-  Te133  1  0.25456424  0.25189676  0.08524556  1
  Te2-  Te134  1  0.25333866  0.25473566  0.41832166  1
  Te2-  Te135  1  0.25274030  0.24859581  0.75342752  1
  Te2-  Te136  1  0.25010002  0.58749187  0.07771262  1
  Te2-  Te137  1  0.25284379  0.58874018  0.41402953  1
  Te2-  Te138  1  0.25483105  0.58471189  0.74772740  1
  Te2-  Te139  1  0.25477277  0.91890439  0.07960986  1
  Te2-  Te140  1  0.24859840  0.92066877  0.41488294  1
  Te2-  Te141  1  0.25096672  0.91947024  0.74131238  1
  Te2-  Te142  1  0.58366175  0.24816495  0.07586855  1
  Te2-  Te143  1  0.58677300  0.24735435  0.41276196  1
  Te2-  Te144  1  0.58633844  0.25684480  0.74430157  1
  Te2-  Te145  1  0.59292519  0.58565364  0.08186819  1
  Te2-  Te146  1  0.58937151  0.59350791  0.41650415  1
  Te2-  Te147  1  0.58620481  0.59031459  0.75256928  1
  Te2-  Te148  1  0.58173653  0.92523483  0.08158968  1
  Te2-  Te149  1  0.58658412  0.91892737  0.41399182  1
  Te2-  Te150  1  0.58867544  0.91684462  0.74734894  1
  Te2-  Te151  1  0.91755896  0.25253535  0.07716150  1
  Te2-  Te152  1  0.92497258  0.25822853  0.40866814  1
  Te2-  Te153  1  0.92132931  0.25053470  0.74979242  1
  Te2-  Te154  1  0.91389845  0.58497783  0.08325470  1
  Te2-  Te155  1  0.92042672  0.57756757  0.41497735  1
  Te2-  Te156  1  0.91780107  0.58339847  0.74721765  1
  Te2-  Te157  1  0.91965058  0.91836661  0.08093693  1
  Te2-  Te158  1  0.91668032  0.91830142  0.41305780  1
  Te2-  Te159  1  0.91532239  0.92028030  0.74389662  1
  Te2-  Te160  1  0.24987962  0.07982307  0.25940530  1
  Te2-  Te161  1  0.25129233  0.08229188  0.58572912  1
  Te2-  Te162  1  0.25575227  0.07418154  0.92304335  1
  Te2-  Te163  1  0.25437016  0.41926484  0.24948923  1
  Te2-  Te164  1  0.25418691  0.41949578  0.58578803  1
  Te2-  Te165  1  0.25368749  0.41428519  0.92004834  1
  Te2-  Te166  1  0.24908121  0.74798807  0.25198641  1
  Te2-  Te167  1  0.24873903  0.75121846  0.58622135  1
  Te2-  Te168  1  0.25049509  0.74641721  0.91313892  1
  Te2-  Te169  1  0.58489301  0.08143618  0.25152382  1
  Te2-  Te170  1  0.59065061  0.07718916  0.58613423  1
  Te2-  Te171  1  0.58202309  0.08111532  0.91458797  1
  Te2-  Te172  1  0.58515301  0.40478749  0.25668221  1
  Te2-  Te173  1  0.58613446  0.41276984  0.58930897  1
  Te2-  Te174  1  0.58614986  0.41538506  0.92192272  1
  Te2-  Te175  1  0.58729577  0.75242626  0.25397284  1
  Te2-  Te176  1  0.58488649  0.75149882  0.58845488  1
  Te2-  Te177  1  0.58747475  0.74765614  0.91964960  1
  Te2-  Te178  1  0.91638362  0.07980908  0.24731299  1
  Te2-  Te179  1  0.91961476  0.08410047  0.58201859  1
  Te2-  Te180  1  0.91629703  0.08027365  0.91806877  1
  Te2-  Te181  1  0.92247614  0.41360925  0.25390290  1
  Te2-  Te182  1  0.92565900  0.41149001  0.59390149  1
  Te2-  Te183  1  0.92155338  0.40955525  0.91912653  1
  Te2-  Te184  1  0.91903033  0.74846387  0.25103132  1
  Te2-  Te185  1  0.91658616  0.74489756  0.58322314  1
  Te2-  Te186  1  0.91860307  0.75088938  0.91867504  1
  Te2-  Te187  1  0.08339509  0.25610452  0.25494090  1
  Te2-  Te188  1  0.08257486  0.25519974  0.59246945  1
  Te2-  Te189  1  0.08251451  0.24613418  0.92341413  1
  Te2-  Te190  1  0.07962564  0.58494261  0.24747837  1
  Te2-  Te191  1  0.07921939  0.58954860  0.58303629  1
  Te2-  Te192  1  0.08163315  0.58742337  0.91860712  1
  Te2-  Te193  1  0.08138553  0.91972506  0.24998712  1
  Te2-  Te194  1  0.07455902  0.92226857  0.58322436  1
  Te2-  Te195  1  0.07863989  0.91658363  0.91713277  1
  Te2-  Te196  1  0.41386843  0.25269674  0.25105830  1
  Te2-  Te197  1  0.41837068  0.25042664  0.58595173  1
  Te2-  Te198  1  0.41450184  0.25800616  0.91363154  1
  Te2-  Te199  1  0.41858851  0.58710733  0.25494992  1
  Te2-  Te200  1  0.41813110  0.58696788  0.58570333  1
  Te2-  Te201  1  0.41330849  0.58801773  0.92335434  1
  Te2-  Te202  1  0.41099327  0.91725961  0.25480834  1
  Te2-  Te203  1  0.41189322  0.92176574  0.58350894  1
  Te2-  Te204  1  0.41419531  0.91815974  0.92498641  1
  Te2-  Te205  1  0.74165139  0.24901194  0.24987281  1
  Te2-  Te206  1  0.74683837  0.25693335  0.58462218  1
  Te2-  Te207  1  0.74493017  0.24977566  0.91560339  1
  Te2-  Te208  1  0.74600230  0.58950753  0.25680052  1
  Te2-  Te209  1  0.74806658  0.58027733  0.58464207  1
  Te2-  Te210  1  0.75165889  0.58228220  0.91898470  1
  Te2-  Te211  1  0.74671451  0.91761080  0.25143391  1
  Te2-  Te212  1  0.74759560  0.91799023  0.58465299  1
  Te2-  Te213  1  0.74509606  0.92149109  0.91703510  1
  Te2-  Te214  1  0.07875561  0.08326000  0.08461879  1
  Te2-  Te215  1  0.07962128  0.08570170  0.41719279  1
  Te2-  Te216  1  0.08183808  0.07975280  0.74912445  1
  Te2-  Te217  1  0.08044928  0.40979476  0.07941312  1
  Te2-  Te218  1  0.08732923  0.41458063  0.40863231  1
  Te2-  Te219  1  0.08270938  0.40953529  0.74835038  1
  Te2-  Te220  1  0.08094284  0.74886526  0.07907397  1
  Te2-  Te221  1  0.07974004  0.74911671  0.41406269  1
  Te2-  Te222  1  0.07619739  0.74572524  0.74361428  1
  Te2-  Te223  1  0.41242992  0.07806785  0.07709826  1
  Te2-  Te224  1  0.41339690  0.07941483  0.41834377  1
  Te2-  Te225  1  0.40998852  0.08236745  0.74121491  1
  Te2-  Te226  1  0.41495178  0.41449263  0.08357619  1
  Te2-  Te227  1  0.41746368  0.41762126  0.41624447  1
  Te2-  Te228  1  0.41386293  0.42123114  0.74955403  1
  Te2-  Te229  1  0.41132408  0.74909773  0.08192865  1
  Te2-  Te230  1  0.41380235  0.74952974  0.41643768  1
  Te2-  Te231  1  0.41519413  0.74750395  0.75049101  1
  Te2-  Te232  1  0.74458239  0.08243284  0.07677062  1
  Te2-  Te233  1  0.75277305  0.08673311  0.40924458  1
  Te2-  Te234  1  0.74681586  0.07822458  0.74316542  1
  Te2-  Te235  1  0.74252937  0.41325296  0.08190092  1
  Te2-  Te236  1  0.74436213  0.40089049  0.41300640  1
  Te2-  Te237  1  0.74670398  0.40981428  0.74983582  1
  Te2-  Te238  1  0.74919512  0.74393069  0.07806456  1
  Te2-  Te239  1  0.74614792  0.74752020  0.41277386  1
  Te2-  Te240  1  0.74882565  0.74654486  0.74846403  1
