# generated using pymatgen
data_Ti27(Cu53Te54)2
_symmetry_space_group_name_H-M   'P 1'
_cell_length_a   17.91841632
_cell_length_b   17.90664588
_cell_length_c   17.91308433
_cell_angle_alpha   90.04818245
_cell_angle_beta   89.98902746
_cell_angle_gamma   90.01202791
_symmetry_Int_Tables_number   1
_chemical_formula_structural   Ti27(Cu53Te54)2
_chemical_formula_sum   'Ti27 Cu106 Te108'
_cell_volume   5747.56732529
_cell_formula_units_Z   1
loop_
 _symmetry_equiv_pos_site_id
 _symmetry_equiv_pos_as_xyz
  1  'x, y, z'
loop_
 _atom_type_symbol
 _atom_type_oxidation_number
  Ti4+  4.0
  Cu+  1.0
  Te2-  -2.0
loop_
 _atom_site_type_symbol
 _atom_site_label
 _atom_site_symmetry_multiplicity
 _atom_site_fract_x
 _atom_site_fract_y
 _atom_site_fract_z
 _atom_site_occupancy
  Ti4+  Ti0  1  0.16482477  0.16712355  0.16799723  1
  Ti4+  Ti1  1  0.16870259  0.16664714  0.50049178  1
  Ti4+  Ti2  1  0.16544993  0.16576197  0.83542194  1
  Ti4+  Ti3  1  0.16992435  0.50126725  0.16554595  1
  Ti4+  Ti4  1  0.16624019  0.49991570  0.50088033  1
  Ti4+  Ti5  1  0.16323192  0.50148491  0.83385180  1
  Ti4+  Ti6  1  0.16438534  0.83399844  0.16789010  1
  Ti4+  Ti7  1  0.16824024  0.83084571  0.49974967  1
  Ti4+  Ti8  1  0.16713040  0.83093924  0.83354987  1
  Ti4+  Ti9  1  0.49984693  0.16949391  0.16828449  1
  Ti4+  Ti10  1  0.50422440  0.16862552  0.50277617  1
  Ti4+  Ti11  1  0.49701356  0.16298698  0.83271442  1
  Ti4+  Ti12  1  0.50318849  0.50098137  0.16552282  1
  Ti4+  Ti13  1  0.49794151  0.49691691  0.49878783  1
  Ti4+  Ti14  1  0.49779786  0.49789996  0.83051272  1
  Ti4+  Ti15  1  0.50043973  0.83697121  0.16713122  1
  Ti4+  Ti16  1  0.50012721  0.83361875  0.50051785  1
  Ti4+  Ti17  1  0.49956923  0.83526273  0.83407135  1
  Ti4+  Ti18  1  0.83333539  0.16646167  0.17128412  1
  Ti4+  Ti19  1  0.83895586  0.16814836  0.50117052  1
  Ti4+  Ti20  1  0.83388253  0.16575397  0.83316024  1
  Ti4+  Ti21  1  0.83498016  0.49876059  0.16075598  1
  Ti4+  Ti22  1  0.83505783  0.50015967  0.49955789  1
  Ti4+  Ti23  1  0.83015125  0.50194685  0.83171281  1
  Ti4+  Ti24  1  0.83276425  0.83518680  0.16201291  1
  Ti4+  Ti25  1  0.83268647  0.83158905  0.50017678  1
  Ti4+  Ti26  1  0.83113994  0.83211765  0.83332760  1
  Cu+  Cu27  1  0.16437225  0.16851126  0.00080657  1
  Cu+  Cu28  1  0.16249147  0.16825227  0.33445604  1
  Cu+  Cu29  1  0.17010495  0.16518980  0.66997183  1
  Cu+  Cu30  1  0.16483354  0.50531575  0.00281886  1
  Cu+  Cu31  1  0.16988027  0.50172607  0.33273968  1
  Cu+  Cu32  1  0.16072834  0.50138341  0.66885434  1
  Cu+  Cu33  1  0.17000800  0.82842951  0.00268104  1
  Cu+  Cu34  1  0.16508501  0.83169486  0.33606487  1
  Cu+  Cu35  1  0.16859639  0.83117002  0.66357886  1
  Cu+  Cu36  1  0.49583970  0.16407671  -0.00039964  1
  Cu+  Cu37  1  0.50554790  0.17603793  0.33396563  1
  Cu+  Cu38  1  0.50114305  0.15640638  0.66773438  1
  Cu+  Cu39  1  0.50185069  0.49927188  -0.00431194  1
  Cu+  Cu40  1  0.49844938  0.49594829  0.32976419  1
  Cu+  Cu41  1  0.49519722  0.49518566  0.66387291  1
  Cu+  Cu42  1  0.50255677  0.84022928  0.00142111  1
  Cu+  Cu43  1  0.49931105  0.83509913  0.33321353  1
  Cu+  Cu44  1  0.50014368  0.83430037  0.66893385  1
  Cu+  Cu45  1  0.83103739  0.16537867  0.00318231  1
  Cu+  Cu46  1  0.83152306  0.17133476  0.34096036  1
  Cu+  Cu47  1  0.83560872  0.16400178  0.66305473  1
  Cu+  Cu48  1  0.83063067  0.50623697  -0.00323863  1
  Cu+  Cu49  1  0.83796275  0.49860725  0.32818010  1
  Cu+  Cu50  1  0.83480405  0.49749873  0.66631287  1
  Cu+  Cu51  1  0.83069245  0.83315514  -0.00651407  1
  Cu+  Cu52  1  0.83122615  0.83219310  0.33293064  1
  Cu+  Cu53  1  0.83213762  0.83036918  0.66687836  1
  Cu+  Cu54  1  0.16151159  0.00040297  0.17076702  1
  Cu+  Cu55  1  0.17091366  -0.00506090  0.50102908  1
  Cu+  Cu56  1  0.16658480  -0.00021204  0.83416209  1
  Cu+  Cu57  1  0.16919520  0.33445367  0.16700542  1
  Cu+  Cu58  1  0.16531959  0.33271304  0.49814181  1
  Cu+  Cu59  1  0.16572802  0.33224383  0.83727730  1
  Cu+  Cu60  1  0.16986310  0.66880596  0.16247627  1
  Cu+  Cu61  1  0.16930059  0.66636930  0.50127327  1
  Cu+  Cu62  1  0.16351979  0.66593678  0.83036132  1
  Cu+  Cu63  1  0.49836675  0.00313854  0.16941278  1
  Cu+  Cu64  1  0.50245688  0.00145070  0.50311469  1
  Cu+  Cu65  1  0.49826453  -0.00017397  0.83401061  1
  Cu+  Cu66  1  0.50333487  0.33532111  0.17104651  1
  Cu+  Cu67  1  0.49447262  0.33331041  0.50154559  1
  Cu+  Cu68  1  0.49780542  0.32995744  0.82983589  1
  Cu+  Cu69  1  0.50395417  0.66966114  0.16543322  1
  Cu+  Cu70  1  0.49988678  0.66433575  0.49943440  1
  Cu+  Cu71  1  0.50171202  0.66451223  0.82988877  1
  Cu+  Cu72  1  0.84086600  0.00327653  0.16522582  1
  Cu+  Cu73  1  0.83895660  -0.00113285  0.50251110  1
  Cu+  Cu74  1  0.83471414  -0.00305182  0.83385688  1
  Cu+  Cu75  1  0.83310198  0.33105138  0.16185557  1
  Cu+  Cu76  1  0.83768655  0.33685664  0.49973339  1
  Cu+  Cu77  1  0.83441092  0.33402239  0.83154562  1
  Cu+  Cu78  1  0.83055596  0.66703730  0.15873461  1
  Cu+  Cu79  1  0.83152476  0.66534699  0.49877952  1
  Cu+  Cu80  1  0.82863202  0.66695163  0.84017932  1
  Cu+  Cu81  1  0.00257130  0.15860885  0.17553303  1
  Cu+  Cu82  1  0.00502507  0.17069334  0.49772020  1
  Cu+  Cu83  1  0.00264502  0.16579502  0.83280812  1
  Cu+  Cu84  1  0.00447562  0.50166864  0.16366109  1
  Cu+  Cu85  1  -0.00093060  0.50150766  0.49856817  1
  Cu+  Cu86  1  -0.00404149  0.50447184  0.82753014  1
  Cu+  Cu87  1  -0.00654274  0.83882461  0.16815277  1
  Cu+  Cu88  1  0.00190144  0.82884779  0.50103117  1
  Cu+  Cu89  1  0.00133529  0.83210013  0.83299365  1
  Cu+  Cu90  1  0.32727928  0.16766408  0.16771217  1
  Cu+  Cu91  1  0.33616532  0.16788278  0.50137497  1
  Cu+  Cu92  1  0.33040210  0.16221995  0.83731195  1
  Cu+  Cu93  1  0.33809744  0.50039975  0.16672452  1
  Cu+  Cu94  1  0.33119413  0.49483651  0.50289066  1
  Cu+  Cu95  1  0.33117851  0.49975403  0.83407572  1
  Cu+  Cu96  1  0.33255664  0.83443709  0.16580958  1
  Cu+  Cu97  1  0.33246853  0.83146513  0.49909688  1
  Cu+  Cu98  1  0.33270811  0.83549581  0.83432734  1
  Cu+  Cu99  1  0.66468988  0.17404613  0.17032433  1
  Cu+  Cu100  1  0.67662684  0.16834122  0.50322771  1
  Cu+  Cu101  1  0.66702077  0.16428313  0.83093670  1
  Cu+  Cu102  1  0.67031955  0.49913631  0.15891943  1
  Cu+  Cu103  1  0.66591480  0.49820839  0.49862411  1
  Cu+  Cu104  1  0.66106507  0.49776374  0.82915623  1
  Cu+  Cu105  1  0.66571357  0.83643571  0.16474227  1
  Cu+  Cu106  1  0.66646326  0.83447488  0.50004413  1
  Cu+  Cu107  1  0.66189919  0.83079613  0.83547186  1
  Cu+  Cu108  1  0.73633922  0.59615961  0.07500391  1
  Cu+  Cu109  1  0.74345099  0.26660732  0.41821873  1
  Cu+  Cu110  1  0.39952594  0.07473001  0.93337889  1
  Cu+  Cu111  1  0.07865191  0.06922506  0.26771906  1
  Cu+  Cu112  1  0.07591075  0.59807520  0.07929301  1
  Cu+  Cu113  1  0.40638552  0.25520711  0.40820469  1
  Cu+  Cu114  1  0.40204153  0.92016837  0.73837632  1
  Cu+  Cu115  1  0.74991960  0.06915395  0.59001116  1
  Cu+  Cu116  1  0.07564620  0.26429301  0.40535674  1
  Cu+  Cu117  1  0.73782510  0.25444212  0.07107019  1
  Cu+  Cu118  1  0.59666915  0.07314006  0.74259900  1
  Cu+  Cu119  1  0.40517464  0.07219185  0.58622022  1
  Cu+  Cu120  1  0.58892209  0.73565817  0.73699569  1
  Cu+  Cu121  1  0.92982008  0.08347093  0.07263168  1
  Cu+  Cu122  1  0.91738588  0.92484086  0.26587507  1
  Cu+  Cu123  1  0.59620040  0.26627013  0.26210292  1
  Cu+  Cu124  1  0.73315201  0.73960138  0.92480500  1
  Cu+  Cu125  1  0.92621221  0.59186761  0.92360971  1
  Cu+  Cu126  1  0.40494900  0.40803598  0.25429252  1
  Cu+  Cu127  1  0.26593838  0.74137895  0.07480055  1
  Cu+  Cu128  1  0.06982839  0.59675548  0.73534850  1
  Cu+  Cu129  1  0.59187257  0.92988724  0.93036162  1
  Cu+  Cu130  1  0.39979174  0.40746172  0.59774433  1
  Cu+  Cu131  1  0.93227944  0.92673105  0.91575982  1
  Cu+  Cu132  1  0.92459424  0.40422077  0.73936773  1
  Te2-  Te133  1  0.25003516  0.25218513  0.08125227  1
  Te2-  Te134  1  0.25381222  0.25272539  0.41326877  1
  Te2-  Te135  1  0.25266654  0.25135486  0.75260146  1
  Te2-  Te136  1  0.25949575  0.58611877  0.07928809  1
  Te2-  Te137  1  0.25388698  0.58344744  0.41741634  1
  Te2-  Te138  1  0.25089434  0.58415623  0.74804135  1
  Te2-  Te139  1  0.24846747  0.92149879  0.08395439  1
  Te2-  Te140  1  0.25373098  0.91660335  0.41286358  1
  Te2-  Te141  1  0.24942552  0.91876309  0.74668099  1
  Te2-  Te142  1  0.58272015  0.25419876  0.07682084  1
  Te2-  Te143  1  0.59202427  0.25884177  0.41856676  1
  Te2-  Te144  1  0.58357235  0.24808773  0.74651142  1
  Te2-  Te145  1  0.58523061  0.58742623  0.07649725  1
  Te2-  Te146  1  0.58313870  0.58185142  0.41322605  1
  Te2-  Te147  1  0.58364049  0.58183677  0.74085640  1
  Te2-  Te148  1  0.58736418  0.92652947  0.08343331  1
  Te2-  Te149  1  0.58456534  0.91975784  0.41576656  1
  Te2-  Te150  1  0.58876452  0.92077247  0.74612822  1
  Te2-  Te151  1  0.92376413  0.24635069  0.08519148  1
  Te2-  Te152  1  0.92382405  0.25709136  0.41307058  1
  Te2-  Te153  1  0.91964398  0.24894848  0.74695169  1
  Te2-  Te154  1  0.92274547  0.58933314  0.07718984  1
  Te2-  Te155  1  0.91799598  0.58558036  0.41254290  1
  Te2-  Te156  1  0.91326500  0.59368797  0.74444281  1
  Te2-  Te157  1  0.91999003  0.92128503  0.07244711  1
  Te2-  Te158  1  0.92126208  0.91646834  0.41683547  1
  Te2-  Te159  1  0.91838275  0.91580867  0.74683262  1
  Te2-  Te160  1  0.24968347  0.08153169  0.25467183  1
  Te2-  Te161  1  0.25328018  0.07955402  0.58615283  1
  Te2-  Te162  1  0.24866644  0.07778921  0.92435690  1
  Te2-  Te163  1  0.25357491  0.41450288  0.25310776  1
  Te2-  Te164  1  0.24692781  0.41157606  0.58946515  1
  Te2-  Te165  1  0.24820044  0.41803213  0.92042833  1
  Te2-  Te166  1  0.25080397  0.74953537  0.25230414  1
  Te2-  Te167  1  0.25495935  0.74599759  0.58597718  1
  Te2-  Te168  1  0.25396362  0.74417871  0.91720973  1
  Te2-  Te169  1  0.58509784  0.08412344  0.25369665  1
  Te2-  Te170  1  0.59437163  0.07861137  0.58585844  1
  Te2-  Te171  1  0.58819896  0.08148968  0.92195516  1
  Te2-  Te172  1  0.59417466  0.41760574  0.25206725  1
  Te2-  Te173  1  0.58548651  0.41250262  0.58407928  1
  Te2-  Te174  1  0.58324065  0.41108855  0.91454224  1
  Te2-  Te175  1  0.58659022  0.75182368  0.25156969  1
  Te2-  Te176  1  0.58558240  0.74674277  0.58502912  1
  Te2-  Te177  1  0.58083617  0.74451729  0.92332501  1
  Te2-  Te178  1  0.91823693  0.08015772  0.26456129  1
  Te2-  Te179  1  0.92688480  0.08208823  0.58451378  1
  Te2-  Te180  1  0.92115723  0.08061111  0.91954251  1
  Te2-  Te181  1  0.92121472  0.41427281  0.24477174  1
  Te2-  Te182  1  0.92336979  0.41422268  0.58548998  1
  Te2-  Te183  1  0.91718943  0.41777965  0.91778422  1
  Te2-  Te184  1  0.91379751  0.74618867  0.24708667  1
  Te2-  Te185  1  0.91726831  0.74576392  0.58507790  1
  Te2-  Te186  1  0.92164320  0.74651745  0.92007103  1
  Te2-  Te187  1  0.07905960  0.25758852  0.25192921  1
  Te2-  Te188  1  0.08521715  0.25095207  0.58852666  1
  Te2-  Te189  1  0.07896972  0.25180342  0.91995021  1
  Te2-  Te190  1  0.08471764  0.58724498  0.25116883  1
  Te2-  Te191  1  0.07880236  0.58762446  0.58374978  1
  Te2-  Te192  1  0.07810814  0.59053021  0.92143393  1
  Te2-  Te193  1  0.07620424  0.91806880  0.25830318  1
  Te2-  Te194  1  0.08205966  0.91655253  0.58499270  1
  Te2-  Te195  1  0.08435729  0.91697944  0.92130598  1
  Te2-  Te196  1  0.40886545  0.25423965  0.25333052  1
  Te2-  Te197  1  0.41554890  0.25098083  0.59287169  1
  Te2-  Te198  1  0.41314624  0.25091343  0.91762173  1
  Te2-  Te199  1  0.41871890  0.58837544  0.25035012  1
  Te2-  Te200  1  0.41291456  0.58436702  0.58367566  1
  Te2-  Te201  1  0.41540848  0.58503679  0.91615662  1
  Te2-  Te202  1  0.41328490  0.91954032  0.25204435  1
  Te2-  Te203  1  0.41091885  0.91981534  0.58622075  1
  Te2-  Te204  1  0.41064308  0.92068985  0.92331134  1
  Te2-  Te205  1  0.74919494  0.25830492  0.25812264  1
  Te2-  Te206  1  0.75389010  0.25740615  0.58780120  1
  Te2-  Te207  1  0.74749621  0.25165120  0.91632333  1
  Te2-  Te208  1  0.75063732  0.58354666  0.24767137  1
  Te2-  Te209  1  0.74783103  0.58239003  0.58457268  1
  Te2-  Te210  1  0.73605409  0.58535686  0.91842989  1
  Te2-  Te211  1  0.74993153  0.92098373  0.24837484  1
  Te2-  Te212  1  0.74755023  0.91768209  0.58770035  1
  Te2-  Te213  1  0.74356292  0.92197941  0.91837326  1
  Te2-  Te214  1  0.08085231  0.07914922  0.07895586  1
  Te2-  Te215  1  0.08249441  0.07615574  0.41863685  1
  Te2-  Te216  1  0.08223777  0.07956600  0.74798948  1
  Te2-  Te217  1  0.08446680  0.41362540  0.08097347  1
  Te2-  Te218  1  0.08055401  0.41709433  0.41163927  1
  Te2-  Te219  1  0.07881563  0.41074550  0.74922935  1
  Te2-  Te220  1  0.07476071  0.75086132  0.08169080  1
  Te2-  Te221  1  0.08200838  0.74410176  0.41537382  1
  Te2-  Te222  1  0.07980208  0.74916064  0.74472082  1
  Te2-  Te223  1  0.41104856  0.08205906  0.08570543  1
  Te2-  Te224  1  0.42102208  0.08472726  0.41366573  1
  Te2-  Te225  1  0.40632777  0.07647767  0.74539573  1
  Te2-  Te226  1  0.41880836  0.41425782  0.08019066  1
  Te2-  Te227  1  0.40930120  0.41077806  0.41020731  1
  Te2-  Te228  1  0.40891321  0.41092742  0.74855883  1
  Te2-  Te229  1  0.41756952  0.74996500  0.07910748  1
  Te2-  Te230  1  0.41667970  0.74836115  0.41537954  1
  Te2-  Te231  1  0.41317074  0.74820075  0.74899355  1
  Te2-  Te232  1  0.74442499  0.08253557  0.08746970  1
  Te2-  Te233  1  0.75159366  0.07842194  0.41710454  1
  Te2-  Te234  1  0.75037500  0.07660089  0.74623135  1
  Te2-  Te235  1  0.74881813  0.41023387  0.07352988  1
  Te2-  Te236  1  0.74929874  0.41693082  0.41096981  1
  Te2-  Te237  1  0.74624304  0.41406692  0.74701149  1
  Te2-  Te238  1  0.74172820  0.74926711  0.07620750  1
  Te2-  Te239  1  0.74656219  0.74819748  0.41453676  1
  Te2-  Te240  1  0.74482940  0.74491912  0.74688150  1
