# generated using pymatgen
data_Ti27(Cu53Te54)2
_symmetry_space_group_name_H-M   'P 1'
_cell_length_a   17.87143706
_cell_length_b   17.87136120
_cell_length_c   17.87561428
_cell_angle_alpha   90.03097916
_cell_angle_beta   90.00021454
_cell_angle_gamma   90.01380278
_symmetry_Int_Tables_number   1
_chemical_formula_structural   Ti27(Cu53Te54)2
_chemical_formula_sum   'Ti27 Cu106 Te108'
_cell_volume   5709.23615302
_cell_formula_units_Z   1
loop_
 _symmetry_equiv_pos_site_id
 _symmetry_equiv_pos_as_xyz
  1  'x, y, z'
loop_
 _atom_type_symbol
 _atom_type_oxidation_number
  Ti4+  4.0
  Cu+  1.0
  Te2-  -2.0
loop_
 _atom_site_type_symbol
 _atom_site_label
 _atom_site_symmetry_multiplicity
 _atom_site_fract_x
 _atom_site_fract_y
 _atom_site_fract_z
 _atom_site_occupancy
  Ti4+  Ti0  1  0.17004175  0.16685438  0.16722597  1
  Ti4+  Ti1  1  0.16621676  0.16669974  0.50120226  1
  Ti4+  Ti2  1  0.17023558  0.16546177  0.83454456  1
  Ti4+  Ti3  1  0.16593368  0.49950013  0.16521866  1
  Ti4+  Ti4  1  0.16512434  0.50181532  0.50039430  1
  Ti4+  Ti5  1  0.16679885  0.50002184  0.83350350  1
  Ti4+  Ti6  1  0.16432624  0.83251992  0.16524518  1
  Ti4+  Ti7  1  0.16724174  0.83690146  0.49975810  1
  Ti4+  Ti8  1  0.16562190  0.82972034  0.83183349  1
  Ti4+  Ti9  1  0.49871574  0.16313955  0.16439092  1
  Ti4+  Ti10  1  0.50166766  0.16603019  0.49785407  1
  Ti4+  Ti11  1  0.49845635  0.16769202  0.83267712  1
  Ti4+  Ti12  1  0.49977640  0.50023386  0.16847270  1
  Ti4+  Ti13  1  0.49784028  0.50124924  0.50198831  1
  Ti4+  Ti14  1  0.49992364  0.50079873  0.83611283  1
  Ti4+  Ti15  1  0.50054563  0.83358607  0.16577034  1
  Ti4+  Ti16  1  0.50207978  0.83539630  0.50046917  1
  Ti4+  Ti17  1  0.50039567  0.83313789  0.83054684  1
  Ti4+  Ti18  1  0.83402409  0.16535237  0.16391693  1
  Ti4+  Ti19  1  0.83244621  0.16567258  0.50129610  1
  Ti4+  Ti20  1  0.83659092  0.16715216  0.83363409  1
  Ti4+  Ti21  1  0.83488407  0.50068940  0.16679333  1
  Ti4+  Ti22  1  0.83183841  0.49755933  0.50073762  1
  Ti4+  Ti23  1  0.83418708  0.49831910  0.83427464  1
  Ti4+  Ti24  1  0.83227895  0.83553437  0.16942197  1
  Ti4+  Ti25  1  0.83553182  0.83521174  0.50398386  1
  Ti4+  Ti26  1  0.83104548  0.83301459  0.83215647  1
  Cu+  Cu27  1  0.17588052  0.16767965  0.00073673  1
  Cu+  Cu28  1  0.17016347  0.16683577  0.33754311  1
  Cu+  Cu29  1  0.16631319  0.16802310  0.66959854  1
  Cu+  Cu30  1  0.16525119  0.50556755  0.00174938  1
  Cu+  Cu31  1  0.16616647  0.50174767  0.33219929  1
  Cu+  Cu32  1  0.16058858  0.49806895  0.66557472  1
  Cu+  Cu33  1  0.16483157  0.82964809  -0.00297208  1
  Cu+  Cu34  1  0.16566498  0.83620482  0.33089607  1
  Cu+  Cu35  1  0.16495707  0.83017073  0.66469735  1
  Cu+  Cu36  1  0.49606323  0.16394618  -0.00225085  1
  Cu+  Cu37  1  0.49728096  0.16302830  0.32831826  1
  Cu+  Cu38  1  0.49980785  0.16516938  0.66311137  1
  Cu+  Cu39  1  0.50108739  0.49890467  0.00320984  1
  Cu+  Cu40  1  0.49750098  0.50102058  0.33484580  1
  Cu+  Cu41  1  0.49625799  0.50391640  0.67116878  1
  Cu+  Cu42  1  0.49984825  0.83187329  -0.00225049  1
  Cu+  Cu43  1  0.50482044  0.83674660  0.33004001  1
  Cu+  Cu44  1  0.50405219  0.83627244  0.66435432  1
  Cu+  Cu45  1  0.83391057  0.16315487  -0.00409380  1
  Cu+  Cu46  1  0.83449389  0.16435991  0.33020401  1
  Cu+  Cu47  1  0.83108161  0.17164716  0.67189917  1
  Cu+  Cu48  1  0.83812286  0.49658977  0.00063989  1
  Cu+  Cu49  1  0.83450834  0.50057626  0.33252940  1
  Cu+  Cu50  1  0.83341694  0.49753538  0.66679944  1
  Cu+  Cu51  1  0.83104160  0.83631850  0.00177854  1
  Cu+  Cu52  1  0.83127670  0.83602385  0.33965283  1
  Cu+  Cu53  1  0.83383743  0.83281018  0.66560578  1
  Cu+  Cu54  1  0.16846551  -0.00235216  0.16380143  1
  Cu+  Cu55  1  0.16898292  0.00282766  0.49671362  1
  Cu+  Cu56  1  0.16534236  -0.00588906  0.83142322  1
  Cu+  Cu57  1  0.16685152  0.33333020  0.16856337  1
  Cu+  Cu58  1  0.16375735  0.33514998  0.50385657  1
  Cu+  Cu59  1  0.17301347  0.33039390  0.83626192  1
  Cu+  Cu60  1  0.16268895  0.66675666  0.16339657  1
  Cu+  Cu61  1  0.16593805  0.67246753  0.50109597  1
  Cu+  Cu62  1  0.16675479  0.66179793  0.83256710  1
  Cu+  Cu63  1  0.50031396  -0.00210903  0.17121457  1
  Cu+  Cu64  1  0.50204209  0.00189945  0.50809769  1
  Cu+  Cu65  1  0.49714802  0.00065429  0.83180136  1
  Cu+  Cu66  1  0.49903965  0.33000182  0.16625429  1
  Cu+  Cu67  1  0.50485321  0.33645869  0.49634984  1
  Cu+  Cu68  1  0.50111782  0.33663340  0.83331577  1
  Cu+  Cu69  1  0.50097499  0.66767105  0.16635739  1
  Cu+  Cu70  1  0.49622780  0.66562022  0.49609995  1
  Cu+  Cu71  1  0.49781203  0.66676272  0.83106814  1
  Cu+  Cu72  1  0.82922811  -0.00198861  0.16328080  1
  Cu+  Cu73  1  0.84055299  0.00071329  0.49910522  1
  Cu+  Cu74  1  0.83353009  0.00277708  0.83666496  1
  Cu+  Cu75  1  0.83865973  0.33536102  0.16369532  1
  Cu+  Cu76  1  0.82960647  0.33036392  0.49891622  1
  Cu+  Cu77  1  0.83442089  0.33087952  0.83013239  1
  Cu+  Cu78  1  0.83328573  0.67006715  0.17035880  1
  Cu+  Cu79  1  0.83255006  0.66380542  0.50468255  1
  Cu+  Cu80  1  0.83264271  0.66584914  0.83287498  1
  Cu+  Cu81  1  0.00425650  0.16805063  0.16798027  1
  Cu+  Cu82  1  -0.00379241  0.16301305  0.50035905  1
  Cu+  Cu83  1  0.00348970  0.16604101  0.83448576  1
  Cu+  Cu84  1  -0.00099389  0.49844585  0.15908284  1
  Cu+  Cu85  1  -0.00193500  0.49607747  0.50290842  1
  Cu+  Cu86  1  0.00082743  0.49790974  0.82992646  1
  Cu+  Cu87  1  -0.00269333  0.83252568  0.16953551  1
  Cu+  Cu88  1  0.00277013  0.83635202  0.50758632  1
  Cu+  Cu89  1  -0.00283647  0.83094491  0.83325597  1
  Cu+  Cu90  1  0.33315313  0.15822716  0.16331270  1
  Cu+  Cu91  1  0.33373579  0.16405957  0.50047927  1
  Cu+  Cu92  1  0.33343783  0.16736992  0.83961924  1
  Cu+  Cu93  1  0.33366466  0.49822085  0.16826565  1
  Cu+  Cu94  1  0.33177812  0.50672007  0.49896920  1
  Cu+  Cu95  1  0.33482963  0.50580269  0.83632247  1
  Cu+  Cu96  1  0.33175644  0.83025216  0.16534987  1
  Cu+  Cu97  1  0.33433698  0.83666447  0.49629649  1
  Cu+  Cu98  1  0.33168547  0.83012218  0.83060625  1
  Cu+  Cu99  1  0.66524213  0.16696651  0.16322180  1
  Cu+  Cu100  1  0.67010146  0.17168319  0.49389866  1
  Cu+  Cu101  1  0.66811280  0.16970128  0.83176782  1
  Cu+  Cu102  1  0.66838081  0.50069992  0.16926983  1
  Cu+  Cu103  1  0.66211134  0.49460983  0.50105852  1
  Cu+  Cu104  1  0.66662700  0.49887449  0.83730271  1
  Cu+  Cu105  1  0.66574082  0.83918738  0.16796068  1
  Cu+  Cu106  1  0.66764667  0.83604417  0.50645780  1
  Cu+  Cu107  1  0.66479991  0.83263893  0.82957172  1
  Cu+  Cu108  1  0.73647547  0.26303040  0.74257393  1
  Cu+  Cu109  1  0.26335866  0.26494012  0.93152754  1
  Cu+  Cu110  1  0.73743227  0.73511252  0.59180678  1
  Cu+  Cu111  1  0.59637377  0.93181426  0.59775181  1
  Cu+  Cu112  1  0.40700376  0.06836779  0.92358920  1
  Cu+  Cu113  1  0.25538939  0.06537075  0.07037506  1
  Cu+  Cu114  1  0.40384373  0.07476660  0.59533768  1
  Cu+  Cu115  1  0.26303054  0.59459346  0.93115366  1
  Cu+  Cu116  1  0.58980205  0.41256785  0.40237007  1
  Cu+  Cu117  1  0.92605848  0.07409624  0.40019143  1
  Cu+  Cu118  1  0.26288404  0.07413551  0.40918924  1
  Cu+  Cu119  1  0.92949154  0.40152463  0.06938164  1
  Cu+  Cu120  1  0.06973885  0.59097538  0.73999849  1
  Cu+  Cu121  1  0.59492832  0.92973502  0.25963195  1
  Cu+  Cu122  1  0.73771558  0.07688284  0.92083955  1
  Cu+  Cu123  1  0.06899991  0.40186860  0.59369263  1
  Cu+  Cu124  1  0.07464302  0.74159518  0.59212504  1
  Cu+  Cu125  1  0.40544955  0.59623812  0.74109096  1
  Cu+  Cu126  1  0.73606892  0.92244402  0.07058387  1
  Cu+  Cu127  1  0.74874004  0.25947883  0.39865528  1
  Cu+  Cu128  1  0.06783394  0.59808609  0.07542616  1
  Cu+  Cu129  1  0.40332046  0.59385790  0.40273595  1
  Cu+  Cu130  1  0.73975198  0.92584808  0.41546652  1
  Cu+  Cu131  1  0.93184523  0.93040339  0.59852670  1
  Cu+  Cu132  1  0.40499704  0.06944662  0.25907884  1
  Te2-  Te133  1  0.25804268  0.25643816  0.08458445  1
  Te2-  Te134  1  0.25242956  0.25508493  0.41954726  1
  Te2-  Te135  1  0.25609826  0.25043930  0.74774725  1
  Te2-  Te136  1  0.25636660  0.58757240  0.08352967  1
  Te2-  Te137  1  0.24797704  0.59110130  0.41296764  1
  Te2-  Te138  1  0.25194141  0.58445541  0.74266323  1
  Te2-  Te139  1  0.25324686  0.91381117  0.07688920  1
  Te2-  Te140  1  0.25387690  0.91999944  0.41040880  1
  Te2-  Te141  1  0.25073381  0.91502290  0.74586159  1
  Te2-  Te142  1  0.58245496  0.24988049  0.07856822  1
  Te2-  Te143  1  0.58571507  0.25203371  0.40641155  1
  Te2-  Te144  1  0.58285210  0.25371516  0.74566156  1
  Te2-  Te145  1  0.58636061  0.58467450  0.08339251  1
  Te2-  Te146  1  0.58668235  0.58534883  0.41523751  1
  Te2-  Te147  1  0.58784867  0.58479768  0.75078561  1
  Te2-  Te148  1  0.58315902  0.92196107  0.07648074  1
  Te2-  Te149  1  0.58752992  0.92453614  0.41431618  1
  Te2-  Te150  1  0.58695554  0.92362483  0.74787896  1
  Te2-  Te151  1  0.92157349  0.24811145  0.07783983  1
  Te2-  Te152  1  0.91814457  0.25137324  0.41426659  1
  Te2-  Te153  1  0.92510391  0.25176931  0.74852125  1
  Te2-  Te154  1  0.91635787  0.59213219  0.07908578  1
  Te2-  Te155  1  0.91762990  0.58379486  0.41839552  1
  Te2-  Te156  1  0.91740701  0.58564584  0.74579599  1
  Te2-  Te157  1  0.91977760  0.91847713  0.08234483  1
  Te2-  Te158  1  0.92636165  0.91772502  0.41388909  1
  Te2-  Te159  1  0.91834339  0.92057008  0.74971090  1
  Te2-  Te160  1  0.25242232  0.07586157  0.25587045  1
  Te2-  Te161  1  0.25095543  0.08030243  0.59002971  1
  Te2-  Te162  1  0.25418111  0.07072001  0.91853971  1
  Te2-  Te163  1  0.25121472  0.41549680  0.25303553  1
  Te2-  Te164  1  0.25302488  0.41833873  0.58494628  1
  Te2-  Te165  1  0.25417467  0.41779473  0.92242552  1
  Te2-  Te166  1  0.24859920  0.74645118  0.25082784  1
  Te2-  Te167  1  0.25602878  0.75111840  0.58310849  1
  Te2-  Te168  1  0.25270123  0.74543966  0.91828251  1
  Te2-  Te169  1  0.59081842  0.08186676  0.25291676  1
  Te2-  Te170  1  0.59384174  0.08591811  0.58500558  1
  Te2-  Te171  1  0.58563091  0.08133461  0.91708514  1
  Te2-  Te172  1  0.58542648  0.41234365  0.25163728  1
  Te2-  Te173  1  0.58069131  0.41586464  0.59193064  1
  Te2-  Te174  1  0.58548376  0.41431836  0.92162409  1
  Te2-  Te175  1  0.58770011  0.74799296  0.25056454  1
  Te2-  Te176  1  0.58404658  0.74355842  0.58472328  1
  Te2-  Te177  1  0.58493851  0.74725874  0.91590374  1
  Te2-  Te178  1  0.92032231  0.07826686  0.24747323  1
  Te2-  Te179  1  0.91757906  0.08369835  0.59355215  1
  Te2-  Te180  1  0.92422818  0.08035620  0.91896392  1
  Te2-  Te181  1  0.92212787  0.41593355  0.25236278  1
  Te2-  Te182  1  0.91570914  0.40881848  0.58696386  1
  Te2-  Te183  1  0.92248967  0.40995083  0.91613595  1
  Te2-  Te184  1  0.91623266  0.75086123  0.25756110  1
  Te2-  Te185  1  0.92101561  0.74424469  0.58847159  1
  Te2-  Te186  1  0.91378617  0.74921628  0.91964835  1
  Te2-  Te187  1  0.08495006  0.25088079  0.25477264  1
  Te2-  Te188  1  0.07755422  0.24922124  0.58753844  1
  Te2-  Te189  1  0.08500874  0.25017367  0.92117626  1
  Te2-  Te190  1  0.07828610  0.58372404  0.24973736  1
  Te2-  Te191  1  0.07603594  0.58927671  0.58600515  1
  Te2-  Te192  1  0.07593400  0.58594723  0.91887864  1
  Te2-  Te193  1  0.08030357  0.92071969  0.24969982  1
  Te2-  Te194  1  0.08494002  0.92682516  0.58900695  1
  Te2-  Te195  1  0.07997641  0.91535614  0.91719824  1
  Te2-  Te196  1  0.41184221  0.24887513  0.24876227  1
  Te2-  Te197  1  0.41710284  0.25416056  0.58061249  1
  Te2-  Te198  1  0.41619473  0.25743223  0.92037928  1
  Te2-  Te199  1  0.41266888  0.58828305  0.25186770  1
  Te2-  Te200  1  0.41168557  0.59039274  0.58757497  1
  Te2-  Te201  1  0.41692844  0.58917671  0.92555302  1
  Te2-  Te202  1  0.40933002  0.91612110  0.25348168  1
  Te2-  Te203  1  0.41156441  0.91878709  0.58696408  1
  Te2-  Te204  1  0.41228313  0.91550157  0.91754054  1
  Te2-  Te205  1  0.74901368  0.25330142  0.24719536  1
  Te2-  Te206  1  0.74500503  0.25375914  0.58763972  1
  Te2-  Te207  1  0.74912231  0.25389622  0.92001131  1
  Te2-  Te208  1  0.74904582  0.58633726  0.25327694  1
  Te2-  Te209  1  0.74376687  0.58078752  0.58751151  1
  Te2-  Te210  1  0.75080073  0.58315436  0.92033368  1
  Te2-  Te211  1  0.74696975  0.92457257  0.25896933  1
  Te2-  Te212  1  0.74952741  0.92649308  0.58930520  1
  Te2-  Te213  1  0.74271425  0.91996139  0.91786614  1
  Te2-  Te214  1  0.08480236  0.08346916  0.07965273  1
  Te2-  Te215  1  0.07924665  0.08098478  0.41281390  1
  Te2-  Te216  1  0.08336539  0.08038038  0.74963375  1
  Te2-  Te217  1  0.08350765  0.40946168  0.07679773  1
  Te2-  Te218  1  0.08148822  0.41602182  0.41361258  1
  Te2-  Te219  1  0.08277549  0.40695638  0.75007039  1
  Te2-  Te220  1  0.07554731  0.74947847  0.07857877  1
  Te2-  Te221  1  0.07964514  0.75269762  0.41436789  1
  Te2-  Te222  1  0.07621836  0.74390151  0.74642081  1
  Te2-  Te223  1  0.41392927  0.07146748  0.07698069  1
  Te2-  Te224  1  0.41594696  0.07498147  0.41291827  1
  Te2-  Te225  1  0.41107329  0.08237620  0.74672594  1
  Te2-  Te226  1  0.41487755  0.41411255  0.08293935  1
  Te2-  Te227  1  0.41094418  0.41502600  0.41630142  1
  Te2-  Te228  1  0.41203550  0.41565460  0.75101471  1
  Te2-  Te229  1  0.41542924  0.74762945  0.08064590  1
  Te2-  Te230  1  0.41599213  0.75280546  0.41080045  1
  Te2-  Te231  1  0.41420413  0.74952408  0.74244201  1
  Te2-  Te232  1  0.74385400  0.08006643  0.07753633  1
  Te2-  Te233  1  0.74750998  0.07855799  0.41262093  1
  Te2-  Te234  1  0.74791844  0.08023405  0.74818856  1
  Te2-  Te235  1  0.74774807  0.41527695  0.08201176  1
  Te2-  Te236  1  0.74563473  0.41270060  0.41017212  1
  Te2-  Te237  1  0.74532844  0.41479894  0.74789910  1
  Te2-  Te238  1  0.74618930  0.75013753  0.08424882  1
  Te2-  Te239  1  0.74783416  0.74775914  0.42014785  1
  Te2-  Te240  1  0.74635062  0.74557246  0.74568343  1
