# generated using pymatgen
data_Ti27(Cu53Te54)2
_symmetry_space_group_name_H-M   'P 1'
_cell_length_a   17.87549664
_cell_length_b   17.87306231
_cell_length_c   17.87201526
_cell_angle_alpha   89.98437545
_cell_angle_beta   89.99923933
_cell_angle_gamma   89.96913122
_symmetry_Int_Tables_number   1
_chemical_formula_structural   Ti27(Cu53Te54)2
_chemical_formula_sum   'Ti27 Cu106 Te108'
_cell_volume   5709.92670843
_cell_formula_units_Z   1
loop_
 _symmetry_equiv_pos_site_id
 _symmetry_equiv_pos_as_xyz
  1  'x, y, z'
loop_
 _atom_type_symbol
 _atom_type_oxidation_number
  Ti4+  4.0
  Cu+  1.0
  Te2-  -2.0
loop_
 _atom_site_type_symbol
 _atom_site_label
 _atom_site_symmetry_multiplicity
 _atom_site_fract_x
 _atom_site_fract_y
 _atom_site_fract_z
 _atom_site_occupancy
  Ti4+  Ti0  1  0.16670175  0.16730255  0.16651687  1
  Ti4+  Ti1  1  0.16461479  0.16731973  0.49979552  1
  Ti4+  Ti2  1  0.16454810  0.16732658  0.83223146  1
  Ti4+  Ti3  1  0.16803929  0.49943905  0.16544850  1
  Ti4+  Ti4  1  0.16603491  0.49754968  0.49883118  1
  Ti4+  Ti5  1  0.16570842  0.50299792  0.83746542  1
  Ti4+  Ti6  1  0.16793463  0.83592717  0.16337964  1
  Ti4+  Ti7  1  0.17060431  0.83351355  0.49610477  1
  Ti4+  Ti8  1  0.16905753  0.83364990  0.83164164  1
  Ti4+  Ti9  1  0.49955101  0.16786080  0.16880763  1
  Ti4+  Ti10  1  0.50008509  0.16831979  0.49987514  1
  Ti4+  Ti11  1  0.49997901  0.16549625  0.83306038  1
  Ti4+  Ti12  1  0.50161310  0.49622367  0.16535953  1
  Ti4+  Ti13  1  0.49720598  0.49968661  0.49937050  1
  Ti4+  Ti14  1  0.50100784  0.49953078  0.83308604  1
  Ti4+  Ti15  1  0.49786181  0.82780589  0.16663478  1
  Ti4+  Ti16  1  0.50001325  0.83449022  0.49821475  1
  Ti4+  Ti17  1  0.49803840  0.83641471  0.83526406  1
  Ti4+  Ti18  1  0.83214276  0.16502879  0.16690605  1
  Ti4+  Ti19  1  0.83258510  0.16569184  0.50074912  1
  Ti4+  Ti20  1  0.83124366  0.16539895  0.83031489  1
  Ti4+  Ti21  1  0.83554384  0.50029514  0.16848717  1
  Ti4+  Ti22  1  0.82885767  0.50234355  0.50225328  1
  Ti4+  Ti23  1  0.83963706  0.50059920  0.83279593  1
  Ti4+  Ti24  1  0.83036475  0.83459913  0.16764338  1
  Ti4+  Ti25  1  0.83682531  0.83182436  0.50171074  1
  Ti4+  Ti26  1  0.83394171  0.83135162  0.83179574  1
  Cu+  Cu27  1  0.16581342  0.16809618  0.00101095  1
  Cu+  Cu28  1  0.16681003  0.16206696  0.33435023  1
  Cu+  Cu29  1  0.16570128  0.16963009  0.66521261  1
  Cu+  Cu30  1  0.16798310  0.49423410  0.00089588  1
  Cu+  Cu31  1  0.16242026  0.49916227  0.33182053  1
  Cu+  Cu32  1  0.16601822  0.50073907  0.67078929  1
  Cu+  Cu33  1  0.17285917  0.83165090  -0.00207382  1
  Cu+  Cu34  1  0.16923794  0.83494838  0.33154571  1
  Cu+  Cu35  1  0.17067895  0.83354333  0.66023080  1
  Cu+  Cu36  1  0.50087367  0.16649009  -0.00026055  1
  Cu+  Cu37  1  0.50259816  0.17198046  0.33269647  1
  Cu+  Cu38  1  0.50030495  0.16617369  0.66671438  1
  Cu+  Cu39  1  0.50349287  0.49941477  -0.00304793  1
  Cu+  Cu40  1  0.49698078  0.49523376  0.33317473  1
  Cu+  Cu41  1  0.49856202  0.50108286  0.66554294  1
  Cu+  Cu42  1  0.49291490  0.83395099  0.00316403  1
  Cu+  Cu43  1  0.50309143  0.83199866  0.33042042  1
  Cu+  Cu44  1  0.49815962  0.83718910  0.66808052  1
  Cu+  Cu45  1  0.82872921  0.16410530  -0.00100818  1
  Cu+  Cu46  1  0.83156144  0.16641595  0.33503692  1
  Cu+  Cu47  1  0.83342803  0.16321633  0.66565191  1
  Cu+  Cu48  1  0.83916075  0.50210932  0.00239956  1
  Cu+  Cu49  1  0.83454949  0.49821852  0.33727447  1
  Cu+  Cu50  1  0.83242511  0.51024486  0.66704909  1
  Cu+  Cu51  1  0.82856787  0.83268045  0.00330857  1
  Cu+  Cu52  1  0.83269692  0.83789346  0.33601909  1
  Cu+  Cu53  1  0.83674568  0.82342241  0.66747906  1
  Cu+  Cu54  1  0.16300292  0.00548340  0.16895056  1
  Cu+  Cu55  1  0.17129788  0.00112560  0.49378334  1
  Cu+  Cu56  1  0.16742900  -0.00009802  0.83275468  1
  Cu+  Cu57  1  0.16900980  0.33527373  0.16462111  1
  Cu+  Cu58  1  0.16702570  0.33010052  0.50421700  1
  Cu+  Cu59  1  0.16358445  0.33594907  0.83452030  1
  Cu+  Cu60  1  0.17083937  0.66799896  0.16010507  1
  Cu+  Cu61  1  0.16740173  0.66734488  0.49694827  1
  Cu+  Cu62  1  0.16276797  0.66978372  0.83727759  1
  Cu+  Cu63  1  0.49854996  -0.00079307  0.16774195  1
  Cu+  Cu64  1  0.50048095  0.00331108  0.49907744  1
  Cu+  Cu65  1  0.49694242  -0.00005339  0.83021289  1
  Cu+  Cu66  1  0.49962354  0.33258773  0.17264076  1
  Cu+  Cu67  1  0.49869111  0.33425096  0.49889577  1
  Cu+  Cu68  1  0.50115096  0.33308847  0.83224833  1
  Cu+  Cu69  1  0.50000449  0.66001597  0.16567150  1
  Cu+  Cu70  1  0.49924256  0.66519026  0.49871205  1
  Cu+  Cu71  1  0.49968406  0.66965449  0.83564773  1
  Cu+  Cu72  1  0.83381549  -0.00257430  0.16903276  1
  Cu+  Cu73  1  0.83172206  -0.00290817  0.49934838  1
  Cu+  Cu74  1  0.83129863  0.00212163  0.83004619  1
  Cu+  Cu75  1  0.83476530  0.33365402  0.16557579  1
  Cu+  Cu76  1  0.83107883  0.33348536  0.50048047  1
  Cu+  Cu77  1  0.83766221  0.32956355  0.83490539  1
  Cu+  Cu78  1  0.83084127  0.66872002  0.16887800  1
  Cu+  Cu79  1  0.83179395  0.66778947  0.51228256  1
  Cu+  Cu80  1  0.83945650  0.66416990  0.82654002  1
  Cu+  Cu81  1  0.00183276  0.16424500  0.16861984  1
  Cu+  Cu82  1  -0.00129504  0.16697093  0.50057273  1
  Cu+  Cu83  1  -0.00460367  0.16686682  0.82975583  1
  Cu+  Cu84  1  0.00286854  0.50113041  0.17057621  1
  Cu+  Cu85  1  -0.00346039  0.49819839  0.49720837  1
  Cu+  Cu86  1  0.00292408  0.50284673  0.84550681  1
  Cu+  Cu87  1  -0.00483966  0.83805742  0.16688759  1
  Cu+  Cu88  1  0.00817872  0.83360433  0.49745375  1
  Cu+  Cu89  1  0.00228728  0.82825285  0.83030253  1
  Cu+  Cu90  1  0.33259765  0.16884521  0.16649348  1
  Cu+  Cu91  1  0.33147165  0.16838566  0.49902913  1
  Cu+  Cu92  1  0.33376186  0.16765658  0.83289287  1
  Cu+  Cu93  1  0.33599764  0.49266670  0.16252292  1
  Cu+  Cu94  1  0.33114854  0.49959907  0.50022127  1
  Cu+  Cu95  1  0.33463007  0.50249441  0.83213089  1
  Cu+  Cu96  1  0.33365303  0.83204232  0.15689656  1
  Cu+  Cu97  1  0.33495734  0.83349394  0.49810259  1
  Cu+  Cu98  1  0.33392134  0.84232886  0.83267906  1
  Cu+  Cu99  1  0.66525233  0.16838664  0.16876110  1
  Cu+  Cu100  1  0.66677391  0.16666959  0.50049167  1
  Cu+  Cu101  1  0.66658990  0.16249322  0.83459102  1
  Cu+  Cu102  1  0.67078195  0.49940000  0.16650219  1
  Cu+  Cu103  1  0.66102542  0.50008603  0.49937396  1
  Cu+  Cu104  1  0.66833839  0.49886985  0.83037268  1
  Cu+  Cu105  1  0.66204955  0.83052476  0.17149416  1
  Cu+  Cu106  1  0.66901738  0.83381810  0.49877937  1
  Cu+  Cu107  1  0.66220952  0.83390163  0.83625351  1
  Cu+  Cu108  1  0.25676802  0.93207365  0.92561069  1
  Cu+  Cu109  1  0.92360269  0.24945207  0.93035133  1
  Cu+  Cu110  1  0.07200708  0.07441344  0.26284275  1
  Cu+  Cu111  1  0.73513548  0.59145289  0.74537401  1
  Cu+  Cu112  1  0.93317970  0.58948955  0.58781127  1
  Cu+  Cu113  1  0.40840180  0.93179975  0.07924469  1
  Cu+  Cu114  1  0.40488681  0.40591913  0.26354695  1
  Cu+  Cu115  1  0.07538255  0.40608166  0.25910078  1
  Cu+  Cu116  1  0.58639959  0.92677747  0.25604565  1
  Cu+  Cu117  1  0.73356829  0.74715734  0.59358930  1
  Cu+  Cu118  1  0.26695409  0.40251713  0.06889389  1
  Cu+  Cu119  1  0.26272106  0.73553954  0.06810952  1
  Cu+  Cu120  1  0.93444464  0.73754908  0.73895161  1
  Cu+  Cu121  1  0.26191666  0.25881510  0.59488013  1
  Cu+  Cu122  1  0.59768939  0.26411070  0.26129166  1
  Cu+  Cu123  1  0.92089856  0.40437106  0.41119856  1
  Cu+  Cu124  1  0.92758829  0.92393121  0.26328121  1
  Cu+  Cu125  1  0.74038415  0.92722919  0.41023609  1
  Cu+  Cu126  1  0.40596964  0.92943569  0.73352611  1
  Cu+  Cu127  1  0.07256885  0.75009084  0.93144535  1
  Cu+  Cu128  1  0.07559884  0.40388658  0.92819260  1
  Cu+  Cu129  1  0.26553008  0.07398583  0.40607210  1
  Cu+  Cu130  1  0.92313078  0.59620232  0.93323877  1
  Cu+  Cu131  1  0.92704065  0.07331405  0.73713618  1
  Cu+  Cu132  1  0.73753927  0.07123269  0.92759933  1
  Te2-  Te133  1  0.25391817  0.25185078  0.07837745  1
  Te2-  Te134  1  0.24962720  0.25337334  0.41175852  1
  Te2-  Te135  1  0.25123239  0.25509872  0.74993823  1
  Te2-  Te136  1  0.25622958  0.58243845  0.07709154  1
  Te2-  Te137  1  0.24986636  0.58235458  0.41303426  1
  Te2-  Te138  1  0.24973078  0.58817503  0.75105423  1
  Te2-  Te139  1  0.25146721  0.92848015  0.07922698  1
  Te2-  Te140  1  0.25822275  0.91923727  0.40892258  1
  Te2-  Te141  1  0.25107475  0.92219644  0.74165396  1
  Te2-  Te142  1  0.58387249  0.25312727  0.08208312  1
  Te2-  Te143  1  0.58864862  0.25515520  0.41601523  1
  Te2-  Te144  1  0.58664442  0.24982983  0.74871651  1
  Te2-  Te145  1  0.58792693  0.58220820  0.08098913  1
  Te2-  Te146  1  0.58220383  0.58392292  0.41141768  1
  Te2-  Te147  1  0.58333944  0.58862773  0.74690406  1
  Te2-  Te148  1  0.58444425  0.91594720  0.08203631  1
  Te2-  Te149  1  0.58704541  0.92236030  0.41267626  1
  Te2-  Te150  1  0.58640702  0.91964214  0.74851579  1
  Te2-  Te151  1  0.91950613  0.24933363  0.08256771  1
  Te2-  Te152  1  0.91868407  0.25157474  0.41393173  1
  Te2-  Te153  1  0.91757876  0.25270928  0.74237535  1
  Te2-  Te154  1  0.92222373  0.58959282  0.08664340  1
  Te2-  Te155  1  0.91451740  0.59074299  0.41762870  1
  Te2-  Te156  1  0.93242287  0.58532165  0.74462037  1
  Te2-  Te157  1  0.91548908  0.91948777  0.07826723  1
  Te2-  Te158  1  0.92448641  0.92033925  0.41681910  1
  Te2-  Te159  1  0.91985646  0.91738976  0.74686332  1
  Te2-  Te160  1  0.25649933  0.08017695  0.25102268  1
  Te2-  Te161  1  0.25127732  0.08161948  0.58598303  1
  Te2-  Te162  1  0.25180070  0.08458475  0.91919426  1
  Te2-  Te163  1  0.25240932  0.41297521  0.25532628  1
  Te2-  Te164  1  0.25163227  0.41528047  0.58877704  1
  Te2-  Te165  1  0.25699908  0.41274696  0.91643934  1
  Te2-  Te166  1  0.25341044  0.75060473  0.24824026  1
  Te2-  Te167  1  0.25499231  0.74625344  0.58163685  1
  Te2-  Te168  1  0.25964840  0.74569859  0.91514317  1
  Te2-  Te169  1  0.58525240  0.08016023  0.25419891  1
  Te2-  Te170  1  0.58555186  0.08223504  0.58502616  1
  Te2-  Te171  1  0.58368675  0.07705218  0.92054256  1
  Te2-  Te172  1  0.59117979  0.41515399  0.25435990  1
  Te2-  Te173  1  0.58297766  0.41426538  0.58575544  1
  Te2-  Te174  1  0.58897403  0.41376945  0.91627170  1
  Te2-  Te175  1  0.58318371  0.73992970  0.25220388  1
  Te2-  Te176  1  0.58227695  0.74910477  0.58659251  1
  Te2-  Te177  1  0.58215034  0.75085490  0.92285762  1
  Te2-  Te178  1  0.91832374  0.07989534  0.25677608  1
  Te2-  Te179  1  0.91984611  0.07667389  0.58360730  1
  Te2-  Te180  1  0.91856962  0.07906858  0.91868782  1
  Te2-  Te181  1  0.92144701  0.41091344  0.25518682  1
  Te2-  Te182  1  0.91464544  0.41622498  0.58856837  1
  Te2-  Te183  1  0.92078406  0.40938337  0.92469563  1
  Te2-  Te184  1  0.91672242  0.75010915  0.25393401  1
  Te2-  Te185  1  0.93146671  0.74639869  0.58599541  1
  Te2-  Te186  1  0.91787699  0.74725418  0.92383573  1
  Te2-  Te187  1  0.08222477  0.25334581  0.25365976  1
  Te2-  Te188  1  0.07637135  0.25222947  0.58642746  1
  Te2-  Te189  1  0.07759364  0.25149990  0.92108463  1
  Te2-  Te190  1  0.08546528  0.59093968  0.24907013  1
  Te2-  Te191  1  0.08359074  0.58512393  0.58427934  1
  Te2-  Te192  1  0.08155658  0.59221539  0.92981148  1
  Te2-  Te193  1  0.08109021  0.92001478  0.25415106  1
  Te2-  Te194  1  0.08645144  0.92124935  0.58179528  1
  Te2-  Te195  1  0.08029040  0.91661762  0.91807452  1
  Te2-  Te196  1  0.40943823  0.25216835  0.25530151  1
  Te2-  Te197  1  0.41447798  0.25354645  0.58683030  1
  Te2-  Te198  1  0.41552759  0.25202581  0.91827310  1
  Te2-  Te199  1  0.41292424  0.58078024  0.24961641  1
  Te2-  Te200  1  0.41232924  0.58599325  0.58473374  1
  Te2-  Te201  1  0.41581131  0.58516011  0.91904029  1
  Te2-  Te202  1  0.41076482  0.91502606  0.25105562  1
  Te2-  Te203  1  0.41350733  0.92199700  0.58185478  1
  Te2-  Te204  1  0.41175692  0.92633578  0.92423240  1
  Te2-  Te205  1  0.75001787  0.25370210  0.25347865  1
  Te2-  Te206  1  0.74830517  0.25100094  0.58608347  1
  Te2-  Te207  1  0.74571721  0.25308733  0.91733033  1
  Te2-  Te208  1  0.74994998  0.58341338  0.25478501  1
  Te2-  Te209  1  0.73589967  0.58857521  0.58870539  1
  Te2-  Te210  1  0.75257706  0.58579154  0.91688651  1
  Te2-  Te211  1  0.74154240  0.92204483  0.25491457  1
  Te2-  Te212  1  0.75097838  0.91539598  0.59064420  1
  Te2-  Te213  1  0.74815391  0.91736267  0.91744905  1
  Te2-  Te214  1  0.08059402  0.08233427  0.07871684  1
  Te2-  Te215  1  0.07584811  0.07906132  0.41513339  1
  Te2-  Te216  1  0.08133559  0.08006405  0.74597829  1
  Te2-  Te217  1  0.07668007  0.41233238  0.08145915  1
  Te2-  Te218  1  0.07844183  0.40896483  0.41445343  1
  Te2-  Te219  1  0.07845994  0.41867998  0.75136224  1
  Te2-  Te220  1  0.07750173  0.75104576  0.08258295  1
  Te2-  Te221  1  0.08455754  0.74770489  0.41000021  1
  Te2-  Te222  1  0.08649541  0.74702003  0.74066032  1
  Te2-  Te223  1  0.41343160  0.08363496  0.08133771  1
  Te2-  Te224  1  0.41629861  0.08305071  0.41138889  1
  Te2-  Te225  1  0.41109907  0.08251964  0.74488636  1
  Te2-  Te226  1  0.41981293  0.40862859  0.07510113  1
  Te2-  Te227  1  0.40924847  0.41109076  0.41564998  1
  Te2-  Te228  1  0.41468418  0.41500978  0.74781720  1
  Te2-  Te229  1  0.41481187  0.73796474  0.07824553  1
  Te2-  Te230  1  0.41680749  0.74924541  0.41301680  1
  Te2-  Te231  1  0.41311010  0.75026959  0.74985805  1
  Te2-  Te232  1  0.74453000  0.07893718  0.08376108  1
  Te2-  Te233  1  0.74546101  0.08065586  0.41409110  1
  Te2-  Te234  1  0.74405112  0.07952336  0.74349801  1
  Te2-  Te235  1  0.75172157  0.41594621  0.07997391  1
  Te2-  Te236  1  0.74441755  0.41513859  0.41626766  1
  Te2-  Te237  1  0.75491341  0.41431635  0.74793809  1
  Te2-  Te238  1  0.74381296  0.74798386  0.08385579  1
  Te2-  Te239  1  0.75207763  0.74512268  0.41572515  1
  Te2-  Te240  1  0.74115126  0.74546048  0.74947057  1
