# generated using pymatgen
data_Ti27(Cu53Te54)2
_symmetry_space_group_name_H-M   'P 1'
_cell_length_a   17.86950402
_cell_length_b   17.86856275
_cell_length_c   17.86765686
_cell_angle_alpha   89.97959824
_cell_angle_beta   89.99045930
_cell_angle_gamma   90.00934369
_symmetry_Int_Tables_number   1
_chemical_formula_structural   Ti27(Cu53Te54)2
_chemical_formula_sum   'Ti27 Cu106 Te108'
_cell_volume   5705.18437984
_cell_formula_units_Z   1
loop_
 _symmetry_equiv_pos_site_id
 _symmetry_equiv_pos_as_xyz
  1  'x, y, z'
loop_
 _atom_type_symbol
 _atom_type_oxidation_number
  Ti4+  4.0
  Cu+  1.0
  Te2-  -2.0
loop_
 _atom_site_type_symbol
 _atom_site_label
 _atom_site_symmetry_multiplicity
 _atom_site_fract_x
 _atom_site_fract_y
 _atom_site_fract_z
 _atom_site_occupancy
  Ti4+  Ti0  1  0.16697934  0.16848486  0.16519094  1
  Ti4+  Ti1  1  0.16681914  0.16603654  0.50206128  1
  Ti4+  Ti2  1  0.16753163  0.16620794  0.83227336  1
  Ti4+  Ti3  1  0.16789622  0.50057519  0.16562995  1
  Ti4+  Ti4  1  0.16783628  0.50072680  0.50064838  1
  Ti4+  Ti5  1  0.16691804  0.50118263  0.83002322  1
  Ti4+  Ti6  1  0.16395065  0.83329810  0.16568390  1
  Ti4+  Ti7  1  0.16833692  0.83576276  0.49757419  1
  Ti4+  Ti8  1  0.16901741  0.83009225  0.83471365  1
  Ti4+  Ti9  1  0.49744121  0.16457099  0.16929899  1
  Ti4+  Ti10  1  0.50064517  0.16530860  0.49739529  1
  Ti4+  Ti11  1  0.49761986  0.16742747  0.83304981  1
  Ti4+  Ti12  1  0.49974080  0.49650231  0.17003101  1
  Ti4+  Ti13  1  0.49832408  0.50041695  0.50088318  1
  Ti4+  Ti14  1  0.50087836  0.49912136  0.83296836  1
  Ti4+  Ti15  1  0.49993564  0.83301060  0.16748577  1
  Ti4+  Ti16  1  0.50145570  0.82905699  0.50038303  1
  Ti4+  Ti17  1  0.50145481  0.83482671  0.83336612  1
  Ti4+  Ti18  1  0.83487137  0.16766281  0.16609884  1
  Ti4+  Ti19  1  0.83191778  0.16507743  0.50153536  1
  Ti4+  Ti20  1  0.83327518  0.16862239  0.83474630  1
  Ti4+  Ti21  1  0.83276248  0.50078362  0.16674183  1
  Ti4+  Ti22  1  0.83159463  0.49877089  0.50099833  1
  Ti4+  Ti23  1  0.83214129  0.50350195  0.83021489  1
  Ti4+  Ti24  1  0.83150364  0.83376917  0.16669606  1
  Ti4+  Ti25  1  0.83340395  0.83211657  0.50105174  1
  Ti4+  Ti26  1  0.83350468  0.83491504  0.83486790  1
  Cu+  Cu27  1  0.16889693  0.16855402  -0.00172809  1
  Cu+  Cu28  1  0.16660251  0.16657577  0.33233684  1
  Cu+  Cu29  1  0.16539156  0.16430249  0.66967573  1
  Cu+  Cu30  1  0.16708767  0.50413489  -0.00225714  1
  Cu+  Cu31  1  0.16436663  0.50112185  0.33288051  1
  Cu+  Cu32  1  0.17499305  0.49977243  0.66507195  1
  Cu+  Cu33  1  0.16693631  0.82499282  0.00163603  1
  Cu+  Cu34  1  0.16468817  0.83551241  0.33054057  1
  Cu+  Cu35  1  0.16649350  0.83493852  0.66399048  1
  Cu+  Cu36  1  0.49481488  0.16679869  0.00182012  1
  Cu+  Cu37  1  0.50476489  0.16841369  0.33025084  1
  Cu+  Cu38  1  0.49684423  0.16685091  0.66456856  1
  Cu+  Cu39  1  0.50258175  0.49736853  0.00123282  1
  Cu+  Cu40  1  0.49359427  0.49205362  0.33437978  1
  Cu+  Cu41  1  0.49882082  0.50711167  0.67082866  1
  Cu+  Cu42  1  0.49891162  0.83468541  0.00085029  1
  Cu+  Cu43  1  0.49739750  0.83170758  0.33349811  1
  Cu+  Cu44  1  0.50777414  0.83317369  0.66523315  1
  Cu+  Cu45  1  0.83507693  0.16975629  0.00112493  1
  Cu+  Cu46  1  0.83383799  0.16496395  0.33542805  1
  Cu+  Cu47  1  0.83229248  0.16527364  0.66689895  1
  Cu+  Cu48  1  0.82900894  0.50153663  -0.00023734  1
  Cu+  Cu49  1  0.83008269  0.50183226  0.33319340  1
  Cu+  Cu50  1  0.83619575  0.49798247  0.66257963  1
  Cu+  Cu51  1  0.82847611  0.83337109  0.00101888  1
  Cu+  Cu52  1  0.83200155  0.83217127  0.33306463  1
  Cu+  Cu53  1  0.83659723  0.83250622  0.66993792  1
  Cu+  Cu54  1  0.16418235  -0.00057466  0.16544943  1
  Cu+  Cu55  1  0.17049021  0.00272633  0.49764390  1
  Cu+  Cu56  1  0.16855275  -0.00205708  0.83106708  1
  Cu+  Cu57  1  0.16576397  0.33524000  0.16573799  1
  Cu+  Cu58  1  0.16413622  0.33368248  0.50187515  1
  Cu+  Cu59  1  0.16786964  0.33220752  0.82633491  1
  Cu+  Cu60  1  0.16947825  0.66758532  0.16192411  1
  Cu+  Cu61  1  0.16811885  0.67022962  0.50117935  1
  Cu+  Cu62  1  0.16360268  0.66725218  0.84349902  1
  Cu+  Cu63  1  0.50015835  -0.00042101  0.16724042  1
  Cu+  Cu64  1  0.50100169  -0.00408124  0.49946031  1
  Cu+  Cu65  1  0.49952929  0.00153559  0.83423319  1
  Cu+  Cu66  1  0.49466900  0.32956207  0.17500320  1
  Cu+  Cu67  1  0.50272805  0.33473096  0.49529320  1
  Cu+  Cu68  1  0.50062392  0.33298639  0.83277048  1
  Cu+  Cu69  1  0.50139702  0.66650542  0.16889184  1
  Cu+  Cu70  1  0.50098575  0.66071162  0.49957163  1
  Cu+  Cu71  1  0.50047988  0.66655025  0.83049221  1
  Cu+  Cu72  1  0.83219394  0.00094846  0.16682707  1
  Cu+  Cu73  1  0.83323251  -0.00062228  0.50039556  1
  Cu+  Cu74  1  0.83618800  0.00143688  0.83455534  1
  Cu+  Cu75  1  0.83559981  0.33480615  0.16676987  1
  Cu+  Cu76  1  0.82895626  0.33005565  0.50464236  1
  Cu+  Cu77  1  0.83198727  0.33595840  0.83374805  1
  Cu+  Cu78  1  0.83390749  0.66681767  0.16560593  1
  Cu+  Cu79  1  0.83279614  0.66483766  0.50027072  1
  Cu+  Cu80  1  0.83301382  0.67360895  0.83114512  1
  Cu+  Cu81  1  0.00053582  0.16687464  0.16633438  1
  Cu+  Cu82  1  -0.00248972  0.16634460  0.50289958  1
  Cu+  Cu83  1  0.00212274  0.17001412  0.83349129  1
  Cu+  Cu84  1  0.00031160  0.50115298  0.16503814  1
  Cu+  Cu85  1  0.00113670  0.50100067  0.50218034  1
  Cu+  Cu86  1  -0.00413559  0.49905247  0.82443256  1
  Cu+  Cu87  1  -0.00392305  0.83541762  0.16623207  1
  Cu+  Cu88  1  0.00297246  0.83476227  0.49891951  1
  Cu+  Cu89  1  0.00297367  0.82999548  0.83501193  1
  Cu+  Cu90  1  0.33482117  0.16883080  0.16189413  1
  Cu+  Cu91  1  0.33192787  0.16398554  0.49674559  1
  Cu+  Cu92  1  0.33004793  0.16479938  0.83508694  1
  Cu+  Cu93  1  0.33494820  0.49467887  0.17162206  1
  Cu+  Cu94  1  0.32979821  0.50738452  0.50208130  1
  Cu+  Cu95  1  0.33382350  0.50227686  0.82764133  1
  Cu+  Cu96  1  0.33141365  0.83252862  0.16591177  1
  Cu+  Cu97  1  0.33802821  0.83537947  0.49416736  1
  Cu+  Cu98  1  0.33709892  0.83342389  0.83328370  1
  Cu+  Cu99  1  0.66783662  0.16545666  0.16894297  1
  Cu+  Cu100  1  0.66776525  0.16414148  0.49883861  1
  Cu+  Cu101  1  0.66438191  0.16839632  0.83285653  1
  Cu+  Cu102  1  0.66644321  0.49988011  0.16750881  1
  Cu+  Cu103  1  0.66775178  0.49853184  0.50095830  1
  Cu+  Cu104  1  0.66966045  0.49703461  0.83831671  1
  Cu+  Cu105  1  0.66504466  0.83496171  0.16804133  1
  Cu+  Cu106  1  0.66596719  0.83150517  0.50598300  1
  Cu+  Cu107  1  0.66730017  0.83472041  0.83662697  1
  Cu+  Cu108  1  0.26174008  0.06775594  0.74201853  1
  Cu+  Cu109  1  0.40268327  0.58904767  0.40326484  1
  Cu+  Cu110  1  0.26487444  0.40396714  0.73823040  1
  Cu+  Cu111  1  0.25756512  0.60231941  0.59177305  1
  Cu+  Cu112  1  0.73401617  0.74531902  0.93085962  1
  Cu+  Cu113  1  0.41186270  0.26241250  0.07289618  1
  Cu+  Cu114  1  0.74376682  0.40445304  0.93093982  1
  Cu+  Cu115  1  0.91964671  0.40441714  0.73790559  1
  Cu+  Cu116  1  0.40519714  0.60003410  0.74483218  1
  Cu+  Cu117  1  0.74352082  0.59682966  0.40344460  1
  Cu+  Cu118  1  0.59565832  0.41136911  0.40811155  1
  Cu+  Cu119  1  0.93263759  0.74785551  0.73956068  1
  Cu+  Cu120  1  0.59540595  0.92905755  0.59318677  1
  Cu+  Cu121  1  0.25574837  0.26084555  0.92543045  1
  Cu+  Cu122  1  0.26397168  0.58919225  0.92634699  1
  Cu+  Cu123  1  0.41349913  0.92693257  0.40427761  1
  Cu+  Cu124  1  0.39932120  0.39904197  0.26556725  1
  Cu+  Cu125  1  0.59541302  0.58801223  0.59723291  1
  Cu+  Cu126  1  0.73441176  0.40126219  0.59228214  1
  Cu+  Cu127  1  0.26483060  0.74158593  0.07605832  1
  Cu+  Cu128  1  0.06861155  0.73991960  0.93236049  1
  Cu+  Cu129  1  0.25731452  0.07760069  0.40012799  1
  Cu+  Cu130  1  0.59976308  0.25729283  0.25484899  1
  Cu+  Cu131  1  0.92964365  0.59376698  0.58705629  1
  Cu+  Cu132  1  0.07222677  0.25708880  0.73857492  1
  Te2-  Te133  1  0.25393296  0.25842295  0.07885287  1
  Te2-  Te134  1  0.24980443  0.25342328  0.41546616  1
  Te2-  Te135  1  0.25753133  0.25181853  0.74241060  1
  Te2-  Te136  1  0.25989386  0.58468164  0.07994113  1
  Te2-  Te137  1  0.24929584  0.58907379  0.41029896  1
  Te2-  Te138  1  0.25130109  0.59616654  0.74624773  1
  Te2-  Te139  1  0.24971881  0.91833028  0.07915311  1
  Te2-  Te140  1  0.25500208  0.92154982  0.40808242  1
  Te2-  Te141  1  0.25473445  0.91506097  0.74648395  1
  Te2-  Te142  1  0.58276266  0.25242128  0.08414554  1
  Te2-  Te143  1  0.59086220  0.25277675  0.41286050  1
  Te2-  Te144  1  0.58292631  0.25126681  0.74592173  1
  Te2-  Te145  1  0.58347726  0.58339577  0.08388197  1
  Te2-  Te146  1  0.58666035  0.58200491  0.40912066  1
  Te2-  Te147  1  0.59274807  0.58567348  0.75171877  1
  Te2-  Te148  1  0.58464363  0.91900110  0.08160825  1
  Te2-  Te149  1  0.58758360  0.91460361  0.41386967  1
  Te2-  Te150  1  0.58896422  0.92193214  0.74971090  1
  Te2-  Te151  1  0.92114751  0.25428313  0.08176784  1
  Te2-  Te152  1  0.91682747  0.25252470  0.41748571  1
  Te2-  Te153  1  0.91891130  0.25404619  0.74460273  1
  Te2-  Te154  1  0.91722235  0.58479553  0.07951766  1
  Te2-  Te155  1  0.91939857  0.58383731  0.41473712  1
  Te2-  Te156  1  0.91966475  0.59225037  0.74278397  1
  Te2-  Te157  1  0.91546618  0.91939308  0.07964749  1
  Te2-  Te158  1  0.91688799  0.91645448  0.41559367  1
  Te2-  Te159  1  0.92275504  0.91926904  0.75044172  1
  Te2-  Te160  1  0.25364648  0.08063067  0.24770147  1
  Te2-  Te161  1  0.25452393  0.07996171  0.58883598  1
  Te2-  Te162  1  0.25094045  0.07726756  0.92046655  1
  Te2-  Te163  1  0.24872149  0.41228076  0.25574781  1
  Te2-  Te164  1  0.25647509  0.41039879  0.58319725  1
  Te2-  Te165  1  0.25318799  0.41553795  0.91659975  1
  Te2-  Te166  1  0.25041460  0.74815139  0.25257602  1
  Te2-  Te167  1  0.25689646  0.75319587  0.58484724  1
  Te2-  Te168  1  0.26147170  0.74456136  0.92062600  1
  Te2-  Te169  1  0.58664713  0.07775725  0.25252901  1
  Te2-  Te170  1  0.58506452  0.08106601  0.58554147  1
  Te2-  Te171  1  0.58284716  0.08484842  0.92007296  1
  Te2-  Te172  1  0.59026146  0.41080766  0.25532873  1
  Te2-  Te173  1  0.58200355  0.41339183  0.59078222  1
  Te2-  Te174  1  0.58546365  0.41151102  0.92033449  1
  Te2-  Te175  1  0.58550127  0.74819459  0.25373522  1
  Te2-  Te176  1  0.58764515  0.74030101  0.58718555  1
  Te2-  Te177  1  0.58266080  0.74621208  0.92090966  1
  Te2-  Te178  1  0.91919692  0.08154267  0.25169576  1
  Te2-  Te179  1  0.91764193  0.07944880  0.58705135  1
  Te2-  Te180  1  0.92067816  0.08495719  0.91873385  1
  Te2-  Te181  1  0.91859625  0.41773233  0.25341347  1
  Te2-  Te182  1  0.92282489  0.40942889  0.58344504  1
  Te2-  Te183  1  0.91778383  0.41897359  0.91795179  1
  Te2-  Te184  1  0.91753170  0.74789174  0.25182329  1
  Te2-  Te185  1  0.92402887  0.74665509  0.58574491  1
  Te2-  Te186  1  0.91838160  0.74654323  0.92380674  1
  Te2-  Te187  1  0.08201089  0.25234714  0.25155653  1
  Te2-  Te188  1  0.07934826  0.25228724  0.58691091  1
  Te2-  Te189  1  0.08317644  0.25639148  0.91870741  1
  Te2-  Te190  1  0.08298164  0.58708937  0.24878033  1
  Te2-  Te191  1  0.08328819  0.58751109  0.58867277  1
  Te2-  Te192  1  0.07300245  0.58129845  0.91737684  1
  Te2-  Te193  1  0.07831362  0.91997830  0.25065446  1
  Te2-  Te194  1  0.08344806  0.92143469  0.58296309  1
  Te2-  Te195  1  0.08486580  0.91684812  0.91915925  1
  Te2-  Te196  1  0.40627571  0.24815362  0.26014937  1
  Te2-  Te197  1  0.41553703  0.25195985  0.57928952  1
  Te2-  Te198  1  0.41071405  0.25658140  0.91911087  1
  Te2-  Te199  1  0.41395862  0.58695020  0.25259176  1
  Te2-  Te200  1  0.41092113  0.59029427  0.59008275  1
  Te2-  Te201  1  0.41683824  0.58480609  0.92116474  1
  Te2-  Te202  1  0.41142211  0.91951884  0.25086910  1
  Te2-  Te203  1  0.41620194  0.91587108  0.58706193  1
  Te2-  Te204  1  0.41518673  0.91943737  0.91887405  1
  Te2-  Te205  1  0.75076498  0.25427357  0.25464073  1
  Te2-  Te206  1  0.74215247  0.24915462  0.59003833  1
  Te2-  Te207  1  0.74580094  0.25296712  0.92008910  1
  Te2-  Te208  1  0.74500420  0.58864835  0.25110160  1
  Te2-  Te209  1  0.74618125  0.58708891  0.58974787  1
  Te2-  Te210  1  0.74770114  0.59070762  0.91807149  1
  Te2-  Te211  1  0.74730332  0.91935001  0.25298038  1
  Te2-  Te212  1  0.75029208  0.91859505  0.58941066  1
  Te2-  Te213  1  0.74828853  0.92296844  0.91929866  1
  Te2-  Te214  1  0.08252020  0.08378437  0.07896227  1
  Te2-  Te215  1  0.07984348  0.08294206  0.41569989  1
  Te2-  Te216  1  0.07844258  0.07821257  0.74962961  1
  Te2-  Te217  1  0.08255985  0.41687529  0.07893777  1
  Te2-  Te218  1  0.08053878  0.41619466  0.41600905  1
  Te2-  Te219  1  0.07969708  0.41483895  0.74044980  1
  Te2-  Te220  1  0.07396333  0.74433144  0.08291201  1
  Te2-  Te221  1  0.08282639  0.74876628  0.41405834  1
  Te2-  Te222  1  0.08529287  0.74458365  0.74456572  1
  Te2-  Te223  1  0.41329128  0.07719729  0.08179740  1
  Te2-  Te224  1  0.41569249  0.07928330  0.40915345  1
  Te2-  Te225  1  0.41362516  0.08014595  0.74668523  1
  Te2-  Te226  1  0.41445526  0.41353813  0.07986581  1
  Te2-  Te227  1  0.40518509  0.41209707  0.41976556  1
  Te2-  Te228  1  0.41678404  0.41179259  0.74440450  1
  Te2-  Te229  1  0.41633624  0.74523704  0.08064804  1
  Te2-  Te230  1  0.41468005  0.74185253  0.41294558  1
  Te2-  Te231  1  0.41593037  0.75061407  0.74404976  1
  Te2-  Te232  1  0.74794980  0.08353170  0.08073876  1
  Te2-  Te233  1  0.74800096  0.07888949  0.41453311  1
  Te2-  Te234  1  0.74828781  0.08201950  0.75120688  1
  Te2-  Te235  1  0.74550996  0.41266139  0.08270624  1
  Te2-  Te236  1  0.74816306  0.40965076  0.41247729  1
  Te2-  Te237  1  0.74549964  0.41441451  0.74445376  1
  Te2-  Te238  1  0.74307082  0.74567382  0.08295265  1
  Te2-  Te239  1  0.74541177  0.74811496  0.41533270  1
  Te2-  Te240  1  0.74471037  0.75108256  0.74674180  1
