# generated using pymatgen
data_Ti27(Cu53Te54)2
_symmetry_space_group_name_H-M   'P 1'
_cell_length_a   17.89885614
_cell_length_b   17.89715684
_cell_length_c   17.89775975
_cell_angle_alpha   90.00755694
_cell_angle_beta   90.02175505
_cell_angle_gamma   90.00358333
_symmetry_Int_Tables_number   1
_chemical_formula_structural   Ti27(Cu53Te54)2
_chemical_formula_sum   'Ti27 Cu106 Te108'
_cell_volume   5733.34346031
_cell_formula_units_Z   1
loop_
 _symmetry_equiv_pos_site_id
 _symmetry_equiv_pos_as_xyz
  1  'x, y, z'
loop_
 _atom_type_symbol
 _atom_type_oxidation_number
  Ti4+  4.0
  Cu+  1.0
  Te2-  -2.0
loop_
 _atom_site_type_symbol
 _atom_site_label
 _atom_site_symmetry_multiplicity
 _atom_site_fract_x
 _atom_site_fract_y
 _atom_site_fract_z
 _atom_site_occupancy
  Ti4+  Ti0  1  0.16432741  0.16858022  0.16507869  1
  Ti4+  Ti1  1  0.16803397  0.16663605  0.49760423  1
  Ti4+  Ti2  1  0.16530440  0.16608533  0.83017320  1
  Ti4+  Ti3  1  0.16805535  0.50084737  0.16530475  1
  Ti4+  Ti4  1  0.16668561  0.50180714  0.49570629  1
  Ti4+  Ti5  1  0.16742821  0.49825631  0.83485229  1
  Ti4+  Ti6  1  0.16466898  0.83487302  0.16665735  1
  Ti4+  Ti7  1  0.17019211  0.83089201  0.50304789  1
  Ti4+  Ti8  1  0.16693176  0.83018478  0.83402552  1
  Ti4+  Ti9  1  0.49931580  0.16853799  0.16896857  1
  Ti4+  Ti10  1  0.49762330  0.16850709  0.50006871  1
  Ti4+  Ti11  1  0.49764334  0.16725364  0.83549008  1
  Ti4+  Ti12  1  0.50379028  0.50142714  0.16526413  1
  Ti4+  Ti13  1  0.50081862  0.50203854  0.50355629  1
  Ti4+  Ti14  1  0.49737946  0.50058170  0.83319201  1
  Ti4+  Ti15  1  0.49992395  0.83729212  0.16686504  1
  Ti4+  Ti16  1  0.49981023  0.82747133  0.49668275  1
  Ti4+  Ti17  1  0.50314392  0.83452914  0.83240808  1
  Ti4+  Ti18  1  0.83475993  0.16669309  0.16949608  1
  Ti4+  Ti19  1  0.83097073  0.16542046  0.49910848  1
  Ti4+  Ti20  1  0.83496623  0.16561502  0.83318750  1
  Ti4+  Ti21  1  0.83257134  0.50195566  0.16836496  1
  Ti4+  Ti22  1  0.83797226  0.49888328  0.50330364  1
  Ti4+  Ti23  1  0.83232389  0.49636841  0.83346605  1
  Ti4+  Ti24  1  0.83245203  0.83559350  0.16660365  1
  Ti4+  Ti25  1  0.83137513  0.83365871  0.50300909  1
  Ti4+  Ti26  1  0.83395295  0.83333935  0.82922554  1
  Cu+  Cu27  1  0.16670471  0.16956668  -0.00599210  1
  Cu+  Cu28  1  0.16563689  0.16915933  0.33070436  1
  Cu+  Cu29  1  0.16607197  0.16586701  0.66147512  1
  Cu+  Cu30  1  0.16930086  0.50153017  0.00051678  1
  Cu+  Cu31  1  0.16375985  0.49685773  0.32494518  1
  Cu+  Cu32  1  0.16597089  0.50039941  0.66422630  1
  Cu+  Cu33  1  0.16573412  0.83220922  0.00191114  1
  Cu+  Cu34  1  0.16946644  0.83456120  0.33370371  1
  Cu+  Cu35  1  0.16261687  0.82829814  0.66925248  1
  Cu+  Cu36  1  0.49973498  0.16744333  0.00478023  1
  Cu+  Cu37  1  0.49949098  0.16893686  0.33512946  1
  Cu+  Cu38  1  0.49329830  0.16896010  0.66865486  1
  Cu+  Cu39  1  0.50094893  0.50380116  -0.00079353  1
  Cu+  Cu40  1  0.50326220  0.50254175  0.33269501  1
  Cu+  Cu41  1  0.50311582  0.49415469  0.67316872  1
  Cu+  Cu42  1  0.50418013  0.83360200  0.00249901  1
  Cu+  Cu43  1  0.49640893  0.83711976  0.33177423  1
  Cu+  Cu44  1  0.50874671  0.82860934  0.66415280  1
  Cu+  Cu45  1  0.83869507  0.16588134  0.00276330  1
  Cu+  Cu46  1  0.82865289  0.16324350  0.33369133  1
  Cu+  Cu47  1  0.83459850  0.16462858  0.66523120  1
  Cu+  Cu48  1  0.83160285  0.50007220  0.00123278  1
  Cu+  Cu49  1  0.83477144  0.50574613  0.33771015  1
  Cu+  Cu50  1  0.83624887  0.49020751  0.66827700  1
  Cu+  Cu51  1  0.83296911  0.83534339  -0.00555694  1
  Cu+  Cu52  1  0.83203148  0.83413357  0.33537830  1
  Cu+  Cu53  1  0.82681225  0.83681875  0.66845389  1
  Cu+  Cu54  1  0.16132571  0.00055312  0.16621729  1
  Cu+  Cu55  1  0.16970262  0.00128564  0.50022300  1
  Cu+  Cu56  1  0.16539874  -0.00307073  0.83102332  1
  Cu+  Cu57  1  0.16659849  0.33532664  0.17022491  1
  Cu+  Cu58  1  0.16509865  0.33376949  0.49440218  1
  Cu+  Cu59  1  0.16887465  0.32944600  0.83489325  1
  Cu+  Cu60  1  0.16565915  0.66808739  0.16371255  1
  Cu+  Cu61  1  0.17423850  0.66880286  0.50056818  1
  Cu+  Cu62  1  0.16868921  0.66286287  0.83930103  1
  Cu+  Cu63  1  0.49796081  0.00338298  0.16833068  1
  Cu+  Cu64  1  0.49758402  -0.00085672  0.49710479  1
  Cu+  Cu65  1  0.49937977  0.00322570  0.83595438  1
  Cu+  Cu66  1  0.50228949  0.33559713  0.16774201  1
  Cu+  Cu67  1  0.50044485  0.33572203  0.50161474  1
  Cu+  Cu68  1  0.49166178  0.33166064  0.82998524  1
  Cu+  Cu69  1  0.50450593  0.67208296  0.16382470  1
  Cu+  Cu70  1  0.48970259  0.66253600  0.49952404  1
  Cu+  Cu71  1  0.50415452  0.66943064  0.83195405  1
  Cu+  Cu72  1  0.83407763  0.00265787  0.16808884  1
  Cu+  Cu73  1  0.83155428  -0.00155220  0.49934718  1
  Cu+  Cu74  1  0.83583867  0.00103687  0.82707657  1
  Cu+  Cu75  1  0.83389096  0.33407053  0.16831413  1
  Cu+  Cu76  1  0.83327064  0.33162659  0.50348858  1
  Cu+  Cu77  1  0.83702272  0.33147083  0.83381770  1
  Cu+  Cu78  1  0.83275534  0.66845263  0.16680839  1
  Cu+  Cu79  1  0.83401483  0.66433120  0.50040565  1
  Cu+  Cu80  1  0.83323976  0.66256399  0.83469426  1
  Cu+  Cu81  1  -0.00042590  0.16038474  0.16606495  1
  Cu+  Cu82  1  -0.00191098  0.16755496  0.49594878  1
  Cu+  Cu83  1  -0.00147082  0.16044749  0.82880877  1
  Cu+  Cu84  1  -0.00121909  0.50047529  0.16520336  1
  Cu+  Cu85  1  0.00441014  0.49688133  0.50266836  1
  Cu+  Cu86  1  -0.00188085  0.49608340  0.83237034  1
  Cu+  Cu87  1  -0.00158536  0.83558182  0.16774808  1
  Cu+  Cu88  1  -0.00053812  0.83062829  0.50516646  1
  Cu+  Cu89  1  0.00306123  0.83404528  0.82961488  1
  Cu+  Cu90  1  0.33213273  0.17294426  0.16834614  1
  Cu+  Cu91  1  0.33242151  0.16753319  0.49935399  1
  Cu+  Cu92  1  0.33186326  0.17148837  0.83269540  1
  Cu+  Cu93  1  0.33797394  0.50055317  0.16293696  1
  Cu+  Cu94  1  0.33149613  0.50924971  0.50040084  1
  Cu+  Cu95  1  0.33202083  0.50286563  0.83888777  1
  Cu+  Cu96  1  0.33212012  0.83719621  0.16657498  1
  Cu+  Cu97  1  0.33662371  0.82360784  0.49508854  1
  Cu+  Cu98  1  0.33359274  0.83366397  0.83586526  1
  Cu+  Cu99  1  0.66752388  0.16576636  0.17081063  1
  Cu+  Cu100  1  0.66282605  0.16632936  0.49975816  1
  Cu+  Cu101  1  0.66685551  0.16860852  0.83909026  1
  Cu+  Cu102  1  0.66832104  0.50234636  0.16926546  1
  Cu+  Cu103  1  0.67264333  0.50195397  0.50418143  1
  Cu+  Cu104  1  0.66571445  0.49668672  0.83300100  1
  Cu+  Cu105  1  0.66463011  0.83667116  0.16355741  1
  Cu+  Cu106  1  0.66310881  0.83184250  0.50516978  1
  Cu+  Cu107  1  0.66770425  0.83252667  0.82492150  1
  Cu+  Cu108  1  0.40688199  0.92952768  0.40653536  1
  Cu+  Cu109  1  0.73551116  0.07173871  0.25990670  1
  Cu+  Cu110  1  0.58590306  0.92982451  0.58650377  1
  Cu+  Cu111  1  0.73670484  0.93369668  0.74522157  1
  Cu+  Cu112  1  0.40087002  0.26100630  0.73576349  1
  Cu+  Cu113  1  0.07963278  0.92639478  0.73858718  1
  Cu+  Cu114  1  0.08566468  0.40250210  0.59298980  1
  Cu+  Cu115  1  0.07725113  0.07119790  0.26246123  1
  Cu+  Cu116  1  0.59798565  0.73556021  0.73621007  1
  Cu+  Cu117  1  0.73998553  0.40318621  0.59063083  1
  Cu+  Cu118  1  0.92671555  0.07089865  0.07271255  1
  Cu+  Cu119  1  0.26094622  0.26171670  0.26093218  1
  Cu+  Cu120  1  0.06670726  0.40783961  0.25165100  1
  Cu+  Cu121  1  0.25627519  0.74002291  0.39886747  1
  Cu+  Cu122  1  0.93055888  0.40369385  0.74499571  1
  Cu+  Cu123  1  0.59634605  0.74152241  0.07396110  1
  Cu+  Cu124  1  0.92578579  0.07246510  0.73258098  1
  Cu+  Cu125  1  0.59239610  0.39968302  0.75397720  1
  Cu+  Cu126  1  0.25723701  0.59079299  0.59703633  1
  Cu+  Cu127  1  0.40522619  0.58199849  0.39886293  1
  Cu+  Cu128  1  0.06825828  0.74096344  0.59508905  1
  Cu+  Cu129  1  0.41155504  0.74281541  0.59894402  1
  Cu+  Cu130  1  0.74241774  0.59413968  0.40962784  1
  Cu+  Cu131  1  0.26169958  0.59570572  0.93179195  1
  Cu+  Cu132  1  0.26073474  0.25808445  0.92637865  1
  Te2-  Te133  1  0.25048882  0.25559389  0.07937354  1
  Te2-  Te134  1  0.25355649  0.25412441  0.41279406  1
  Te2-  Te135  1  0.24967991  0.25337940  0.74125146  1
  Te2-  Te136  1  0.25549168  0.58829123  0.08154564  1
  Te2-  Te137  1  0.25166551  0.58655489  0.40327162  1
  Te2-  Te138  1  0.25252020  0.58541123  0.74826676  1
  Te2-  Te139  1  0.24930080  0.92090514  0.08158756  1
  Te2-  Te140  1  0.25470444  0.91943139  0.41604363  1
  Te2-  Te141  1  0.25268737  0.91517315  0.74711627  1
  Te2-  Te142  1  0.58711301  0.25148444  0.08492684  1
  Te2-  Te143  1  0.58399323  0.25429420  0.41601369  1
  Te2-  Te144  1  0.58669482  0.25018327  0.74790368  1
  Te2-  Te145  1  0.59031142  0.58722320  0.07906278  1
  Te2-  Te146  1  0.58786411  0.58662355  0.41774744  1
  Te2-  Te147  1  0.58779423  0.58526641  0.74752516  1
  Te2-  Te148  1  0.58418088  0.92564487  0.08184338  1
  Te2-  Te149  1  0.58664019  0.91639485  0.41406390  1
  Te2-  Te150  1  0.58489112  0.92653651  0.74461465  1
  Te2-  Te151  1  0.92081246  0.25352971  0.08455903  1
  Te2-  Te152  1  0.91426289  0.25123125  0.41328577  1
  Te2-  Te153  1  0.92126972  0.25125444  0.74472235  1
  Te2-  Te154  1  0.91697905  0.58588204  0.08154782  1
  Te2-  Te155  1  0.92476526  0.58573160  0.41879449  1
  Te2-  Te156  1  0.91797604  0.58266379  0.74757217  1
  Te2-  Te157  1  0.91853419  0.91914912  0.07887690  1
  Te2-  Te158  1  0.91864846  0.91543219  0.41847789  1
  Te2-  Te159  1  0.92355510  0.91926351  0.74067358  1
  Te2-  Te160  1  0.25042514  0.08192238  0.24931210  1
  Te2-  Te161  1  0.25389017  0.08192822  0.58442535  1
  Te2-  Te162  1  0.25061966  0.08014737  0.91470543  1
  Te2-  Te163  1  0.25913426  0.41609011  0.25097235  1
  Te2-  Te164  1  0.25227800  0.41468126  0.58062531  1
  Te2-  Te165  1  0.25344459  0.41170892  0.92140621  1
  Te2-  Te166  1  0.25324874  0.74742224  0.24860546  1
  Te2-  Te167  1  0.25813895  0.74534794  0.59388147  1
  Te2-  Te168  1  0.25424592  0.74790289  0.92283688  1
  Te2-  Te169  1  0.58327368  0.08079554  0.25612180  1
  Te2-  Te170  1  0.58131843  0.08300030  0.58760321  1
  Te2-  Te171  1  0.58414456  0.08358512  0.92164415  1
  Te2-  Te172  1  0.58700225  0.41682202  0.25332574  1
  Te2-  Te173  1  0.58759541  0.41271153  0.58855464  1
  Te2-  Te174  1  0.58096575  0.41237865  0.91771122  1
  Te2-  Te175  1  0.58629787  0.75248415  0.25372543  1
  Te2-  Te176  1  0.58705602  0.73607309  0.58219674  1
  Te2-  Te177  1  0.59032971  0.74929359  0.91838521  1
  Te2-  Te178  1  0.92091598  0.07836661  0.25834289  1
  Te2-  Te179  1  0.92008447  0.07893742  0.58170529  1
  Te2-  Te180  1  0.92033252  0.07736969  0.91872741  1
  Te2-  Te181  1  0.91638470  0.41571843  0.25571771  1
  Te2-  Te182  1  0.92680367  0.40728484  0.58760055  1
  Te2-  Te183  1  0.91812099  0.41345699  0.92220250  1
  Te2-  Te184  1  0.91653977  0.75044325  0.25234803  1
  Te2-  Te185  1  0.91444443  0.74671150  0.59057640  1
  Te2-  Te186  1  0.91867759  0.74901746  0.91462820  1
  Te2-  Te187  1  0.07532100  0.25342402  0.25197840  1
  Te2-  Te188  1  0.07942449  0.25126379  0.58266330  1
  Te2-  Te189  1  0.07613325  0.24991565  0.91372869  1
  Te2-  Te190  1  0.08089198  0.58779915  0.24867195  1
  Te2-  Te191  1  0.08138028  0.58935860  0.58443499  1
  Te2-  Te192  1  0.07806867  0.58101309  0.91884986  1
  Te2-  Te193  1  0.07900789  0.91832799  0.25600854  1
  Te2-  Te194  1  0.08270878  0.92047987  0.58517747  1
  Te2-  Te195  1  0.08177674  0.91683932  0.91920361  1
  Te2-  Te196  1  0.41563234  0.25718779  0.25508228  1
  Te2-  Te197  1  0.41085589  0.25627907  0.58403520  1
  Te2-  Te198  1  0.41361300  0.25348513  0.92464036  1
  Te2-  Te199  1  0.41676502  0.58924309  0.24775158  1
  Te2-  Te200  1  0.41341883  0.58467891  0.59674080  1
  Te2-  Te201  1  0.41650324  0.59083545  0.91985059  1
  Te2-  Te202  1  0.41059753  0.92360618  0.25238559  1
  Te2-  Te203  1  0.41493940  0.91293074  0.58477525  1
  Te2-  Te204  1  0.41763407  0.91745725  0.91932018  1
  Te2-  Te205  1  0.74838999  0.25387327  0.25364472  1
  Te2-  Te206  1  0.74515151  0.24931521  0.58718884  1
  Te2-  Te207  1  0.75287244  0.25116285  0.92131459  1
  Te2-  Te208  1  0.74727925  0.58956655  0.25459208  1
  Te2-  Te209  1  0.75381646  0.58430882  0.59236989  1
  Te2-  Te210  1  0.74617424  0.58225275  0.91782191  1
  Te2-  Te211  1  0.74586644  0.91923018  0.25347335  1
  Te2-  Te212  1  0.74280958  0.92308087  0.58773701  1
  Te2-  Te213  1  0.74786440  0.92005248  0.91242903  1
  Te2-  Te214  1  0.08198818  0.08132251  0.07419374  1
  Te2-  Te215  1  0.08109359  0.07980334  0.41439710  1
  Te2-  Te216  1  0.08063290  0.07837785  0.74050448  1
  Te2-  Te217  1  0.08232667  0.41524470  0.08020129  1
  Te2-  Te218  1  0.07969300  0.41443931  0.40884341  1
  Te2-  Te219  1  0.08300635  0.40973174  0.74676892  1
  Te2-  Te220  1  0.07849385  0.74944479  0.08215312  1
  Te2-  Te221  1  0.08306032  0.74866094  0.41595947  1
  Te2-  Te222  1  0.08017220  0.73874899  0.75070616  1
  Te2-  Te223  1  0.41166428  0.08452864  0.08444543  1
  Te2-  Te224  1  0.41214519  0.08277660  0.41289385  1
  Te2-  Te225  1  0.41174933  0.08114855  0.75051624  1
  Te2-  Te226  1  0.41886492  0.41541527  0.07951292  1
  Te2-  Te227  1  0.41479457  0.41902468  0.41711700  1
  Te2-  Te228  1  0.40577091  0.41631727  0.74727749  1
  Te2-  Te229  1  0.41347296  0.75160389  0.08169592  1
  Te2-  Te230  1  0.41312414  0.73983389  0.40334025  1
  Te2-  Te231  1  0.41389928  0.74818388  0.74978408  1
  Te2-  Te232  1  0.74785848  0.08269539  0.08135031  1
  Te2-  Te233  1  0.74300731  0.07823022  0.41611279  1
  Te2-  Te234  1  0.74328859  0.08475923  0.74662045  1
  Te2-  Te235  1  0.74790398  0.41511099  0.08394140  1
  Te2-  Te236  1  0.75062702  0.41456028  0.41629178  1
  Te2-  Te237  1  0.74464128  0.40593720  0.74731548  1
  Te2-  Te238  1  0.74901937  0.74992479  0.07840767  1
  Te2-  Te239  1  0.74603437  0.74842358  0.41654227  1
  Te2-  Te240  1  0.74925829  0.74087660  0.74486489  1
