# generated using pymatgen
data_Ti27(Cu53Te54)2
_symmetry_space_group_name_H-M   'P 1'
_cell_length_a   17.88749821
_cell_length_b   17.89132966
_cell_length_c   17.88122622
_cell_angle_alpha   90.02998222
_cell_angle_beta   89.98410790
_cell_angle_gamma   90.01286826
_symmetry_Int_Tables_number   1
_chemical_formula_structural   Ti27(Cu53Te54)2
_chemical_formula_sum   'Ti27 Cu106 Te108'
_cell_volume   5722.54783582
_cell_formula_units_Z   1
loop_
 _symmetry_equiv_pos_site_id
 _symmetry_equiv_pos_as_xyz
  1  'x, y, z'
loop_
 _atom_type_symbol
 _atom_type_oxidation_number
  Ti4+  4.0
  Cu+  1.0
  Te2-  -2.0
loop_
 _atom_site_type_symbol
 _atom_site_label
 _atom_site_symmetry_multiplicity
 _atom_site_fract_x
 _atom_site_fract_y
 _atom_site_fract_z
 _atom_site_occupancy
  Ti4+  Ti0  1  0.16660681  0.16640539  0.16411249  1
  Ti4+  Ti1  1  0.16655626  0.16584216  0.50428408  1
  Ti4+  Ti2  1  0.16739844  0.16598315  0.83179074  1
  Ti4+  Ti3  1  0.16587644  0.49865330  0.16631227  1
  Ti4+  Ti4  1  0.16632157  0.49689929  0.49846709  1
  Ti4+  Ti5  1  0.16648877  0.49801549  0.83363477  1
  Ti4+  Ti6  1  0.16661683  0.83506609  0.16639375  1
  Ti4+  Ti7  1  0.16581236  0.83137566  0.50061155  1
  Ti4+  Ti8  1  0.16717492  0.83051846  0.83319977  1
  Ti4+  Ti9  1  0.50486940  0.16483040  0.16626829  1
  Ti4+  Ti10  1  0.49325054  0.16705739  0.49816899  1
  Ti4+  Ti11  1  0.50234420  0.16486907  0.83270969  1
  Ti4+  Ti12  1  0.49851941  0.49455744  0.16558411  1
  Ti4+  Ti13  1  0.49883755  0.50260721  0.49984287  1
  Ti4+  Ti14  1  0.49860770  0.50105682  0.83343154  1
  Ti4+  Ti15  1  0.49533642  0.83103823  0.16900052  1
  Ti4+  Ti16  1  0.50035393  0.83740922  0.49968143  1
  Ti4+  Ti17  1  0.50189306  0.83449122  0.83597482  1
  Ti4+  Ti18  1  0.83804887  0.17184509  0.16840450  1
  Ti4+  Ti19  1  0.83378792  0.16721162  0.49798455  1
  Ti4+  Ti20  1  0.83335843  0.16791876  0.83241420  1
  Ti4+  Ti21  1  0.83072600  0.50302253  0.16921097  1
  Ti4+  Ti22  1  0.83613528  0.49920164  0.50173884  1
  Ti4+  Ti23  1  0.83213706  0.50232143  0.83605305  1
  Ti4+  Ti24  1  0.83390370  0.83556712  0.16857676  1
  Ti4+  Ti25  1  0.83603915  0.83081163  0.49821527  1
  Ti4+  Ti26  1  0.83591797  0.83611669  0.83270569  1
  Cu+  Cu27  1  0.16682748  0.16463847  -0.00355461  1
  Cu+  Cu28  1  0.16694889  0.16722222  0.33422468  1
  Cu+  Cu29  1  0.16790454  0.17196929  0.66934642  1
  Cu+  Cu30  1  0.16858166  0.49450190  0.00017861  1
  Cu+  Cu31  1  0.16713686  0.49954254  0.33096765  1
  Cu+  Cu32  1  0.16516104  0.49706352  0.66627509  1
  Cu+  Cu33  1  0.16979979  0.83538901  -0.00028067  1
  Cu+  Cu34  1  0.16581200  0.83293512  0.33246784  1
  Cu+  Cu35  1  0.16429718  0.83099294  0.66756581  1
  Cu+  Cu36  1  0.50389644  0.16423327  -0.00241363  1
  Cu+  Cu37  1  0.50162067  0.16112967  0.33308619  1
  Cu+  Cu38  1  0.49516740  0.16590935  0.66650570  1
  Cu+  Cu39  1  0.49505054  0.49826044  0.00172848  1
  Cu+  Cu40  1  0.50049196  0.49947744  0.33222963  1
  Cu+  Cu41  1  0.49885213  0.50401033  0.66654012  1
  Cu+  Cu42  1  0.49570181  0.82780167  -0.00020952  1
  Cu+  Cu43  1  0.49764004  0.84009824  0.33439705  1
  Cu+  Cu44  1  0.50355911  0.83573302  0.66934986  1
  Cu+  Cu45  1  0.83632999  0.17046182  0.00133582  1
  Cu+  Cu46  1  0.83178439  0.16404085  0.32908296  1
  Cu+  Cu47  1  0.83429365  0.16761203  0.66282678  1
  Cu+  Cu48  1  0.83257373  0.50416870  0.00259318  1
  Cu+  Cu49  1  0.83155460  0.50062155  0.33920118  1
  Cu+  Cu50  1  0.83331252  0.50205615  0.66975692  1
  Cu+  Cu51  1  0.83094698  0.83330697  -0.00429027  1
  Cu+  Cu52  1  0.83756956  0.83157559  0.33493807  1
  Cu+  Cu53  1  0.83778057  0.83235558  0.66567973  1
  Cu+  Cu54  1  0.16528488  0.00079907  0.16466292  1
  Cu+  Cu55  1  0.16565557  -0.00042839  0.50440064  1
  Cu+  Cu56  1  0.16829324  -0.00391885  0.83153714  1
  Cu+  Cu57  1  0.16841036  0.33443798  0.16267303  1
  Cu+  Cu58  1  0.16654206  0.32907505  0.50198609  1
  Cu+  Cu59  1  0.16476735  0.33147906  0.83050376  1
  Cu+  Cu60  1  0.16398059  0.66939973  0.16569106  1
  Cu+  Cu61  1  0.16644630  0.66315899  0.50187438  1
  Cu+  Cu62  1  0.16699463  0.66178219  0.83413353  1
  Cu+  Cu63  1  0.49753502  -0.00203269  0.17090254  1
  Cu+  Cu64  1  0.49018813  0.00268454  0.49473224  1
  Cu+  Cu65  1  0.50397500  -0.00078066  0.83413690  1
  Cu+  Cu66  1  0.50600796  0.32743627  0.16726151  1
  Cu+  Cu67  1  0.49783313  0.33902540  0.49921838  1
  Cu+  Cu68  1  0.50042212  0.33242714  0.83191733  1
  Cu+  Cu69  1  0.49578716  0.65941764  0.16458088  1
  Cu+  Cu70  1  0.50071773  0.67170845  0.50081952  1
  Cu+  Cu71  1  0.49929213  0.66858221  0.83674560  1
  Cu+  Cu72  1  0.84497678  0.00438959  0.16980874  1
  Cu+  Cu73  1  0.83505106  -0.00083642  0.49857092  1
  Cu+  Cu74  1  0.83566789  0.00227884  0.83074887  1
  Cu+  Cu75  1  0.83033789  0.33621809  0.16514433  1
  Cu+  Cu76  1  0.83767848  0.33463101  0.49979070  1
  Cu+  Cu77  1  0.83284692  0.33790457  0.83453771  1
  Cu+  Cu78  1  0.82897984  0.67064408  0.17081501  1
  Cu+  Cu79  1  0.83711878  0.66378128  0.49412286  1
  Cu+  Cu80  1  0.83426355  0.66908161  0.83585103  1
  Cu+  Cu81  1  0.00040340  0.16656827  0.16194663  1
  Cu+  Cu82  1  0.00176415  0.16843821  0.49804963  1
  Cu+  Cu83  1  0.00044623  0.16825039  0.82984620  1
  Cu+  Cu84  1  -0.00084628  0.50272845  0.16794490  1
  Cu+  Cu85  1  -0.00003580  0.49158767  0.49938560  1
  Cu+  Cu86  1  -0.00197272  0.49967402  0.83687187  1
  Cu+  Cu87  1  0.00105576  0.84052379  0.16674566  1
  Cu+  Cu88  1  -0.00004360  0.82655208  0.49764338  1
  Cu+  Cu89  1  0.00223663  0.83432495  0.82849393  1
  Cu+  Cu90  1  0.33526797  0.16544966  0.16386169  1
  Cu+  Cu91  1  0.32984418  0.16484395  0.51104700  1
  Cu+  Cu92  1  0.33702310  0.16419629  0.83316617  1
  Cu+  Cu93  1  0.33091998  0.49273924  0.15931582  1
  Cu+  Cu94  1  0.33430384  0.50145880  0.49997072  1
  Cu+  Cu95  1  0.33182416  0.49797106  0.83158965  1
  Cu+  Cu96  1  0.32804822  0.83144767  0.16559244  1
  Cu+  Cu97  1  0.33134741  0.83549212  0.50136358  1
  Cu+  Cu98  1  0.33339227  0.83462305  0.83930524  1
  Cu+  Cu99  1  0.67351530  0.17663987  0.16863954  1
  Cu+  Cu100  1  0.66470022  0.16903597  0.49841919  1
  Cu+  Cu101  1  0.66661906  0.16690721  0.83126057  1
  Cu+  Cu102  1  0.66209633  0.50010477  0.17110458  1
  Cu+  Cu103  1  0.66665536  0.50204065  0.50308865  1
  Cu+  Cu104  1  0.66417059  0.50365522  0.83486299  1
  Cu+  Cu105  1  0.66247479  0.83019700  0.16990912  1
  Cu+  Cu106  1  0.67016097  0.83685020  0.49855132  1
  Cu+  Cu107  1  0.67072214  0.83310120  0.83581971  1
  Cu+  Cu108  1  0.74537547  0.26505267  0.06840476  1
  Cu+  Cu109  1  0.07507062  0.92634626  0.73835036  1
  Cu+  Cu110  1  0.58984244  0.92342825  0.25419109  1
  Cu+  Cu111  1  0.92740736  0.07607878  0.06824532  1
  Cu+  Cu112  1  0.40135272  0.73652580  0.91998514  1
  Cu+  Cu113  1  0.26020290  0.26499419  0.59781041  1
  Cu+  Cu114  1  0.40564429  0.07062588  0.59907563  1
  Cu+  Cu115  1  0.06853059  0.26417413  0.74319137  1
  Cu+  Cu116  1  0.26082582  0.92893034  0.92807066  1
  Cu+  Cu117  1  0.93285750  0.92874524  0.26423766  1
  Cu+  Cu118  1  0.74797729  0.92575367  0.40963849  1
  Cu+  Cu119  1  0.93338021  0.73506696  0.40385286  1
  Cu+  Cu120  1  0.92481559  0.40533796  0.40356477  1
  Cu+  Cu121  1  0.07788452  0.25515838  0.40287600  1
  Cu+  Cu122  1  0.59485272  0.25978435  0.26486132  1
  Cu+  Cu123  1  0.74442380  0.07598402  0.24664811  1
  Cu+  Cu124  1  0.74173614  0.73944966  0.92317104  1
  Cu+  Cu125  1  0.40098718  0.58827684  0.07464123  1
  Cu+  Cu126  1  0.25911962  0.40019848  0.06766368  1
  Cu+  Cu127  1  0.58268403  0.59182741  0.25759181  1
  Cu+  Cu128  1  0.40205229  0.07650171  0.25286485  1
  Cu+  Cu129  1  0.73871930  0.74423969  0.26103039  1
  Cu+  Cu130  1  0.73736316  0.58932258  0.41551741  1
  Cu+  Cu131  1  0.59236644  0.07565818  0.41579979  1
  Cu+  Cu132  1  0.39731755  0.92397071  0.40746129  1
  Te2-  Te133  1  0.25414967  0.24852445  0.07712264  1
  Te2-  Te134  1  0.25475494  0.24918799  0.41702323  1
  Te2-  Te135  1  0.25866809  0.25364768  0.75036723  1
  Te2-  Te136  1  0.24905082  0.58756409  0.07920444  1
  Te2-  Te137  1  0.25091407  0.58355316  0.41481416  1
  Te2-  Te138  1  0.25084342  0.58275481  0.74648117  1
  Te2-  Te139  1  0.25446124  0.92275234  0.08120839  1
  Te2-  Te140  1  0.24765498  0.92096013  0.41437460  1
  Te2-  Te141  1  0.25486884  0.91455984  0.74634036  1
  Te2-  Te142  1  0.58895171  0.25080499  0.07637557  1
  Te2-  Te143  1  0.58239862  0.25532872  0.41558932  1
  Te2-  Te144  1  0.58450279  0.25076356  0.74510861  1
  Te2-  Te145  1  0.58534048  0.58231855  0.07972111  1
  Te2-  Te146  1  0.58502694  0.59040004  0.41333979  1
  Te2-  Te147  1  0.58302606  0.58865627  0.74939650  1
  Te2-  Te148  1  0.58102217  0.91520391  0.08308021  1
  Te2-  Te149  1  0.59079808  0.92420208  0.41067846  1
  Te2-  Te150  1  0.58957934  0.91807407  0.75084664  1
  Te2-  Te151  1  0.92171452  0.25922737  0.08128743  1
  Te2-  Te152  1  0.92019160  0.25192194  0.40906263  1
  Te2-  Te153  1  0.91602976  0.25567074  0.74572139  1
  Te2-  Te154  1  0.91545752  0.58907206  0.08604337  1
  Te2-  Te155  1  0.92697836  0.58300840  0.41185914  1
  Te2-  Te156  1  0.91886718  0.58680437  0.75115132  1
  Te2-  Te157  1  0.91770007  0.91872168  0.07654989  1
  Te2-  Te158  1  0.92455197  0.92128202  0.41510010  1
  Te2-  Te159  1  0.92080714  0.92213951  0.74377760  1
  Te2-  Te160  1  0.24985843  0.08104869  0.25198429  1
  Te2-  Te161  1  0.24938638  0.07592448  0.59350336  1
  Te2-  Te162  1  0.25420711  0.08018977  0.91769578  1
  Te2-  Te163  1  0.25246028  0.41270183  0.25216029  1
  Te2-  Te164  1  0.25406748  0.41485855  0.58626181  1
  Te2-  Te165  1  0.25393624  0.40903687  0.91625425  1
  Te2-  Te166  1  0.25009078  0.74731813  0.25233927  1
  Te2-  Te167  1  0.25126832  0.74716532  0.58549203  1
  Te2-  Te168  1  0.25045373  0.74220157  0.92153746  1
  Te2-  Te169  1  0.59370619  0.07641885  0.25469959  1
  Te2-  Te170  1  0.58146091  0.08146522  0.58178279  1
  Te2-  Te171  1  0.58960141  0.07994099  0.91797880  1
  Te2-  Te172  1  0.58675895  0.41093235  0.25581206  1
  Te2-  Te173  1  0.58417232  0.41753378  0.58601643  1
  Te2-  Te174  1  0.58318726  0.41579315  0.91880462  1
  Te2-  Te175  1  0.58054412  0.74369693  0.25694678  1
  Te2-  Te176  1  0.58714543  0.75315138  0.58386615  1
  Te2-  Te177  1  0.58827953  0.74701967  0.92209686  1
  Te2-  Te178  1  0.92850599  0.08469417  0.25801992  1
  Te2-  Te179  1  0.91934317  0.08253953  0.58186529  1
  Te2-  Te180  1  0.92107841  0.08248067  0.91700744  1
  Te2-  Te181  1  0.91753963  0.41563858  0.25153050  1
  Te2-  Te182  1  0.91848241  0.41387976  0.59114143  1
  Te2-  Te183  1  0.91650047  0.41656874  0.92284563  1
  Te2-  Te184  1  0.92395074  0.74734784  0.25017771  1
  Te2-  Te185  1  0.91876687  0.74363551  0.58498213  1
  Te2-  Te186  1  0.92295300  0.75098961  0.91824688  1
  Te2-  Te187  1  0.08139302  0.25358490  0.24819350  1
  Te2-  Te188  1  0.07673354  0.25359928  0.58928565  1
  Te2-  Te189  1  0.08148623  0.25105467  0.91825143  1
  Te2-  Te190  1  0.08189871  0.58607725  0.25179117  1
  Te2-  Te191  1  0.07996825  0.58030283  0.58360581  1
  Te2-  Te192  1  0.08266991  0.58209750  0.92123978  1
  Te2-  Te193  1  0.08340143  0.92318971  0.25489976  1
  Te2-  Te194  1  0.07710770  0.91671797  0.58444576  1
  Te2-  Te195  1  0.08088171  0.91760785  0.91863114  1
  Te2-  Te196  1  0.41654596  0.24938445  0.25145625  1
  Te2-  Te197  1  0.41471994  0.25795216  0.58700899  1
  Te2-  Te198  1  0.41705965  0.24997273  0.91877509  1
  Te2-  Te199  1  0.40893634  0.57892772  0.25047694  1
  Te2-  Te200  1  0.41434428  0.58917037  0.58430466  1
  Te2-  Te201  1  0.40832711  0.58524717  0.92055942  1
  Te2-  Te202  1  0.40434529  0.91966546  0.25316297  1
  Te2-  Te203  1  0.41345784  0.91834801  0.58970713  1
  Te2-  Te204  1  0.41671403  0.92321081  0.92289227  1
  Te2-  Te205  1  0.75060171  0.26046085  0.25975318  1
  Te2-  Te206  1  0.74856407  0.25284033  0.58193058  1
  Te2-  Te207  1  0.74698666  0.25403652  0.91743490  1
  Te2-  Te208  1  0.74237504  0.58856391  0.25821270  1
  Te2-  Te209  1  0.75084839  0.58818364  0.58565326  1
  Te2-  Te210  1  0.74517913  0.58804051  0.92231449  1
  Te2-  Te211  1  0.74493448  0.92367462  0.25574442  1
  Te2-  Te212  1  0.75228617  0.91820559  0.58590047  1
  Te2-  Te213  1  0.74981585  0.92408186  0.91730029  1
  Te2-  Te214  1  0.08152291  0.07969352  0.07685405  1
  Te2-  Te215  1  0.08274575  0.07975553  0.41608698  1
  Te2-  Te216  1  0.08189109  0.07958801  0.74541462  1
  Te2-  Te217  1  0.07712155  0.41480163  0.08153456  1
  Te2-  Te218  1  0.08176111  0.40878584  0.40942030  1
  Te2-  Te219  1  0.07703970  0.41523268  0.74737854  1
  Te2-  Te220  1  0.08029146  0.75234968  0.08037898  1
  Te2-  Te221  1  0.08444003  0.74316821  0.41201594  1
  Te2-  Te222  1  0.08193223  0.74226971  0.74873934  1
  Te2-  Te223  1  0.41902165  0.07988863  0.07995314  1
  Te2-  Te224  1  0.40195956  0.08199645  0.40910282  1
  Te2-  Te225  1  0.41438569  0.07587806  0.74957198  1
  Te2-  Te226  1  0.41619178  0.40324685  0.07935789  1
  Te2-  Te227  1  0.41342041  0.41725206  0.41295770  1
  Te2-  Te228  1  0.41572868  0.41519204  0.74680326  1
  Te2-  Te229  1  0.40901283  0.74438946  0.08192345  1
  Te2-  Te230  1  0.41439796  0.75115350  0.41518102  1
  Te2-  Te231  1  0.41484108  0.75104691  0.74932170  1
  Te2-  Te232  1  0.75118045  0.08171612  0.08534007  1
  Te2-  Te233  1  0.74573699  0.07919457  0.41070377  1
  Te2-  Te234  1  0.74989428  0.08343376  0.74581543  1
  Te2-  Te235  1  0.74419041  0.41944991  0.08143998  1
  Te2-  Te236  1  0.74589830  0.41335853  0.41832610  1
  Te2-  Te237  1  0.74587821  0.41812664  0.74991995  1
  Te2-  Te238  1  0.74600180  0.75031218  0.08178978  1
  Te2-  Te239  1  0.74317946  0.74454035  0.41231422  1
  Te2-  Te240  1  0.75071732  0.74962386  0.74677037  1
