# generated using pymatgen
data_Ti27(Cu53Te54)2
_symmetry_space_group_name_H-M   'P 1'
_cell_length_a   17.96746569
_cell_length_b   17.95752878
_cell_length_c   17.95120574
_cell_angle_alpha   89.96581294
_cell_angle_beta   90.01596062
_cell_angle_gamma   89.95592984
_symmetry_Int_Tables_number   1
_chemical_formula_structural   Ti27(Cu53Te54)2
_chemical_formula_sum   'Ti27 Cu106 Te108'
_cell_volume   5791.97657999
_cell_formula_units_Z   1
loop_
 _symmetry_equiv_pos_site_id
 _symmetry_equiv_pos_as_xyz
  1  'x, y, z'
loop_
 _atom_type_symbol
 _atom_type_oxidation_number
  Ti4+  4.0
  Cu+  1.0
  Te2-  -2.0
loop_
 _atom_site_type_symbol
 _atom_site_label
 _atom_site_symmetry_multiplicity
 _atom_site_fract_x
 _atom_site_fract_y
 _atom_site_fract_z
 _atom_site_occupancy
  Ti4+  Ti0  1  0.16565920  0.16404155  0.16363713  1
  Ti4+  Ti1  1  0.17052255  0.16636589  0.49786417  1
  Ti4+  Ti2  1  0.16380630  0.16935548  0.83021521  1
  Ti4+  Ti3  1  0.16598393  0.49805362  0.17089241  1
  Ti4+  Ti4  1  0.16534988  0.49922353  0.49730807  1
  Ti4+  Ti5  1  0.16412905  0.50210604  0.83310083  1
  Ti4+  Ti6  1  0.17007345  0.83099446  0.16734648  1
  Ti4+  Ti7  1  0.16397913  0.83089517  0.49941586  1
  Ti4+  Ti8  1  0.16575570  0.83666693  0.83151413  1
  Ti4+  Ti9  1  0.49998129  0.16763354  0.16387806  1
  Ti4+  Ti10  1  0.50039512  0.16820985  0.50126723  1
  Ti4+  Ti11  1  0.49815521  0.16685236  0.83011445  1
  Ti4+  Ti12  1  0.49976747  0.50212540  0.16816424  1
  Ti4+  Ti13  1  0.50027868  0.49954680  0.50343117  1
  Ti4+  Ti14  1  0.49983630  0.50255585  0.83263902  1
  Ti4+  Ti15  1  0.50291372  0.83438919  0.16853887  1
  Ti4+  Ti16  1  0.49910203  0.83395113  0.50233063  1
  Ti4+  Ti17  1  0.50271293  0.83168493  0.83777153  1
  Ti4+  Ti18  1  0.83176904  0.16669925  0.16510322  1
  Ti4+  Ti19  1  0.83242425  0.17015893  0.50009291  1
  Ti4+  Ti20  1  0.83381925  0.16607936  0.83123708  1
  Ti4+  Ti21  1  0.83166608  0.49927341  0.17003839  1
  Ti4+  Ti22  1  0.83329376  0.49835266  0.49826371  1
  Ti4+  Ti23  1  0.83334157  0.49781647  0.83748732  1
  Ti4+  Ti24  1  0.83611018  0.83157735  0.16570417  1
  Ti4+  Ti25  1  0.83147625  0.83441245  0.49963062  1
  Ti4+  Ti26  1  0.83447775  0.83241584  0.83077656  1
  Cu+  Cu27  1  0.16303125  0.16527534  -0.00314914  1
  Cu+  Cu28  1  0.16978392  0.16725840  0.32969666  1
  Cu+  Cu29  1  0.17163537  0.16426301  0.66778673  1
  Cu+  Cu30  1  0.16188638  0.50049898  0.00090461  1
  Cu+  Cu31  1  0.17325208  0.49726629  0.33405538  1
  Cu+  Cu32  1  0.16307740  0.50409948  0.66495719  1
  Cu+  Cu33  1  0.16938784  0.83333641  0.00079761  1
  Cu+  Cu34  1  0.16283734  0.82822950  0.33407110  1
  Cu+  Cu35  1  0.16424498  0.83882984  0.66404436  1
  Cu+  Cu36  1  0.49966421  0.16631059  -0.00279021  1
  Cu+  Cu37  1  0.50121299  0.16810944  0.33264863  1
  Cu+  Cu38  1  0.49576611  0.17326593  0.66557506  1
  Cu+  Cu39  1  0.50069197  0.50254853  -0.00088768  1
  Cu+  Cu40  1  0.50169287  0.50003632  0.33792023  1
  Cu+  Cu41  1  0.49917353  0.50177414  0.66782098  1
  Cu+  Cu42  1  0.50366004  0.83433836  0.00317377  1
  Cu+  Cu43  1  0.49817873  0.83455713  0.33542145  1
  Cu+  Cu44  1  0.50244005  0.83155069  0.67128767  1
  Cu+  Cu45  1  0.83165919  0.16657420  -0.00199897  1
  Cu+  Cu46  1  0.83311991  0.16879566  0.33219693  1
  Cu+  Cu47  1  0.83107449  0.16506714  0.66475859  1
  Cu+  Cu48  1  0.83422517  0.49919107  0.00836081  1
  Cu+  Cu49  1  0.83563302  0.49701467  0.33101638  1
  Cu+  Cu50  1  0.83308768  0.49556844  0.66946164  1
  Cu+  Cu51  1  0.83931986  0.83379370  -0.00421912  1
  Cu+  Cu52  1  0.83180804  0.83263200  0.33464730  1
  Cu+  Cu53  1  0.83223213  0.83163315  0.66349662  1
  Cu+  Cu54  1  0.16771278  -0.00160145  0.16307663  1
  Cu+  Cu55  1  0.16721269  -0.00197070  0.49821535  1
  Cu+  Cu56  1  0.16048757  0.00052571  0.82622302  1
  Cu+  Cu57  1  0.16762521  0.32748877  0.16869965  1
  Cu+  Cu58  1  0.16940749  0.33357991  0.49490814  1
  Cu+  Cu59  1  0.16457615  0.33666500  0.83583168  1
  Cu+  Cu60  1  0.16637478  0.66574783  0.17313974  1
  Cu+  Cu61  1  0.16564204  0.66267717  0.50177950  1
  Cu+  Cu62  1  0.16280226  0.66962508  0.83266151  1
  Cu+  Cu63  1  0.50226046  0.00154431  0.16472100  1
  Cu+  Cu64  1  0.49780532  0.00288705  0.50349259  1
  Cu+  Cu65  1  0.49863984  -0.00329039  0.83381577  1
  Cu+  Cu66  1  0.49936542  0.33503724  0.16306570  1
  Cu+  Cu67  1  0.50493085  0.33084895  0.50495882  1
  Cu+  Cu68  1  0.49622158  0.33590119  0.83055395  1
  Cu+  Cu69  1  0.49971800  0.66971706  0.17177571  1
  Cu+  Cu70  1  0.49980489  0.66628177  0.50128025  1
  Cu+  Cu71  1  0.50568836  0.66884443  0.83451983  1
  Cu+  Cu72  1  0.83485235  0.00044104  0.16250474  1
  Cu+  Cu73  1  0.83130479  0.00195018  0.50097579  1
  Cu+  Cu74  1  0.83569981  -0.00194879  0.83432684  1
  Cu+  Cu75  1  0.83175939  0.33230308  0.16669184  1
  Cu+  Cu76  1  0.83269730  0.33690769  0.49730255  1
  Cu+  Cu77  1  0.83889106  0.33264222  0.83337715  1
  Cu+  Cu78  1  0.82862047  0.66698134  0.17119701  1
  Cu+  Cu79  1  0.83250909  0.66772339  0.49828729  1
  Cu+  Cu80  1  0.82989436  0.66369808  0.83383338  1
  Cu+  Cu81  1  -0.00052117  0.16341704  0.16387663  1
  Cu+  Cu82  1  0.00450601  0.16950130  0.49747547  1
  Cu+  Cu83  1  -0.00064765  0.16748707  0.83256256  1
  Cu+  Cu84  1  -0.00237487  0.49887631  0.16937815  1
  Cu+  Cu85  1  -0.00163491  0.49599242  0.49204097  1
  Cu+  Cu86  1  -0.00073500  0.49643044  0.83611102  1
  Cu+  Cu87  1  0.00474247  0.82966349  0.16583051  1
  Cu+  Cu88  1  -0.00451968  0.83201038  0.49658281  1
  Cu+  Cu89  1  -0.00140474  0.84026345  0.83195299  1
  Cu+  Cu90  1  0.33439195  0.16688693  0.16355293  1
  Cu+  Cu91  1  0.33699810  0.16396840  0.50000446  1
  Cu+  Cu92  1  0.33137453  0.17021027  0.82648023  1
  Cu+  Cu93  1  0.33329522  0.50264559  0.17069157  1
  Cu+  Cu94  1  0.33270878  0.49982795  0.50034182  1
  Cu+  Cu95  1  0.33126170  0.50388181  0.83493157  1
  Cu+  Cu96  1  0.33743082  0.83214898  0.16915358  1
  Cu+  Cu97  1  0.32905100  0.83272952  0.50210919  1
  Cu+  Cu98  1  0.33635915  0.83554283  0.83489403  1
  Cu+  Cu99  1  0.66477728  0.16751745  0.16166464  1
  Cu+  Cu100  1  0.66693699  0.16872960  0.50497445  1
  Cu+  Cu101  1  0.66720060  0.16606051  0.83079923  1
  Cu+  Cu102  1  0.66629777  0.50264525  0.16916343  1
  Cu+  Cu103  1  0.66791215  0.49664332  0.50355235  1
  Cu+  Cu104  1  0.66802333  0.50400728  0.83489983  1
  Cu+  Cu105  1  0.66925357  0.83042861  0.16770754  1
  Cu+  Cu106  1  0.66417151  0.83665484  0.49953575  1
  Cu+  Cu107  1  0.66653110  0.82688363  0.83319749  1
  Cu+  Cu108  1  0.92784009  0.40334007  0.07840193  1
  Cu+  Cu109  1  0.92775411  0.92922655  0.92791371  1
  Cu+  Cu110  1  0.40935148  0.74412118  0.26402681  1
  Cu+  Cu111  1  0.59366592  0.74060309  0.73995313  1
  Cu+  Cu112  1  0.40921468  0.07724248  0.59118683  1
  Cu+  Cu113  1  0.26193046  0.59369741  0.25823013  1
  Cu+  Cu114  1  0.74601362  0.58940240  0.73794907  1
  Cu+  Cu115  1  0.92701110  0.40261369  0.40497391  1
  Cu+  Cu116  1  0.25844219  0.07321658  0.74921594  1
  Cu+  Cu117  1  0.41313446  0.91905648  0.74397779  1
  Cu+  Cu118  1  0.73755036  0.59387259  0.07677127  1
  Cu+  Cu119  1  0.92918346  0.40611653  0.74200783  1
  Cu+  Cu120  1  0.92308741  0.59346897  0.25890315  1
  Cu+  Cu121  1  0.40242083  0.26875732  0.74124380  1
  Cu+  Cu122  1  0.74206959  0.07017468  0.59327454  1
  Cu+  Cu123  1  0.74192073  0.41097514  0.59737980  1
  Cu+  Cu124  1  0.26435149  0.25037759  0.25570478  1
  Cu+  Cu125  1  0.73478383  0.40127756  0.25344473  1
  Cu+  Cu126  1  0.26688133  0.40531920  0.41112883  1
  Cu+  Cu127  1  0.25542857  0.92499945  0.58647088  1
  Cu+  Cu128  1  0.06682655  0.92780206  0.73410620  1
  Cu+  Cu129  1  0.59574311  0.25847000  0.59617975  1
  Cu+  Cu130  1  0.26078215  0.58718331  0.59674087  1
  Cu+  Cu131  1  0.73888252  0.74530132  0.26382685  1
  Cu+  Cu132  1  0.07352969  0.74065841  0.26113657  1
  Te2-  Te133  1  0.25018467  0.24997518  0.07701229  1
  Te2-  Te134  1  0.25909719  0.25129218  0.41194024  1
  Te2-  Te135  1  0.24906728  0.25961808  0.74519441  1
  Te2-  Te136  1  0.24813676  0.58343776  0.08444934  1
  Te2-  Te137  1  0.25430675  0.58827459  0.41345825  1
  Te2-  Te138  1  0.24995982  0.58888982  0.74858705  1
  Te2-  Te139  1  0.25547084  0.91598629  0.08275452  1
  Te2-  Te140  1  0.24953291  0.91494226  0.41243844  1
  Te2-  Te141  1  0.25738786  0.92149656  0.74371073  1
  Te2-  Te142  1  0.58334525  0.25323399  0.07760713  1
  Te2-  Te143  1  0.58643691  0.25168048  0.41511120  1
  Te2-  Te144  1  0.58657025  0.25458698  0.74827978  1
  Te2-  Te145  1  0.58403763  0.58896244  0.08299067  1
  Te2-  Te146  1  0.58645396  0.58372733  0.41975844  1
  Te2-  Te147  1  0.58880019  0.58739130  0.74449357  1
  Te2-  Te148  1  0.58920857  0.91833073  0.08352050  1
  Te2-  Te149  1  0.58078199  0.92088634  0.41754879  1
  Te2-  Te150  1  0.58859805  0.91846321  0.75054716  1
  Te2-  Te151  1  0.91878452  0.25112948  0.07930532  1
  Te2-  Te152  1  0.92027214  0.25270047  0.41291514  1
  Te2-  Te153  1  0.92002437  0.25097438  0.74410184  1
  Te2-  Te154  1  0.91874849  0.58808158  0.08594604  1
  Te2-  Te155  1  0.91770544  0.58761166  0.41309156  1
  Te2-  Te156  1  0.91784734  0.58265028  0.75009689  1
  Te2-  Te157  1  0.92312065  0.91765084  0.08187800  1
  Te2-  Te158  1  0.91520535  0.92029396  0.41458964  1
  Te2-  Te159  1  0.91566971  0.92074961  0.74100380  1
  Te2-  Te160  1  0.25319642  0.07929394  0.24859332  1
  Te2-  Te161  1  0.25552917  0.07755962  0.58676110  1
  Te2-  Te162  1  0.24953127  0.08218767  0.91262426  1
  Te2-  Te163  1  0.25665039  0.40851936  0.25306408  1
  Te2-  Te164  1  0.24946783  0.41527031  0.58598505  1
  Te2-  Te165  1  0.24956421  0.41874932  0.91913944  1
  Te2-  Te166  1  0.25731098  0.74612481  0.25815483  1
  Te2-  Te167  1  0.24932554  0.74528495  0.58783605  1
  Te2-  Te168  1  0.25097217  0.75074596  0.91494037  1
  Te2-  Te169  1  0.58532414  0.08398618  0.25000196  1
  Te2-  Te170  1  0.58575523  0.08145497  0.59043151  1
  Te2-  Te171  1  0.58343435  0.08204210  0.91431776  1
  Te2-  Te172  1  0.58319430  0.41402660  0.25330454  1
  Te2-  Te173  1  0.58700779  0.41375814  0.59241208  1
  Te2-  Te174  1  0.58354853  0.41617448  0.91629286  1
  Te2-  Te175  1  0.58776753  0.74780280  0.25779577  1
  Te2-  Te176  1  0.58617044  0.74775404  0.58539500  1
  Te2-  Te177  1  0.58798761  0.74678414  0.92469919  1
  Te2-  Te178  1  0.91630490  0.08181929  0.25054037  1
  Te2-  Te179  1  0.92063758  0.08512701  0.58149927  1
  Te2-  Te180  1  0.91984493  0.08217603  0.91881428  1
  Te2-  Te181  1  0.92138268  0.40805911  0.25330449  1
  Te2-  Te182  1  0.92126048  0.41387997  0.58562008  1
  Te2-  Te183  1  0.91943683  0.41307897  0.92541672  1
  Te2-  Te184  1  0.92215469  0.74663995  0.25603329  1
  Te2-  Te185  1  0.91702259  0.74725429  0.58343224  1
  Te2-  Te186  1  0.92066730  0.74586092  0.91287750  1
  Te2-  Te187  1  0.07872180  0.24807688  0.25040015  1
  Te2-  Te188  1  0.08780585  0.25119960  0.58292597  1
  Te2-  Te189  1  0.07960574  0.25276190  0.91726128  1
  Te2-  Te190  1  0.07833559  0.58353920  0.25876600  1
  Te2-  Te191  1  0.07504355  0.58221429  0.58034370  1
  Te2-  Te192  1  0.07906279  0.58647892  0.91812735  1
  Te2-  Te193  1  0.08388311  0.91785768  0.25060971  1
  Te2-  Te194  1  0.07550558  0.92048981  0.58051227  1
  Te2-  Te195  1  0.08293240  0.92132888  0.92181314  1
  Te2-  Te196  1  0.41631928  0.25421892  0.25160644  1
  Te2-  Te197  1  0.40868686  0.25726335  0.58503225  1
  Te2-  Te198  1  0.41330753  0.25088761  0.91575286  1
  Te2-  Te199  1  0.41525468  0.58716747  0.25930462  1
  Te2-  Te200  1  0.41390053  0.58694312  0.58704975  1
  Te2-  Te201  1  0.41645428  0.58834685  0.91705349  1
  Te2-  Te202  1  0.41703398  0.92155983  0.25175883  1
  Te2-  Te203  1  0.41160939  0.91973093  0.59006968  1
  Te2-  Te204  1  0.41636305  0.91792227  0.92313626  1
  Te2-  Te205  1  0.74414053  0.25059457  0.25160798  1
  Te2-  Te206  1  0.74780691  0.25928199  0.58928678  1
  Te2-  Te207  1  0.74909297  0.25148756  0.91500721  1
  Te2-  Te208  1  0.74448505  0.58690848  0.25915157  1
  Te2-  Te209  1  0.74933604  0.58570713  0.58517925  1
  Te2-  Te210  1  0.74842082  0.58475324  0.92510375  1
  Te2-  Te211  1  0.75167752  0.91866728  0.24889602  1
  Te2-  Te212  1  0.74494487  0.91878949  0.58670441  1
  Te2-  Te213  1  0.74765372  0.91516950  0.91601921  1
  Te2-  Te214  1  0.08074287  0.07816893  0.07877650  1
  Te2-  Te215  1  0.08546409  0.08284693  0.41330190  1
  Te2-  Te216  1  0.07596220  0.08350859  0.74197217  1
  Te2-  Te217  1  0.08181505  0.41269702  0.08455805  1
  Te2-  Te218  1  0.08119106  0.41088486  0.40887465  1
  Te2-  Te219  1  0.08095307  0.41450562  0.74583408  1
  Te2-  Te220  1  0.08598361  0.74527954  0.08067103  1
  Te2-  Te221  1  0.07761783  0.74314511  0.41623927  1
  Te2-  Te222  1  0.07998812  0.75285441  0.74681038  1
  Te2-  Te223  1  0.41564711  0.08162054  0.07938175  1
  Te2-  Te224  1  0.41711582  0.08222264  0.41302189  1
  Te2-  Te225  1  0.41218283  0.07576012  0.74343977  1
  Te2-  Te226  1  0.41443010  0.42045310  0.08249847  1
  Te2-  Te227  1  0.41837267  0.41174542  0.41728939  1
  Te2-  Te228  1  0.41055033  0.41982222  0.74676595  1
  Te2-  Te229  1  0.41767606  0.74877630  0.08215902  1
  Te2-  Te230  1  0.41291720  0.74777965  0.41851574  1
  Te2-  Te231  1  0.41481713  0.74645395  0.75096261  1
  Te2-  Te232  1  0.74795206  0.08134715  0.07960256  1
  Te2-  Te233  1  0.74687503  0.08554780  0.41552018  1
  Te2-  Te234  1  0.74753715  0.07843041  0.74803828  1
  Te2-  Te235  1  0.74403483  0.41374686  0.08341214  1
  Te2-  Te236  1  0.74461444  0.41478818  0.41051371  1
  Te2-  Te237  1  0.74498240  0.41100320  0.75233033  1
  Te2-  Te238  1  0.75032526  0.74852439  0.07681121  1
  Te2-  Te239  1  0.74381282  0.74770714  0.41604961  1
  Te2-  Te240  1  0.74756972  0.74450881  0.74347019  1
