# generated using pymatgen
data_Ti27(Cu53Te54)2
_symmetry_space_group_name_H-M   'P 1'
_cell_length_a   17.86206383
_cell_length_b   17.86253188
_cell_length_c   17.86103887
_cell_angle_alpha   89.98705730
_cell_angle_beta   90.00150049
_cell_angle_gamma   89.97938986
_symmetry_Int_Tables_number   1
_chemical_formula_structural   Ti27(Cu53Te54)2
_chemical_formula_sum   'Ti27 Cu106 Te108'
_cell_volume   5698.77263407
_cell_formula_units_Z   1
loop_
 _symmetry_equiv_pos_site_id
 _symmetry_equiv_pos_as_xyz
  1  'x, y, z'
loop_
 _atom_type_symbol
 _atom_type_oxidation_number
  Ti4+  4.0
  Cu+  1.0
  Te2-  -2.0
loop_
 _atom_site_type_symbol
 _atom_site_label
 _atom_site_symmetry_multiplicity
 _atom_site_fract_x
 _atom_site_fract_y
 _atom_site_fract_z
 _atom_site_occupancy
  Ti4+  Ti0  1  0.16861036  0.16591434  0.16807488  1
  Ti4+  Ti1  1  0.16813112  0.16470347  0.49812443  1
  Ti4+  Ti2  1  0.16497358  0.16746081  0.83273706  1
  Ti4+  Ti3  1  0.16516339  0.49836463  0.16885462  1
  Ti4+  Ti4  1  0.16617135  0.49887522  0.50246221  1
  Ti4+  Ti5  1  0.16847149  0.49979875  0.83644292  1
  Ti4+  Ti6  1  0.16419184  0.83269245  0.16566289  1
  Ti4+  Ti7  1  0.16746042  0.83116765  0.49773752  1
  Ti4+  Ti8  1  0.16639923  0.83724750  0.83108611  1
  Ti4+  Ti9  1  0.49934688  0.16616502  0.16567208  1
  Ti4+  Ti10  1  0.50118617  0.16789091  0.50113120  1
  Ti4+  Ti11  1  0.49990907  0.16551200  0.83195124  1
  Ti4+  Ti12  1  0.49759079  0.50175370  0.16630650  1
  Ti4+  Ti13  1  0.49977152  0.50015791  0.50068343  1
  Ti4+  Ti14  1  0.50152933  0.49864940  0.83270753  1
  Ti4+  Ti15  1  0.50011110  0.83291665  0.16588108  1
  Ti4+  Ti16  1  0.50370660  0.83179533  0.49887453  1
  Ti4+  Ti17  1  0.49973122  0.83286023  0.83062411  1
  Ti4+  Ti18  1  0.83186742  0.16705657  0.16988439  1
  Ti4+  Ti19  1  0.83265323  0.16978001  0.49763151  1
  Ti4+  Ti20  1  0.83356716  0.16637022  0.83351363  1
  Ti4+  Ti21  1  0.83222998  0.49782706  0.16695984  1
  Ti4+  Ti22  1  0.83111029  0.50216344  0.49771352  1
  Ti4+  Ti23  1  0.83486191  0.49792639  0.83365165  1
  Ti4+  Ti24  1  0.83343647  0.83668674  0.16709725  1
  Ti4+  Ti25  1  0.83290550  0.83496257  0.50244421  1
  Ti4+  Ti26  1  0.83297930  0.83449694  0.83697230  1
  Cu+  Cu27  1  0.16974402  0.17119923  0.00031109  1
  Cu+  Cu28  1  0.16345474  0.16035884  0.33177187  1
  Cu+  Cu29  1  0.16915669  0.16388468  0.66638114  1
  Cu+  Cu30  1  0.16219602  0.49441549  0.00026618  1
  Cu+  Cu31  1  0.16771778  0.49953802  0.33829296  1
  Cu+  Cu32  1  0.16870492  0.50249188  0.67114055  1
  Cu+  Cu33  1  0.16237606  0.83280928  -0.00267795  1
  Cu+  Cu34  1  0.17099709  0.83530069  0.32880191  1
  Cu+  Cu35  1  0.16476012  0.83263644  0.66276497  1
  Cu+  Cu36  1  0.49821663  0.16483386  -0.00095577  1
  Cu+  Cu37  1  0.49936541  0.16602694  0.33235448  1
  Cu+  Cu38  1  0.50236585  0.16990252  0.66565305  1
  Cu+  Cu39  1  0.50285718  0.49721053  0.00230281  1
  Cu+  Cu40  1  0.49953594  0.50587913  0.33041034  1
  Cu+  Cu41  1  0.49932537  0.49936777  0.66542237  1
  Cu+  Cu42  1  0.49986222  0.83420418  -0.00070913  1
  Cu+  Cu43  1  0.50128850  0.83091329  0.33337875  1
  Cu+  Cu44  1  0.50099883  0.83131315  0.66294637  1
  Cu+  Cu45  1  0.83302582  0.16621476  0.00431018  1
  Cu+  Cu46  1  0.83223358  0.17667118  0.33316121  1
  Cu+  Cu47  1  0.83328925  0.16465749  0.66676625  1
  Cu+  Cu48  1  0.82859693  0.49568437  -0.00248941  1
  Cu+  Cu49  1  0.83573614  0.49654240  0.33504624  1
  Cu+  Cu50  1  0.83523834  0.50032521  0.66633564  1
  Cu+  Cu51  1  0.84004439  0.83885688  0.00028053  1
  Cu+  Cu52  1  0.83019295  0.83768047  0.33528988  1
  Cu+  Cu53  1  0.83237087  0.83217378  0.67181353  1
  Cu+  Cu54  1  0.16610025  -0.00084887  0.17239490  1
  Cu+  Cu55  1  0.16988360  -0.00269972  0.49686581  1
  Cu+  Cu56  1  0.16827504  0.00414954  0.82444617  1
  Cu+  Cu57  1  0.16920864  0.33356382  0.16713966  1
  Cu+  Cu58  1  0.17277307  0.33095753  0.49859563  1
  Cu+  Cu59  1  0.16751638  0.33280906  0.84165932  1
  Cu+  Cu60  1  0.16239968  0.66321347  0.16356793  1
  Cu+  Cu61  1  0.16030959  0.66539887  0.50163520  1
  Cu+  Cu62  1  0.16677747  0.67084964  0.83490104  1
  Cu+  Cu63  1  0.49897270  0.00112895  0.16595154  1
  Cu+  Cu64  1  0.50572880  0.00057405  0.50101456  1
  Cu+  Cu65  1  0.50030277  -0.00174690  0.83379634  1
  Cu+  Cu66  1  0.49902653  0.33294965  0.16383581  1
  Cu+  Cu67  1  0.49870092  0.33319214  0.50632754  1
  Cu+  Cu68  1  0.49944186  0.33200429  0.83037185  1
  Cu+  Cu69  1  0.49896113  0.66737023  0.16966551  1
  Cu+  Cu70  1  0.50073922  0.66681205  0.50517967  1
  Cu+  Cu71  1  0.49989429  0.66543755  0.83010219  1
  Cu+  Cu72  1  0.83190225  0.00321324  0.16788075  1
  Cu+  Cu73  1  0.82986080  0.00050932  0.49717859  1
  Cu+  Cu74  1  0.83516476  0.00049611  0.83767269  1
  Cu+  Cu75  1  0.83589698  0.33069038  0.17179720  1
  Cu+  Cu76  1  0.82859437  0.33584307  0.49096483  1
  Cu+  Cu77  1  0.83221741  0.33148243  0.83474014  1
  Cu+  Cu78  1  0.83223424  0.66772885  0.16716319  1
  Cu+  Cu79  1  0.83232484  0.66903890  0.50207039  1
  Cu+  Cu80  1  0.83431492  0.66321012  0.83085255  1
  Cu+  Cu81  1  0.00209238  0.16374311  0.17233708  1
  Cu+  Cu82  1  0.00239858  0.16553947  0.50028796  1
  Cu+  Cu83  1  -0.00158222  0.16813952  0.83152490  1
  Cu+  Cu84  1  0.00200243  0.50315307  0.16524598  1
  Cu+  Cu85  1  -0.00117784  0.50440178  0.49519445  1
  Cu+  Cu86  1  0.00057780  0.49589454  0.83618109  1
  Cu+  Cu87  1  -0.00650760  0.82985312  0.16283780  1
  Cu+  Cu88  1  0.00063554  0.82797854  0.50206067  1
  Cu+  Cu89  1  0.00044149  0.83651763  0.83945573  1
  Cu+  Cu90  1  0.33610675  0.16578792  0.16460887  1
  Cu+  Cu91  1  0.33481300  0.16567687  0.49766523  1
  Cu+  Cu92  1  0.33145865  0.16575238  0.83219793  1
  Cu+  Cu93  1  0.33248246  0.49969360  0.16769114  1
  Cu+  Cu94  1  0.33275695  0.49137840  0.50095095  1
  Cu+  Cu95  1  0.33466866  0.50315947  0.83310852  1
  Cu+  Cu96  1  0.33147132  0.83460921  0.16707648  1
  Cu+  Cu97  1  0.33609795  0.82843166  0.49756638  1
  Cu+  Cu98  1  0.33362582  0.83543900  0.82640907  1
  Cu+  Cu99  1  0.66448478  0.16611504  0.16696638  1
  Cu+  Cu100  1  0.66705817  0.17382293  0.49912556  1
  Cu+  Cu101  1  0.66830248  0.16409592  0.83224223  1
  Cu+  Cu102  1  0.66362751  0.49953465  0.16525776  1
  Cu+  Cu103  1  0.66468812  0.50577728  0.50266197  1
  Cu+  Cu104  1  0.66954023  0.49651045  0.83355578  1
  Cu+  Cu105  1  0.66880663  0.83395977  0.16581409  1
  Cu+  Cu106  1  0.66902125  0.84091604  0.50031969  1
  Cu+  Cu107  1  0.66427090  0.83567422  0.83616124  1
  Cu+  Cu108  1  0.93347493  0.25900560  0.25738591  1
  Cu+  Cu109  1  0.40496854  0.40342582  0.59703487  1
  Cu+  Cu110  1  0.26397156  0.25978931  0.92687461  1
  Cu+  Cu111  1  0.26390169  0.07540397  0.73646062  1
  Cu+  Cu112  1  0.59859607  0.26181207  0.59716860  1
  Cu+  Cu113  1  0.59403965  0.59505263  0.59761133  1
  Cu+  Cu114  1  0.07448134  0.74194564  0.92323954  1
  Cu+  Cu115  1  0.91450836  0.73606270  0.07244223  1
  Cu+  Cu116  1  0.26348009  0.40206564  0.40569220  1
  Cu+  Cu117  1  0.06880076  0.06688296  0.26079748  1
  Cu+  Cu118  1  0.92920683  0.40709926  0.41123562  1
  Cu+  Cu119  1  0.07044810  0.40183569  0.92798863  1
  Cu+  Cu120  1  0.26405763  0.92837751  0.25693424  1
  Cu+  Cu121  1  0.59112645  0.40376851  0.07713875  1
  Cu+  Cu122  1  0.59524418  0.92956150  0.59417880  1
  Cu+  Cu123  1  0.73233441  0.26707061  0.40240987  1
  Cu+  Cu124  1  0.06968070  0.73750036  0.59534099  1
  Cu+  Cu125  1  0.73757158  0.40097447  0.92091712  1
  Cu+  Cu126  1  0.59559779  0.59571398  0.25622302  1
  Cu+  Cu127  1  0.58958212  0.92665424  0.93041638  1
  Cu+  Cu128  1  0.93209386  0.93387837  0.92802705  1
  Cu+  Cu129  1  0.40502757  0.74156326  0.59312442  1
  Cu+  Cu130  1  0.73925897  0.93007013  0.40379220  1
  Cu+  Cu131  1  0.07677695  0.58886718  0.07019592  1
  Cu+  Cu132  1  0.07156191  0.59597778  0.40658453  1
  Te2-  Te133  1  0.25577202  0.25423085  0.08286676  1
  Te2-  Te134  1  0.25447275  0.24818324  0.40915651  1
  Te2-  Te135  1  0.25045829  0.25508505  0.74790118  1
  Te2-  Te136  1  0.24993237  0.58172354  0.08012365  1
  Te2-  Te137  1  0.25354357  0.58553169  0.41985517  1
  Te2-  Te138  1  0.25178400  0.58881344  0.75136631  1
  Te2-  Te139  1  0.24797279  0.91839269  0.07990441  1
  Te2-  Te140  1  0.25703514  0.91708081  0.41330527  1
  Te2-  Te141  1  0.25284935  0.91939808  0.74048294  1
  Te2-  Te142  1  0.58648571  0.25068153  0.07756224  1
  Te2-  Te143  1  0.58140932  0.25677493  0.41156394  1
  Te2-  Te144  1  0.58907109  0.25298308  0.74910907  1
  Te2-  Te145  1  0.58476739  0.58902936  0.08053074  1
  Te2-  Te146  1  0.58506996  0.58900881  0.41387335  1
  Te2-  Te147  1  0.58860071  0.58424835  0.74841203  1
  Te2-  Te148  1  0.58672294  0.92043843  0.08219275  1
  Te2-  Te149  1  0.58626101  0.92136659  0.40942397  1
  Te2-  Te150  1  0.58656901  0.92014657  0.74477117  1
  Te2-  Te151  1  0.92074030  0.24997777  0.08460083  1
  Te2-  Te152  1  0.92633445  0.25486149  0.41319564  1
  Te2-  Te153  1  0.91706858  0.25270898  0.74692702  1
  Te2-  Te154  1  0.91663342  0.58312457  0.07768877  1
  Te2-  Te155  1  0.91588905  0.59229247  0.41140813  1
  Te2-  Te156  1  0.92233193  0.58250640  0.74836319  1
  Te2-  Te157  1  0.92173217  0.92755744  0.08297041  1
  Te2-  Te158  1  0.92106145  0.91781284  0.41745153  1
  Te2-  Te159  1  0.91899185  0.91850697  0.75044507  1
  Te2-  Te160  1  0.25810934  0.08120594  0.25393326  1
  Te2-  Te161  1  0.25538423  0.07836367  0.58276875  1
  Te2-  Te162  1  0.25030962  0.07998334  0.91912777  1
  Te2-  Te163  1  0.25377133  0.41358197  0.25399452  1
  Te2-  Te164  1  0.25049269  0.41166965  0.59224203  1
  Te2-  Te165  1  0.25831233  0.41603588  0.92283146  1
  Te2-  Te166  1  0.24955106  0.74370597  0.24739948  1
  Te2-  Te167  1  0.25218488  0.74436345  0.58560905  1
  Te2-  Te168  1  0.25412144  0.75312129  0.91671616  1
  Te2-  Te169  1  0.58457707  0.08080530  0.25213229  1
  Te2-  Te170  1  0.59071822  0.08333191  0.58698443  1
  Te2-  Te171  1  0.58630880  0.08094896  0.91909184  1
  Te2-  Te172  1  0.58297074  0.41398628  0.25302808  1
  Te2-  Te173  1  0.58933459  0.41447738  0.58749066  1
  Te2-  Te174  1  0.58623746  0.40900410  0.91959939  1
  Te2-  Te175  1  0.58912996  0.74877725  0.25238985  1
  Te2-  Te176  1  0.59356703  0.74741417  0.58643112  1
  Te2-  Te177  1  0.58324713  0.74615402  0.91746893  1
  Te2-  Te178  1  0.91581631  0.07923057  0.25894643  1
  Te2-  Te179  1  0.91653548  0.08195223  0.58179104  1
  Te2-  Te180  1  0.92132336  0.08453380  0.92265907  1
  Te2-  Te181  1  0.92404544  0.41486657  0.25303468  1
  Te2-  Te182  1  0.91738127  0.41509091  0.58035552  1
  Te2-  Te183  1  0.91948745  0.40970955  0.92277719  1
  Te2-  Te184  1  0.91523351  0.74955600  0.25584239  1
  Te2-  Te185  1  0.91693805  0.74637343  0.59026530  1
  Te2-  Te186  1  0.91996433  0.74165056  0.92006545  1
  Te2-  Te187  1  0.08485913  0.25554646  0.25507574  1
  Te2-  Te188  1  0.08504976  0.25085824  0.58439328  1
  Te2-  Te189  1  0.07566185  0.25043183  0.92260680  1
  Te2-  Te190  1  0.07983743  0.58593396  0.25601481  1
  Te2-  Te191  1  0.07731537  0.58297815  0.59106528  1
  Te2-  Te192  1  0.07780729  0.58827357  0.91952788  1
  Te2-  Te193  1  0.07404044  0.91477761  0.25279068  1
  Te2-  Te194  1  0.08200041  0.91917716  0.58142836  1
  Te2-  Te195  1  0.08449484  0.92809023  0.91855284  1
  Te2-  Te196  1  0.41475169  0.25269435  0.25120337  1
  Te2-  Te197  1  0.40938652  0.25059345  0.58787891  1
  Te2-  Te198  1  0.41515241  0.25226116  0.91813118  1
  Te2-  Te199  1  0.40943834  0.58771221  0.25194576  1
  Te2-  Te200  1  0.40959843  0.58454545  0.58624000  1
  Te2-  Te201  1  0.41870466  0.58416050  0.91957924  1
  Te2-  Te202  1  0.41628039  0.91896758  0.25369193  1
  Te2-  Te203  1  0.41545489  0.91862185  0.58195994  1
  Te2-  Te204  1  0.41238829  0.91737000  0.91638230  1
  Te2-  Te205  1  0.74029435  0.25613339  0.25147520  1
  Te2-  Te206  1  0.75111460  0.25657295  0.58798221  1
  Te2-  Te207  1  0.74595439  0.24923056  0.92204303  1
  Te2-  Te208  1  0.74919527  0.58461421  0.25279465  1
  Te2-  Te209  1  0.74903412  0.58799969  0.58882019  1
  Te2-  Te210  1  0.74795277  0.58579667  0.91791373  1
  Te2-  Te211  1  0.74500141  0.92308999  0.25150858  1
  Te2-  Te212  1  0.74975926  0.92272429  0.59235353  1
  Te2-  Te213  1  0.74607973  0.92122656  0.92283282  1
  Te2-  Te214  1  0.08391283  0.08204758  0.08170217  1
  Te2-  Te215  1  0.07959868  0.07639614  0.41521405  1
  Te2-  Te216  1  0.07712896  0.08375490  0.74522215  1
  Te2-  Te217  1  0.07775952  0.40870555  0.08378455  1
  Te2-  Te218  1  0.08147264  0.41038744  0.41539808  1
  Te2-  Te219  1  0.08472754  0.41324554  0.75042158  1
  Te2-  Te220  1  0.07487093  0.74436277  0.07736049  1
  Te2-  Te221  1  0.08070702  0.74868993  0.40807996  1
  Te2-  Te222  1  0.07823924  0.74933953  0.74788229  1
  Te2-  Te223  1  0.41416807  0.07959077  0.07941659  1
  Te2-  Te224  1  0.41807917  0.07988099  0.41598701  1
  Te2-  Te225  1  0.41633122  0.07974568  0.74473909  1
  Te2-  Te226  1  0.41143179  0.41486316  0.08051052  1
  Te2-  Te227  1  0.41794440  0.41266810  0.41055119  1
  Te2-  Te228  1  0.41256086  0.41386318  0.74847541  1
  Te2-  Te229  1  0.41386195  0.74880955  0.08146907  1
  Te2-  Te230  1  0.41824156  0.74413558  0.41317490  1
  Te2-  Te231  1  0.41320109  0.74515335  0.74489854  1
  Te2-  Te232  1  0.74641336  0.08210089  0.08288509  1
  Te2-  Te233  1  0.74539055  0.08505397  0.41140543  1
  Te2-  Te234  1  0.74994385  0.07866179  0.74875254  1
  Te2-  Te235  1  0.74706613  0.40868242  0.08249185  1
  Te2-  Te236  1  0.73867904  0.41984279  0.41121815  1
  Te2-  Te237  1  0.75019380  0.41300010  0.74539505  1
  Te2-  Te238  1  0.74989600  0.75089068  0.07846705  1
  Te2-  Te239  1  0.74692513  0.74932048  0.41676330  1
  Te2-  Te240  1  0.74673781  0.74850070  0.75273662  1
