# generated using pymatgen
data_Ti27(Cu53Te54)2
_symmetry_space_group_name_H-M   'P 1'
_cell_length_a   17.89457204
_cell_length_b   17.88772548
_cell_length_c   17.88773356
_cell_angle_alpha   90.05897674
_cell_angle_beta   90.01776246
_cell_angle_gamma   90.03397097
_symmetry_Int_Tables_number   1
_chemical_formula_structural   Ti27(Cu53Te54)2
_chemical_formula_sum   'Ti27 Cu106 Te108'
_cell_volume   5725.73742014
_cell_formula_units_Z   1
loop_
 _symmetry_equiv_pos_site_id
 _symmetry_equiv_pos_as_xyz
  1  'x, y, z'
loop_
 _atom_type_symbol
 _atom_type_oxidation_number
  Ti4+  4.0
  Cu+  1.0
  Te2-  -2.0
loop_
 _atom_site_type_symbol
 _atom_site_label
 _atom_site_symmetry_multiplicity
 _atom_site_fract_x
 _atom_site_fract_y
 _atom_site_fract_z
 _atom_site_occupancy
  Ti4+  Ti0  1  0.16897449  0.16616603  0.16563499  1
  Ti4+  Ti1  1  0.16461255  0.16594220  0.50105458  1
  Ti4+  Ti2  1  0.16660985  0.16552547  0.83314758  1
  Ti4+  Ti3  1  0.16728288  0.49945190  0.16957352  1
  Ti4+  Ti4  1  0.16733291  0.50118245  0.50130715  1
  Ti4+  Ti5  1  0.17017570  0.50078316  0.83512278  1
  Ti4+  Ti6  1  0.16795258  0.83331134  0.16613737  1
  Ti4+  Ti7  1  0.16475520  0.83395874  0.50163451  1
  Ti4+  Ti8  1  0.16587463  0.83178101  0.83484276  1
  Ti4+  Ti9  1  0.50170302  0.16747065  0.16949454  1
  Ti4+  Ti10  1  0.49355326  0.16900016  0.49895204  1
  Ti4+  Ti11  1  0.49959755  0.16534787  0.83347633  1
  Ti4+  Ti12  1  0.49891559  0.50258801  0.16696597  1
  Ti4+  Ti13  1  0.49805775  0.50208955  0.50043972  1
  Ti4+  Ti14  1  0.50386942  0.50029066  0.83396908  1
  Ti4+  Ti15  1  0.50301750  0.83338505  0.16798245  1
  Ti4+  Ti16  1  0.49752164  0.83421534  0.50023839  1
  Ti4+  Ti17  1  0.50179420  0.83336071  0.83186183  1
  Ti4+  Ti18  1  0.83820145  0.16308340  0.16751483  1
  Ti4+  Ti19  1  0.83100559  0.16783145  0.49923085  1
  Ti4+  Ti20  1  0.83345907  0.16815866  0.83054342  1
  Ti4+  Ti21  1  0.83250814  0.49687515  0.16642153  1
  Ti4+  Ti22  1  0.83459799  0.50094913  0.50015803  1
  Ti4+  Ti23  1  0.83676799  0.49868085  0.82977987  1
  Ti4+  Ti24  1  0.83242845  0.83295856  0.16440634  1
  Ti4+  Ti25  1  0.83069048  0.83335032  0.49912725  1
  Ti4+  Ti26  1  0.82989522  0.83448477  0.83276984  1
  Cu+  Cu27  1  0.16990532  0.16804302  -0.00360045  1
  Cu+  Cu28  1  0.16631379  0.16535279  0.33223396  1
  Cu+  Cu29  1  0.16452119  0.16620664  0.67002497  1
  Cu+  Cu30  1  0.17022615  0.49687292  0.00282015  1
  Cu+  Cu31  1  0.16356838  0.50219998  0.33769847  1
  Cu+  Cu32  1  0.16948721  0.50316251  0.66873450  1
  Cu+  Cu33  1  0.16560057  0.83489266  0.00113702  1
  Cu+  Cu34  1  0.16861304  0.83235561  0.33436490  1
  Cu+  Cu35  1  0.16429895  0.83203578  0.66719739  1
  Cu+  Cu36  1  0.50313030  0.16752698  -0.00098144  1
  Cu+  Cu37  1  0.49698593  0.16396306  0.33425598  1
  Cu+  Cu38  1  0.49252728  0.16662763  0.66577083  1
  Cu+  Cu39  1  0.50505556  0.49919477  0.00012821  1
  Cu+  Cu40  1  0.49193368  0.50530007  0.33331672  1
  Cu+  Cu41  1  0.49990316  0.50319524  0.66959656  1
  Cu+  Cu42  1  0.50449567  0.83204630  -0.00123216  1
  Cu+  Cu43  1  0.50374505  0.83079258  0.33831114  1
  Cu+  Cu44  1  0.49968654  0.83362580  0.66478135  1
  Cu+  Cu45  1  0.83742364  0.16801770  -0.00101151  1
  Cu+  Cu46  1  0.83952577  0.15787667  0.33608462  1
  Cu+  Cu47  1  0.83403843  0.17335146  0.66197165  1
  Cu+  Cu48  1  0.83484725  0.49449783  -0.00379643  1
  Cu+  Cu49  1  0.83758716  0.50055247  0.33084179  1
  Cu+  Cu50  1  0.83092529  0.49969919  0.66423013  1
  Cu+  Cu51  1  0.82936641  0.83652332  -0.00056072  1
  Cu+  Cu52  1  0.83065466  0.82904831  0.32812965  1
  Cu+  Cu53  1  0.82912721  0.83792243  0.66601411  1
  Cu+  Cu54  1  0.16472421  -0.00185376  0.16430889  1
  Cu+  Cu55  1  0.16396187  -0.00365759  0.50168889  1
  Cu+  Cu56  1  0.16614199  -0.00008647  0.83329219  1
  Cu+  Cu57  1  0.17241664  0.33459496  0.16434674  1
  Cu+  Cu58  1  0.16907166  0.33447596  0.50298092  1
  Cu+  Cu59  1  0.16998711  0.33175446  0.83495420  1
  Cu+  Cu60  1  0.16796935  0.66806054  0.16848224  1
  Cu+  Cu61  1  0.16500198  0.66930944  0.49991614  1
  Cu+  Cu62  1  0.16520972  0.66639612  0.83514618  1
  Cu+  Cu63  1  0.50115350  0.00025428  0.17133925  1
  Cu+  Cu64  1  0.49295391  0.00375294  0.50109078  1
  Cu+  Cu65  1  0.50103519  -0.00045598  0.83362595  1
  Cu+  Cu66  1  0.49943373  0.33767394  0.17013089  1
  Cu+  Cu67  1  0.49754961  0.33298061  0.50132342  1
  Cu+  Cu68  1  0.50130934  0.32995543  0.83421487  1
  Cu+  Cu69  1  0.50252244  0.67038130  0.16439576  1
  Cu+  Cu70  1  0.49572535  0.66644127  0.49641117  1
  Cu+  Cu71  1  0.50212886  0.66575719  0.83205714  1
  Cu+  Cu72  1  0.83101642  -0.00123431  0.16661730  1
  Cu+  Cu73  1  0.83059953  -0.00140665  0.49738215  1
  Cu+  Cu74  1  0.82929719  0.00191764  0.83043946  1
  Cu+  Cu75  1  0.83442476  0.32593017  0.16240438  1
  Cu+  Cu76  1  0.83308424  0.33439035  0.50561446  1
  Cu+  Cu77  1  0.83593783  0.33542811  0.83452433  1
  Cu+  Cu78  1  0.83277469  0.66281909  0.16915196  1
  Cu+  Cu79  1  0.83469405  0.66910667  0.50044575  1
  Cu+  Cu80  1  0.83363743  0.66597890  0.82827038  1
  Cu+  Cu81  1  0.00619065  0.16143886  0.17134667  1
  Cu+  Cu82  1  -0.00389753  0.16964560  0.50033452  1
  Cu+  Cu83  1  0.00159983  0.16745567  0.83252097  1
  Cu+  Cu84  1  -0.00293180  0.49996302  0.17003980  1
  Cu+  Cu85  1  0.00412191  0.50307711  0.49774116  1
  Cu+  Cu86  1  0.00526850  0.50313759  0.83024281  1
  Cu+  Cu87  1  0.00405064  0.83717470  0.16093485  1
  Cu+  Cu88  1  -0.00203483  0.83477122  0.50077429  1
  Cu+  Cu89  1  -0.00538797  0.83116176  0.83545020  1
  Cu+  Cu90  1  0.33617815  0.16621614  0.16838450  1
  Cu+  Cu91  1  0.33010427  0.16469886  0.50379017  1
  Cu+  Cu92  1  0.33214747  0.16659319  0.83418368  1
  Cu+  Cu93  1  0.33257823  0.49523488  0.17079582  1
  Cu+  Cu94  1  0.33252054  0.50466003  0.49993305  1
  Cu+  Cu95  1  0.33877322  0.50232924  0.83530996  1
  Cu+  Cu96  1  0.33368161  0.83602488  0.16874789  1
  Cu+  Cu97  1  0.32833628  0.83442803  0.50221929  1
  Cu+  Cu98  1  0.33240097  0.83096880  0.83515026  1
  Cu+  Cu99  1  0.67457493  0.16715335  0.16981007  1
  Cu+  Cu100  1  0.65773157  0.16853259  0.49380500  1
  Cu+  Cu101  1  0.66307719  0.16658018  0.83151375  1
  Cu+  Cu102  1  0.66288417  0.49737914  0.16294785  1
  Cu+  Cu103  1  0.66765409  0.49790000  0.50191930  1
  Cu+  Cu104  1  0.67300302  0.49869336  0.83016944  1
  Cu+  Cu105  1  0.66773074  0.82932474  0.16278473  1
  Cu+  Cu106  1  0.66350024  0.83264871  0.49796839  1
  Cu+  Cu107  1  0.66782991  0.83738909  0.82899614  1
  Cu+  Cu108  1  0.92691230  0.59471089  0.25783901  1
  Cu+  Cu109  1  0.73948540  0.73367143  0.25587934  1
  Cu+  Cu110  1  0.07608241  0.93037121  0.06758558  1
  Cu+  Cu111  1  0.74247529  0.40824002  0.92257343  1
  Cu+  Cu112  1  0.40013429  0.07346423  0.59823007  1
  Cu+  Cu113  1  0.26090209  0.40626090  0.07114680  1
  Cu+  Cu114  1  0.73675758  0.92692726  0.07335086  1
  Cu+  Cu115  1  0.40242551  0.59828867  0.40328304  1
  Cu+  Cu116  1  0.92925516  0.06829315  0.41819954  1
  Cu+  Cu117  1  0.07383555  0.59844528  0.40766930  1
  Cu+  Cu118  1  0.40521472  0.06940652  0.25629911  1
  Cu+  Cu119  1  0.40769715  0.59459009  0.74303799  1
  Cu+  Cu120  1  0.93007901  0.26375012  0.59263915  1
  Cu+  Cu121  1  0.58494715  0.07266173  0.41012450  1
  Cu+  Cu122  1  0.74361726  0.25177014  0.07186988  1
  Cu+  Cu123  1  0.74344083  0.07309706  0.26093099  1
  Cu+  Cu124  1  0.59394897  0.74045442  0.06663018  1
  Cu+  Cu125  1  0.73919738  0.93365863  0.73478413  1
  Cu+  Cu126  1  0.07625176  0.59486091  0.74042842  1
  Cu+  Cu127  1  0.73481986  0.40429272  0.59060170  1
  Cu+  Cu128  1  0.40511297  0.40664979  0.26496913  1
  Cu+  Cu129  1  0.58751391  0.40429319  0.07486026  1
  Cu+  Cu130  1  0.74194227  0.59497718  0.73746920  1
  Cu+  Cu131  1  0.08032079  0.06914701  0.26160360  1
  Cu+  Cu132  1  0.59399311  0.73404054  0.41671072  1
  Te2-  Te133  1  0.25723503  0.25061285  0.07928311  1
  Te2-  Te134  1  0.25038944  0.25002667  0.41634930  1
  Te2-  Te135  1  0.25268699  0.25126779  0.74754676  1
  Te2-  Te136  1  0.25343183  0.58498674  0.08518482  1
  Te2-  Te137  1  0.25178599  0.58999970  0.41348461  1
  Te2-  Te138  1  0.25585153  0.58890491  0.74954496  1
  Te2-  Te139  1  0.25466154  0.91930284  0.08080039  1
  Te2-  Te140  1  0.25057589  0.91957363  0.41536383  1
  Te2-  Te141  1  0.25052074  0.91599008  0.74950027  1
  Te2-  Te142  1  0.58839848  0.25252456  0.08211354  1
  Te2-  Te143  1  0.57929790  0.25619597  0.41139182  1
  Te2-  Te144  1  0.58248706  0.25046197  0.74476833  1
  Te2-  Te145  1  0.58769280  0.58838334  0.07912657  1
  Te2-  Te146  1  0.58793066  0.58263397  0.41317617  1
  Te2-  Te147  1  0.59046423  0.58653788  0.74680355  1
  Te2-  Te148  1  0.58534859  0.92261991  0.08104628  1
  Te2-  Te149  1  0.58391768  0.92245546  0.41569570  1
  Te2-  Te150  1  0.58454235  0.92147701  0.74362156  1
  Te2-  Te151  1  0.92653062  0.24704085  0.08269939  1
  Te2-  Te152  1  0.91578727  0.25529805  0.41399898  1
  Te2-  Te153  1  0.92119490  0.25487202  0.74740401  1
  Te2-  Te154  1  0.91627572  0.58198774  0.07949519  1
  Te2-  Te155  1  0.92016879  0.59030672  0.41307722  1
  Te2-  Te156  1  0.92135793  0.58649406  0.74305865  1
  Te2-  Te157  1  0.91865156  0.92122054  0.07861158  1
  Te2-  Te158  1  0.91701432  0.91587000  0.41056836  1
  Te2-  Te159  1  0.91753983  0.91944731  0.74847279  1
  Te2-  Te160  1  0.25284184  0.07756888  0.25199578  1
  Te2-  Te161  1  0.24731466  0.07837481  0.58849941  1
  Te2-  Te162  1  0.25272438  0.07933032  0.91824870  1
  Te2-  Te163  1  0.25022319  0.41320333  0.26027683  1
  Te2-  Te164  1  0.25388092  0.41756693  0.58682111  1
  Te2-  Te165  1  0.25781402  0.41311187  0.91852257  1
  Te2-  Te166  1  0.25373212  0.74880717  0.25267834  1
  Te2-  Te167  1  0.25015334  0.74763739  0.58697288  1
  Te2-  Te168  1  0.25057548  0.74760159  0.92100310  1
  Te2-  Te169  1  0.59046639  0.07972042  0.25480169  1
  Te2-  Te170  1  0.58167268  0.08416403  0.58480159  1
  Te2-  Te171  1  0.58642028  0.08028666  0.91882935  1
  Te2-  Te172  1  0.58388236  0.41914170  0.25699151  1
  Te2-  Te173  1  0.58185296  0.41443509  0.58743778  1
  Te2-  Te174  1  0.58948700  0.40988251  0.91873443  1
  Te2-  Te175  1  0.58805705  0.74399786  0.25724985  1
  Te2-  Te176  1  0.58310244  0.74622078  0.58397016  1
  Te2-  Te177  1  0.59065027  0.74705994  0.91470171  1
  Te2-  Te178  1  0.92450472  0.07237355  0.25381584  1
  Te2-  Te179  1  0.91563134  0.07939270  0.58443162  1
  Te2-  Te180  1  0.91766881  0.08176879  0.91486771  1
  Te2-  Te181  1  0.91675614  0.40882926  0.24997247  1
  Te2-  Te182  1  0.92462241  0.41823945  0.58625171  1
  Te2-  Te183  1  0.92595602  0.41550500  0.91547194  1
  Te2-  Te184  1  0.92345879  0.74948544  0.24861994  1
  Te2-  Te185  1  0.91577377  0.75176770  0.58652541  1
  Te2-  Te186  1  0.91288039  0.74727883  0.91927599  1
  Te2-  Te187  1  0.08546372  0.25429693  0.25038680  1
  Te2-  Te188  1  0.08176141  0.25335884  0.58746676  1
  Te2-  Te189  1  0.08193662  0.25295167  0.91866090  1
  Te2-  Te190  1  0.07987400  0.58940894  0.25384000  1
  Te2-  Te191  1  0.08112249  0.58874057  0.58777691  1
  Te2-  Te192  1  0.08415759  0.58331340  0.92329032  1
  Te2-  Te193  1  0.08075078  0.91702176  0.25566013  1
  Te2-  Te194  1  0.07812609  0.91814702  0.58774829  1
  Te2-  Te195  1  0.07764764  0.91946324  0.91711505  1
  Te2-  Te196  1  0.41375875  0.25431618  0.25444510  1
  Te2-  Te197  1  0.40922984  0.25530587  0.58586796  1
  Te2-  Te198  1  0.41497091  0.25096470  0.91973136  1
  Te2-  Te199  1  0.41089674  0.59293055  0.24850438  1
  Te2-  Te200  1  0.41321744  0.58856796  0.58783356  1
  Te2-  Te201  1  0.41983804  0.58621879  0.92196237  1
  Te2-  Te202  1  0.41647157  0.91656159  0.25659443  1
  Te2-  Te203  1  0.41044398  0.91881055  0.58740621  1
  Te2-  Te204  1  0.41685793  0.91616455  0.91843893  1
  Te2-  Te205  1  0.75559871  0.24950639  0.25774768  1
  Te2-  Te206  1  0.73907253  0.25092694  0.58309264  1
  Te2-  Te207  1  0.74557996  0.25264818  0.91798913  1
  Te2-  Te208  1  0.74309610  0.58005971  0.25268154  1
  Te2-  Te209  1  0.74675377  0.58977017  0.58359385  1
  Te2-  Te210  1  0.75178175  0.58452299  0.91774220  1
  Te2-  Te211  1  0.74428452  0.91820143  0.25300130  1
  Te2-  Te212  1  0.74253955  0.92083621  0.58184514  1
  Te2-  Te213  1  0.74374147  0.92322738  0.91915677  1
  Te2-  Te214  1  0.08242832  0.08267296  0.07548119  1
  Te2-  Te215  1  0.07929476  0.07777626  0.41510532  1
  Te2-  Te216  1  0.07965668  0.07959266  0.74824636  1
  Te2-  Te217  1  0.08021748  0.41543624  0.08452918  1
  Te2-  Te218  1  0.08228194  0.41194435  0.41667329  1
  Te2-  Te219  1  0.08661909  0.41383427  0.74867772  1
  Te2-  Te220  1  0.08254238  0.74534204  0.08076690  1
  Te2-  Te221  1  0.07792255  0.75037176  0.41308559  1
  Te2-  Te222  1  0.07728592  0.74768487  0.74851558  1
  Te2-  Te223  1  0.41907866  0.08210053  0.08234377  1
  Te2-  Te224  1  0.40579830  0.07977725  0.41176862  1
  Te2-  Te225  1  0.41117855  0.07811850  0.75009596  1
  Te2-  Te226  1  0.41483353  0.41415344  0.07802108  1
  Te2-  Te227  1  0.41090658  0.41361097  0.41714266  1
  Te2-  Te228  1  0.41759524  0.41381034  0.75020850  1
  Te2-  Te229  1  0.41506718  0.75210580  0.08215074  1
  Te2-  Te230  1  0.40779296  0.75067976  0.41330770  1
  Te2-  Te231  1  0.41426859  0.74824905  0.74665757  1
  Te2-  Te232  1  0.74857839  0.08102265  0.07651715  1
  Te2-  Te233  1  0.74149151  0.07784407  0.41349224  1
  Te2-  Te234  1  0.74620662  0.08622467  0.74264028  1
  Te2-  Te235  1  0.74513929  0.40818314  0.07764656  1
  Te2-  Te236  1  0.75125991  0.41559167  0.41407648  1
  Te2-  Te237  1  0.74847810  0.40860499  0.74356487  1
  Te2-  Te238  1  0.74964974  0.74156883  0.07724574  1
  Te2-  Te239  1  0.74615379  0.74348206  0.41206268  1
  Te2-  Te240  1  0.74529663  0.74748840  0.74393748  1
