# generated using pymatgen
data_Ti27(Cu53Te54)2
_symmetry_space_group_name_H-M   'P 1'
_cell_length_a   17.87261391
_cell_length_b   17.87167698
_cell_length_c   17.87426216
_cell_angle_alpha   89.99104861
_cell_angle_beta   89.97610361
_cell_angle_gamma   90.01599311
_symmetry_Int_Tables_number   1
_chemical_formula_structural   Ti27(Cu53Te54)2
_chemical_formula_sum   'Ti27 Cu106 Te108'
_cell_volume   5709.28132189
_cell_formula_units_Z   1
loop_
 _symmetry_equiv_pos_site_id
 _symmetry_equiv_pos_as_xyz
  1  'x, y, z'
loop_
 _atom_type_symbol
 _atom_type_oxidation_number
  Ti4+  4.0
  Cu+  1.0
  Te2-  -2.0
loop_
 _atom_site_type_symbol
 _atom_site_label
 _atom_site_symmetry_multiplicity
 _atom_site_fract_x
 _atom_site_fract_y
 _atom_site_fract_z
 _atom_site_occupancy
  Ti4+  Ti0  1  0.16650072  0.16840146  0.16725911  1
  Ti4+  Ti1  1  0.16323680  0.16600458  0.50117213  1
  Ti4+  Ti2  1  0.16621603  0.16648416  0.83101218  1
  Ti4+  Ti3  1  0.16620468  0.49985777  0.16457692  1
  Ti4+  Ti4  1  0.17005266  0.49806486  0.49893286  1
  Ti4+  Ti5  1  0.16793874  0.49956627  0.83126533  1
  Ti4+  Ti6  1  0.17088959  0.83365245  0.16612180  1
  Ti4+  Ti7  1  0.16639386  0.82843252  0.49751928  1
  Ti4+  Ti8  1  0.16863588  0.83465153  0.83319140  1
  Ti4+  Ti9  1  0.50060894  0.16598833  0.16633240  1
  Ti4+  Ti10  1  0.49804315  0.16448766  0.50064069  1
  Ti4+  Ti11  1  0.50044641  0.16741762  0.83278731  1
  Ti4+  Ti12  1  0.49863468  0.49714867  0.16710179  1
  Ti4+  Ti13  1  0.50016923  0.50059079  0.50409239  1
  Ti4+  Ti14  1  0.50275703  0.49958018  0.83496154  1
  Ti4+  Ti15  1  0.49566757  0.83246096  0.16903717  1
  Ti4+  Ti16  1  0.49955064  0.83872667  0.49958134  1
  Ti4+  Ti17  1  0.49897938  0.83644215  0.83423589  1
  Ti4+  Ti18  1  0.83268615  0.16809425  0.16832801  1
  Ti4+  Ti19  1  0.83159781  0.16595611  0.50198536  1
  Ti4+  Ti20  1  0.83484272  0.16407750  0.83608463  1
  Ti4+  Ti21  1  0.83211377  0.50205212  0.16768364  1
  Ti4+  Ti22  1  0.83603632  0.49974395  0.50102796  1
  Ti4+  Ti23  1  0.83352568  0.50019288  0.83336543  1
  Ti4+  Ti24  1  0.83357776  0.83487935  0.16927396  1
  Ti4+  Ti25  1  0.83196650  0.83300200  0.49396294  1
  Ti4+  Ti26  1  0.83313311  0.83312480  0.83156801  1
  Cu+  Cu27  1  0.16533791  0.16857863  -0.00088763  1
  Cu+  Cu28  1  0.16366789  0.16908766  0.33357102  1
  Cu+  Cu29  1  0.16727387  0.16823190  0.66551297  1
  Cu+  Cu30  1  0.16532573  0.49934368  -0.00232827  1
  Cu+  Cu31  1  0.16568636  0.49976944  0.32997793  1
  Cu+  Cu32  1  0.16779599  0.49745962  0.66382866  1
  Cu+  Cu33  1  0.17550150  0.83389796  -0.00063094  1
  Cu+  Cu34  1  0.16784086  0.82893844  0.33393799  1
  Cu+  Cu35  1  0.16746511  0.83247978  0.66432907  1
  Cu+  Cu36  1  0.50320848  0.16758557  -0.00139761  1
  Cu+  Cu37  1  0.49708285  0.16296516  0.33385705  1
  Cu+  Cu38  1  0.50029554  0.16705244  0.66668182  1
  Cu+  Cu39  1  0.49749371  0.49543296  -0.00000071  1
  Cu+  Cu40  1  0.49982927  0.49885996  0.33437181  1
  Cu+  Cu41  1  0.50333414  0.50160719  0.67181717  1
  Cu+  Cu42  1  0.49477968  0.83346568  0.00304153  1
  Cu+  Cu43  1  0.50022691  0.84087609  0.33069488  1
  Cu+  Cu44  1  0.49933603  0.83989468  0.66851051  1
  Cu+  Cu45  1  0.83531445  0.16432471  0.00407862  1
  Cu+  Cu46  1  0.83266242  0.16704516  0.33392792  1
  Cu+  Cu47  1  0.83356939  0.16412664  0.66994090  1
  Cu+  Cu48  1  0.83226944  0.50154020  0.00042909  1
  Cu+  Cu49  1  0.83173820  0.50228684  0.33586569  1
  Cu+  Cu50  1  0.83535051  0.50027690  0.66737179  1
  Cu+  Cu51  1  0.83546365  0.83706876  -0.00099196  1
  Cu+  Cu52  1  0.82763172  0.82808063  0.33255670  1
  Cu+  Cu53  1  0.83268401  0.83140748  0.66309098  1
  Cu+  Cu54  1  0.16681657  0.00230245  0.17021853  1
  Cu+  Cu55  1  0.15982785  -0.00377573  0.50075052  1
  Cu+  Cu56  1  0.16799480  0.00068944  0.83575116  1
  Cu+  Cu57  1  0.16498895  0.33415731  0.16413427  1
  Cu+  Cu58  1  0.16462602  0.33168803  0.50596843  1
  Cu+  Cu59  1  0.16623387  0.33214262  0.83028474  1
  Cu+  Cu60  1  0.17054551  0.66611053  0.16369778  1
  Cu+  Cu61  1  0.17524546  0.66328713  0.49607728  1
  Cu+  Cu62  1  0.16626320  0.66788636  0.83150478  1
  Cu+  Cu63  1  0.49382858  0.00272674  0.17288937  1
  Cu+  Cu64  1  0.49902318  -0.00152592  0.50051604  1
  Cu+  Cu65  1  0.49770720  0.00285098  0.82997006  1
  Cu+  Cu66  1  0.50130477  0.33104727  0.16610257  1
  Cu+  Cu67  1  0.49854968  0.33350700  0.50116251  1
  Cu+  Cu68  1  0.50333172  0.33504022  0.83511467  1
  Cu+  Cu69  1  0.49889503  0.66120387  0.16735118  1
  Cu+  Cu70  1  0.50227069  0.67220936  0.50267087  1
  Cu+  Cu71  1  0.49959136  0.66813983  0.83444834  1
  Cu+  Cu72  1  0.83767882  0.00468912  0.16344264  1
  Cu+  Cu73  1  0.83419229  0.00246959  0.49346403  1
  Cu+  Cu74  1  0.83860772  -0.00248303  0.83285547  1
  Cu+  Cu75  1  0.83231696  0.33524264  0.17028466  1
  Cu+  Cu76  1  0.83250554  0.33169731  0.50508861  1
  Cu+  Cu77  1  0.83334470  0.33222839  0.83727556  1
  Cu+  Cu78  1  0.82991491  0.66886516  0.17053329  1
  Cu+  Cu79  1  0.83325817  0.66269196  0.49130918  1
  Cu+  Cu80  1  0.83096124  0.66665638  0.83164853  1
  Cu+  Cu81  1  0.00121234  0.16835855  0.16627499  1
  Cu+  Cu82  1  -0.00428745  0.16438156  0.49881828  1
  Cu+  Cu83  1  0.00125206  0.16223244  0.82976643  1
  Cu+  Cu84  1  -0.00129725  0.50297252  0.16524067  1
  Cu+  Cu85  1  0.00537314  0.49515123  0.50300725  1
  Cu+  Cu86  1  -0.00131365  0.50076391  0.83242802  1
  Cu+  Cu87  1  0.00388408  0.83305432  0.16809112  1
  Cu+  Cu88  1  -0.00039665  0.82847720  0.49039326  1
  Cu+  Cu89  1  -0.00045943  0.83412494  0.83496880  1
  Cu+  Cu90  1  0.33243018  0.16571105  0.16702651  1
  Cu+  Cu91  1  0.32912552  0.16691006  0.50229502  1
  Cu+  Cu92  1  0.33355321  0.16831731  0.83192795  1
  Cu+  Cu93  1  0.33279087  0.49887756  0.16643130  1
  Cu+  Cu94  1  0.33458232  0.50524333  0.50431768  1
  Cu+  Cu95  1  0.33763048  0.49883090  0.83432196  1
  Cu+  Cu96  1  0.33234223  0.83117877  0.15710653  1
  Cu+  Cu97  1  0.33100924  0.83224856  0.49709134  1
  Cu+  Cu98  1  0.33361385  0.84082879  0.83397461  1
  Cu+  Cu99  1  0.66849135  0.16874136  0.16747642  1
  Cu+  Cu100  1  0.66375967  0.16701579  0.50284290  1
  Cu+  Cu101  1  0.66863038  0.16709346  0.83645279  1
  Cu+  Cu102  1  0.66293932  0.49750859  0.16682674  1
  Cu+  Cu103  1  0.66766855  0.50052027  0.50312935  1
  Cu+  Cu104  1  0.66719168  0.49730145  0.83094450  1
  Cu+  Cu105  1  0.66523327  0.83167573  0.17334883  1
  Cu+  Cu106  1  0.66598786  0.84182775  0.49839799  1
  Cu+  Cu107  1  0.66765754  0.83046302  0.83368144  1
  Cu+  Cu108  1  0.26056101  0.93312803  0.92775486  1
  Cu+  Cu109  1  0.25724062  0.59301050  0.59537539  1
  Cu+  Cu110  1  0.73439568  0.73666050  0.25823566  1
  Cu+  Cu111  1  0.92838162  0.73252974  0.40451796  1
  Cu+  Cu112  1  0.25247151  0.92670683  0.58848636  1
  Cu+  Cu113  1  0.92511427  0.07955385  0.40301891  1
  Cu+  Cu114  1  0.92757194  0.92392012  0.92646625  1
  Cu+  Cu115  1  0.59830734  0.92587777  0.59919890  1
  Cu+  Cu116  1  0.40067979  0.07895477  0.26182623  1
  Cu+  Cu117  1  0.07424828  0.92371467  0.40496133  1
  Cu+  Cu118  1  0.73429943  0.58493565  0.40814696  1
  Cu+  Cu119  1  0.40654482  0.93249718  0.73969302  1
  Cu+  Cu120  1  0.25900873  0.73232322  0.06643130  1
  Cu+  Cu121  1  0.59626789  0.40381965  0.74055022  1
  Cu+  Cu122  1  0.07280301  0.40306745  0.59560707  1
  Cu+  Cu123  1  0.40296516  0.92555636  0.40679247  1
  Cu+  Cu124  1  0.26220069  0.26050378  0.59351387  1
  Cu+  Cu125  1  0.40558240  0.40464673  0.92765556  1
  Cu+  Cu126  1  0.74011549  0.93270466  0.40627758  1
  Cu+  Cu127  1  0.26607796  0.73497951  0.40271225  1
  Cu+  Cu128  1  0.93184551  0.08110549  0.07464036  1
  Cu+  Cu129  1  0.92804624  0.07115751  0.73722295  1
  Cu+  Cu130  1  0.41194690  0.93165444  0.07507957  1
  Cu+  Cu131  1  0.59538574  0.93288631  0.24947504  1
  Cu+  Cu132  1  0.41038712  0.59412043  0.74546253  1
  Te2-  Te133  1  0.25229840  0.25178212  0.08107245  1
  Te2-  Te134  1  0.24824365  0.25274128  0.41627380  1
  Te2-  Te135  1  0.25416562  0.25386340  0.74634332  1
  Te2-  Te136  1  0.25509563  0.58249948  0.07631761  1
  Te2-  Te137  1  0.25735727  0.58176426  0.40727622  1
  Te2-  Te138  1  0.25549057  0.58762973  0.74658516  1
  Te2-  Te139  1  0.25430100  0.92843210  0.08098459  1
  Te2-  Te140  1  0.25017598  0.92166172  0.41184246  1
  Te2-  Te141  1  0.25218539  0.92350258  0.74312164  1
  Te2-  Te142  1  0.58685003  0.25138119  0.08139585  1
  Te2-  Te143  1  0.58157808  0.24976413  0.41575562  1
  Te2-  Te144  1  0.58864277  0.25108229  0.74728799  1
  Te2-  Te145  1  0.58335165  0.58250996  0.07987544  1
  Te2-  Te146  1  0.58284598  0.58673699  0.41611847  1
  Te2-  Te147  1  0.58866823  0.58981923  0.75017351  1
  Te2-  Te148  1  0.58344346  0.91870103  0.08584646  1
  Te2-  Te149  1  0.58742998  0.92611357  0.40851871  1
  Te2-  Te150  1  0.58985926  0.92175733  0.75116582  1
  Te2-  Te151  1  0.91808135  0.25497214  0.08335157  1
  Te2-  Te152  1  0.91609731  0.25348562  0.41615680  1
  Te2-  Te153  1  0.91799844  0.25172503  0.75025022  1
  Te2-  Te154  1  0.91498259  0.58945083  0.08263335  1
  Te2-  Te155  1  0.92776098  0.58066427  0.41298001  1
  Te2-  Te156  1  0.91879518  0.58684701  0.74796703  1
  Te2-  Te157  1  0.92444533  0.91928813  0.08266440  1
  Te2-  Te158  1  0.91987477  0.92050109  0.40607003  1
  Te2-  Te159  1  0.92196665  0.91627613  0.74164440  1
  Te2-  Te160  1  0.25016367  0.08181287  0.25679349  1
  Te2-  Te161  1  0.24912422  0.07768793  0.58557667  1
  Te2-  Te162  1  0.25425424  0.08481884  0.92009897  1
  Te2-  Te163  1  0.25078543  0.41347602  0.25027396  1
  Te2-  Te164  1  0.25805863  0.41242534  0.58722166  1
  Te2-  Te165  1  0.25142344  0.41246049  0.91781658  1
  Te2-  Te166  1  0.25675957  0.74627960  0.25134550  1
  Te2-  Te167  1  0.25599868  0.74563312  0.58779310  1
  Te2-  Te168  1  0.25725911  0.74493829  0.91442255  1
  Te2-  Te169  1  0.58925139  0.08284950  0.25410950  1
  Te2-  Te170  1  0.58504630  0.07942189  0.58774335  1
  Te2-  Te171  1  0.58478272  0.08035701  0.91707132  1
  Te2-  Te172  1  0.58379109  0.41223962  0.25387586  1
  Te2-  Te173  1  0.58728087  0.41340913  0.58695008  1
  Te2-  Te174  1  0.58966268  0.41402565  0.92177791  1
  Te2-  Te175  1  0.58013874  0.74314079  0.25561933  1
  Te2-  Te176  1  0.58657690  0.75542092  0.58625958  1
  Te2-  Te177  1  0.58247766  0.75092266  0.92095286  1
  Te2-  Te178  1  0.92227975  0.08114572  0.25332915  1
  Te2-  Te179  1  0.91887238  0.07687557  0.58610991  1
  Te2-  Te180  1  0.92504161  0.07788958  0.92315774  1
  Te2-  Te181  1  0.91793139  0.41842297  0.25329087  1
  Te2-  Te182  1  0.91954809  0.41212214  0.58863176  1
  Te2-  Te183  1  0.91898363  0.41593458  0.91976159  1
  Te2-  Te184  1  0.92231843  0.74731617  0.25250051  1
  Te2-  Te185  1  0.91666024  0.74680858  0.57912137  1
  Te2-  Te186  1  0.91720144  0.74655224  0.91815451  1
  Te2-  Te187  1  0.08000591  0.25427122  0.25145999  1
  Te2-  Te188  1  0.07377550  0.24873400  0.58764548  1
  Te2-  Te189  1  0.08009197  0.25122661  0.91538902  1
  Te2-  Te190  1  0.08246448  0.58763297  0.24937097  1
  Te2-  Te191  1  0.08544540  0.58788201  0.58324811  1
  Te2-  Te192  1  0.08241861  0.58479018  0.91549595  1
  Te2-  Te193  1  0.08316777  0.91836064  0.25300910  1
  Te2-  Te194  1  0.07535551  0.91108127  0.58346010  1
  Te2-  Te195  1  0.08293902  0.91839375  0.92214210  1
  Te2-  Te196  1  0.41492737  0.25146498  0.25185899  1
  Te2-  Te197  1  0.41456980  0.25223937  0.58715907  1
  Te2-  Te198  1  0.41433716  0.25223420  0.91957827  1
  Te2-  Te199  1  0.41342768  0.58277926  0.25343370  1
  Te2-  Te200  1  0.41631171  0.59194599  0.59054181  1
  Te2-  Te201  1  0.41546176  0.58683168  0.92095013  1
  Te2-  Te202  1  0.40274049  0.91958804  0.25404626  1
  Te2-  Te203  1  0.40749619  0.92214157  0.58720872  1
  Te2-  Te204  1  0.41411190  0.92611904  0.92254915  1
  Te2-  Te205  1  0.74748708  0.25307214  0.25486892  1
  Te2-  Te206  1  0.74705187  0.24965539  0.58925480  1
  Te2-  Te207  1  0.75064023  0.24961957  0.92288931  1
  Te2-  Te208  1  0.74037197  0.58610372  0.25483375  1
  Te2-  Te209  1  0.75133695  0.58723022  0.58608839  1
  Te2-  Te210  1  0.74606139  0.58490792  0.91729443  1
  Te2-  Te211  1  0.74880289  0.92702260  0.25306079  1
  Te2-  Te212  1  0.75195964  0.92264232  0.58521634  1
  Te2-  Te213  1  0.74716043  0.91925683  0.91720958  1
  Te2-  Te214  1  0.08315288  0.07984789  0.08037936  1
  Te2-  Te215  1  0.07877658  0.07912920  0.41115958  1
  Te2-  Te216  1  0.08356282  0.07670479  0.74408177  1
  Te2-  Te217  1  0.07914936  0.41583804  0.07958420  1
  Te2-  Te218  1  0.08471863  0.41212715  0.41334253  1
  Te2-  Te219  1  0.07975391  0.41426643  0.74738686  1
  Te2-  Te220  1  0.08491803  0.75036385  0.07955132  1
  Te2-  Te221  1  0.08293945  0.73768587  0.41041853  1
  Te2-  Te222  1  0.08159642  0.75050486  0.74780492  1
  Te2-  Te223  1  0.41366041  0.08317453  0.07701240  1
  Te2-  Te224  1  0.40734871  0.07884914  0.41554045  1
  Te2-  Te225  1  0.41145469  0.08384572  0.74470139  1
  Te2-  Te226  1  0.41147764  0.40934360  0.08213306  1
  Te2-  Te227  1  0.41418770  0.41760459  0.41886223  1
  Te2-  Te228  1  0.41603825  0.41206033  0.74692297  1
  Te2-  Te229  1  0.41506998  0.74008770  0.07994177  1
  Te2-  Te230  1  0.41794972  0.74797188  0.41195964  1
  Te2-  Te231  1  0.41342583  0.75058287  0.74754087  1
  Te2-  Te232  1  0.74582047  0.08139117  0.08268197  1
  Te2-  Te233  1  0.74194334  0.08453564  0.41257699  1
  Te2-  Te234  1  0.74784099  0.07887128  0.75164972  1
  Te2-  Te235  1  0.74836842  0.41545789  0.08280971  1
  Te2-  Te236  1  0.74880421  0.41303460  0.41783238  1
  Te2-  Te237  1  0.75021621  0.41072139  0.74588111  1
  Te2-  Te238  1  0.74787628  0.75306594  0.08144678  1
  Te2-  Te239  1  0.73735789  0.74403313  0.41379582  1
  Te2-  Te240  1  0.74746252  0.74789682  0.74528046  1
