# generated using pymatgen
data_Ti27(Cu53Te54)2
_symmetry_space_group_name_H-M   'P 1'
_cell_length_a   17.87120804
_cell_length_b   17.87199001
_cell_length_c   17.87428000
_cell_angle_alpha   89.95989263
_cell_angle_beta   90.02854646
_cell_angle_gamma   90.02533483
_symmetry_Int_Tables_number   1
_chemical_formula_structural   Ti27(Cu53Te54)2
_chemical_formula_sum   'Ti27 Cu106 Te108'
_cell_volume   5708.93604127
_cell_formula_units_Z   1
loop_
 _symmetry_equiv_pos_site_id
 _symmetry_equiv_pos_as_xyz
  1  'x, y, z'
loop_
 _atom_type_symbol
 _atom_type_oxidation_number
  Ti4+  4.0
  Cu+  1.0
  Te2-  -2.0
loop_
 _atom_site_type_symbol
 _atom_site_label
 _atom_site_symmetry_multiplicity
 _atom_site_fract_x
 _atom_site_fract_y
 _atom_site_fract_z
 _atom_site_occupancy
  Ti4+  Ti0  1  0.16592308  0.16734187  0.16787317  1
  Ti4+  Ti1  1  0.16859994  0.16920308  0.50107122  1
  Ti4+  Ti2  1  0.16729364  0.16649004  0.83226139  1
  Ti4+  Ti3  1  0.16743323  0.50176222  0.17002359  1
  Ti4+  Ti4  1  0.16329244  0.50054239  0.50355721  1
  Ti4+  Ti5  1  0.16596536  0.49795364  0.83179944  1
  Ti4+  Ti6  1  0.16643832  0.83530405  0.16732471  1
  Ti4+  Ti7  1  0.16758630  0.83562278  0.49753064  1
  Ti4+  Ti8  1  0.16669449  0.83350833  0.83094912  1
  Ti4+  Ti9  1  0.50028634  0.16673960  0.16721861  1
  Ti4+  Ti10  1  0.50029381  0.16680907  0.49869298  1
  Ti4+  Ti11  1  0.49931778  0.16841428  0.83203920  1
  Ti4+  Ti12  1  0.49973741  0.49742143  0.16577752  1
  Ti4+  Ti13  1  0.50099577  0.50075835  0.49926765  1
  Ti4+  Ti14  1  0.49994151  0.49766428  0.83240327  1
  Ti4+  Ti15  1  0.50135137  0.83197878  0.16578701  1
  Ti4+  Ti16  1  0.49920245  0.83323379  0.49977410  1
  Ti4+  Ti17  1  0.49889976  0.83341148  0.83288860  1
  Ti4+  Ti18  1  0.83482619  0.16564898  0.16577805  1
  Ti4+  Ti19  1  0.83305475  0.16457255  0.50039147  1
  Ti4+  Ti20  1  0.83398672  0.16625843  0.83644534  1
  Ti4+  Ti21  1  0.83559995  0.50090641  0.16623471  1
  Ti4+  Ti22  1  0.83156812  0.49844765  0.49920185  1
  Ti4+  Ti23  1  0.83423354  0.49838957  0.83422722  1
  Ti4+  Ti24  1  0.83341095  0.83524321  0.16533599  1
  Ti4+  Ti25  1  0.83101040  0.83416879  0.49944210  1
  Ti4+  Ti26  1  0.83320887  0.83292239  0.83567339  1
  Cu+  Cu27  1  0.16478019  0.16853829  -0.00081226  1
  Cu+  Cu28  1  0.17029625  0.16784594  0.33523648  1
  Cu+  Cu29  1  0.16590744  0.16679781  0.67077057  1
  Cu+  Cu30  1  0.17215137  0.49856940  0.00444743  1
  Cu+  Cu31  1  0.16309584  0.49728474  0.33483720  1
  Cu+  Cu32  1  0.16009951  0.49711414  0.66910185  1
  Cu+  Cu33  1  0.16884217  0.83500319  -0.00255290  1
  Cu+  Cu34  1  0.16633398  0.83501947  0.33257364  1
  Cu+  Cu35  1  0.16329468  0.83131647  0.66004084  1
  Cu+  Cu36  1  0.50120108  0.16949167  0.00090688  1
  Cu+  Cu37  1  0.50040662  0.16611316  0.33145845  1
  Cu+  Cu38  1  0.49638139  0.16922029  0.66305166  1
  Cu+  Cu39  1  0.49481065  0.49632256  -0.00193646  1
  Cu+  Cu40  1  0.50260543  0.49710607  0.33211070  1
  Cu+  Cu41  1  0.49948258  0.50115090  0.66817597  1
  Cu+  Cu42  1  0.49846890  0.83122099  -0.00079379  1
  Cu+  Cu43  1  0.50185228  0.82959637  0.33249099  1
  Cu+  Cu44  1  0.50043503  0.83677619  0.66520816  1
  Cu+  Cu45  1  0.84009739  0.16617709  0.00215306  1
  Cu+  Cu46  1  0.83162224  0.16587870  0.33441054  1
  Cu+  Cu47  1  0.83248364  0.16142591  0.66692059  1
  Cu+  Cu48  1  0.83623945  0.50339576  -0.00107694  1
  Cu+  Cu49  1  0.83376306  0.50141808  0.33300465  1
  Cu+  Cu50  1  0.82996889  0.49801820  0.66559127  1
  Cu+  Cu51  1  0.83164757  0.83332670  0.00352076  1
  Cu+  Cu52  1  0.83288721  0.83700929  0.33138567  1
  Cu+  Cu53  1  0.83129376  0.83172323  0.66898302  1
  Cu+  Cu54  1  0.16613500  0.00050627  0.16660077  1
  Cu+  Cu55  1  0.17140315  0.00246738  0.49639879  1
  Cu+  Cu56  1  0.17418710  -0.00145927  0.83333852  1
  Cu+  Cu57  1  0.16568283  0.33378689  0.17111126  1
  Cu+  Cu58  1  0.16664051  0.33841023  0.50374895  1
  Cu+  Cu59  1  0.16608293  0.33268113  0.82516654  1
  Cu+  Cu60  1  0.16593317  0.66775309  0.16851144  1
  Cu+  Cu61  1  0.16327570  0.67084460  0.50268093  1
  Cu+  Cu62  1  0.16351258  0.66437733  0.82843805  1
  Cu+  Cu63  1  0.50091319  0.00102774  0.16608190  1
  Cu+  Cu64  1  0.50125582  -0.00168572  0.50279393  1
  Cu+  Cu65  1  0.49775281  0.00097710  0.83185590  1
  Cu+  Cu66  1  0.49988763  0.33139512  0.16841987  1
  Cu+  Cu67  1  0.50217434  0.33361125  0.49619839  1
  Cu+  Cu68  1  0.50476020  0.33186864  0.83721893  1
  Cu+  Cu69  1  0.49974736  0.66343563  0.16704605  1
  Cu+  Cu70  1  0.50211277  0.66983117  0.49733625  1
  Cu+  Cu71  1  0.49752073  0.66652524  0.83060135  1
  Cu+  Cu72  1  0.83650502  -0.00063725  0.16296699  1
  Cu+  Cu73  1  0.83059033  0.00056788  0.50128769  1
  Cu+  Cu74  1  0.83343149  0.00051936  0.83282798  1
  Cu+  Cu75  1  0.83278291  0.33485275  0.16594478  1
  Cu+  Cu76  1  0.83163810  0.32909790  0.49902974  1
  Cu+  Cu77  1  0.83642251  0.33113494  0.83930663  1
  Cu+  Cu78  1  0.83519759  0.66887497  0.16415668  1
  Cu+  Cu79  1  0.83071855  0.66389265  0.49920931  1
  Cu+  Cu80  1  0.83531567  0.66527255  0.83820228  1
  Cu+  Cu81  1  0.00049564  0.16425277  0.16483354  1
  Cu+  Cu82  1  -0.00118434  0.16770540  0.50225893  1
  Cu+  Cu83  1  -0.00199191  0.16820371  0.83376861  1
  Cu+  Cu84  1  0.00442040  0.49961188  0.17218749  1
  Cu+  Cu85  1  -0.00378134  0.49918856  0.50474581  1
  Cu+  Cu86  1  -0.00246696  0.50675464  0.83615386  1
  Cu+  Cu87  1  -0.00087594  0.83568243  0.16896756  1
  Cu+  Cu88  1  0.00014145  0.83467848  0.49937797  1
  Cu+  Cu89  1  0.00114204  0.83454659  0.83316842  1
  Cu+  Cu90  1  0.33614516  0.16805258  0.16700950  1
  Cu+  Cu91  1  0.33354192  0.16597726  0.49619672  1
  Cu+  Cu92  1  0.33232734  0.16321810  0.83039682  1
  Cu+  Cu93  1  0.33188682  0.49849287  0.16447853  1
  Cu+  Cu94  1  0.33170524  0.50306127  0.50041774  1
  Cu+  Cu95  1  0.33684481  0.49515983  0.83109963  1
  Cu+  Cu96  1  0.33555884  0.83227377  0.16663903  1
  Cu+  Cu97  1  0.33453133  0.83526930  0.49717771  1
  Cu+  Cu98  1  0.33018540  0.83579437  0.83484806  1
  Cu+  Cu99  1  0.66729924  0.16543489  0.16744834  1
  Cu+  Cu100  1  0.66821055  0.16540683  0.49992515  1
  Cu+  Cu101  1  0.66502852  0.17199043  0.83742343  1
  Cu+  Cu102  1  0.66833883  0.50218340  0.16422160  1
  Cu+  Cu103  1  0.66648372  0.49714985  0.49572262  1
  Cu+  Cu104  1  0.66678571  0.49457768  0.82960145  1
  Cu+  Cu105  1  0.66784555  0.83665189  0.16487965  1
  Cu+  Cu106  1  0.66343765  0.83326851  0.50072165  1
  Cu+  Cu107  1  0.66641257  0.83196110  0.83489810  1
  Cu+  Cu108  1  0.07055055  0.40229729  0.26064395  1
  Cu+  Cu109  1  0.59396670  0.92814672  0.59489365  1
  Cu+  Cu110  1  0.59603386  0.40297426  0.40192194  1
  Cu+  Cu111  1  0.59561256  0.74302387  0.40366759  1
  Cu+  Cu112  1  0.93172459  0.26027869  0.93205374  1
  Cu+  Cu113  1  0.59602440  0.40442995  0.73731285  1
  Cu+  Cu114  1  0.26019263  0.41317071  0.40822659  1
  Cu+  Cu115  1  0.26252555  0.07322293  0.40238989  1
  Cu+  Cu116  1  0.93174517  0.07134341  0.07318808  1
  Cu+  Cu117  1  0.06789282  0.59345972  0.74147416  1
  Cu+  Cu118  1  0.25638582  0.40273366  0.07811383  1
  Cu+  Cu119  1  0.92747108  0.59587309  0.92888233  1
  Cu+  Cu120  1  0.06667452  0.40547102  0.59426927  1
  Cu+  Cu121  1  0.93099398  0.74086615  0.07968405  1
  Cu+  Cu122  1  0.59519880  0.25998616  0.93317656  1
  Cu+  Cu123  1  0.26157548  0.92694292  0.93127004  1
  Cu+  Cu124  1  0.73629220  0.92940652  0.07291231  1
  Cu+  Cu125  1  0.40664606  0.40218043  0.92478361  1
  Cu+  Cu126  1  0.06818829  0.25507197  0.74051809  1
  Cu+  Cu127  1  0.92633198  0.92848591  0.26280378  1
  Cu+  Cu128  1  0.41010936  0.59806670  0.73713781  1
  Cu+  Cu129  1  0.26314310  0.40768410  0.73878243  1
  Cu+  Cu130  1  0.92310259  0.06979329  0.73717446  1
  Cu+  Cu131  1  0.26292785  0.06897981  0.73883173  1
  Cu+  Cu132  1  0.06730505  0.74539775  0.58842893  1
  Te2-  Te133  1  0.25201650  0.25160771  0.08144542  1
  Te2-  Te134  1  0.25279457  0.25783541  0.41566148  1
  Te2-  Te135  1  0.25717684  0.25299594  0.74518615  1
  Te2-  Te136  1  0.25240610  0.58911192  0.08341915  1
  Te2-  Te137  1  0.24628205  0.58708143  0.41663859  1
  Te2-  Te138  1  0.25418206  0.58323086  0.74593171  1
  Te2-  Te139  1  0.25502811  0.92035099  0.08282717  1
  Te2-  Te140  1  0.25565289  0.91979384  0.40979585  1
  Te2-  Te141  1  0.25213719  0.91604168  0.73959528  1
  Te2-  Te142  1  0.58894979  0.25450713  0.08348963  1
  Te2-  Te143  1  0.58848152  0.25025310  0.41191483  1
  Te2-  Te144  1  0.58639073  0.25196252  0.74309530  1
  Te2-  Te145  1  0.58225157  0.58227653  0.07822114  1
  Te2-  Te146  1  0.58654950  0.58645202  0.41190129  1
  Te2-  Te147  1  0.58720238  0.58578294  0.74879211  1
  Te2-  Te148  1  0.58373245  0.92030165  0.07748101  1
  Te2-  Te149  1  0.58497638  0.91969693  0.41237355  1
  Te2-  Te150  1  0.58722563  0.92070824  0.74982677  1
  Te2-  Te151  1  0.92255084  0.25703836  0.08366611  1
  Te2-  Te152  1  0.91851216  0.25002910  0.41416598  1
  Te2-  Te153  1  0.91567817  0.25345060  0.74459170  1
  Te2-  Te154  1  0.92688799  0.58672132  0.08165627  1
  Te2-  Te155  1  0.91881482  0.58466412  0.41589027  1
  Te2-  Te156  1  0.91508280  0.58720912  0.74377743  1
  Te2-  Te157  1  0.92450855  0.91957833  0.07569183  1
  Te2-  Te158  1  0.91899231  0.92106973  0.41639847  1
  Te2-  Te159  1  0.91879946  0.91731263  0.74678318  1
  Te2-  Te160  1  0.25431586  0.08106674  0.25038333  1
  Te2-  Te161  1  0.25337105  0.08256152  0.58733500  1
  Te2-  Te162  1  0.25406211  0.08320759  0.92297109  1
  Te2-  Te163  1  0.25554932  0.41323538  0.25580119  1
  Te2-  Te164  1  0.25482532  0.41658155  0.58926243  1
  Te2-  Te165  1  0.25176417  0.40945512  0.91979192  1
  Te2-  Te166  1  0.25170733  0.75006992  0.25175794  1
  Te2-  Te167  1  0.25528388  0.74940540  0.58253879  1
  Te2-  Te168  1  0.24928445  0.74408192  0.91519642  1
  Te2-  Te169  1  0.58632871  0.08056448  0.25200289  1
  Te2-  Te170  1  0.58652553  0.08286700  0.58745191  1
  Te2-  Te171  1  0.58330780  0.08149493  0.91752760  1
  Te2-  Te172  1  0.58959955  0.41295052  0.24924709  1
  Te2-  Te173  1  0.58583256  0.41402010  0.58590151  1
  Te2-  Te174  1  0.58969805  0.41460236  0.92383432  1
  Te2-  Te175  1  0.58992217  0.74534539  0.24910766  1
  Te2-  Te176  1  0.58492393  0.74669248  0.58824535  1
  Te2-  Te177  1  0.58273886  0.74606642  0.91725056  1
  Te2-  Te178  1  0.91981540  0.08125909  0.25503959  1
  Te2-  Te179  1  0.92127943  0.07700874  0.58563283  1
  Te2-  Te180  1  0.92344451  0.07732048  0.91978805  1
  Te2-  Te181  1  0.91796684  0.41285088  0.25395934  1
  Te2-  Te182  1  0.91460605  0.40991582  0.58752150  1
  Te2-  Te183  1  0.92338172  0.41439954  0.92202496  1
  Te2-  Te184  1  0.91834530  0.74783314  0.25364796  1
  Te2-  Te185  1  0.91524531  0.74731728  0.58519475  1
  Te2-  Te186  1  0.92339728  0.74849937  0.92291383  1
  Te2-  Te187  1  0.07866886  0.24956156  0.25555254  1
  Te2-  Te188  1  0.07855564  0.25339393  0.58795639  1
  Te2-  Te189  1  0.08314171  0.25604202  0.91946161  1
  Te2-  Te190  1  0.08238386  0.58885602  0.25625042  1
  Te2-  Te191  1  0.07574938  0.58970321  0.58872284  1
  Te2-  Te192  1  0.08565886  0.58502634  0.92370665  1
  Te2-  Te193  1  0.08090425  0.92237772  0.25427206  1
  Te2-  Te194  1  0.08232243  0.92395663  0.58165546  1
  Te2-  Te195  1  0.08266334  0.92070065  0.91639466  1
  Te2-  Te196  1  0.41453719  0.25239420  0.25387317  1
  Te2-  Te197  1  0.41358929  0.25431492  0.58063212  1
  Te2-  Te198  1  0.40969543  0.25032917  0.91882571  1
  Te2-  Te199  1  0.41463467  0.58140496  0.25191462  1
  Te2-  Te200  1  0.41493648  0.58845961  0.58352190  1
  Te2-  Te201  1  0.41250765  0.58493093  0.91697139  1
  Te2-  Te202  1  0.41743401  0.91725921  0.25188333  1
  Te2-  Te203  1  0.41178583  0.91957699  0.58520479  1
  Te2-  Te204  1  0.41448453  0.92072864  0.92012433  1
  Te2-  Te205  1  0.74972202  0.25139382  0.25057121  1
  Te2-  Te206  1  0.74801627  0.24924722  0.58726408  1
  Te2-  Te207  1  0.74932071  0.25273654  0.92533200  1
  Te2-  Te208  1  0.75019264  0.58730653  0.24980144  1
  Te2-  Te209  1  0.74473752  0.58316339  0.58415426  1
  Te2-  Te210  1  0.74458113  0.58233012  0.91687132  1
  Te2-  Te211  1  0.74741277  0.92323470  0.25092704  1
  Te2-  Te212  1  0.74666565  0.91866280  0.58798379  1
  Te2-  Te213  1  0.74679047  0.92045829  0.91905028  1
  Te2-  Te214  1  0.08337099  0.07976431  0.07870484  1
  Te2-  Te215  1  0.08163672  0.08477785  0.41642420  1
  Te2-  Te216  1  0.07946693  0.07726929  0.74989745  1
  Te2-  Te217  1  0.08212543  0.41498956  0.08193053  1
  Te2-  Te218  1  0.07556887  0.41337956  0.41708041  1
  Te2-  Te219  1  0.06970691  0.41259934  0.74914859  1
  Te2-  Te220  1  0.08283332  0.74935052  0.07991064  1
  Te2-  Te221  1  0.08052084  0.74929382  0.41240143  1
  Te2-  Te222  1  0.07606661  0.74732137  0.74433039  1
  Te2-  Te223  1  0.41540347  0.08240607  0.08013898  1
  Te2-  Te224  1  0.41673482  0.07810308  0.41282445  1
  Te2-  Te225  1  0.41551844  0.08033154  0.74396240  1
  Te2-  Te226  1  0.41137554  0.40768572  0.08027583  1
  Te2-  Te227  1  0.41327923  0.41537723  0.41410742  1
  Te2-  Te228  1  0.41642454  0.40619016  0.74428108  1
  Te2-  Te229  1  0.41503322  0.74588118  0.08169587  1
  Te2-  Te230  1  0.41262802  0.74727247  0.41303430  1
  Te2-  Te231  1  0.41128686  0.75104137  0.74504211  1
  Te2-  Te232  1  0.74674603  0.08219417  0.07837133  1
  Te2-  Te233  1  0.74698481  0.07980117  0.41390640  1
  Te2-  Te234  1  0.74384401  0.08342922  0.75269645  1
  Te2-  Te235  1  0.75062439  0.41710917  0.07960710  1
  Te2-  Te236  1  0.74912170  0.41102192  0.41069431  1
  Te2-  Te237  1  0.75125792  0.40816012  0.74810360  1
  Te2-  Te238  1  0.74527578  0.74650518  0.08125364  1
  Te2-  Te239  1  0.74789463  0.74826185  0.41188272  1
  Te2-  Te240  1  0.74949391  0.74601889  0.75226626  1
