# generated using pymatgen
data_Ti27(Cu53Te54)2
_symmetry_space_group_name_H-M   'P 1'
_cell_length_a   17.87906066
_cell_length_b   17.88193967
_cell_length_c   17.87670382
_cell_angle_alpha   90.01134140
_cell_angle_beta   90.00946689
_cell_angle_gamma   89.96913394
_symmetry_Int_Tables_number   1
_chemical_formula_structural   Ti27(Cu53Te54)2
_chemical_formula_sum   'Ti27 Cu106 Te108'
_cell_volume   5715.40078911
_cell_formula_units_Z   1
loop_
 _symmetry_equiv_pos_site_id
 _symmetry_equiv_pos_as_xyz
  1  'x, y, z'
loop_
 _atom_type_symbol
 _atom_type_oxidation_number
  Ti4+  4.0
  Cu+  1.0
  Te2-  -2.0
loop_
 _atom_site_type_symbol
 _atom_site_label
 _atom_site_symmetry_multiplicity
 _atom_site_fract_x
 _atom_site_fract_y
 _atom_site_fract_z
 _atom_site_occupancy
  Ti4+  Ti0  1  0.16863632  0.16379298  0.16662201  1
  Ti4+  Ti1  1  0.16676749  0.16638908  0.49795096  1
  Ti4+  Ti2  1  0.16762975  0.16793115  0.83443264  1
  Ti4+  Ti3  1  0.16564609  0.49918274  0.16857150  1
  Ti4+  Ti4  1  0.16707639  0.50244086  0.49947148  1
  Ti4+  Ti5  1  0.16489974  0.49977532  0.83427933  1
  Ti4+  Ti6  1  0.16367944  0.83320593  0.16453408  1
  Ti4+  Ti7  1  0.16316913  0.83253858  0.49811284  1
  Ti4+  Ti8  1  0.16686129  0.83140508  0.83541219  1
  Ti4+  Ti9  1  0.50190897  0.16778171  0.16525949  1
  Ti4+  Ti10  1  0.49724595  0.16662453  0.50107652  1
  Ti4+  Ti11  1  0.50066096  0.17071068  0.83124657  1
  Ti4+  Ti12  1  0.49877959  0.50081525  0.16635960  1
  Ti4+  Ti13  1  0.50030095  0.49915100  0.50066206  1
  Ti4+  Ti14  1  0.49690167  0.50222224  0.83270246  1
  Ti4+  Ti15  1  0.50023473  0.83471229  0.16797141  1
  Ti4+  Ti16  1  0.50215502  0.82599793  0.50148651  1
  Ti4+  Ti17  1  0.49885699  0.83729271  0.82959403  1
  Ti4+  Ti18  1  0.83358783  0.16677988  0.16655981  1
  Ti4+  Ti19  1  0.83490769  0.16632802  0.50033216  1
  Ti4+  Ti20  1  0.83738350  0.16639275  0.83420260  1
  Ti4+  Ti21  1  0.83231163  0.49921237  0.16765273  1
  Ti4+  Ti22  1  0.83362050  0.49935591  0.50149271  1
  Ti4+  Ti23  1  0.83631533  0.49786221  0.83286149  1
  Ti4+  Ti24  1  0.83174488  0.83347407  0.16611708  1
  Ti4+  Ti25  1  0.83157842  0.83891902  0.49913526  1
  Ti4+  Ti26  1  0.83428456  0.83391711  0.83207415  1
  Cu+  Cu27  1  0.16788854  0.16311824  0.00030029  1
  Cu+  Cu28  1  0.16779406  0.16545000  0.33150460  1
  Cu+  Cu29  1  0.16779842  0.16841790  0.66407296  1
  Cu+  Cu30  1  0.16488529  0.49903907  0.00146054  1
  Cu+  Cu31  1  0.16914109  0.49929165  0.33576159  1
  Cu+  Cu32  1  0.16411145  0.50417802  0.66642416  1
  Cu+  Cu33  1  0.16139335  0.82814890  -0.00114552  1
  Cu+  Cu34  1  0.15957569  0.83592723  0.33193110  1
  Cu+  Cu35  1  0.17019045  0.83249038  0.66877338  1
  Cu+  Cu36  1  0.50300427  0.17063424  -0.00169336  1
  Cu+  Cu37  1  0.49835717  0.16444787  0.33284319  1
  Cu+  Cu38  1  0.49804367  0.17580585  0.66634360  1
  Cu+  Cu39  1  0.49791187  0.50153872  0.00123667  1
  Cu+  Cu40  1  0.49537136  0.50097618  0.33254986  1
  Cu+  Cu41  1  0.50342224  0.49748630  0.66909946  1
  Cu+  Cu42  1  0.49852496  0.83852797  0.00007215  1
  Cu+  Cu43  1  0.50341570  0.82858607  0.33552547  1
  Cu+  Cu44  1  0.50528031  0.82864250  0.66577385  1
  Cu+  Cu45  1  0.83577827  0.16712835  0.00143141  1
  Cu+  Cu46  1  0.83267355  0.16590974  0.33345560  1
  Cu+  Cu47  1  0.83610676  0.16594708  0.66651003  1
  Cu+  Cu48  1  0.83298548  0.49830223  0.00184518  1
  Cu+  Cu49  1  0.83155286  0.50037827  0.33283715  1
  Cu+  Cu50  1  0.83996134  0.49522484  0.66900942  1
  Cu+  Cu51  1  0.83306982  0.83311531  0.00129249  1
  Cu+  Cu52  1  0.83176267  0.83543506  0.33010645  1
  Cu+  Cu53  1  0.82974130  0.84207034  0.66677411  1
  Cu+  Cu54  1  0.17223822  -0.00459644  0.16585234  1
  Cu+  Cu55  1  0.16243732  -0.00061952  0.49545525  1
  Cu+  Cu56  1  0.16733472  0.00192194  0.83633392  1
  Cu+  Cu57  1  0.16895337  0.32889465  0.16645727  1
  Cu+  Cu58  1  0.17180911  0.33548792  0.49881531  1
  Cu+  Cu59  1  0.16458997  0.33597578  0.83814487  1
  Cu+  Cu60  1  0.16253348  0.66981235  0.16900141  1
  Cu+  Cu61  1  0.16141848  0.66478438  0.49513744  1
  Cu+  Cu62  1  0.16368917  0.66384551  0.83829269  1
  Cu+  Cu63  1  0.49790924  0.00326190  0.16852838  1
  Cu+  Cu64  1  0.49905541  -0.00350722  0.49961674  1
  Cu+  Cu65  1  0.50040640  0.00678600  0.83044716  1
  Cu+  Cu66  1  0.50041172  0.33434625  0.16580828  1
  Cu+  Cu67  1  0.50178153  0.32857377  0.50507677  1
  Cu+  Cu68  1  0.49568979  0.33583064  0.82552594  1
  Cu+  Cu69  1  0.49975715  0.66602456  0.16607513  1
  Cu+  Cu70  1  0.49978173  0.66224323  0.49967642  1
  Cu+  Cu71  1  0.49573208  0.67450601  0.83336429  1
  Cu+  Cu72  1  0.83365667  0.00050944  0.16566104  1
  Cu+  Cu73  1  0.83756568  0.00286876  0.50323399  1
  Cu+  Cu74  1  0.83511248  -0.00057115  0.83191943  1
  Cu+  Cu75  1  0.83309372  0.33312288  0.16753566  1
  Cu+  Cu76  1  0.83202729  0.33301843  0.49824152  1
  Cu+  Cu77  1  0.84033797  0.33133853  0.83001702  1
  Cu+  Cu78  1  0.83128896  0.66537708  0.16513541  1
  Cu+  Cu79  1  0.83244417  0.66971978  0.50121881  1
  Cu+  Cu80  1  0.83462890  0.66218290  0.83466646  1
  Cu+  Cu81  1  -0.00025294  0.16481747  0.16553027  1
  Cu+  Cu82  1  0.00089990  0.16863912  0.49890983  1
  Cu+  Cu83  1  0.00461446  0.16311439  0.83747958  1
  Cu+  Cu84  1  -0.00432209  0.49841468  0.16689896  1
  Cu+  Cu85  1  -0.00032118  0.50168807  0.50138798  1
  Cu+  Cu86  1  0.00145183  0.49444896  0.82864835  1
  Cu+  Cu87  1  -0.00310084  0.83021893  0.16735592  1
  Cu+  Cu88  1  -0.00189407  0.84418547  0.49668556  1
  Cu+  Cu89  1  0.00084150  0.82883434  0.83518017  1
  Cu+  Cu90  1  0.33713718  0.16289718  0.16669360  1
  Cu+  Cu91  1  0.33013076  0.16343593  0.49914621  1
  Cu+  Cu92  1  0.33485769  0.17276466  0.83016233  1
  Cu+  Cu93  1  0.33328648  0.49933104  0.16705839  1
  Cu+  Cu94  1  0.33294830  0.49938176  0.49384461  1
  Cu+  Cu95  1  0.32900448  0.50597127  0.83637436  1
  Cu+  Cu96  1  0.32995419  0.83808561  0.16627139  1
  Cu+  Cu97  1  0.33375379  0.82586919  0.50150056  1
  Cu+  Cu98  1  0.33457108  0.83361514  0.83564695  1
  Cu+  Cu99  1  0.66755084  0.16771775  0.16527161  1
  Cu+  Cu100  1  0.66757002  0.16538915  0.50136861  1
  Cu+  Cu101  1  0.67045162  0.16907070  0.83508064  1
  Cu+  Cu102  1  0.66520131  0.50015785  0.16682839  1
  Cu+  Cu103  1  0.66773182  0.50202908  0.50381990  1
  Cu+  Cu104  1  0.66813428  0.49756377  0.83279741  1
  Cu+  Cu105  1  0.66689615  0.83495347  0.16552532  1
  Cu+  Cu106  1  0.66762511  0.82776253  0.50440799  1
  Cu+  Cu107  1  0.66831094  0.83917963  0.82590367  1
  Cu+  Cu108  1  0.07517831  0.07022959  0.92985478  1
  Cu+  Cu109  1  0.06758895  0.73556134  0.92680929  1
  Cu+  Cu110  1  0.93245593  0.39883650  0.73540368  1
  Cu+  Cu111  1  0.26190075  0.40288486  0.40471791  1
  Cu+  Cu112  1  0.40157174  0.73391274  0.59212033  1
  Cu+  Cu113  1  0.39933552  0.26509514  0.73664057  1
  Cu+  Cu114  1  0.74097480  0.93528160  0.74165901  1
  Cu+  Cu115  1  0.06824783  0.74087935  0.26041618  1
  Cu+  Cu116  1  0.59671002  0.40637566  0.74669138  1
  Cu+  Cu117  1  0.25856818  0.91962982  0.26412944  1
  Cu+  Cu118  1  0.40595047  0.59221105  0.40299272  1
  Cu+  Cu119  1  0.41019716  0.74912780  0.93154084  1
  Cu+  Cu120  1  0.93077809  0.92888223  0.59665057  1
  Cu+  Cu121  1  0.25692994  0.58986798  0.93310351  1
  Cu+  Cu122  1  0.75312214  0.73879710  0.59663125  1
  Cu+  Cu123  1  0.06764105  0.58143892  0.40374003  1
  Cu+  Cu124  1  0.59920168  0.25528544  0.59127712  1
  Cu+  Cu125  1  0.59675334  0.73982708  0.75175597  1
  Cu+  Cu126  1  0.59747680  0.73635450  0.40255177  1
  Cu+  Cu127  1  0.40899136  0.07553962  0.26147152  1
  Cu+  Cu128  1  0.07349672  0.59611449  0.73987392  1
  Cu+  Cu129  1  0.06925552  0.93340440  0.40037578  1
  Cu+  Cu130  1  0.07238138  0.40540080  0.93217614  1
  Cu+  Cu131  1  0.59454086  0.58600016  0.59617558  1
  Cu+  Cu132  1  0.58737843  0.92791254  0.58837573  1
  Te2-  Te133  1  0.25452729  0.24800747  0.08170891  1
  Te2-  Te134  1  0.25461135  0.25068870  0.41079652  1
  Te2-  Te135  1  0.24844417  0.25782204  0.74655404  1
  Te2-  Te136  1  0.25031495  0.58746739  0.08500788  1
  Te2-  Te137  1  0.25337670  0.59096986  0.41107331  1
  Te2-  Te138  1  0.24975170  0.58829336  0.74726421  1
  Te2-  Te139  1  0.24981206  0.91564870  0.07393006  1
  Te2-  Te140  1  0.25477077  0.91618727  0.41675769  1
  Te2-  Te141  1  0.25154416  0.91838943  0.75178022  1
  Te2-  Te142  1  0.58723016  0.25455994  0.08093589  1
  Te2-  Te143  1  0.58415233  0.24947458  0.41440159  1
  Te2-  Te144  1  0.59358493  0.25560223  0.74567408  1
  Te2-  Te145  1  0.58503594  0.58575333  0.08052474  1
  Te2-  Te146  1  0.58839084  0.58289289  0.41172373  1
  Te2-  Te147  1  0.58806122  0.58910533  0.75003764  1
  Te2-  Te148  1  0.58365920  0.92116918  0.08303080  1
  Te2-  Te149  1  0.58739748  0.91536913  0.41683233  1
  Te2-  Te150  1  0.58554159  0.92763768  0.74280287  1
  Te2-  Te151  1  0.92010757  0.25291851  0.08223064  1
  Te2-  Te152  1  0.91787445  0.25204879  0.41378417  1
  Te2-  Te153  1  0.92657900  0.24758436  0.74617375  1
  Te2-  Te154  1  0.91784647  0.58495132  0.08098214  1
  Te2-  Te155  1  0.91561322  0.58769051  0.41445800  1
  Te2-  Te156  1  0.92099425  0.58776244  0.74629435  1
  Te2-  Te157  1  0.91872332  0.91818632  0.08117588  1
  Te2-  Te158  1  0.91492814  0.92442068  0.40796455  1
  Te2-  Te159  1  0.92488311  0.91937525  0.74928759  1
  Te2-  Te160  1  0.25520240  0.07657816  0.25547122  1
  Te2-  Te161  1  0.24913314  0.07837874  0.58358004  1
  Te2-  Te162  1  0.25756585  0.08387711  0.91660518  1
  Te2-  Te163  1  0.25292426  0.41253855  0.25180267  1
  Te2-  Te164  1  0.25284299  0.41925841  0.58708111  1
  Te2-  Te165  1  0.25380481  0.41518174  0.92114033  1
  Te2-  Te166  1  0.25074693  0.75010901  0.25315735  1
  Te2-  Te167  1  0.24698884  0.74341997  0.58459206  1
  Te2-  Te168  1  0.25518345  0.74488845  0.92307606  1
  Te2-  Te169  1  0.58798244  0.08209207  0.25223476  1
  Te2-  Te170  1  0.58308128  0.08204867  0.58817525  1
  Te2-  Te171  1  0.58647096  0.08484193  0.91650062  1
  Te2-  Te172  1  0.58338113  0.41595180  0.25305804  1
  Te2-  Te173  1  0.58981788  0.41098817  0.58807839  1
  Te2-  Te174  1  0.58070899  0.41533493  0.91661154  1
  Te2-  Te175  1  0.58797960  0.74588668  0.24960300  1
  Te2-  Te176  1  0.59331082  0.73717826  0.59224984  1
  Te2-  Te177  1  0.58760033  0.75442393  0.91655309  1
  Te2-  Te178  1  0.91858136  0.08081391  0.25213342  1
  Te2-  Te179  1  0.92466882  0.08249626  0.58803584  1
  Te2-  Te180  1  0.91971575  0.07791033  0.92173093  1
  Te2-  Te181  1  0.91753950  0.41352879  0.25439755  1
  Te2-  Te182  1  0.92213533  0.41058943  0.58277307  1
  Te2-  Te183  1  0.92014972  0.41233310  0.92220135  1
  Te2-  Te184  1  0.91527377  0.74467373  0.25389622  1
  Te2-  Te185  1  0.91861470  0.75473501  0.58525029  1
  Te2-  Te186  1  0.91590542  0.74546591  0.92044759  1
  Te2-  Te187  1  0.08216940  0.24918270  0.25034531  1
  Te2-  Te188  1  0.08377874  0.25440466  0.58214709  1
  Te2-  Te189  1  0.08091276  0.25268755  0.92383713  1
  Te2-  Te190  1  0.07674619  0.58477036  0.25350546  1
  Te2-  Te191  1  0.07761738  0.58922823  0.58615757  1
  Te2-  Te192  1  0.07353874  0.58308235  0.92291667  1
  Te2-  Te193  1  0.07513808  0.92357767  0.24809652  1
  Te2-  Te194  1  0.08406342  0.91973448  0.58972043  1
  Te2-  Te195  1  0.07919634  0.91855627  0.91955173  1
  Te2-  Te196  1  0.41505508  0.25303162  0.25158267  1
  Te2-  Te197  1  0.40582777  0.25429423  0.58388531  1
  Te2-  Te198  1  0.41634640  0.25596883  0.91820011  1
  Te2-  Te199  1  0.41066107  0.58867837  0.25086840  1
  Te2-  Te200  1  0.41128366  0.58165827  0.58862512  1
  Te2-  Te201  1  0.41366358  0.59051907  0.92198923  1
  Te2-  Te202  1  0.41470929  0.91875761  0.25813395  1
  Te2-  Te203  1  0.41473388  0.91365182  0.58531861  1
  Te2-  Te204  1  0.41568858  0.92455732  0.91584456  1
  Te2-  Te205  1  0.74770304  0.25166030  0.25255718  1
  Te2-  Te206  1  0.75051822  0.25329945  0.58777351  1
  Te2-  Te207  1  0.75357795  0.25362515  0.91799826  1
  Te2-  Te208  1  0.74621047  0.58568860  0.25205163  1
  Te2-  Te209  1  0.75067480  0.58493410  0.59294400  1
  Te2-  Te210  1  0.74852802  0.58179684  0.91819769  1
  Te2-  Te211  1  0.74649973  0.92087397  0.25054724  1
  Te2-  Te212  1  0.74185470  0.92800603  0.58570337  1
  Te2-  Te213  1  0.74880671  0.91815315  0.91802170  1
  Te2-  Te214  1  0.08156225  0.07659847  0.08263641  1
  Te2-  Te215  1  0.07814756  0.08319217  0.41022904  1
  Te2-  Te216  1  0.08476064  0.08196207  0.74652827  1
  Te2-  Te217  1  0.08031046  0.41177240  0.08490394  1
  Te2-  Te218  1  0.08013465  0.41457914  0.41546854  1
  Te2-  Te219  1  0.08432229  0.40970183  0.74209697  1
  Te2-  Te220  1  0.07531183  0.74402858  0.07996371  1
  Te2-  Te221  1  0.07247690  0.74658476  0.41342875  1
  Te2-  Te222  1  0.08141688  0.74750117  0.74594685  1
  Te2-  Te223  1  0.41757351  0.08248891  0.07628183  1
  Te2-  Te224  1  0.41285182  0.07718802  0.41624751  1
  Te2-  Te225  1  0.41451833  0.08538164  0.74482962  1
  Te2-  Te226  1  0.41336100  0.41460534  0.08082981  1
  Te2-  Te227  1  0.41766561  0.40850635  0.41501242  1
  Te2-  Te228  1  0.40583013  0.42062583  0.74563291  1
  Te2-  Te229  1  0.41271368  0.74975219  0.08353716  1
  Te2-  Te230  1  0.41260307  0.74457620  0.41148585  1
  Te2-  Te231  1  0.40947314  0.74929347  0.74365889  1
  Te2-  Te232  1  0.74831773  0.08164219  0.08011596  1
  Te2-  Te233  1  0.74869598  0.08072841  0.41642780  1
  Te2-  Te234  1  0.74850088  0.08422127  0.74693391  1
  Te2-  Te235  1  0.74677659  0.41364965  0.08232586  1
  Te2-  Te236  1  0.74666437  0.41675724  0.41647972  1
  Te2-  Te237  1  0.75009233  0.41111561  0.74648115  1
  Te2-  Te238  1  0.74638684  0.74798549  0.08046114  1
  Te2-  Te239  1  0.74931920  0.74825044  0.41115151  1
  Te2-  Te240  1  0.74951040  0.74217654  0.74690433  1
