# generated using pymatgen
data_Ti27(Cu53Te54)2
_symmetry_space_group_name_H-M   'P 1'
_cell_length_a   17.93217245
_cell_length_b   17.93343301
_cell_length_c   17.94146741
_cell_angle_alpha   89.87313108
_cell_angle_beta   89.99971627
_cell_angle_gamma   90.03959124
_symmetry_Int_Tables_number   1
_chemical_formula_structural   Ti27(Cu53Te54)2
_chemical_formula_sum   'Ti27 Cu106 Te108'
_cell_volume   5769.69869036
_cell_formula_units_Z   1
loop_
 _symmetry_equiv_pos_site_id
 _symmetry_equiv_pos_as_xyz
  1  'x, y, z'
loop_
 _atom_type_symbol
 _atom_type_oxidation_number
  Ti4+  4.0
  Cu+  1.0
  Te2-  -2.0
loop_
 _atom_site_type_symbol
 _atom_site_label
 _atom_site_symmetry_multiplicity
 _atom_site_fract_x
 _atom_site_fract_y
 _atom_site_fract_z
 _atom_site_occupancy
  Ti4+  Ti0  1  0.16620547  0.16346307  0.16740109  1
  Ti4+  Ti1  1  0.16547163  0.16520979  0.49895045  1
  Ti4+  Ti2  1  0.16529056  0.16611928  0.83488147  1
  Ti4+  Ti3  1  0.16724521  0.49721596  0.16732219  1
  Ti4+  Ti4  1  0.16994389  0.49536988  0.50147520  1
  Ti4+  Ti5  1  0.16506320  0.50161959  0.83416937  1
  Ti4+  Ti6  1  0.16354699  0.83042372  0.16195406  1
  Ti4+  Ti7  1  0.17122829  0.83269323  0.49726589  1
  Ti4+  Ti8  1  0.16832396  0.83478580  0.83045719  1
  Ti4+  Ti9  1  0.50119816  0.16561163  0.16737592  1
  Ti4+  Ti10  1  0.49806236  0.16618685  0.50808810  1
  Ti4+  Ti11  1  0.50400479  0.17141622  0.83325700  1
  Ti4+  Ti12  1  0.50223976  0.49681254  0.16690578  1
  Ti4+  Ti13  1  0.50010784  0.50049532  0.49633242  1
  Ti4+  Ti14  1  0.49731250  0.50370230  0.83483033  1
  Ti4+  Ti15  1  0.49867932  0.83204385  0.16414836  1
  Ti4+  Ti16  1  0.49985252  0.83663100  0.49695427  1
  Ti4+  Ti17  1  0.49697451  0.83406098  0.83307883  1
  Ti4+  Ti18  1  0.83215741  0.16472636  0.16662353  1
  Ti4+  Ti19  1  0.83071344  0.16706675  0.50175168  1
  Ti4+  Ti20  1  0.83133663  0.16604777  0.83318340  1
  Ti4+  Ti21  1  0.83464114  0.50118098  0.16629951  1
  Ti4+  Ti22  1  0.83387145  0.50066342  0.49915509  1
  Ti4+  Ti23  1  0.83354779  0.50378173  0.83161948  1
  Ti4+  Ti24  1  0.83062887  0.83382187  0.16944621  1
  Ti4+  Ti25  1  0.83726428  0.83251632  0.50207646  1
  Ti4+  Ti26  1  0.83162847  0.83321865  0.83355016  1
  Cu+  Cu27  1  0.16593405  0.16440327  0.00133232  1
  Cu+  Cu28  1  0.16581132  0.16101822  0.33320965  1
  Cu+  Cu29  1  0.16145479  0.16786702  0.66786322  1
  Cu+  Cu30  1  0.16252498  0.50149708  0.00020966  1
  Cu+  Cu31  1  0.17058283  0.49464960  0.33470605  1
  Cu+  Cu32  1  0.16956443  0.49484678  0.67203852  1
  Cu+  Cu33  1  0.16475817  0.83661827  -0.00431603  1
  Cu+  Cu34  1  0.16649923  0.83142810  0.32747867  1
  Cu+  Cu35  1  0.17511702  0.83313033  0.66348343  1
  Cu+  Cu36  1  0.50398190  0.16676207  0.00113831  1
  Cu+  Cu37  1  0.49696780  0.16756609  0.33669554  1
  Cu+  Cu38  1  0.50950668  0.17127484  0.66907791  1
  Cu+  Cu39  1  0.49733061  0.50263009  0.00350810  1
  Cu+  Cu40  1  0.50587494  0.50060050  0.32909094  1
  Cu+  Cu41  1  0.49645973  0.50393160  0.66592554  1
  Cu+  Cu42  1  0.49346867  0.83014598  -0.00352330  1
  Cu+  Cu43  1  0.49978382  0.83739870  0.32858911  1
  Cu+  Cu44  1  0.49963606  0.83562526  0.66327177  1
  Cu+  Cu45  1  0.83156809  0.16683655  -0.00110366  1
  Cu+  Cu46  1  0.83324766  0.16501472  0.33257038  1
  Cu+  Cu47  1  0.82500030  0.16955508  0.67002061  1
  Cu+  Cu48  1  0.83184755  0.50240282  -0.00273555  1
  Cu+  Cu49  1  0.83612896  0.49976943  0.33336152  1
  Cu+  Cu50  1  0.83568848  0.50407956  0.66212797  1
  Cu+  Cu51  1  0.83117747  0.83169173  0.00180307  1
  Cu+  Cu52  1  0.83096829  0.83711241  0.33807748  1
  Cu+  Cu53  1  0.83720904  0.82919028  0.66985002  1
  Cu+  Cu54  1  0.16549843  -0.00324165  0.16772785  1
  Cu+  Cu55  1  0.17182448  -0.00038410  0.49720596  1
  Cu+  Cu56  1  0.16885846  0.00077304  0.83395133  1
  Cu+  Cu57  1  0.16559986  0.32907943  0.16823753  1
  Cu+  Cu58  1  0.17146476  0.33118591  0.49851850  1
  Cu+  Cu59  1  0.16221546  0.33300077  0.83601756  1
  Cu+  Cu60  1  0.15949613  0.66166368  0.16132359  1
  Cu+  Cu61  1  0.16821745  0.66387971  0.49955578  1
  Cu+  Cu62  1  0.16782586  0.66938638  0.82907373  1
  Cu+  Cu63  1  0.50355278  0.00077901  0.16238445  1
  Cu+  Cu64  1  0.50243626  0.00354285  0.49619988  1
  Cu+  Cu65  1  0.50129351  0.00172911  0.83299970  1
  Cu+  Cu66  1  0.50158347  0.33086502  0.16821596  1
  Cu+  Cu67  1  0.49534505  0.33555513  0.50773797  1
  Cu+  Cu68  1  0.50071451  0.33773604  0.83749715  1
  Cu+  Cu69  1  0.50018602  0.66074265  0.16616369  1
  Cu+  Cu70  1  0.49923033  0.67008719  0.49383888  1
  Cu+  Cu71  1  0.49294788  0.66905225  0.83623858  1
  Cu+  Cu72  1  0.83066896  -0.00018976  0.16871979  1
  Cu+  Cu73  1  0.83410523  0.00011113  0.49949014  1
  Cu+  Cu74  1  0.83238094  -0.00333143  0.83706098  1
  Cu+  Cu75  1  0.83339219  0.33308107  0.16651104  1
  Cu+  Cu76  1  0.83186664  0.33741576  0.49769426  1
  Cu+  Cu77  1  0.83271432  0.33679157  0.83165543  1
  Cu+  Cu78  1  0.83409937  0.67068491  0.16732254  1
  Cu+  Cu79  1  0.84074709  0.66288951  0.50461463  1
  Cu+  Cu80  1  0.83407836  0.66986112  0.82957299  1
  Cu+  Cu81  1  0.00023973  0.16478401  0.16671601  1
  Cu+  Cu82  1  -0.00423032  0.16430014  0.49786548  1
  Cu+  Cu83  1  -0.00162402  0.16540249  0.83486450  1
  Cu+  Cu84  1  0.00222919  0.50129907  0.16643555  1
  Cu+  Cu85  1  0.00225099  0.49919987  0.50222904  1
  Cu+  Cu86  1  -0.00063774  0.50274271  0.83439913  1
  Cu+  Cu87  1  -0.00525506  0.82774152  0.16334459  1
  Cu+  Cu88  1  0.00701789  0.83142075  0.49968285  1
  Cu+  Cu89  1  -0.00065708  0.83200101  0.83010381  1
  Cu+  Cu90  1  0.33513912  0.16592640  0.16788947  1
  Cu+  Cu91  1  0.32746096  0.16930033  0.50505910  1
  Cu+  Cu92  1  0.33830353  0.16908204  0.83547944  1
  Cu+  Cu93  1  0.33453725  0.49560993  0.16583117  1
  Cu+  Cu94  1  0.33666387  0.49174434  0.49818693  1
  Cu+  Cu95  1  0.32959830  0.50017488  0.83541387  1
  Cu+  Cu96  1  0.32973345  0.83091046  0.16464512  1
  Cu+  Cu97  1  0.33472227  0.83857789  0.49944892  1
  Cu+  Cu98  1  0.33173147  0.83204442  0.83406777  1
  Cu+  Cu99  1  0.66724768  0.16220180  0.16603830  1
  Cu+  Cu100  1  0.66811963  0.16298294  0.51310119  1
  Cu+  Cu101  1  0.66778125  0.16994419  0.82596956  1
  Cu+  Cu102  1  0.66909622  0.49943142  0.16965328  1
  Cu+  Cu103  1  0.66833588  0.50143936  0.49523670  1
  Cu+  Cu104  1  0.66494366  0.50523684  0.83261850  1
  Cu+  Cu105  1  0.66304897  0.83569878  0.16912067  1
  Cu+  Cu106  1  0.67037525  0.83455197  0.49701635  1
  Cu+  Cu107  1  0.66607938  0.83296973  0.83462198  1
  Cu+  Cu108  1  0.93460277  0.58843009  0.59135945  1
  Cu+  Cu109  1  0.74352017  0.92637303  0.40990839  1
  Cu+  Cu110  1  0.25673132  0.92126572  0.25474082  1
  Cu+  Cu111  1  0.92034933  0.74195598  0.07275186  1
  Cu+  Cu112  1  0.59238081  0.06891409  0.74571555  1
  Cu+  Cu113  1  0.25996176  0.07492216  0.40639277  1
  Cu+  Cu114  1  0.59587173  0.07408204  0.07100604  1
  Cu+  Cu115  1  0.26426173  0.40608914  0.40140554  1
  Cu+  Cu116  1  0.25901764  0.40129352  0.75710175  1
  Cu+  Cu117  1  0.75092026  0.06626735  0.59835241  1
  Cu+  Cu118  1  0.59884712  0.59193678  0.25691130  1
  Cu+  Cu119  1  0.40182507  0.73946605  0.92644356  1
  Cu+  Cu120  1  0.25930717  0.93082833  0.92494756  1
  Cu+  Cu121  1  0.24924964  0.25742191  0.59790709  1
  Cu+  Cu122  1  0.59409355  0.09257795  0.40920986  1
  Cu+  Cu123  1  0.26264944  0.92763687  0.59127120  1
  Cu+  Cu124  1  0.59478427  0.26742093  0.58821294  1
  Cu+  Cu125  1  0.40526857  0.58850508  0.07923364  1
  Cu+  Cu126  1  0.74361647  0.26956402  0.74393180  1
  Cu+  Cu127  1  0.92553977  0.07584712  0.40381545  1
  Cu+  Cu128  1  0.41007809  0.41210638  0.59769215  1
  Cu+  Cu129  1  0.26206378  0.73946754  0.73527926  1
  Cu+  Cu130  1  0.59101429  0.92882084  0.25373377  1
  Cu+  Cu131  1  0.07016283  0.58707278  0.07036326  1
  Cu+  Cu132  1  0.92882815  0.74107160  0.74151557  1
  Te2-  Te133  1  0.25136604  0.24875913  0.08296376  1
  Te2-  Te134  1  0.25330136  0.25067840  0.40928996  1
  Te2-  Te135  1  0.25402832  0.25201867  0.74938676  1
  Te2-  Te136  1  0.25274510  0.58393883  0.08024512  1
  Te2-  Te137  1  0.25467295  0.58149219  0.41653343  1
  Te2-  Te138  1  0.25402399  0.58684912  0.74647017  1
  Te2-  Te139  1  0.25158096  0.91900709  0.07822386  1
  Te2-  Te140  1  0.25592205  0.91958736  0.40668445  1
  Te2-  Te141  1  0.25620163  0.92325969  0.74624976  1
  Te2-  Te142  1  0.58782805  0.25171706  0.08352753  1
  Te2-  Te143  1  0.58407868  0.25188973  0.42287096  1
  Te2-  Te144  1  0.58865990  0.26516204  0.74701115  1
  Te2-  Te145  1  0.58936672  0.58378752  0.08134968  1
  Te2-  Te146  1  0.58676750  0.58812702  0.41233514  1
  Te2-  Te147  1  0.57940495  0.58949117  0.74876395  1
  Te2-  Te148  1  0.58432070  0.91556481  0.07450592  1
  Te2-  Te149  1  0.58863646  0.92330922  0.41022624  1
  Te2-  Te150  1  0.58588407  0.91645015  0.74719335  1
  Te2-  Te151  1  0.91713586  0.24952312  0.08217947  1
  Te2-  Te152  1  0.91493769  0.25239035  0.41524075  1
  Te2-  Te153  1  0.91778505  0.25090200  0.74810089  1
  Te2-  Te154  1  0.91925873  0.58846349  0.07768619  1
  Te2-  Te155  1  0.92279323  0.58405367  0.41368707  1
  Te2-  Te156  1  0.92359553  0.58876995  0.74485760  1
  Te2-  Te157  1  0.91513805  0.91923848  0.08271287  1
  Te2-  Te158  1  0.92418512  0.91887406  0.41639301  1
  Te2-  Te159  1  0.91781246  0.92051198  0.74866860  1
  Te2-  Te160  1  0.25602213  0.07650819  0.25296837  1
  Te2-  Te161  1  0.25041909  0.08069454  0.59094831  1
  Te2-  Te162  1  0.25506932  0.08350711  0.91960852  1
  Te2-  Te163  1  0.25464663  0.40917855  0.25016429  1
  Te2-  Te164  1  0.25672568  0.40899353  0.59295263  1
  Te2-  Te165  1  0.24849392  0.41497706  0.92165996  1
  Te2-  Te166  1  0.24757735  0.74222178  0.24581693  1
  Te2-  Te167  1  0.25801821  0.74390947  0.58116685  1
  Te2-  Te168  1  0.24964645  0.74557185  0.92139956  1
  Te2-  Te169  1  0.58793371  0.08018528  0.25786233  1
  Te2-  Te170  1  0.58666826  0.07303280  0.59228492  1
  Te2-  Te171  1  0.58983435  0.08262700  0.91747620  1
  Te2-  Te172  1  0.58853226  0.41021622  0.25204412  1
  Te2-  Te173  1  0.58796896  0.42001872  0.58660525  1
  Te2-  Te174  1  0.58436455  0.42167839  0.91999426  1
  Te2-  Te175  1  0.58319260  0.74585361  0.25174374  1
  Te2-  Te176  1  0.58449386  0.75087738  0.58048540  1
  Te2-  Te177  1  0.58322152  0.74826728  0.91784176  1
  Te2-  Te178  1  0.91950321  0.07820165  0.25195872  1
  Te2-  Te179  1  0.91507553  0.08391040  0.59038294  1
  Te2-  Te180  1  0.91604078  0.08126117  0.91868731  1
  Te2-  Te181  1  0.91956210  0.41562276  0.24991663  1
  Te2-  Te182  1  0.91885517  0.41298199  0.58528012  1
  Te2-  Te183  1  0.91680366  0.41705737  0.91681835  1
  Te2-  Te184  1  0.91536857  0.75045389  0.25789721  1
  Te2-  Te185  1  0.92722195  0.74660480  0.58722957  1
  Te2-  Te186  1  0.91927545  0.74732290  0.91926820  1
  Te2-  Te187  1  0.08126624  0.24767191  0.25351007  1
  Te2-  Te188  1  0.07859646  0.25150538  0.58178376  1
  Te2-  Te189  1  0.08019076  0.24961501  0.92011255  1
  Te2-  Te190  1  0.08442454  0.58108921  0.25646714  1
  Te2-  Te191  1  0.08709118  0.58308046  0.58853175  1
  Te2-  Te192  1  0.07969787  0.59062781  0.91683360  1
  Te2-  Te193  1  0.07640508  0.91331923  0.24736835  1
  Te2-  Te194  1  0.08681493  0.91808499  0.58371987  1
  Te2-  Te195  1  0.07885394  0.91883484  0.91389819  1
  Te2-  Te196  1  0.41580039  0.25065767  0.25305884  1
  Te2-  Te197  1  0.40981630  0.25302385  0.59423424  1
  Te2-  Te198  1  0.41865078  0.25305001  0.92119506  1
  Te2-  Te199  1  0.41290259  0.58193827  0.25236047  1
  Te2-  Te200  1  0.41406441  0.58710162  0.57879365  1
  Te2-  Te201  1  0.40752413  0.58613461  0.92229815  1
  Te2-  Te202  1  0.41251971  0.92015363  0.24696603  1
  Te2-  Te203  1  0.41647855  0.92417577  0.58441508  1
  Te2-  Te204  1  0.41340509  0.92403282  0.91844340  1
  Te2-  Te205  1  0.74742706  0.24984040  0.25121780  1
  Te2-  Te206  1  0.74654961  0.26157698  0.58750280  1
  Te2-  Te207  1  0.74680137  0.25314415  0.91737736  1
  Te2-  Te208  1  0.75152804  0.58775658  0.25377387  1
  Te2-  Te209  1  0.74549693  0.58624967  0.58335129  1
  Te2-  Te210  1  0.74900941  0.58916166  0.91559813  1
  Te2-  Te211  1  0.74410788  0.92298369  0.25576507  1
  Te2-  Te212  1  0.74976466  0.91496504  0.58956828  1
  Te2-  Te213  1  0.74639991  0.91644419  0.92101833  1
  Te2-  Te214  1  0.08135143  0.07869222  0.08249009  1
  Te2-  Te215  1  0.07880632  0.07741257  0.41467103  1
  Te2-  Te216  1  0.08081728  0.08105125  0.74997661  1
  Te2-  Te217  1  0.08146046  0.41185126  0.08244246  1
  Te2-  Te218  1  0.08164191  0.41254900  0.41746832  1
  Te2-  Te219  1  0.07795873  0.41519737  0.75064657  1
  Te2-  Te220  1  0.07707452  0.74545953  0.07337261  1
  Te2-  Te221  1  0.08590669  0.74654916  0.41337443  1
  Te2-  Te222  1  0.08303497  0.74911964  0.74257569  1
  Te2-  Te223  1  0.41540655  0.08210691  0.08072799  1
  Te2-  Te224  1  0.41080137  0.08428663  0.41857112  1
  Te2-  Te225  1  0.41818891  0.08627311  0.74749806  1
  Te2-  Te226  1  0.41634393  0.41008189  0.08154094  1
  Te2-  Te227  1  0.41937373  0.41060212  0.40798091  1
  Te2-  Te228  1  0.41248257  0.41366091  0.74966714  1
  Te2-  Te229  1  0.41038282  0.74379701  0.08074343  1
  Te2-  Te230  1  0.41382444  0.75385685  0.41131720  1
  Te2-  Te231  1  0.41384385  0.74879595  0.74310271  1
  Te2-  Te232  1  0.74784489  0.07765484  0.07856330  1
  Te2-  Te233  1  0.74350140  0.08117900  0.41240894  1
  Te2-  Te234  1  0.74533480  0.07264705  0.74837714  1
  Te2-  Te235  1  0.74967143  0.41691810  0.08174833  1
  Te2-  Te236  1  0.74825380  0.41611274  0.41152547  1
  Te2-  Te237  1  0.74669232  0.42167513  0.74474708  1
  Te2-  Te238  1  0.74336472  0.74934613  0.08474569  1
  Te2-  Te239  1  0.75342751  0.74408491  0.41939241  1
  Te2-  Te240  1  0.74444641  0.74856651  0.74736428  1
