# generated using pymatgen
data_Ti27(Cu53Te54)2
_symmetry_space_group_name_H-M   'P 1'
_cell_length_a   17.88670028
_cell_length_b   17.88687182
_cell_length_c   17.88393866
_cell_angle_alpha   89.96232888
_cell_angle_beta   90.01209263
_cell_angle_gamma   90.02342650
_symmetry_Int_Tables_number   1
_chemical_formula_structural   Ti27(Cu53Te54)2
_chemical_formula_sum   'Ti27 Cu106 Te108'
_cell_volume   5721.73390002
_cell_formula_units_Z   1
loop_
 _symmetry_equiv_pos_site_id
 _symmetry_equiv_pos_as_xyz
  1  'x, y, z'
loop_
 _atom_type_symbol
 _atom_type_oxidation_number
  Ti4+  4.0
  Cu+  1.0
  Te2-  -2.0
loop_
 _atom_site_type_symbol
 _atom_site_label
 _atom_site_symmetry_multiplicity
 _atom_site_fract_x
 _atom_site_fract_y
 _atom_site_fract_z
 _atom_site_occupancy
  Ti4+  Ti0  1  0.16735845  0.16746389  0.16774875  1
  Ti4+  Ti1  1  0.16559014  0.16754340  0.50101807  1
  Ti4+  Ti2  1  0.16745857  0.16640573  0.83279344  1
  Ti4+  Ti3  1  0.17102118  0.50109759  0.16722531  1
  Ti4+  Ti4  1  0.16281597  0.50041929  0.50028996  1
  Ti4+  Ti5  1  0.16975255  0.49944220  0.83295688  1
  Ti4+  Ti6  1  0.16564284  0.83335133  0.16920184  1
  Ti4+  Ti7  1  0.16814327  0.83447319  0.50010963  1
  Ti4+  Ti8  1  0.16523338  0.83403625  0.83502954  1
  Ti4+  Ti9  1  0.50151960  0.16742917  0.16976979  1
  Ti4+  Ti10  1  0.49677727  0.16226027  0.50438263  1
  Ti4+  Ti11  1  0.49891397  0.16331089  0.83491724  1
  Ti4+  Ti12  1  0.50035775  0.50117958  0.16543784  1
  Ti4+  Ti13  1  0.49779246  0.49954111  0.49994746  1
  Ti4+  Ti14  1  0.50141273  0.49900423  0.83199935  1
  Ti4+  Ti15  1  0.49977631  0.83643596  0.16537621  1
  Ti4+  Ti16  1  0.49829578  0.83394548  0.50036000  1
  Ti4+  Ti17  1  0.50434819  0.83382644  0.83338832  1
  Ti4+  Ti18  1  0.83267184  0.16673718  0.16655745  1
  Ti4+  Ti19  1  0.83268924  0.16464070  0.49802178  1
  Ti4+  Ti20  1  0.83569707  0.16780941  0.83322067  1
  Ti4+  Ti21  1  0.83396953  0.49972619  0.16728036  1
  Ti4+  Ti22  1  0.82774902  0.49605091  0.49792949  1
  Ti4+  Ti23  1  0.83627730  0.50179009  0.83242427  1
  Ti4+  Ti24  1  0.83173754  0.83302537  0.16647635  1
  Ti4+  Ti25  1  0.83289699  0.83215829  0.49925874  1
  Ti4+  Ti26  1  0.83161353  0.83545267  0.83081043  1
  Cu+  Cu27  1  0.16925129  0.16617337  -0.00060506  1
  Cu+  Cu28  1  0.16498442  0.16380011  0.33295230  1
  Cu+  Cu29  1  0.16195895  0.17326129  0.67033942  1
  Cu+  Cu30  1  0.17419408  0.49683876  0.00179134  1
  Cu+  Cu31  1  0.16528354  0.49466614  0.33222546  1
  Cu+  Cu32  1  0.16658131  0.50687129  0.66578595  1
  Cu+  Cu33  1  0.16628235  0.83141186  0.00350712  1
  Cu+  Cu34  1  0.16698518  0.83354925  0.33460308  1
  Cu+  Cu35  1  0.16589079  0.83672571  0.66675411  1
  Cu+  Cu36  1  0.50275432  0.16450868  0.00402985  1
  Cu+  Cu37  1  0.49914684  0.16607285  0.33483596  1
  Cu+  Cu38  1  0.49257114  0.15815929  0.66981997  1
  Cu+  Cu39  1  0.50256265  0.50099827  -0.00397196  1
  Cu+  Cu40  1  0.49676946  0.50068223  0.33404481  1
  Cu+  Cu41  1  0.49907455  0.49950288  0.66502909  1
  Cu+  Cu42  1  0.50360117  0.83242962  0.00041678  1
  Cu+  Cu43  1  0.49579841  0.83656100  0.32862137  1
  Cu+  Cu44  1  0.50735669  0.83428949  0.66704808  1
  Cu+  Cu45  1  0.83392709  0.16957935  -0.00008636  1
  Cu+  Cu46  1  0.82976521  0.16433614  0.33257128  1
  Cu+  Cu47  1  0.83605101  0.16659836  0.66294099  1
  Cu+  Cu48  1  0.83847141  0.50208393  -0.00043747  1
  Cu+  Cu49  1  0.82799611  0.49114535  0.33243961  1
  Cu+  Cu50  1  0.83227659  0.50215813  0.66359534  1
  Cu+  Cu51  1  0.83100021  0.83777841  -0.00256909  1
  Cu+  Cu52  1  0.83139855  0.83158733  0.33465432  1
  Cu+  Cu53  1  0.83421615  0.82971066  0.66761768  1
  Cu+  Cu54  1  0.16354593  -0.00034994  0.17061640  1
  Cu+  Cu55  1  0.16925195  0.00438261  0.49758392  1
  Cu+  Cu56  1  0.16432837  -0.00097018  0.83212616  1
  Cu+  Cu57  1  0.17148440  0.33582527  0.16662674  1
  Cu+  Cu58  1  0.16794891  0.33664731  0.49532634  1
  Cu+  Cu59  1  0.16762510  0.33217142  0.83364920  1
  Cu+  Cu60  1  0.16895922  0.66674420  0.16721921  1
  Cu+  Cu61  1  0.16776048  0.66701049  0.50585205  1
  Cu+  Cu62  1  0.16668910  0.66521577  0.83443861  1
  Cu+  Cu63  1  0.50732111  0.00369891  0.16831310  1
  Cu+  Cu64  1  0.49290579  -0.00409907  0.50702586  1
  Cu+  Cu65  1  0.50524516  0.00095428  0.83305410  1
  Cu+  Cu66  1  0.49898014  0.33169676  0.16765805  1
  Cu+  Cu67  1  0.49580609  0.33131449  0.50298462  1
  Cu+  Cu68  1  0.49826253  0.33075026  0.83371608  1
  Cu+  Cu69  1  0.49871217  0.66886207  0.16361821  1
  Cu+  Cu70  1  0.49798494  0.66517440  0.49692480  1
  Cu+  Cu71  1  0.50348283  0.66621873  0.83121870  1
  Cu+  Cu72  1  0.83069593  -0.00049237  0.16578007  1
  Cu+  Cu73  1  0.83426124  -0.00054505  0.49775523  1
  Cu+  Cu74  1  0.83631531  -0.00089666  0.83748699  1
  Cu+  Cu75  1  0.82913054  0.33273784  0.16757578  1
  Cu+  Cu76  1  0.83381035  0.32889402  0.49660909  1
  Cu+  Cu77  1  0.83532422  0.33758291  0.83306311  1
  Cu+  Cu78  1  0.83336482  0.66563744  0.16638855  1
  Cu+  Cu79  1  0.82715322  0.66553127  0.49979872  1
  Cu+  Cu80  1  0.83482550  0.67063760  0.83066524  1
  Cu+  Cu81  1  -0.00028392  0.16655816  0.16928259  1
  Cu+  Cu82  1  -0.00288896  0.17197581  0.50267570  1
  Cu+  Cu83  1  0.00221903  0.16703359  0.83259160  1
  Cu+  Cu84  1  0.00462750  0.50155551  0.17003218  1
  Cu+  Cu85  1  -0.01014361  0.49901457  0.49729584  1
  Cu+  Cu86  1  0.00488739  0.50201115  0.83185909  1
  Cu+  Cu87  1  -0.00101071  0.83303977  0.16717672  1
  Cu+  Cu88  1  0.00144197  0.83280345  0.49975585  1
  Cu+  Cu89  1  -0.00088641  0.84144398  0.83144068  1
  Cu+  Cu90  1  0.33725968  0.16945071  0.16940640  1
  Cu+  Cu91  1  0.32963153  0.15880526  0.50475157  1
  Cu+  Cu92  1  0.33432028  0.16852802  0.83396757  1
  Cu+  Cu93  1  0.33423003  0.49919554  0.16197586  1
  Cu+  Cu94  1  0.33105645  0.50169524  0.50138030  1
  Cu+  Cu95  1  0.33644922  0.49909786  0.83270532  1
  Cu+  Cu96  1  0.33216921  0.83376152  0.16986664  1
  Cu+  Cu97  1  0.33478167  0.83597370  0.49622903  1
  Cu+  Cu98  1  0.33632115  0.83323948  0.83677070  1
  Cu+  Cu99  1  0.66496368  0.16415023  0.16440853  1
  Cu+  Cu100  1  0.66833511  0.16392384  0.49926147  1
  Cu+  Cu101  1  0.66956167  0.16633670  0.83373218  1
  Cu+  Cu102  1  0.66848078  0.49919313  0.16798449  1
  Cu+  Cu103  1  0.66158703  0.49624962  0.49750597  1
  Cu+  Cu104  1  0.67010528  0.50134402  0.83465005  1
  Cu+  Cu105  1  0.66498189  0.83453541  0.16498002  1
  Cu+  Cu106  1  0.66688750  0.83577971  0.50184898  1
  Cu+  Cu107  1  0.66597915  0.82917524  0.83041175  1
  Cu+  Cu108  1  0.92241957  0.26004167  0.59350754  1
  Cu+  Cu109  1  0.59447772  0.73847908  0.07530570  1
  Cu+  Cu110  1  0.92974670  0.74604658  0.74425598  1
  Cu+  Cu111  1  0.73298106  0.40235294  0.25697612  1
  Cu+  Cu112  1  0.06862470  0.06950345  0.25840533  1
  Cu+  Cu113  1  0.92748206  0.92730312  0.93084653  1
  Cu+  Cu114  1  0.60059570  0.08345958  0.73940653  1
  Cu+  Cu115  1  0.59602770  0.92762907  0.26011454  1
  Cu+  Cu116  1  0.91689333  0.59431162  0.58553079  1
  Cu+  Cu117  1  0.26347155  0.59495857  0.59291919  1
  Cu+  Cu118  1  0.07471125  0.93046429  0.73488394  1
  Cu+  Cu119  1  0.39689877  0.06581469  0.60117469  1
  Cu+  Cu120  1  0.59615055  0.07539768  0.07184627  1
  Cu+  Cu121  1  0.26529653  0.40354407  0.07015520  1
  Cu+  Cu122  1  0.40560009  0.73764212  0.25575964  1
  Cu+  Cu123  1  0.25886967  0.07715493  0.40283038  1
  Cu+  Cu124  1  0.40959039  0.26109960  0.74028335  1
  Cu+  Cu125  1  0.59806579  0.92553698  0.59261468  1
  Cu+  Cu126  1  0.07808942  0.59437640  0.74281972  1
  Cu+  Cu127  1  0.58966756  0.73331219  0.73484381  1
  Cu+  Cu128  1  0.07593785  0.40576016  0.25346709  1
  Cu+  Cu129  1  0.07196693  0.26411154  0.74801815  1
  Cu+  Cu130  1  0.40863726  0.92634091  0.40235543  1
  Cu+  Cu131  1  0.26292393  0.41383956  0.40814311  1
  Cu+  Cu132  1  0.92025965  0.40156059  0.40430109  1
  Te2-  Te133  1  0.25566830  0.25120704  0.08061689  1
  Te2-  Te134  1  0.25406260  0.25074383  0.41467474  1
  Te2-  Te135  1  0.25508956  0.25448684  0.74694434  1
  Te2-  Te136  1  0.25455134  0.58878672  0.08048774  1
  Te2-  Te137  1  0.24789243  0.58566545  0.41351902  1
  Te2-  Te138  1  0.25704896  0.58840687  0.74831148  1
  Te2-  Te139  1  0.25011403  0.91927967  0.08411911  1
  Te2-  Te140  1  0.25329099  0.92199888  0.41073013  1
  Te2-  Te141  1  0.25381547  0.91739604  0.75074858  1
  Te2-  Te142  1  0.58599005  0.25411713  0.08225701  1
  Te2-  Te143  1  0.58138476  0.24856379  0.42014830  1
  Te2-  Te144  1  0.58362030  0.24788310  0.74599449  1
  Te2-  Te145  1  0.58808264  0.58486923  0.08015368  1
  Te2-  Te146  1  0.58350336  0.58442788  0.41333026  1
  Te2-  Te147  1  0.58875753  0.58260772  0.74461052  1
  Te2-  Te148  1  0.58829160  0.92221825  0.07719823  1
  Te2-  Te149  1  0.58443041  0.92125944  0.41480025  1
  Te2-  Te150  1  0.59288651  0.92384493  0.74648080  1
  Te2-  Te151  1  0.91865688  0.25313523  0.08346198  1
  Te2-  Te152  1  0.91946341  0.24937886  0.40752984  1
  Te2-  Te153  1  0.92046578  0.25630343  0.74669758  1
  Te2-  Te154  1  0.92201502  0.58485591  0.08440500  1
  Te2-  Te155  1  0.91058709  0.58477484  0.41068740  1
  Te2-  Te156  1  0.92304650  0.58962315  0.74289828  1
  Te2-  Te157  1  0.91899813  0.92011655  0.08246841  1
  Te2-  Te158  1  0.91867633  0.91625745  0.41433784  1
  Te2-  Te159  1  0.91773742  0.92412015  0.74142813  1
  Te2-  Te160  1  0.25584774  0.08042996  0.25114585  1
  Te2-  Te161  1  0.24539212  0.08062050  0.59434840  1
  Te2-  Te162  1  0.25206311  0.07997026  0.91738763  1
  Te2-  Te163  1  0.25964666  0.41291868  0.25449808  1
  Te2-  Te164  1  0.24904931  0.41517574  0.58735850  1
  Te2-  Te165  1  0.25668071  0.41119353  0.91665909  1
  Te2-  Te166  1  0.25206636  0.74645610  0.25567361  1
  Te2-  Te167  1  0.25519102  0.75107749  0.58766079  1
  Te2-  Te168  1  0.25121177  0.74840081  0.91896215  1
  Te2-  Te169  1  0.58973950  0.08247391  0.25930735  1
  Te2-  Te170  1  0.58950971  0.07788402  0.58731754  1
  Te2-  Te171  1  0.58966026  0.08020360  0.92048158  1
  Te2-  Te172  1  0.58222615  0.41416893  0.25322740  1
  Te2-  Te173  1  0.58228276  0.41255868  0.58506520  1
  Te2-  Te174  1  0.58704142  0.41314603  0.91597819  1
  Te2-  Te175  1  0.58460292  0.74868938  0.25257536  1
  Te2-  Te176  1  0.58618972  0.74391743  0.58187884  1
  Te2-  Te177  1  0.58845505  0.74529239  0.92010458  1
  Te2-  Te178  1  0.91621589  0.07867537  0.25321225  1
  Te2-  Te179  1  0.92029227  0.07889105  0.58342144  1
  Te2-  Te180  1  0.92178572  0.08374915  0.92095275  1
  Te2-  Te181  1  0.92225225  0.40936148  0.25196048  1
  Te2-  Te182  1  0.91668315  0.41138432  0.58740572  1
  Te2-  Te183  1  0.92275152  0.41725942  0.91704046  1
  Te2-  Te184  1  0.91670016  0.74829768  0.25200797  1
  Te2-  Te185  1  0.92127033  0.74588481  0.58519810  1
  Te2-  Te186  1  0.91915777  0.75155727  0.91765530  1
  Te2-  Te187  1  0.08198022  0.25424378  0.25355561  1
  Te2-  Te188  1  0.08039243  0.25928645  0.58526459  1
  Te2-  Te189  1  0.08230247  0.25193230  0.92040999  1
  Te2-  Te190  1  0.08505228  0.58719421  0.25425162  1
  Te2-  Te191  1  0.07323022  0.58773979  0.58477421  1
  Te2-  Te192  1  0.08585049  0.58240518  0.92251928  1
  Te2-  Te193  1  0.07745872  0.91733529  0.25643828  1
  Te2-  Te194  1  0.08079964  0.92221671  0.58241856  1
  Te2-  Te195  1  0.08184454  0.92058119  0.92416490  1
  Te2-  Te196  1  0.41553291  0.25334442  0.25589439  1
  Te2-  Te197  1  0.40972851  0.25040458  0.58710398  1
  Te2-  Te198  1  0.41644975  0.24903318  0.92314665  1
  Te2-  Te199  1  0.41254189  0.58503219  0.25081596  1
  Te2-  Te200  1  0.41404707  0.58816283  0.58680420  1
  Te2-  Te201  1  0.41679240  0.58641827  0.91608822  1
  Te2-  Te202  1  0.41145301  0.92702249  0.24857197  1
  Te2-  Te203  1  0.40915104  0.91384863  0.59375029  1
  Te2-  Te204  1  0.41947821  0.91885400  0.91917760  1
  Te2-  Te205  1  0.74351794  0.24955423  0.25283229  1
  Te2-  Te206  1  0.74670947  0.25093292  0.58439412  1
  Te2-  Te207  1  0.74980556  0.25416005  0.91648487  1
  Te2-  Te208  1  0.74877794  0.58538090  0.25334022  1
  Te2-  Te209  1  0.74174757  0.58234159  0.58329048  1
  Te2-  Te210  1  0.75286621  0.58723332  0.91804660  1
  Te2-  Te211  1  0.74741461  0.91916484  0.25385706  1
  Te2-  Te212  1  0.75105543  0.92033982  0.58761102  1
  Te2-  Te213  1  0.74324666  0.91934396  0.91587420  1
  Te2-  Te214  1  0.08232635  0.08307319  0.08168570  1
  Te2-  Te215  1  0.07575484  0.08259330  0.41668173  1
  Te2-  Te216  1  0.07893316  0.08058581  0.74558721  1
  Te2-  Te217  1  0.08309749  0.41557665  0.08163788  1
  Te2-  Te218  1  0.07451858  0.41232294  0.41324894  1
  Te2-  Te219  1  0.08294927  0.41506120  0.74496082  1
  Te2-  Te220  1  0.08103938  0.74699075  0.08444735  1
  Te2-  Te221  1  0.08380944  0.74721534  0.41689139  1
  Te2-  Te222  1  0.08062809  0.74674012  0.74519964  1
  Te2-  Te223  1  0.41510002  0.08093076  0.08459630  1
  Te2-  Te224  1  0.41223828  0.07837887  0.41192032  1
  Te2-  Te225  1  0.40783562  0.07265402  0.75319748  1
  Te2-  Te226  1  0.41833692  0.41337560  0.07798971  1
  Te2-  Te227  1  0.41269143  0.41208895  0.41451236  1
  Te2-  Te228  1  0.41400323  0.41368121  0.74528209  1
  Te2-  Te229  1  0.41195663  0.75152457  0.07935082  1
  Te2-  Te230  1  0.41309474  0.74643862  0.41245647  1
  Te2-  Te231  1  0.41738656  0.75029118  0.74803404  1
  Te2-  Te232  1  0.74914008  0.08062251  0.07802871  1
  Te2-  Te233  1  0.74652452  0.07795162  0.41353478  1
  Te2-  Te234  1  0.75351977  0.08030302  0.74653642  1
  Te2-  Te235  1  0.74970943  0.41659726  0.07837602  1
  Te2-  Te236  1  0.74040816  0.40694829  0.41441349  1
  Te2-  Te237  1  0.75001125  0.41710203  0.74737949  1
  Te2-  Te238  1  0.74847815  0.74694270  0.07861676  1
  Te2-  Te239  1  0.74444613  0.74858891  0.41531629  1
  Te2-  Te240  1  0.74528925  0.74509646  0.74413935  1
