# generated using pymatgen
data_Ti27(Cu53Te54)2
_symmetry_space_group_name_H-M   'P 1'
_cell_length_a   17.88093689
_cell_length_b   17.87812045
_cell_length_c   17.87825089
_cell_angle_alpha   90.03756923
_cell_angle_beta   90.00182971
_cell_angle_gamma   90.00133460
_symmetry_Int_Tables_number   1
_chemical_formula_structural   Ti27(Cu53Te54)2
_chemical_formula_sum   'Ti27 Cu106 Te108'
_cell_volume   5715.27409422
_cell_formula_units_Z   1
loop_
 _symmetry_equiv_pos_site_id
 _symmetry_equiv_pos_as_xyz
  1  'x, y, z'
loop_
 _atom_type_symbol
 _atom_type_oxidation_number
  Ti4+  4.0
  Cu+  1.0
  Te2-  -2.0
loop_
 _atom_site_type_symbol
 _atom_site_label
 _atom_site_symmetry_multiplicity
 _atom_site_fract_x
 _atom_site_fract_y
 _atom_site_fract_z
 _atom_site_occupancy
  Ti4+  Ti0  1  0.16837394  0.16597120  0.16529291  1
  Ti4+  Ti1  1  0.16586048  0.16485528  0.50163546  1
  Ti4+  Ti2  1  0.16879638  0.16685455  0.83095390  1
  Ti4+  Ti3  1  0.16645834  0.49834658  0.16771346  1
  Ti4+  Ti4  1  0.16689742  0.50195961  0.50095067  1
  Ti4+  Ti5  1  0.16453929  0.50214663  0.83371931  1
  Ti4+  Ti6  1  0.16641552  0.83269480  0.16487526  1
  Ti4+  Ti7  1  0.16870946  0.83259652  0.49869241  1
  Ti4+  Ti8  1  0.16706502  0.83298534  0.83107694  1
  Ti4+  Ti9  1  0.50168510  0.16483445  0.16668809  1
  Ti4+  Ti10  1  0.49622328  0.16564341  0.50216779  1
  Ti4+  Ti11  1  0.49521932  0.16614819  0.83734060  1
  Ti4+  Ti12  1  0.49956176  0.50143052  0.16778601  1
  Ti4+  Ti13  1  0.50341746  0.50016432  0.49807721  1
  Ti4+  Ti14  1  0.50219873  0.49887725  0.83292510  1
  Ti4+  Ti15  1  0.50098061  0.83243235  0.16909983  1
  Ti4+  Ti16  1  0.49920053  0.83454416  0.49871432  1
  Ti4+  Ti17  1  0.50076832  0.83063272  0.83230178  1
  Ti4+  Ti18  1  0.83466309  0.16686993  0.16453416  1
  Ti4+  Ti19  1  0.83509828  0.16440604  0.49931125  1
  Ti4+  Ti20  1  0.83253681  0.16617193  0.83017279  1
  Ti4+  Ti21  1  0.83354528  0.50308981  0.16892204  1
  Ti4+  Ti22  1  0.83592148  0.49910834  0.50089104  1
  Ti4+  Ti23  1  0.83270739  0.49942068  0.83549720  1
  Ti4+  Ti24  1  0.83191002  0.83332928  0.16342662  1
  Ti4+  Ti25  1  0.83224695  0.83596983  0.50318339  1
  Ti4+  Ti26  1  0.83545825  0.83242160  0.82994208  1
  Cu+  Cu27  1  0.17479133  0.16253370  -0.00061906  1
  Cu+  Cu28  1  0.16817830  0.16457606  0.33360649  1
  Cu+  Cu29  1  0.16628401  0.17321751  0.66530000  1
  Cu+  Cu30  1  0.16253593  0.50255924  0.00391130  1
  Cu+  Cu31  1  0.16722236  0.49949863  0.33346955  1
  Cu+  Cu32  1  0.16567131  0.50261477  0.66896096  1
  Cu+  Cu33  1  0.16509424  0.83413267  -0.00346843  1
  Cu+  Cu34  1  0.16602821  0.83367624  0.33011902  1
  Cu+  Cu35  1  0.16845852  0.82685650  0.66339193  1
  Cu+  Cu36  1  0.49773264  0.17324219  0.00385462  1
  Cu+  Cu37  1  0.50356752  0.16377618  0.33450674  1
  Cu+  Cu38  1  0.48849543  0.16095104  0.66942355  1
  Cu+  Cu39  1  0.49980129  0.49824218  -0.00249949  1
  Cu+  Cu40  1  0.50094720  0.50638768  0.33303534  1
  Cu+  Cu41  1  0.50456400  0.49709931  0.66368257  1
  Cu+  Cu42  1  0.50138006  0.83170189  0.00328406  1
  Cu+  Cu43  1  0.49657196  0.83871262  0.33590859  1
  Cu+  Cu44  1  0.50470140  0.82978669  0.66775338  1
  Cu+  Cu45  1  0.83300840  0.16631582  -0.00217950  1
  Cu+  Cu46  1  0.83612811  0.16721037  0.32993001  1
  Cu+  Cu47  1  0.83618044  0.15899932  0.66524150  1
  Cu+  Cu48  1  0.83485753  0.50084205  0.00526028  1
  Cu+  Cu49  1  0.83637150  0.50044970  0.33766534  1
  Cu+  Cu50  1  0.83457410  0.49921404  0.66754275  1
  Cu+  Cu51  1  0.83118371  0.83093375  -0.00548828  1
  Cu+  Cu52  1  0.83450683  0.83476813  0.33512867  1
  Cu+  Cu53  1  0.83127287  0.84033533  0.66941473  1
  Cu+  Cu54  1  0.16910149  0.00001948  0.16273659  1
  Cu+  Cu55  1  0.16740663  -0.00141810  0.49908975  1
  Cu+  Cu56  1  0.16945335  -0.00240893  0.82959154  1
  Cu+  Cu57  1  0.16603102  0.33342161  0.17017193  1
  Cu+  Cu58  1  0.16831522  0.33317272  0.50034990  1
  Cu+  Cu59  1  0.16307736  0.33415021  0.83253303  1
  Cu+  Cu60  1  0.16470060  0.66364986  0.16481219  1
  Cu+  Cu61  1  0.16537945  0.66966068  0.50319458  1
  Cu+  Cu62  1  0.16692563  0.67039032  0.83320807  1
  Cu+  Cu63  1  0.50322871  -0.00267332  0.16873591  1
  Cu+  Cu64  1  0.49554274  0.00179930  0.49681919  1
  Cu+  Cu65  1  0.49704253  -0.00119607  0.83870709  1
  Cu+  Cu66  1  0.49894514  0.33442989  0.16674316  1
  Cu+  Cu67  1  0.49751978  0.33894392  0.50376777  1
  Cu+  Cu68  1  0.50138477  0.32987576  0.83581293  1
  Cu+  Cu69  1  0.50412194  0.66672270  0.17227533  1
  Cu+  Cu70  1  0.49743687  0.66364881  0.49466227  1
  Cu+  Cu71  1  0.50503634  0.66471941  0.82871696  1
  Cu+  Cu72  1  0.83481866  0.00006817  0.16324401  1
  Cu+  Cu73  1  0.82907115  0.00164713  0.50403150  1
  Cu+  Cu74  1  0.83667532  0.00043616  0.82317901  1
  Cu+  Cu75  1  0.83664370  0.33453250  0.16525214  1
  Cu+  Cu76  1  0.83586738  0.33128294  0.50130314  1
  Cu+  Cu77  1  0.83268459  0.33405762  0.83499510  1
  Cu+  Cu78  1  0.82530815  0.66919931  0.16684096  1
  Cu+  Cu79  1  0.83517413  0.66472743  0.50152916  1
  Cu+  Cu80  1  0.83209950  0.66682208  0.83655093  1
  Cu+  Cu81  1  0.00174469  0.16777263  0.16512730  1
  Cu+  Cu82  1  0.00173582  0.16577826  0.49845614  1
  Cu+  Cu83  1  0.00055235  0.16564341  0.82546961  1
  Cu+  Cu84  1  0.00033095  0.49936007  0.16360640  1
  Cu+  Cu85  1  -0.00033827  0.49938355  0.50179138  1
  Cu+  Cu86  1  -0.00366571  0.50046889  0.83672239  1
  Cu+  Cu87  1  -0.00393801  0.83565276  0.16353293  1
  Cu+  Cu88  1  -0.00069094  0.83238933  0.50073821  1
  Cu+  Cu89  1  0.00469627  0.83241801  0.83520108  1
  Cu+  Cu90  1  0.33526471  0.16305052  0.16128588  1
  Cu+  Cu91  1  0.32926131  0.16402110  0.50890464  1
  Cu+  Cu92  1  0.33199391  0.17344061  0.83489703  1
  Cu+  Cu93  1  0.33044756  0.49742764  0.16847223  1
  Cu+  Cu94  1  0.33578005  0.50177340  0.49591020  1
  Cu+  Cu95  1  0.33372361  0.50117623  0.83393996  1
  Cu+  Cu96  1  0.33354054  0.82997491  0.16744262  1
  Cu+  Cu97  1  0.33567922  0.83919889  0.49631781  1
  Cu+  Cu98  1  0.33241616  0.83057937  0.82929684  1
  Cu+  Cu99  1  0.67142996  0.16559198  0.16746519  1
  Cu+  Cu100  1  0.66607792  0.16369847  0.49886674  1
  Cu+  Cu101  1  0.65911193  0.16736707  0.83743239  1
  Cu+  Cu102  1  0.66390806  0.50665341  0.17096409  1
  Cu+  Cu103  1  0.67242723  0.49862593  0.49836035  1
  Cu+  Cu104  1  0.66788376  0.49713542  0.83396046  1
  Cu+  Cu105  1  0.66814864  0.83009812  0.17073205  1
  Cu+  Cu106  1  0.66484226  0.83455149  0.50214643  1
  Cu+  Cu107  1  0.66591115  0.82877060  0.82782887  1
  Cu+  Cu108  1  0.25559366  0.26404977  0.58970615  1
  Cu+  Cu109  1  0.40559709  0.26484420  0.08191224  1
  Cu+  Cu110  1  0.59534293  0.25905698  0.93235027  1
  Cu+  Cu111  1  0.41206328  0.26250207  0.74265147  1
  Cu+  Cu112  1  0.07122754  0.59407627  0.07758845  1
  Cu+  Cu113  1  0.73449841  0.58798705  0.07278076  1
  Cu+  Cu114  1  0.73505386  0.07863905  0.59388500  1
  Cu+  Cu115  1  0.26494252  0.06599125  0.07208749  1
  Cu+  Cu116  1  0.06817871  0.74018744  0.59071823  1
  Cu+  Cu117  1  0.40472598  0.42142134  0.59376288  1
  Cu+  Cu118  1  0.93348473  0.06939240  0.73498436  1
  Cu+  Cu119  1  0.92804732  0.40442992  0.07535632  1
  Cu+  Cu120  1  0.74352399  0.74636201  0.26799530  1
  Cu+  Cu121  1  0.24856490  0.26689644  0.92857150  1
  Cu+  Cu122  1  0.59763108  0.73388709  0.73381670  1
  Cu+  Cu123  1  0.73689206  0.74279234  0.92140431  1
  Cu+  Cu124  1  0.40231012  0.59248609  0.40335428  1
  Cu+  Cu125  1  0.40030412  0.06716882  0.59767312  1
  Cu+  Cu126  1  0.26222982  0.73957034  0.73566764  1
  Cu+  Cu127  1  0.73374174  0.92854068  0.74735845  1
  Cu+  Cu128  1  0.59405848  0.59560454  0.26456478  1
  Cu+  Cu129  1  0.59653331  0.07338617  0.40566038  1
  Cu+  Cu130  1  0.40288076  0.93325801  0.40225827  1
  Cu+  Cu131  1  0.06890578  0.26417980  0.73939691  1
  Cu+  Cu132  1  0.07663560  0.74195477  0.92751931  1
  Te2-  Te133  1  0.25385503  0.25917140  0.08038009  1
  Te2-  Te134  1  0.25327665  0.24934590  0.41605419  1
  Te2-  Te135  1  0.25530701  0.25949036  0.74448935  1
  Te2-  Te136  1  0.25366770  0.58416180  0.08172945  1
  Te2-  Te137  1  0.24990386  0.58895484  0.41379020  1
  Te2-  Te138  1  0.25282817  0.58641706  0.74841154  1
  Te2-  Te139  1  0.25500085  0.91480926  0.07769284  1
  Te2-  Te140  1  0.25102102  0.92106337  0.40987733  1
  Te2-  Te141  1  0.25303297  0.91676685  0.74317204  1
  Te2-  Te142  1  0.59050121  0.25426961  0.08505655  1
  Te2-  Te143  1  0.58208725  0.25321914  0.41946677  1
  Te2-  Te144  1  0.58019368  0.24721815  0.74456270  1
  Te2-  Te145  1  0.58248675  0.58777293  0.07753519  1
  Te2-  Te146  1  0.59294896  0.58773191  0.41582163  1
  Te2-  Te147  1  0.59022538  0.58119853  0.74458890  1
  Te2-  Te148  1  0.58799406  0.91574898  0.08376740  1
  Te2-  Te149  1  0.58822219  0.92074637  0.41431594  1
  Te2-  Te150  1  0.58264311  0.92314809  0.74808113  1
  Te2-  Te151  1  0.92129987  0.25153283  0.07688303  1
  Te2-  Te152  1  0.91986046  0.25038018  0.41450562  1
  Te2-  Te153  1  0.91572181  0.25553186  0.74425749  1
  Te2-  Te154  1  0.91836981  0.59231238  0.08253533  1
  Te2-  Te155  1  0.92188949  0.58662349  0.41618648  1
  Te2-  Te156  1  0.91694049  0.58554345  0.75035093  1
  Te2-  Te157  1  0.91550337  0.91769678  0.07536694  1
  Te2-  Te158  1  0.91731062  0.92001422  0.41793932  1
  Te2-  Te159  1  0.92774791  0.91656332  0.74508517  1
  Te2-  Te160  1  0.25395382  0.08090368  0.25086220  1
  Te2-  Te161  1  0.24829885  0.07525478  0.59163011  1
  Te2-  Te162  1  0.25649624  0.07667937  0.91424421  1
  Te2-  Te163  1  0.25207881  0.41293717  0.25466191  1
  Te2-  Te164  1  0.25360448  0.41707682  0.58901903  1
  Te2-  Te165  1  0.25005194  0.41844074  0.92039499  1
  Te2-  Te166  1  0.24928590  0.74563077  0.25014779  1
  Te2-  Te167  1  0.26080142  0.74679110  0.58156640  1
  Te2-  Te168  1  0.25365934  0.74843517  0.91961753  1
  Te2-  Te169  1  0.58973516  0.07912335  0.25172095  1
  Te2-  Te170  1  0.58080275  0.07944151  0.58916576  1
  Te2-  Te171  1  0.58059622  0.08098900  0.92398437  1
  Te2-  Te172  1  0.58417668  0.41522445  0.25307180  1
  Te2-  Te173  1  0.59172852  0.41399380  0.58329790  1
  Te2-  Te174  1  0.58747326  0.41259690  0.92038857  1
  Te2-  Te175  1  0.58698968  0.74885147  0.26150955  1
  Te2-  Te176  1  0.58493883  0.74370243  0.58150970  1
  Te2-  Te177  1  0.58534220  0.74546612  0.92068792  1
  Te2-  Te178  1  0.92047750  0.08069663  0.24872778  1
  Te2-  Te179  1  0.92535710  0.07664719  0.58332215  1
  Te2-  Te180  1  0.91867707  0.08172223  0.91433996  1
  Te2-  Te181  1  0.91981072  0.41691538  0.25289566  1
  Te2-  Te182  1  0.91997826  0.41318392  0.58738636  1
  Te2-  Te183  1  0.91870274  0.41276503  0.92197113  1
  Te2-  Te184  1  0.91744894  0.74870540  0.25018923  1
  Te2-  Te185  1  0.91551109  0.74854799  0.58921263  1
  Te2-  Te186  1  0.92137424  0.74643160  0.91848194  1
  Te2-  Te187  1  0.08306174  0.24963685  0.25272756  1
  Te2-  Te188  1  0.07700296  0.25560771  0.58432705  1
  Te2-  Te189  1  0.08133196  0.24706864  0.91922067  1
  Te2-  Te190  1  0.07978136  0.58385211  0.25318536  1
  Te2-  Te191  1  0.07928231  0.58601998  0.58753278  1
  Te2-  Te192  1  0.07728255  0.58793321  0.92018047  1
  Te2-  Te193  1  0.08121109  0.91930268  0.24771567  1
  Te2-  Te194  1  0.08358442  0.91714777  0.58549206  1
  Te2-  Te195  1  0.08257764  0.92272575  0.91683665  1
  Te2-  Te196  1  0.41541667  0.24856059  0.25238845  1
  Te2-  Te197  1  0.40988956  0.25885626  0.58912158  1
  Te2-  Te198  1  0.40849219  0.25891599  0.92492727  1
  Te2-  Te199  1  0.40923068  0.58794594  0.25101112  1
  Te2-  Te200  1  0.41662061  0.58511128  0.58697007  1
  Te2-  Te201  1  0.41780762  0.58614954  0.91615097  1
  Te2-  Te202  1  0.41147769  0.92077806  0.25048708  1
  Te2-  Te203  1  0.41547442  0.91729863  0.59021234  1
  Te2-  Te204  1  0.41369356  0.91201350  0.91915586  1
  Te2-  Te205  1  0.75078419  0.25393188  0.25084239  1
  Te2-  Te206  1  0.74896845  0.24857958  0.58582747  1
  Te2-  Te207  1  0.74767155  0.25200673  0.91829290  1
  Te2-  Te208  1  0.74777774  0.58858949  0.26158362  1
  Te2-  Te209  1  0.74944699  0.58430649  0.58643510  1
  Te2-  Te210  1  0.74404405  0.58575868  0.92143566  1
  Te2-  Te211  1  0.75023259  0.92031850  0.25117766  1
  Te2-  Te212  1  0.74095819  0.92223749  0.58964257  1
  Te2-  Te213  1  0.74845744  0.92054356  0.91193485  1
  Te2-  Te214  1  0.08222915  0.08241355  0.07849228  1
  Te2-  Te215  1  0.08254641  0.07973868  0.41421278  1
  Te2-  Te216  1  0.08603966  0.07840533  0.74288913  1
  Te2-  Te217  1  0.08138885  0.40903954  0.07976444  1
  Te2-  Te218  1  0.08306971  0.41541768  0.41699096  1
  Te2-  Te219  1  0.07722966  0.41728933  0.74766287  1
  Te2-  Te220  1  0.07683982  0.74747741  0.07933187  1
  Te2-  Te221  1  0.08145616  0.74892400  0.41285717  1
  Te2-  Te222  1  0.07781702  0.74484441  0.74476666  1
  Te2-  Te223  1  0.41903752  0.07505910  0.07862446  1
  Te2-  Te224  1  0.40709040  0.08521906  0.41228805  1
  Te2-  Te225  1  0.40707439  0.07540841  0.75429385  1
  Te2-  Te226  1  0.41276019  0.41707724  0.08019928  1
  Te2-  Te227  1  0.41692006  0.41496474  0.40989864  1
  Te2-  Te228  1  0.41297371  0.41436804  0.74750377  1
  Te2-  Te229  1  0.41756847  0.74524384  0.08449531  1
  Te2-  Te230  1  0.41241682  0.74768438  0.41210928  1
  Te2-  Te231  1  0.41542834  0.74387614  0.74498258  1
  Te2-  Te232  1  0.74886964  0.08082029  0.07897787  1
  Te2-  Te233  1  0.74964912  0.07987784  0.40938150  1
  Te2-  Te234  1  0.73811036  0.08177635  0.74726931  1
  Te2-  Te235  1  0.74438489  0.41774860  0.08611459  1
  Te2-  Te236  1  0.75162427  0.41174465  0.41450735  1
  Te2-  Te237  1  0.74931647  0.41399706  0.74836732  1
  Te2-  Te238  1  0.74146993  0.74649457  0.07529407  1
  Te2-  Te239  1  0.74765780  0.74799240  0.41930058  1
  Te2-  Te240  1  0.75031011  0.74245935  0.74202162  1
