# generated using pymatgen
data_Ti27(Cu53Te54)2
_symmetry_space_group_name_H-M   'P 1'
_cell_length_a   17.88847430
_cell_length_b   17.89591849
_cell_length_c   17.88524520
_cell_angle_alpha   89.99168180
_cell_angle_beta   90.02836914
_cell_angle_gamma   89.98385416
_symmetry_Int_Tables_number   1
_chemical_formula_structural   Ti27(Cu53Te54)2
_chemical_formula_sum   'Ti27 Cu106 Te108'
_cell_volume   5725.61468258
_cell_formula_units_Z   1
loop_
 _symmetry_equiv_pos_site_id
 _symmetry_equiv_pos_as_xyz
  1  'x, y, z'
loop_
 _atom_type_symbol
 _atom_type_oxidation_number
  Ti4+  4.0
  Cu+  1.0
  Te2-  -2.0
loop_
 _atom_site_type_symbol
 _atom_site_label
 _atom_site_symmetry_multiplicity
 _atom_site_fract_x
 _atom_site_fract_y
 _atom_site_fract_z
 _atom_site_occupancy
  Ti4+  Ti0  1  0.16541094  0.16783199  0.16683652  1
  Ti4+  Ti1  1  0.16855526  0.16517200  0.50064654  1
  Ti4+  Ti2  1  0.16688613  0.16381343  0.83469239  1
  Ti4+  Ti3  1  0.16646846  0.50320230  0.16377247  1
  Ti4+  Ti4  1  0.16739681  0.50128804  0.50120919  1
  Ti4+  Ti5  1  0.16768595  0.50007586  0.82883367  1
  Ti4+  Ti6  1  0.16711159  0.83614852  0.16784178  1
  Ti4+  Ti7  1  0.16501135  0.82878075  0.49723751  1
  Ti4+  Ti8  1  0.16321862  0.83438243  0.83433947  1
  Ti4+  Ti9  1  0.50074775  0.16329310  0.16895637  1
  Ti4+  Ti10  1  0.49914730  0.17212640  0.49829514  1
  Ti4+  Ti11  1  0.50110611  0.16612367  0.83248561  1
  Ti4+  Ti12  1  0.49825422  0.49589291  0.16585819  1
  Ti4+  Ti13  1  0.50234813  0.50427593  0.49881928  1
  Ti4+  Ti14  1  0.49821683  0.50076651  0.83527340  1
  Ti4+  Ti15  1  0.50240706  0.83063593  0.16707570  1
  Ti4+  Ti16  1  0.49813512  0.83443174  0.50009362  1
  Ti4+  Ti17  1  0.49677860  0.83404786  0.83315911  1
  Ti4+  Ti18  1  0.83423218  0.16768178  0.16857679  1
  Ti4+  Ti19  1  0.83338208  0.16341040  0.49840977  1
  Ti4+  Ti20  1  0.83215783  0.16697161  0.83271682  1
  Ti4+  Ti21  1  0.83737933  0.49877170  0.16750027  1
  Ti4+  Ti22  1  0.83488591  0.49741717  0.50328228  1
  Ti4+  Ti23  1  0.83303061  0.50248763  0.83425596  1
  Ti4+  Ti24  1  0.83376573  0.83433745  0.16517285  1
  Ti4+  Ti25  1  0.83317766  0.83496535  0.50093315  1
  Ti4+  Ti26  1  0.83136674  0.83499868  0.83268781  1
  Cu+  Cu27  1  0.16381909  0.16733324  0.00012462  1
  Cu+  Cu28  1  0.16872008  0.16706762  0.33627355  1
  Cu+  Cu29  1  0.16821351  0.16373960  0.67047462  1
  Cu+  Cu30  1  0.17333411  0.50100147  -0.00395742  1
  Cu+  Cu31  1  0.16386945  0.50441876  0.33322079  1
  Cu+  Cu32  1  0.15952215  0.50230967  0.66562763  1
  Cu+  Cu33  1  0.16343275  0.84195426  0.00261177  1
  Cu+  Cu34  1  0.16433683  0.82325980  0.33224817  1
  Cu+  Cu35  1  0.16837528  0.82908615  0.66506833  1
  Cu+  Cu36  1  0.50118079  0.16227788  0.00071047  1
  Cu+  Cu37  1  0.50807342  0.16930412  0.33467701  1
  Cu+  Cu38  1  0.49802734  0.17061955  0.66520743  1
  Cu+  Cu39  1  0.49308975  0.49907983  0.00331436  1
  Cu+  Cu40  1  0.50487078  0.50617254  0.32860506  1
  Cu+  Cu41  1  0.49851267  0.50090793  0.66670712  1
  Cu+  Cu42  1  0.50088166  0.83067783  0.00037635  1
  Cu+  Cu43  1  0.50354045  0.82922070  0.33406271  1
  Cu+  Cu44  1  0.49509255  0.83733965  0.66662012  1
  Cu+  Cu45  1  0.82994642  0.16794243  0.00064525  1
  Cu+  Cu46  1  0.83157033  0.16484509  0.32989159  1
  Cu+  Cu47  1  0.83529472  0.16250595  0.66635009  1
  Cu+  Cu48  1  0.83456819  0.50141501  0.00076168  1
  Cu+  Cu49  1  0.83395109  0.49775605  0.33681753  1
  Cu+  Cu50  1  0.83719553  0.49714943  0.67040280  1
  Cu+  Cu51  1  0.83168710  0.83505764  -0.00340937  1
  Cu+  Cu52  1  0.83634786  0.83734315  0.33331691  1
  Cu+  Cu53  1  0.82932480  0.83419560  0.66620939  1
  Cu+  Cu54  1  0.16209697  0.00122542  0.16322717  1
  Cu+  Cu55  1  0.16821258  -0.00387343  0.50004310  1
  Cu+  Cu56  1  0.16805902  -0.00219527  0.83806834  1
  Cu+  Cu57  1  0.16651349  0.33745092  0.16375200  1
  Cu+  Cu58  1  0.16957768  0.33161919  0.50528278  1
  Cu+  Cu59  1  0.16905036  0.32773425  0.83412757  1
  Cu+  Cu60  1  0.16508592  0.67283315  0.16882043  1
  Cu+  Cu61  1  0.16671539  0.66432459  0.48928833  1
  Cu+  Cu62  1  0.16577341  0.66808483  0.82798447  1
  Cu+  Cu63  1  0.50141548  -0.00662659  0.16619505  1
  Cu+  Cu64  1  0.49502562  0.00451476  0.49844343  1
  Cu+  Cu65  1  0.49665207  0.00214942  0.83558597  1
  Cu+  Cu66  1  0.50082297  0.32667315  0.16971024  1
  Cu+  Cu67  1  0.49809628  0.34190307  0.50006691  1
  Cu+  Cu68  1  0.50230387  0.33184533  0.83471500  1
  Cu+  Cu69  1  0.49954079  0.66150173  0.16671889  1
  Cu+  Cu70  1  0.50562600  0.67143930  0.49734986  1
  Cu+  Cu71  1  0.49551097  0.66622426  0.83337887  1
  Cu+  Cu72  1  0.83569279  -0.00052660  0.17129933  1
  Cu+  Cu73  1  0.83116679  -0.00191851  0.49943094  1
  Cu+  Cu74  1  0.83370727  0.00188856  0.83174999  1
  Cu+  Cu75  1  0.83854092  0.33333962  0.16900119  1
  Cu+  Cu76  1  0.83405109  0.32923198  0.50049264  1
  Cu+  Cu77  1  0.83327778  0.33513486  0.83373309  1
  Cu+  Cu78  1  0.83458826  0.66449580  0.16351150  1
  Cu+  Cu79  1  0.83384491  0.66641851  0.50298006  1
  Cu+  Cu80  1  0.83017150  0.67003931  0.83472648  1
  Cu+  Cu81  1  -0.00212893  0.17207653  0.16902163  1
  Cu+  Cu82  1  0.00255430  0.16410637  0.49968913  1
  Cu+  Cu83  1  -0.00138868  0.16283652  0.83114469  1
  Cu+  Cu84  1  0.00359854  0.49696470  0.16796668  1
  Cu+  Cu85  1  0.00331094  0.49778584  0.50386314  1
  Cu+  Cu86  1  -0.00069679  0.50038473  0.82691093  1
  Cu+  Cu87  1  -0.00117824  0.84188427  0.16845977  1
  Cu+  Cu88  1  -0.00227773  0.83178122  0.50074506  1
  Cu+  Cu89  1  -0.00440342  0.83439510  0.83339420  1
  Cu+  Cu90  1  0.33257341  0.16457051  0.16625295  1
  Cu+  Cu91  1  0.33519433  0.16725085  0.50266976  1
  Cu+  Cu92  1  0.33621694  0.16222863  0.83703031  1
  Cu+  Cu93  1  0.32983899  0.49815856  0.15635802  1
  Cu+  Cu94  1  0.33777812  0.49968133  0.50353988  1
  Cu+  Cu95  1  0.33741511  0.50427925  0.82906021  1
  Cu+  Cu96  1  0.33790535  0.83398100  0.16719559  1
  Cu+  Cu97  1  0.32702625  0.83287608  0.49894270  1
  Cu+  Cu98  1  0.32622272  0.83218717  0.83577260  1
  Cu+  Cu99  1  0.66711793  0.16561291  0.17313575  1
  Cu+  Cu100  1  0.66543977  0.16765682  0.49416495  1
  Cu+  Cu101  1  0.66648040  0.16878681  0.83185195  1
  Cu+  Cu102  1  0.67079481  0.49587507  0.16765211  1
  Cu+  Cu103  1  0.67065039  0.50242380  0.50047279  1
  Cu+  Cu104  1  0.66494661  0.50125327  0.83748469  1
  Cu+  Cu105  1  0.66791227  0.83024728  0.16369642  1
  Cu+  Cu106  1  0.66694659  0.83337420  0.50015606  1
  Cu+  Cu107  1  0.66418619  0.83593645  0.83264676  1
  Cu+  Cu108  1  0.92954276  0.92969290  0.26598341  1
  Cu+  Cu109  1  0.25244359  0.92409299  0.59331282  1
  Cu+  Cu110  1  0.06743314  0.59805164  0.74201643  1
  Cu+  Cu111  1  0.06680156  0.74489123  0.25325986  1
  Cu+  Cu112  1  0.40878432  0.41054827  0.59620075  1
  Cu+  Cu113  1  0.41002101  0.07445000  0.93229862  1
  Cu+  Cu114  1  0.59945496  0.59163256  0.24826957  1
  Cu+  Cu115  1  0.25748069  0.74114436  0.73954412  1
  Cu+  Cu116  1  0.40454157  0.59627466  0.07565351  1
  Cu+  Cu117  1  0.41575510  0.59663921  0.73401829  1
  Cu+  Cu118  1  0.25662675  0.40254388  0.06723187  1
  Cu+  Cu119  1  0.08178600  0.40726379  0.25978742  1
  Cu+  Cu120  1  0.07528509  0.40051101  0.59242203  1
  Cu+  Cu121  1  0.59983844  0.74263315  0.40907348  1
  Cu+  Cu122  1  0.59577915  0.26095062  0.26108588  1
  Cu+  Cu123  1  0.41145221  0.07639173  0.59347339  1
  Cu+  Cu124  1  0.59027489  0.07218836  0.41247681  1
  Cu+  Cu125  1  0.26312855  0.73691702  0.40202200  1
  Cu+  Cu126  1  0.06738886  0.58765579  0.40637824  1
  Cu+  Cu127  1  0.06766290  0.93173901  0.07209123  1
  Cu+  Cu128  1  0.73845028  0.06653952  0.25465018  1
  Cu+  Cu129  1  0.92703421  0.06932597  0.73838742  1
  Cu+  Cu130  1  0.92476064  0.40310706  0.74501559  1
  Cu+  Cu131  1  0.92676980  0.26080059  0.26366373  1
  Cu+  Cu132  1  0.25976448  0.92323334  0.93153612  1
  Te2-  Te133  1  0.25248544  0.25104917  0.07994804  1
  Te2-  Te134  1  0.25356795  0.25253527  0.41745049  1
  Te2-  Te135  1  0.25512745  0.24709255  0.75054928  1
  Te2-  Te136  1  0.24898822  0.59404694  0.07827830  1
  Te2-  Te137  1  0.25854909  0.58193824  0.41211076  1
  Te2-  Te138  1  0.25555851  0.58689956  0.74124978  1
  Te2-  Te139  1  0.25684108  0.92211228  0.08458891  1
  Te2-  Te140  1  0.24816425  0.91569254  0.40882784  1
  Te2-  Te141  1  0.25132351  0.92071664  0.74658463  1
  Te2-  Te142  1  0.58639167  0.24690952  0.08220233  1
  Te2-  Te143  1  0.58732008  0.26209657  0.41597265  1
  Te2-  Te144  1  0.58533032  0.25290305  0.74644583  1
  Te2-  Te145  1  0.58752407  0.58035182  0.08122054  1
  Te2-  Te146  1  0.59257343  0.58872981  0.41196840  1
  Te2-  Te147  1  0.58450169  0.58586164  0.74928381  1
  Te2-  Te148  1  0.58681411  0.91548332  0.07999199  1
  Te2-  Te149  1  0.58504819  0.92027321  0.41508642  1
  Te2-  Te150  1  0.58041265  0.92037098  0.74902389  1
  Te2-  Te151  1  0.91795105  0.25248447  0.07897712  1
  Te2-  Te152  1  0.92080547  0.24973136  0.41517253  1
  Te2-  Te153  1  0.91948477  0.25175149  0.74593879  1
  Te2-  Te154  1  0.92239159  0.58329859  0.08220234  1
  Te2-  Te155  1  0.91827427  0.58480033  0.41647046  1
  Te2-  Te156  1  0.91656071  0.59232147  0.74643249  1
  Te2-  Te157  1  0.91596678  0.92295419  0.07676370  1
  Te2-  Te158  1  0.92196764  0.92186285  0.41631813  1
  Te2-  Te159  1  0.91835913  0.91865378  0.74435393  1
  Te2-  Te160  1  0.24914700  0.08078882  0.25077309  1
  Te2-  Te161  1  0.25448929  0.07856781  0.58853831  1
  Te2-  Te162  1  0.25337139  0.07865987  0.92550129  1
  Te2-  Te163  1  0.25124427  0.41894530  0.25215438  1
  Te2-  Te164  1  0.25342184  0.41640322  0.58972486  1
  Te2-  Te165  1  0.25619297  0.41402968  0.91286091  1
  Te2-  Te166  1  0.25804412  0.74698654  0.25015419  1
  Te2-  Te167  1  0.25161625  0.74016748  0.58308666  1
  Te2-  Te168  1  0.24476119  0.74772880  0.92350290  1
  Te2-  Te169  1  0.58647932  0.07208321  0.25561687  1
  Te2-  Te170  1  0.58448214  0.08427966  0.58406299  1
  Te2-  Te171  1  0.58849087  0.08051897  0.91759265  1
  Te2-  Te172  1  0.58733425  0.41220509  0.25296901  1
  Te2-  Te173  1  0.58741244  0.41936147  0.58542736  1
  Te2-  Te174  1  0.58252640  0.41603715  0.92173413  1
  Te2-  Te175  1  0.59072125  0.74346857  0.25232065  1
  Te2-  Te176  1  0.58405297  0.75228988  0.58897135  1
  Te2-  Te177  1  0.58309097  0.74781944  0.91534878  1
  Te2-  Te178  1  0.92422177  0.08097067  0.25512690  1
  Te2-  Te179  1  0.92073378  0.07747231  0.58319169  1
  Te2-  Te180  1  0.91642080  0.08226390  0.92119978  1
  Te2-  Te181  1  0.92392363  0.41370346  0.25855353  1
  Te2-  Te182  1  0.92158167  0.40796390  0.58832631  1
  Te2-  Te183  1  0.92068703  0.41681090  0.91839417  1
  Te2-  Te184  1  0.91706268  0.74638050  0.25161014  1
  Te2-  Te185  1  0.91694447  0.74928993  0.58733935  1
  Te2-  Te186  1  0.91748948  0.74887065  0.91861537  1
  Te2-  Te187  1  0.08269262  0.25495977  0.25605738  1
  Te2-  Te188  1  0.08123267  0.24802190  0.58897836  1
  Te2-  Te189  1  0.07940746  0.24987032  0.91665550  1
  Te2-  Te190  1  0.07688528  0.59113431  0.25228769  1
  Te2-  Te191  1  0.07998729  0.59273182  0.58467612  1
  Te2-  Te192  1  0.08320501  0.58379514  0.91487824  1
  Te2-  Te193  1  0.08376001  0.92245818  0.25878760  1
  Te2-  Te194  1  0.08133396  0.91499242  0.58503714  1
  Te2-  Te195  1  0.07403829  0.92207321  0.91824438  1
  Te2-  Te196  1  0.41349223  0.24712396  0.25402146  1
  Te2-  Te197  1  0.41307848  0.25842153  0.58577285  1
  Te2-  Te198  1  0.41665012  0.25118017  0.92059983  1
  Te2-  Te199  1  0.40872108  0.58156185  0.24894104  1
  Te2-  Te200  1  0.41635681  0.59344349  0.58260211  1
  Te2-  Te201  1  0.41057253  0.58797233  0.92215829  1
  Te2-  Te202  1  0.41803382  0.91550907  0.25453182  1
  Te2-  Te203  1  0.40895688  0.92110476  0.58497672  1
  Te2-  Te204  1  0.41172793  0.91854669  0.92326229  1
  Te2-  Te205  1  0.74820263  0.25746309  0.25482742  1
  Te2-  Te206  1  0.74849718  0.24713131  0.58446153  1
  Te2-  Te207  1  0.74725643  0.25363238  0.91777868  1
  Te2-  Te208  1  0.75192621  0.58518324  0.25376664  1
  Te2-  Te209  1  0.75141206  0.58375057  0.58865552  1
  Te2-  Te210  1  0.74789942  0.58669550  0.92054249  1
  Te2-  Te211  1  0.74401661  0.91582156  0.25307286  1
  Te2-  Te212  1  0.74559346  0.91964583  0.58498472  1
  Te2-  Te213  1  0.74641557  0.92152093  0.91690225  1
  Te2-  Te214  1  0.07566197  0.08505757  0.08088361  1
  Te2-  Te215  1  0.08419478  0.07926001  0.41552350  1
  Te2-  Te216  1  0.08268602  0.07606156  0.74801117  1
  Te2-  Te217  1  0.08266823  0.41791180  0.07481721  1
  Te2-  Te218  1  0.08353248  0.41101826  0.41571795  1
  Te2-  Te219  1  0.08187053  0.40664008  0.74656419  1
  Te2-  Te220  1  0.07895982  0.75254856  0.08156612  1
  Te2-  Te221  1  0.07115310  0.74392741  0.41154538  1
  Te2-  Te222  1  0.07565506  0.75083703  0.74546083  1
  Te2-  Te223  1  0.41457206  0.07652421  0.08445493  1
  Te2-  Te224  1  0.41333581  0.08677796  0.41002671  1
  Te2-  Te225  1  0.41358374  0.08022714  0.74517698  1
  Te2-  Te226  1  0.41388186  0.40464805  0.08092375  1
  Te2-  Te227  1  0.41730895  0.42135378  0.40959305  1
  Te2-  Te228  1  0.41440429  0.41053808  0.74900339  1
  Te2-  Te229  1  0.41434311  0.74691165  0.08032457  1
  Te2-  Te230  1  0.41304614  0.74706369  0.41358953  1
  Te2-  Te231  1  0.40921365  0.74883489  0.74504252  1
  Te2-  Te232  1  0.74806504  0.08093222  0.08456725  1
  Te2-  Te233  1  0.74615482  0.07684617  0.41093868  1
  Te2-  Te234  1  0.74540729  0.08143184  0.74713416  1
  Te2-  Te235  1  0.75273432  0.41312060  0.08243390  1
  Te2-  Te236  1  0.74933175  0.41299218  0.41748853  1
  Te2-  Te237  1  0.74528493  0.41662645  0.75023451  1
  Te2-  Te238  1  0.75069352  0.74746265  0.07943794  1
  Te2-  Te239  1  0.75119436  0.74729427  0.41293876  1
  Te2-  Te240  1  0.74498928  0.74979338  0.74826014  1
