# generated using pymatgen
data_Ti27(Cu53Te54)2
_symmetry_space_group_name_H-M   'P 1'
_cell_length_a   17.86082663
_cell_length_b   17.86131484
_cell_length_c   17.85827303
_cell_angle_alpha   90.01950962
_cell_angle_beta   90.01450222
_cell_angle_gamma   90.00861776
_symmetry_Int_Tables_number   1
_chemical_formula_structural   Ti27(Cu53Te54)2
_chemical_formula_sum   'Ti27 Cu106 Te108'
_cell_volume   5697.10724702
_cell_formula_units_Z   1
loop_
 _symmetry_equiv_pos_site_id
 _symmetry_equiv_pos_as_xyz
  1  'x, y, z'
loop_
 _atom_type_symbol
 _atom_type_oxidation_number
  Ti4+  4.0
  Cu+  1.0
  Te2-  -2.0
loop_
 _atom_site_type_symbol
 _atom_site_label
 _atom_site_symmetry_multiplicity
 _atom_site_fract_x
 _atom_site_fract_y
 _atom_site_fract_z
 _atom_site_occupancy
  Ti4+  Ti0  1  0.16631331  0.16574815  0.16448313  1
  Ti4+  Ti1  1  0.16589665  0.16845128  0.49981997  1
  Ti4+  Ti2  1  0.16797657  0.16767664  0.83523155  1
  Ti4+  Ti3  1  0.16562603  0.49897048  0.16503334  1
  Ti4+  Ti4  1  0.16683899  0.50193817  0.49945951  1
  Ti4+  Ti5  1  0.16612962  0.49834923  0.83236428  1
  Ti4+  Ti6  1  0.16793053  0.83198185  0.16689334  1
  Ti4+  Ti7  1  0.17029668  0.83381851  0.50443395  1
  Ti4+  Ti8  1  0.16343474  0.83305632  0.83392571  1
  Ti4+  Ti9  1  0.49875524  0.16540171  0.16822518  1
  Ti4+  Ti10  1  0.50147316  0.16851667  0.49852470  1
  Ti4+  Ti11  1  0.49918956  0.16780545  0.83351410  1
  Ti4+  Ti12  1  0.50012020  0.49969213  0.16634740  1
  Ti4+  Ti13  1  0.50051965  0.49948016  0.50020683  1
  Ti4+  Ti14  1  0.49995414  0.50019676  0.83349803  1
  Ti4+  Ti15  1  0.50194542  0.83282668  0.16977866  1
  Ti4+  Ti16  1  0.49961614  0.83432086  0.49521988  1
  Ti4+  Ti17  1  0.49888543  0.83285844  0.83384157  1
  Ti4+  Ti18  1  0.83359173  0.16512840  0.16634046  1
  Ti4+  Ti19  1  0.83239751  0.16622140  0.50196332  1
  Ti4+  Ti20  1  0.83334022  0.16688874  0.83139022  1
  Ti4+  Ti21  1  0.83266736  0.50066361  0.16638709  1
  Ti4+  Ti22  1  0.83244725  0.49896116  0.49753103  1
  Ti4+  Ti23  1  0.83296835  0.49982706  0.83408805  1
  Ti4+  Ti24  1  0.83553503  0.83518684  0.16853612  1
  Ti4+  Ti25  1  0.83309563  0.83224392  0.49967323  1
  Ti4+  Ti26  1  0.83113212  0.83332099  0.83307360  1
  Cu+  Cu27  1  0.16914536  0.16645578  -0.00347055  1
  Cu+  Cu28  1  0.16557186  0.16532425  0.33067529  1
  Cu+  Cu29  1  0.16582107  0.17246270  0.66789375  1
  Cu+  Cu30  1  0.16298762  0.49734417  -0.00043394  1
  Cu+  Cu31  1  0.16689461  0.49829116  0.33204746  1
  Cu+  Cu32  1  0.16831840  0.50140273  0.66438981  1
  Cu+  Cu33  1  0.16440499  0.83649156  0.00206304  1
  Cu+  Cu34  1  0.17257454  0.83324461  0.33278586  1
  Cu+  Cu35  1  0.16519836  0.82755167  0.67007758  1
  Cu+  Cu36  1  0.49712391  0.16268343  0.00113042  1
  Cu+  Cu37  1  0.49921362  0.16825849  0.33618251  1
  Cu+  Cu38  1  0.50109890  0.16898649  0.66632095  1
  Cu+  Cu39  1  0.50198083  0.50252260  -0.00045515  1
  Cu+  Cu40  1  0.50059964  0.50010358  0.33298826  1
  Cu+  Cu41  1  0.50145849  0.49936784  0.66825335  1
  Cu+  Cu42  1  0.49947274  0.83126809  0.00128030  1
  Cu+  Cu43  1  0.50571608  0.83956290  0.33388332  1
  Cu+  Cu44  1  0.49609862  0.83445715  0.66511472  1
  Cu+  Cu45  1  0.83393642  0.16733460  -0.00042815  1
  Cu+  Cu46  1  0.83675914  0.16599452  0.33326562  1
  Cu+  Cu47  1  0.83164288  0.16285584  0.66594126  1
  Cu+  Cu48  1  0.83166447  0.49940641  0.00192783  1
  Cu+  Cu49  1  0.83844603  0.50519896  0.32928495  1
  Cu+  Cu50  1  0.83221159  0.49802252  0.66747663  1
  Cu+  Cu51  1  0.83165739  0.83740492  0.00041034  1
  Cu+  Cu52  1  0.83182257  0.82956317  0.33271928  1
  Cu+  Cu53  1  0.83286524  0.83332388  0.66813700  1
  Cu+  Cu54  1  0.16624566  -0.00189995  0.16344147  1
  Cu+  Cu55  1  0.16771948  0.00222906  0.50452252  1
  Cu+  Cu56  1  0.16402895  0.00083940  0.83736342  1
  Cu+  Cu57  1  0.16524516  0.33220450  0.16404158  1
  Cu+  Cu58  1  0.16776241  0.33617695  0.50007921  1
  Cu+  Cu59  1  0.16355841  0.33343708  0.83578943  1
  Cu+  Cu60  1  0.16747650  0.66488052  0.16514842  1
  Cu+  Cu61  1  0.16798672  0.66989260  0.50388005  1
  Cu+  Cu62  1  0.16781199  0.66599357  0.83118922  1
  Cu+  Cu63  1  0.50350017  -0.00215892  0.17128618  1
  Cu+  Cu64  1  0.50113569  0.00196399  0.49283651  1
  Cu+  Cu65  1  0.49563217  0.00011345  0.83310408  1
  Cu+  Cu66  1  0.49783278  0.33196453  0.16701949  1
  Cu+  Cu67  1  0.50207937  0.33354826  0.49447682  1
  Cu+  Cu68  1  0.50016407  0.33496601  0.83145211  1
  Cu+  Cu69  1  0.50007038  0.66663711  0.16818732  1
  Cu+  Cu70  1  0.49556727  0.66574503  0.49621123  1
  Cu+  Cu71  1  0.50247877  0.66361200  0.83663607  1
  Cu+  Cu72  1  0.83118337  0.00065425  0.16269567  1
  Cu+  Cu73  1  0.83389305  -0.00078037  0.50151113  1
  Cu+  Cu74  1  0.83387483  -0.00096354  0.83226847  1
  Cu+  Cu75  1  0.83303883  0.33394908  0.16587285  1
  Cu+  Cu76  1  0.82475959  0.33547664  0.50226092  1
  Cu+  Cu77  1  0.83493193  0.33166218  0.83272327  1
  Cu+  Cu78  1  0.83678789  0.66666894  0.17303245  1
  Cu+  Cu79  1  0.83331625  0.66392899  0.49959385  1
  Cu+  Cu80  1  0.83252342  0.66747885  0.83171199  1
  Cu+  Cu81  1  -0.00098147  0.16615993  0.16618684  1
  Cu+  Cu82  1  -0.00220652  0.16498605  0.49841678  1
  Cu+  Cu83  1  0.00055329  0.16854060  0.83019657  1
  Cu+  Cu84  1  -0.00220718  0.50326608  0.16739422  1
  Cu+  Cu85  1  0.00031784  0.50107058  0.49845507  1
  Cu+  Cu86  1  -0.00033677  0.49560727  0.83350283  1
  Cu+  Cu87  1  0.00405905  0.83497782  0.16452543  1
  Cu+  Cu88  1  0.00130691  0.83413210  0.50568322  1
  Cu+  Cu89  1  -0.00519133  0.83339454  0.83461335  1
  Cu+  Cu90  1  0.33224116  0.16459890  0.16595370  1
  Cu+  Cu91  1  0.33135519  0.17268615  0.50068079  1
  Cu+  Cu92  1  0.33588227  0.16670863  0.83992011  1
  Cu+  Cu93  1  0.33176443  0.49812579  0.16516476  1
  Cu+  Cu94  1  0.33424779  0.50498548  0.49926656  1
  Cu+  Cu95  1  0.33477888  0.49947376  0.83205746  1
  Cu+  Cu96  1  0.33494545  0.83101205  0.16880003  1
  Cu+  Cu97  1  0.33617422  0.82966446  0.49674861  1
  Cu+  Cu98  1  0.32913099  0.83343896  0.83174200  1
  Cu+  Cu99  1  0.66610535  0.16599657  0.16632588  1
  Cu+  Cu100  1  0.67008885  0.16479810  0.50053887  1
  Cu+  Cu101  1  0.66535612  0.16761454  0.83262416  1
  Cu+  Cu102  1  0.66647248  0.49900860  0.16555713  1
  Cu+  Cu103  1  0.66777204  0.49129287  0.50111747  1
  Cu+  Cu104  1  0.66515974  0.50281395  0.83556511  1
  Cu+  Cu105  1  0.67050408  0.83725127  0.17104890  1
  Cu+  Cu106  1  0.66627823  0.83065457  0.49669236  1
  Cu+  Cu107  1  0.66493270  0.83289819  0.83109210  1
  Cu+  Cu108  1  0.06864918  0.74074081  0.59605372  1
  Cu+  Cu109  1  0.73916103  0.73675178  0.25425665  1
  Cu+  Cu110  1  0.07405453  0.92744301  0.07494434  1
  Cu+  Cu111  1  0.41496794  0.73860238  0.59475191  1
  Cu+  Cu112  1  0.06877090  0.40890813  0.93003265  1
  Cu+  Cu113  1  0.73893887  0.40808217  0.60106874  1
  Cu+  Cu114  1  0.25402380  0.73844783  0.40366052  1
  Cu+  Cu115  1  0.40322646  0.93023024  0.40696341  1
  Cu+  Cu116  1  0.59335036  0.40867243  0.40199828  1
  Cu+  Cu117  1  0.92864010  0.07091299  0.40653469  1
  Cu+  Cu118  1  0.40641904  0.59069338  0.40201122  1
  Cu+  Cu119  1  0.06846008  0.07525715  0.92194322  1
  Cu+  Cu120  1  0.74915917  0.26043333  0.40139023  1
  Cu+  Cu121  1  0.26453732  0.26432186  0.92519945  1
  Cu+  Cu122  1  0.74032481  0.06729770  0.59628635  1
  Cu+  Cu123  1  0.40980180  0.06769909  0.93041883  1
  Cu+  Cu124  1  0.73782602  0.92753797  0.06948467  1
  Cu+  Cu125  1  0.07304770  0.26103631  0.73763243  1
  Cu+  Cu126  1  0.59382019  0.73622263  0.41029650  1
  Cu+  Cu127  1  0.93275451  0.59765287  0.26023316  1
  Cu+  Cu128  1  0.59636804  0.59349143  0.93037357  1
  Cu+  Cu129  1  0.40138226  0.26152639  0.40743430  1
  Cu+  Cu130  1  0.60079253  0.92995069  0.25863118  1
  Cu+  Cu131  1  0.59648613  0.07693745  0.40675276  1
  Cu+  Cu132  1  0.26037823  0.73771625  0.74503938  1
  Te2-  Te133  1  0.25394918  0.25287996  0.07980037  1
  Te2-  Te134  1  0.24893684  0.25476336  0.41085454  1
  Te2-  Te135  1  0.25539835  0.25396922  0.75110488  1
  Te2-  Te136  1  0.25086733  0.58317814  0.07851957  1
  Te2-  Te137  1  0.25278888  0.58821273  0.41027912  1
  Te2-  Te138  1  0.25431739  0.58405855  0.74623818  1
  Te2-  Te139  1  0.25618224  0.91682781  0.08189033  1
  Te2-  Te140  1  0.25280513  0.92325610  0.41579453  1
  Te2-  Te141  1  0.24722100  0.92091739  0.74853324  1
  Te2-  Te142  1  0.58260804  0.24957908  0.08159341  1
  Te2-  Te143  1  0.59304913  0.25448073  0.41038234  1
  Te2-  Te144  1  0.58551046  0.25327582  0.74784137  1
  Te2-  Te145  1  0.58747387  0.58819392  0.08318780  1
  Te2-  Te146  1  0.59016889  0.58439000  0.41523866  1
  Te2-  Te147  1  0.58635063  0.58629106  0.74597574  1
  Te2-  Te148  1  0.58604307  0.91863279  0.07999301  1
  Te2-  Te149  1  0.59495650  0.92412042  0.41259761  1
  Te2-  Te150  1  0.58110410  0.91865312  0.74692446  1
  Te2-  Te151  1  0.91789131  0.25159600  0.08184826  1
  Te2-  Te152  1  0.91674140  0.25647353  0.41727804  1
  Te2-  Te153  1  0.91811457  0.25289242  0.74298461  1
  Te2-  Te154  1  0.91710042  0.58800131  0.07999644  1
  Te2-  Te155  1  0.92160615  0.58823362  0.41446994  1
  Te2-  Te156  1  0.91858777  0.58306590  0.74820283  1
  Te2-  Te157  1  0.92105608  0.92134184  0.07993946  1
  Te2-  Te158  1  0.92081113  0.91614097  0.41470466  1
  Te2-  Te159  1  0.91814141  0.91881174  0.74710609  1
  Te2-  Te160  1  0.25014195  0.07921831  0.24994100  1
  Te2-  Te161  1  0.25225336  0.08707170  0.58753919  1
  Te2-  Te162  1  0.25533876  0.07626410  0.92135073  1
  Te2-  Te163  1  0.25077957  0.41295986  0.25007076  1
  Te2-  Te164  1  0.25434472  0.41723292  0.58345945  1
  Te2-  Te165  1  0.25474528  0.41538075  0.91994557  1
  Te2-  Te166  1  0.25516816  0.74301255  0.25113767  1
  Te2-  Te167  1  0.26007885  0.74470129  0.59095103  1
  Te2-  Te168  1  0.24880556  0.74905384  0.92100725  1
  Te2-  Te169  1  0.58924675  0.08181795  0.25541271  1
  Te2-  Te170  1  0.58469993  0.07920689  0.58683667  1
  Te2-  Te171  1  0.58496122  0.08042234  0.91792858  1
  Te2-  Te172  1  0.58634154  0.41193031  0.25076160  1
  Te2-  Te173  1  0.58379382  0.41007921  0.58910443  1
  Te2-  Te174  1  0.58568703  0.41333330  0.91935390  1
  Te2-  Te175  1  0.58790392  0.74271845  0.25622786  1
  Te2-  Te176  1  0.58328134  0.74720610  0.58382601  1
  Te2-  Te177  1  0.58690743  0.74882777  0.92046341  1
  Te2-  Te178  1  0.92043511  0.07769590  0.25146507  1
  Te2-  Te179  1  0.92060916  0.07943838  0.58724924  1
  Te2-  Te180  1  0.91797636  0.08092542  0.91832552  1
  Te2-  Te181  1  0.91917055  0.41316393  0.25113333  1
  Te2-  Te182  1  0.91845943  0.41432151  0.58297604  1
  Te2-  Te183  1  0.91663542  0.41217709  0.92161797  1
  Te2-  Te184  1  0.92658699  0.75099565  0.25465396  1
  Te2-  Te185  1  0.91601818  0.74555988  0.58712685  1
  Te2-  Te186  1  0.91519001  0.74830054  0.92098752  1
  Te2-  Te187  1  0.08101902  0.25086374  0.24996104  1
  Te2-  Te188  1  0.07796391  0.25517580  0.58277890  1
  Te2-  Te189  1  0.07653964  0.25341758  0.92308179  1
  Te2-  Te190  1  0.08294530  0.58710088  0.25351847  1
  Te2-  Te191  1  0.07942944  0.58694969  0.58678816  1
  Te2-  Te192  1  0.08114756  0.58572941  0.91616821  1
  Te2-  Te193  1  0.08393112  0.91808270  0.25525861  1
  Te2-  Te194  1  0.08399753  0.91966965  0.58974315  1
  Te2-  Te195  1  0.07473317  0.91997151  0.92072957  1
  Te2-  Te196  1  0.41165876  0.25222684  0.25287695  1
  Te2-  Te197  1  0.41738277  0.25522950  0.58457878  1
  Te2-  Te198  1  0.41715602  0.25759167  0.92286645  1
  Te2-  Te199  1  0.41226670  0.58559883  0.25096184  1
  Te2-  Te200  1  0.41480665  0.58531119  0.58971425  1
  Te2-  Te201  1  0.41197768  0.58534730  0.91963075  1
  Te2-  Te202  1  0.41184644  0.91978970  0.25384356  1
  Te2-  Te203  1  0.41474220  0.92256179  0.58089595  1
  Te2-  Te204  1  0.41103968  0.91549455  0.92076858  1
  Te2-  Te205  1  0.74736432  0.25236701  0.25054824  1
  Te2-  Te206  1  0.74386818  0.25275780  0.59144270  1
  Te2-  Te207  1  0.74840546  0.25108757  0.91759612  1
  Te2-  Te208  1  0.74279396  0.58508643  0.25424608  1
  Te2-  Te209  1  0.74638899  0.58350975  0.58403970  1
  Te2-  Te210  1  0.74927067  0.58765369  0.92093622  1
  Te2-  Te211  1  0.75211038  0.92503358  0.25816799  1
  Te2-  Te212  1  0.74496645  0.91547671  0.58563349  1
  Te2-  Te213  1  0.74360277  0.92161540  0.91729473  1
  Te2-  Te214  1  0.07770236  0.08047744  0.07702949  1
  Te2-  Te215  1  0.08220910  0.07913338  0.41394323  1
  Te2-  Te216  1  0.08297150  0.08118659  0.74679050  1
  Te2-  Te217  1  0.07541756  0.41292566  0.08234782  1
  Te2-  Te218  1  0.08173379  0.41572036  0.41483931  1
  Te2-  Te219  1  0.08071436  0.41388889  0.74238133  1
  Te2-  Te220  1  0.08201880  0.74539758  0.08050042  1
  Te2-  Te221  1  0.08322395  0.75109450  0.41599153  1
  Te2-  Te222  1  0.07425250  0.74459322  0.75048017  1
  Te2-  Te223  1  0.41391349  0.07529026  0.08480270  1
  Te2-  Te224  1  0.40904103  0.08352658  0.41388876  1
  Te2-  Te225  1  0.41261106  0.08428879  0.74575159  1
  Te2-  Te226  1  0.41610143  0.41546054  0.07997458  1
  Te2-  Te227  1  0.41103884  0.41463893  0.41277100  1
  Te2-  Te228  1  0.41413955  0.41423107  0.74632944  1
  Te2-  Te229  1  0.41612616  0.74780946  0.08380480  1
  Te2-  Te230  1  0.41257753  0.74549002  0.40320327  1
  Te2-  Te231  1  0.41377938  0.74337527  0.74876587  1
  Te2-  Te232  1  0.74510989  0.08213777  0.07773592  1
  Te2-  Te233  1  0.74857793  0.07726859  0.41112463  1
  Te2-  Te234  1  0.74485151  0.07866776  0.74886142  1
  Te2-  Te235  1  0.74677105  0.41341755  0.08131574  1
  Te2-  Te236  1  0.74772152  0.41458594  0.40324785  1
  Te2-  Te237  1  0.74472284  0.41288905  0.75149168  1
  Te2-  Te238  1  0.74982974  0.74788386  0.08471887  1
  Te2-  Te239  1  0.74749354  0.74224059  0.41304682  1
  Te2-  Te240  1  0.74627403  0.74750002  0.74651392  1
