# generated using pymatgen
data_Ti27(Cu53Te54)2
_symmetry_space_group_name_H-M   'P 1'
_cell_length_a   17.88634655
_cell_length_b   17.88898397
_cell_length_c   17.88401222
_cell_angle_alpha   89.96812738
_cell_angle_beta   89.97115009
_cell_angle_gamma   89.93368237
_symmetry_Int_Tables_number   1
_chemical_formula_structural   Ti27(Cu53Te54)2
_chemical_formula_sum   'Ti27 Cu106 Te108'
_cell_volume   5722.31631361
_cell_formula_units_Z   1
loop_
 _symmetry_equiv_pos_site_id
 _symmetry_equiv_pos_as_xyz
  1  'x, y, z'
loop_
 _atom_type_symbol
 _atom_type_oxidation_number
  Ti4+  4.0
  Cu+  1.0
  Te2-  -2.0
loop_
 _atom_site_type_symbol
 _atom_site_label
 _atom_site_symmetry_multiplicity
 _atom_site_fract_x
 _atom_site_fract_y
 _atom_site_fract_z
 _atom_site_occupancy
  Ti4+  Ti0  1  0.16492518  0.16341931  0.16709950  1
  Ti4+  Ti1  1  0.16608223  0.16618443  0.50027045  1
  Ti4+  Ti2  1  0.16563834  0.16496367  0.83504169  1
  Ti4+  Ti3  1  0.16605833  0.49658860  0.16665645  1
  Ti4+  Ti4  1  0.16848674  0.50281013  0.49954457  1
  Ti4+  Ti5  1  0.17031880  0.49731826  0.82901354  1
  Ti4+  Ti6  1  0.16382084  0.82941146  0.16521579  1
  Ti4+  Ti7  1  0.16926512  0.83325748  0.49933929  1
  Ti4+  Ti8  1  0.16584415  0.83227882  0.83175952  1
  Ti4+  Ti9  1  0.49818008  0.16811448  0.16714537  1
  Ti4+  Ti10  1  0.50101763  0.16195771  0.50032504  1
  Ti4+  Ti11  1  0.49805325  0.16990210  0.83520686  1
  Ti4+  Ti12  1  0.49921411  0.50155463  0.16564288  1
  Ti4+  Ti13  1  0.50043750  0.49768115  0.50013215  1
  Ti4+  Ti14  1  0.50461620  0.49969813  0.83298072  1
  Ti4+  Ti15  1  0.49856073  0.83518054  0.16589826  1
  Ti4+  Ti16  1  0.50328200  0.83328279  0.49730737  1
  Ti4+  Ti17  1  0.49864866  0.83589816  0.83440581  1
  Ti4+  Ti18  1  0.83296629  0.16871139  0.16528723  1
  Ti4+  Ti19  1  0.83282343  0.16828112  0.50066563  1
  Ti4+  Ti20  1  0.83287075  0.16506668  0.83170584  1
  Ti4+  Ti21  1  0.83299706  0.50378430  0.17076821  1
  Ti4+  Ti22  1  0.83170030  0.50265519  0.50246303  1
  Ti4+  Ti23  1  0.83739794  0.49825251  0.82965865  1
  Ti4+  Ti24  1  0.83275937  0.83485363  0.16709785  1
  Ti4+  Ti25  1  0.83488436  0.83572467  0.50200980  1
  Ti4+  Ti26  1  0.83192847  0.83051813  0.83369814  1
  Cu+  Cu27  1  0.16638707  0.16683033  0.00072404  1
  Cu+  Cu28  1  0.16721021  0.16416293  0.33326859  1
  Cu+  Cu29  1  0.16521193  0.16661995  0.66704477  1
  Cu+  Cu30  1  0.16562858  0.49627227  -0.00207963  1
  Cu+  Cu31  1  0.16780738  0.50233380  0.33274272  1
  Cu+  Cu32  1  0.17282528  0.50407055  0.66308784  1
  Cu+  Cu33  1  0.16336880  0.82954006  -0.00345566  1
  Cu+  Cu34  1  0.16740460  0.83241221  0.33269386  1
  Cu+  Cu35  1  0.16735999  0.83329439  0.66652238  1
  Cu+  Cu36  1  0.49788321  0.16803710  0.00089927  1
  Cu+  Cu37  1  0.49486518  0.16518226  0.33892644  1
  Cu+  Cu38  1  0.50276782  0.16719485  0.66648758  1
  Cu+  Cu39  1  0.50237334  0.50032488  -0.00122719  1
  Cu+  Cu40  1  0.49867210  0.49764786  0.33254856  1
  Cu+  Cu41  1  0.50140558  0.50031690  0.66845808  1
  Cu+  Cu42  1  0.49667474  0.83607921  0.00149905  1
  Cu+  Cu43  1  0.50359181  0.83626618  0.32950319  1
  Cu+  Cu44  1  0.50284525  0.83547813  0.66776354  1
  Cu+  Cu45  1  0.83624721  0.16429384  -0.00328820  1
  Cu+  Cu46  1  0.83267115  0.17162060  0.33353910  1
  Cu+  Cu47  1  0.83045121  0.16304828  0.66699175  1
  Cu+  Cu48  1  0.83519940  0.49854632  0.00359604  1
  Cu+  Cu49  1  0.83078101  0.50718757  0.33690943  1
  Cu+  Cu50  1  0.83528548  0.50142753  0.66614393  1
  Cu+  Cu51  1  0.83510368  0.82966112  -0.00007749  1
  Cu+  Cu52  1  0.83201303  0.83796367  0.33580897  1
  Cu+  Cu53  1  0.82957918  0.82887179  0.66590035  1
  Cu+  Cu54  1  0.16487487  -0.00644651  0.16815313  1
  Cu+  Cu55  1  0.16805838  0.00091453  0.49797405  1
  Cu+  Cu56  1  0.16321075  -0.00296799  0.83303834  1
  Cu+  Cu57  1  0.16484669  0.32482958  0.16669736  1
  Cu+  Cu58  1  0.16394805  0.33661119  0.49819033  1
  Cu+  Cu59  1  0.16671844  0.33323233  0.83593914  1
  Cu+  Cu60  1  0.16512642  0.66099839  0.16586508  1
  Cu+  Cu61  1  0.17217335  0.66848497  0.50120609  1
  Cu+  Cu62  1  0.16872263  0.66654540  0.82960256  1
  Cu+  Cu63  1  0.50100181  0.00039453  0.16904956  1
  Cu+  Cu64  1  0.50580479  -0.00374627  0.50236773  1
  Cu+  Cu65  1  0.49483342  0.00454129  0.83397583  1
  Cu+  Cu66  1  0.49590887  0.33840984  0.16820972  1
  Cu+  Cu67  1  0.50130074  0.32780930  0.50001705  1
  Cu+  Cu68  1  0.50389242  0.33613287  0.84041794  1
  Cu+  Cu69  1  0.49666229  0.66921172  0.16366231  1
  Cu+  Cu70  1  0.50209072  0.66527153  0.49585515  1
  Cu+  Cu71  1  0.50280029  0.66974564  0.83164218  1
  Cu+  Cu72  1  0.83255823  0.00402119  0.16162801  1
  Cu+  Cu73  1  0.83364575  0.00302972  0.49818966  1
  Cu+  Cu74  1  0.82923737  -0.00450750  0.83201830  1
  Cu+  Cu75  1  0.83541456  0.33739490  0.17335743  1
  Cu+  Cu76  1  0.82920877  0.33651892  0.50197374  1
  Cu+  Cu77  1  0.84071628  0.33094077  0.82851069  1
  Cu+  Cu78  1  0.83397304  0.67128863  0.16664882  1
  Cu+  Cu79  1  0.83284861  0.67190388  0.50816809  1
  Cu+  Cu80  1  0.83217165  0.66314647  0.83008373  1
  Cu+  Cu81  1  -0.00261562  0.16423707  0.16333938  1
  Cu+  Cu82  1  0.00062827  0.16774714  0.49989783  1
  Cu+  Cu83  1  -0.00318248  0.16495905  0.83401005  1
  Cu+  Cu84  1  -0.00342749  0.49580252  0.16516876  1
  Cu+  Cu85  1  0.00035335  0.50710791  0.50075237  1
  Cu+  Cu86  1  0.00404547  0.49234456  0.82402811  1
  Cu+  Cu87  1  -0.00218262  0.82773409  0.16320973  1
  Cu+  Cu88  1  0.00388099  0.83459934  0.49767755  1
  Cu+  Cu89  1  -0.00050741  0.83019885  0.83085869  1
  Cu+  Cu90  1  0.33079013  0.16466359  0.16994065  1
  Cu+  Cu91  1  0.33403884  0.16084066  0.49715737  1
  Cu+  Cu92  1  0.33160150  0.16547825  0.83943355  1
  Cu+  Cu93  1  0.33155884  0.49923336  0.16928178  1
  Cu+  Cu94  1  0.33218216  0.50249669  0.50161685  1
  Cu+  Cu95  1  0.34060163  0.49850164  0.83183873  1
  Cu+  Cu96  1  0.33021992  0.83441537  0.16753752  1
  Cu+  Cu97  1  0.33825266  0.83122465  0.49507786  1
  Cu+  Cu98  1  0.33128160  0.83493744  0.83222186  1
  Cu+  Cu99  1  0.66626371  0.16896160  0.16475153  1
  Cu+  Cu100  1  0.66532906  0.16669975  0.50260117  1
  Cu+  Cu101  1  0.66563514  0.16966467  0.83427812  1
  Cu+  Cu102  1  0.66653963  0.50616574  0.16794736  1
  Cu+  Cu103  1  0.66617743  0.49488910  0.50234425  1
  Cu+  Cu104  1  0.67025881  0.50140768  0.83049277  1
  Cu+  Cu105  1  0.66495842  0.83829408  0.16848489  1
  Cu+  Cu106  1  0.66802173  0.83705346  0.50372146  1
  Cu+  Cu107  1  0.66426874  0.83316598  0.83517654  1
  Cu+  Cu108  1  0.59705300  0.92457211  0.60027574  1
  Cu+  Cu109  1  0.25904470  0.26036299  0.92596640  1
  Cu+  Cu110  1  0.07439873  0.41229975  0.92325683  1
  Cu+  Cu111  1  0.74107334  0.40606722  0.59677870  1
  Cu+  Cu112  1  0.25662597  0.25444713  0.26122554  1
  Cu+  Cu113  1  0.25982463  0.59369417  0.25839692  1
  Cu+  Cu114  1  0.07336045  0.25417682  0.07484662  1
  Cu+  Cu115  1  0.25810903  0.92338866  0.26107368  1
  Cu+  Cu116  1  0.92343608  0.26458532  0.26688612  1
  Cu+  Cu117  1  0.73969780  0.59240824  0.73981333  1
  Cu+  Cu118  1  0.59741641  0.25842322  0.93130678  1
  Cu+  Cu119  1  0.92402092  0.25670833  0.92175372  1
  Cu+  Cu120  1  0.91877767  0.40844937  0.07788514  1
  Cu+  Cu121  1  0.26649269  0.59905645  0.59491344  1
  Cu+  Cu122  1  0.73471923  0.74275620  0.59192603  1
  Cu+  Cu123  1  0.59705193  0.93206496  0.25799590  1
  Cu+  Cu124  1  0.59136753  0.25829119  0.59346909  1
  Cu+  Cu125  1  0.40588601  0.41223133  0.26245714  1
  Cu+  Cu126  1  0.41013669  0.41375663  0.92793726  1
  Cu+  Cu127  1  0.93263044  0.40071313  0.73183695  1
  Cu+  Cu128  1  0.93151139  0.60022726  0.59219215  1
  Cu+  Cu129  1  0.40496854  0.07188007  0.93089035  1
  Cu+  Cu130  1  0.92727560  0.06941862  0.06910232  1
  Cu+  Cu131  1  0.40499407  0.25840331  0.41805856  1
  Cu+  Cu132  1  0.92581128  0.73739824  0.07008630  1
  Te2-  Te133  1  0.25535872  0.25079360  0.08040101  1
  Te2-  Te134  1  0.25255058  0.25481816  0.41345236  1
  Te2-  Te135  1  0.25140281  0.24992383  0.74990938  1
  Te2-  Te136  1  0.25034638  0.58081042  0.07896185  1
  Te2-  Te137  1  0.25594975  0.58820791  0.41201727  1
  Te2-  Te138  1  0.25899068  0.58581605  0.74887123  1
  Te2-  Te139  1  0.24789218  0.91513404  0.07814562  1
  Te2-  Te140  1  0.25526988  0.91946552  0.41364762  1
  Te2-  Te141  1  0.25092405  0.92004069  0.74709304  1
  Te2-  Te142  1  0.58305677  0.25608375  0.08326036  1
  Te2-  Te143  1  0.58697539  0.24931216  0.41273843  1
  Te2-  Te144  1  0.58581564  0.25578678  0.74870935  1
  Te2-  Te145  1  0.58409801  0.58759171  0.08066622  1
  Te2-  Te146  1  0.58627883  0.58039816  0.41445185  1
  Te2-  Te147  1  0.58672951  0.58824315  0.74568800  1
  Te2-  Te148  1  0.58412217  0.92119496  0.07971832  1
  Te2-  Te149  1  0.59085079  0.92033575  0.41165145  1
  Te2-  Te150  1  0.58624849  0.92391042  0.75173096  1
  Te2-  Te151  1  0.92016291  0.25782784  0.07608418  1
  Te2-  Te152  1  0.91902035  0.25685867  0.41854687  1
  Te2-  Te153  1  0.92224073  0.24748863  0.74073402  1
  Te2-  Te154  1  0.92015848  0.58701952  0.08073759  1
  Te2-  Te155  1  0.91527436  0.59164203  0.41807162  1
  Te2-  Te156  1  0.92532867  0.58727151  0.74600544  1
  Te2-  Te157  1  0.92020386  0.91869960  0.07882568  1
  Te2-  Te158  1  0.91990432  0.92060657  0.41598374  1
  Te2-  Te159  1  0.91543294  0.91501120  0.74687425  1
  Te2-  Te160  1  0.25135298  0.07636685  0.25349506  1
  Te2-  Te161  1  0.25137947  0.08154464  0.58562526  1
  Te2-  Te162  1  0.24868486  0.07548552  0.92196790  1
  Te2-  Te163  1  0.25061070  0.40808745  0.25505195  1
  Te2-  Te164  1  0.25269697  0.41292370  0.58317811  1
  Te2-  Te165  1  0.25716934  0.41365107  0.92114056  1
  Te2-  Te166  1  0.25161263  0.74436143  0.25157725  1
  Te2-  Te167  1  0.25835069  0.75063933  0.58694804  1
  Te2-  Te168  1  0.25226277  0.74660108  0.91708173  1
  Te2-  Te169  1  0.58522312  0.08606157  0.25411648  1
  Te2-  Te170  1  0.58912440  0.07831779  0.58973836  1
  Te2-  Te171  1  0.58458174  0.08292864  0.91919174  1
  Te2-  Te172  1  0.58718328  0.41657226  0.25034192  1
  Te2-  Te173  1  0.58488437  0.41106540  0.58990725  1
  Te2-  Te174  1  0.59493428  0.41638662  0.92155892  1
  Te2-  Te175  1  0.58471831  0.74689439  0.24882110  1
  Te2-  Te176  1  0.58426432  0.74465157  0.58658003  1
  Te2-  Te177  1  0.58260438  0.75024579  0.92131907  1
  Te2-  Te178  1  0.91630910  0.08204910  0.25254915  1
  Te2-  Te179  1  0.91853343  0.08251106  0.58462352  1
  Te2-  Te180  1  0.91896209  0.07379995  0.91548327  1
  Te2-  Te181  1  0.91967405  0.41913743  0.26157017  1
  Te2-  Te182  1  0.92270308  0.41375859  0.58309246  1
  Te2-  Te183  1  0.92297571  0.41209733  0.92175553  1
  Te2-  Te184  1  0.91655643  0.75071196  0.25617392  1
  Te2-  Te185  1  0.92591790  0.75217758  0.58851266  1
  Te2-  Te186  1  0.91943628  0.74258526  0.91580644  1
  Te2-  Te187  1  0.07636008  0.24904236  0.25512106  1
  Te2-  Te188  1  0.08198884  0.25308609  0.58459197  1
  Te2-  Te189  1  0.07568682  0.25437408  0.92125459  1
  Te2-  Te190  1  0.07777269  0.58109195  0.24965196  1
  Te2-  Te191  1  0.08390264  0.59048366  0.58734422  1
  Te2-  Te192  1  0.08214713  0.58172055  0.91226895  1
  Te2-  Te193  1  0.07653098  0.91334351  0.25109941  1
  Te2-  Te194  1  0.08408799  0.91916279  0.58392778  1
  Te2-  Te195  1  0.07797453  0.91612196  0.91772715  1
  Te2-  Te196  1  0.41108345  0.25437685  0.25639276  1
  Te2-  Te197  1  0.41219922  0.24820642  0.58513933  1
  Te2-  Te198  1  0.41128342  0.25763341  0.92452941  1
  Te2-  Te199  1  0.41420065  0.58847811  0.25366852  1
  Te2-  Te200  1  0.41845508  0.58719189  0.58596749  1
  Te2-  Te201  1  0.41854068  0.58744484  0.91656391  1
  Te2-  Te202  1  0.41168946  0.92113350  0.25376815  1
  Te2-  Te203  1  0.41562476  0.91637112  0.58349494  1
  Te2-  Te204  1  0.41051637  0.92016545  0.92037048  1
  Te2-  Te205  1  0.74571752  0.25436573  0.25077487  1
  Te2-  Te206  1  0.74557598  0.25315297  0.59091229  1
  Te2-  Te207  1  0.75015350  0.25510332  0.91900893  1
  Te2-  Te208  1  0.74814955  0.59125104  0.25298608  1
  Te2-  Te209  1  0.74057861  0.58820747  0.58851622  1
  Te2-  Te210  1  0.75245065  0.58096158  0.91975501  1
  Te2-  Te211  1  0.74969047  0.92500446  0.25250002  1
  Te2-  Te212  1  0.75021578  0.92496675  0.58894183  1
  Te2-  Te213  1  0.74781089  0.91523682  0.92070916  1
  Te2-  Te214  1  0.08152876  0.07517805  0.07935808  1
  Te2-  Te215  1  0.08069555  0.08153773  0.41462604  1
  Te2-  Te216  1  0.08020566  0.08171246  0.74920190  1
  Te2-  Te217  1  0.07815069  0.40881223  0.07887891  1
  Te2-  Te218  1  0.07961424  0.41998457  0.41475301  1
  Te2-  Te219  1  0.08864302  0.40969154  0.73824312  1
  Te2-  Te220  1  0.08073068  0.74149768  0.07784231  1
  Te2-  Te221  1  0.08410155  0.74667436  0.41493162  1
  Te2-  Te222  1  0.08168994  0.74608356  0.74511669  1
  Te2-  Te223  1  0.41273140  0.08030463  0.08420185  1
  Te2-  Te224  1  0.41608930  0.07234988  0.41629965  1
  Te2-  Te225  1  0.41244920  0.08672869  0.74692174  1
  Te2-  Te226  1  0.41136767  0.41566703  0.07945777  1
  Te2-  Te227  1  0.41082747  0.41235029  0.41600802  1
  Te2-  Te228  1  0.41969572  0.41170669  0.74738596  1
  Te2-  Te229  1  0.41073869  0.75081005  0.08093358  1
  Te2-  Te230  1  0.41979241  0.74766582  0.40995661  1
  Te2-  Te231  1  0.41570476  0.75037424  0.74765752  1
  Te2-  Te232  1  0.74550897  0.08497256  0.07812636  1
  Te2-  Te233  1  0.74774620  0.08471601  0.41426885  1
  Te2-  Te234  1  0.74456765  0.08067766  0.74984993  1
  Te2-  Te235  1  0.74774832  0.41620770  0.08593258  1
  Te2-  Te236  1  0.74845001  0.41710348  0.41338450  1
  Te2-  Te237  1  0.74814523  0.41012167  0.74750982  1
  Te2-  Te238  1  0.74458567  0.75079219  0.08318190  1
  Te2-  Te239  1  0.74838287  0.75011543  0.41745503  1
  Te2-  Te240  1  0.74139545  0.74539736  0.74742050  1
