# generated using pymatgen
data_Ti27(Cu53Te54)2
_symmetry_space_group_name_H-M   'P 1'
_cell_length_a   17.87129931
_cell_length_b   17.87117110
_cell_length_c   17.87100506
_cell_angle_alpha   90.03080709
_cell_angle_beta   90.03905184
_cell_angle_gamma   89.97282177
_symmetry_Int_Tables_number   1
_chemical_formula_structural   Ti27(Cu53Te54)2
_chemical_formula_sum   'Ti27 Cu106 Te108'
_cell_volume   5707.65752815
_cell_formula_units_Z   1
loop_
 _symmetry_equiv_pos_site_id
 _symmetry_equiv_pos_as_xyz
  1  'x, y, z'
loop_
 _atom_type_symbol
 _atom_type_oxidation_number
  Ti4+  4.0
  Cu+  1.0
  Te2-  -2.0
loop_
 _atom_site_type_symbol
 _atom_site_label
 _atom_site_symmetry_multiplicity
 _atom_site_fract_x
 _atom_site_fract_y
 _atom_site_fract_z
 _atom_site_occupancy
  Ti4+  Ti0  1  0.16629527  0.16449564  0.16337286  1
  Ti4+  Ti1  1  0.16718977  0.16589844  0.49819437  1
  Ti4+  Ti2  1  0.16710555  0.16694091  0.83272391  1
  Ti4+  Ti3  1  0.16542789  0.50060566  0.16467349  1
  Ti4+  Ti4  1  0.16763577  0.49845447  0.49995844  1
  Ti4+  Ti5  1  0.16891261  0.49897733  0.83023115  1
  Ti4+  Ti6  1  0.16728505  0.83719809  0.17024130  1
  Ti4+  Ti7  1  0.16360270  0.83067980  0.50037714  1
  Ti4+  Ti8  1  0.16614799  0.83497101  0.83349208  1
  Ti4+  Ti9  1  0.50207847  0.16358582  0.16581498  1
  Ti4+  Ti10  1  0.49922349  0.16663374  0.49988125  1
  Ti4+  Ti11  1  0.49805191  0.16802993  0.83587807  1
  Ti4+  Ti12  1  0.49977257  0.50038893  0.16905264  1
  Ti4+  Ti13  1  0.50086316  0.50181665  0.49896154  1
  Ti4+  Ti14  1  0.50290800  0.49927174  0.82934684  1
  Ti4+  Ti15  1  0.50209246  0.83487058  0.17013872  1
  Ti4+  Ti16  1  0.49791901  0.83393430  0.50114727  1
  Ti4+  Ti17  1  0.50029372  0.83269861  0.83589943  1
  Ti4+  Ti18  1  0.83331712  0.16620020  0.16766162  1
  Ti4+  Ti19  1  0.83397663  0.16792763  0.50035329  1
  Ti4+  Ti20  1  0.83351570  0.16951818  0.83344462  1
  Ti4+  Ti21  1  0.82987854  0.49886341  0.16606379  1
  Ti4+  Ti22  1  0.83308522  0.49826940  0.50040565  1
  Ti4+  Ti23  1  0.83427944  0.50117150  0.83497200  1
  Ti4+  Ti24  1  0.83678386  0.83143955  0.16745520  1
  Ti4+  Ti25  1  0.83311888  0.83443316  0.49968467  1
  Ti4+  Ti26  1  0.83265200  0.83319122  0.83105143  1
  Cu+  Cu27  1  0.17108613  0.16068002  -0.00384198  1
  Cu+  Cu28  1  0.16337222  0.16971667  0.33321424  1
  Cu+  Cu29  1  0.16471367  0.16274036  0.66227117  1
  Cu+  Cu30  1  0.16281710  0.50032490  0.00037220  1
  Cu+  Cu31  1  0.16667577  0.49917719  0.33192636  1
  Cu+  Cu32  1  0.17632567  0.49938801  0.66370157  1
  Cu+  Cu33  1  0.16772059  0.84018750  0.00167635  1
  Cu+  Cu34  1  0.16238261  0.82909541  0.33422711  1
  Cu+  Cu35  1  0.16535810  0.83347051  0.66792554  1
  Cu+  Cu36  1  0.50094275  0.16775343  0.00405685  1
  Cu+  Cu37  1  0.49915088  0.16430449  0.33354436  1
  Cu+  Cu38  1  0.49866264  0.16804306  0.66697803  1
  Cu+  Cu39  1  0.50059926  0.50071602  -0.00071660  1
  Cu+  Cu40  1  0.50318004  0.50501894  0.33360584  1
  Cu+  Cu41  1  0.50300499  0.50106729  0.66343608  1
  Cu+  Cu42  1  0.50220081  0.83465081  0.00373127  1
  Cu+  Cu43  1  0.49652256  0.83145384  0.33503850  1
  Cu+  Cu44  1  0.49927488  0.83403430  0.67012074  1
  Cu+  Cu45  1  0.83482121  0.16881303  0.00233171  1
  Cu+  Cu46  1  0.83330473  0.16620579  0.33581330  1
  Cu+  Cu47  1  0.83424785  0.17007781  0.66776663  1
  Cu+  Cu48  1  0.82832628  0.49722098  -0.00000262  1
  Cu+  Cu49  1  0.82835004  0.49683261  0.33176006  1
  Cu+  Cu50  1  0.83806752  0.50178837  0.66750463  1
  Cu+  Cu51  1  0.83161067  0.83028449  -0.00390972  1
  Cu+  Cu52  1  0.84064678  0.83055021  0.33662730  1
  Cu+  Cu53  1  0.83245650  0.83633859  0.66365573  1
  Cu+  Cu54  1  0.16348584  0.00122630  0.15998655  1
  Cu+  Cu55  1  0.16406728  -0.00251761  0.50256770  1
  Cu+  Cu56  1  0.16356531  0.00197660  0.83415663  1
  Cu+  Cu57  1  0.16793208  0.33577850  0.16451441  1
  Cu+  Cu58  1  0.16573220  0.33027403  0.49464117  1
  Cu+  Cu59  1  0.17037978  0.33659982  0.83080176  1
  Cu+  Cu60  1  0.16715102  0.66682863  0.16881543  1
  Cu+  Cu61  1  0.16823999  0.66234359  0.50340889  1
  Cu+  Cu62  1  0.16871659  0.66924858  0.83335097  1
  Cu+  Cu63  1  0.50349762  0.00252274  0.16807507  1
  Cu+  Cu64  1  0.50067501  -0.00020693  0.50165471  1
  Cu+  Cu65  1  0.49519855  -0.00161161  0.83444583  1
  Cu+  Cu66  1  0.50002846  0.33010868  0.16419466  1
  Cu+  Cu67  1  0.49841704  0.33445032  0.49813062  1
  Cu+  Cu68  1  0.49736884  0.33613472  0.83667314  1
  Cu+  Cu69  1  0.50237290  0.66645057  0.17324863  1
  Cu+  Cu70  1  0.49920735  0.66830781  0.49873514  1
  Cu+  Cu71  1  0.50698326  0.66693208  0.82836086  1
  Cu+  Cu72  1  0.83785605  -0.00317419  0.16842956  1
  Cu+  Cu73  1  0.83296237  0.00254694  0.50049475  1
  Cu+  Cu74  1  0.83239751  0.00039030  0.83101743  1
  Cu+  Cu75  1  0.82822550  0.33286861  0.16907738  1
  Cu+  Cu76  1  0.83398324  0.33192589  0.50143014  1
  Cu+  Cu77  1  0.83467205  0.33502708  0.83429114  1
  Cu+  Cu78  1  0.83342800  0.66362606  0.16335000  1
  Cu+  Cu79  1  0.83338125  0.66524543  0.49923635  1
  Cu+  Cu80  1  0.82989428  0.66902266  0.83563093  1
  Cu+  Cu81  1  -0.00043752  0.16608132  0.16793938  1
  Cu+  Cu82  1  0.00168095  0.16727990  0.49886117  1
  Cu+  Cu83  1  0.00094262  0.16816262  0.83528272  1
  Cu+  Cu84  1  -0.00360551  0.50019376  0.16409595  1
  Cu+  Cu85  1  0.00169794  0.49880516  0.50103414  1
  Cu+  Cu86  1  -0.00036083  0.49641713  0.83025883  1
  Cu+  Cu87  1  -0.00037180  0.83866915  0.17337487  1
  Cu+  Cu88  1  -0.00310542  0.82921716  0.49549948  1
  Cu+  Cu89  1  -0.00209374  0.83450400  0.82977141  1
  Cu+  Cu90  1  0.33524654  0.16008416  0.16275916  1
  Cu+  Cu91  1  0.33263667  0.16662837  0.49916662  1
  Cu+  Cu92  1  0.33028308  0.17253600  0.83617551  1
  Cu+  Cu93  1  0.32860784  0.50250012  0.16332729  1
  Cu+  Cu94  1  0.33430042  0.50345215  0.50169925  1
  Cu+  Cu95  1  0.33693573  0.49503962  0.82616426  1
  Cu+  Cu96  1  0.33764051  0.83280478  0.17222816  1
  Cu+  Cu97  1  0.33045965  0.83422597  0.50112242  1
  Cu+  Cu98  1  0.33281093  0.83756438  0.83390702  1
  Cu+  Cu99  1  0.66694322  0.16222060  0.16439351  1
  Cu+  Cu100  1  0.66551924  0.16771250  0.50075237  1
  Cu+  Cu101  1  0.66539422  0.16900214  0.83439824  1
  Cu+  Cu102  1  0.66465546  0.49838428  0.17347803  1
  Cu+  Cu103  1  0.66738020  0.50078383  0.49898946  1
  Cu+  Cu104  1  0.66959919  0.50041070  0.83444930  1
  Cu+  Cu105  1  0.67028133  0.83429389  0.16790434  1
  Cu+  Cu106  1  0.66721341  0.83557174  0.49978256  1
  Cu+  Cu107  1  0.66611096  0.82615271  0.83349287  1
  Cu+  Cu108  1  0.40795622  0.41659612  0.92748893  1
  Cu+  Cu109  1  0.06864996  0.07321146  0.92199340  1
  Cu+  Cu110  1  0.40469843  0.92697375  0.74020604  1
  Cu+  Cu111  1  0.07104295  0.06919160  0.59135752  1
  Cu+  Cu112  1  0.26579639  0.40234747  0.73236853  1
  Cu+  Cu113  1  0.73877330  0.40311407  0.92409265  1
  Cu+  Cu114  1  0.73654606  0.40132586  0.26415840  1
  Cu+  Cu115  1  0.40829871  0.07484842  0.26377635  1
  Cu+  Cu116  1  0.92256355  0.92857574  0.26674447  1
  Cu+  Cu117  1  0.26476365  0.59692551  0.59376443  1
  Cu+  Cu118  1  0.07372794  0.73624624  0.25481326  1
  Cu+  Cu119  1  0.73724289  0.74066633  0.93015972  1
  Cu+  Cu120  1  0.07100868  0.41222051  0.92790995  1
  Cu+  Cu121  1  0.25105693  0.26405826  0.92702249  1
  Cu+  Cu122  1  0.59701709  0.59768267  0.26307833  1
  Cu+  Cu123  1  0.92360983  0.40598303  0.73739837  1
  Cu+  Cu124  1  0.40807818  0.73588778  0.26273684  1
  Cu+  Cu125  1  0.92371471  0.73168657  0.40986851  1
  Cu+  Cu126  1  0.07399714  0.07939525  0.26122802  1
  Cu+  Cu127  1  0.26351594  0.06887321  0.06934199  1
  Cu+  Cu128  1  0.59939506  0.07175729  0.07032271  1
  Cu+  Cu129  1  0.59550307  0.74106715  0.73456942  1
  Cu+  Cu130  1  0.40581207  0.25986451  0.08166138  1
  Cu+  Cu131  1  0.06988174  0.26220104  0.40551706  1
  Cu+  Cu132  1  0.06842539  0.92027838  0.07276111  1
  Te2-  Te133  1  0.25317803  0.25497159  0.07950325  1
  Te2-  Te134  1  0.25427085  0.25052867  0.41119931  1
  Te2-  Te135  1  0.25187151  0.25022103  0.74109694  1
  Te2-  Te136  1  0.24868328  0.58828725  0.07827435  1
  Te2-  Te137  1  0.25145308  0.58445377  0.41282123  1
  Te2-  Te138  1  0.25681617  0.58920998  0.74881145  1
  Te2-  Te139  1  0.25926119  0.91817679  0.08330003  1
  Te2-  Te140  1  0.24760752  0.91676172  0.41508263  1
  Te2-  Te141  1  0.24959074  0.92263360  0.74648387  1
  Te2-  Te142  1  0.58998796  0.25256093  0.08120841  1
  Te2-  Te143  1  0.58362092  0.25152610  0.41343880  1
  Te2-  Te144  1  0.58165502  0.25302456  0.75101479  1
  Te2-  Te145  1  0.58466867  0.58495460  0.08316375  1
  Te2-  Te146  1  0.58929335  0.59024114  0.41574820  1
  Te2-  Te147  1  0.59172080  0.58349212  0.74364062  1
  Te2-  Te148  1  0.58953260  0.91912490  0.08279668  1
  Te2-  Te149  1  0.58308752  0.91755605  0.41474489  1
  Te2-  Te150  1  0.58737125  0.91916260  0.75154161  1
  Te2-  Te151  1  0.91819590  0.25369011  0.08503180  1
  Te2-  Te152  1  0.91904418  0.25445080  0.41238562  1
  Te2-  Te153  1  0.92233367  0.25386511  0.74802337  1
  Te2-  Te154  1  0.91587300  0.58283189  0.07800231  1
  Te2-  Te155  1  0.91926132  0.58038723  0.41170643  1
  Te2-  Te156  1  0.91943481  0.58908743  0.75124589  1
  Te2-  Te157  1  0.91744301  0.91724427  0.07568720  1
  Te2-  Te158  1  0.92190853  0.92493387  0.41687547  1
  Te2-  Te159  1  0.91756309  0.92018660  0.74569093  1
  Te2-  Te160  1  0.25072538  0.08025184  0.25294257  1
  Te2-  Te161  1  0.25340919  0.07939327  0.58370891  1
  Te2-  Te162  1  0.25778320  0.07558624  0.91544838  1
  Te2-  Te163  1  0.25213147  0.41535468  0.25025145  1
  Te2-  Te164  1  0.25601974  0.40722081  0.58035150  1
  Te2-  Te165  1  0.25633833  0.41633347  0.92336840  1
  Te2-  Te166  1  0.25339860  0.74737046  0.25470674  1
  Te2-  Te167  1  0.25197564  0.74894573  0.58790407  1
  Te2-  Te168  1  0.25145733  0.75195166  0.92047539  1
  Te2-  Te169  1  0.58907664  0.08068825  0.25563400  1
  Te2-  Te170  1  0.58462702  0.08250416  0.58663994  1
  Te2-  Te171  1  0.58488178  0.08010886  0.91827382  1
  Te2-  Te172  1  0.58157032  0.40840646  0.25509108  1
  Te2-  Te173  1  0.58626340  0.41432362  0.58261758  1
  Te2-  Te174  1  0.58746675  0.41412294  0.92011268  1
  Te2-  Te175  1  0.59081169  0.75096828  0.25661898  1
  Te2-  Te176  1  0.58619734  0.74839173  0.58444088  1
  Te2-  Te177  1  0.58436355  0.74420831  0.92539767  1
  Te2-  Te178  1  0.92046326  0.08066935  0.25667665  1
  Te2-  Te179  1  0.91931456  0.08188022  0.58726371  1
  Te2-  Te180  1  0.91657159  0.08079142  0.91962785  1
  Te2-  Te181  1  0.91751218  0.41452362  0.25084458  1
  Te2-  Te182  1  0.92128476  0.41228407  0.58509026  1
  Te2-  Te183  1  0.91988724  0.41325839  0.92344390  1
  Te2-  Te184  1  0.92180852  0.73964808  0.25282433  1
  Te2-  Te185  1  0.91760587  0.74744575  0.58618795  1
  Te2-  Te186  1  0.92086118  0.74824508  0.91639835  1
  Te2-  Te187  1  0.08109734  0.25566149  0.24805660  1
  Te2-  Te188  1  0.08221566  0.25340624  0.58520598  1
  Te2-  Te189  1  0.08340067  0.25575100  0.92110792  1
  Te2-  Te190  1  0.07815926  0.58319069  0.25239138  1
  Te2-  Te191  1  0.08167788  0.58206396  0.58832232  1
  Te2-  Te192  1  0.08173197  0.58504353  0.91392499  1
  Te2-  Te193  1  0.08113466  0.92624195  0.25881216  1
  Te2-  Te194  1  0.07586477  0.91480157  0.58626310  1
  Te2-  Te195  1  0.07527535  0.92054084  0.91900316  1
  Te2-  Te196  1  0.41236488  0.24967059  0.25048861  1
  Te2-  Te197  1  0.41354172  0.25252005  0.58422494  1
  Te2-  Te198  1  0.41128590  0.25678190  0.92491350  1
  Te2-  Te199  1  0.40934568  0.58398521  0.25357942  1
  Te2-  Te200  1  0.41664962  0.58922023  0.58775353  1
  Te2-  Te201  1  0.41658065  0.58575161  0.91267799  1
  Te2-  Te202  1  0.41538755  0.92287006  0.25503370  1
  Te2-  Te203  1  0.41227800  0.92021255  0.58699712  1
  Te2-  Te204  1  0.41452511  0.91743276  0.92406738  1
  Te2-  Te205  1  0.74413985  0.24768509  0.25403974  1
  Te2-  Te206  1  0.74748275  0.25236310  0.58572786  1
  Te2-  Te207  1  0.74690494  0.25258494  0.92161132  1
  Te2-  Te208  1  0.74807207  0.59002366  0.25423033  1
  Te2-  Te209  1  0.74992338  0.58448728  0.58585733  1
  Te2-  Te210  1  0.74538122  0.58742908  0.92163659  1
  Te2-  Te211  1  0.75244700  0.91586511  0.25543853  1
  Te2-  Te212  1  0.74730334  0.92149721  0.58415013  1
  Te2-  Te213  1  0.74604645  0.91856622  0.91595211  1
  Te2-  Te214  1  0.07428653  0.08150144  0.07457876  1
  Te2-  Te215  1  0.07970075  0.07728819  0.41310471  1
  Te2-  Te216  1  0.07847061  0.08102006  0.74660168  1
  Te2-  Te217  1  0.07762150  0.41204245  0.08104548  1
  Te2-  Te218  1  0.07956184  0.41510950  0.41154170  1
  Te2-  Te219  1  0.08310999  0.41334819  0.74138644  1
  Te2-  Te220  1  0.08162804  0.75240122  0.08396112  1
  Te2-  Te221  1  0.07941617  0.73874438  0.41411166  1
  Te2-  Te222  1  0.08136021  0.74817880  0.74886440  1
  Te2-  Te223  1  0.41607782  0.07419411  0.07563379  1
  Te2-  Te224  1  0.41186211  0.07782947  0.41577920  1
  Te2-  Te225  1  0.41135765  0.08440990  0.74894062  1
  Te2-  Te226  1  0.41141344  0.41489482  0.08105828  1
  Te2-  Te227  1  0.41470601  0.41872271  0.41319714  1
  Te2-  Te228  1  0.41899839  0.41082628  0.73953787  1
  Te2-  Te229  1  0.41804191  0.74772802  0.08466604  1
  Te2-  Te230  1  0.40984586  0.74685870  0.41621787  1
  Te2-  Te231  1  0.41278179  0.74708408  0.75052768  1
  Te2-  Te232  1  0.75258448  0.07673642  0.08050132  1
  Te2-  Te233  1  0.74707755  0.08251841  0.41606491  1
  Te2-  Te234  1  0.74785813  0.08507137  0.74871045  1
  Te2-  Te235  1  0.74149610  0.41223699  0.08091456  1
  Te2-  Te236  1  0.74560959  0.41065588  0.41629872  1
  Te2-  Te237  1  0.74940242  0.41587662  0.74671030  1
  Te2-  Te238  1  0.74736020  0.74693631  0.08273497  1
  Te2-  Te239  1  0.74761876  0.74863989  0.41379798  1
  Te2-  Te240  1  0.74900440  0.74562059  0.74102273  1
