# generated using pymatgen
data_Ti27(Cu53Te54)2
_symmetry_space_group_name_H-M   'P 1'
_cell_length_a   17.92265079
_cell_length_b   17.92751053
_cell_length_c   17.92061075
_cell_angle_alpha   89.98412546
_cell_angle_beta   89.95414498
_cell_angle_gamma   90.00908583
_symmetry_Int_Tables_number   1
_chemical_formula_structural   Ti27(Cu53Te54)2
_chemical_formula_sum   'Ti27 Cu106 Te108'
_cell_volume   5758.04261342
_cell_formula_units_Z   1
loop_
 _symmetry_equiv_pos_site_id
 _symmetry_equiv_pos_as_xyz
  1  'x, y, z'
loop_
 _atom_type_symbol
 _atom_type_oxidation_number
  Ti4+  4.0
  Cu+  1.0
  Te2-  -2.0
loop_
 _atom_site_type_symbol
 _atom_site_label
 _atom_site_symmetry_multiplicity
 _atom_site_fract_x
 _atom_site_fract_y
 _atom_site_fract_z
 _atom_site_occupancy
  Ti4+  Ti0  1  0.16839511  0.16395900  0.16737825  1
  Ti4+  Ti1  1  0.16568926  0.16349090  0.49976371  1
  Ti4+  Ti2  1  0.16699483  0.16891664  0.83387482  1
  Ti4+  Ti3  1  0.16663474  0.49977946  0.16356581  1
  Ti4+  Ti4  1  0.16952524  0.49786214  0.49737234  1
  Ti4+  Ti5  1  0.16961344  0.49898677  0.83549386  1
  Ti4+  Ti6  1  0.16511647  0.83508647  0.16632398  1
  Ti4+  Ti7  1  0.16445305  0.83068059  0.50541559  1
  Ti4+  Ti8  1  0.16291515  0.83329572  0.83724466  1
  Ti4+  Ti9  1  0.50311580  0.16765286  0.16907946  1
  Ti4+  Ti10  1  0.49833602  0.16564740  0.50026319  1
  Ti4+  Ti11  1  0.50316775  0.16912422  0.83171062  1
  Ti4+  Ti12  1  0.49827331  0.50229371  0.16618489  1
  Ti4+  Ti13  1  0.49816663  0.49997992  0.50066635  1
  Ti4+  Ti14  1  0.50168652  0.50475916  0.83441256  1
  Ti4+  Ti15  1  0.50143151  0.83780478  0.16506264  1
  Ti4+  Ti16  1  0.49828348  0.83145389  0.50017201  1
  Ti4+  Ti17  1  0.49723854  0.83729436  0.83265680  1
  Ti4+  Ti18  1  0.83573416  0.16569072  0.16649102  1
  Ti4+  Ti19  1  0.83292910  0.16597403  0.49902106  1
  Ti4+  Ti20  1  0.83176898  0.16439517  0.83038698  1
  Ti4+  Ti21  1  0.83747074  0.49843878  0.16720951  1
  Ti4+  Ti22  1  0.83352785  0.49888645  0.50001684  1
  Ti4+  Ti23  1  0.83169031  0.49950031  0.83330454  1
  Ti4+  Ti24  1  0.83072919  0.83148846  0.16669228  1
  Ti4+  Ti25  1  0.83161852  0.82954799  0.49953087  1
  Ti4+  Ti26  1  0.83208746  0.83490572  0.83199736  1
  Cu+  Cu27  1  0.16610376  0.16934942  0.00267908  1
  Cu+  Cu28  1  0.16422507  0.15903842  0.33358140  1
  Cu+  Cu29  1  0.16844521  0.16939054  0.66595454  1
  Cu+  Cu30  1  0.16991614  0.49870550  0.00329964  1
  Cu+  Cu31  1  0.16920348  0.49977124  0.32624919  1
  Cu+  Cu32  1  0.17097538  0.49933540  0.66580274  1
  Cu+  Cu33  1  0.16700714  0.83822401  0.00022479  1
  Cu+  Cu34  1  0.16405330  0.83121075  0.33807271  1
  Cu+  Cu35  1  0.16109348  0.82972815  0.67493687  1
  Cu+  Cu36  1  0.50515781  0.17066676  0.00333447  1
  Cu+  Cu37  1  0.49820920  0.16457135  0.33547387  1
  Cu+  Cu38  1  0.50167137  0.16461230  0.66653243  1
  Cu+  Cu39  1  0.49664714  0.50292664  -0.00159275  1
  Cu+  Cu40  1  0.49522246  0.50259824  0.33408584  1
  Cu+  Cu41  1  0.50280109  0.50068262  0.66804230  1
  Cu+  Cu42  1  0.49980765  0.84261016  -0.00220876  1
  Cu+  Cu43  1  0.50091512  0.83281045  0.33250099  1
  Cu+  Cu44  1  0.49868422  0.82975318  0.66563224  1
  Cu+  Cu45  1  0.83788707  0.16705996  -0.00591453  1
  Cu+  Cu46  1  0.83249402  0.16407901  0.33197208  1
  Cu+  Cu47  1  0.82929825  0.16706738  0.66463562  1
  Cu+  Cu48  1  0.83158588  0.50088329  0.00162480  1
  Cu+  Cu49  1  0.83931634  0.49549327  0.33564081  1
  Cu+  Cu50  1  0.83365656  0.50107542  0.66452050  1
  Cu+  Cu51  1  0.83028432  0.83375854  0.00033591  1
  Cu+  Cu52  1  0.83244794  0.82854679  0.33467977  1
  Cu+  Cu53  1  0.83375123  0.83437388  0.66252393  1
  Cu+  Cu54  1  0.16455085  -0.00000132  0.17033048  1
  Cu+  Cu55  1  0.16431660  -0.00294779  0.50329664  1
  Cu+  Cu56  1  0.16399021  0.00289175  0.83894107  1
  Cu+  Cu57  1  0.16420127  0.32882577  0.16109823  1
  Cu+  Cu58  1  0.17032830  0.32802106  0.49903699  1
  Cu+  Cu59  1  0.16814206  0.33561464  0.83446855  1
  Cu+  Cu60  1  0.16526948  0.67022949  0.16383946  1
  Cu+  Cu61  1  0.16770281  0.66317479  0.50363499  1
  Cu+  Cu62  1  0.16866839  0.66665158  0.83551822  1
  Cu+  Cu63  1  0.49998564  0.00419913  0.17008407  1
  Cu+  Cu64  1  0.49775487  -0.00406506  0.50028449  1
  Cu+  Cu65  1  0.50359301  0.00326209  0.83263566  1
  Cu+  Cu66  1  0.50194144  0.33371058  0.16745600  1
  Cu+  Cu67  1  0.49711564  0.33265744  0.50095565  1
  Cu+  Cu68  1  0.50458646  0.33801037  0.83358654  1
  Cu+  Cu69  1  0.49961578  0.67227662  0.16409927  1
  Cu+  Cu70  1  0.49561950  0.66521116  0.49803668  1
  Cu+  Cu71  1  0.50086667  0.67283001  0.83009911  1
  Cu+  Cu72  1  0.82954078  0.00013093  0.16821085  1
  Cu+  Cu73  1  0.83405928  -0.00250939  0.49951225  1
  Cu+  Cu74  1  0.83264966  0.00016361  0.83112006  1
  Cu+  Cu75  1  0.83940416  0.33346507  0.16616962  1
  Cu+  Cu76  1  0.83541792  0.33459917  0.49801821  1
  Cu+  Cu77  1  0.82929380  0.33092681  0.83179891  1
  Cu+  Cu78  1  0.83205373  0.66268549  0.16394860  1
  Cu+  Cu79  1  0.83143447  0.66397398  0.49942293  1
  Cu+  Cu80  1  0.83205344  0.66788086  0.83368762  1
  Cu+  Cu81  1  0.00379289  0.16347780  0.16527736  1
  Cu+  Cu82  1  0.00032893  0.16520190  0.49870089  1
  Cu+  Cu83  1  -0.00292662  0.16796195  0.83601846  1
  Cu+  Cu84  1  0.00658369  0.49920275  0.16691256  1
  Cu+  Cu85  1  -0.00069573  0.49408463  0.49556241  1
  Cu+  Cu86  1  0.00017271  0.49837143  0.83326436  1
  Cu+  Cu87  1  -0.00403704  0.83275329  0.16809629  1
  Cu+  Cu88  1  -0.00385750  0.83154501  0.50471106  1
  Cu+  Cu89  1  -0.00013878  0.83614048  0.83204919  1
  Cu+  Cu90  1  0.33940368  0.16381839  0.17180678  1
  Cu+  Cu91  1  0.33026231  0.16590363  0.50271705  1
  Cu+  Cu92  1  0.33605692  0.17018419  0.83396075  1
  Cu+  Cu93  1  0.32900268  0.50129200  0.16536817  1
  Cu+  Cu94  1  0.33504573  0.50491599  0.49840931  1
  Cu+  Cu95  1  0.33903660  0.50116202  0.84048775  1
  Cu+  Cu96  1  0.33375518  0.83556357  0.16529285  1
  Cu+  Cu97  1  0.33175071  0.83000395  0.50359332  1
  Cu+  Cu98  1  0.32626959  0.83649456  0.83714538  1
  Cu+  Cu99  1  0.67080227  0.16590825  0.17055564  1
  Cu+  Cu100  1  0.66541223  0.16684829  0.49915857  1
  Cu+  Cu101  1  0.66753322  0.16490642  0.82336310  1
  Cu+  Cu102  1  0.66781075  0.50153478  0.16677947  1
  Cu+  Cu103  1  0.66692423  0.49920863  0.50047488  1
  Cu+  Cu104  1  0.66500578  0.50054333  0.83132596  1
  Cu+  Cu105  1  0.66823687  0.83733657  0.16115795  1
  Cu+  Cu106  1  0.66593453  0.82970651  0.49887687  1
  Cu+  Cu107  1  0.66336749  0.83538575  0.83186922  1
  Cu+  Cu108  1  0.07736659  0.59825329  0.07161502  1
  Cu+  Cu109  1  0.25593048  0.93184264  0.92953519  1
  Cu+  Cu110  1  0.59306850  0.07333039  0.73465113  1
  Cu+  Cu111  1  0.07351778  0.06842841  0.26256681  1
  Cu+  Cu112  1  0.92309426  0.26314659  0.91893608  1
  Cu+  Cu113  1  0.08204541  0.40328842  0.25779296  1
  Cu+  Cu114  1  0.26118514  0.40119610  0.07931140  1
  Cu+  Cu115  1  0.40811371  0.07271721  0.26489015  1
  Cu+  Cu116  1  0.07657003  0.93216488  0.74638872  1
  Cu+  Cu117  1  0.40894319  0.59620625  0.40430302  1
  Cu+  Cu118  1  0.74679664  0.93094382  0.07130601  1
  Cu+  Cu119  1  0.25699281  0.74109454  0.74702525  1
  Cu+  Cu120  1  0.25651509  0.59975426  0.25066427  1
  Cu+  Cu121  1  0.74332418  0.26122409  0.73472445  1
  Cu+  Cu122  1  0.59296239  0.93036619  0.92358936  1
  Cu+  Cu123  1  0.07290493  0.25528531  0.07425170  1
  Cu+  Cu124  1  0.41441465  0.40530636  0.92521372  1
  Cu+  Cu125  1  0.73677277  0.58930219  0.07395793  1
  Cu+  Cu126  1  0.59166834  0.41115638  0.73812848  1
  Cu+  Cu127  1  0.26047757  0.25728829  0.59452850  1
  Cu+  Cu128  1  0.26008016  0.59089458  0.59446243  1
  Cu+  Cu129  1  0.92638548  0.40271531  0.40776925  1
  Cu+  Cu130  1  0.92320395  0.92838896  0.58873343  1
  Cu+  Cu131  1  0.74094227  0.07085499  0.26182004  1
  Cu+  Cu132  1  0.59406062  0.74379026  0.73817149  1
  Te2-  Te133  1  0.25953820  0.24770344  0.08224289  1
  Te2-  Te134  1  0.25100180  0.24623447  0.41042224  1
  Te2-  Te135  1  0.25381025  0.25467214  0.74957421  1
  Te2-  Te136  1  0.25366837  0.59079008  0.07862232  1
  Te2-  Te137  1  0.25219795  0.58829080  0.40880280  1
  Te2-  Te138  1  0.25774837  0.58475490  0.75021089  1
  Te2-  Te139  1  0.25219583  0.92309423  0.08345214  1
  Te2-  Te140  1  0.24944064  0.91491379  0.41981562  1
  Te2-  Te141  1  0.24708993  0.92210148  0.74870232  1
  Te2-  Te142  1  0.59049186  0.25320004  0.08571062  1
  Te2-  Te143  1  0.58240934  0.25139360  0.41576897  1
  Te2-  Te144  1  0.58695425  0.25749768  0.74197147  1
  Te2-  Te145  1  0.58328521  0.58721010  0.08042498  1
  Te2-  Te146  1  0.58485507  0.58440968  0.41528511  1
  Te2-  Te147  1  0.58811281  0.59057616  0.74573692  1
  Te2-  Te148  1  0.58758253  0.92803182  0.07941591  1
  Te2-  Te149  1  0.58444608  0.91634382  0.41597583  1
  Te2-  Te150  1  0.58460347  0.91992146  0.74224996  1
  Te2-  Te151  1  0.92173492  0.25284502  0.07825804  1
  Te2-  Te152  1  0.91963992  0.24939315  0.41211742  1
  Te2-  Te153  1  0.91831384  0.25166853  0.74531361  1
  Te2-  Te154  1  0.92353940  0.58439223  0.08019106  1
  Te2-  Te155  1  0.92013602  0.58582979  0.41540333  1
  Te2-  Te156  1  0.91701180  0.58402846  0.74992526  1
  Te2-  Te157  1  0.91615211  0.91903035  0.08245069  1
  Te2-  Te158  1  0.91854429  0.91486697  0.41352756  1
  Te2-  Te159  1  0.91894092  0.92179917  0.74497924  1
  Te2-  Te160  1  0.25445624  0.07762846  0.25436697  1
  Te2-  Te161  1  0.25011254  0.07804541  0.58707102  1
  Te2-  Te162  1  0.25320757  0.08600728  0.92076745  1
  Te2-  Te163  1  0.25239828  0.40809218  0.24866492  1
  Te2-  Te164  1  0.25586551  0.41259585  0.58321102  1
  Te2-  Te165  1  0.25632724  0.41150556  0.92251730  1
  Te2-  Te166  1  0.25181999  0.75173486  0.25229386  1
  Te2-  Te167  1  0.25223160  0.74507472  0.59207388  1
  Te2-  Te168  1  0.25061549  0.74731230  0.92379517  1
  Te2-  Te169  1  0.58862298  0.08037754  0.25656730  1
  Te2-  Te170  1  0.58601042  0.07826826  0.58277835  1
  Te2-  Te171  1  0.58936195  0.08549361  0.92002303  1
  Te2-  Te172  1  0.58293797  0.41962305  0.25236057  1
  Te2-  Te173  1  0.58568723  0.41274128  0.58425144  1
  Te2-  Te174  1  0.58730173  0.41863532  0.92226264  1
  Te2-  Te175  1  0.58672454  0.75165880  0.24808816  1
  Te2-  Te176  1  0.58464811  0.74325886  0.58402326  1
  Te2-  Te177  1  0.58266853  0.75227110  0.91975901  1
  Te2-  Te178  1  0.92091833  0.07856680  0.25196459  1
  Te2-  Te179  1  0.91884981  0.08234630  0.58655588  1
  Te2-  Te180  1  0.91865206  0.07710508  0.91592453  1
  Te2-  Te181  1  0.92618396  0.41020843  0.25289914  1
  Te2-  Te182  1  0.91953482  0.41347712  0.58704342  1
  Te2-  Te183  1  0.91681672  0.41427376  0.91884972  1
  Te2-  Te184  1  0.91584472  0.74510916  0.25036744  1
  Te2-  Te185  1  0.91598456  0.74238813  0.58628870  1
  Te2-  Te186  1  0.91667343  0.75148196  0.91735358  1
  Te2-  Te187  1  0.08095857  0.24980353  0.25458089  1
  Te2-  Te188  1  0.08006972  0.25137529  0.58381048  1
  Te2-  Te189  1  0.08006884  0.25637513  0.91981115  1
  Te2-  Te190  1  0.08189413  0.58926116  0.25245498  1
  Te2-  Te191  1  0.08050248  0.57803568  0.58267906  1
  Te2-  Te192  1  0.08224116  0.58423578  0.91927234  1
  Te2-  Te193  1  0.07815478  0.91571816  0.25519091  1
  Te2-  Te194  1  0.07802900  0.91910061  0.59112672  1
  Te2-  Te195  1  0.07612964  0.92126667  0.92227988  1
  Te2-  Te196  1  0.41740644  0.25436969  0.25404072  1
  Te2-  Te197  1  0.41403631  0.25116476  0.58833008  1
  Te2-  Te198  1  0.41853036  0.25329811  0.92013187  1
  Te2-  Te199  1  0.41139653  0.59121813  0.24975807  1
  Te2-  Te200  1  0.41451406  0.58670505  0.59124371  1
  Te2-  Te201  1  0.41720844  0.59427196  0.91862075  1
  Te2-  Te202  1  0.41404700  0.91937506  0.25364268  1
  Te2-  Te203  1  0.41327350  0.91609177  0.58667115  1
  Te2-  Te204  1  0.41094747  0.92560177  0.91739254  1
  Te2-  Te205  1  0.75301536  0.25428332  0.25107376  1
  Te2-  Te206  1  0.74656143  0.25482703  0.58137280  1
  Te2-  Te207  1  0.74382537  0.24809700  0.91720221  1
  Te2-  Te208  1  0.75296412  0.58084482  0.25514377  1
  Te2-  Te209  1  0.74686898  0.58427081  0.58514780  1
  Te2-  Te210  1  0.74592644  0.58610788  0.91806980  1
  Te2-  Te211  1  0.74589473  0.91668842  0.25662873  1
  Te2-  Te212  1  0.74488435  0.91719877  0.58325793  1
  Te2-  Te213  1  0.74569377  0.92256638  0.91805630  1
  Te2-  Te214  1  0.08341256  0.07851295  0.07929037  1
  Te2-  Te215  1  0.07765133  0.07474185  0.41621954  1
  Te2-  Te216  1  0.08037983  0.08576261  0.74851071  1
  Te2-  Te217  1  0.07810951  0.41156982  0.07532326  1
  Te2-  Te218  1  0.08452008  0.40879500  0.41108831  1
  Te2-  Te219  1  0.08508440  0.41698697  0.74881135  1
  Te2-  Te220  1  0.07856537  0.75221082  0.07868374  1
  Te2-  Te221  1  0.08010906  0.74580660  0.42085195  1
  Te2-  Te222  1  0.07702679  0.74213760  0.75331301  1
  Te2-  Te223  1  0.41872152  0.08355996  0.07994117  1
  Te2-  Te224  1  0.41111256  0.07842091  0.41752742  1
  Te2-  Te225  1  0.41488715  0.08323146  0.74974631  1
  Te2-  Te226  1  0.41398115  0.41251716  0.08097602  1
  Te2-  Te227  1  0.41287306  0.41382875  0.41527447  1
  Te2-  Te228  1  0.41506457  0.41729130  0.74916605  1
  Te2-  Te229  1  0.41620413  0.75429118  0.07849813  1
  Te2-  Te230  1  0.41090681  0.74877315  0.41186812  1
  Te2-  Te231  1  0.40906993  0.75093651  0.74901020  1
  Te2-  Te232  1  0.74920439  0.08471344  0.07665668  1
  Te2-  Te233  1  0.74699300  0.07865947  0.41564903  1
  Te2-  Te234  1  0.74774115  0.07449126  0.74147662  1
  Te2-  Te235  1  0.75003216  0.41293476  0.08384024  1
  Te2-  Te236  1  0.74668434  0.41413586  0.41364474  1
  Te2-  Te237  1  0.74611749  0.41455113  0.74330113  1
  Te2-  Te238  1  0.74558199  0.74427641  0.07899380  1
  Te2-  Te239  1  0.74610072  0.74407229  0.41409637  1
  Te2-  Te240  1  0.74777342  0.74944728  0.74613373  1
