# generated using pymatgen
data_Ti27(Cu53Te54)2
_symmetry_space_group_name_H-M   'P 1'
_cell_length_a   17.93496605
_cell_length_b   17.92920228
_cell_length_c   17.92023679
_cell_angle_alpha   90.01432836
_cell_angle_beta   90.01668587
_cell_angle_gamma   89.99054880
_symmetry_Int_Tables_number   1
_chemical_formula_structural   Ti27(Cu53Te54)2
_chemical_formula_sum   'Ti27 Cu106 Te108'
_cell_volume   5762.42428364
_cell_formula_units_Z   1
loop_
 _symmetry_equiv_pos_site_id
 _symmetry_equiv_pos_as_xyz
  1  'x, y, z'
loop_
 _atom_type_symbol
 _atom_type_oxidation_number
  Ti4+  4.0
  Cu+  1.0
  Te2-  -2.0
loop_
 _atom_site_type_symbol
 _atom_site_label
 _atom_site_symmetry_multiplicity
 _atom_site_fract_x
 _atom_site_fract_y
 _atom_site_fract_z
 _atom_site_occupancy
  Ti4+  Ti0  1  0.16503681  0.16586355  0.16768578  1
  Ti4+  Ti1  1  0.16832761  0.16825051  0.50025277  1
  Ti4+  Ti2  1  0.16002736  0.16881764  0.83660617  1
  Ti4+  Ti3  1  0.16598134  0.49784689  0.16616502  1
  Ti4+  Ti4  1  0.16586953  0.50053892  0.50152144  1
  Ti4+  Ti5  1  0.16438749  0.49761752  0.83538444  1
  Ti4+  Ti6  1  0.16922311  0.83348694  0.16266040  1
  Ti4+  Ti7  1  0.16913506  0.83528954  0.49715841  1
  Ti4+  Ti8  1  0.16776907  0.83683746  0.83137486  1
  Ti4+  Ti9  1  0.49895351  0.16764650  0.16501772  1
  Ti4+  Ti10  1  0.50410244  0.16799172  0.50191173  1
  Ti4+  Ti11  1  0.49807595  0.16319139  0.83544931  1
  Ti4+  Ti12  1  0.49835131  0.50001824  0.16529254  1
  Ti4+  Ti13  1  0.49991896  0.50086211  0.49909945  1
  Ti4+  Ti14  1  0.49977212  0.50012271  0.83011987  1
  Ti4+  Ti15  1  0.50161100  0.83505307  0.16535139  1
  Ti4+  Ti16  1  0.50236583  0.83545410  0.49845199  1
  Ti4+  Ti17  1  0.50086190  0.83537653  0.83162060  1
  Ti4+  Ti18  1  0.83160860  0.16496216  0.16929944  1
  Ti4+  Ti19  1  0.83347759  0.16251167  0.49998990  1
  Ti4+  Ti20  1  0.83091369  0.16595966  0.83582287  1
  Ti4+  Ti21  1  0.83275064  0.49855184  0.16713811  1
  Ti4+  Ti22  1  0.83485239  0.49797372  0.50095985  1
  Ti4+  Ti23  1  0.83242868  0.50335170  0.83408922  1
  Ti4+  Ti24  1  0.83327320  0.82947292  0.16562553  1
  Ti4+  Ti25  1  0.83757386  0.83205438  0.49968037  1
  Ti4+  Ti26  1  0.83709439  0.83227171  0.83606281  1
  Cu+  Cu27  1  0.15998831  0.16846790  0.00272868  1
  Cu+  Cu28  1  0.17087890  0.16946130  0.33320120  1
  Cu+  Cu29  1  0.16645332  0.16931421  0.66895715  1
  Cu+  Cu30  1  0.16286314  0.49527595  0.00072332  1
  Cu+  Cu31  1  0.16639318  0.49958074  0.33485512  1
  Cu+  Cu32  1  0.16128213  0.49551464  0.66782234  1
  Cu+  Cu33  1  0.16859120  0.83308768  -0.00303807  1
  Cu+  Cu34  1  0.16943413  0.83409845  0.32932070  1
  Cu+  Cu35  1  0.16897466  0.83777396  0.66269469  1
  Cu+  Cu36  1  0.50478146  0.16856630  -0.00075160  1
  Cu+  Cu37  1  0.50044255  0.16941907  0.33666964  1
  Cu+  Cu38  1  0.49839984  0.15779053  0.66793315  1
  Cu+  Cu39  1  0.49864698  0.49775823  -0.00233873  1
  Cu+  Cu40  1  0.49806282  0.50084364  0.33219554  1
  Cu+  Cu41  1  0.49951022  0.50186530  0.66400933  1
  Cu+  Cu42  1  0.50188280  0.84000330  -0.00181091  1
  Cu+  Cu43  1  0.50248900  0.83602597  0.33218820  1
  Cu+  Cu44  1  0.50091069  0.83474768  0.66454241  1
  Cu+  Cu45  1  0.82839951  0.16793470  0.00318165  1
  Cu+  Cu46  1  0.83288215  0.16314370  0.33688346  1
  Cu+  Cu47  1  0.83273554  0.16454030  0.66698083  1
  Cu+  Cu48  1  0.83059298  0.50716192  0.00317816  1
  Cu+  Cu49  1  0.83475705  0.49716145  0.33400529  1
  Cu+  Cu50  1  0.83772443  0.50424942  0.66473481  1
  Cu+  Cu51  1  0.83149725  0.82731460  -0.00030502  1
  Cu+  Cu52  1  0.83615487  0.82924407  0.33218598  1
  Cu+  Cu53  1  0.83845708  0.83268451  0.66838599  1
  Cu+  Cu54  1  0.16875533  -0.00040519  0.16349781  1
  Cu+  Cu55  1  0.17094862  -0.00019446  0.49881419  1
  Cu+  Cu56  1  0.16203750  0.00427910  0.83256792  1
  Cu+  Cu57  1  0.16511694  0.33060907  0.16804464  1
  Cu+  Cu58  1  0.16472147  0.33523602  0.50275845  1
  Cu+  Cu59  1  0.16010108  0.33387073  0.84246813  1
  Cu+  Cu60  1  0.16954689  0.66504074  0.16458836  1
  Cu+  Cu61  1  0.16812848  0.66931085  0.49932170  1
  Cu+  Cu62  1  0.16759543  0.66859438  0.83160344  1
  Cu+  Cu63  1  0.49850456  0.00023188  0.16013300  1
  Cu+  Cu64  1  0.50576285  0.00142697  0.50170336  1
  Cu+  Cu65  1  0.50562791  -0.00105603  0.83188335  1
  Cu+  Cu66  1  0.49790827  0.33588802  0.16777137  1
  Cu+  Cu67  1  0.50011125  0.33520758  0.49981718  1
  Cu+  Cu68  1  0.49388414  0.33612678  0.83607119  1
  Cu+  Cu69  1  0.49896321  0.66755397  0.16602994  1
  Cu+  Cu70  1  0.50130584  0.66788079  0.49814417  1
  Cu+  Cu71  1  0.49859860  0.66701949  0.82897680  1
  Cu+  Cu72  1  0.83397139  -0.00529366  0.16901698  1
  Cu+  Cu73  1  0.83852576  -0.00273608  0.49860345  1
  Cu+  Cu74  1  0.83606983  -0.00181961  0.83308716  1
  Cu+  Cu75  1  0.82938114  0.33287238  0.16830616  1
  Cu+  Cu76  1  0.83240367  0.33084858  0.50013273  1
  Cu+  Cu77  1  0.83116967  0.33461554  0.83203270  1
  Cu+  Cu78  1  0.83094534  0.66404360  0.16497687  1
  Cu+  Cu79  1  0.83799291  0.66543874  0.50157942  1
  Cu+  Cu80  1  0.83488465  0.66695029  0.84006329  1
  Cu+  Cu81  1  -0.00178781  0.16696733  0.16917497  1
  Cu+  Cu82  1  -0.00119705  0.16178174  0.49871494  1
  Cu+  Cu83  1  -0.00452688  0.16421353  0.83724472  1
  Cu+  Cu84  1  -0.00046599  0.49736430  0.17050914  1
  Cu+  Cu85  1  0.00049048  0.49818111  0.50636505  1
  Cu+  Cu86  1  -0.00353734  0.50180000  0.83736008  1
  Cu+  Cu87  1  0.00024931  0.83085758  0.16365753  1
  Cu+  Cu88  1  0.00511887  0.83404292  0.49783913  1
  Cu+  Cu89  1  0.00512067  0.83000298  0.83476394  1
  Cu+  Cu90  1  0.32895549  0.16534157  0.16875312  1
  Cu+  Cu91  1  0.33937615  0.17151586  0.50244461  1
  Cu+  Cu92  1  0.32560908  0.16772721  0.83203714  1
  Cu+  Cu93  1  0.33165716  0.49853078  0.16472997  1
  Cu+  Cu94  1  0.33207374  0.50069534  0.50132504  1
  Cu+  Cu95  1  0.33406884  0.49700637  0.83222713  1
  Cu+  Cu96  1  0.33624918  0.83712569  0.16406266  1
  Cu+  Cu97  1  0.33446926  0.83586451  0.49676285  1
  Cu+  Cu98  1  0.33297757  0.83810762  0.82905408  1
  Cu+  Cu99  1  0.66674591  0.16693643  0.16400751  1
  Cu+  Cu100  1  0.66920837  0.16607396  0.49390978  1
  Cu+  Cu101  1  0.66493141  0.16421202  0.83415025  1
  Cu+  Cu102  1  0.66411014  0.50031765  0.16688590  1
  Cu+  Cu103  1  0.66572619  0.49969989  0.49858630  1
  Cu+  Cu104  1  0.66521114  0.50088301  0.82752042  1
  Cu+  Cu105  1  0.66746056  0.83026941  0.16878383  1
  Cu+  Cu106  1  0.67125867  0.83318495  0.50015494  1
  Cu+  Cu107  1  0.66831863  0.83478442  0.83490508  1
  Cu+  Cu108  1  0.06543048  0.41005476  0.92909323  1
  Cu+  Cu109  1  0.59669442  0.07315694  0.73994917  1
  Cu+  Cu110  1  0.25005390  0.07553352  0.74007309  1
  Cu+  Cu111  1  0.40544712  0.92299540  0.06862029  1
  Cu+  Cu112  1  0.74513924  0.26211068  0.40818332  1
  Cu+  Cu113  1  0.93198482  0.06794857  0.40727683  1
  Cu+  Cu114  1  0.59582875  0.07346180  0.07716578  1
  Cu+  Cu115  1  0.40570773  0.41290310  0.92769820  1
  Cu+  Cu116  1  0.07101094  0.40301452  0.59497040  1
  Cu+  Cu117  1  0.06905475  0.25945534  0.08191031  1
  Cu+  Cu118  1  0.59952082  0.92183595  0.92703241  1
  Cu+  Cu119  1  0.08324990  0.74008758  0.92673891  1
  Cu+  Cu120  1  0.92706857  0.59224013  0.93316359  1
  Cu+  Cu121  1  0.92986550  0.59677190  0.59093957  1
  Cu+  Cu122  1  0.06669460  0.07302140  0.92861814  1
  Cu+  Cu123  1  0.25567499  0.25729956  0.92705715  1
  Cu+  Cu124  1  0.59353562  0.26470312  0.91228546  1
  Cu+  Cu125  1  0.40743264  0.07046147  0.58498231  1
  Cu+  Cu126  1  0.73960357  0.26105684  0.07495057  1
  Cu+  Cu127  1  0.59118997  0.07201674  0.40450833  1
  Cu+  Cu128  1  0.73335299  0.59289067  0.08117110  1
  Cu+  Cu129  1  0.73583165  0.74069771  0.92216724  1
  Cu+  Cu130  1  0.25612505  0.07574737  0.07475304  1
  Cu+  Cu131  1  0.25741015  0.26221801  0.26086583  1
  Cu+  Cu132  1  0.41035133  0.26434178  0.41012252  1
  Te2-  Te133  1  0.25366557  0.25382424  0.08028728  1
  Te2-  Te134  1  0.25463223  0.25709644  0.41687970  1
  Te2-  Te135  1  0.24551156  0.25820385  0.75152473  1
  Te2-  Te136  1  0.24993651  0.58118154  0.07869581  1
  Te2-  Te137  1  0.25118618  0.58497204  0.41553374  1
  Te2-  Te138  1  0.24883592  0.58071026  0.74912596  1
  Te2-  Te139  1  0.25465953  0.92121708  0.07387294  1
  Te2-  Te140  1  0.25413824  0.92037326  0.41072690  1
  Te2-  Te141  1  0.25189012  0.92397493  0.74517712  1
  Te2-  Te142  1  0.58524105  0.25854852  0.08073196  1
  Te2-  Te143  1  0.58826009  0.25699027  0.41309022  1
  Te2-  Te144  1  0.58028088  0.25081554  0.74976946  1
  Te2-  Te145  1  0.58203124  0.58635033  0.07778206  1
  Te2-  Te146  1  0.58496477  0.58504408  0.41306785  1
  Te2-  Te147  1  0.58424398  0.58676680  0.74501494  1
  Te2-  Te148  1  0.59455014  0.92064044  0.08048679  1
  Te2-  Te149  1  0.59058732  0.91948264  0.41297818  1
  Te2-  Te150  1  0.58972993  0.91827200  0.74343274  1
  Te2-  Te151  1  0.91604123  0.25268968  0.08302713  1
  Te2-  Te152  1  0.91928674  0.25055200  0.41508670  1
  Te2-  Te153  1  0.91602184  0.24968247  0.75062149  1
  Te2-  Te154  1  0.92360267  0.58587167  0.08495996  1
  Te2-  Te155  1  0.92105368  0.58151238  0.41502543  1
  Te2-  Te156  1  0.92011001  0.58938808  0.74902884  1
  Te2-  Te157  1  0.91687349  0.91519410  0.07980363  1
  Te2-  Te158  1  0.92319515  0.91604254  0.41047085  1
  Te2-  Te159  1  0.92287466  0.91654775  0.75095741  1
  Te2-  Te160  1  0.25090801  0.07808833  0.25378174  1
  Te2-  Te161  1  0.25463376  0.08217786  0.58620245  1
  Te2-  Te162  1  0.24984590  0.08119251  0.92190153  1
  Te2-  Te163  1  0.25206427  0.41386122  0.25324365  1
  Te2-  Te164  1  0.25198628  0.41482260  0.58722041  1
  Te2-  Te165  1  0.25406157  0.41273885  0.92296923  1
  Te2-  Te166  1  0.25509613  0.74967112  0.24702892  1
  Te2-  Te167  1  0.25434276  0.75072285  0.58369378  1
  Te2-  Te168  1  0.25526173  0.75041557  0.91451213  1
  Te2-  Te169  1  0.58352410  0.08185143  0.25086900  1
  Te2-  Te170  1  0.59371157  0.08121764  0.58737421  1
  Te2-  Te171  1  0.58889562  0.07676200  0.92324141  1
  Te2-  Te172  1  0.58365962  0.41574632  0.25189841  1
  Te2-  Te173  1  0.58527232  0.41558396  0.58492342  1
  Te2-  Te174  1  0.58923896  0.41567443  0.91741256  1
  Te2-  Te175  1  0.58375325  0.74757559  0.25147807  1
  Te2-  Te176  1  0.58627927  0.74986292  0.58344251  1
  Te2-  Te177  1  0.58265626  0.74623976  0.91883019  1
  Te2-  Te178  1  0.91914134  0.07851910  0.25290832  1
  Te2-  Te179  1  0.91931858  0.07900973  0.58788244  1
  Te2-  Te180  1  0.91389493  0.07976507  0.92430605  1
  Te2-  Te181  1  0.91712100  0.41177868  0.25238974  1
  Te2-  Te182  1  0.91750406  0.40808950  0.58881864  1
  Te2-  Te183  1  0.91320086  0.41422417  0.92280431  1
  Te2-  Te184  1  0.91943323  0.74414947  0.24878179  1
  Te2-  Te185  1  0.92515368  0.74896268  0.58651143  1
  Te2-  Te186  1  0.92591578  0.74590768  0.92404898  1
  Te2-  Te187  1  0.07907040  0.25161729  0.25541520  1
  Te2-  Te188  1  0.07883251  0.24915738  0.58550191  1
  Te2-  Te189  1  0.06846799  0.25547043  0.92476251  1
  Te2-  Te190  1  0.08357598  0.58444585  0.25094089  1
  Te2-  Te191  1  0.08258657  0.59007903  0.58837960  1
  Te2-  Te192  1  0.08107726  0.58795679  0.92214316  1
  Te2-  Te193  1  0.08313005  0.91723506  0.24681138  1
  Te2-  Te194  1  0.08317434  0.92158879  0.58264464  1
  Te2-  Te195  1  0.08060129  0.92106326  0.92015621  1
  Te2-  Te196  1  0.41273762  0.25366000  0.25303309  1
  Te2-  Te197  1  0.42013732  0.25372305  0.59095748  1
  Te2-  Te198  1  0.40999383  0.25077973  0.92161793  1
  Te2-  Te199  1  0.41275130  0.58511362  0.24923105  1
  Te2-  Te200  1  0.41486657  0.58721753  0.58314432  1
  Te2-  Te201  1  0.41444064  0.58598364  0.91599228  1
  Te2-  Te202  1  0.41734310  0.92150001  0.25125306  1
  Te2-  Te203  1  0.41481448  0.92003879  0.58482320  1
  Te2-  Te204  1  0.41256141  0.92346110  0.91504332  1
  Te2-  Te205  1  0.74532315  0.25044430  0.25499977  1
  Te2-  Te206  1  0.74755105  0.24872810  0.58561041  1
  Te2-  Te207  1  0.74470315  0.25580560  0.91986922  1
  Te2-  Te208  1  0.74805674  0.58322024  0.25393894  1
  Te2-  Te209  1  0.74806201  0.58467404  0.58333558  1
  Te2-  Te210  1  0.73964830  0.58692004  0.91981330  1
  Te2-  Te211  1  0.74935614  0.91381629  0.25316042  1
  Te2-  Te212  1  0.75360844  0.91700259  0.58569842  1
  Te2-  Te213  1  0.75166664  0.92104526  0.92160791  1
  Te2-  Te214  1  0.07508444  0.07741281  0.08287923  1
  Te2-  Te215  1  0.08653498  0.08148737  0.41298326  1
  Te2-  Te216  1  0.07635374  0.08438915  0.74624631  1
  Te2-  Te217  1  0.07517948  0.41107474  0.08202561  1
  Te2-  Te218  1  0.08011172  0.41519180  0.41549441  1
  Te2-  Te219  1  0.07520436  0.41227653  0.75156229  1
  Te2-  Te220  1  0.08302785  0.74576572  0.07970037  1
  Te2-  Te221  1  0.08468396  0.74904925  0.41150367  1
  Te2-  Te222  1  0.08575170  0.75067833  0.74380377  1
  Te2-  Te223  1  0.41099672  0.08359158  0.07647723  1
  Te2-  Te224  1  0.41614619  0.08097932  0.41623923  1
  Te2-  Te225  1  0.40844232  0.07712741  0.75008824  1
  Te2-  Te226  1  0.41175162  0.41205522  0.08033329  1
  Te2-  Te227  1  0.41178957  0.41573204  0.41324628  1
  Te2-  Te228  1  0.41470683  0.41444343  0.74362185  1
  Te2-  Te229  1  0.41728554  0.75057614  0.07796416  1
  Te2-  Te230  1  0.41740106  0.75102726  0.41334302  1
  Te2-  Te231  1  0.41492177  0.75163894  0.74635475  1
  Te2-  Te232  1  0.74907304  0.07573773  0.08272590  1
  Te2-  Te233  1  0.74694788  0.07332694  0.41286979  1
  Te2-  Te234  1  0.74871341  0.07865883  0.74885351  1
  Te2-  Te235  1  0.74522831  0.41430139  0.07956216  1
  Te2-  Te236  1  0.74705145  0.41437604  0.41376483  1
  Te2-  Te237  1  0.75104444  0.41852071  0.74556364  1
  Te2-  Te238  1  0.74194145  0.74391144  0.07879991  1
  Te2-  Te239  1  0.75234100  0.74580568  0.41630433  1
  Te2-  Te240  1  0.75121043  0.74846893  0.75032265  1
