# generated using pymatgen
data_Ti27(Cu53Te54)2
_symmetry_space_group_name_H-M   'P 1'
_cell_length_a   17.92314057
_cell_length_b   17.91963208
_cell_length_c   17.91641059
_cell_angle_alpha   89.97240195
_cell_angle_beta   89.98199216
_cell_angle_gamma   89.92605082
_symmetry_Int_Tables_number   1
_chemical_formula_structural   Ti27(Cu53Te54)2
_chemical_formula_sum   'Ti27 Cu106 Te108'
_cell_volume   5754.31686233
_cell_formula_units_Z   1
loop_
 _symmetry_equiv_pos_site_id
 _symmetry_equiv_pos_as_xyz
  1  'x, y, z'
loop_
 _atom_type_symbol
 _atom_type_oxidation_number
  Ti4+  4.0
  Cu+  1.0
  Te2-  -2.0
loop_
 _atom_site_type_symbol
 _atom_site_label
 _atom_site_symmetry_multiplicity
 _atom_site_fract_x
 _atom_site_fract_y
 _atom_site_fract_z
 _atom_site_occupancy
  Ti4+  Ti0  1  0.16693784  0.17113366  0.16329107  1
  Ti4+  Ti1  1  0.16207196  0.16595354  0.49865580  1
  Ti4+  Ti2  1  0.16653003  0.16437047  0.83406532  1
  Ti4+  Ti3  1  0.16671731  0.50408435  0.16610226  1
  Ti4+  Ti4  1  0.16676411  0.49974421  0.49985543  1
  Ti4+  Ti5  1  0.16784879  0.49986767  0.83614461  1
  Ti4+  Ti6  1  0.16506273  0.83660747  0.16453264  1
  Ti4+  Ti7  1  0.16601937  0.83369798  0.49726319  1
  Ti4+  Ti8  1  0.16800465  0.83157422  0.83285554  1
  Ti4+  Ti9  1  0.50551796  0.16630474  0.16558271  1
  Ti4+  Ti10  1  0.49400629  0.16290953  0.49508308  1
  Ti4+  Ti11  1  0.49972073  0.16607510  0.83259364  1
  Ti4+  Ti12  1  0.50205473  0.50120611  0.16817990  1
  Ti4+  Ti13  1  0.49986767  0.49906595  0.50238497  1
  Ti4+  Ti14  1  0.50014017  0.50192929  0.83354276  1
  Ti4+  Ti15  1  0.50017431  0.83301376  0.16681306  1
  Ti4+  Ti16  1  0.50345403  0.83540779  0.49785399  1
  Ti4+  Ti17  1  0.50006104  0.83328679  0.83416876  1
  Ti4+  Ti18  1  0.83001309  0.16428687  0.16251734  1
  Ti4+  Ti19  1  0.83108742  0.16995813  0.50014506  1
  Ti4+  Ti20  1  0.83103179  0.16725115  0.83443270  1
  Ti4+  Ti21  1  0.83387412  0.49895231  0.17281810  1
  Ti4+  Ti22  1  0.83551672  0.49879461  0.50943416  1
  Ti4+  Ti23  1  0.83467478  0.50110327  0.83232889  1
  Ti4+  Ti24  1  0.83369952  0.83041029  0.16571500  1
  Ti4+  Ti25  1  0.83460252  0.83234242  0.49890783  1
  Ti4+  Ti26  1  0.83421869  0.83268644  0.83275377  1
  Cu+  Cu27  1  0.17021164  0.17062579  -0.00206499  1
  Cu+  Cu28  1  0.16364762  0.16860034  0.33260452  1
  Cu+  Cu29  1  0.16406761  0.16169103  0.66914267  1
  Cu+  Cu30  1  0.16950637  0.49980506  0.00395206  1
  Cu+  Cu31  1  0.16457391  0.50200589  0.33105400  1
  Cu+  Cu32  1  0.16697504  0.49917559  0.67040853  1
  Cu+  Cu33  1  0.16737110  0.83420685  -0.00310037  1
  Cu+  Cu34  1  0.16143555  0.83765216  0.33137347  1
  Cu+  Cu35  1  0.16903997  0.83134796  0.66447622  1
  Cu+  Cu36  1  0.50762067  0.16820310  -0.00274750  1
  Cu+  Cu37  1  0.49871523  0.15472386  0.32981469  1
  Cu+  Cu38  1  0.49549780  0.16537602  0.66415790  1
  Cu+  Cu39  1  0.50211448  0.50138783  0.00113626  1
  Cu+  Cu40  1  0.49953902  0.49897707  0.33394701  1
  Cu+  Cu41  1  0.50025227  0.50419843  0.66731486  1
  Cu+  Cu42  1  0.49820163  0.82575925  0.00019615  1
  Cu+  Cu43  1  0.50149834  0.84272931  0.33327056  1
  Cu+  Cu44  1  0.50093205  0.83520143  0.66704444  1
  Cu+  Cu45  1  0.82544112  0.16744729  -0.00050814  1
  Cu+  Cu46  1  0.83073679  0.16873644  0.32760797  1
  Cu+  Cu47  1  0.83132768  0.16825329  0.66954701  1
  Cu+  Cu48  1  0.83515869  0.50183779  0.00092830  1
  Cu+  Cu49  1  0.83390115  0.49807647  0.34590762  1
  Cu+  Cu50  1  0.83501936  0.50069634  0.66725004  1
  Cu+  Cu51  1  0.83309464  0.83180750  -0.00098349  1
  Cu+  Cu52  1  0.83274161  0.82663251  0.33117693  1
  Cu+  Cu53  1  0.83514648  0.83377203  0.66715717  1
  Cu+  Cu54  1  0.16494684  0.00447401  0.16368469  1
  Cu+  Cu55  1  0.15903904  -0.00138147  0.49514971  1
  Cu+  Cu56  1  0.17141861  -0.00337759  0.83419779  1
  Cu+  Cu57  1  0.16910793  0.34005580  0.16148759  1
  Cu+  Cu58  1  0.16440554  0.33281630  0.50239268  1
  Cu+  Cu59  1  0.16946993  0.32947728  0.83616501  1
  Cu+  Cu60  1  0.16707994  0.66968897  0.16492469  1
  Cu+  Cu61  1  0.16847854  0.66832530  0.49630689  1
  Cu+  Cu62  1  0.16384382  0.66634784  0.83599183  1
  Cu+  Cu63  1  0.50500629  0.00054157  0.16988997  1
  Cu+  Cu64  1  0.49817058  -0.00127150  0.48868459  1
  Cu+  Cu65  1  0.49774852  -0.00057529  0.83178982  1
  Cu+  Cu66  1  0.50261318  0.33601290  0.16911630  1
  Cu+  Cu67  1  0.49712498  0.32900157  0.49997833  1
  Cu+  Cu68  1  0.50063772  0.33513054  0.83328935  1
  Cu+  Cu69  1  0.50289226  0.66659985  0.16357885  1
  Cu+  Cu70  1  0.50334716  0.66836646  0.50220348  1
  Cu+  Cu71  1  0.49576766  0.66915680  0.83546564  1
  Cu+  Cu72  1  0.83336879  -0.00206802  0.16395771  1
  Cu+  Cu73  1  0.83277952  0.00097949  0.49756965  1
  Cu+  Cu74  1  0.83246517  -0.00035233  0.83330217  1
  Cu+  Cu75  1  0.83380791  0.33091919  0.16970675  1
  Cu+  Cu76  1  0.83737623  0.33420346  0.50869369  1
  Cu+  Cu77  1  0.83421408  0.33616274  0.83273175  1
  Cu+  Cu78  1  0.83065523  0.66654110  0.17373072  1
  Cu+  Cu79  1  0.83561080  0.66252823  0.50239410  1
  Cu+  Cu80  1  0.83362402  0.66707457  0.82996054  1
  Cu+  Cu81  1  -0.00233413  0.16810890  0.16344911  1
  Cu+  Cu82  1  -0.00386185  0.17024538  0.49995555  1
  Cu+  Cu83  1  0.00043889  0.16195974  0.83501624  1
  Cu+  Cu84  1  0.00113795  0.50036045  0.17404967  1
  Cu+  Cu85  1  0.00482149  0.49376959  0.51104049  1
  Cu+  Cu86  1  0.00069153  0.50028463  0.83362492  1
  Cu+  Cu87  1  -0.00122598  0.83458688  0.16427560  1
  Cu+  Cu88  1  0.00100824  0.83476801  0.49513390  1
  Cu+  Cu89  1  0.00071459  0.82998170  0.83291939  1
  Cu+  Cu90  1  0.33724272  0.16823053  0.16551186  1
  Cu+  Cu91  1  0.32595853  0.16277810  0.49682228  1
  Cu+  Cu92  1  0.33349721  0.16746089  0.83395096  1
  Cu+  Cu93  1  0.33560244  0.50380664  0.16527659  1
  Cu+  Cu94  1  0.33284956  0.49972346  0.49876363  1
  Cu+  Cu95  1  0.33434454  0.50168253  0.83410455  1
  Cu+  Cu96  1  0.32848496  0.83548429  0.16523333  1
  Cu+  Cu97  1  0.33420173  0.83480290  0.49676624  1
  Cu+  Cu98  1  0.33474464  0.83234692  0.83780524  1
  Cu+  Cu99  1  0.66760452  0.16436628  0.15243118  1
  Cu+  Cu100  1  0.66129839  0.16824169  0.49893922  1
  Cu+  Cu101  1  0.66490144  0.16958770  0.83498356  1
  Cu+  Cu102  1  0.66769985  0.50036001  0.17150871  1
  Cu+  Cu103  1  0.66344638  0.50309532  0.51091604  1
  Cu+  Cu104  1  0.66820008  0.50302056  0.83140632  1
  Cu+  Cu105  1  0.66593155  0.82826559  0.16753663  1
  Cu+  Cu106  1  0.67086749  0.83179286  0.50066149  1
  Cu+  Cu107  1  0.66802471  0.83461809  0.83152286  1
  Cu+  Cu108  1  0.40203496  0.92254807  0.40620797  1
  Cu+  Cu109  1  0.08584303  0.40337547  0.60202890  1
  Cu+  Cu110  1  0.06817102  0.92773351  0.40173096  1
  Cu+  Cu111  1  0.73686150  0.40730917  0.59628033  1
  Cu+  Cu112  1  0.26674290  0.41548784  0.07579749  1
  Cu+  Cu113  1  0.59478613  0.73693727  0.07079564  1
  Cu+  Cu114  1  0.59249160  0.26562335  0.92287759  1
  Cu+  Cu115  1  0.40524201  0.73643409  0.92884197  1
  Cu+  Cu116  1  0.92691417  0.24999459  0.60082290  1
  Cu+  Cu117  1  0.59049144  0.06996122  0.06730785  1
  Cu+  Cu118  1  0.59746485  0.07439596  0.40944047  1
  Cu+  Cu119  1  0.73782407  0.58730421  0.41761161  1
  Cu+  Cu120  1  0.40300136  0.07463356  0.25154783  1
  Cu+  Cu121  1  0.07012424  0.74034083  0.92606820  1
  Cu+  Cu122  1  0.92952195  0.41031173  0.41697219  1
  Cu+  Cu123  1  0.73720956  0.73897418  0.26101033  1
  Cu+  Cu124  1  0.93304360  0.59717687  0.59424260  1
  Cu+  Cu125  1  0.08228013  0.40772640  0.25714343  1
  Cu+  Cu126  1  0.59901520  0.92375839  0.25675841  1
  Cu+  Cu127  1  0.74454616  0.26668668  0.07316175  1
  Cu+  Cu128  1  0.26239754  0.26015954  0.92236724  1
  Cu+  Cu129  1  0.58299105  0.25343495  0.59101065  1
  Cu+  Cu130  1  0.26183012  0.92446697  0.92634483  1
  Cu+  Cu131  1  0.92672595  0.25131856  0.25532732  1
  Cu+  Cu132  1  0.58717483  0.59971635  0.59824192  1
  Te2-  Te133  1  0.25824819  0.25581114  0.07978290  1
  Te2-  Te134  1  0.24745871  0.25269156  0.41505109  1
  Te2-  Te135  1  0.25124470  0.24928034  0.74590359  1
  Te2-  Te136  1  0.25371109  0.58975493  0.08091732  1
  Te2-  Te137  1  0.25122710  0.58363183  0.41320184  1
  Te2-  Te138  1  0.25057950  0.58551015  0.75066668  1
  Te2-  Te139  1  0.25158176  0.92317810  0.07947395  1
  Te2-  Te140  1  0.25060831  0.92149455  0.41065701  1
  Te2-  Te141  1  0.25482886  0.91529354  0.74682602  1
  Te2-  Te142  1  0.58757500  0.26126419  0.07795502  1
  Te2-  Te143  1  0.57925893  0.24919311  0.40879187  1
  Te2-  Te144  1  0.58399554  0.25234573  0.74510462  1
  Te2-  Te145  1  0.59078415  0.58431687  0.08071732  1
  Te2-  Te146  1  0.58498677  0.58482169  0.41463053  1
  Te2-  Te147  1  0.58528755  0.59076530  0.75011766  1
  Te2-  Te148  1  0.58588566  0.91595236  0.07767469  1
  Te2-  Te149  1  0.59657607  0.92068691  0.41197591  1
  Te2-  Te150  1  0.58470810  0.91920583  0.74875762  1
  Te2-  Te151  1  0.91550069  0.25237500  0.07721035  1
  Te2-  Te152  1  0.91780530  0.25517157  0.41065794  1
  Te2-  Te153  1  0.92075030  0.25185344  0.75194859  1
  Te2-  Te154  1  0.91712478  0.58464969  0.08872259  1
  Te2-  Te155  1  0.92634557  0.58133080  0.42173996  1
  Te2-  Te156  1  0.92247629  0.58710261  0.74704284  1
  Te2-  Te157  1  0.91715475  0.91693902  0.07937105  1
  Te2-  Te158  1  0.91553513  0.91879171  0.40983248  1
  Te2-  Te159  1  0.92013247  0.91845817  0.74938172  1
  Te2-  Te160  1  0.24960713  0.08417729  0.25012608  1
  Te2-  Te161  1  0.24508262  0.07814994  0.58206248  1
  Te2-  Te162  1  0.25539969  0.07955878  0.92112786  1
  Te2-  Te163  1  0.25431401  0.41729925  0.25177751  1
  Te2-  Te164  1  0.25211243  0.41456225  0.58574548  1
  Te2-  Te165  1  0.25712837  0.41350314  0.92154520  1
  Te2-  Te166  1  0.24846981  0.75207218  0.25192537  1
  Te2-  Te167  1  0.25429070  0.74909396  0.58075933  1
  Te2-  Te168  1  0.25353760  0.74319306  0.92156153  1
  Te2-  Te169  1  0.59734887  0.07970857  0.25201395  1
  Te2-  Te170  1  0.58029246  0.07793580  0.58184696  1
  Te2-  Te171  1  0.58733369  0.07615980  0.91524386  1
  Te2-  Te172  1  0.58653471  0.41539126  0.25477366  1
  Te2-  Te173  1  0.58259030  0.40882862  0.59128253  1
  Te2-  Te174  1  0.58824608  0.41782433  0.91875042  1
  Te2-  Te175  1  0.58242888  0.74590495  0.25748167  1
  Te2-  Te176  1  0.58827786  0.75117756  0.58771646  1
  Te2-  Te177  1  0.58961687  0.74586464  0.91738406  1
  Te2-  Te178  1  0.91738834  0.08071765  0.24937517  1
  Te2-  Te179  1  0.91533518  0.08311019  0.58456821  1
  Te2-  Te180  1  0.91416713  0.08255943  0.92053360  1
  Te2-  Te181  1  0.92025236  0.41096170  0.25926366  1
  Te2-  Te182  1  0.92532431  0.40798520  0.59807216  1
  Te2-  Te183  1  0.91882086  0.41637554  0.91888045  1
  Te2-  Te184  1  0.92286084  0.74733627  0.25084492  1
  Te2-  Te185  1  0.92201253  0.74975140  0.58475591  1
  Te2-  Te186  1  0.91824786  0.74420647  0.91979660  1
  Te2-  Te187  1  0.08020509  0.25602301  0.25093063  1
  Te2-  Te188  1  0.07884083  0.25171335  0.59114160  1
  Te2-  Te189  1  0.07922334  0.25057424  0.91846224  1
  Te2-  Te190  1  0.08185433  0.59136294  0.25222189  1
  Te2-  Te191  1  0.08565531  0.58958297  0.58770395  1
  Te2-  Te192  1  0.08057195  0.58333415  0.92279223  1
  Te2-  Te193  1  0.07739184  0.92408193  0.24786880  1
  Te2-  Te194  1  0.08056711  0.91631527  0.58581471  1
  Te2-  Te195  1  0.08037753  0.91870926  0.91655118  1
  Te2-  Te196  1  0.41999287  0.25087282  0.25172698  1
  Te2-  Te197  1  0.40803118  0.24745697  0.58151011  1
  Te2-  Te198  1  0.41587304  0.25331327  0.92040829  1
  Te2-  Te199  1  0.41661483  0.58707484  0.25180210  1
  Te2-  Te200  1  0.41317506  0.58667896  0.58398865  1
  Te2-  Te201  1  0.41355413  0.58482586  0.92231825  1
  Te2-  Te202  1  0.40905244  0.92139627  0.25016188  1
  Te2-  Te203  1  0.41727213  0.91975150  0.58268377  1
  Te2-  Te204  1  0.41642591  0.92074749  0.92304739  1
  Te2-  Te205  1  0.74061236  0.24954802  0.24724176  1
  Te2-  Te206  1  0.74128944  0.25230429  0.58880574  1
  Te2-  Te207  1  0.74494829  0.25926010  0.91888061  1
  Te2-  Te208  1  0.74685881  0.58339521  0.26100304  1
  Te2-  Te209  1  0.74630284  0.59082939  0.59341727  1
  Te2-  Te210  1  0.75031186  0.58611857  0.91759062  1
  Te2-  Te211  1  0.74974821  0.91860889  0.25264403  1
  Te2-  Te212  1  0.75129773  0.91823316  0.58401579  1
  Te2-  Te213  1  0.74843588  0.91739085  0.91832388  1
  Te2-  Te214  1  0.08194452  0.08735584  0.07869728  1
  Te2-  Te215  1  0.07417472  0.08395822  0.41104214  1
  Te2-  Te216  1  0.08176019  0.07597412  0.75136225  1
  Te2-  Te217  1  0.07696502  0.41827407  0.08105554  1
  Te2-  Te218  1  0.08102482  0.41105347  0.41185461  1
  Te2-  Te219  1  0.08257085  0.41118294  0.75324775  1
  Te2-  Te220  1  0.08059101  0.74903399  0.07937026  1
  Te2-  Te221  1  0.08109668  0.74687129  0.41197205  1
  Te2-  Te222  1  0.08317148  0.74697776  0.74575613  1
  Te2-  Te223  1  0.41975764  0.08208909  0.07953594  1
  Te2-  Te224  1  0.40297411  0.07661000  0.40821612  1
  Te2-  Te225  1  0.41316525  0.08179546  0.74812716  1
  Te2-  Te226  1  0.41803579  0.41418425  0.08086774  1
  Te2-  Te227  1  0.41574801  0.41440594  0.41622106  1
  Te2-  Te228  1  0.41576072  0.41721697  0.74852076  1
  Te2-  Te229  1  0.40964041  0.74627176  0.08455225  1
  Te2-  Te230  1  0.41933087  0.74915411  0.41298609  1
  Te2-  Te231  1  0.41410072  0.75053377  0.74655607  1
  Te2-  Te232  1  0.74694578  0.07176535  0.07499581  1
  Te2-  Te233  1  0.74899888  0.08380031  0.41263113  1
  Te2-  Te234  1  0.74637207  0.08293247  0.74957144  1
  Te2-  Te235  1  0.74955898  0.41814606  0.08380243  1
  Te2-  Te236  1  0.74499422  0.41321968  0.42497768  1
  Te2-  Te237  1  0.74670260  0.41446399  0.74757782  1
  Te2-  Te238  1  0.74829037  0.74341010  0.07916725  1
  Te2-  Te239  1  0.74683746  0.74241327  0.41513812  1
  Te2-  Te240  1  0.74838177  0.74889421  0.74626907  1
