# generated using pymatgen
data_Ti27(Cu53Te54)2
_symmetry_space_group_name_H-M   'P 1'
_cell_length_a   17.91770696
_cell_length_b   17.93069865
_cell_length_c   17.92221556
_cell_angle_alpha   89.92401552
_cell_angle_beta   89.99636106
_cell_angle_gamma   90.03059571
_symmetry_Int_Tables_number   1
_chemical_formula_structural   Ti27(Cu53Te54)2
_chemical_formula_sum   'Ti27 Cu106 Te108'
_cell_volume   5757.98982287
_cell_formula_units_Z   1
loop_
 _symmetry_equiv_pos_site_id
 _symmetry_equiv_pos_as_xyz
  1  'x, y, z'
loop_
 _atom_type_symbol
 _atom_type_oxidation_number
  Ti4+  4.0
  Cu+  1.0
  Te2-  -2.0
loop_
 _atom_site_type_symbol
 _atom_site_label
 _atom_site_symmetry_multiplicity
 _atom_site_fract_x
 _atom_site_fract_y
 _atom_site_fract_z
 _atom_site_occupancy
  Ti4+  Ti0  1  0.16803218  0.16994776  0.16723305  1
  Ti4+  Ti1  1  0.16805527  0.16950034  0.49681413  1
  Ti4+  Ti2  1  0.16779552  0.16645397  0.83527699  1
  Ti4+  Ti3  1  0.16599244  0.50259065  0.16633023  1
  Ti4+  Ti4  1  0.16623981  0.50173594  0.50101919  1
  Ti4+  Ti5  1  0.16498364  0.49803364  0.83412359  1
  Ti4+  Ti6  1  0.16726731  0.83403698  0.16730311  1
  Ti4+  Ti7  1  0.16713932  0.83835366  0.50371692  1
  Ti4+  Ti8  1  0.16887185  0.83185745  0.83540987  1
  Ti4+  Ti9  1  0.49701385  0.16905147  0.16501400  1
  Ti4+  Ti10  1  0.49925198  0.16422711  0.49642956  1
  Ti4+  Ti11  1  0.50054954  0.16612180  0.83315298  1
  Ti4+  Ti12  1  0.50135163  0.50415548  0.16096906  1
  Ti4+  Ti13  1  0.49883647  0.49964982  0.49975935  1
  Ti4+  Ti14  1  0.50079570  0.49510424  0.83238364  1
  Ti4+  Ti15  1  0.49976356  0.83223013  0.16766039  1
  Ti4+  Ti16  1  0.49795923  0.82892260  0.50051632  1
  Ti4+  Ti17  1  0.49978887  0.83214715  0.83324278  1
  Ti4+  Ti18  1  0.83186558  0.16261704  0.16889711  1
  Ti4+  Ti19  1  0.83427226  0.16645178  0.49921273  1
  Ti4+  Ti20  1  0.83374198  0.16713737  0.83392026  1
  Ti4+  Ti21  1  0.83031937  0.49749500  0.16794423  1
  Ti4+  Ti22  1  0.83392310  0.50218166  0.49633382  1
  Ti4+  Ti23  1  0.83147903  0.49866020  0.83171664  1
  Ti4+  Ti24  1  0.83411572  0.83106829  0.16778277  1
  Ti4+  Ti25  1  0.83334357  0.83072636  0.50575414  1
  Ti4+  Ti26  1  0.83435423  0.83483436  0.83223771  1
  Cu+  Cu27  1  0.17018080  0.16650459  0.00161026  1
  Cu+  Cu28  1  0.16724739  0.16351128  0.33032255  1
  Cu+  Cu29  1  0.16937007  0.16950139  0.66620592  1
  Cu+  Cu30  1  0.16393364  0.49997209  -0.00114183  1
  Cu+  Cu31  1  0.16731130  0.50393672  0.33458337  1
  Cu+  Cu32  1  0.16542896  0.49709553  0.66914959  1
  Cu+  Cu33  1  0.17047607  0.82988355  0.00164030  1
  Cu+  Cu34  1  0.16674018  0.83849444  0.33616901  1
  Cu+  Cu35  1  0.16511384  0.84005002  0.67223029  1
  Cu+  Cu36  1  0.49831447  0.16829823  0.00105801  1
  Cu+  Cu37  1  0.49411885  0.17292724  0.33277807  1
  Cu+  Cu38  1  0.49919299  0.16221629  0.66348995  1
  Cu+  Cu39  1  0.50835076  0.49964079  -0.00507774  1
  Cu+  Cu40  1  0.50064831  0.50280615  0.33094401  1
  Cu+  Cu41  1  0.50196431  0.49378788  0.66746795  1
  Cu+  Cu42  1  0.50209086  0.83230850  0.00043939  1
  Cu+  Cu43  1  0.49215140  0.82782952  0.33231584  1
  Cu+  Cu44  1  0.49985481  0.82921988  0.66667585  1
  Cu+  Cu45  1  0.83111485  0.16430703  0.00114967  1
  Cu+  Cu46  1  0.83667503  0.16570619  0.33396824  1
  Cu+  Cu47  1  0.83266667  0.16986936  0.66809183  1
  Cu+  Cu48  1  0.82718295  0.49671058  0.00085214  1
  Cu+  Cu49  1  0.83571615  0.50282180  0.33050977  1
  Cu+  Cu50  1  0.83175094  0.50097478  0.66249568  1
  Cu+  Cu51  1  0.83484172  0.83496250  -0.00317448  1
  Cu+  Cu52  1  0.83160121  0.82656651  0.33781997  1
  Cu+  Cu53  1  0.83977166  0.83249375  0.67030108  1
  Cu+  Cu54  1  0.16808814  0.00327925  0.16806329  1
  Cu+  Cu55  1  0.16678542  0.00867465  0.50190367  1
  Cu+  Cu56  1  0.16837926  -0.00164015  0.83578623  1
  Cu+  Cu57  1  0.16720649  0.33935245  0.16898821  1
  Cu+  Cu58  1  0.16712510  0.33651685  0.49779057  1
  Cu+  Cu59  1  0.16456226  0.33203620  0.83526710  1
  Cu+  Cu60  1  0.16840672  0.66876752  0.16435864  1
  Cu+  Cu61  1  0.16683577  0.66838326  0.50364711  1
  Cu+  Cu62  1  0.16812926  0.66168605  0.83603621  1
  Cu+  Cu63  1  0.50036841  0.00251232  0.16617267  1
  Cu+  Cu64  1  0.50037895  -0.00634865  0.49692884  1
  Cu+  Cu65  1  0.49935329  -0.00023804  0.83491182  1
  Cu+  Cu66  1  0.49691967  0.33614647  0.15887874  1
  Cu+  Cu67  1  0.49776912  0.33229155  0.49649809  1
  Cu+  Cu68  1  0.50293510  0.33141816  0.82862549  1
  Cu+  Cu69  1  0.50375218  0.66998140  0.16895226  1
  Cu+  Cu70  1  0.49362930  0.66515732  0.50301409  1
  Cu+  Cu71  1  0.49954562  0.66313149  0.83386292  1
  Cu+  Cu72  1  0.83135521  -0.00455700  0.16748154  1
  Cu+  Cu73  1  0.83276150  -0.00208812  0.50422252  1
  Cu+  Cu74  1  0.83242891  0.00415573  0.83442972  1
  Cu+  Cu75  1  0.83222816  0.32623794  0.17300520  1
  Cu+  Cu76  1  0.83092253  0.33521416  0.49641331  1
  Cu+  Cu77  1  0.83259450  0.33200671  0.83394718  1
  Cu+  Cu78  1  0.83086818  0.66416298  0.16891744  1
  Cu+  Cu79  1  0.83982453  0.66629469  0.50126492  1
  Cu+  Cu80  1  0.83306008  0.66914983  0.83053347  1
  Cu+  Cu81  1  -0.00070673  0.16792132  0.17390686  1
  Cu+  Cu82  1  0.00111570  0.16745854  0.49878706  1
  Cu+  Cu83  1  -0.00144723  0.16746438  0.83506038  1
  Cu+  Cu84  1  0.00010227  0.49926153  0.16862691  1
  Cu+  Cu85  1  0.00164288  0.50348160  0.49986814  1
  Cu+  Cu86  1  0.00015064  0.49757537  0.83460798  1
  Cu+  Cu87  1  0.00008886  0.83454587  0.16821957  1
  Cu+  Cu88  1  -0.00188128  0.83588347  0.50585821  1
  Cu+  Cu89  1  0.00343895  0.83323989  0.83011446  1
  Cu+  Cu90  1  0.33392506  0.17272372  0.15933347  1
  Cu+  Cu91  1  0.33390122  0.16889928  0.49062951  1
  Cu+  Cu92  1  0.33352724  0.16609942  0.83362459  1
  Cu+  Cu93  1  0.33128790  0.50240094  0.16305724  1
  Cu+  Cu94  1  0.33121876  0.50044887  0.50002573  1
  Cu+  Cu95  1  0.33194162  0.49535126  0.83394728  1
  Cu+  Cu96  1  0.33146881  0.82839381  0.16780398  1
  Cu+  Cu97  1  0.33619541  0.83325130  0.50124714  1
  Cu+  Cu98  1  0.33495337  0.83218062  0.83674038  1
  Cu+  Cu99  1  0.66436660  0.16120226  0.16626175  1
  Cu+  Cu100  1  0.66813988  0.16417615  0.49783033  1
  Cu+  Cu101  1  0.66839429  0.16739950  0.83483564  1
  Cu+  Cu102  1  0.66545103  0.50361630  0.16059713  1
  Cu+  Cu103  1  0.66726450  0.49989808  0.49600461  1
  Cu+  Cu104  1  0.66493333  0.49467539  0.83028592  1
  Cu+  Cu105  1  0.66775609  0.83195551  0.16592382  1
  Cu+  Cu106  1  0.66299606  0.83397734  0.50644015  1
  Cu+  Cu107  1  0.66914686  0.83598354  0.83239135  1
  Cu+  Cu108  1  0.40402290  0.26725505  0.06655260  1
  Cu+  Cu109  1  0.07203561  0.09262043  0.59816133  1
  Cu+  Cu110  1  0.40157067  0.73719056  0.25896616  1
  Cu+  Cu111  1  0.58689272  0.92537056  0.59596047  1
  Cu+  Cu112  1  0.07207990  0.07152999  0.25491701  1
  Cu+  Cu113  1  0.93030737  0.59311224  0.25058478  1
  Cu+  Cu114  1  0.93037081  0.74658138  0.40864063  1
  Cu+  Cu115  1  0.25978081  0.07630002  0.40471823  1
  Cu+  Cu116  1  0.40467745  0.73643843  0.59859572  1
  Cu+  Cu117  1  0.40987326  0.92246197  0.40408614  1
  Cu+  Cu118  1  0.07496063  0.93076852  0.75105824  1
  Cu+  Cu119  1  0.92256225  0.92955188  0.59472620  1
  Cu+  Cu120  1  0.92775947  0.25810706  0.26306279  1
  Cu+  Cu121  1  0.93338632  0.73632258  0.74998118  1
  Cu+  Cu122  1  0.40539036  0.26605701  0.40602930  1
  Cu+  Cu123  1  0.59636635  0.59378820  0.91162140  1
  Cu+  Cu124  1  0.59373978  0.40034859  0.73329778  1
  Cu+  Cu125  1  0.59356229  0.07470653  0.07254662  1
  Cu+  Cu126  1  0.25963546  0.73750273  0.07122759  1
  Cu+  Cu127  1  0.59520390  0.40624258  0.07309882  1
  Cu+  Cu128  1  0.59655414  0.74859368  0.07167765  1
  Cu+  Cu129  1  0.59064891  0.59367346  0.26280124  1
  Cu+  Cu130  1  0.25799393  0.07394702  0.07212084  1
  Cu+  Cu131  1  0.74930329  0.59511649  0.07025051  1
  Cu+  Cu132  1  0.93036735  0.58447874  0.59497702  1
  Te2-  Te133  1  0.25003472  0.26061313  0.07938279  1
  Te2-  Te134  1  0.25073549  0.25798079  0.40799414  1
  Te2-  Te135  1  0.25167902  0.25226121  0.75000936  1
  Te2-  Te136  1  0.25170611  0.58612525  0.07687113  1
  Te2-  Te137  1  0.25156359  0.58863730  0.41700428  1
  Te2-  Te138  1  0.25251157  0.58217360  0.74886188  1
  Te2-  Te139  1  0.25407949  0.91977983  0.08182318  1
  Te2-  Te140  1  0.25371972  0.92264134  0.41562972  1
  Te2-  Te141  1  0.25624850  0.91886760  0.75187990  1
  Te2-  Te142  1  0.58828636  0.25252099  0.07992025  1
  Te2-  Te143  1  0.58622873  0.25065546  0.41386845  1
  Te2-  Te144  1  0.58739408  0.24769843  0.74347742  1
  Te2-  Te145  1  0.58963106  0.59396267  0.07238067  1
  Te2-  Te146  1  0.58368578  0.58841164  0.41630918  1
  Te2-  Te147  1  0.58564019  0.58404946  0.74619653  1
  Te2-  Te148  1  0.58640634  0.91971854  0.08175561  1
  Te2-  Te149  1  0.58442567  0.91166413  0.41053497  1
  Te2-  Te150  1  0.58461951  0.91895600  0.74851505  1
  Te2-  Te151  1  0.91713238  0.24831859  0.08362659  1
  Te2-  Te152  1  0.92081010  0.25413682  0.41535945  1
  Te2-  Te153  1  0.91956183  0.25326799  0.74877373  1
  Te2-  Te154  1  0.91628662  0.58278750  0.08095673  1
  Te2-  Te155  1  0.92438268  0.58920784  0.40871781  1
  Te2-  Te156  1  0.92058589  0.58391191  0.74754712  1
  Te2-  Te157  1  0.91792715  0.91680414  0.08234701  1
  Te2-  Te158  1  0.91645943  0.91673910  0.41636606  1
  Te2-  Te159  1  0.92160058  0.92728144  0.74805205  1
  Te2-  Te160  1  0.25968049  0.08318599  0.24998944  1
  Te2-  Te161  1  0.25666653  0.08692887  0.58406988  1
  Te2-  Te162  1  0.25463287  0.07903142  0.91923353  1
  Te2-  Te163  1  0.25300337  0.41988218  0.25265364  1
  Te2-  Te164  1  0.25105416  0.41490272  0.58536728  1
  Te2-  Te165  1  0.24978024  0.41290594  0.92040536  1
  Te2-  Te166  1  0.24888694  0.74698824  0.25817400  1
  Te2-  Te167  1  0.25030318  0.75186767  0.58956217  1
  Te2-  Te168  1  0.25509284  0.74360174  0.91909686  1
  Te2-  Te169  1  0.57932535  0.08437281  0.25517872  1
  Te2-  Te170  1  0.58561234  0.07832719  0.58212535  1
  Te2-  Te171  1  0.58623414  0.08103453  0.91957553  1
  Te2-  Te172  1  0.58311802  0.41584441  0.24713004  1
  Te2-  Te173  1  0.58688029  0.41161614  0.58031511  1
  Te2-  Te174  1  0.58978209  0.40631515  0.91884675  1
  Te2-  Te175  1  0.58912213  0.74924202  0.25699098  1
  Te2-  Te176  1  0.58425324  0.74208846  0.58645346  1
  Te2-  Te177  1  0.59019330  0.74731053  0.91768981  1
  Te2-  Te178  1  0.91777312  0.07432827  0.25441643  1
  Te2-  Te179  1  0.92021903  0.08221784  0.58979455  1
  Te2-  Te180  1  0.91893293  0.08168722  0.92051915  1
  Te2-  Te181  1  0.91894024  0.41211289  0.25334900  1
  Te2-  Te182  1  0.91815826  0.41522332  0.58187487  1
  Te2-  Te183  1  0.91492713  0.41566475  0.91918681  1
  Te2-  Te184  1  0.92188454  0.74528847  0.25382567  1
  Te2-  Te185  1  0.92505734  0.74313862  0.59263643  1
  Te2-  Te186  1  0.92061287  0.74851205  0.91695021  1
  Te2-  Te187  1  0.08366192  0.25719831  0.25508593  1
  Te2-  Te188  1  0.08254097  0.25456491  0.58368100  1
  Te2-  Te189  1  0.08197260  0.24908197  0.92099081  1
  Te2-  Te190  1  0.08244012  0.58971531  0.25265698  1
  Te2-  Te191  1  0.08241236  0.58737821  0.58997742  1
  Te2-  Te192  1  0.07868407  0.58452716  0.91892648  1
  Te2-  Te193  1  0.08098437  0.91977589  0.25338730  1
  Te2-  Te194  1  0.08005838  0.92641432  0.58954485  1
  Te2-  Te195  1  0.08296136  0.91574808  0.92198702  1
  Te2-  Te196  1  0.41133557  0.25877605  0.24953015  1
  Te2-  Te197  1  0.41444734  0.24876296  0.58266424  1
  Te2-  Te198  1  0.41436610  0.25425318  0.91616657  1
  Te2-  Te199  1  0.41245136  0.58617058  0.24943055  1
  Te2-  Te200  1  0.41267708  0.58060272  0.58997458  1
  Te2-  Te201  1  0.41434534  0.58057260  0.91806761  1
  Te2-  Te202  1  0.41171185  0.92075031  0.24937874  1
  Te2-  Te203  1  0.41489426  0.91867827  0.58841505  1
  Te2-  Te204  1  0.41698327  0.91679139  0.92034738  1
  Te2-  Te205  1  0.74336631  0.24521995  0.25427990  1
  Te2-  Te206  1  0.74844731  0.25158764  0.58218330  1
  Te2-  Te207  1  0.74842552  0.25186063  0.92043776  1
  Te2-  Te208  1  0.74305263  0.58539444  0.25459002  1
  Te2-  Te209  1  0.74668581  0.58614228  0.58149580  1
  Te2-  Te210  1  0.74688589  0.58786647  0.91658215  1
  Te2-  Te211  1  0.74869303  0.91318049  0.25462179  1
  Te2-  Te212  1  0.74666487  0.91801995  0.59160219  1
  Te2-  Te213  1  0.74921497  0.92021398  0.91776246  1
  Te2-  Te214  1  0.08019185  0.08468646  0.08354975  1
  Te2-  Te215  1  0.07872474  0.08071430  0.41124937  1
  Te2-  Te216  1  0.07941059  0.08177750  0.74856364  1
  Te2-  Te217  1  0.08024126  0.41627519  0.08262677  1
  Te2-  Te218  1  0.08076714  0.41794785  0.41413124  1
  Te2-  Te219  1  0.07946023  0.41189844  0.74917746  1
  Te2-  Te220  1  0.07986562  0.74988670  0.08261519  1
  Te2-  Te221  1  0.08307758  0.75195703  0.41853681  1
  Te2-  Te222  1  0.08591267  0.74305755  0.74720277  1
  Te2-  Te223  1  0.41217924  0.07877085  0.07868040  1
  Te2-  Te224  1  0.41401809  0.07557603  0.40793656  1
  Te2-  Te225  1  0.41504040  0.08102529  0.74922522  1
  Te2-  Te226  1  0.41203870  0.42051000  0.07420822  1
  Te2-  Te227  1  0.41281943  0.41799467  0.41105817  1
  Te2-  Te228  1  0.41286885  0.41131924  0.74744622  1
  Te2-  Te229  1  0.41448189  0.74555953  0.07945219  1
  Te2-  Te230  1  0.40787855  0.74126458  0.41396142  1
  Te2-  Te231  1  0.41332871  0.74419549  0.75072093  1
  Te2-  Te232  1  0.74722668  0.07634825  0.08085888  1
  Te2-  Te233  1  0.75156268  0.07863926  0.41522179  1
  Te2-  Te234  1  0.74755070  0.08271965  0.74737038  1
  Te2-  Te235  1  0.74766798  0.40646867  0.08318921  1
  Te2-  Te236  1  0.74886273  0.41725951  0.41031524  1
  Te2-  Te237  1  0.74911593  0.41215097  0.74409731  1
  Te2-  Te238  1  0.74953452  0.74711935  0.07675777  1
  Te2-  Te239  1  0.74483102  0.74639784  0.42271934  1
  Te2-  Te240  1  0.74706311  0.75023475  0.74660059  1
