# generated using pymatgen
data_Ti27(Cu53Te54)2
_symmetry_space_group_name_H-M   'P 1'
_cell_length_a   17.92591038
_cell_length_b   17.92620715
_cell_length_c   17.91606579
_cell_angle_alpha   89.95963588
_cell_angle_beta   89.91953706
_cell_angle_gamma   90.08126763
_symmetry_Int_Tables_number   1
_chemical_formula_structural   Ti27(Cu53Te54)2
_chemical_formula_sum   'Ti27 Cu106 Te108'
_cell_volume   5757.19986342
_cell_formula_units_Z   1
loop_
 _symmetry_equiv_pos_site_id
 _symmetry_equiv_pos_as_xyz
  1  'x, y, z'
loop_
 _atom_type_symbol
 _atom_type_oxidation_number
  Ti4+  4.0
  Cu+  1.0
  Te2-  -2.0
loop_
 _atom_site_type_symbol
 _atom_site_label
 _atom_site_symmetry_multiplicity
 _atom_site_fract_x
 _atom_site_fract_y
 _atom_site_fract_z
 _atom_site_occupancy
  Ti4+  Ti0  1  0.16771278  0.16670878  0.16613610  1
  Ti4+  Ti1  1  0.16698530  0.16482532  0.49904133  1
  Ti4+  Ti2  1  0.16451924  0.16818679  0.83463395  1
  Ti4+  Ti3  1  0.16724040  0.49787680  0.16607325  1
  Ti4+  Ti4  1  0.16928795  0.49837204  0.50105625  1
  Ti4+  Ti5  1  0.16520413  0.50244156  0.83218946  1
  Ti4+  Ti6  1  0.16886628  0.83498097  0.16677693  1
  Ti4+  Ti7  1  0.17048306  0.83382791  0.49923410  1
  Ti4+  Ti8  1  0.16139715  0.83737700  0.83809363  1
  Ti4+  Ti9  1  0.50141628  0.16494466  0.16458368  1
  Ti4+  Ti10  1  0.50054805  0.16359263  0.49685781  1
  Ti4+  Ti11  1  0.49798604  0.16753022  0.83181161  1
  Ti4+  Ti12  1  0.50021169  0.49784331  0.16584828  1
  Ti4+  Ti13  1  0.49863932  0.49689442  0.50189591  1
  Ti4+  Ti14  1  0.50203479  0.49633414  0.83022634  1
  Ti4+  Ti15  1  0.50273493  0.82799174  0.16728135  1
  Ti4+  Ti16  1  0.49997583  0.82995902  0.49986746  1
  Ti4+  Ti17  1  0.49591909  0.83300961  0.83462372  1
  Ti4+  Ti18  1  0.83216603  0.17063402  0.17008489  1
  Ti4+  Ti19  1  0.83345978  0.16374706  0.50245751  1
  Ti4+  Ti20  1  0.83133907  0.16904918  0.83379841  1
  Ti4+  Ti21  1  0.83624848  0.50314418  0.16611757  1
  Ti4+  Ti22  1  0.83316345  0.50062422  0.50213007  1
  Ti4+  Ti23  1  0.83523140  0.50071634  0.82595689  1
  Ti4+  Ti24  1  0.83413004  0.83379383  0.16738410  1
  Ti4+  Ti25  1  0.83597429  0.83230451  0.49993151  1
  Ti4+  Ti26  1  0.82997182  0.83443946  0.83304067  1
  Cu+  Cu27  1  0.16218897  0.17023490  0.00151573  1
  Cu+  Cu28  1  0.17075965  0.16246560  0.33299042  1
  Cu+  Cu29  1  0.16490385  0.16571363  0.66434994  1
  Cu+  Cu30  1  0.16238246  0.50401379  0.00080460  1
  Cu+  Cu31  1  0.16818198  0.49712835  0.33242180  1
  Cu+  Cu32  1  0.17049185  0.49799790  0.66789897  1
  Cu+  Cu33  1  0.16391841  0.84361980  0.00138400  1
  Cu+  Cu34  1  0.16915360  0.83318726  0.33547211  1
  Cu+  Cu35  1  0.16682152  0.83515592  0.66797452  1
  Cu+  Cu36  1  0.49769483  0.17124928  -0.00102114  1
  Cu+  Cu37  1  0.50380260  0.16415444  0.32914104  1
  Cu+  Cu38  1  0.49674558  0.16190740  0.66193272  1
  Cu+  Cu39  1  0.50281418  0.49694827  0.00039336  1
  Cu+  Cu40  1  0.49821486  0.49647785  0.33433194  1
  Cu+  Cu41  1  0.50212792  0.49790624  0.66729991  1
  Cu+  Cu42  1  0.49724183  0.83012252  0.00212991  1
  Cu+  Cu43  1  0.50289326  0.82772659  0.33272686  1
  Cu+  Cu44  1  0.49654520  0.83291997  0.66660433  1
  Cu+  Cu45  1  0.82914011  0.17190071  0.00446296  1
  Cu+  Cu46  1  0.82955836  0.16963810  0.33829797  1
  Cu+  Cu47  1  0.83452498  0.16232831  0.66919533  1
  Cu+  Cu48  1  0.83638017  0.50295687  -0.00368837  1
  Cu+  Cu49  1  0.83274913  0.50005485  0.33387564  1
  Cu+  Cu50  1  0.83876910  0.50628437  0.66345496  1
  Cu+  Cu51  1  0.83065410  0.83709331  0.00095745  1
  Cu+  Cu52  1  0.83617561  0.83179145  0.33254739  1
  Cu+  Cu53  1  0.83377675  0.82971711  0.66583167  1
  Cu+  Cu54  1  0.16651928  0.00071456  0.16596628  1
  Cu+  Cu55  1  0.16943371  0.00113421  0.49318633  1
  Cu+  Cu56  1  0.16306470  0.00212089  0.84074079  1
  Cu+  Cu57  1  0.16502536  0.33153259  0.16470588  1
  Cu+  Cu58  1  0.16677266  0.33066162  0.50149851  1
  Cu+  Cu59  1  0.16601632  0.33579423  0.83291520  1
  Cu+  Cu60  1  0.16851687  0.66573682  0.16672350  1
  Cu+  Cu61  1  0.17321192  0.66690072  0.49913287  1
  Cu+  Cu62  1  0.16429958  0.67372441  0.83296588  1
  Cu+  Cu63  1  0.50159217  -0.00427940  0.16337011  1
  Cu+  Cu64  1  0.50096750  -0.00409556  0.49746811  1
  Cu+  Cu65  1  0.49651011  0.00200870  0.83382243  1
  Cu+  Cu66  1  0.49963959  0.33256957  0.16510914  1
  Cu+  Cu67  1  0.49709319  0.32938980  0.49793211  1
  Cu+  Cu68  1  0.50725300  0.33071906  0.83246056  1
  Cu+  Cu69  1  0.50168830  0.66297232  0.16813368  1
  Cu+  Cu70  1  0.49990631  0.66480915  0.50416977  1
  Cu+  Cu71  1  0.49481038  0.66511355  0.83169489  1
  Cu+  Cu72  1  0.83067843  0.00465528  0.17097489  1
  Cu+  Cu73  1  0.83542069  -0.00290603  0.50306997  1
  Cu+  Cu74  1  0.83305050  0.00420977  0.83324053  1
  Cu+  Cu75  1  0.83473212  0.33904341  0.16953623  1
  Cu+  Cu76  1  0.82865563  0.33093295  0.50278273  1
  Cu+  Cu77  1  0.83074232  0.33766605  0.82977102  1
  Cu+  Cu78  1  0.83537433  0.66893977  0.16669990  1
  Cu+  Cu79  1  0.83702524  0.66748813  0.50211017  1
  Cu+  Cu80  1  0.83413813  0.66715941  0.82649563  1
  Cu+  Cu81  1  -0.00091055  0.16943882  0.16815509  1
  Cu+  Cu82  1  -0.00053667  0.16494530  0.50278971  1
  Cu+  Cu83  1  -0.00207181  0.16530703  0.83340835  1
  Cu+  Cu84  1  0.00241943  0.50256954  0.16422614  1
  Cu+  Cu85  1  0.00416159  0.49896180  0.50250483  1
  Cu+  Cu86  1  -0.00305338  0.50285541  0.83110021  1
  Cu+  Cu87  1  0.00095062  0.83564885  0.16570419  1
  Cu+  Cu88  1  0.00605809  0.83614505  0.49751374  1
  Cu+  Cu89  1  -0.00848518  0.83642368  0.83727870  1
  Cu+  Cu90  1  0.33746053  0.16668130  0.16288884  1
  Cu+  Cu91  1  0.33319840  0.16074872  0.49501676  1
  Cu+  Cu92  1  0.33237435  0.16721428  0.83275633  1
  Cu+  Cu93  1  0.33247796  0.49635725  0.16711212  1
  Cu+  Cu94  1  0.33384568  0.49661104  0.50198182  1
  Cu+  Cu95  1  0.33272539  0.49865966  0.82858910  1
  Cu+  Cu96  1  0.33853629  0.83271432  0.16537462  1
  Cu+  Cu97  1  0.33512534  0.82890849  0.49742771  1
  Cu+  Cu98  1  0.32727800  0.83364870  0.83908594  1
  Cu+  Cu99  1  0.66511950  0.17081179  0.17286682  1
  Cu+  Cu100  1  0.66906981  0.16438367  0.49769970  1
  Cu+  Cu101  1  0.66405652  0.17167320  0.83581152  1
  Cu+  Cu102  1  0.66799622  0.50100062  0.16647550  1
  Cu+  Cu103  1  0.66313040  0.50082858  0.50538067  1
  Cu+  Cu104  1  0.67004220  0.49225933  0.82450589  1
  Cu+  Cu105  1  0.66791850  0.83037898  0.16919123  1
  Cu+  Cu106  1  0.66899630  0.82893736  0.50005834  1
  Cu+  Cu107  1  0.66152339  0.83362294  0.83482672  1
  Cu+  Cu108  1  0.40749249  0.26223073  0.07215541  1
  Cu+  Cu109  1  0.41348193  0.92368395  0.07535255  1
  Cu+  Cu110  1  0.25978951  0.93317423  0.92432495  1
  Cu+  Cu111  1  0.92742072  0.40610004  0.73711423  1
  Cu+  Cu112  1  0.92260807  0.59466352  0.92305785  1
  Cu+  Cu113  1  0.92507398  0.74583207  0.74020768  1
  Cu+  Cu114  1  0.25734658  0.75029851  0.74187934  1
  Cu+  Cu115  1  0.26516698  0.07388659  0.40155415  1
  Cu+  Cu116  1  0.58981970  0.59573135  0.59213597  1
  Cu+  Cu117  1  0.07053956  0.92956727  0.07828680  1
  Cu+  Cu118  1  0.59353599  0.25586481  0.92838210  1
  Cu+  Cu119  1  0.93599646  0.59719597  0.57951687  1
  Cu+  Cu120  1  0.92739415  0.07481518  0.74011675  1
  Cu+  Cu121  1  0.06873251  0.26027827  0.07587672  1
  Cu+  Cu122  1  0.07680603  0.59700468  0.07754496  1
  Cu+  Cu123  1  0.59485705  0.39973470  0.73506448  1
  Cu+  Cu124  1  0.91061478  0.93443140  0.93109299  1
  Cu+  Cu125  1  0.26025357  0.40313379  0.74168564  1
  Cu+  Cu126  1  0.07436883  0.92896973  0.40738941  1
  Cu+  Cu127  1  0.74078180  0.26252655  0.41187076  1
  Cu+  Cu128  1  0.58596362  0.26360913  0.26033815  1
  Cu+  Cu129  1  0.74069535  0.59630524  0.74074927  1
  Cu+  Cu130  1  0.74615337  0.41302110  0.92835088  1
  Cu+  Cu131  1  0.26260619  0.73528102  0.40352907  1
  Cu+  Cu132  1  0.40591672  0.59099317  0.74075127  1
  Te2-  Te133  1  0.25400336  0.25299221  0.07933231  1
  Te2-  Te134  1  0.25236710  0.25164204  0.41410083  1
  Te2-  Te135  1  0.25048718  0.25114108  0.74676749  1
  Te2-  Te136  1  0.25382827  0.58404065  0.08104933  1
  Te2-  Te137  1  0.25587388  0.58194454  0.41284440  1
  Te2-  Te138  1  0.25099228  0.59197519  0.74639767  1
  Te2-  Te139  1  0.25743921  0.92315863  0.08159503  1
  Te2-  Te140  1  0.25914191  0.91920350  0.41161213  1
  Te2-  Te141  1  0.24871231  0.92258557  0.75219460  1
  Te2-  Te142  1  0.58928415  0.25413243  0.08008855  1
  Te2-  Te143  1  0.58767427  0.25353803  0.41243257  1
  Te2-  Te144  1  0.58549025  0.24821774  0.73997866  1
  Te2-  Te145  1  0.58582881  0.58342047  0.08076002  1
  Te2-  Te146  1  0.58310039  0.58313742  0.41554328  1
  Te2-  Te147  1  0.58774212  0.58924767  0.74667707  1
  Te2-  Te148  1  0.58845732  0.91355420  0.08012934  1
  Te2-  Te149  1  0.58680385  0.91306436  0.41473616  1
  Te2-  Te150  1  0.58009053  0.91838797  0.74964478  1
  Te2-  Te151  1  0.91710373  0.25664999  0.08255340  1
  Te2-  Te152  1  0.91880130  0.25202077  0.41872385  1
  Te2-  Te153  1  0.91896480  0.25328125  0.74719627  1
  Te2-  Te154  1  0.92164917  0.59099569  0.07796563  1
  Te2-  Te155  1  0.92023392  0.58346896  0.41632207  1
  Te2-  Te156  1  0.92726818  0.59209424  0.73980002  1
  Te2-  Te157  1  0.91791313  0.92621737  0.08241342  1
  Te2-  Te158  1  0.91997024  0.91923992  0.41339334  1
  Te2-  Te159  1  0.91715235  0.92081765  0.74489443  1
  Te2-  Te160  1  0.25679001  0.07945341  0.24824911  1
  Te2-  Te161  1  0.25135213  0.07917704  0.58544340  1
  Te2-  Te162  1  0.25141857  0.08563629  0.92264369  1
  Te2-  Te163  1  0.25082421  0.41091232  0.25081868  1
  Te2-  Te164  1  0.25407515  0.41027846  0.58700148  1
  Te2-  Te165  1  0.24906462  0.41917342  0.91897922  1
  Te2-  Te166  1  0.25494535  0.74769700  0.25038616  1
  Te2-  Te167  1  0.25481005  0.74799642  0.58868461  1
  Te2-  Te168  1  0.24526755  0.74996782  0.92522818  1
  Te2-  Te169  1  0.58565761  0.07591799  0.24874859  1
  Te2-  Te170  1  0.58534732  0.07898838  0.58171776  1
  Te2-  Te171  1  0.58279811  0.08269039  0.91919534  1
  Te2-  Te172  1  0.58724009  0.41465812  0.25285878  1
  Te2-  Te173  1  0.58491051  0.40686849  0.58446692  1
  Te2-  Te174  1  0.59050942  0.41245425  0.92140719  1
  Te2-  Te175  1  0.58804810  0.74296406  0.25276323  1
  Te2-  Te176  1  0.58651470  0.74799954  0.58935792  1
  Te2-  Te177  1  0.58008303  0.74586186  0.91779980  1
  Te2-  Te178  1  0.91687746  0.08618540  0.25540890  1
  Te2-  Te179  1  0.92128195  0.07723890  0.58755139  1
  Te2-  Te180  1  0.91580173  0.08688704  0.92472654  1
  Te2-  Te181  1  0.92126756  0.41941507  0.25229346  1
  Te2-  Te182  1  0.91960954  0.41063402  0.58417883  1
  Te2-  Te183  1  0.91983782  0.41364979  0.91635267  1
  Te2-  Te184  1  0.92209412  0.74914775  0.25042126  1
  Te2-  Te185  1  0.92768373  0.74874577  0.58594555  1
  Te2-  Te186  1  0.91427158  0.74651732  0.92162131  1
  Te2-  Te187  1  0.08451252  0.24972822  0.25485904  1
  Te2-  Te188  1  0.08089205  0.25053750  0.58481109  1
  Te2-  Te189  1  0.07751969  0.25514093  0.91773644  1
  Te2-  Te190  1  0.08377596  0.58462111  0.25322327  1
  Te2-  Te191  1  0.08726185  0.58748898  0.58717539  1
  Te2-  Te192  1  0.07805272  0.59084231  0.91810604  1
  Te2-  Te193  1  0.08250410  0.91957395  0.25386432  1
  Te2-  Te194  1  0.08593671  0.92106150  0.58480851  1
  Te2-  Te195  1  0.07003609  0.92501077  0.92279998  1
  Te2-  Te196  1  0.41556870  0.25034931  0.25232365  1
  Te2-  Te197  1  0.41237867  0.24620510  0.58055424  1
  Te2-  Te198  1  0.41124194  0.25686475  0.91607391  1
  Te2-  Te199  1  0.41470614  0.58133780  0.25144178  1
  Te2-  Te200  1  0.41148861  0.58369847  0.58814047  1
  Te2-  Te201  1  0.41590200  0.57897723  0.91798195  1
  Te2-  Te202  1  0.41861614  0.91557130  0.25359194  1
  Te2-  Te203  1  0.41385384  0.91676850  0.58255460  1
  Te2-  Te204  1  0.41219705  0.92141774  0.92150788  1
  Te2-  Te205  1  0.74635978  0.25955144  0.25615282  1
  Te2-  Te206  1  0.74699755  0.24697433  0.58987185  1
  Te2-  Te207  1  0.74701409  0.25807633  0.92133095  1
  Te2-  Te208  1  0.75012888  0.58625354  0.25116190  1
  Te2-  Te209  1  0.74523291  0.59045495  0.58673902  1
  Te2-  Te210  1  0.74575557  0.58444875  0.91284506  1
  Te2-  Te211  1  0.74898922  0.91711312  0.25331599  1
  Te2-  Te212  1  0.74926474  0.91461012  0.58539996  1
  Te2-  Te213  1  0.74451055  0.92080944  0.91780464  1
  Te2-  Te214  1  0.07820870  0.08151711  0.08160918  1
  Te2-  Te215  1  0.07701872  0.08180211  0.41136723  1
  Te2-  Te216  1  0.08151419  0.07981362  0.74864515  1
  Te2-  Te217  1  0.07914601  0.41246505  0.07844179  1
  Te2-  Te218  1  0.08335276  0.41422495  0.41662333  1
  Te2-  Te219  1  0.07905616  0.41553585  0.74674574  1
  Te2-  Te220  1  0.08267116  0.74969087  0.08085367  1
  Te2-  Te221  1  0.08431768  0.74553747  0.41526613  1
  Te2-  Te222  1  0.07646714  0.75267723  0.74873827  1
  Te2-  Te223  1  0.41558741  0.07886143  0.07737708  1
  Te2-  Te224  1  0.41827818  0.07692848  0.40877609  1
  Te2-  Te225  1  0.41213743  0.08158360  0.74793518  1
  Te2-  Te226  1  0.41299385  0.41354527  0.07846532  1
  Te2-  Te227  1  0.41338046  0.41260510  0.41545114  1
  Te2-  Te228  1  0.41550583  0.40770843  0.74642009  1
  Te2-  Te229  1  0.41509592  0.74157468  0.08267517  1
  Te2-  Te230  1  0.41628510  0.74138708  0.41303306  1
  Te2-  Te231  1  0.40892605  0.74825100  0.74725602  1
  Te2-  Te232  1  0.74564937  0.08598205  0.08601354  1
  Te2-  Te233  1  0.75034957  0.07572874  0.41638179  1
  Te2-  Te234  1  0.74325327  0.08376175  0.75218800  1
  Te2-  Te235  1  0.75005132  0.41716762  0.08108992  1
  Te2-  Te236  1  0.74503138  0.41729015  0.41694495  1
  Te2-  Te237  1  0.75012798  0.41130520  0.73387790  1
  Te2-  Te238  1  0.74955106  0.74882907  0.08131303  1
  Te2-  Te239  1  0.75241521  0.74577891  0.41515698  1
  Te2-  Te240  1  0.74158861  0.75014458  0.74625952  1
