# generated using pymatgen
data_Ti27(Cu53Te54)2
_symmetry_space_group_name_H-M   'P 1'
_cell_length_a   17.87634871
_cell_length_b   17.88090813
_cell_length_c   17.87584634
_cell_angle_alpha   90.05059784
_cell_angle_beta   90.01298621
_cell_angle_gamma   89.99520945
_symmetry_Int_Tables_number   1
_chemical_formula_structural   Ti27(Cu53Te54)2
_chemical_formula_sum   'Ti27 Cu106 Te108'
_cell_volume   5713.92875092
_cell_formula_units_Z   1
loop_
 _symmetry_equiv_pos_site_id
 _symmetry_equiv_pos_as_xyz
  1  'x, y, z'
loop_
 _atom_type_symbol
 _atom_type_oxidation_number
  Ti4+  4.0
  Cu+  1.0
  Te2-  -2.0
loop_
 _atom_site_type_symbol
 _atom_site_label
 _atom_site_symmetry_multiplicity
 _atom_site_fract_x
 _atom_site_fract_y
 _atom_site_fract_z
 _atom_site_occupancy
  Ti4+  Ti0  1  0.16624659  0.16850502  0.16684950  1
  Ti4+  Ti1  1  0.16432409  0.17072145  0.49796118  1
  Ti4+  Ti2  1  0.16687043  0.16430288  0.83400300  1
  Ti4+  Ti3  1  0.16749052  0.50134696  0.16641945  1
  Ti4+  Ti4  1  0.16893121  0.50229607  0.49741852  1
  Ti4+  Ti5  1  0.16820353  0.50172256  0.83295862  1
  Ti4+  Ti6  1  0.16827852  0.83478826  0.16711646  1
  Ti4+  Ti7  1  0.16346908  0.83749693  0.50152169  1
  Ti4+  Ti8  1  0.16550574  0.83356944  0.83260659  1
  Ti4+  Ti9  1  0.50138111  0.16587769  0.16496256  1
  Ti4+  Ti10  1  0.50139874  0.16693190  0.50554265  1
  Ti4+  Ti11  1  0.50113659  0.16229972  0.83457024  1
  Ti4+  Ti12  1  0.50236738  0.50280315  0.16475329  1
  Ti4+  Ti13  1  0.49691154  0.49606233  0.49853980  1
  Ti4+  Ti14  1  0.49783022  0.49815574  0.83133383  1
  Ti4+  Ti15  1  0.50143036  0.83453390  0.16635280  1
  Ti4+  Ti16  1  0.49841813  0.83426821  0.50219683  1
  Ti4+  Ti17  1  0.50008037  0.83046345  0.83218188  1
  Ti4+  Ti18  1  0.83315047  0.16585570  0.16807860  1
  Ti4+  Ti19  1  0.83341780  0.16929734  0.50094601  1
  Ti4+  Ti20  1  0.83438409  0.16565828  0.83576032  1
  Ti4+  Ti21  1  0.83126502  0.50090714  0.16740200  1
  Ti4+  Ti22  1  0.83734197  0.49768463  0.50128190  1
  Ti4+  Ti23  1  0.83300535  0.49859049  0.83258212  1
  Ti4+  Ti24  1  0.83470425  0.83233128  0.16490088  1
  Ti4+  Ti25  1  0.83079551  0.83065058  0.50007573  1
  Ti4+  Ti26  1  0.83384552  0.83202786  0.83219546  1
  Cu+  Cu27  1  0.17087219  0.16382339  0.00031941  1
  Cu+  Cu28  1  0.15757656  0.17095737  0.32977727  1
  Cu+  Cu29  1  0.16764726  0.16330343  0.66478154  1
  Cu+  Cu30  1  0.16703338  0.50013703  -0.00091985  1
  Cu+  Cu31  1  0.17749784  0.50669113  0.32870820  1
  Cu+  Cu32  1  0.16742580  0.50138388  0.66702259  1
  Cu+  Cu33  1  0.16886652  0.83211267  0.00077533  1
  Cu+  Cu34  1  0.16903760  0.83643515  0.33758994  1
  Cu+  Cu35  1  0.15679515  0.83615342  0.66735854  1
  Cu+  Cu36  1  0.50053695  0.16230259  -0.00246113  1
  Cu+  Cu37  1  0.50502094  0.16643441  0.33507718  1
  Cu+  Cu38  1  0.49797505  0.16856994  0.67433637  1
  Cu+  Cu39  1  0.50154938  0.50128895  -0.00227098  1
  Cu+  Cu40  1  0.49726521  0.49728122  0.32599918  1
  Cu+  Cu41  1  0.49355782  0.49914907  0.66571255  1
  Cu+  Cu42  1  0.50484089  0.82899679  0.00055863  1
  Cu+  Cu43  1  0.49835323  0.83519721  0.33483930  1
  Cu+  Cu44  1  0.49846767  0.83652787  0.66633722  1
  Cu+  Cu45  1  0.83127507  0.16838688  0.00475443  1
  Cu+  Cu46  1  0.83576508  0.16730846  0.33359890  1
  Cu+  Cu47  1  0.83413854  0.16720108  0.66845582  1
  Cu+  Cu48  1  0.83374811  0.50118255  -0.00117106  1
  Cu+  Cu49  1  0.83343697  0.50244558  0.33674408  1
  Cu+  Cu50  1  0.83218931  0.49592526  0.66743147  1
  Cu+  Cu51  1  0.83830476  0.83669573  -0.00420859  1
  Cu+  Cu52  1  0.83100053  0.82960569  0.33201238  1
  Cu+  Cu53  1  0.83304977  0.82978997  0.66696376  1
  Cu+  Cu54  1  0.16932170  0.00257033  0.16750134  1
  Cu+  Cu55  1  0.16319523  0.00584052  0.50251497  1
  Cu+  Cu56  1  0.16309554  -0.00319255  0.82964526  1
  Cu+  Cu57  1  0.16580585  0.33431655  0.16271289  1
  Cu+  Cu58  1  0.16130918  0.33554026  0.49330177  1
  Cu+  Cu59  1  0.16891088  0.33304026  0.83464621  1
  Cu+  Cu60  1  0.16920222  0.66568586  0.17027024  1
  Cu+  Cu61  1  0.16714653  0.67450042  0.49892241  1
  Cu+  Cu62  1  0.16720536  0.66785711  0.83389805  1
  Cu+  Cu63  1  0.50160254  -0.00014492  0.16702737  1
  Cu+  Cu64  1  0.50560086  -0.00143114  0.50785375  1
  Cu+  Cu65  1  0.49871460  -0.00398386  0.83278323  1
  Cu+  Cu66  1  0.50267163  0.33516504  0.16501952  1
  Cu+  Cu67  1  0.49410536  0.33068786  0.50199566  1
  Cu+  Cu68  1  0.49964548  0.32870700  0.83219200  1
  Cu+  Cu69  1  0.50604127  0.67149239  0.15998495  1
  Cu+  Cu70  1  0.49801042  0.66574786  0.49903807  1
  Cu+  Cu71  1  0.49826302  0.66214741  0.82998876  1
  Cu+  Cu72  1  0.83465495  -0.00147536  0.16556883  1
  Cu+  Cu73  1  0.82974582  0.00048585  0.49935946  1
  Cu+  Cu74  1  0.83826173  -0.00179428  0.83708680  1
  Cu+  Cu75  1  0.83071390  0.33227403  0.16548013  1
  Cu+  Cu76  1  0.83730921  0.33423653  0.50900557  1
  Cu+  Cu77  1  0.83292231  0.33392004  0.83484209  1
  Cu+  Cu78  1  0.83054419  0.66911404  0.17003054  1
  Cu+  Cu79  1  0.83333589  0.66062680  0.49433506  1
  Cu+  Cu80  1  0.83315776  0.66479707  0.83168928  1
  Cu+  Cu81  1  -0.00036398  0.16327845  0.17143672  1
  Cu+  Cu82  1  -0.00064635  0.17545830  0.50031358  1
  Cu+  Cu83  1  0.00147445  0.16581782  0.83590997  1
  Cu+  Cu84  1  -0.00182821  0.49980075  0.16757623  1
  Cu+  Cu85  1  0.00598776  0.49773301  0.50305480  1
  Cu+  Cu86  1  -0.00079517  0.50097895  0.83373715  1
  Cu+  Cu87  1  0.00234101  0.83258891  0.16533935  1
  Cu+  Cu88  1  -0.00363026  0.83170803  0.50326450  1
  Cu+  Cu89  1  -0.00253765  0.83842219  0.83454217  1
  Cu+  Cu90  1  0.32937593  0.16415316  0.16415315  1
  Cu+  Cu91  1  0.33695913  0.17109776  0.49564741  1
  Cu+  Cu92  1  0.33269686  0.16253761  0.83402716  1
  Cu+  Cu93  1  0.33615868  0.50429733  0.16834269  1
  Cu+  Cu94  1  0.33165369  0.49240151  0.49586282  1
  Cu+  Cu95  1  0.33226178  0.50316474  0.82996500  1
  Cu+  Cu96  1  0.33767133  0.83659018  0.16828747  1
  Cu+  Cu97  1  0.32916991  0.83543559  0.50030856  1
  Cu+  Cu98  1  0.33412938  0.83412022  0.83096202  1
  Cu+  Cu99  1  0.66817076  0.16983983  0.16422064  1
  Cu+  Cu100  1  0.66867599  0.16257536  0.50560897  1
  Cu+  Cu101  1  0.66642648  0.16192722  0.83705747  1
  Cu+  Cu102  1  0.66627367  0.50211879  0.16573447  1
  Cu+  Cu103  1  0.66621172  0.49688483  0.49932220  1
  Cu+  Cu104  1  0.66450728  0.49777622  0.83273531  1
  Cu+  Cu105  1  0.66745140  0.82871068  0.16297385  1
  Cu+  Cu106  1  0.66105473  0.83310700  0.50224868  1
  Cu+  Cu107  1  0.67023778  0.82942098  0.83306680  1
  Cu+  Cu108  1  0.06725031  0.26581044  0.40005869  1
  Cu+  Cu109  1  0.25248170  0.40434022  0.40273786  1
  Cu+  Cu110  1  0.26807063  0.59927178  0.25407964  1
  Cu+  Cu111  1  0.25964324  0.07155343  0.07104355  1
  Cu+  Cu112  1  0.59513732  0.92224481  0.59886525  1
  Cu+  Cu113  1  0.40466083  0.92620203  0.74012927  1
  Cu+  Cu114  1  0.06924990  0.74010979  0.59499549  1
  Cu+  Cu115  1  0.06637340  0.92723804  0.74127275  1
  Cu+  Cu116  1  0.07226794  0.06852066  0.25566521  1
  Cu+  Cu117  1  0.73585204  0.41027912  0.59473757  1
  Cu+  Cu118  1  0.60017844  0.74006547  0.06642541  1
  Cu+  Cu119  1  0.92658708  0.25842297  0.60181158  1
  Cu+  Cu120  1  0.40177644  0.25798057  0.75202233  1
  Cu+  Cu121  1  0.26008748  0.74768416  0.40882487  1
  Cu+  Cu122  1  0.40674295  0.40313229  0.24470292  1
  Cu+  Cu123  1  0.07212270  0.07949249  0.59127518  1
  Cu+  Cu124  1  0.73652686  0.74436756  0.26034700  1
  Cu+  Cu125  1  0.40425985  0.59524048  0.73776633  1
  Cu+  Cu126  1  0.73815556  0.26312095  0.07388943  1
  Cu+  Cu127  1  0.92975811  0.93091193  0.92994589  1
  Cu+  Cu128  1  0.41507069  0.25285238  0.40281900  1
  Cu+  Cu129  1  0.74442406  0.07238525  0.59698164  1
  Cu+  Cu130  1  0.08035147  0.41032683  0.59771376  1
  Cu+  Cu131  1  0.73637710  0.58608411  0.41031528  1
  Cu+  Cu132  1  0.40294323  0.40649720  0.59429035  1
  Te2-  Te133  1  0.25259448  0.25411917  0.07985322  1
  Te2-  Te134  1  0.25391139  0.25309359  0.40822675  1
  Te2-  Te135  1  0.25013175  0.25068821  0.74662886  1
  Te2-  Te136  1  0.25340977  0.58592378  0.08046713  1
  Te2-  Te137  1  0.25851418  0.59267008  0.41502263  1
  Te2-  Te138  1  0.25129827  0.58992604  0.74393422  1
  Te2-  Te139  1  0.25479442  0.91897620  0.08094887  1
  Te2-  Te140  1  0.24977635  0.92629905  0.41811550  1
  Te2-  Te141  1  0.25125266  0.91876992  0.74390464  1
  Te2-  Te142  1  0.58354988  0.25328300  0.07699569  1
  Te2-  Te143  1  0.58823881  0.25152206  0.42104711  1
  Te2-  Te144  1  0.58974082  0.24913102  0.75118748  1
  Te2-  Te145  1  0.58984323  0.58607819  0.07597880  1
  Te2-  Te146  1  0.58162649  0.58237223  0.41277683  1
  Te2-  Te147  1  0.58453412  0.58151062  0.74439792  1
  Te2-  Te148  1  0.58777922  0.91933308  0.08064323  1
  Te2-  Te149  1  0.58424807  0.91936508  0.41484586  1
  Te2-  Te150  1  0.59007983  0.91760430  0.75020418  1
  Te2-  Te151  1  0.92175645  0.25066498  0.08442094  1
  Te2-  Te152  1  0.91642785  0.25829945  0.41153790  1
  Te2-  Te153  1  0.92109707  0.25307680  0.75216722  1
  Te2-  Te154  1  0.91613283  0.58670640  0.08377702  1
  Te2-  Te155  1  0.92609778  0.58190350  0.41596103  1
  Te2-  Te156  1  0.91800154  0.58357111  0.74622747  1
  Te2-  Te157  1  0.92303640  0.92030525  0.08183812  1
  Te2-  Te158  1  0.91443579  0.91604617  0.41554110  1
  Te2-  Te159  1  0.91661328  0.92118286  0.74188574  1
  Te2-  Te160  1  0.25083512  0.08459685  0.25784855  1
  Te2-  Te161  1  0.25516864  0.08614716  0.57999731  1
  Te2-  Te162  1  0.25257785  0.07462985  0.91629347  1
  Te2-  Te163  1  0.25534755  0.40847293  0.25027787  1
  Te2-  Te164  1  0.24946414  0.41038693  0.58609348  1
  Te2-  Te165  1  0.25393215  0.41644413  0.91781055  1
  Te2-  Te166  1  0.25693292  0.75064577  0.25462550  1
  Te2-  Te167  1  0.24915376  0.75301790  0.59012568  1
  Te2-  Te168  1  0.25345837  0.74970073  0.91694618  1
  Te2-  Te169  1  0.58770825  0.08352543  0.25018711  1
  Te2-  Te170  1  0.58749233  0.08113872  0.59626247  1
  Te2-  Te171  1  0.58545621  0.07457921  0.91935859  1
  Te2-  Te172  1  0.58867820  0.41501826  0.25021037  1
  Te2-  Te173  1  0.58308453  0.41248537  0.58631950  1
  Te2-  Te174  1  0.58250540  0.41222891  0.91678984  1
  Te2-  Te175  1  0.58467820  0.74738575  0.25677836  1
  Te2-  Te176  1  0.58186134  0.74497638  0.58730250  1
  Te2-  Te177  1  0.58731968  0.74221910  0.91418039  1
  Te2-  Te178  1  0.91771042  0.07646848  0.25593856  1
  Te2-  Te179  1  0.92035979  0.08074790  0.58480782  1
  Te2-  Te180  1  0.92078992  0.08362421  0.92456643  1
  Te2-  Te181  1  0.91484463  0.41496944  0.25225303  1
  Te2-  Te182  1  0.92683686  0.41378438  0.59278019  1
  Te2-  Te183  1  0.91912214  0.41484016  0.91917242  1
  Te2-  Te184  1  0.92160277  0.74844646  0.25150281  1
  Te2-  Te185  1  0.91478749  0.74202424  0.58547628  1
  Te2-  Te186  1  0.92019674  0.74549728  0.91621135  1
  Te2-  Te187  1  0.07621882  0.26061791  0.24828810  1
  Te2-  Te188  1  0.08181279  0.25798563  0.59160281  1
  Te2-  Te189  1  0.08481426  0.25009209  0.92021103  1
  Te2-  Te190  1  0.08047587  0.58486803  0.25291491  1
  Te2-  Te191  1  0.08416860  0.58914674  0.58498583  1
  Te2-  Te192  1  0.08201717  0.58599210  0.91826556  1
  Te2-  Te193  1  0.08183551  0.91796093  0.25400158  1
  Te2-  Te194  1  0.07281111  0.92580291  0.58598820  1
  Te2-  Te195  1  0.08243584  0.91984776  0.92346714  1
  Te2-  Te196  1  0.41236913  0.25059611  0.25111446  1
  Te2-  Te197  1  0.40923619  0.25191131  0.59287296  1
  Te2-  Te198  1  0.41386342  0.24884282  0.91930661  1
  Te2-  Te199  1  0.41982703  0.59487386  0.25122892  1
  Te2-  Te200  1  0.40882680  0.58511916  0.58116510  1
  Te2-  Te201  1  0.41387192  0.58459974  0.91870054  1
  Te2-  Te202  1  0.41667488  0.92132602  0.25337395  1
  Te2-  Te203  1  0.40850383  0.92176934  0.58568339  1
  Te2-  Te204  1  0.41694442  0.91410600  0.92130532  1
  Te2-  Te205  1  0.74790093  0.25189269  0.25474957  1
  Te2-  Te206  1  0.74529207  0.25426017  0.58975558  1
  Te2-  Te207  1  0.74678876  0.25200823  0.91914459  1
  Te2-  Te208  1  0.74322576  0.58764832  0.25578132  1
  Te2-  Te209  1  0.74837973  0.58358344  0.58536633  1
  Te2-  Te210  1  0.74685165  0.58402441  0.91670048  1
  Te2-  Te211  1  0.74709263  0.91710097  0.24936793  1
  Te2-  Te212  1  0.74697659  0.91822136  0.58915010  1
  Te2-  Te213  1  0.74687261  0.91816718  0.91755804  1
  Te2-  Te214  1  0.08065389  0.08148504  0.08108776  1
  Te2-  Te215  1  0.07571212  0.08282033  0.41391581  1
  Te2-  Te216  1  0.07639295  0.08077542  0.74545212  1
  Te2-  Te217  1  0.08060006  0.41749154  0.08074876  1
  Te2-  Te218  1  0.08212739  0.42120108  0.40429339  1
  Te2-  Te219  1  0.08133312  0.41367533  0.75006818  1
  Te2-  Te220  1  0.08562177  0.74665867  0.08327831  1
  Te2-  Te221  1  0.07828323  0.75155273  0.41336306  1
  Te2-  Te222  1  0.07562352  0.74584805  0.75032344  1
  Te2-  Te223  1  0.41507823  0.07873032  0.08032299  1
  Te2-  Te224  1  0.42039999  0.07940773  0.41844136  1
  Te2-  Te225  1  0.41185637  0.07685437  0.74685962  1
  Te2-  Te226  1  0.41480985  0.41745024  0.07999141  1
  Te2-  Te227  1  0.41159266  0.40885048  0.40548851  1
  Te2-  Te228  1  0.40803548  0.40914638  0.74670699  1
  Te2-  Te229  1  0.41312995  0.74973685  0.08083410  1
  Te2-  Te230  1  0.41334859  0.74845565  0.41447975  1
  Te2-  Te231  1  0.41325826  0.74653470  0.74386730  1
  Te2-  Te232  1  0.74761249  0.07871206  0.08258379  1
  Te2-  Te233  1  0.74845490  0.08402470  0.41345832  1
  Te2-  Te234  1  0.75018640  0.07805021  0.75070813  1
  Te2-  Te235  1  0.74616285  0.41642832  0.07886106  1
  Te2-  Te236  1  0.75138750  0.41024002  0.41650853  1
  Te2-  Te237  1  0.74445945  0.41028719  0.74815515  1
  Te2-  Te238  1  0.75235693  0.74653764  0.07306009  1
  Te2-  Te239  1  0.74136280  0.74470615  0.41551424  1
  Te2-  Te240  1  0.74820029  0.74500237  0.74648147  1
