# generated using pymatgen
data_Ti27(Cu53Te54)2
_symmetry_space_group_name_H-M   'P 1'
_cell_length_a   17.88751953
_cell_length_b   17.89216343
_cell_length_c   17.88534838
_cell_angle_alpha   90.00838348
_cell_angle_beta   90.03439337
_cell_angle_gamma   90.00142438
_symmetry_Int_Tables_number   1
_chemical_formula_structural   Ti27(Cu53Te54)2
_chemical_formula_sum   'Ti27 Cu106 Te108'
_cell_volume   5724.14067310
_cell_formula_units_Z   1
loop_
 _symmetry_equiv_pos_site_id
 _symmetry_equiv_pos_as_xyz
  1  'x, y, z'
loop_
 _atom_type_symbol
 _atom_type_oxidation_number
  Ti4+  4.0
  Cu+  1.0
  Te2-  -2.0
loop_
 _atom_site_type_symbol
 _atom_site_label
 _atom_site_symmetry_multiplicity
 _atom_site_fract_x
 _atom_site_fract_y
 _atom_site_fract_z
 _atom_site_occupancy
  Ti4+  Ti0  1  0.16655844  0.16410194  0.16662653  1
  Ti4+  Ti1  1  0.16859058  0.16839359  0.49765134  1
  Ti4+  Ti2  1  0.16395523  0.16655439  0.83296337  1
  Ti4+  Ti3  1  0.16644231  0.49916529  0.16793919  1
  Ti4+  Ti4  1  0.16801099  0.49994016  0.49957369  1
  Ti4+  Ti5  1  0.16741320  0.50027189  0.83614478  1
  Ti4+  Ti6  1  0.16652650  0.83211289  0.16722219  1
  Ti4+  Ti7  1  0.16975352  0.83555332  0.50152900  1
  Ti4+  Ti8  1  0.16538449  0.83229759  0.83066650  1
  Ti4+  Ti9  1  0.49891700  0.16752731  0.16800219  1
  Ti4+  Ti10  1  0.50284315  0.16848085  0.49910867  1
  Ti4+  Ti11  1  0.49816726  0.16338649  0.83302156  1
  Ti4+  Ti12  1  0.49962153  0.50207731  0.16835887  1
  Ti4+  Ti13  1  0.49791688  0.50404180  0.50569204  1
  Ti4+  Ti14  1  0.50016076  0.49606270  0.83410646  1
  Ti4+  Ti15  1  0.50025287  0.83326890  0.16613304  1
  Ti4+  Ti16  1  0.49937039  0.83472872  0.50412320  1
  Ti4+  Ti17  1  0.50223193  0.83255417  0.83121887  1
  Ti4+  Ti18  1  0.82912234  0.16583723  0.16326017  1
  Ti4+  Ti19  1  0.83263020  0.16459323  0.49763050  1
  Ti4+  Ti20  1  0.83390811  0.16691616  0.83473178  1
  Ti4+  Ti21  1  0.83145634  0.50101580  0.16403127  1
  Ti4+  Ti22  1  0.83199007  0.50096329  0.49932065  1
  Ti4+  Ti23  1  0.83682124  0.50009840  0.83351578  1
  Ti4+  Ti24  1  0.83272869  0.83473352  0.16671848  1
  Ti4+  Ti25  1  0.83525875  0.83182080  0.50409026  1
  Ti4+  Ti26  1  0.83580944  0.83190999  0.82975441  1
  Cu+  Cu27  1  0.16377273  0.16334802  -0.00062134  1
  Cu+  Cu28  1  0.17303479  0.16598464  0.33198923  1
  Cu+  Cu29  1  0.16599928  0.17211211  0.66485983  1
  Cu+  Cu30  1  0.16703016  0.49771792  0.00345045  1
  Cu+  Cu31  1  0.16597536  0.50039646  0.33325519  1
  Cu+  Cu32  1  0.16741756  0.50079026  0.67064863  1
  Cu+  Cu33  1  0.16483469  0.83115999  -0.00029507  1
  Cu+  Cu34  1  0.17076726  0.83423928  0.33285570  1
  Cu+  Cu35  1  0.16007467  0.83477534  0.66499427  1
  Cu+  Cu36  1  0.49984921  0.16349425  0.00171682  1
  Cu+  Cu37  1  0.50462980  0.17353326  0.32981931  1
  Cu+  Cu38  1  0.49885321  0.16330727  0.66493498  1
  Cu+  Cu39  1  0.50180894  0.49857110  0.00173834  1
  Cu+  Cu40  1  0.49875307  0.50671136  0.34037949  1
  Cu+  Cu41  1  0.49594479  0.49620682  0.67011638  1
  Cu+  Cu42  1  0.50021809  0.83081646  -0.00278577  1
  Cu+  Cu43  1  0.50190632  0.83522872  0.33076671  1
  Cu+  Cu44  1  0.49856339  0.83860793  0.66783755  1
  Cu+  Cu45  1  0.83524687  0.16385667  -0.00261101  1
  Cu+  Cu46  1  0.82611026  0.16479668  0.33156490  1
  Cu+  Cu47  1  0.83545143  0.16505830  0.66583608  1
  Cu+  Cu48  1  0.83396377  0.50221277  -0.00442368  1
  Cu+  Cu49  1  0.83104893  0.50302776  0.32940738  1
  Cu+  Cu50  1  0.83382257  0.49753708  0.66560006  1
  Cu+  Cu51  1  0.83520910  0.83610601  0.00039820  1
  Cu+  Cu52  1  0.83559934  0.83559238  0.33649175  1
  Cu+  Cu53  1  0.83446086  0.82288059  0.66684456  1
  Cu+  Cu54  1  0.16572288  -0.00531883  0.16683001  1
  Cu+  Cu55  1  0.17430889  0.00459437  0.49583511  1
  Cu+  Cu56  1  0.16087080  -0.00177241  0.83019024  1
  Cu+  Cu57  1  0.16747377  0.33069747  0.16882904  1
  Cu+  Cu58  1  0.16772750  0.33526556  0.49852190  1
  Cu+  Cu59  1  0.16466305  0.33531104  0.83451430  1
  Cu+  Cu60  1  0.16631591  0.66601516  0.16710848  1
  Cu+  Cu61  1  0.17008734  0.66694950  0.50232260  1
  Cu+  Cu62  1  0.16969667  0.66390037  0.83508225  1
  Cu+  Cu63  1  0.49830350  -0.00164016  0.16421065  1
  Cu+  Cu64  1  0.50337425  0.00481808  0.50673313  1
  Cu+  Cu65  1  0.49758630  -0.00495355  0.82766038  1
  Cu+  Cu66  1  0.50126747  0.33676734  0.16890944  1
  Cu+  Cu67  1  0.50052598  0.34029396  0.50267674  1
  Cu+  Cu68  1  0.49942139  0.32595763  0.83408731  1
  Cu+  Cu69  1  0.49980954  0.66965648  0.16910890  1
  Cu+  Cu70  1  0.49100694  0.66845692  0.50364681  1
  Cu+  Cu71  1  0.50312002  0.66203759  0.83342941  1
  Cu+  Cu72  1  0.83055100  0.00297920  0.16512043  1
  Cu+  Cu73  1  0.83218854  -0.00655877  0.49780901  1
  Cu+  Cu74  1  0.83551635  0.00270062  0.83072120  1
  Cu+  Cu75  1  0.83183524  0.33654497  0.16302079  1
  Cu+  Cu76  1  0.83348836  0.33255374  0.49863263  1
  Cu+  Cu77  1  0.83593597  0.33281379  0.83962065  1
  Cu+  Cu78  1  0.83166802  0.66925441  0.16486987  1
  Cu+  Cu79  1  0.82996176  0.66580887  0.50373584  1
  Cu+  Cu80  1  0.84137791  0.66458487  0.83263622  1
  Cu+  Cu81  1  -0.00033798  0.16513158  0.16270354  1
  Cu+  Cu82  1  0.00079186  0.16582201  0.49824856  1
  Cu+  Cu83  1  -0.00370193  0.16870601  0.83425690  1
  Cu+  Cu84  1  0.00044282  0.49929406  0.16586715  1
  Cu+  Cu85  1  -0.00232786  0.50210643  0.49670774  1
  Cu+  Cu86  1  0.00300428  0.50556760  0.83736387  1
  Cu+  Cu87  1  0.00111801  0.83325707  0.16941258  1
  Cu+  Cu88  1  0.00674984  0.83167511  0.50563334  1
  Cu+  Cu89  1  0.00124689  0.83250674  0.82357483  1
  Cu+  Cu90  1  0.33074345  0.17111664  0.17047519  1
  Cu+  Cu91  1  0.33489442  0.16360238  0.49453174  1
  Cu+  Cu92  1  0.32862714  0.16462978  0.83422085  1
  Cu+  Cu93  1  0.33364219  0.49992849  0.16924651  1
  Cu+  Cu94  1  0.33418760  0.50425492  0.50429367  1
  Cu+  Cu95  1  0.33298098  0.49716955  0.83572005  1
  Cu+  Cu96  1  0.33320805  0.83235768  0.16544496  1
  Cu+  Cu97  1  0.33468733  0.83199972  0.50413689  1
  Cu+  Cu98  1  0.33255980  0.83330598  0.82985754  1
  Cu+  Cu99  1  0.66216395  0.16293956  0.16831024  1
  Cu+  Cu100  1  0.67298294  0.17161382  0.49357675  1
  Cu+  Cu101  1  0.66572412  0.16505479  0.83631683  1
  Cu+  Cu102  1  0.66412864  0.50002888  0.16248479  1
  Cu+  Cu103  1  0.66258925  0.50173748  0.50113519  1
  Cu+  Cu104  1  0.66948754  0.49629446  0.83423928  1
  Cu+  Cu105  1  0.66590679  0.83437310  0.16561324  1
  Cu+  Cu106  1  0.66657989  0.83552391  0.50845648  1
  Cu+  Cu107  1  0.66756434  0.83144175  0.83133498  1
  Cu+  Cu108  1  0.93114926  0.59843596  0.93009445  1
  Cu+  Cu109  1  0.58891580  0.41612443  0.41131190  1
  Cu+  Cu110  1  0.40128517  0.92533220  0.74275769  1
  Cu+  Cu111  1  0.73561897  0.73555744  0.59408695  1
  Cu+  Cu112  1  0.92894544  0.07122815  0.07520948  1
  Cu+  Cu113  1  0.92965253  0.26201105  0.92904410  1
  Cu+  Cu114  1  0.40387590  0.07873952  0.59077218  1
  Cu+  Cu115  1  0.40333040  0.59673013  0.40662796  1
  Cu+  Cu116  1  0.59778516  0.93390561  0.59608307  1
  Cu+  Cu117  1  0.73786103  0.06752143  0.91702737  1
  Cu+  Cu118  1  0.74114506  0.40680081  0.92366785  1
  Cu+  Cu119  1  0.58414073  0.06788036  0.07285116  1
  Cu+  Cu120  1  0.92948774  0.73316294  0.73967544  1
  Cu+  Cu121  1  0.73656769  0.07157095  0.25927260  1
  Cu+  Cu122  1  0.40552391  0.74230608  0.59886966  1
  Cu+  Cu123  1  0.25764859  0.26379441  0.26124280  1
  Cu+  Cu124  1  0.07798260  0.73440890  0.58956129  1
  Cu+  Cu125  1  0.26536035  0.07030480  0.40049200  1
  Cu+  Cu126  1  0.07172634  0.92984786  0.73606510  1
  Cu+  Cu127  1  0.58862463  0.40750754  0.07284798  1
  Cu+  Cu128  1  0.75140771  0.26597756  0.40341720  1
  Cu+  Cu129  1  0.59484743  0.26480615  0.25169755  1
  Cu+  Cu130  1  0.92501828  0.07855779  0.73569998  1
  Cu+  Cu131  1  0.73670300  0.91384184  0.40715383  1
  Cu+  Cu132  1  0.40340040  0.40630863  0.59669956  1
  Te2-  Te133  1  0.24991278  0.24982119  0.07877058  1
  Te2-  Te134  1  0.25639690  0.25686013  0.41418796  1
  Te2-  Te135  1  0.24986571  0.25317686  0.75020766  1
  Te2-  Te136  1  0.25267351  0.58432150  0.08312413  1
  Te2-  Te137  1  0.25231481  0.58762789  0.41346518  1
  Te2-  Te138  1  0.25478965  0.58411151  0.75012583  1
  Te2-  Te139  1  0.25129025  0.91652837  0.07949638  1
  Te2-  Te140  1  0.25844348  0.91781612  0.41362794  1
  Te2-  Te141  1  0.24956589  0.91990034  0.74409066  1
  Te2-  Te142  1  0.58605921  0.25340543  0.08008345  1
  Te2-  Te143  1  0.58924989  0.25941737  0.41239930  1
  Te2-  Te144  1  0.58476593  0.24720035  0.74820490  1
  Te2-  Te145  1  0.58296519  0.58889588  0.08188304  1
  Te2-  Te146  1  0.58430487  0.59350902  0.42030249  1
  Te2-  Te147  1  0.58636860  0.57936911  0.74867666  1
  Te2-  Te148  1  0.58613496  0.91718613  0.07702761  1
  Te2-  Te149  1  0.58393530  0.92004954  0.41645242  1
  Te2-  Te150  1  0.59191442  0.92072314  0.74654076  1
  Te2-  Te151  1  0.91789986  0.25414259  0.08131046  1
  Te2-  Te152  1  0.91733627  0.24917006  0.41091559  1
  Te2-  Te153  1  0.91716794  0.25477440  0.74678822  1
  Te2-  Te154  1  0.91955883  0.58749196  0.08151648  1
  Te2-  Te155  1  0.91452826  0.58763590  0.41360179  1
  Te2-  Te156  1  0.92338017  0.58185246  0.74255369  1
  Te2-  Te157  1  0.92104943  0.91975023  0.08203211  1
  Te2-  Te158  1  0.92484078  0.91499557  0.41893981  1
  Te2-  Te159  1  0.91843043  0.92147405  0.74008181  1
  Te2-  Te160  1  0.25505755  0.07497095  0.24955318  1
  Te2-  Te161  1  0.25267702  0.08373261  0.58894973  1
  Te2-  Te162  1  0.24699606  0.07773638  0.91667143  1
  Te2-  Te163  1  0.25382133  0.41482097  0.25526162  1
  Te2-  Te164  1  0.25152041  0.41416916  0.58833054  1
  Te2-  Te165  1  0.25136013  0.41318104  0.92121481  1
  Te2-  Te166  1  0.25316538  0.74675816  0.25170253  1
  Te2-  Te167  1  0.25321351  0.74788755  0.59097103  1
  Te2-  Te168  1  0.25222310  0.74974009  0.91678116  1
  Te2-  Te169  1  0.58279825  0.07578730  0.25575590  1
  Te2-  Te170  1  0.59452354  0.08749991  0.58527325  1
  Te2-  Te171  1  0.58348498  0.07378841  0.91836230  1
  Te2-  Te172  1  0.58803593  0.41827938  0.25842473  1
  Te2-  Te173  1  0.58692122  0.41616153  0.59049734  1
  Te2-  Te174  1  0.58624523  0.40782292  0.91965031  1
  Te2-  Te175  1  0.58730974  0.74913521  0.25263013  1
  Te2-  Te176  1  0.58295043  0.74511268  0.58977208  1
  Te2-  Te177  1  0.58681112  0.74662081  0.91671338  1
  Te2-  Te178  1  0.91675657  0.08426016  0.25125193  1
  Te2-  Te179  1  0.91958985  0.07804592  0.58125658  1
  Te2-  Te180  1  0.92354078  0.07614387  0.92060833  1
  Te2-  Te181  1  0.91612592  0.41589501  0.25002282  1
  Te2-  Te182  1  0.91843478  0.41455163  0.58181055  1
  Te2-  Te183  1  0.92561981  0.41505240  0.92201795  1
  Te2-  Te184  1  0.91652391  0.74892721  0.25276015  1
  Te2-  Te185  1  0.92492656  0.74073340  0.58635143  1
  Te2-  Te186  1  0.92321763  0.75175788  0.91973675  1
  Te2-  Te187  1  0.07994280  0.24814604  0.25228187  1
  Te2-  Te188  1  0.08088096  0.25376603  0.58145479  1
  Te2-  Te189  1  0.08076041  0.25334720  0.92106663  1
  Te2-  Te190  1  0.08045683  0.58514645  0.25214866  1
  Te2-  Te191  1  0.08095539  0.58273143  0.58597088  1
  Te2-  Te192  1  0.08438617  0.58877284  0.92504750  1
  Te2-  Te193  1  0.08171014  0.91761289  0.25504386  1
  Te2-  Te194  1  0.08314714  0.92819445  0.58222658  1
  Te2-  Te195  1  0.07865798  0.91495738  0.91696812  1
  Te2-  Te196  1  0.41345176  0.25699975  0.25408130  1
  Te2-  Te197  1  0.41438453  0.25250204  0.58366559  1
  Te2-  Te198  1  0.41307528  0.24680633  0.91991552  1
  Te2-  Te199  1  0.41323310  0.58857983  0.25340262  1
  Te2-  Te200  1  0.41041056  0.58819376  0.59582111  1
  Te2-  Te201  1  0.41643102  0.58238398  0.91938680  1
  Te2-  Te202  1  0.41401771  0.91866447  0.25096482  1
  Te2-  Te203  1  0.40886748  0.92541110  0.58792651  1
  Te2-  Te204  1  0.41436970  0.91646181  0.91742121  1
  Te2-  Te205  1  0.74524557  0.25822453  0.24983922  1
  Te2-  Te206  1  0.75068930  0.25109520  0.58664492  1
  Te2-  Te207  1  0.74502966  0.25185754  0.92211254  1
  Te2-  Te208  1  0.74530055  0.58674792  0.24762146  1
  Te2-  Te209  1  0.74448184  0.58309376  0.58934310  1
  Te2-  Te210  1  0.74846806  0.58837940  0.91548476  1
  Te2-  Te211  1  0.74439922  0.91991885  0.25364648  1
  Te2-  Te212  1  0.75184570  0.92023933  0.59410760  1
  Te2-  Te213  1  0.74944540  0.91674999  0.91601220  1
  Te2-  Te214  1  0.08152392  0.07606777  0.08019223  1
  Te2-  Te215  1  0.08316577  0.08242045  0.41207624  1
  Te2-  Te216  1  0.07740088  0.08353247  0.74215828  1
  Te2-  Te217  1  0.08182108  0.41176211  0.08358105  1
  Te2-  Te218  1  0.08118609  0.41614677  0.41458330  1
  Te2-  Te219  1  0.07991013  0.41685007  0.75036529  1
  Te2-  Te220  1  0.07993243  0.74708494  0.08235438  1
  Te2-  Te221  1  0.08617028  0.74922566  0.41529136  1
  Te2-  Te222  1  0.08200617  0.73787120  0.74456392  1
  Te2-  Te223  1  0.41056604  0.08330169  0.08433991  1
  Te2-  Te224  1  0.42186376  0.08083833  0.40944946  1
  Te2-  Te225  1  0.40872722  0.07956522  0.74607567  1
  Te2-  Te226  1  0.41407867  0.41507423  0.08343221  1
  Te2-  Te227  1  0.41225751  0.41713969  0.41653297  1
  Te2-  Te228  1  0.41175781  0.40821620  0.75145104  1
  Te2-  Te229  1  0.41531113  0.74775796  0.08048538  1
  Te2-  Te230  1  0.41382912  0.75242202  0.41211153  1
  Te2-  Te231  1  0.41507695  0.74355320  0.74910886  1
  Te2-  Te232  1  0.74071447  0.07879734  0.07470494  1
  Te2-  Te233  1  0.74365542  0.07333146  0.41273801  1
  Te2-  Te234  1  0.74629970  0.08232967  0.74700338  1
  Te2-  Te235  1  0.74506921  0.41308544  0.07626516  1
  Te2-  Te236  1  0.74517146  0.41689427  0.41079470  1
  Te2-  Te237  1  0.75208262  0.41128640  0.74896579  1
  Te2-  Te238  1  0.74831004  0.75123944  0.07938137  1
  Te2-  Te239  1  0.74621209  0.74997172  0.41705152  1
  Te2-  Te240  1  0.74658584  0.74133965  0.75007001  1
