# generated using pymatgen
data_Ti27(Cu53Te54)2
_symmetry_space_group_name_H-M   'P 1'
_cell_length_a   17.89123364
_cell_length_b   17.88838512
_cell_length_c   17.88806581
_cell_angle_alpha   89.99759179
_cell_angle_beta   90.02059098
_cell_angle_gamma   90.01327673
_symmetry_Int_Tables_number   1
_chemical_formula_structural   Ti27(Cu53Te54)2
_chemical_formula_sum   'Ti27 Cu106 Te108'
_cell_volume   5724.99045827
_cell_formula_units_Z   1
loop_
 _symmetry_equiv_pos_site_id
 _symmetry_equiv_pos_as_xyz
  1  'x, y, z'
loop_
 _atom_type_symbol
 _atom_type_oxidation_number
  Ti4+  4.0
  Cu+  1.0
  Te2-  -2.0
loop_
 _atom_site_type_symbol
 _atom_site_label
 _atom_site_symmetry_multiplicity
 _atom_site_fract_x
 _atom_site_fract_y
 _atom_site_fract_z
 _atom_site_occupancy
  Ti4+  Ti0  1  0.16853367  0.16834617  0.16646371  1
  Ti4+  Ti1  1  0.16634841  0.16621974  0.49886748  1
  Ti4+  Ti2  1  0.16833656  0.16993030  0.83254782  1
  Ti4+  Ti3  1  0.16416133  0.50104573  0.16641657  1
  Ti4+  Ti4  1  0.16502723  0.49947904  0.50119508  1
  Ti4+  Ti5  1  0.17223323  0.49975351  0.83185485  1
  Ti4+  Ti6  1  0.16472418  0.83316489  0.16851730  1
  Ti4+  Ti7  1  0.16401119  0.83191824  0.50020877  1
  Ti4+  Ti8  1  0.16551764  0.83243401  0.83549725  1
  Ti4+  Ti9  1  0.50114731  0.16992657  0.16809217  1
  Ti4+  Ti10  1  0.50012994  0.16447021  0.50045344  1
  Ti4+  Ti11  1  0.50175799  0.16667567  0.83611588  1
  Ti4+  Ti12  1  0.49694261  0.50509500  0.16965267  1
  Ti4+  Ti13  1  0.50204580  0.49882445  0.50219555  1
  Ti4+  Ti14  1  0.49843763  0.50095722  0.83247119  1
  Ti4+  Ti15  1  0.50129013  0.83431835  0.16706733  1
  Ti4+  Ti16  1  0.49827119  0.83234131  0.49764435  1
  Ti4+  Ti17  1  0.49827639  0.83336629  0.83267758  1
  Ti4+  Ti18  1  0.83208885  0.16284877  0.16589976  1
  Ti4+  Ti19  1  0.83363618  0.16363169  0.50089241  1
  Ti4+  Ti20  1  0.83404342  0.16595456  0.83550611  1
  Ti4+  Ti21  1  0.82989928  0.49796360  0.16448605  1
  Ti4+  Ti22  1  0.83471724  0.49782010  0.50144190  1
  Ti4+  Ti23  1  0.83709906  0.50275912  0.83381031  1
  Ti4+  Ti24  1  0.83626432  0.83309200  0.16533764  1
  Ti4+  Ti25  1  0.83286153  0.83554269  0.49852232  1
  Ti4+  Ti26  1  0.83239830  0.83351536  0.83049343  1
  Cu+  Cu27  1  0.17020749  0.17228209  -0.00149811  1
  Cu+  Cu28  1  0.16675149  0.16825938  0.33140799  1
  Cu+  Cu29  1  0.16597520  0.16438691  0.66344345  1
  Cu+  Cu30  1  0.16665056  0.50139256  -0.00026866  1
  Cu+  Cu31  1  0.16405644  0.49900332  0.33303801  1
  Cu+  Cu32  1  0.17052456  0.50456564  0.66501186  1
  Cu+  Cu33  1  0.16470078  0.83409132  0.00396372  1
  Cu+  Cu34  1  0.15742931  0.83134183  0.33496266  1
  Cu+  Cu35  1  0.16598844  0.82981133  0.67117788  1
  Cu+  Cu36  1  0.50441790  0.16404514  0.00477227  1
  Cu+  Cu37  1  0.50012485  0.16866202  0.33442502  1
  Cu+  Cu38  1  0.50256356  0.16731985  0.66918726  1
  Cu+  Cu39  1  0.49788253  0.50394325  0.00244004  1
  Cu+  Cu40  1  0.49602750  0.50598637  0.33891455  1
  Cu+  Cu41  1  0.49960763  0.49661628  0.66539216  1
  Cu+  Cu42  1  0.49799688  0.83475993  -0.00112346  1
  Cu+  Cu43  1  0.49934457  0.82988250  0.32976574  1
  Cu+  Cu44  1  0.49989291  0.83189998  0.66360309  1
  Cu+  Cu45  1  0.83042769  0.16005092  0.00258162  1
  Cu+  Cu46  1  0.83093377  0.16255654  0.33371711  1
  Cu+  Cu47  1  0.83393212  0.16509595  0.66260034  1
  Cu+  Cu48  1  0.83078217  0.49671314  -0.00381299  1
  Cu+  Cu49  1  0.83116038  0.49697855  0.33235919  1
  Cu+  Cu50  1  0.83752548  0.50025486  0.67009409  1
  Cu+  Cu51  1  0.83483844  0.83589229  -0.00275711  1
  Cu+  Cu52  1  0.83481500  0.83406365  0.33213510  1
  Cu+  Cu53  1  0.83477588  0.83805948  0.66229106  1
  Cu+  Cu54  1  0.16974286  0.00209023  0.16801384  1
  Cu+  Cu55  1  0.16205886  -0.00021629  0.49709058  1
  Cu+  Cu56  1  0.16547370  0.00255917  0.83475006  1
  Cu+  Cu57  1  0.16543056  0.33504756  0.16513053  1
  Cu+  Cu58  1  0.16544797  0.33206749  0.49818673  1
  Cu+  Cu59  1  0.17570287  0.33359101  0.83714669  1
  Cu+  Cu60  1  0.16107140  0.66738037  0.17074976  1
  Cu+  Cu61  1  0.16753739  0.66318242  0.50543836  1
  Cu+  Cu62  1  0.17241322  0.66892447  0.82926426  1
  Cu+  Cu63  1  0.50148834  0.00074182  0.16795834  1
  Cu+  Cu64  1  0.49905248  -0.00248882  0.49841517  1
  Cu+  Cu65  1  0.49757615  -0.00184972  0.83459451  1
  Cu+  Cu66  1  0.50004211  0.34003638  0.16932765  1
  Cu+  Cu67  1  0.50192212  0.33277108  0.50235838  1
  Cu+  Cu68  1  0.49844036  0.32820581  0.83130854  1
  Cu+  Cu69  1  0.49761330  0.67207469  0.17218731  1
  Cu+  Cu70  1  0.49819557  0.66238729  0.49554589  1
  Cu+  Cu71  1  0.50118253  0.67006463  0.83100429  1
  Cu+  Cu72  1  0.84018630  -0.00118436  0.16348264  1
  Cu+  Cu73  1  0.83414346  -0.00098865  0.50686567  1
  Cu+  Cu74  1  0.83462267  -0.00186392  0.83835294  1
  Cu+  Cu75  1  0.82759658  0.32818679  0.16515053  1
  Cu+  Cu76  1  0.83482457  0.32900309  0.50254322  1
  Cu+  Cu77  1  0.83851879  0.33922185  0.83453693  1
  Cu+  Cu78  1  0.83235017  0.66440036  0.16496002  1
  Cu+  Cu79  1  0.83487297  0.66816099  0.49873577  1
  Cu+  Cu80  1  0.82959613  0.66574956  0.82624584  1
  Cu+  Cu81  1  0.00133746  0.16507069  0.16583476  1
  Cu+  Cu82  1  -0.00116364  0.16731758  0.49927198  1
  Cu+  Cu83  1  0.00298321  0.17009336  0.83189300  1
  Cu+  Cu84  1  -0.00605029  0.49839147  0.16429627  1
  Cu+  Cu85  1  -0.00083853  0.49932273  0.49958839  1
  Cu+  Cu86  1  0.00703881  0.49770901  0.82900718  1
  Cu+  Cu87  1  0.00286247  0.82925649  0.17223681  1
  Cu+  Cu88  1  0.00043043  0.83948060  0.49705348  1
  Cu+  Cu89  1  -0.00214865  0.83429964  0.83692336  1
  Cu+  Cu90  1  0.33584715  0.17043888  0.16935965  1
  Cu+  Cu91  1  0.33178344  0.16432912  0.49945331  1
  Cu+  Cu92  1  0.33610878  0.17389692  0.83554897  1
  Cu+  Cu93  1  0.32974745  0.50371077  0.16828845  1
  Cu+  Cu94  1  0.33452516  0.50197273  0.50112861  1
  Cu+  Cu95  1  0.33199511  0.49888401  0.83399545  1
  Cu+  Cu96  1  0.33295150  0.83393283  0.16896007  1
  Cu+  Cu97  1  0.33162650  0.83332310  0.49876347  1
  Cu+  Cu98  1  0.33201916  0.83200274  0.83368374  1
  Cu+  Cu99  1  0.66576447  0.16609063  0.16123736  1
  Cu+  Cu100  1  0.66679207  0.16125313  0.50126106  1
  Cu+  Cu101  1  0.66965070  0.16251559  0.83836036  1
  Cu+  Cu102  1  0.66067345  0.50111689  0.16555714  1
  Cu+  Cu103  1  0.66847248  0.49635908  0.50391809  1
  Cu+  Cu104  1  0.66819711  0.50586004  0.83493436  1
  Cu+  Cu105  1  0.67090234  0.83621247  0.16460801  1
  Cu+  Cu106  1  0.66537016  0.83262068  0.49540084  1
  Cu+  Cu107  1  0.66080543  0.82977931  0.82706568  1
  Cu+  Cu108  1  0.26264368  0.74737578  0.73939390  1
  Cu+  Cu109  1  0.92953441  0.25899184  0.58880884  1
  Cu+  Cu110  1  0.59152673  0.74233893  0.73231994  1
  Cu+  Cu111  1  0.92903918  0.92416135  0.92757337  1
  Cu+  Cu112  1  0.93025689  0.40774043  0.74085443  1
  Cu+  Cu113  1  0.74058616  0.06645927  0.92611134  1
  Cu+  Cu114  1  0.07183107  0.93143937  0.40289082  1
  Cu+  Cu115  1  0.07736208  0.59634954  0.74104950  1
  Cu+  Cu116  1  0.25669574  0.59681005  0.93118264  1
  Cu+  Cu117  1  0.73933312  0.58671247  0.73663764  1
  Cu+  Cu118  1  0.73500143  0.07075439  0.59201017  1
  Cu+  Cu119  1  0.26644070  0.59409308  0.58974050  1
  Cu+  Cu120  1  0.73773043  0.41074342  0.91601117  1
  Cu+  Cu121  1  0.93180347  0.92483892  0.59408858  1
  Cu+  Cu122  1  0.40240760  0.74579512  0.25878880  1
  Cu+  Cu123  1  0.08039968  0.40686073  0.92687546  1
  Cu+  Cu124  1  0.40948494  0.25389404  0.73507980  1
  Cu+  Cu125  1  0.06875576  0.73353155  0.26556834  1
  Cu+  Cu126  1  0.40089845  0.59184814  0.40933237  1
  Cu+  Cu127  1  0.25847305  0.40630548  0.73397973  1
  Cu+  Cu128  1  0.74115786  0.25678457  0.07231060  1
  Cu+  Cu129  1  0.93525974  0.07383698  0.07716878  1
  Cu+  Cu130  1  0.58366632  0.41296164  0.07400188  1
  Cu+  Cu131  1  0.58876867  0.06836828  0.07803735  1
  Cu+  Cu132  1  0.26787387  0.25851282  0.93362839  1
  Te2-  Te133  1  0.25610889  0.25657436  0.08363073  1
  Te2-  Te134  1  0.25208584  0.25161909  0.41446741  1
  Te2-  Te135  1  0.25451705  0.25340844  0.74033464  1
  Te2-  Te136  1  0.25008466  0.59023839  0.08341276  1
  Te2-  Te137  1  0.24879485  0.58615371  0.41231152  1
  Te2-  Te138  1  0.26162315  0.59002124  0.74344541  1
  Te2-  Te139  1  0.25199517  0.91783715  0.08371254  1
  Te2-  Te140  1  0.24832757  0.91620114  0.41353560  1
  Te2-  Te141  1  0.24994884  0.91968553  0.75045188  1
  Te2-  Te142  1  0.58643103  0.25937141  0.07861829  1
  Te2-  Te143  1  0.58704070  0.24996875  0.41773837  1
  Te2-  Te144  1  0.59134146  0.24971447  0.75115853  1
  Te2-  Te145  1  0.58147693  0.59198999  0.08341321  1
  Te2-  Te146  1  0.59081266  0.58316105  0.41731518  1
  Te2-  Te147  1  0.58503286  0.58588665  0.74417800  1
  Te2-  Te148  1  0.58702015  0.91784484  0.07859221  1
  Te2-  Te149  1  0.58276044  0.91666776  0.41139907  1
  Te2-  Te150  1  0.58202965  0.92080731  0.74541050  1
  Te2-  Te151  1  0.91724833  0.24962428  0.08009689  1
  Te2-  Te152  1  0.91662075  0.24977304  0.41188778  1
  Te2-  Te153  1  0.91949346  0.25251580  0.74712207  1
  Te2-  Te154  1  0.91474351  0.58288785  0.07828149  1
  Te2-  Te155  1  0.91667935  0.58279503  0.41416525  1
  Te2-  Te156  1  0.92459251  0.58919684  0.74648331  1
  Te2-  Te157  1  0.92751027  0.91776185  0.07937862  1
  Te2-  Te158  1  0.91711328  0.92413969  0.41094740  1
  Te2-  Te159  1  0.92054531  0.92155730  0.74774818  1
  Te2-  Te160  1  0.25417412  0.08401996  0.25231818  1
  Te2-  Te161  1  0.25026178  0.07831132  0.58297011  1
  Te2-  Te162  1  0.25369445  0.08376982  0.91702730  1
  Te2-  Te163  1  0.24970660  0.41614880  0.25149875  1
  Te2-  Te164  1  0.25405746  0.41157260  0.58288607  1
  Te2-  Te165  1  0.25845814  0.41441088  0.92605503  1
  Te2-  Te166  1  0.24913692  0.74738043  0.25644762  1
  Te2-  Te167  1  0.25487645  0.74725211  0.58698472  1
  Te2-  Te168  1  0.25259256  0.74911725  0.92446889  1
  Te2-  Te169  1  0.58645664  0.08376059  0.25317125  1
  Te2-  Te170  1  0.58273435  0.07677538  0.58863485  1
  Te2-  Te171  1  0.58640523  0.07525915  0.92163289  1
  Te2-  Te172  1  0.58173457  0.42077361  0.25788589  1
  Te2-  Te173  1  0.58695285  0.41201025  0.58850414  1
  Te2-  Te174  1  0.58368857  0.41447764  0.91762447  1
  Te2-  Te175  1  0.59151812  0.75022098  0.25060678  1
  Te2-  Te176  1  0.58565363  0.74452090  0.58023051  1
  Te2-  Te177  1  0.58412928  0.74821995  0.92044243  1
  Te2-  Te178  1  0.91979526  0.08097825  0.25307264  1
  Te2-  Te179  1  0.92533660  0.07890263  0.58886746  1
  Te2-  Te180  1  0.92563954  0.08155265  0.92047582  1
  Te2-  Te181  1  0.91362266  0.41091479  0.24861558  1
  Te2-  Te182  1  0.92346642  0.41188344  0.58844490  1
  Te2-  Te183  1  0.92618202  0.41594417  0.92110172  1
  Te2-  Te184  1  0.91697886  0.74389194  0.25381308  1
  Te2-  Te185  1  0.92036635  0.75029299  0.58313251  1
  Te2-  Te186  1  0.91461328  0.74480775  0.91538982  1
  Te2-  Te187  1  0.08067437  0.25273476  0.24972128  1
  Te2-  Te188  1  0.08156314  0.25343728  0.58631567  1
  Te2-  Te189  1  0.08018359  0.25506021  0.91924364  1
  Te2-  Te190  1  0.07475562  0.58183274  0.25384534  1
  Te2-  Te191  1  0.07605154  0.58572186  0.58714236  1
  Te2-  Te192  1  0.08418842  0.58814302  0.91509836  1
  Te2-  Te193  1  0.07891510  0.92467686  0.25133560  1
  Te2-  Te194  1  0.08379078  0.91910418  0.59094346  1
  Te2-  Te195  1  0.08221473  0.92092719  0.92141905  1
  Te2-  Te196  1  0.41701765  0.25604452  0.25346063  1
  Te2-  Te197  1  0.41331258  0.25146482  0.58439214  1
  Te2-  Te198  1  0.41952485  0.25357765  0.92725091  1
  Te2-  Te199  1  0.40785139  0.59053578  0.25574033  1
  Te2-  Te200  1  0.41668233  0.58784609  0.58995001  1
  Te2-  Te201  1  0.41447621  0.58793814  0.91776383  1
  Te2-  Te202  1  0.41536150  0.92095113  0.25257353  1
  Te2-  Te203  1  0.41350613  0.91701497  0.58378970  1
  Te2-  Te204  1  0.41158013  0.91805231  0.91862926  1
  Te2-  Te205  1  0.74535174  0.24663185  0.25286376  1
  Te2-  Te206  1  0.74552372  0.25021765  0.58576064  1
  Te2-  Te207  1  0.74847907  0.25607794  0.91940531  1
  Te2-  Te208  1  0.74656701  0.58319535  0.25043216  1
  Te2-  Te209  1  0.75001910  0.58614948  0.58573635  1
  Te2-  Te210  1  0.74963932  0.58990672  0.92015719  1
  Te2-  Te211  1  0.75246518  0.92028122  0.24952077  1
  Te2-  Te212  1  0.74065675  0.91760007  0.58571376  1
  Te2-  Te213  1  0.74128206  0.91421413  0.91655123  1
  Te2-  Te214  1  0.08660997  0.08129039  0.07743982  1
  Te2-  Te215  1  0.07816857  0.08390972  0.41081640  1
  Te2-  Te216  1  0.08211211  0.08291613  0.74856870  1
  Te2-  Te217  1  0.07866638  0.41467023  0.08027508  1
  Te2-  Te218  1  0.08034382  0.41457004  0.41526870  1
  Te2-  Te219  1  0.08789095  0.40944508  0.74350846  1
  Te2-  Te220  1  0.07961233  0.74708246  0.08092569  1
  Te2-  Te221  1  0.07684802  0.74103180  0.41947066  1
  Te2-  Te222  1  0.07579377  0.74830013  0.74935185  1
  Te2-  Te223  1  0.41422454  0.08279400  0.08446032  1
  Te2-  Te224  1  0.41497070  0.08109382  0.41391491  1
  Te2-  Te225  1  0.41421993  0.08299982  0.75101840  1
  Te2-  Te226  1  0.41141528  0.41852159  0.08349886  1
  Te2-  Te227  1  0.41479287  0.41341542  0.41741651  1
  Te2-  Te228  1  0.41335148  0.41223977  0.74602344  1
  Te2-  Te229  1  0.41391740  0.74952457  0.08127371  1
  Te2-  Te230  1  0.40925478  0.74567052  0.41226265  1
  Te2-  Te231  1  0.41302227  0.74682346  0.74465288  1
  Te2-  Te232  1  0.74331896  0.07053620  0.07943356  1
  Te2-  Te233  1  0.74866844  0.07619206  0.41555604  1
  Te2-  Te234  1  0.75032021  0.07922545  0.74841141  1
  Te2-  Te235  1  0.74072743  0.41156565  0.07586595  1
  Te2-  Te236  1  0.74978355  0.41156740  0.41796586  1
  Te2-  Te237  1  0.74697293  0.41553089  0.74934382  1
  Te2-  Te238  1  0.75066381  0.74964123  0.07962118  1
  Te2-  Te239  1  0.74954359  0.74855345  0.41298170  1
  Te2-  Te240  1  0.74698822  0.74836397  0.73917216  1
