# generated using pymatgen
data_Ti27(Cu53Te54)2
_symmetry_space_group_name_H-M   'P 1'
_cell_length_a   17.86893088
_cell_length_b   17.87148959
_cell_length_c   17.87056706
_cell_angle_alpha   90.00575964
_cell_angle_beta   89.98618525
_cell_angle_gamma   89.99327650
_symmetry_Int_Tables_number   1
_chemical_formula_structural   Ti27(Cu53Te54)2
_chemical_formula_sum   'Ti27 Cu106 Te108'
_cell_volume   5706.86550024
_cell_formula_units_Z   1
loop_
 _symmetry_equiv_pos_site_id
 _symmetry_equiv_pos_as_xyz
  1  'x, y, z'
loop_
 _atom_type_symbol
 _atom_type_oxidation_number
  Ti4+  4.0
  Cu+  1.0
  Te2-  -2.0
loop_
 _atom_site_type_symbol
 _atom_site_label
 _atom_site_symmetry_multiplicity
 _atom_site_fract_x
 _atom_site_fract_y
 _atom_site_fract_z
 _atom_site_occupancy
  Ti4+  Ti0  1  0.16922464  0.16817839  0.16882878  1
  Ti4+  Ti1  1  0.16652824  0.16748014  0.49953322  1
  Ti4+  Ti2  1  0.16754447  0.16659344  0.83574797  1
  Ti4+  Ti3  1  0.16529537  0.49992146  0.16530828  1
  Ti4+  Ti4  1  0.16363947  0.50138044  0.50050875  1
  Ti4+  Ti5  1  0.16569469  0.50033442  0.83093080  1
  Ti4+  Ti6  1  0.16578870  0.83521586  0.16552343  1
  Ti4+  Ti7  1  0.17076869  0.83335450  0.49811271  1
  Ti4+  Ti8  1  0.16691818  0.83430998  0.83260518  1
  Ti4+  Ti9  1  0.49873334  0.16855252  0.16763024  1
  Ti4+  Ti10  1  0.49936395  0.16379963  0.50148341  1
  Ti4+  Ti11  1  0.50215727  0.16911954  0.83430927  1
  Ti4+  Ti12  1  0.49932693  0.49847041  0.16695362  1
  Ti4+  Ti13  1  0.49913763  0.49978527  0.49863011  1
  Ti4+  Ti14  1  0.49975704  0.49808307  0.83303135  1
  Ti4+  Ti15  1  0.50392931  0.83477633  0.16668222  1
  Ti4+  Ti16  1  0.49940838  0.83246883  0.50316450  1
  Ti4+  Ti17  1  0.50249845  0.83250630  0.83413247  1
  Ti4+  Ti18  1  0.83429451  0.16460182  0.16852770  1
  Ti4+  Ti19  1  0.83232140  0.16713547  0.49913819  1
  Ti4+  Ti20  1  0.83409472  0.16855194  0.83464700  1
  Ti4+  Ti21  1  0.83559558  0.49971987  0.16622110  1
  Ti4+  Ti22  1  0.83053010  0.49868698  0.49993901  1
  Ti4+  Ti23  1  0.83482760  0.50037921  0.83226240  1
  Ti4+  Ti24  1  0.83128463  0.82996068  0.16539251  1
  Ti4+  Ti25  1  0.83227294  0.83118353  0.50021655  1
  Ti4+  Ti26  1  0.83077686  0.83463240  0.83057809  1
  Cu+  Cu27  1  0.17064624  0.16784925  0.00269179  1
  Cu+  Cu28  1  0.16735834  0.16401048  0.33669480  1
  Cu+  Cu29  1  0.16554416  0.16982987  0.67181038  1
  Cu+  Cu30  1  0.16305933  0.50176760  -0.00107363  1
  Cu+  Cu31  1  0.16556742  0.49962366  0.33217375  1
  Cu+  Cu32  1  0.16624660  0.49901836  0.66251952  1
  Cu+  Cu33  1  0.16653570  0.83509215  -0.00260492  1
  Cu+  Cu34  1  0.16707893  0.83259843  0.33071290  1
  Cu+  Cu35  1  0.16967108  0.83542985  0.66647827  1
  Cu+  Cu36  1  0.50199667  0.17214024  0.00039101  1
  Cu+  Cu37  1  0.49213640  0.16835997  0.33700723  1
  Cu+  Cu38  1  0.50280341  0.16823913  0.66548008  1
  Cu+  Cu39  1  0.49940663  0.49931554  -0.00153645  1
  Cu+  Cu40  1  0.49948474  0.49980835  0.33117792  1
  Cu+  Cu41  1  0.49731832  0.49748822  0.66805303  1
  Cu+  Cu42  1  0.50438618  0.83158692  0.00073672  1
  Cu+  Cu43  1  0.50025570  0.83088562  0.33526014  1
  Cu+  Cu44  1  0.50345776  0.83632160  0.66937324  1
  Cu+  Cu45  1  0.83554364  0.16653603  -0.00009941  1
  Cu+  Cu46  1  0.83237916  0.16447645  0.33455513  1
  Cu+  Cu47  1  0.83393070  0.16670555  0.66587185  1
  Cu+  Cu48  1  0.83633399  0.49959199  -0.00030818  1
  Cu+  Cu49  1  0.83150547  0.49482747  0.33141539  1
  Cu+  Cu50  1  0.83496645  0.50330651  0.66723367  1
  Cu+  Cu51  1  0.82489505  0.83110395  -0.00330071  1
  Cu+  Cu52  1  0.83326667  0.83241891  0.33313279  1
  Cu+  Cu53  1  0.82937698  0.82991855  0.66470589  1
  Cu+  Cu54  1  0.16867521  0.00372890  0.16993125  1
  Cu+  Cu55  1  0.17662101  0.00001932  0.49765072  1
  Cu+  Cu56  1  0.16631263  0.00016004  0.83560698  1
  Cu+  Cu57  1  0.16427075  0.33346193  0.16631221  1
  Cu+  Cu58  1  0.15829848  0.33581690  0.49911960  1
  Cu+  Cu59  1  0.16458591  0.33176250  0.83210291  1
  Cu+  Cu60  1  0.16405537  0.66715535  0.16293517  1
  Cu+  Cu61  1  0.16778381  0.66745627  0.50393936  1
  Cu+  Cu62  1  0.16881119  0.66847441  0.82945062  1
  Cu+  Cu63  1  0.50470542  0.00385778  0.16763853  1
  Cu+  Cu64  1  0.50252624  -0.00506284  0.50629396  1
  Cu+  Cu65  1  0.50044395  -0.00037617  0.83440430  1
  Cu+  Cu66  1  0.49460629  0.33284693  0.16558281  1
  Cu+  Cu67  1  0.49823990  0.33216713  0.50064254  1
  Cu+  Cu68  1  0.50434271  0.33348657  0.83584728  1
  Cu+  Cu69  1  0.50222625  0.66500213  0.16782328  1
  Cu+  Cu70  1  0.49981522  0.66847708  0.49562236  1
  Cu+  Cu71  1  0.49939510  0.66255235  0.83195406  1
  Cu+  Cu72  1  0.83302457  -0.00673319  0.16761872  1
  Cu+  Cu73  1  0.83483942  0.00303516  0.49698493  1
  Cu+  Cu74  1  0.83484864  0.00337844  0.83055284  1
  Cu+  Cu75  1  0.83361151  0.33505733  0.17103560  1
  Cu+  Cu76  1  0.83174405  0.33221466  0.49754290  1
  Cu+  Cu77  1  0.83426618  0.33612026  0.83284249  1
  Cu+  Cu78  1  0.83563542  0.66383055  0.16706634  1
  Cu+  Cu79  1  0.83150743  0.66409916  0.50439730  1
  Cu+  Cu80  1  0.83123055  0.66750823  0.83241708  1
  Cu+  Cu81  1  0.00241396  0.16596081  0.17106537  1
  Cu+  Cu82  1  -0.00188295  0.17009885  0.49693670  1
  Cu+  Cu83  1  0.00043829  0.16766455  0.83353761  1
  Cu+  Cu84  1  0.00242207  0.50341299  0.16260491  1
  Cu+  Cu85  1  -0.00538087  0.50077553  0.50434713  1
  Cu+  Cu86  1  -0.00101387  0.50125604  0.83258722  1
  Cu+  Cu87  1  -0.00440398  0.83505788  0.16769658  1
  Cu+  Cu88  1  0.00667634  0.83020328  0.49824171  1
  Cu+  Cu89  1  -0.00279297  0.83727457  0.82878143  1
  Cu+  Cu90  1  0.33438360  0.16839918  0.16139206  1
  Cu+  Cu91  1  0.33457180  0.16366530  0.49417906  1
  Cu+  Cu92  1  0.33462206  0.16419122  0.83497422  1
  Cu+  Cu93  1  0.33041401  0.49922708  0.16739955  1
  Cu+  Cu94  1  0.33074446  0.50177872  0.49987643  1
  Cu+  Cu95  1  0.33383720  0.49717411  0.83205590  1
  Cu+  Cu96  1  0.33644708  0.83685356  0.16820877  1
  Cu+  Cu97  1  0.33223898  0.83931881  0.50329238  1
  Cu+  Cu98  1  0.33625428  0.83189516  0.83396466  1
  Cu+  Cu99  1  0.66418937  0.16314759  0.16678602  1
  Cu+  Cu100  1  0.66607045  0.16603827  0.50295414  1
  Cu+  Cu101  1  0.66825127  0.17249487  0.83681318  1
  Cu+  Cu102  1  0.66933269  0.49603760  0.16912851  1
  Cu+  Cu103  1  0.66425967  0.49979751  0.49663357  1
  Cu+  Cu104  1  0.66688214  0.49961191  0.83080353  1
  Cu+  Cu105  1  0.66709039  0.83172433  0.15864962  1
  Cu+  Cu106  1  0.66585196  0.82860619  0.50404928  1
  Cu+  Cu107  1  0.66907573  0.83020200  0.83707634  1
  Cu+  Cu108  1  0.59911241  0.92423248  0.59765453  1
  Cu+  Cu109  1  0.26486263  0.07066295  0.40419136  1
  Cu+  Cu110  1  0.59193016  0.07850951  0.07096645  1
  Cu+  Cu111  1  0.06781575  0.40701894  0.59212616  1
  Cu+  Cu112  1  0.07938602  0.74623978  0.59565531  1
  Cu+  Cu113  1  0.40679262  0.26405439  0.06864494  1
  Cu+  Cu114  1  0.59912177  0.26449620  0.93109918  1
  Cu+  Cu115  1  0.26377643  0.59203355  0.59246421  1
  Cu+  Cu116  1  0.58597737  0.73206151  0.07151194  1
  Cu+  Cu117  1  0.59386357  0.26302107  0.58961203  1
  Cu+  Cu118  1  0.92296928  0.92080411  0.26299198  1
  Cu+  Cu119  1  0.06859638  0.26375756  0.40687927  1
  Cu+  Cu120  1  0.73755610  0.40352465  0.26021721  1
  Cu+  Cu121  1  0.59438341  0.74159819  0.40563549  1
  Cu+  Cu122  1  0.73536565  0.73422132  0.59383657  1
  Cu+  Cu123  1  0.40656336  0.26431565  0.41090011  1
  Cu+  Cu124  1  0.07491200  0.07583584  0.26341846  1
  Cu+  Cu125  1  0.07439337  0.59902634  0.06883877  1
  Cu+  Cu126  1  0.25793435  0.07082508  0.07205732  1
  Cu+  Cu127  1  0.07079024  0.25855922  0.74365731  1
  Cu+  Cu128  1  0.74418892  0.92831820  0.06943461  1
  Cu+  Cu129  1  0.07130187  0.25602089  0.07453632  1
  Cu+  Cu130  1  0.74206591  0.73330400  0.92585120  1
  Cu+  Cu131  1  0.92279934  0.59487554  0.59561875  1
  Cu+  Cu132  1  0.25738127  0.93283126  0.59961708  1
  Te2-  Te133  1  0.25361650  0.25846728  0.08024271  1
  Te2-  Te134  1  0.25100606  0.25703640  0.41442150  1
  Te2-  Te135  1  0.25527057  0.25167328  0.75080973  1
  Te2-  Te136  1  0.25159481  0.58505251  0.07980422  1
  Te2-  Te137  1  0.24895146  0.58632540  0.41348384  1
  Te2-  Te138  1  0.25370337  0.58453427  0.74561198  1
  Te2-  Te139  1  0.25350184  0.91948198  0.08087453  1
  Te2-  Te140  1  0.25690114  0.91740944  0.40639744  1
  Te2-  Te141  1  0.25567305  0.92149768  0.75066686  1
  Te2-  Te142  1  0.58950184  0.25695000  0.08421130  1
  Te2-  Te143  1  0.58463684  0.24992249  0.41489095  1
  Te2-  Te144  1  0.58814141  0.25468452  0.74616540  1
  Te2-  Te145  1  0.58836507  0.58049746  0.08116510  1
  Te2-  Te146  1  0.58529700  0.58541657  0.41110933  1
  Te2-  Te147  1  0.58475798  0.58329423  0.74617593  1
  Te2-  Te148  1  0.58822229  0.92436714  0.07649061  1
  Te2-  Te149  1  0.58714647  0.91626863  0.41659207  1
  Te2-  Te150  1  0.59080745  0.92041199  0.75181669  1
  Te2-  Te151  1  0.91844557  0.25233593  0.08483713  1
  Te2-  Te152  1  0.91667797  0.25478656  0.40992821  1
  Te2-  Te153  1  0.91831100  0.25445586  0.74673868  1
  Te2-  Te154  1  0.91993066  0.58828894  0.07716184  1
  Te2-  Te155  1  0.91498671  0.58352077  0.41329567  1
  Te2-  Te156  1  0.92073707  0.59041828  0.74849158  1
  Te2-  Te157  1  0.91541061  0.91504891  0.07521158  1
  Te2-  Te158  1  0.92118952  0.91695807  0.41710888  1
  Te2-  Te159  1  0.91460349  0.91945561  0.74272164  1
  Te2-  Te160  1  0.25963084  0.08221374  0.25379292  1
  Te2-  Te161  1  0.25360225  0.08638749  0.59010728  1
  Te2-  Te162  1  0.25455043  0.07886844  0.91993680  1
  Te2-  Te163  1  0.24992109  0.41374663  0.25218838  1
  Te2-  Te164  1  0.25105521  0.41166159  0.58196443  1
  Te2-  Te165  1  0.24804492  0.41564657  0.91717745  1
  Te2-  Te166  1  0.25139657  0.74847704  0.24706437  1
  Te2-  Te167  1  0.25723160  0.74702213  0.58786684  1
  Te2-  Te168  1  0.25224828  0.74837323  0.91782853  1
  Te2-  Te169  1  0.58269161  0.08578017  0.25847398  1
  Te2-  Te170  1  0.58792815  0.07862393  0.58912040  1
  Te2-  Te171  1  0.58763072  0.08114918  0.91918179  1
  Te2-  Te172  1  0.58329042  0.40985528  0.25311126  1
  Te2-  Te173  1  0.58518513  0.41517351  0.58552989  1
  Te2-  Te174  1  0.58989186  0.41587987  0.92141135  1
  Te2-  Te175  1  0.58938902  0.74708301  0.25250912  1
  Te2-  Te176  1  0.58283392  0.74200918  0.59106022  1
  Te2-  Te177  1  0.58734034  0.74027961  0.91950221  1
  Te2-  Te178  1  0.91898285  0.07658888  0.25533548  1
  Te2-  Te179  1  0.91994046  0.08281362  0.58366333  1
  Te2-  Te180  1  0.92025976  0.08161904  0.91842381  1
  Te2-  Te181  1  0.92451770  0.41628778  0.25093164  1
  Te2-  Te182  1  0.91461918  0.40984969  0.58788577  1
  Te2-  Te183  1  0.92067394  0.41490844  0.91821376  1
  Te2-  Te184  1  0.91863122  0.74545119  0.25283528  1
  Te2-  Te185  1  0.92282610  0.74801951  0.58748057  1
  Te2-  Te186  1  0.91742791  0.75102679  0.91642337  1
  Te2-  Te187  1  0.08160580  0.25422594  0.25688251  1
  Te2-  Te188  1  0.07711723  0.25194897  0.58863578  1
  Te2-  Te189  1  0.08035806  0.25262919  0.92236655  1
  Te2-  Te190  1  0.08150577  0.58646757  0.25237130  1
  Te2-  Te191  1  0.07640888  0.58970514  0.58938392  1
  Te2-  Te192  1  0.08031546  0.58948405  0.91472719  1
  Te2-  Te193  1  0.07918708  0.92132346  0.25472024  1
  Te2-  Te194  1  0.08501336  0.92221224  0.58193905  1
  Te2-  Te195  1  0.07904025  0.91859457  0.91720626  1
  Te2-  Te196  1  0.40912215  0.25413628  0.25417891  1
  Te2-  Te197  1  0.41067090  0.24929515  0.58536194  1
  Te2-  Te198  1  0.41187166  0.25476733  0.91769735  1
  Te2-  Te199  1  0.41370274  0.58513281  0.25058914  1
  Te2-  Te200  1  0.41638615  0.58704072  0.58546745  1
  Te2-  Te201  1  0.41327972  0.58388700  0.91789006  1
  Te2-  Te202  1  0.41980080  0.92043249  0.25264633  1
  Te2-  Te203  1  0.41301311  0.92037949  0.59204025  1
  Te2-  Te204  1  0.41742978  0.91677271  0.92040651  1
  Te2-  Te205  1  0.74612084  0.24880788  0.25241779  1
  Te2-  Te206  1  0.74819123  0.25409702  0.58699591  1
  Te2-  Te207  1  0.75150058  0.25717525  0.92300500  1
  Te2-  Te208  1  0.74904532  0.58548540  0.25237083  1
  Te2-  Te209  1  0.74126437  0.58225103  0.58782030  1
  Te2-  Te210  1  0.74693015  0.58229828  0.91985752  1
  Te2-  Te211  1  0.74384385  0.91484216  0.25281695  1
  Te2-  Te212  1  0.74986853  0.92199065  0.58424301  1
  Te2-  Te213  1  0.74586484  0.92565110  0.91550788  1
  Te2-  Te214  1  0.08227721  0.08237043  0.08156917  1
  Te2-  Te215  1  0.07948768  0.07625582  0.41786098  1
  Te2-  Te216  1  0.08194720  0.08043497  0.74968485  1
  Te2-  Te217  1  0.07847899  0.41184671  0.07809888  1
  Te2-  Te218  1  0.07417694  0.41850170  0.41137278  1
  Te2-  Te219  1  0.07669442  0.41373031  0.74509191  1
  Te2-  Te220  1  0.07780081  0.75264568  0.07908678  1
  Te2-  Te221  1  0.08580169  0.74564129  0.41199823  1
  Te2-  Te222  1  0.07970018  0.74905422  0.74692619  1
  Te2-  Te223  1  0.41554413  0.07934018  0.07851713  1
  Te2-  Te224  1  0.41745649  0.07107649  0.41500921  1
  Te2-  Te225  1  0.41801818  0.08290381  0.74854827  1
  Te2-  Te226  1  0.41092138  0.41643556  0.07883030  1
  Te2-  Te227  1  0.41146597  0.41607004  0.41327411  1
  Te2-  Te228  1  0.41485317  0.41013610  0.74892385  1
  Te2-  Te229  1  0.41662208  0.74905372  0.08337339  1
  Te2-  Te230  1  0.40999363  0.75081901  0.41672324  1
  Te2-  Te231  1  0.41775445  0.74806041  0.74789423  1
  Te2-  Te232  1  0.74879254  0.08008094  0.07963921  1
  Te2-  Te233  1  0.74532685  0.08128666  0.41479586  1
  Te2-  Te234  1  0.74668795  0.08539330  0.74935038  1
  Te2-  Te235  1  0.75067072  0.41366459  0.07967759  1
  Te2-  Te236  1  0.74385406  0.41136002  0.41412149  1
  Te2-  Te237  1  0.74935931  0.41562138  0.74611150  1
  Te2-  Te238  1  0.74531351  0.73712530  0.07939034  1
  Te2-  Te239  1  0.74886266  0.74451402  0.41278139  1
  Te2-  Te240  1  0.74379525  0.74447466  0.74563089  1
