# generated using pymatgen
data_Ti27(Cu53Te54)2
_symmetry_space_group_name_H-M   'P 1'
_cell_length_a   17.90191277
_cell_length_b   17.89484381
_cell_length_c   17.89464338
_cell_angle_alpha   90.02850700
_cell_angle_beta   89.96304739
_cell_angle_gamma   90.02498878
_symmetry_Int_Tables_number   1
_chemical_formula_structural   Ti27(Cu53Te54)2
_chemical_formula_sum   'Ti27 Cu106 Te108'
_cell_volume   5732.58115087
_cell_formula_units_Z   1
loop_
 _symmetry_equiv_pos_site_id
 _symmetry_equiv_pos_as_xyz
  1  'x, y, z'
loop_
 _atom_type_symbol
 _atom_type_oxidation_number
  Ti4+  4.0
  Cu+  1.0
  Te2-  -2.0
loop_
 _atom_site_type_symbol
 _atom_site_label
 _atom_site_symmetry_multiplicity
 _atom_site_fract_x
 _atom_site_fract_y
 _atom_site_fract_z
 _atom_site_occupancy
  Ti4+  Ti0  1  0.16838036  0.16549961  0.16583145  1
  Ti4+  Ti1  1  0.16508487  0.16649704  0.50086649  1
  Ti4+  Ti2  1  0.16478373  0.16650741  0.83543809  1
  Ti4+  Ti3  1  0.16815834  0.50174289  0.16636102  1
  Ti4+  Ti4  1  0.16921726  0.50208607  0.50018566  1
  Ti4+  Ti5  1  0.16289169  0.49953733  0.83355629  1
  Ti4+  Ti6  1  0.16740302  0.83464324  0.16693354  1
  Ti4+  Ti7  1  0.16627792  0.83554600  0.50207672  1
  Ti4+  Ti8  1  0.16654006  0.83474772  0.83460001  1
  Ti4+  Ti9  1  0.50057950  0.16677035  0.16492578  1
  Ti4+  Ti10  1  0.49853009  0.16612137  0.49836526  1
  Ti4+  Ti11  1  0.50031946  0.16808359  0.83354861  1
  Ti4+  Ti12  1  0.50240056  0.50123202  0.16488852  1
  Ti4+  Ti13  1  0.50345687  0.49933711  0.49832202  1
  Ti4+  Ti14  1  0.49493132  0.50197341  0.83335927  1
  Ti4+  Ti15  1  0.49948554  0.83550160  0.16934734  1
  Ti4+  Ti16  1  0.50006131  0.83062914  0.50104012  1
  Ti4+  Ti17  1  0.50220879  0.83326322  0.83593553  1
  Ti4+  Ti18  1  0.83636604  0.16892890  0.16457947  1
  Ti4+  Ti19  1  0.83716722  0.16627557  0.49915066  1
  Ti4+  Ti20  1  0.82631506  0.16257316  0.83011184  1
  Ti4+  Ti21  1  0.83414264  0.49822478  0.16617379  1
  Ti4+  Ti22  1  0.83765561  0.49976020  0.50110154  1
  Ti4+  Ti23  1  0.82985521  0.49895821  0.83391457  1
  Ti4+  Ti24  1  0.83569018  0.83386585  0.16865655  1
  Ti4+  Ti25  1  0.83332790  0.83200207  0.49796696  1
  Ti4+  Ti26  1  0.83319898  0.83208326  0.83831325  1
  Cu+  Cu27  1  0.16746043  0.16598373  0.00327375  1
  Cu+  Cu28  1  0.16944149  0.16736193  0.33378170  1
  Cu+  Cu29  1  0.16318802  0.16432560  0.66903828  1
  Cu+  Cu30  1  0.16888073  0.50220402  -0.00199741  1
  Cu+  Cu31  1  0.17057508  0.50136277  0.33307277  1
  Cu+  Cu32  1  0.16279134  0.49832767  0.66524040  1
  Cu+  Cu33  1  0.16211237  0.83451534  0.00057881  1
  Cu+  Cu34  1  0.16784593  0.83539438  0.33725249  1
  Cu+  Cu35  1  0.16965770  0.83620538  0.67019050  1
  Cu+  Cu36  1  0.49882186  0.17106736  -0.00170846  1
  Cu+  Cu37  1  0.49840948  0.16457823  0.33014217  1
  Cu+  Cu38  1  0.49858819  0.16687571  0.66557693  1
  Cu+  Cu39  1  0.49562767  0.50817608  0.00196730  1
  Cu+  Cu40  1  0.50402981  0.49777845  0.32994090  1
  Cu+  Cu41  1  0.50002540  0.49691089  0.66618532  1
  Cu+  Cu42  1  0.50456677  0.83714061  0.00088858  1
  Cu+  Cu43  1  0.49768324  0.83345121  0.33786383  1
  Cu+  Cu44  1  0.49870030  0.82956404  0.66580630  1
  Cu+  Cu45  1  0.83089207  0.17053475  -0.00383316  1
  Cu+  Cu46  1  0.84076899  0.16795554  0.33296626  1
  Cu+  Cu47  1  0.82689209  0.16102539  0.66056969  1
  Cu+  Cu48  1  0.83238444  0.50119200  -0.00041736  1
  Cu+  Cu49  1  0.83832949  0.50180212  0.33392980  1
  Cu+  Cu50  1  0.83256097  0.49647815  0.66743084  1
  Cu+  Cu51  1  0.83458198  0.83124873  0.00469300  1
  Cu+  Cu52  1  0.83479442  0.83270191  0.33074523  1
  Cu+  Cu53  1  0.83525650  0.83077481  0.66785538  1
  Cu+  Cu54  1  0.16902381  -0.00083188  0.16142599  1
  Cu+  Cu55  1  0.15883079  0.00118442  0.50199916  1
  Cu+  Cu56  1  0.16799015  0.00052047  0.83541047  1
  Cu+  Cu57  1  0.16937432  0.33526288  0.16632938  1
  Cu+  Cu58  1  0.16674094  0.33593596  0.50297515  1
  Cu+  Cu59  1  0.16202125  0.33225368  0.83176592  1
  Cu+  Cu60  1  0.16750418  0.66793165  0.16927252  1
  Cu+  Cu61  1  0.17117640  0.66945788  0.49891064  1
  Cu+  Cu62  1  0.16387601  0.66886291  0.83611275  1
  Cu+  Cu63  1  0.49743128  0.00511031  0.17130775  1
  Cu+  Cu64  1  0.49634744  -0.00597844  0.49846276  1
  Cu+  Cu65  1  0.50526312  -0.00054892  0.83782600  1
  Cu+  Cu66  1  0.50166014  0.33519627  0.16735943  1
  Cu+  Cu67  1  0.50043629  0.33156995  0.49974081  1
  Cu+  Cu68  1  0.49779729  0.33802942  0.82849872  1
  Cu+  Cu69  1  0.49871223  0.66801349  0.16629739  1
  Cu+  Cu70  1  0.50578138  0.66607569  0.49811890  1
  Cu+  Cu71  1  0.50163630  0.66673086  0.83758361  1
  Cu+  Cu72  1  0.83667494  0.00355292  0.16782670  1
  Cu+  Cu73  1  0.83417302  0.00146464  0.50040230  1
  Cu+  Cu74  1  0.82566568  -0.00643451  0.82835255  1
  Cu+  Cu75  1  0.83113365  0.33103741  0.16205030  1
  Cu+  Cu76  1  0.84055754  0.33180836  0.49909020  1
  Cu+  Cu77  1  0.82885263  0.32860918  0.83371229  1
  Cu+  Cu78  1  0.83738049  0.66541243  0.16950809  1
  Cu+  Cu79  1  0.83324172  0.66385743  0.49677822  1
  Cu+  Cu80  1  0.83406339  0.66634171  0.83720407  1
  Cu+  Cu81  1  0.00442378  0.17116177  0.16317140  1
  Cu+  Cu82  1  0.00280698  0.16294621  0.50439971  1
  Cu+  Cu83  1  -0.00816152  0.16555939  0.83448166  1
  Cu+  Cu84  1  -0.00052432  0.49921189  0.17130328  1
  Cu+  Cu85  1  0.00598762  0.49813408  0.50284148  1
  Cu+  Cu86  1  -0.00598139  0.50022249  0.83296862  1
  Cu+  Cu87  1  0.00214161  0.83645191  0.16561992  1
  Cu+  Cu88  1  -0.00062754  0.83785562  0.49956974  1
  Cu+  Cu89  1  0.00249086  0.82773936  0.83878447  1
  Cu+  Cu90  1  0.33350632  0.16083083  0.16433093  1
  Cu+  Cu91  1  0.32878986  0.16649227  0.50149633  1
  Cu+  Cu92  1  0.33485832  0.16883351  0.83369403  1
  Cu+  Cu93  1  0.33658690  0.50208216  0.16320019  1
  Cu+  Cu94  1  0.33738120  0.50073783  0.49900584  1
  Cu+  Cu95  1  0.32619958  0.50241814  0.83577062  1
  Cu+  Cu96  1  0.33337372  0.83424898  0.16923429  1
  Cu+  Cu97  1  0.33228592  0.83162454  0.49731115  1
  Cu+  Cu98  1  0.33573999  0.83375595  0.83381820  1
  Cu+  Cu99  1  0.67008278  0.17065674  0.16443182  1
  Cu+  Cu100  1  0.66833633  0.16773300  0.49589300  1
  Cu+  Cu101  1  0.65912528  0.15993264  0.82465092  1
  Cu+  Cu102  1  0.67006329  0.50139514  0.16116083  1
  Cu+  Cu103  1  0.67264144  0.50013633  0.50041875  1
  Cu+  Cu104  1  0.66015422  0.49715258  0.83332101  1
  Cu+  Cu105  1  0.66832903  0.83485114  0.17096963  1
  Cu+  Cu106  1  0.66379589  0.82757598  0.49852268  1
  Cu+  Cu107  1  0.66741091  0.83789566  0.83893916  1
  Cu+  Cu108  1  0.73523654  0.25773627  0.06769497  1
  Cu+  Cu109  1  0.92258344  0.25806928  0.92085574  1
  Cu+  Cu110  1  0.40378263  0.92474749  0.41026707  1
  Cu+  Cu111  1  0.07068776  0.92704632  0.07040685  1
  Cu+  Cu112  1  0.07443127  0.40610554  0.59414438  1
  Cu+  Cu113  1  0.73494357  0.07126308  0.57770890  1
  Cu+  Cu114  1  0.93027314  0.59390314  0.26323291  1
  Cu+  Cu115  1  0.57642093  0.06777176  0.73333774  1
  Cu+  Cu116  1  0.74800455  0.59801541  0.07424559  1
  Cu+  Cu117  1  0.40370769  0.07803419  0.26141770  1
  Cu+  Cu118  1  0.73836756  0.91178301  0.73539229  1
  Cu+  Cu119  1  0.26340532  0.07042402  0.06964060  1
  Cu+  Cu120  1  0.06967752  0.92785771  0.40616124  1
  Cu+  Cu121  1  0.07440186  0.07035038  0.60134029  1
  Cu+  Cu122  1  0.07585586  0.73890033  0.93152073  1
  Cu+  Cu123  1  0.59300476  0.74058579  0.40378002  1
  Cu+  Cu124  1  0.25556507  0.59732072  0.92283466  1
  Cu+  Cu125  1  0.08182946  0.26602036  0.07560436  1
  Cu+  Cu126  1  0.59551409  0.93210588  0.93535037  1
  Cu+  Cu127  1  0.25781046  0.73900956  0.40560070  1
  Cu+  Cu128  1  0.40413684  0.60022396  0.07852891  1
  Cu+  Cu129  1  0.59090814  0.59005931  0.92426184  1
  Cu+  Cu130  1  0.92337107  0.59093432  0.92564079  1
  Cu+  Cu131  1  0.74257248  0.58741044  0.40649971  1
  Cu+  Cu132  1  0.59116576  0.40915542  0.73773531  1
  Te2-  Te133  1  0.25508407  0.25299799  0.08147704  1
  Te2-  Te134  1  0.25056369  0.25342900  0.41664809  1
  Te2-  Te135  1  0.24897229  0.25022307  0.74880118  1
  Te2-  Te136  1  0.25268943  0.59109456  0.07951740  1
  Te2-  Te137  1  0.25698596  0.58625705  0.41283126  1
  Te2-  Te138  1  0.24614627  0.58607115  0.74724577  1
  Te2-  Te139  1  0.25639727  0.91664595  0.07808270  1
  Te2-  Te140  1  0.25153956  0.92523864  0.41621455  1
  Te2-  Te141  1  0.25415723  0.92037987  0.75120917  1
  Te2-  Te142  1  0.58464901  0.25550298  0.07920787  1
  Te2-  Te143  1  0.58338317  0.24965193  0.41256399  1
  Te2-  Te144  1  0.58448108  0.25517205  0.74371557  1
  Te2-  Te145  1  0.59009534  0.59257670  0.07928842  1
  Te2-  Te146  1  0.59020189  0.58486659  0.40940028  1
  Te2-  Te147  1  0.58302283  0.58644053  0.74696086  1
  Te2-  Te148  1  0.58683623  0.92272293  0.08786185  1
  Te2-  Te149  1  0.58745109  0.91826621  0.41472424  1
  Te2-  Te150  1  0.58634462  0.91739137  0.74225286  1
  Te2-  Te151  1  0.92350402  0.25686047  0.07578877  1
  Te2-  Te152  1  0.92601227  0.25047796  0.41587387  1
  Te2-  Te153  1  0.91137230  0.24763839  0.74436683  1
  Te2-  Te154  1  0.92264429  0.58532334  0.08037803  1
  Te2-  Te155  1  0.92708041  0.58598848  0.41654761  1
  Te2-  Te156  1  0.91439528  0.58533089  0.74741459  1
  Te2-  Te157  1  0.91889152  0.92121190  0.08069150  1
  Te2-  Te158  1  0.91657575  0.92107179  0.41240200  1
  Te2-  Te159  1  0.92099083  0.91379071  0.75203950  1
  Te2-  Te160  1  0.25130610  0.07747720  0.25475710  1
  Te2-  Te161  1  0.24932211  0.07968961  0.58687009  1
  Te2-  Te162  1  0.25425101  0.08187792  0.91857302  1
  Te2-  Te163  1  0.25486410  0.41746396  0.24941360  1
  Te2-  Te164  1  0.25538081  0.41718719  0.58593029  1
  Te2-  Te165  1  0.24801510  0.41139789  0.91774721  1
  Te2-  Te166  1  0.25350931  0.74840103  0.25354600  1
  Te2-  Te167  1  0.25274188  0.75069984  0.58812192  1
  Te2-  Te168  1  0.25417975  0.75062121  0.92176601  1
  Te2-  Te169  1  0.58996871  0.08458668  0.25016289  1
  Te2-  Te170  1  0.58418781  0.07641706  0.58215667  1
  Te2-  Te171  1  0.58771638  0.08348222  0.92444766  1
  Te2-  Te172  1  0.59026052  0.41570597  0.24813744  1
  Te2-  Te173  1  0.58889110  0.41248963  0.58330744  1
  Te2-  Te174  1  0.57818989  0.41626977  0.92250663  1
  Te2-  Te175  1  0.58506772  0.74803640  0.25221931  1
  Te2-  Te176  1  0.58636363  0.74505735  0.58858479  1
  Te2-  Te177  1  0.58896609  0.74740196  0.92279214  1
  Te2-  Te178  1  0.92417843  0.08497376  0.24900676  1
  Te2-  Te179  1  0.92143034  0.07716168  0.58866977  1
  Te2-  Te180  1  0.91002733  0.07676325  0.91575180  1
  Te2-  Te181  1  0.91718652  0.41017597  0.25099991  1
  Te2-  Te182  1  0.92146479  0.41256320  0.58832097  1
  Te2-  Te183  1  0.91612904  0.41129949  0.91913034  1
  Te2-  Te184  1  0.92430975  0.74864214  0.25357116  1
  Te2-  Te185  1  0.91814678  0.74803732  0.58237876  1
  Te2-  Te186  1  0.92011562  0.74474712  0.92628855  1
  Te2-  Te187  1  0.08488654  0.25298740  0.25242784  1
  Te2-  Te188  1  0.08017138  0.25340653  0.58871858  1
  Te2-  Te189  1  0.07725821  0.25328082  0.92079484  1
  Te2-  Te190  1  0.08323547  0.58674908  0.25467599  1
  Te2-  Te191  1  0.08392505  0.59042028  0.58443443  1
  Te2-  Te192  1  0.07541742  0.58608928  0.92245735  1
  Te2-  Te193  1  0.08241796  0.92172358  0.25284967  1
  Te2-  Te194  1  0.07826037  0.91797341  0.59232803  1
  Te2-  Te195  1  0.07825744  0.92322573  0.91898220  1
  Te2-  Te196  1  0.41341785  0.25203806  0.24884460  1
  Te2-  Te197  1  0.41382957  0.25044149  0.58419570  1
  Te2-  Te198  1  0.41510539  0.25589860  0.91649475  1
  Te2-  Te199  1  0.41664464  0.58507352  0.25275002  1
  Te2-  Te200  1  0.41953982  0.58516707  0.58348498  1
  Te2-  Te201  1  0.40737274  0.59192756  0.92081924  1
  Te2-  Te202  1  0.41119756  0.92099433  0.25568936  1
  Te2-  Te203  1  0.41241622  0.91546697  0.58734148  1
  Te2-  Te204  1  0.41579528  0.91939062  0.91971644  1
  Te2-  Te205  1  0.75181587  0.25164093  0.25416594  1
  Te2-  Te206  1  0.74902590  0.25416374  0.58137221  1
  Te2-  Te207  1  0.73712344  0.24936829  0.91340041  1
  Te2-  Te208  1  0.74713261  0.58551195  0.25270003  1
  Te2-  Te209  1  0.75130397  0.58517959  0.58763217  1
  Te2-  Te210  1  0.74226084  0.58758778  0.91995000  1
  Te2-  Te211  1  0.75116383  0.92126086  0.25232442  1
  Te2-  Te212  1  0.74461091  0.91634973  0.58349461  1
  Te2-  Te213  1  0.74882127  0.92007922  0.92778574  1
  Te2-  Te214  1  0.07872015  0.07906131  0.07898776  1
  Te2-  Te215  1  0.07890605  0.08233585  0.40975662  1
  Te2-  Te216  1  0.07689864  0.07931158  0.75333534  1
  Te2-  Te217  1  0.08107477  0.41832153  0.08026413  1
  Te2-  Te218  1  0.08500111  0.41590026  0.41263815  1
  Te2-  Te219  1  0.07551779  0.41359449  0.74841674  1
  Te2-  Te220  1  0.08007751  0.74485931  0.08401432  1
  Te2-  Te221  1  0.08027879  0.74895818  0.41631085  1
  Te2-  Te222  1  0.08241852  0.74898360  0.74689313  1
  Te2-  Te223  1  0.41673000  0.07905095  0.07497475  1
  Te2-  Te224  1  0.40937413  0.07965780  0.41430565  1
  Te2-  Te225  1  0.41553694  0.07939861  0.75004434  1
  Te2-  Te226  1  0.41663606  0.41415671  0.08035794  1
  Te2-  Te227  1  0.41815937  0.41487314  0.41328805  1
  Te2-  Te228  1  0.40730548  0.41861735  0.74791228  1
  Te2-  Te229  1  0.41466397  0.75268260  0.08003106  1
  Te2-  Te230  1  0.41313019  0.74193322  0.41376546  1
  Te2-  Te231  1  0.41684220  0.74687142  0.75128194  1
  Te2-  Te232  1  0.75040019  0.08200941  0.08086968  1
  Te2-  Te233  1  0.75140934  0.08221786  0.41076787  1
  Te2-  Te234  1  0.74005461  0.07336802  0.74006337  1
  Te2-  Te235  1  0.74707674  0.41220425  0.07673486  1
  Te2-  Te236  1  0.75387396  0.41307843  0.41491959  1
  Te2-  Te237  1  0.74514451  0.41205478  0.74785641  1
  Te2-  Te238  1  0.74738483  0.74839448  0.08430610  1
  Te2-  Te239  1  0.74823464  0.74543760  0.40937646  1
  Te2-  Te240  1  0.74735284  0.74763095  0.75204587  1
