# generated using pymatgen
data_Ti27(Cu53Te54)2
_symmetry_space_group_name_H-M   'P 1'
_cell_length_a   17.93816216
_cell_length_b   17.94385816
_cell_length_c   17.94331409
_cell_angle_alpha   89.87331490
_cell_angle_beta   89.93099029
_cell_angle_gamma   89.92284315
_symmetry_Int_Tables_number   1
_chemical_formula_structural   Ti27(Cu53Te54)2
_chemical_formula_sum   'Ti27 Cu106 Te108'
_cell_volume   5775.56750069
_cell_formula_units_Z   1
loop_
 _symmetry_equiv_pos_site_id
 _symmetry_equiv_pos_as_xyz
  1  'x, y, z'
loop_
 _atom_type_symbol
 _atom_type_oxidation_number
  Ti4+  4.0
  Cu+  1.0
  Te2-  -2.0
loop_
 _atom_site_type_symbol
 _atom_site_label
 _atom_site_symmetry_multiplicity
 _atom_site_fract_x
 _atom_site_fract_y
 _atom_site_fract_z
 _atom_site_occupancy
  Ti4+  Ti0  1  0.16786634  0.16363526  0.17205107  1
  Ti4+  Ti1  1  0.16571396  0.16848613  0.50654647  1
  Ti4+  Ti2  1  0.16824613  0.16544412  0.83567414  1
  Ti4+  Ti3  1  0.16496157  0.49908410  0.16900268  1
  Ti4+  Ti4  1  0.16632556  0.50353537  0.50214907  1
  Ti4+  Ti5  1  0.16924312  0.50117828  0.83335654  1
  Ti4+  Ti6  1  0.16128950  0.83007264  0.16398607  1
  Ti4+  Ti7  1  0.16632510  0.83459557  0.50275958  1
  Ti4+  Ti8  1  0.16936295  0.83334959  0.83416459  1
  Ti4+  Ti9  1  0.49830337  0.16940326  0.16442807  1
  Ti4+  Ti10  1  0.50099885  0.16567428  0.49646252  1
  Ti4+  Ti11  1  0.50245694  0.16695646  0.83020945  1
  Ti4+  Ti12  1  0.49915114  0.50059756  0.16699758  1
  Ti4+  Ti13  1  0.49795774  0.50045761  0.49775703  1
  Ti4+  Ti14  1  0.50196953  0.50071987  0.83253112  1
  Ti4+  Ti15  1  0.49978150  0.83214839  0.16464516  1
  Ti4+  Ti16  1  0.49848195  0.83134534  0.49632932  1
  Ti4+  Ti17  1  0.50238988  0.83574615  0.83087863  1
  Ti4+  Ti18  1  0.83107082  0.16806500  0.16977180  1
  Ti4+  Ti19  1  0.83777688  0.16468465  0.49949298  1
  Ti4+  Ti20  1  0.83478474  0.16889835  0.83254218  1
  Ti4+  Ti21  1  0.83602476  0.49808393  0.16512511  1
  Ti4+  Ti22  1  0.83238316  0.50154830  0.50054109  1
  Ti4+  Ti23  1  0.83224392  0.49934552  0.83069191  1
  Ti4+  Ti24  1  0.83224299  0.83273581  0.16734644  1
  Ti4+  Ti25  1  0.83102938  0.83075717  0.50029728  1
  Ti4+  Ti26  1  0.83184797  0.83605523  0.83394871  1
  Cu+  Cu27  1  0.16850816  0.16421479  0.00416641  1
  Cu+  Cu28  1  0.16905615  0.16486101  0.34014765  1
  Cu+  Cu29  1  0.16252553  0.16453425  0.67374387  1
  Cu+  Cu30  1  0.16561009  0.49936577  0.00060022  1
  Cu+  Cu31  1  0.16473179  0.49815995  0.33669075  1
  Cu+  Cu32  1  0.17147284  0.50362226  0.66670139  1
  Cu+  Cu33  1  0.16532486  0.83201354  -0.00178480  1
  Cu+  Cu34  1  0.16282968  0.83322298  0.33140861  1
  Cu+  Cu35  1  0.16794367  0.83326060  0.67024532  1
  Cu+  Cu36  1  0.49934006  0.16954910  -0.00286651  1
  Cu+  Cu37  1  0.50051849  0.16907053  0.32915259  1
  Cu+  Cu38  1  0.50170320  0.16568924  0.66296420  1
  Cu+  Cu39  1  0.50308770  0.49922126  0.00170629  1
  Cu+  Cu40  1  0.48889469  0.49932253  0.33180326  1
  Cu+  Cu41  1  0.50541484  0.50002601  0.66650654  1
  Cu+  Cu42  1  0.50056197  0.83330435  -0.00307739  1
  Cu+  Cu43  1  0.50118191  0.82731274  0.33240045  1
  Cu+  Cu44  1  0.50164943  0.83739009  0.66253442  1
  Cu+  Cu45  1  0.83145749  0.16690303  0.00112466  1
  Cu+  Cu46  1  0.83456978  0.17151047  0.33536035  1
  Cu+  Cu47  1  0.83833528  0.16799120  0.66627989  1
  Cu+  Cu48  1  0.83063496  0.49675166  -0.00487850  1
  Cu+  Cu49  1  0.83583892  0.50088816  0.33094529  1
  Cu+  Cu50  1  0.83291763  0.50303570  0.66594245  1
  Cu+  Cu51  1  0.83307247  0.83402296  0.00022317  1
  Cu+  Cu52  1  0.82910539  0.83072198  0.33306763  1
  Cu+  Cu53  1  0.83152903  0.83579870  0.66770051  1
  Cu+  Cu54  1  0.16666807  -0.00597327  0.17237691  1
  Cu+  Cu55  1  0.16406999  0.00391325  0.50438444  1
  Cu+  Cu56  1  0.17288691  -0.00136336  0.83390117  1
  Cu+  Cu57  1  0.16756230  0.33088996  0.16878585  1
  Cu+  Cu58  1  0.16536230  0.33777298  0.50409876  1
  Cu+  Cu59  1  0.16721441  0.33449786  0.83475111  1
  Cu+  Cu60  1  0.15852509  0.66285972  0.16273611  1
  Cu+  Cu61  1  0.16912971  0.66811206  0.50482914  1
  Cu+  Cu62  1  0.16970896  0.66789800  0.83419531  1
  Cu+  Cu63  1  0.49648747  -0.00087715  0.16203205  1
  Cu+  Cu64  1  0.50162218  -0.00089483  0.49819682  1
  Cu+  Cu65  1  0.50520181  0.00049451  0.83323106  1
  Cu+  Cu66  1  0.50158156  0.33885759  0.16649454  1
  Cu+  Cu67  1  0.49804232  0.33123919  0.49754709  1
  Cu+  Cu68  1  0.50368200  0.33357019  0.82827201  1
  Cu+  Cu69  1  0.50010602  0.66621097  0.16472845  1
  Cu+  Cu70  1  0.49970396  0.66444006  0.49200599  1
  Cu+  Cu71  1  0.49754856  0.66979643  0.83350957  1
  Cu+  Cu72  1  0.82817082  0.00166352  0.16815655  1
  Cu+  Cu73  1  0.83739328  -0.00501025  0.50133782  1
  Cu+  Cu74  1  0.83436054  0.00442729  0.83272613  1
  Cu+  Cu75  1  0.83611110  0.33095503  0.17105017  1
  Cu+  Cu76  1  0.83415364  0.33326229  0.49698057  1
  Cu+  Cu77  1  0.83220568  0.33519528  0.83207680  1
  Cu+  Cu78  1  0.83869234  0.66564253  0.16576231  1
  Cu+  Cu79  1  0.83224798  0.66533688  0.50228023  1
  Cu+  Cu80  1  0.82878661  0.66756817  0.83302852  1
  Cu+  Cu81  1  0.00117523  0.16574093  0.17070761  1
  Cu+  Cu82  1  0.00141952  0.16779798  0.51198287  1
  Cu+  Cu83  1  0.00225132  0.17079412  0.83410639  1
  Cu+  Cu84  1  0.00056777  0.50381742  0.16635017  1
  Cu+  Cu85  1  -0.00111853  0.50418333  0.50352074  1
  Cu+  Cu86  1  -0.00030373  0.50032424  0.83178154  1
  Cu+  Cu87  1  -0.00574378  0.82770906  0.15969621  1
  Cu+  Cu88  1  -0.00131027  0.83344129  0.50341852  1
  Cu+  Cu89  1  0.00229092  0.83419746  0.83323908  1
  Cu+  Cu90  1  0.33617636  0.16061517  0.17168145  1
  Cu+  Cu91  1  0.33137427  0.16491809  0.49835046  1
  Cu+  Cu92  1  0.33556124  0.16377115  0.83138748  1
  Cu+  Cu93  1  0.33061024  0.49760944  0.17094743  1
  Cu+  Cu94  1  0.33203169  0.50707084  0.49807439  1
  Cu+  Cu95  1  0.33548672  0.50081658  0.83472561  1
  Cu+  Cu96  1  0.32920464  0.83123633  0.16524275  1
  Cu+  Cu97  1  0.33275532  0.83325390  0.49787195  1
  Cu+  Cu98  1  0.33781236  0.83079221  0.83522207  1
  Cu+  Cu99  1  0.66262179  0.17218841  0.16926657  1
  Cu+  Cu100  1  0.67200292  0.16493761  0.49265605  1
  Cu+  Cu101  1  0.66997512  0.16806409  0.83191286  1
  Cu+  Cu102  1  0.66808891  0.49597444  0.16306020  1
  Cu+  Cu103  1  0.66407726  0.50165503  0.50098945  1
  Cu+  Cu104  1  0.66544684  0.49654650  0.82803244  1
  Cu+  Cu105  1  0.66884367  0.83279515  0.16565735  1
  Cu+  Cu106  1  0.66257171  0.83075234  0.49660587  1
  Cu+  Cu107  1  0.66634647  0.84120160  0.83456257  1
  Cu+  Cu108  1  0.93271232  0.25702351  0.25931777  1
  Cu+  Cu109  1  0.25635038  0.07394272  0.41379202  1
  Cu+  Cu110  1  0.40163067  0.59522474  0.40254489  1
  Cu+  Cu111  1  0.40063858  0.40654556  0.25879806  1
  Cu+  Cu112  1  0.26168231  0.59681501  0.59756014  1
  Cu+  Cu113  1  0.92704388  0.59410050  0.59708858  1
  Cu+  Cu114  1  0.58832098  0.26520226  0.25683120  1
  Cu+  Cu115  1  0.92102249  0.26381919  0.59414223  1
  Cu+  Cu116  1  0.26588115  0.06941661  0.74710460  1
  Cu+  Cu117  1  0.07368333  0.58785988  0.06768435  1
  Cu+  Cu118  1  0.59279385  0.92985716  0.92967403  1
  Cu+  Cu119  1  0.40903466  0.73950376  0.92684859  1
  Cu+  Cu120  1  0.07571772  0.26553652  0.74918742  1
  Cu+  Cu121  1  0.59096369  0.59296900  0.59341519  1
  Cu+  Cu122  1  0.91898077  0.73911580  0.06671480  1
  Cu+  Cu123  1  0.07486754  0.07268825  0.60138371  1
  Cu+  Cu124  1  0.92602248  0.92141728  0.59628546  1
  Cu+  Cu125  1  0.59115265  0.92876060  0.58813294  1
  Cu+  Cu126  1  0.92638838  0.59528177  0.26064456  1
  Cu+  Cu127  1  0.41890705  0.06915998  0.25931378  1
  Cu+  Cu128  1  0.74325372  0.26291094  0.40986266  1
  Cu+  Cu129  1  0.59568925  0.73754851  0.40247449  1
  Cu+  Cu130  1  0.25798064  0.91399654  0.25887329  1
  Cu+  Cu131  1  0.59417317  0.40332868  0.73465656  1
  Cu+  Cu132  1  0.59742846  0.40896877  0.07136077  1
  Te2-  Te133  1  0.25317094  0.24716276  0.08718709  1
  Te2-  Te134  1  0.24926714  0.25514450  0.41981649  1
  Te2-  Te135  1  0.25254761  0.25177228  0.74852051  1
  Te2-  Te136  1  0.25173473  0.58294357  0.08348527  1
  Te2-  Te137  1  0.24881233  0.58978342  0.41080569  1
  Te2-  Te138  1  0.25666393  0.58864512  0.74991967  1
  Te2-  Te139  1  0.24827071  0.91663201  0.08034954  1
  Te2-  Te140  1  0.25113123  0.92056818  0.41460666  1
  Te2-  Te141  1  0.25812899  0.91654759  0.74749865  1
  Te2-  Te142  1  0.58526175  0.25545245  0.07760778  1
  Te2-  Te143  1  0.58715126  0.25474231  0.41166402  1
  Te2-  Te144  1  0.58918968  0.25030166  0.74293952  1
  Te2-  Te145  1  0.58659660  0.58548146  0.08184405  1
  Te2-  Te146  1  0.58584225  0.58124722  0.40642306  1
  Te2-  Te147  1  0.58656691  0.59095291  0.74852903  1
  Te2-  Te148  1  0.58616711  0.91881371  0.08164870  1
  Te2-  Te149  1  0.58399633  0.91794401  0.40982043  1
  Te2-  Te150  1  0.58838540  0.92276541  0.74256661  1
  Te2-  Te151  1  0.91875349  0.24955023  0.08305354  1
  Te2-  Te152  1  0.92642037  0.25302554  0.41590583  1
  Te2-  Te153  1  0.92190886  0.25824604  0.74666494  1
  Te2-  Te154  1  0.91898683  0.58365551  0.07231944  1
  Te2-  Te155  1  0.91878711  0.58773960  0.41459977  1
  Te2-  Te156  1  0.91872995  0.58873012  0.74862224  1
  Te2-  Te157  1  0.91455423  0.92214811  0.08252535  1
  Te2-  Te158  1  0.91753266  0.91319461  0.41311986  1
  Te2-  Te159  1  0.91995185  0.92049196  0.74953322  1
  Te2-  Te160  1  0.25536883  0.07476179  0.25915676  1
  Te2-  Te161  1  0.25396684  0.08119910  0.59124817  1
  Te2-  Te162  1  0.25472048  0.08124449  0.92144458  1
  Te2-  Te163  1  0.24900631  0.41197792  0.25708413  1
  Te2-  Te164  1  0.25477178  0.41780390  0.58449188  1
  Te2-  Te165  1  0.25253663  0.41560404  0.91900799  1
  Te2-  Te166  1  0.24607219  0.74398478  0.24925686  1
  Te2-  Te167  1  0.25483594  0.75093832  0.58805701  1
  Te2-  Te168  1  0.25433344  0.74644966  0.92113715  1
  Te2-  Te169  1  0.58286590  0.07909397  0.24879337  1
  Te2-  Te170  1  0.58940760  0.08278165  0.58116283  1
  Te2-  Te171  1  0.58876917  0.08448274  0.91918453  1
  Te2-  Te172  1  0.58699320  0.41833589  0.25749823  1
  Te2-  Te173  1  0.58500986  0.41062295  0.58132912  1
  Te2-  Te174  1  0.58675310  0.41277909  0.91853818  1
  Te2-  Te175  1  0.58703171  0.74553580  0.24827156  1
  Te2-  Te176  1  0.58345401  0.74436916  0.58433916  1
  Te2-  Te177  1  0.58800404  0.74872498  0.91632482  1
  Te2-  Te178  1  0.91551702  0.08094286  0.25374335  1
  Te2-  Te179  1  0.92052793  0.07509215  0.59103764  1
  Te2-  Te180  1  0.91940455  0.08529185  0.91889042  1
  Te2-  Te181  1  0.92294663  0.41350066  0.25290502  1
  Te2-  Te182  1  0.91839967  0.41505191  0.58609391  1
  Te2-  Te183  1  0.91894088  0.41460755  0.91546408  1
  Te2-  Te184  1  0.91968924  0.74752505  0.25604466  1
  Te2-  Te185  1  0.91759322  0.74657539  0.58880832  1
  Te2-  Te186  1  0.91837836  0.74784509  0.91545618  1
  Te2-  Te187  1  0.08457385  0.25113986  0.25799578  1
  Te2-  Te188  1  0.08065944  0.25976363  0.59284087  1
  Te2-  Te189  1  0.08471144  0.25152993  0.92269760  1
  Te2-  Te190  1  0.07978978  0.58583313  0.25770395  1
  Te2-  Te191  1  0.08030891  0.58932287  0.58993155  1
  Te2-  Te192  1  0.08098696  0.58666072  0.91600732  1
  Te2-  Te193  1  0.07333485  0.91318259  0.24878244  1
  Te2-  Te194  1  0.08052610  0.91899761  0.59160126  1
  Te2-  Te195  1  0.08342514  0.91947229  0.91741094  1
  Te2-  Te196  1  0.41188985  0.25602465  0.25225009  1
  Te2-  Te197  1  0.41513791  0.24855543  0.58190288  1
  Te2-  Te198  1  0.41638995  0.25275630  0.91254986  1
  Te2-  Te199  1  0.41020341  0.59038272  0.24941255  1
  Te2-  Te200  1  0.41621591  0.58748858  0.58748289  1
  Te2-  Te201  1  0.41630452  0.58465016  0.92116508  1
  Te2-  Te202  1  0.41330592  0.91551914  0.25390709  1
  Te2-  Te203  1  0.41336453  0.91905917  0.58136942  1
  Te2-  Te204  1  0.41628472  0.92168671  0.91716794  1
  Te2-  Te205  1  0.74322909  0.25768365  0.25656905  1
  Te2-  Te206  1  0.74943256  0.24999187  0.58318203  1
  Te2-  Te207  1  0.74932839  0.25304304  0.91774333  1
  Te2-  Te208  1  0.74865103  0.58338759  0.24716412  1
  Te2-  Te209  1  0.74412635  0.58702759  0.58655871  1
  Te2-  Te210  1  0.74513040  0.58232484  0.91547312  1
  Te2-  Te211  1  0.74628429  0.91750807  0.25297628  1
  Te2-  Te212  1  0.74363125  0.91798019  0.58367711  1
  Te2-  Te213  1  0.74969050  0.92400458  0.92113664  1
  Te2-  Te214  1  0.08341564  0.07964024  0.08696048  1
  Te2-  Te215  1  0.07821520  0.08471914  0.41979658  1
  Te2-  Te216  1  0.07804604  0.07583358  0.75374595  1
  Te2-  Te217  1  0.08151941  0.41271851  0.08392300  1
  Te2-  Te218  1  0.07912114  0.41734691  0.41978343  1
  Te2-  Te219  1  0.08315204  0.41838312  0.74612891  1
  Te2-  Te220  1  0.07631303  0.74404793  0.07295144  1
  Te2-  Te221  1  0.08225419  0.74925463  0.41932832  1
  Te2-  Te222  1  0.08350664  0.74808409  0.75006918  1
  Te2-  Te223  1  0.41462052  0.08338982  0.07735518  1
  Te2-  Te224  1  0.41418578  0.07814730  0.41207575  1
  Te2-  Te225  1  0.41928871  0.07856020  0.74500854  1
  Te2-  Te226  1  0.41234795  0.41644342  0.08121375  1
  Te2-  Te227  1  0.40887041  0.41167134  0.41641480  1
  Te2-  Te228  1  0.41602315  0.41722539  0.74699281  1
  Te2-  Te229  1  0.41343596  0.74734749  0.08067317  1
  Te2-  Te230  1  0.40840156  0.74708333  0.41013098  1
  Te2-  Te231  1  0.41743799  0.75087418  0.74371830  1
  Te2-  Te232  1  0.74429163  0.08564561  0.08448428  1
  Te2-  Te233  1  0.75515875  0.07713270  0.41399137  1
  Te2-  Te234  1  0.75064366  0.08437864  0.74583977  1
  Te2-  Te235  1  0.75179918  0.40946111  0.08031725  1
  Te2-  Te236  1  0.74708899  0.41764411  0.41304563  1
  Te2-  Te237  1  0.74835412  0.41266914  0.74238034  1
  Te2-  Te238  1  0.74908794  0.74562418  0.08106602  1
  Te2-  Te239  1  0.74688925  0.74337869  0.41367010  1
  Te2-  Te240  1  0.74569793  0.75262794  0.74971493  1
