# generated using pymatgen
data_Ti27(Cu53Te54)2
_symmetry_space_group_name_H-M   'P 1'
_cell_length_a   17.91567964
_cell_length_b   17.91170269
_cell_length_c   17.91174634
_cell_angle_alpha   89.99830325
_cell_angle_beta   89.96196942
_cell_angle_gamma   90.06667891
_symmetry_Int_Tables_number   1
_chemical_formula_structural   Ti27(Cu53Te54)2
_chemical_formula_sum   'Ti27 Cu106 Te108'
_cell_volume   5747.88010343
_cell_formula_units_Z   1
loop_
 _symmetry_equiv_pos_site_id
 _symmetry_equiv_pos_as_xyz
  1  'x, y, z'
loop_
 _atom_type_symbol
 _atom_type_oxidation_number
  Ti4+  4.0
  Cu+  1.0
  Te2-  -2.0
loop_
 _atom_site_type_symbol
 _atom_site_label
 _atom_site_symmetry_multiplicity
 _atom_site_fract_x
 _atom_site_fract_y
 _atom_site_fract_z
 _atom_site_occupancy
  Ti4+  Ti0  1  0.16394609  0.16744713  0.16816558  1
  Ti4+  Ti1  1  0.16417827  0.16853600  0.49831054  1
  Ti4+  Ti2  1  0.17577732  0.16567953  0.83528313  1
  Ti4+  Ti3  1  0.16610308  0.49848390  0.16672880  1
  Ti4+  Ti4  1  0.16782569  0.49745388  0.50248842  1
  Ti4+  Ti5  1  0.16754600  0.49822034  0.83337150  1
  Ti4+  Ti6  1  0.16523944  0.83067943  0.16658760  1
  Ti4+  Ti7  1  0.16597792  0.83275582  0.49788692  1
  Ti4+  Ti8  1  0.16757694  0.83375836  0.83099657  1
  Ti4+  Ti9  1  0.50164917  0.16892766  0.16700860  1
  Ti4+  Ti10  1  0.49943211  0.16443494  0.49885987  1
  Ti4+  Ti11  1  0.49686440  0.16554470  0.83034568  1
  Ti4+  Ti12  1  0.49985054  0.49950799  0.16620654  1
  Ti4+  Ti13  1  0.50263854  0.50054141  0.49816570  1
  Ti4+  Ti14  1  0.49863871  0.50312897  0.83241949  1
  Ti4+  Ti15  1  0.49993234  0.83433928  0.16839625  1
  Ti4+  Ti16  1  0.49538807  0.83111887  0.49930902  1
  Ti4+  Ti17  1  0.49979290  0.83613617  0.83634926  1
  Ti4+  Ti18  1  0.83223965  0.16574713  0.16678457  1
  Ti4+  Ti19  1  0.82879808  0.16986617  0.50006640  1
  Ti4+  Ti20  1  0.83453829  0.16911316  0.83340678  1
  Ti4+  Ti21  1  0.83363575  0.50085546  0.16420505  1
  Ti4+  Ti22  1  0.83692175  0.49830050  0.50159575  1
  Ti4+  Ti23  1  0.83208304  0.50310041  0.83326239  1
  Ti4+  Ti24  1  0.83571768  0.83112476  0.17083442  1
  Ti4+  Ti25  1  0.83122224  0.83170000  0.49889606  1
  Ti4+  Ti26  1  0.83436813  0.83631004  0.83350754  1
  Cu+  Cu27  1  0.16895492  0.16637754  0.00493162  1
  Cu+  Cu28  1  0.16010653  0.16963514  0.33255436  1
  Cu+  Cu29  1  0.17234288  0.16970701  0.66862361  1
  Cu+  Cu30  1  0.16602234  0.49901827  0.00164896  1
  Cu+  Cu31  1  0.16727893  0.49774031  0.33253751  1
  Cu+  Cu32  1  0.16696673  0.49926490  0.67016349  1
  Cu+  Cu33  1  0.16611013  0.83268985  -0.00134210  1
  Cu+  Cu34  1  0.16476113  0.83209793  0.33137898  1
  Cu+  Cu35  1  0.16530480  0.83126165  0.66025078  1
  Cu+  Cu36  1  0.49982835  0.16713558  -0.00004239  1
  Cu+  Cu37  1  0.49764774  0.16632735  0.33273641  1
  Cu+  Cu38  1  0.50290775  0.16586767  0.66375361  1
  Cu+  Cu39  1  0.49622346  0.50081767  -0.00098908  1
  Cu+  Cu40  1  0.50264769  0.49942434  0.33139408  1
  Cu+  Cu41  1  0.50230882  0.50595338  0.66500989  1
  Cu+  Cu42  1  0.50396678  0.83363123  0.00453028  1
  Cu+  Cu43  1  0.49004927  0.82777477  0.32994077  1
  Cu+  Cu44  1  0.49823666  0.83795080  0.66886276  1
  Cu+  Cu45  1  0.83046045  0.16844899  0.00006291  1
  Cu+  Cu46  1  0.83303464  0.16464268  0.33455146  1
  Cu+  Cu47  1  0.83383321  0.17060917  0.66582986  1
  Cu+  Cu48  1  0.83177052  0.50362993  -0.00333633  1
  Cu+  Cu49  1  0.83504326  0.50173588  0.33076796  1
  Cu+  Cu50  1  0.83727737  0.49445474  0.67099260  1
  Cu+  Cu51  1  0.83529674  0.83370567  0.00210922  1
  Cu+  Cu52  1  0.83749478  0.82593107  0.33763063  1
  Cu+  Cu53  1  0.83205157  0.83574241  0.66608530  1
  Cu+  Cu54  1  0.16357697  0.00103246  0.16779873  1
  Cu+  Cu55  1  0.16320067  -0.00124370  0.49861167  1
  Cu+  Cu56  1  0.17812472  -0.00174050  0.83666880  1
  Cu+  Cu57  1  0.16405712  0.33439182  0.16767281  1
  Cu+  Cu58  1  0.16591185  0.32898625  0.50154307  1
  Cu+  Cu59  1  0.17574189  0.33313573  0.82812169  1
  Cu+  Cu60  1  0.16567004  0.66241864  0.16619810  1
  Cu+  Cu61  1  0.16813417  0.66486743  0.50080766  1
  Cu+  Cu62  1  0.16481855  0.66481736  0.82930352  1
  Cu+  Cu63  1  0.50382207  0.00334896  0.16923334  1
  Cu+  Cu64  1  0.49870752  -0.00664843  0.49977732  1
  Cu+  Cu65  1  0.49158038  -0.00115926  0.83121386  1
  Cu+  Cu66  1  0.50221351  0.33455652  0.16709790  1
  Cu+  Cu67  1  0.50104958  0.33265302  0.49823857  1
  Cu+  Cu68  1  0.49515999  0.33589568  0.83352431  1
  Cu+  Cu69  1  0.49778941  0.66571751  0.16908918  1
  Cu+  Cu70  1  0.50553375  0.66935668  0.49444927  1
  Cu+  Cu71  1  0.50039066  0.67005953  0.83539156  1
  Cu+  Cu72  1  0.82972631  -0.00411345  0.16923007  1
  Cu+  Cu73  1  0.82869367  0.00318907  0.49616040  1
  Cu+  Cu74  1  0.83647252  0.00368841  0.83371552  1
  Cu+  Cu75  1  0.83059197  0.33334483  0.16392583  1
  Cu+  Cu76  1  0.83047301  0.33630564  0.50973405  1
  Cu+  Cu77  1  0.83367873  0.33659850  0.83278374  1
  Cu+  Cu78  1  0.83805588  0.66777231  0.16523949  1
  Cu+  Cu79  1  0.83390738  0.66240226  0.49595075  1
  Cu+  Cu80  1  0.83181073  0.67049753  0.83433781  1
  Cu+  Cu81  1  -0.00242467  0.16476004  0.16788299  1
  Cu+  Cu82  1  -0.00546675  0.16959177  0.49435585  1
  Cu+  Cu83  1  0.00723847  0.16818781  0.83600023  1
  Cu+  Cu84  1  0.00063507  0.50102002  0.16592870  1
  Cu+  Cu85  1  0.00416751  0.49800999  0.50396653  1
  Cu+  Cu86  1  -0.00046856  0.50262078  0.83002217  1
  Cu+  Cu87  1  -0.00004960  0.82686281  0.16605930  1
  Cu+  Cu88  1  -0.00075352  0.82992978  0.49834596  1
  Cu+  Cu89  1  0.00068901  0.83610875  0.83100570  1
  Cu+  Cu90  1  0.32978277  0.16672085  0.16994679  1
  Cu+  Cu91  1  0.33505122  0.16963800  0.49600068  1
  Cu+  Cu92  1  0.33674041  0.15393234  0.83451777  1
  Cu+  Cu93  1  0.33036856  0.49851121  0.16608862  1
  Cu+  Cu94  1  0.33554088  0.49902296  0.50109764  1
  Cu+  Cu95  1  0.33687311  0.49590123  0.83697376  1
  Cu+  Cu96  1  0.33295810  0.83067513  0.17015216  1
  Cu+  Cu97  1  0.33043056  0.83442589  0.49368090  1
  Cu+  Cu98  1  0.33191736  0.83973687  0.83583922  1
  Cu+  Cu99  1  0.66857732  0.16998845  0.16300802  1
  Cu+  Cu100  1  0.66204596  0.16925252  0.50472950  1
  Cu+  Cu101  1  0.66571233  0.16769991  0.83073580  1
  Cu+  Cu102  1  0.66489597  0.50118511  0.16536486  1
  Cu+  Cu103  1  0.67275967  0.50066684  0.49882148  1
  Cu+  Cu104  1  0.66311414  0.50529048  0.83353194  1
  Cu+  Cu105  1  0.67058488  0.83746995  0.16973744  1
  Cu+  Cu106  1  0.66109135  0.83195909  0.50156806  1
  Cu+  Cu107  1  0.66810890  0.83583954  0.83684347  1
  Cu+  Cu108  1  0.74257248  0.92178353  0.07283655  1
  Cu+  Cu109  1  0.25917799  0.92077230  0.93432334  1
  Cu+  Cu110  1  0.41741369  0.07025188  0.93461134  1
  Cu+  Cu111  1  0.59357246  0.92044789  0.59650042  1
  Cu+  Cu112  1  0.73846221  0.41662864  0.59854850  1
  Cu+  Cu113  1  0.92576870  0.25681654  0.59016781  1
  Cu+  Cu114  1  0.40401914  0.92153791  0.73777062  1
  Cu+  Cu115  1  0.59124138  0.75084556  0.40141483  1
  Cu+  Cu116  1  0.07148716  0.59678964  0.74170479  1
  Cu+  Cu117  1  0.26641144  0.41631375  0.73934973  1
  Cu+  Cu118  1  0.92723111  0.40774866  0.74688657  1
  Cu+  Cu119  1  0.40091968  0.73302270  0.25543211  1
  Cu+  Cu120  1  0.40877013  0.40598863  0.93095541  1
  Cu+  Cu121  1  0.26184872  0.25705907  0.58982483  1
  Cu+  Cu122  1  0.93172470  0.73406071  0.41199611  1
  Cu+  Cu123  1  0.06746834  0.26169345  0.40260485  1
  Cu+  Cu124  1  0.58788677  0.26254038  0.59373330  1
  Cu+  Cu125  1  0.40366290  0.92542960  0.40314443  1
  Cu+  Cu126  1  0.74363823  0.58760773  0.40145106  1
  Cu+  Cu127  1  0.08026586  0.25549913  0.74763805  1
  Cu+  Cu128  1  0.92743045  0.73957126  0.06888646  1
  Cu+  Cu129  1  0.74107669  0.26507750  0.07048195  1
  Cu+  Cu130  1  0.92139860  0.07188743  0.40486132  1
  Cu+  Cu131  1  0.41158076  0.26294114  0.40251987  1
  Cu+  Cu132  1  0.25625097  0.06938419  0.73406763  1
  Te2-  Te133  1  0.25138274  0.25342381  0.08488522  1
  Te2-  Te134  1  0.25241784  0.25380160  0.41006768  1
  Te2-  Te135  1  0.26629192  0.25246788  0.74758191  1
  Te2-  Te136  1  0.25184193  0.58439004  0.08045429  1
  Te2-  Te137  1  0.25140262  0.58148399  0.41632083  1
  Te2-  Te138  1  0.25649704  0.58333857  0.74943686  1
  Te2-  Te139  1  0.25209568  0.91844038  0.08512036  1
  Te2-  Te140  1  0.24867925  0.92146917  0.40949495  1
  Te2-  Te141  1  0.25290573  0.91839756  0.73816104  1
  Te2-  Te142  1  0.58522122  0.25457813  0.07768137  1
  Te2-  Te143  1  0.58525444  0.25073920  0.41259465  1
  Te2-  Te144  1  0.58345902  0.25483742  0.74833418  1
  Te2-  Te145  1  0.58213289  0.58621474  0.08034749  1
  Te2-  Te146  1  0.59007485  0.58538632  0.41059228  1
  Te2-  Te147  1  0.58405677  0.59058447  0.74820743  1
  Te2-  Te148  1  0.58721260  0.92160836  0.08362225  1
  Te2-  Te149  1  0.58196589  0.91427588  0.40897873  1
  Te2-  Te150  1  0.58805191  0.92257999  0.75119606  1
  Te2-  Te151  1  0.91846628  0.25084231  0.08151102  1
  Te2-  Te152  1  0.91241171  0.26057893  0.41224104  1
  Te2-  Te153  1  0.92446505  0.25518969  0.74613483  1
  Te2-  Te154  1  0.92104206  0.58536143  0.07772392  1
  Te2-  Te155  1  0.92584511  0.58171891  0.41392691  1
  Te2-  Te156  1  0.91713949  0.59140447  0.74607004  1
  Te2-  Te157  1  0.92092212  0.91866533  0.08522046  1
  Te2-  Te158  1  0.91819718  0.91936876  0.41517675  1
  Te2-  Te159  1  0.91860977  0.92104606  0.74669794  1
  Te2-  Te160  1  0.24758386  0.08222105  0.25507344  1
  Te2-  Te161  1  0.25235617  0.08019265  0.58037171  1
  Te2-  Te162  1  0.25762836  0.07806307  0.93027608  1
  Te2-  Te163  1  0.25176368  0.41256360  0.25223631  1
  Te2-  Te164  1  0.25612906  0.41097133  0.58752729  1
  Te2-  Te165  1  0.25274067  0.41213525  0.92329829  1
  Te2-  Te166  1  0.24930916  0.74350417  0.25343525  1
  Te2-  Te167  1  0.25374575  0.74826950  0.58202841  1
  Te2-  Te168  1  0.25102331  0.74627470  0.91540921  1
  Te2-  Te169  1  0.58792064  0.08615325  0.25236494  1
  Te2-  Te170  1  0.58482329  0.07523229  0.58506170  1
  Te2-  Te171  1  0.58295853  0.08098508  0.91477829  1
  Te2-  Te172  1  0.58731075  0.41498826  0.25123013  1
  Te2-  Te173  1  0.58689830  0.41568141  0.58729877  1
  Te2-  Te174  1  0.58356957  0.41642815  0.91753969  1
  Te2-  Te175  1  0.58842849  0.74708540  0.25044837  1
  Te2-  Te176  1  0.58122418  0.74848376  0.59027900  1
  Te2-  Te177  1  0.58587166  0.75048390  0.91995759  1
  Te2-  Te178  1  0.91782721  0.07783394  0.25238997  1
  Te2-  Te179  1  0.91553821  0.08260443  0.58367947  1
  Te2-  Te180  1  0.92098540  0.08645807  0.91870890  1
  Te2-  Te181  1  0.91715020  0.41484121  0.24878696  1
  Te2-  Te182  1  0.92711917  0.41164891  0.59002945  1
  Te2-  Te183  1  0.91904285  0.41763010  0.91830839  1
  Te2-  Te184  1  0.92314516  0.74214079  0.25658128  1
  Te2-  Te185  1  0.91512108  0.74707312  0.58491355  1
  Te2-  Te186  1  0.92143246  0.74923520  0.91751116  1
  Te2-  Te187  1  0.07475762  0.25535443  0.25089360  1
  Te2-  Te188  1  0.07788057  0.25256332  0.59008369  1
  Te2-  Te189  1  0.09077768  0.25358155  0.91888756  1
  Te2-  Te190  1  0.08100321  0.58355796  0.25343277  1
  Te2-  Te191  1  0.08285403  0.58546432  0.58791480  1
  Te2-  Te192  1  0.08209352  0.58383680  0.91855749  1
  Te2-  Te193  1  0.07917756  0.91566676  0.25009963  1
  Te2-  Te194  1  0.07857830  0.91705371  0.58281116  1
  Te2-  Te195  1  0.08311936  0.92035000  0.91615109  1
  Te2-  Te196  1  0.41325734  0.25439597  0.25096473  1
  Te2-  Te197  1  0.41500805  0.25324326  0.58709403  1
  Te2-  Te198  1  0.41130285  0.25097294  0.91832611  1
  Te2-  Te199  1  0.41172949  0.58200868  0.25382036  1
  Te2-  Te200  1  0.41861566  0.58779701  0.58041932  1
  Te2-  Te201  1  0.41306584  0.58895163  0.91817981  1
  Te2-  Te202  1  0.41225358  0.92388447  0.25049774  1
  Te2-  Te203  1  0.40718713  0.91891237  0.58473370  1
  Te2-  Te204  1  0.41336465  0.91969808  0.92916484  1
  Te2-  Te205  1  0.74875125  0.25159162  0.25347864  1
  Te2-  Te206  1  0.74137175  0.25557674  0.59199019  1
  Te2-  Te207  1  0.74604209  0.25476709  0.91638621  1
  Te2-  Te208  1  0.74775763  0.58802542  0.24860465  1
  Te2-  Te209  1  0.75288713  0.58343596  0.58981883  1
  Te2-  Te210  1  0.74636694  0.58873753  0.91755268  1
  Te2-  Te211  1  0.75166822  0.91494724  0.26110968  1
  Te2-  Te212  1  0.74661673  0.91989982  0.58339039  1
  Te2-  Te213  1  0.74988601  0.92292484  0.92004324  1
  Te2-  Te214  1  0.07961389  0.08175014  0.08153051  1
  Te2-  Te215  1  0.07787202  0.08012713  0.41365805  1
  Te2-  Te216  1  0.08854790  0.08004954  0.75112686  1
  Te2-  Te217  1  0.07948654  0.41401757  0.08069062  1
  Te2-  Te218  1  0.08164899  0.41303983  0.41556050  1
  Te2-  Te219  1  0.08019628  0.40943904  0.74561832  1
  Te2-  Te220  1  0.08257742  0.74405250  0.07791628  1
  Te2-  Te221  1  0.08276514  0.74358201  0.41293567  1
  Te2-  Te222  1  0.07993678  0.74959135  0.74451985  1
  Te2-  Te223  1  0.41373744  0.08143800  0.08574242  1
  Te2-  Te224  1  0.41313584  0.07787294  0.41284520  1
  Te2-  Te225  1  0.41275345  0.07806942  0.73696471  1
  Te2-  Te226  1  0.41283437  0.41234532  0.08247812  1
  Te2-  Te227  1  0.41547619  0.41561488  0.41310338  1
  Te2-  Te228  1  0.41694611  0.41570247  0.74066953  1
  Te2-  Te229  1  0.41524348  0.74862868  0.08214395  1
  Te2-  Te230  1  0.40790693  0.74061729  0.41353317  1
  Te2-  Te231  1  0.41345721  0.75128447  0.75147288  1
  Te2-  Te232  1  0.74707833  0.07808366  0.08028425  1
  Te2-  Te233  1  0.74089482  0.08566556  0.41543124  1
  Te2-  Te234  1  0.75058435  0.08424647  0.74794817  1
  Te2-  Te235  1  0.74597755  0.41762340  0.07760774  1
  Te2-  Te236  1  0.75209552  0.41345060  0.41323573  1
  Te2-  Te237  1  0.74183380  0.41458676  0.75090398  1
  Te2-  Te238  1  0.74765154  0.74803521  0.08331449  1
  Te2-  Te239  1  0.74282349  0.74400471  0.41310613  1
  Te2-  Te240  1  0.74745643  0.75184610  0.74903525  1
