# generated using pymatgen
data_Ti27(Cu53Te54)2
_symmetry_space_group_name_H-M   'P 1'
_cell_length_a   17.89914961
_cell_length_b   17.89362585
_cell_length_c   17.89925984
_cell_angle_alpha   89.98796021
_cell_angle_beta   89.96818839
_cell_angle_gamma   89.99403459
_symmetry_Int_Tables_number   1
_chemical_formula_structural   Ti27(Cu53Te54)2
_chemical_formula_sum   'Ti27 Cu106 Te108'
_cell_volume   5732.78617940
_cell_formula_units_Z   1
loop_
 _symmetry_equiv_pos_site_id
 _symmetry_equiv_pos_as_xyz
  1  'x, y, z'
loop_
 _atom_type_symbol
 _atom_type_oxidation_number
  Ti4+  4.0
  Cu+  1.0
  Te2-  -2.0
loop_
 _atom_site_type_symbol
 _atom_site_label
 _atom_site_symmetry_multiplicity
 _atom_site_fract_x
 _atom_site_fract_y
 _atom_site_fract_z
 _atom_site_occupancy
  Ti4+  Ti0  1  0.16377772  0.16982218  0.17042642  1
  Ti4+  Ti1  1  0.16621650  0.16898411  0.49945850  1
  Ti4+  Ti2  1  0.16738618  0.16701513  0.83406021  1
  Ti4+  Ti3  1  0.16524759  0.49969089  0.16547722  1
  Ti4+  Ti4  1  0.16219478  0.49975171  0.49939422  1
  Ti4+  Ti5  1  0.16772269  0.50131809  0.83166214  1
  Ti4+  Ti6  1  0.16673624  0.83630997  0.16916423  1
  Ti4+  Ti7  1  0.16804419  0.83218726  0.50292718  1
  Ti4+  Ti8  1  0.17095376  0.83194904  0.83090595  1
  Ti4+  Ti9  1  0.49875938  0.16434257  0.16501929  1
  Ti4+  Ti10  1  0.50146697  0.16390216  0.49654325  1
  Ti4+  Ti11  1  0.50004911  0.16653582  0.83418601  1
  Ti4+  Ti12  1  0.50118421  0.50035882  0.16580245  1
  Ti4+  Ti13  1  0.50117209  0.49549819  0.49942068  1
  Ti4+  Ti14  1  0.49958969  0.49985886  0.83297223  1
  Ti4+  Ti15  1  0.49786865  0.82976504  0.16753450  1
  Ti4+  Ti16  1  0.50083035  0.83378163  0.50239343  1
  Ti4+  Ti17  1  0.50256849  0.83171873  0.83317501  1
  Ti4+  Ti18  1  0.83229714  0.16858653  0.16506393  1
  Ti4+  Ti19  1  0.83423491  0.16970449  0.50267735  1
  Ti4+  Ti20  1  0.83460805  0.16757297  0.83332422  1
  Ti4+  Ti21  1  0.83406939  0.49989595  0.16716798  1
  Ti4+  Ti22  1  0.82794529  0.49926578  0.50334118  1
  Ti4+  Ti23  1  0.83247409  0.50036760  0.83426517  1
  Ti4+  Ti24  1  0.83523060  0.83485127  0.16381869  1
  Ti4+  Ti25  1  0.83333689  0.83212502  0.49632428  1
  Ti4+  Ti26  1  0.83644988  0.83487811  0.83140893  1
  Cu+  Cu27  1  0.16442611  0.16734448  0.00292982  1
  Cu+  Cu28  1  0.15876303  0.17088516  0.33761645  1
  Cu+  Cu29  1  0.16863401  0.16613498  0.66863059  1
  Cu+  Cu30  1  0.16599453  0.50247142  -0.00375191  1
  Cu+  Cu31  1  0.16539868  0.49677589  0.33170995  1
  Cu+  Cu32  1  0.16452351  0.50233001  0.66467108  1
  Cu+  Cu33  1  0.17205277  0.83367559  0.00357443  1
  Cu+  Cu34  1  0.16259957  0.83607723  0.33707668  1
  Cu+  Cu35  1  0.17283944  0.82746565  0.66421879  1
  Cu+  Cu36  1  0.49804250  0.16470655  -0.00111004  1
  Cu+  Cu37  1  0.49820683  0.16293749  0.32922619  1
  Cu+  Cu38  1  0.50230209  0.16232648  0.66581519  1
  Cu+  Cu39  1  0.50291481  0.50228885  -0.00132571  1
  Cu+  Cu40  1  0.50202958  0.49696129  0.32962819  1
  Cu+  Cu41  1  0.50155115  0.49967690  0.66642018  1
  Cu+  Cu42  1  0.49713316  0.82746383  -0.00141281  1
  Cu+  Cu43  1  0.50072294  0.83126692  0.33676304  1
  Cu+  Cu44  1  0.49698615  0.83874300  0.67259292  1
  Cu+  Cu45  1  0.83318025  0.16602576  -0.00255745  1
  Cu+  Cu46  1  0.83211851  0.17104940  0.33145902  1
  Cu+  Cu47  1  0.84042296  0.16870620  0.66980942  1
  Cu+  Cu48  1  0.83253304  0.50146421  0.00248047  1
  Cu+  Cu49  1  0.83160332  0.49936471  0.33676333  1
  Cu+  Cu50  1  0.82766839  0.49675155  0.67041784  1
  Cu+  Cu51  1  0.83709594  0.83488638  -0.00332964  1
  Cu+  Cu52  1  0.83110313  0.83012660  0.32487720  1
  Cu+  Cu53  1  0.83567565  0.83728834  0.66448316  1
  Cu+  Cu54  1  0.16852563  0.00658808  0.16912126  1
  Cu+  Cu55  1  0.16622829  -0.00180751  0.50038857  1
  Cu+  Cu56  1  0.16764575  0.00119004  0.83441623  1
  Cu+  Cu57  1  0.16154100  0.33315848  0.16328549  1
  Cu+  Cu58  1  0.16548654  0.33807584  0.49418497  1
  Cu+  Cu59  1  0.16728110  0.33530887  0.83288165  1
  Cu+  Cu60  1  0.16634304  0.66717203  0.16924548  1
  Cu+  Cu61  1  0.16499975  0.66310926  0.50797957  1
  Cu+  Cu62  1  0.17154453  0.66717386  0.82767762  1
  Cu+  Cu63  1  0.49667977  -0.00494686  0.16653775  1
  Cu+  Cu64  1  0.50220947  0.00133290  0.50026233  1
  Cu+  Cu65  1  0.50213142  0.00075373  0.83270017  1
  Cu+  Cu66  1  0.50163755  0.33418205  0.16448834  1
  Cu+  Cu67  1  0.49976574  0.32390255  0.49638870  1
  Cu+  Cu68  1  0.49844750  0.33348436  0.83164433  1
  Cu+  Cu69  1  0.49767113  0.66393556  0.16809142  1
  Cu+  Cu70  1  0.50430932  0.66547683  0.50085334  1
  Cu+  Cu71  1  0.50172598  0.66526871  0.83951291  1
  Cu+  Cu72  1  0.83464448  0.00180900  0.16342175  1
  Cu+  Cu73  1  0.83971275  -0.00140148  0.49842100  1
  Cu+  Cu74  1  0.83505602  0.00214015  0.83113568  1
  Cu+  Cu75  1  0.83585720  0.33363097  0.17025537  1
  Cu+  Cu76  1  0.82652843  0.33389759  0.50480739  1
  Cu+  Cu77  1  0.83382519  0.33392004  0.83545712  1
  Cu+  Cu78  1  0.83316148  0.66721344  0.16534549  1
  Cu+  Cu79  1  0.82510326  0.66921659  0.50330582  1
  Cu+  Cu80  1  0.83642785  0.66902253  0.83130569  1
  Cu+  Cu81  1  -0.00331159  0.17489110  0.16793740  1
  Cu+  Cu82  1  0.00111474  0.17294598  0.50372354  1
  Cu+  Cu83  1  0.00178945  0.16555836  0.83406562  1
  Cu+  Cu84  1  -0.00005937  0.49776528  0.16776343  1
  Cu+  Cu85  1  -0.00729208  0.50087077  0.50020544  1
  Cu+  Cu86  1  0.00050339  0.50196700  0.83257241  1
  Cu+  Cu87  1  0.00094147  0.83794768  0.16600715  1
  Cu+  Cu88  1  0.00148763  0.83661853  0.50042767  1
  Cu+  Cu89  1  0.00226185  0.83496382  0.83119752  1
  Cu+  Cu90  1  0.33027836  0.16254477  0.16901048  1
  Cu+  Cu91  1  0.33756522  0.16530832  0.49487460  1
  Cu+  Cu92  1  0.33360632  0.16790990  0.83538386  1
  Cu+  Cu93  1  0.33552468  0.49988235  0.16575424  1
  Cu+  Cu94  1  0.32918795  0.49543227  0.49482697  1
  Cu+  Cu95  1  0.33433372  0.49820961  0.83142437  1
  Cu+  Cu96  1  0.32934796  0.83147669  0.16728366  1
  Cu+  Cu97  1  0.33569733  0.83612433  0.50517721  1
  Cu+  Cu98  1  0.33789518  0.82816970  0.82936361  1
  Cu+  Cu99  1  0.66374593  0.16396715  0.16564018  1
  Cu+  Cu100  1  0.66753617  0.17175127  0.49736577  1
  Cu+  Cu101  1  0.66850082  0.16487099  0.83248131  1
  Cu+  Cu102  1  0.67032693  0.50221023  0.16232010  1
  Cu+  Cu103  1  0.66551715  0.49639813  0.50835600  1
  Cu+  Cu104  1  0.66341654  0.50264326  0.83686669  1
  Cu+  Cu105  1  0.66776930  0.83122252  0.16731478  1
  Cu+  Cu106  1  0.66414653  0.82674186  0.49623472  1
  Cu+  Cu107  1  0.67033870  0.83413716  0.83263637  1
  Cu+  Cu108  1  0.92606953  0.92714962  0.59415125  1
  Cu+  Cu109  1  0.07055416  0.73826885  0.59311201  1
  Cu+  Cu110  1  0.40752767  0.73675533  0.92639778  1
  Cu+  Cu111  1  0.06986526  0.26012473  0.06903916  1
  Cu+  Cu112  1  0.59003759  0.25079908  0.59738061  1
  Cu+  Cu113  1  0.74506495  0.59648191  0.07265015  1
  Cu+  Cu114  1  0.92412618  0.26279229  0.26099650  1
  Cu+  Cu115  1  0.73848232  0.75311499  0.59752208  1
  Cu+  Cu116  1  0.73770228  0.40416480  0.60269086  1
  Cu+  Cu117  1  0.26698906  0.73672220  0.73789075  1
  Cu+  Cu118  1  0.07110482  0.26575883  0.41312454  1
  Cu+  Cu119  1  0.93194850  0.26377774  0.60051730  1
  Cu+  Cu120  1  0.58719512  0.73443249  0.40449740  1
  Cu+  Cu121  1  0.40789531  0.25226505  0.39936526  1
  Cu+  Cu122  1  0.59067686  0.59279123  0.59438867  1
  Cu+  Cu123  1  0.25464853  0.73607267  0.07963990  1
  Cu+  Cu124  1  0.26225750  0.58189466  0.59047557  1
  Cu+  Cu125  1  0.73923635  0.26119429  0.40266177  1
  Cu+  Cu126  1  0.59411691  0.59426526  0.92884258  1
  Cu+  Cu127  1  0.25857101  0.07917231  0.07246110  1
  Cu+  Cu128  1  0.07310809  0.92770136  0.40627157  1
  Cu+  Cu129  1  0.74018369  0.73682011  0.25202406  1
  Cu+  Cu130  1  0.40759581  0.93190448  0.75117303  1
  Cu+  Cu131  1  0.25903838  0.40965889  0.39953958  1
  Cu+  Cu132  1  0.26081911  0.93176818  0.58992598  1
  Te2-  Te133  1  0.25265848  0.25246116  0.08344683  1
  Te2-  Te134  1  0.25458489  0.25444970  0.41079936  1
  Te2-  Te135  1  0.25282978  0.25266044  0.74938226  1
  Te2-  Te136  1  0.25229188  0.58415419  0.08064129  1
  Te2-  Te137  1  0.24764808  0.58615116  0.41308474  1
  Te2-  Te138  1  0.25806140  0.58508415  0.74329186  1
  Te2-  Te139  1  0.25363553  0.92408500  0.08327189  1
  Te2-  Te140  1  0.25482408  0.91772633  0.41602277  1
  Te2-  Te141  1  0.25516129  0.92326173  0.74549265  1
  Te2-  Te142  1  0.58364365  0.24964350  0.08002119  1
  Te2-  Te143  1  0.58659839  0.25110686  0.40536798  1
  Te2-  Te144  1  0.58680798  0.25207644  0.74924280  1
  Te2-  Te145  1  0.58788591  0.59054693  0.08014706  1
  Te2-  Te146  1  0.58837767  0.58012282  0.41330571  1
  Te2-  Te147  1  0.58653196  0.58788073  0.74722122  1
  Te2-  Te148  1  0.58229701  0.91339375  0.08124635  1
  Te2-  Te149  1  0.58560487  0.91888266  0.41598708  1
  Te2-  Te150  1  0.58932374  0.91927331  0.74898872  1
  Te2-  Te151  1  0.91637712  0.25632837  0.07572994  1
  Te2-  Te152  1  0.91859187  0.25903011  0.41504939  1
  Te2-  Te153  1  0.92385787  0.25664463  0.75118141  1
  Te2-  Te154  1  0.92106388  0.58511007  0.08253053  1
  Te2-  Te155  1  0.91145373  0.58729215  0.41858936  1
  Te2-  Te156  1  0.91667167  0.58378792  0.74642753  1
  Te2-  Te157  1  0.92048724  0.92088691  0.07871536  1
  Te2-  Te158  1  0.91830336  0.91688693  0.40674905  1
  Te2-  Te159  1  0.92263002  0.92245388  0.74637677  1
  Te2-  Te160  1  0.24777716  0.08555546  0.26061187  1
  Te2-  Te161  1  0.25430600  0.08453493  0.58384152  1
  Te2-  Te162  1  0.25321470  0.08117813  0.92028660  1
  Te2-  Te163  1  0.25252169  0.41187065  0.24795238  1
  Te2-  Te164  1  0.24931351  0.41361767  0.58602562  1
  Te2-  Te165  1  0.25239883  0.41597054  0.91778574  1
  Te2-  Te166  1  0.24889666  0.74952462  0.25735822  1
  Te2-  Te167  1  0.26127673  0.74079450  0.58585702  1
  Te2-  Te168  1  0.25485120  0.74449085  0.92072476  1
  Te2-  Te169  1  0.58316164  0.07730619  0.24945009  1
  Te2-  Te170  1  0.59034608  0.08052045  0.58310709  1
  Te2-  Te171  1  0.58587535  0.08102358  0.91830532  1
  Te2-  Te172  1  0.58909176  0.41472385  0.24782313  1
  Te2-  Te173  1  0.58320275  0.40554474  0.58872015  1
  Te2-  Te174  1  0.58399930  0.41281469  0.91838971  1
  Te2-  Te175  1  0.58594299  0.74267803  0.25322192  1
  Te2-  Te176  1  0.58522408  0.74816296  0.59413887  1
  Te2-  Te177  1  0.59184553  0.74826743  0.92077713  1
  Te2-  Te178  1  0.91759169  0.08358559  0.25121834  1
  Te2-  Te179  1  0.92247895  0.08155778  0.58642158  1
  Te2-  Te180  1  0.91979639  0.08134880  0.91821535  1
  Te2-  Te181  1  0.91981627  0.41604902  0.25716311  1
  Te2-  Te182  1  0.91738272  0.41489520  0.58928071  1
  Te2-  Te183  1  0.91828233  0.41793320  0.91916372  1
  Te2-  Te184  1  0.92242381  0.74790183  0.24818125  1
  Te2-  Te185  1  0.91892137  0.74596777  0.58483954  1
  Te2-  Te186  1  0.92196957  0.74898474  0.91638248  1
  Te2-  Te187  1  0.07681353  0.26039304  0.25782883  1
  Te2-  Te188  1  0.08560504  0.25710111  0.58962218  1
  Te2-  Te189  1  0.08101489  0.25419393  0.91796414  1
  Te2-  Te190  1  0.08089461  0.58435692  0.25181486  1
  Te2-  Te191  1  0.07251880  0.58373779  0.58805953  1
  Te2-  Te192  1  0.08309640  0.58931025  0.91464485  1
  Te2-  Te193  1  0.07991116  0.92428161  0.25289315  1
  Te2-  Te194  1  0.08219411  0.92023820  0.59166804  1
  Te2-  Te195  1  0.08657474  0.91543357  0.91800717  1
  Te2-  Te196  1  0.41277846  0.25328173  0.24828402  1
  Te2-  Te197  1  0.41455145  0.24807919  0.58612033  1
  Te2-  Te198  1  0.41503393  0.25275803  0.91891195  1
  Te2-  Te199  1  0.41433472  0.58342437  0.25377170  1
  Te2-  Te200  1  0.41461713  0.58220559  0.58254151  1
  Te2-  Te201  1  0.41032757  0.58389986  0.92080064  1
  Te2-  Te202  1  0.41387075  0.91350201  0.25342649  1
  Te2-  Te203  1  0.41551177  0.92477799  0.58923976  1
  Te2-  Te204  1  0.41511670  0.91783886  0.91771856  1
  Te2-  Te205  1  0.74202074  0.25418225  0.24971929  1
  Te2-  Te206  1  0.74493118  0.25154765  0.59484424  1
  Te2-  Te207  1  0.74749144  0.25173223  0.91817168  1
  Te2-  Te208  1  0.74686085  0.58463955  0.25488137  1
  Te2-  Te209  1  0.74351768  0.58872113  0.59265721  1
  Te2-  Te210  1  0.74824642  0.59087423  0.91942882  1
  Te2-  Te211  1  0.74824291  0.92152381  0.24844268  1
  Te2-  Te212  1  0.74627562  0.91879646  0.57951520  1
  Te2-  Te213  1  0.75094303  0.92010161  0.91656847  1
  Te2-  Te214  1  0.07677352  0.08366987  0.08565079  1
  Te2-  Te215  1  0.07710731  0.08091046  0.41757367  1
  Te2-  Te216  1  0.08265202  0.08114784  0.74814664  1
  Te2-  Te217  1  0.07895599  0.41635025  0.07695461  1
  Te2-  Te218  1  0.07215571  0.41732642  0.41191748  1
  Te2-  Te219  1  0.08165693  0.41625443  0.74751782  1
  Te2-  Te220  1  0.08216725  0.75039781  0.08278326  1
  Te2-  Te221  1  0.08225948  0.74497134  0.41810506  1
  Te2-  Te222  1  0.08084993  0.74693620  0.74652025  1
  Te2-  Te223  1  0.41283787  0.07774741  0.08018360  1
  Te2-  Te224  1  0.41545445  0.07595927  0.41160493  1
  Te2-  Te225  1  0.41267482  0.08295131  0.74683240  1
  Te2-  Te226  1  0.41712334  0.41611153  0.07922148  1
  Te2-  Te227  1  0.41510965  0.41082086  0.41024764  1
  Te2-  Te228  1  0.41506413  0.41464444  0.74589815  1
  Te2-  Te229  1  0.41020096  0.74218819  0.08127517  1
  Te2-  Te230  1  0.41442463  0.74730953  0.41920612  1
  Te2-  Te231  1  0.41950034  0.74005609  0.74468562  1
  Te2-  Te232  1  0.74806924  0.08256750  0.08006248  1
  Te2-  Te233  1  0.75200666  0.08269950  0.41638487  1
  Te2-  Te234  1  0.75074489  0.08257966  0.74573991  1
  Te2-  Te235  1  0.75023186  0.41186172  0.08204773  1
  Te2-  Te236  1  0.74258982  0.41448724  0.41386493  1
  Te2-  Te237  1  0.74228233  0.41223276  0.75383870  1
  Te2-  Te238  1  0.74818253  0.74971713  0.07577315  1
  Te2-  Te239  1  0.74542668  0.74408845  0.40766144  1
  Te2-  Te240  1  0.74897721  0.74830738  0.74684014  1
