# generated using pymatgen
data_Ti27(Cu53Te54)2
_symmetry_space_group_name_H-M   'P 1'
_cell_length_a   17.87378039
_cell_length_b   17.87236123
_cell_length_c   17.87316403
_cell_angle_alpha   89.95747043
_cell_angle_beta   89.99407569
_cell_angle_gamma   89.95080727
_symmetry_Int_Tables_number   1
_chemical_formula_structural   Ti27(Cu53Te54)2
_chemical_formula_sum   'Ti27 Cu106 Te108'
_cell_volume   5709.51883989
_cell_formula_units_Z   1
loop_
 _symmetry_equiv_pos_site_id
 _symmetry_equiv_pos_as_xyz
  1  'x, y, z'
loop_
 _atom_type_symbol
 _atom_type_oxidation_number
  Ti4+  4.0
  Cu+  1.0
  Te2-  -2.0
loop_
 _atom_site_type_symbol
 _atom_site_label
 _atom_site_symmetry_multiplicity
 _atom_site_fract_x
 _atom_site_fract_y
 _atom_site_fract_z
 _atom_site_occupancy
  Ti4+  Ti0  1  0.16877016  0.16538310  0.16323602  1
  Ti4+  Ti1  1  0.16863203  0.16898927  0.49688747  1
  Ti4+  Ti2  1  0.16878189  0.16660732  0.83199150  1
  Ti4+  Ti3  1  0.16537890  0.49584820  0.16860855  1
  Ti4+  Ti4  1  0.16635352  0.50560072  0.49778645  1
  Ti4+  Ti5  1  0.16571438  0.49949372  0.83037505  1
  Ti4+  Ti6  1  0.16680304  0.83006767  0.16737584  1
  Ti4+  Ti7  1  0.16815649  0.83677312  0.50019393  1
  Ti4+  Ti8  1  0.16622851  0.83315059  0.83577056  1
  Ti4+  Ti9  1  0.50088814  0.16559136  0.16662549  1
  Ti4+  Ti10  1  0.50145333  0.16504002  0.50041271  1
  Ti4+  Ti11  1  0.50084557  0.16604095  0.83336067  1
  Ti4+  Ti12  1  0.49679034  0.49908839  0.16575197  1
  Ti4+  Ti13  1  0.50240554  0.49839178  0.49927878  1
  Ti4+  Ti14  1  0.49614318  0.50319075  0.83075627  1
  Ti4+  Ti15  1  0.50008949  0.83403222  0.16632547  1
  Ti4+  Ti16  1  0.50146768  0.83167911  0.49801254  1
  Ti4+  Ti17  1  0.50088932  0.82849466  0.83479855  1
  Ti4+  Ti18  1  0.83435932  0.16761937  0.16623788  1
  Ti4+  Ti19  1  0.83816433  0.16604775  0.50064026  1
  Ti4+  Ti20  1  0.83256190  0.16936561  0.83376528  1
  Ti4+  Ti21  1  0.82922839  0.49909195  0.16790092  1
  Ti4+  Ti22  1  0.83432643  0.50128955  0.50192488  1
  Ti4+  Ti23  1  0.83150645  0.49946086  0.83431315  1
  Ti4+  Ti24  1  0.83297564  0.83219693  0.16848046  1
  Ti4+  Ti25  1  0.83024343  0.83610595  0.50174372  1
  Ti4+  Ti26  1  0.83279510  0.83523269  0.83433825  1
  Cu+  Cu27  1  0.16501678  0.16293934  -0.00507823  1
  Cu+  Cu28  1  0.17074411  0.17088159  0.32857304  1
  Cu+  Cu29  1  0.16727863  0.16817976  0.66510236  1
  Cu+  Cu30  1  0.16479982  0.49476380  -0.00314621  1
  Cu+  Cu31  1  0.17368163  0.50155031  0.33583997  1
  Cu+  Cu32  1  0.16103419  0.50204099  0.66094422  1
  Cu+  Cu33  1  0.16118959  0.83376582  0.00577735  1
  Cu+  Cu34  1  0.16969466  0.83603390  0.33383727  1
  Cu+  Cu35  1  0.17008836  0.83329848  0.67139848  1
  Cu+  Cu36  1  0.49818418  0.16614605  -0.00050031  1
  Cu+  Cu37  1  0.50170152  0.16433588  0.33597833  1
  Cu+  Cu38  1  0.49899435  0.16615597  0.66840709  1
  Cu+  Cu39  1  0.49359648  0.50427830  -0.00157941  1
  Cu+  Cu40  1  0.49958681  0.50114784  0.33105856  1
  Cu+  Cu41  1  0.50495235  0.49991025  0.66416501  1
  Cu+  Cu42  1  0.49963816  0.83096066  -0.00110776  1
  Cu+  Cu43  1  0.50143757  0.83395489  0.33168407  1
  Cu+  Cu44  1  0.50104072  0.83062514  0.66625676  1
  Cu+  Cu45  1  0.82966797  0.17241729  0.00147116  1
  Cu+  Cu46  1  0.83858640  0.16710976  0.33349234  1
  Cu+  Cu47  1  0.83321876  0.16514463  0.66639494  1
  Cu+  Cu48  1  0.83214451  0.49515329  0.00429788  1
  Cu+  Cu49  1  0.83414054  0.50342831  0.33456161  1
  Cu+  Cu50  1  0.83475165  0.49793078  0.67066941  1
  Cu+  Cu51  1  0.83150407  0.83156640  0.00065355  1
  Cu+  Cu52  1  0.83012200  0.83296821  0.33656374  1
  Cu+  Cu53  1  0.83537826  0.83842593  0.66774705  1
  Cu+  Cu54  1  0.16700892  -0.00547734  0.16478572  1
  Cu+  Cu55  1  0.16632426  0.00365520  0.49737542  1
  Cu+  Cu56  1  0.16454632  0.00214506  0.83918484  1
  Cu+  Cu57  1  0.17298872  0.33074233  0.16152957  1
  Cu+  Cu58  1  0.16741994  0.33865797  0.49502605  1
  Cu+  Cu59  1  0.16737439  0.33003730  0.82912465  1
  Cu+  Cu60  1  0.16574489  0.66304419  0.17226273  1
  Cu+  Cu61  1  0.16600083  0.67195679  0.49896676  1
  Cu+  Cu62  1  0.16874084  0.66567334  0.83105182  1
  Cu+  Cu63  1  0.50265704  0.00071524  0.16855517  1
  Cu+  Cu64  1  0.50142972  -0.00148164  0.50009976  1
  Cu+  Cu65  1  0.50306128  -0.00166968  0.83524606  1
  Cu+  Cu66  1  0.49617929  0.33366356  0.16517577  1
  Cu+  Cu67  1  0.50120211  0.32938191  0.49949909  1
  Cu+  Cu68  1  0.49854565  0.33440694  0.82909058  1
  Cu+  Cu69  1  0.49914597  0.66576502  0.16750033  1
  Cu+  Cu70  1  0.50175369  0.66438613  0.49905687  1
  Cu+  Cu71  1  0.49594300  0.66617924  0.84094762  1
  Cu+  Cu72  1  0.83408844  0.00222299  0.16696964  1
  Cu+  Cu73  1  0.83385273  0.00118360  0.50736616  1
  Cu+  Cu74  1  0.83343378  0.00178263  0.83286116  1
  Cu+  Cu75  1  0.82842149  0.33163806  0.16001509  1
  Cu+  Cu76  1  0.83692425  0.33208845  0.49799903  1
  Cu+  Cu77  1  0.83457835  0.33560092  0.83219197  1
  Cu+  Cu78  1  0.83361229  0.66504620  0.17066363  1
  Cu+  Cu79  1  0.83037789  0.66981302  0.50051518  1
  Cu+  Cu80  1  0.82825005  0.66912174  0.83549955  1
  Cu+  Cu81  1  0.00085459  0.16596906  0.16593279  1
  Cu+  Cu82  1  0.00577054  0.16493822  0.49922284  1
  Cu+  Cu83  1  0.00007061  0.16688593  0.83343165  1
  Cu+  Cu84  1  -0.00480989  0.49760458  0.16893176  1
  Cu+  Cu85  1  0.00209809  0.50208046  0.50261432  1
  Cu+  Cu86  1  -0.00180060  0.49900535  0.83132233  1
  Cu+  Cu87  1  0.00009842  0.82840376  0.16552116  1
  Cu+  Cu88  1  -0.00148719  0.83809810  0.50139551  1
  Cu+  Cu89  1  -0.00120651  0.83375837  0.83358840  1
  Cu+  Cu90  1  0.33519833  0.16681397  0.16655394  1
  Cu+  Cu91  1  0.33651608  0.16716635  0.49891473  1
  Cu+  Cu92  1  0.33529876  0.16715945  0.83049627  1
  Cu+  Cu93  1  0.33026105  0.49760031  0.16435811  1
  Cu+  Cu94  1  0.33540880  0.50121063  0.49355796  1
  Cu+  Cu95  1  0.33196153  0.50054133  0.82883939  1
  Cu+  Cu96  1  0.33170353  0.83300875  0.17030057  1
  Cu+  Cu97  1  0.33740137  0.83164132  0.49703710  1
  Cu+  Cu98  1  0.33052146  0.82484187  0.83171835  1
  Cu+  Cu99  1  0.66899163  0.16999415  0.16485320  1
  Cu+  Cu100  1  0.67035441  0.16356209  0.50106782  1
  Cu+  Cu101  1  0.66602635  0.16804014  0.83477096  1
  Cu+  Cu102  1  0.66193201  0.50164313  0.17010530  1
  Cu+  Cu103  1  0.66918915  0.50217760  0.50315260  1
  Cu+  Cu104  1  0.66094885  0.50153723  0.83071797  1
  Cu+  Cu105  1  0.66540077  0.83621958  0.16721726  1
  Cu+  Cu106  1  0.66380895  0.83651393  0.50163785  1
  Cu+  Cu107  1  0.67028392  0.83178940  0.83953980  1
  Cu+  Cu108  1  0.74528163  0.73795120  0.93315570  1
  Cu+  Cu109  1  0.26036330  0.40638077  0.06548191  1
  Cu+  Cu110  1  0.08306343  0.07396203  0.59373738  1
  Cu+  Cu111  1  0.59137181  0.59372338  0.26154850  1
  Cu+  Cu112  1  0.59500775  0.92881377  0.92615213  1
  Cu+  Cu113  1  0.58861917  0.40326412  0.73732062  1
  Cu+  Cu114  1  0.25890957  0.92757347  0.26157350  1
  Cu+  Cu115  1  0.25977044  0.73581113  0.73640171  1
  Cu+  Cu116  1  0.59662583  0.59375023  0.59443332  1
  Cu+  Cu117  1  0.59655056  0.93062535  0.26012578  1
  Cu+  Cu118  1  0.59289575  0.58544554  0.92941880  1
  Cu+  Cu119  1  0.73319834  0.26142856  0.06960922  1
  Cu+  Cu120  1  0.07654351  0.40764392  0.58764023  1
  Cu+  Cu121  1  0.39929420  0.74325013  0.93292092  1
  Cu+  Cu122  1  0.26485365  0.40719383  0.41127864  1
  Cu+  Cu123  1  0.92691815  0.40406186  0.07833210  1
  Cu+  Cu124  1  0.92990264  0.92549126  0.59510417  1
  Cu+  Cu125  1  0.26450855  0.25803256  0.25612021  1
  Cu+  Cu126  1  0.73925849  0.07709954  0.59621984  1
  Cu+  Cu127  1  0.06887547  0.92386570  0.08007097  1
  Cu+  Cu128  1  0.06747928  0.07655076  0.92577207  1
  Cu+  Cu129  1  0.58472807  0.92724406  0.59724346  1
  Cu+  Cu130  1  0.92645927  0.59342845  0.26218513  1
  Cu+  Cu131  1  0.92736969  0.40568339  0.74146279  1
  Cu+  Cu132  1  0.26143120  0.59322898  0.25881740  1
  Te2-  Te133  1  0.25505649  0.24836262  0.07292650  1
  Te2-  Te134  1  0.25824607  0.25486724  0.41198055  1
  Te2-  Te135  1  0.25420318  0.25137767  0.74438511  1
  Te2-  Te136  1  0.24676335  0.58313926  0.08043664  1
  Te2-  Te137  1  0.25562990  0.59452457  0.41408763  1
  Te2-  Te138  1  0.25127933  0.58341944  0.74132442  1
  Te2-  Te139  1  0.25467266  0.91575119  0.07997756  1
  Te2-  Te140  1  0.25602278  0.92244180  0.41580500  1
  Te2-  Te141  1  0.25241791  0.92113499  0.75386564  1
  Te2-  Te142  1  0.58252526  0.25407323  0.07905292  1
  Te2-  Te143  1  0.58915815  0.24904785  0.41593200  1
  Te2-  Te144  1  0.58733222  0.25140685  0.74583653  1
  Te2-  Te145  1  0.58405966  0.58627303  0.08043220  1
  Te2-  Te146  1  0.58836317  0.58515239  0.41283055  1
  Te2-  Te147  1  0.58385240  0.59337373  0.74694472  1
  Te2-  Te148  1  0.58523558  0.91972260  0.07818873  1
  Te2-  Te149  1  0.58708939  0.92091656  0.41155786  1
  Te2-  Te150  1  0.58819386  0.91548298  0.74993328  1
  Te2-  Te151  1  0.92360384  0.25235343  0.07849698  1
  Te2-  Te152  1  0.92402772  0.25142762  0.41486978  1
  Te2-  Te153  1  0.92002119  0.25165957  0.74587895  1
  Te2-  Te154  1  0.91657586  0.58503226  0.08165330  1
  Te2-  Te155  1  0.92011199  0.58889399  0.41758879  1
  Te2-  Te156  1  0.91529293  0.58883819  0.75134420  1
  Te2-  Te157  1  0.91660486  0.91791381  0.08091093  1
  Te2-  Te158  1  0.91537981  0.92156197  0.41500505  1
  Te2-  Te159  1  0.92161712  0.92307745  0.74989528  1
  Te2-  Te160  1  0.25316065  0.07850419  0.25039034  1
  Te2-  Te161  1  0.25342195  0.08308964  0.58349478  1
  Te2-  Te162  1  0.25700371  0.08188885  0.91747330  1
  Te2-  Te163  1  0.25638899  0.41001105  0.25534845  1
  Te2-  Te164  1  0.25347977  0.41848016  0.58307071  1
  Te2-  Te165  1  0.25331376  0.41159991  0.91349001  1
  Te2-  Te166  1  0.25385059  0.74497527  0.25626197  1
  Te2-  Te167  1  0.25464336  0.74941792  0.58422252  1
  Te2-  Te168  1  0.24737407  0.74537884  0.92589266  1
  Te2-  Te169  1  0.59052186  0.08343106  0.25291810  1
  Te2-  Te170  1  0.58694389  0.07916695  0.59071407  1
  Te2-  Te171  1  0.58765723  0.08169227  0.92173138  1
  Te2-  Te172  1  0.58185463  0.41213052  0.25111777  1
  Te2-  Te173  1  0.58932948  0.40954307  0.58336526  1
  Te2-  Te174  1  0.58000834  0.41680176  0.91898172  1
  Te2-  Te175  1  0.58646452  0.74663497  0.25220224  1
  Te2-  Te176  1  0.58777955  0.74517717  0.58609971  1
  Te2-  Te177  1  0.58993103  0.74194507  0.92392086  1
  Te2-  Te178  1  0.92093345  0.08119087  0.25123653  1
  Te2-  Te179  1  0.92709490  0.08055601  0.59046075  1
  Te2-  Te180  1  0.91535448  0.08292179  0.92185082  1
  Te2-  Te181  1  0.91268445  0.40994638  0.25255224  1
  Te2-  Te182  1  0.92081195  0.41190784  0.58708429  1
  Te2-  Te183  1  0.91989383  0.41383481  0.92084637  1
  Te2-  Te184  1  0.91927743  0.74831711  0.25649234  1
  Te2-  Te185  1  0.91755133  0.74966540  0.58570806  1
  Te2-  Te186  1  0.91873765  0.74772264  0.91901490  1
  Te2-  Te187  1  0.08323075  0.25307496  0.24670701  1
  Te2-  Te188  1  0.08305859  0.25608337  0.58335721  1
  Te2-  Te189  1  0.08170922  0.25361328  0.91718377  1
  Te2-  Te190  1  0.07849467  0.58150744  0.25593518  1
  Te2-  Te191  1  0.08002683  0.59332177  0.58360531  1
  Te2-  Te192  1  0.08175221  0.58326354  0.91617724  1
  Te2-  Te193  1  0.07891766  0.91676684  0.25208628  1
  Te2-  Te194  1  0.08353467  0.92103864  0.59068788  1
  Te2-  Te195  1  0.07585788  0.91963832  0.92204295  1
  Te2-  Te196  1  0.41666475  0.25166169  0.25482794  1
  Te2-  Te197  1  0.41573442  0.25105633  0.58577628  1
  Te2-  Te198  1  0.41558590  0.25334477  0.91630795  1
  Te2-  Te199  1  0.41092932  0.58580824  0.25205424  1
  Te2-  Te200  1  0.41452181  0.58280261  0.58328034  1
  Te2-  Te201  1  0.40386495  0.58639335  0.91978970  1
  Te2-  Te202  1  0.41404139  0.92028258  0.25340899  1
  Te2-  Te203  1  0.41564165  0.91675264  0.58529807  1
  Te2-  Te204  1  0.41203958  0.91464209  0.91585812  1
  Te2-  Te205  1  0.75027498  0.25238081  0.25446732  1
  Te2-  Te206  1  0.75069907  0.25294151  0.58423522  1
  Te2-  Te207  1  0.74525056  0.25749029  0.91697130  1
  Te2-  Te208  1  0.74416071  0.58738205  0.25546007  1
  Te2-  Te209  1  0.75062561  0.58731290  0.59056073  1
  Te2-  Te210  1  0.74524957  0.58403705  0.92373393  1
  Te2-  Te211  1  0.74904054  0.92106003  0.25322711  1
  Te2-  Te212  1  0.74173469  0.92196401  0.59157043  1
  Te2-  Te213  1  0.74878922  0.92440297  0.92260943  1
  Te2-  Te214  1  0.07881699  0.07810374  0.07966859  1
  Te2-  Te215  1  0.08518683  0.08461710  0.40766213  1
  Te2-  Te216  1  0.08065763  0.08001731  0.74675501  1
  Te2-  Te217  1  0.07909143  0.41123194  0.08135788  1
  Te2-  Te218  1  0.07938573  0.41925249  0.41093904  1
  Te2-  Te219  1  0.07987114  0.41096873  0.74422639  1
  Te2-  Te220  1  0.08127875  0.74013836  0.08357768  1
  Te2-  Te221  1  0.08063786  0.75457994  0.41525085  1
  Te2-  Te222  1  0.08022791  0.74860343  0.74942471  1
  Te2-  Te223  1  0.41539505  0.07995125  0.08225841  1
  Te2-  Te224  1  0.41573842  0.07899203  0.41541663  1
  Te2-  Te225  1  0.41696637  0.07796727  0.74939274  1
  Te2-  Te226  1  0.41236076  0.41300826  0.07687297  1
  Te2-  Te227  1  0.41844934  0.41158006  0.41147774  1
  Te2-  Te228  1  0.41359266  0.41632580  0.74296121  1
  Te2-  Te229  1  0.41202949  0.74663319  0.08385279  1
  Te2-  Te230  1  0.41743242  0.74572393  0.41196155  1
  Te2-  Te231  1  0.41570122  0.74310715  0.74415468  1
  Te2-  Te232  1  0.74829056  0.08106449  0.08072697  1
  Te2-  Te233  1  0.75333662  0.08072198  0.41411315  1
  Te2-  Te234  1  0.74602911  0.08142166  0.74977175  1
  Te2-  Te235  1  0.73772953  0.41593425  0.08081063  1
  Te2-  Te236  1  0.75020846  0.41656093  0.41651999  1
  Te2-  Te237  1  0.74353285  0.41407912  0.74792869  1
  Te2-  Te238  1  0.74576365  0.74536055  0.08529594  1
  Te2-  Te239  1  0.74386029  0.74960208  0.41688432  1
  Te2-  Te240  1  0.74808674  0.75159571  0.74562615  1
