# generated using pymatgen
data_Ti27(Cu53Te54)2
_symmetry_space_group_name_H-M   'P 1'
_cell_length_a   17.87180216
_cell_length_b   17.87366100
_cell_length_c   17.87080544
_cell_angle_alpha   90.01427537
_cell_angle_beta   90.01372554
_cell_angle_gamma   89.99357836
_symmetry_Int_Tables_number   1
_chemical_formula_structural   Ti27(Cu53Te54)2
_chemical_formula_sum   'Ti27 Cu106 Te108'
_cell_volume   5708.55201874
_cell_formula_units_Z   1
loop_
 _symmetry_equiv_pos_site_id
 _symmetry_equiv_pos_as_xyz
  1  'x, y, z'
loop_
 _atom_type_symbol
 _atom_type_oxidation_number
  Ti4+  4.0
  Cu+  1.0
  Te2-  -2.0
loop_
 _atom_site_type_symbol
 _atom_site_label
 _atom_site_symmetry_multiplicity
 _atom_site_fract_x
 _atom_site_fract_y
 _atom_site_fract_z
 _atom_site_occupancy
  Ti4+  Ti0  1  0.16685098  0.16728017  0.16873912  1
  Ti4+  Ti1  1  0.16747017  0.16773809  0.49766989  1
  Ti4+  Ti2  1  0.16473499  0.16954832  0.83157178  1
  Ti4+  Ti3  1  0.16746973  0.49928599  0.16646331  1
  Ti4+  Ti4  1  0.16885934  0.50041108  0.50240650  1
  Ti4+  Ti5  1  0.16394883  0.50266717  0.83217503  1
  Ti4+  Ti6  1  0.16410962  0.83312778  0.16701061  1
  Ti4+  Ti7  1  0.16544464  0.83366879  0.50218156  1
  Ti4+  Ti8  1  0.16870170  0.83628009  0.83470728  1
  Ti4+  Ti9  1  0.49876580  0.17090359  0.16864325  1
  Ti4+  Ti10  1  0.50071342  0.16395718  0.50032562  1
  Ti4+  Ti11  1  0.49939095  0.16558064  0.83537314  1
  Ti4+  Ti12  1  0.49852526  0.49872527  0.16415738  1
  Ti4+  Ti13  1  0.50259986  0.49911562  0.50024618  1
  Ti4+  Ti14  1  0.50258150  0.49816260  0.83178048  1
  Ti4+  Ti15  1  0.49766991  0.83660774  0.16681639  1
  Ti4+  Ti16  1  0.50005122  0.83127816  0.50072221  1
  Ti4+  Ti17  1  0.50149708  0.82811773  0.83587580  1
  Ti4+  Ti18  1  0.83536731  0.16545455  0.16843187  1
  Ti4+  Ti19  1  0.83347597  0.16749650  0.49898119  1
  Ti4+  Ti20  1  0.83408454  0.16673331  0.82759075  1
  Ti4+  Ti21  1  0.83285017  0.49903653  0.16718675  1
  Ti4+  Ti22  1  0.83554615  0.50173972  0.49853228  1
  Ti4+  Ti23  1  0.83508069  0.49738340  0.83417039  1
  Ti4+  Ti24  1  0.83209526  0.83053868  0.16547814  1
  Ti4+  Ti25  1  0.83044655  0.83137354  0.49915167  1
  Ti4+  Ti26  1  0.83126732  0.83631624  0.83319983  1
  Cu+  Cu27  1  0.16542376  0.16470067  0.00138812  1
  Cu+  Cu28  1  0.16819749  0.16645077  0.32981473  1
  Cu+  Cu29  1  0.16482970  0.17211324  0.66437878  1
  Cu+  Cu30  1  0.15991691  0.50340151  0.00228098  1
  Cu+  Cu31  1  0.16835339  0.50061450  0.33598112  1
  Cu+  Cu32  1  0.17292171  0.49803740  0.66776729  1
  Cu+  Cu33  1  0.16536576  0.83303423  -0.00051312  1
  Cu+  Cu34  1  0.16625040  0.83274066  0.33435161  1
  Cu+  Cu35  1  0.16819587  0.83657768  0.66999619  1
  Cu+  Cu36  1  0.49766546  0.17216034  0.00246417  1
  Cu+  Cu37  1  0.49325888  0.16696978  0.33729667  1
  Cu+  Cu38  1  0.50111911  0.16350885  0.66983592  1
  Cu+  Cu39  1  0.50302863  0.49612156  -0.00241980  1
  Cu+  Cu40  1  0.50004963  0.49842035  0.32915961  1
  Cu+  Cu41  1  0.50174728  0.49977027  0.66544077  1
  Cu+  Cu42  1  0.50540480  0.83315996  0.00370593  1
  Cu+  Cu43  1  0.49667685  0.83480022  0.33437060  1
  Cu+  Cu44  1  0.50218553  0.82719232  0.66738663  1
  Cu+  Cu45  1  0.83552299  0.16477323  -0.00003361  1
  Cu+  Cu46  1  0.83892390  0.16832199  0.33378688  1
  Cu+  Cu47  1  0.82944533  0.16247264  0.66031658  1
  Cu+  Cu48  1  0.83513494  0.49740892  0.00118460  1
  Cu+  Cu49  1  0.83267620  0.50588696  0.33409735  1
  Cu+  Cu50  1  0.83413340  0.49797849  0.66722064  1
  Cu+  Cu51  1  0.82749852  0.83019198  -0.00239440  1
  Cu+  Cu52  1  0.83409430  0.82815692  0.33260458  1
  Cu+  Cu53  1  0.83702877  0.83882882  0.66353530  1
  Cu+  Cu54  1  0.16195699  -0.00027137  0.16902973  1
  Cu+  Cu55  1  0.16809509  0.00249821  0.49952045  1
  Cu+  Cu56  1  0.16469195  0.00055088  0.83052523  1
  Cu+  Cu57  1  0.17152488  0.33270869  0.16912281  1
  Cu+  Cu58  1  0.16896025  0.33657673  0.49972362  1
  Cu+  Cu59  1  0.16162299  0.33548306  0.82732273  1
  Cu+  Cu60  1  0.16591829  0.66505975  0.16382299  1
  Cu+  Cu61  1  0.16580591  0.66468302  0.50343414  1
  Cu+  Cu62  1  0.16841741  0.67338335  0.83638600  1
  Cu+  Cu63  1  0.49651321  0.00477000  0.17116477  1
  Cu+  Cu64  1  0.50076112  -0.00509398  0.50170358  1
  Cu+  Cu65  1  0.50027181  -0.00336707  0.83740032  1
  Cu+  Cu66  1  0.49889401  0.33602005  0.15634366  1
  Cu+  Cu67  1  0.50352384  0.33107029  0.49957703  1
  Cu+  Cu68  1  0.50023117  0.33127605  0.83407765  1
  Cu+  Cu69  1  0.49790281  0.66716585  0.16548020  1
  Cu+  Cu70  1  0.49942573  0.66590162  0.49902778  1
  Cu+  Cu71  1  0.50381791  0.66280224  0.82965363  1
  Cu+  Cu72  1  0.83344515  -0.00533378  0.16474043  1
  Cu+  Cu73  1  0.83089944  0.00008104  0.50312609  1
  Cu+  Cu74  1  0.82979267  0.00578303  0.83398353  1
  Cu+  Cu75  1  0.83601521  0.33190004  0.17048024  1
  Cu+  Cu76  1  0.83186270  0.33793978  0.50193991  1
  Cu+  Cu77  1  0.84064004  0.32918769  0.83180335  1
  Cu+  Cu78  1  0.83180765  0.66475520  0.16790858  1
  Cu+  Cu79  1  0.83243230  0.66612549  0.49080764  1
  Cu+  Cu80  1  0.83209386  0.66423097  0.83323198  1
  Cu+  Cu81  1  -0.00102552  0.16690409  0.17425638  1
  Cu+  Cu82  1  0.00178551  0.16752533  0.49482980  1
  Cu+  Cu83  1  -0.00127322  0.17609247  0.82627607  1
  Cu+  Cu84  1  0.00145358  0.50053995  0.16567285  1
  Cu+  Cu85  1  0.00400903  0.50245586  0.50219834  1
  Cu+  Cu86  1  0.00082553  0.49735103  0.83813815  1
  Cu+  Cu87  1  -0.00373535  0.83418552  0.16565854  1
  Cu+  Cu88  1  -0.00385071  0.83139017  0.50187017  1
  Cu+  Cu89  1  0.00235473  0.83942876  0.83246367  1
  Cu+  Cu90  1  0.33520757  0.17200736  0.17130589  1
  Cu+  Cu91  1  0.33518667  0.16830112  0.49893266  1
  Cu+  Cu92  1  0.33280452  0.16472703  0.83465088  1
  Cu+  Cu93  1  0.33296855  0.49982678  0.16679889  1
  Cu+  Cu94  1  0.33412002  0.50035767  0.50069031  1
  Cu+  Cu95  1  0.33424004  0.49913713  0.83028359  1
  Cu+  Cu96  1  0.32931188  0.83585421  0.16665844  1
  Cu+  Cu97  1  0.33477642  0.83373719  0.50184740  1
  Cu+  Cu98  1  0.33340611  0.83082805  0.83097733  1
  Cu+  Cu99  1  0.66777919  0.16709075  0.16811415  1
  Cu+  Cu100  1  0.66650742  0.16223816  0.50117844  1
  Cu+  Cu101  1  0.66703514  0.16281475  0.83312556  1
  Cu+  Cu102  1  0.66509163  0.49561176  0.16396464  1
  Cu+  Cu103  1  0.66948900  0.50058315  0.49970200  1
  Cu+  Cu104  1  0.66907183  0.49913864  0.83262671  1
  Cu+  Cu105  1  0.66451085  0.83310052  0.16437179  1
  Cu+  Cu106  1  0.66404506  0.83210366  0.49890694  1
  Cu+  Cu107  1  0.66502177  0.82926078  0.83868557  1
  Cu+  Cu108  1  0.59828310  0.73815911  0.73604182  1
  Cu+  Cu109  1  0.74068514  0.41075396  0.59544592  1
  Cu+  Cu110  1  0.40764473  0.26514739  0.41529502  1
  Cu+  Cu111  1  0.59852648  0.40427396  0.06856936  1
  Cu+  Cu112  1  0.25922936  0.74228837  0.73763635  1
  Cu+  Cu113  1  0.08081196  0.40469465  0.93053396  1
  Cu+  Cu114  1  0.92670088  0.26607183  0.26558495  1
  Cu+  Cu115  1  0.73461914  0.59228487  0.40434793  1
  Cu+  Cu116  1  0.40219339  0.26236508  0.06952266  1
  Cu+  Cu117  1  0.92392330  0.25382865  0.92965808  1
  Cu+  Cu118  1  0.73498946  0.06834727  0.58974178  1
  Cu+  Cu119  1  0.40760285  0.07176092  0.26558012  1
  Cu+  Cu120  1  0.26389979  0.40435428  0.74173129  1
  Cu+  Cu121  1  0.73991799  0.08298127  0.93123619  1
  Cu+  Cu122  1  0.92990318  0.74047242  0.40475074  1
  Cu+  Cu123  1  0.07024590  0.26646384  0.73077261  1
  Cu+  Cu124  1  0.26244599  0.26340636  0.26061640  1
  Cu+  Cu125  1  0.58980292  0.92738566  0.92977996  1
  Cu+  Cu126  1  0.74040328  0.73334058  0.92339886  1
  Cu+  Cu127  1  0.06922683  0.59498294  0.07832630  1
  Cu+  Cu128  1  0.07576565  0.92882874  0.74005530  1
  Cu+  Cu129  1  0.07094702  0.74863361  0.92501249  1
  Cu+  Cu130  1  0.06914059  0.06864700  0.25896430  1
  Cu+  Cu131  1  0.92728965  0.92975611  0.58525101  1
  Cu+  Cu132  1  0.59137268  0.73679931  0.08125289  1
  Te2-  Te133  1  0.25136991  0.25242843  0.07815126  1
  Te2-  Te134  1  0.25404077  0.25628967  0.41244714  1
  Te2-  Te135  1  0.25514651  0.25251858  0.74728406  1
  Te2-  Te136  1  0.25326569  0.58404830  0.07949138  1
  Te2-  Te137  1  0.25308743  0.58674746  0.41640342  1
  Te2-  Te138  1  0.25267346  0.58930420  0.74915523  1
  Te2-  Te139  1  0.24730774  0.92067279  0.08166757  1
  Te2-  Te140  1  0.25124904  0.91687316  0.41684862  1
  Te2-  Te141  1  0.25627879  0.92289851  0.74860620  1
  Te2-  Te142  1  0.59133939  0.25159437  0.07952824  1
  Te2-  Te143  1  0.58793212  0.24764119  0.41388502  1
  Te2-  Te144  1  0.58592413  0.24975597  0.74982080  1
  Te2-  Te145  1  0.58608478  0.58463449  0.07916858  1
  Te2-  Te146  1  0.58415407  0.58534447  0.41136823  1
  Te2-  Te147  1  0.59097264  0.58296595  0.74430565  1
  Te2-  Te148  1  0.58543506  0.92764392  0.08481168  1
  Te2-  Te149  1  0.58483494  0.91737669  0.41367110  1
  Te2-  Te150  1  0.58568290  0.91508695  0.74997493  1
  Te2-  Te151  1  0.92184051  0.25132945  0.08244266  1
  Te2-  Te152  1  0.91989275  0.25780846  0.41699298  1
  Te2-  Te153  1  0.91624043  0.25363307  0.73438688  1
  Te2-  Te154  1  0.91725765  0.58629799  0.08007558  1
  Te2-  Te155  1  0.92646438  0.58583316  0.41190467  1
  Te2-  Te156  1  0.91898733  0.58305013  0.74978303  1
  Te2-  Te157  1  0.91577400  0.91508644  0.07684428  1
  Te2-  Te158  1  0.91571438  0.91936716  0.41468610  1
  Te2-  Te159  1  0.91865395  0.92549107  0.74798600  1
  Te2-  Te160  1  0.25475117  0.07826257  0.25216496  1
  Te2-  Te161  1  0.25182427  0.08540280  0.58532938  1
  Te2-  Te162  1  0.24811609  0.08152236  0.91707037  1
  Te2-  Te163  1  0.25487153  0.41669746  0.25564752  1
  Te2-  Te164  1  0.25784749  0.41177798  0.58626109  1
  Te2-  Te165  1  0.24740167  0.41631168  0.91819239  1
  Te2-  Te166  1  0.24947651  0.74715207  0.25053038  1
  Te2-  Te167  1  0.25243568  0.74810931  0.58604135  1
  Te2-  Te168  1  0.25583793  0.75013529  0.92261472  1
  Te2-  Te169  1  0.58459804  0.08551293  0.25480905  1
  Te2-  Te170  1  0.58381130  0.07667363  0.58817254  1
  Te2-  Te171  1  0.58532841  0.08113560  0.92577837  1
  Te2-  Te172  1  0.58325235  0.41128761  0.24948953  1
  Te2-  Te173  1  0.58786916  0.41224082  0.58607409  1
  Te2-  Te174  1  0.58990405  0.41055569  0.91635368  1
  Te2-  Te175  1  0.58212384  0.74959322  0.25224186  1
  Te2-  Te176  1  0.58861499  0.74247166  0.58419158  1
  Te2-  Te177  1  0.58695024  0.73803444  0.92479751  1
  Te2-  Te178  1  0.91665033  0.07388896  0.25451252  1
  Te2-  Te179  1  0.92419267  0.08261898  0.58368113  1
  Te2-  Te180  1  0.92380350  0.08394253  0.91377726  1
  Te2-  Te181  1  0.92114256  0.41838214  0.25518755  1
  Te2-  Te182  1  0.92208273  0.41623938  0.58453617  1
  Te2-  Te183  1  0.92157828  0.41032826  0.92396918  1
  Te2-  Te184  1  0.92055937  0.74416223  0.25012876  1
  Te2-  Te185  1  0.91426136  0.74315505  0.58564499  1
  Te2-  Te186  1  0.91849669  0.74961560  0.91587319  1
  Te2-  Te187  1  0.08079066  0.25729730  0.25507908  1
  Te2-  Te188  1  0.07955196  0.25583303  0.57999227  1
  Te2-  Te189  1  0.07957127  0.25383819  0.92341081  1
  Te2-  Te190  1  0.08312733  0.58475234  0.25340956  1
  Te2-  Te191  1  0.08368877  0.58434301  0.59076189  1
  Te2-  Te192  1  0.07705039  0.59220354  0.91922130  1
  Te2-  Te193  1  0.07723994  0.91600815  0.25511697  1
  Te2-  Te194  1  0.07940406  0.92290551  0.58701449  1
  Te2-  Te195  1  0.08147969  0.92323215  0.92158917  1
  Te2-  Te196  1  0.41568463  0.26313354  0.25633346  1
  Te2-  Te197  1  0.41754969  0.25036693  0.58762092  1
  Te2-  Te198  1  0.41110606  0.25406120  0.91725768  1
  Te2-  Te199  1  0.41447165  0.58568148  0.25045908  1
  Te2-  Te200  1  0.41632336  0.58440938  0.58497384  1
  Te2-  Te201  1  0.41678207  0.58272491  0.91677336  1
  Te2-  Te202  1  0.41005666  0.91924588  0.25436271  1
  Te2-  Te203  1  0.41644775  0.91571643  0.58952234  1
  Te2-  Te204  1  0.41405537  0.91321554  0.92057037  1
  Te2-  Te205  1  0.74876103  0.25036653  0.25401643  1
  Te2-  Te206  1  0.74530082  0.25400418  0.58411935  1
  Te2-  Te207  1  0.74910510  0.25126137  0.91654226  1
  Te2-  Te208  1  0.74272692  0.58505159  0.24940382  1
  Te2-  Te209  1  0.75112550  0.58800603  0.58561999  1
  Te2-  Te210  1  0.74795735  0.58157747  0.92147199  1
  Te2-  Te211  1  0.74784878  0.91496154  0.25186110  1
  Te2-  Te212  1  0.74164280  0.91676501  0.58669097  1
  Te2-  Te213  1  0.74512285  0.92419754  0.92122555  1
  Te2-  Te214  1  0.07845641  0.08339560  0.08363801  1
  Te2-  Te215  1  0.08193344  0.08039936  0.41201382  1
  Te2-  Te216  1  0.07948332  0.08376536  0.74471199  1
  Te2-  Te217  1  0.08043324  0.40827264  0.08377510  1
  Te2-  Te218  1  0.08233014  0.41641524  0.41563425  1
  Te2-  Te219  1  0.07582161  0.41848569  0.74170672  1
  Te2-  Te220  1  0.07579546  0.74720249  0.07942915  1
  Te2-  Te221  1  0.08173582  0.74673663  0.41617694  1
  Te2-  Te222  1  0.08006635  0.74909404  0.74798291  1
  Te2-  Te223  1  0.41262712  0.08502693  0.08260234  1
  Te2-  Te224  1  0.41176898  0.07423470  0.41823024  1
  Te2-  Te225  1  0.41530529  0.07830556  0.75120213  1
  Te2-  Te226  1  0.40796433  0.41654071  0.07523145  1
  Te2-  Te227  1  0.41510974  0.41589098  0.41411441  1
  Te2-  Te228  1  0.41717979  0.41174289  0.74532500  1
  Te2-  Te229  1  0.41210402  0.75086268  0.08119641  1
  Te2-  Te230  1  0.41335901  0.74735861  0.41487148  1
  Te2-  Te231  1  0.41435584  0.74296556  0.74706695  1
  Te2-  Te232  1  0.74777211  0.07988889  0.08332695  1
  Te2-  Te233  1  0.75066726  0.08092964  0.41213153  1
  Te2-  Te234  1  0.74429968  0.07883465  0.74314431  1
  Te2-  Te235  1  0.75102991  0.40968504  0.08041667  1
  Te2-  Te236  1  0.74924363  0.41540151  0.41131226  1
  Te2-  Te237  1  0.74901036  0.40997191  0.74984275  1
  Te2-  Te238  1  0.74475178  0.74172583  0.07926450  1
  Te2-  Te239  1  0.74121849  0.74750444  0.41046183  1
  Te2-  Te240  1  0.75025608  0.74920736  0.74475141  1
