# generated using pymatgen
data_Ti27(Cu53Te54)2
_symmetry_space_group_name_H-M   'P 1'
_cell_length_a   17.89874523
_cell_length_b   17.89107091
_cell_length_c   17.89478582
_cell_angle_alpha   90.01417425
_cell_angle_beta   90.02666421
_cell_angle_gamma   89.97644351
_symmetry_Int_Tables_number   1
_chemical_formula_structural   Ti27(Cu53Te54)2
_chemical_formula_sum   'Ti27 Cu106 Te108'
_cell_volume   5730.40518727
_cell_formula_units_Z   1
loop_
 _symmetry_equiv_pos_site_id
 _symmetry_equiv_pos_as_xyz
  1  'x, y, z'
loop_
 _atom_type_symbol
 _atom_type_oxidation_number
  Ti4+  4.0
  Cu+  1.0
  Te2-  -2.0
loop_
 _atom_site_type_symbol
 _atom_site_label
 _atom_site_symmetry_multiplicity
 _atom_site_fract_x
 _atom_site_fract_y
 _atom_site_fract_z
 _atom_site_occupancy
  Ti4+  Ti0  1  0.16572729  0.16666056  0.16622225  1
  Ti4+  Ti1  1  0.16741505  0.16622733  0.49891088  1
  Ti4+  Ti2  1  0.16074003  0.16609110  0.83086840  1
  Ti4+  Ti3  1  0.16555717  0.50088933  0.17084028  1
  Ti4+  Ti4  1  0.16545054  0.50068662  0.50313526  1
  Ti4+  Ti5  1  0.16628087  0.50054856  0.83506794  1
  Ti4+  Ti6  1  0.16763161  0.83232769  0.16267179  1
  Ti4+  Ti7  1  0.16687275  0.83413191  0.50129890  1
  Ti4+  Ti8  1  0.17051778  0.83834993  0.83078840  1
  Ti4+  Ti9  1  0.50180999  0.16660676  0.16336739  1
  Ti4+  Ti10  1  0.50195056  0.16723561  0.50281384  1
  Ti4+  Ti11  1  0.49985458  0.16713444  0.83436352  1
  Ti4+  Ti12  1  0.50118055  0.49458196  0.16937002  1
  Ti4+  Ti13  1  0.49598636  0.50166128  0.50156948  1
  Ti4+  Ti14  1  0.49934363  0.50093902  0.83575314  1
  Ti4+  Ti15  1  0.50168661  0.83158330  0.16503646  1
  Ti4+  Ti16  1  0.49870477  0.83498673  0.49834165  1
  Ti4+  Ti17  1  0.50337635  0.83252799  0.83217868  1
  Ti4+  Ti18  1  0.83075111  0.16390116  0.16776058  1
  Ti4+  Ti19  1  0.83294277  0.16744076  0.50080344  1
  Ti4+  Ti20  1  0.83133593  0.16518230  0.83503565  1
  Ti4+  Ti21  1  0.83188143  0.50316008  0.16519824  1
  Ti4+  Ti22  1  0.83255213  0.50038433  0.50015687  1
  Ti4+  Ti23  1  0.83280535  0.50001249  0.83109956  1
  Ti4+  Ti24  1  0.83725214  0.83042430  0.16606481  1
  Ti4+  Ti25  1  0.83276531  0.83316613  0.49842122  1
  Ti4+  Ti26  1  0.83497065  0.83314980  0.83080051  1
  Cu+  Cu27  1  0.16255396  0.16664873  -0.00364102  1
  Cu+  Cu28  1  0.16817243  0.16517812  0.33113460  1
  Cu+  Cu29  1  0.16549343  0.16482668  0.66428974  1
  Cu+  Cu30  1  0.16476192  0.50355272  0.00707573  1
  Cu+  Cu31  1  0.16895122  0.49806637  0.34061164  1
  Cu+  Cu32  1  0.16602148  0.50113199  0.66913396  1
  Cu+  Cu33  1  0.16734860  0.83182021  -0.00630021  1
  Cu+  Cu34  1  0.16904937  0.83295746  0.33362845  1
  Cu+  Cu35  1  0.16571391  0.84037175  0.66735775  1
  Cu+  Cu36  1  0.50376069  0.17092721  -0.00020134  1
  Cu+  Cu37  1  0.50184825  0.16673823  0.33200970  1
  Cu+  Cu38  1  0.50422118  0.16395419  0.66871766  1
  Cu+  Cu39  1  0.49880442  0.49422617  0.00139196  1
  Cu+  Cu40  1  0.50272778  0.49494882  0.33943626  1
  Cu+  Cu41  1  0.49613082  0.50412580  0.66938635  1
  Cu+  Cu42  1  0.50186492  0.83021668  -0.00062103  1
  Cu+  Cu43  1  0.49946366  0.83488916  0.33193717  1
  Cu+  Cu44  1  0.49747498  0.83345708  0.66266195  1
  Cu+  Cu45  1  0.83065203  0.16265846  0.00702095  1
  Cu+  Cu46  1  0.83322710  0.16564231  0.33736951  1
  Cu+  Cu47  1  0.82958019  0.16640895  0.66711291  1
  Cu+  Cu48  1  0.83583590  0.50154192  -0.00472313  1
  Cu+  Cu49  1  0.83207571  0.50383004  0.33155694  1
  Cu+  Cu50  1  0.83286958  0.50044344  0.66506676  1
  Cu+  Cu51  1  0.83753931  0.83256641  -0.00426649  1
  Cu+  Cu52  1  0.83330610  0.83094510  0.33424492  1
  Cu+  Cu53  1  0.83401552  0.83296618  0.66223436  1
  Cu+  Cu54  1  0.16910899  -0.00202834  0.16271099  1
  Cu+  Cu55  1  0.16810988  0.00033674  0.49891707  1
  Cu+  Cu56  1  0.16423683  0.00343925  0.82071785  1
  Cu+  Cu57  1  0.16314987  0.33446585  0.16932732  1
  Cu+  Cu58  1  0.16929574  0.33296454  0.50027572  1
  Cu+  Cu59  1  0.16369147  0.33264538  0.83457999  1
  Cu+  Cu60  1  0.16048197  0.66541469  0.16561202  1
  Cu+  Cu61  1  0.16456613  0.66586192  0.50453721  1
  Cu+  Cu62  1  0.17079860  0.66851445  0.83592239  1
  Cu+  Cu63  1  0.50293659  -0.00052897  0.16302226  1
  Cu+  Cu64  1  0.50273111  0.00162905  0.49942210  1
  Cu+  Cu65  1  0.50385317  -0.00152894  0.82635856  1
  Cu+  Cu66  1  0.50085577  0.32679757  0.16883281  1
  Cu+  Cu67  1  0.49906337  0.33452236  0.50314603  1
  Cu+  Cu68  1  0.49638407  0.33730147  0.84118960  1
  Cu+  Cu69  1  0.50297244  0.66037093  0.16720812  1
  Cu+  Cu70  1  0.49276313  0.66981003  0.50248005  1
  Cu+  Cu71  1  0.49860782  0.66688482  0.83775638  1
  Cu+  Cu72  1  0.83762793  -0.00206850  0.16379932  1
  Cu+  Cu73  1  0.83355635  -0.00006768  0.50029417  1
  Cu+  Cu74  1  0.83724479  -0.00450902  0.83770303  1
  Cu+  Cu75  1  0.82858452  0.33573776  0.16625910  1
  Cu+  Cu76  1  0.83454058  0.33235981  0.50014993  1
  Cu+  Cu77  1  0.82862584  0.33445041  0.83093226  1
  Cu+  Cu78  1  0.83527256  0.66759728  0.17170508  1
  Cu+  Cu79  1  0.83168474  0.66742691  0.49848138  1
  Cu+  Cu80  1  0.83243175  0.66660740  0.83120849  1
  Cu+  Cu81  1  -0.00131312  0.16484769  0.16844027  1
  Cu+  Cu82  1  0.00035719  0.16588484  0.49997917  1
  Cu+  Cu83  1  -0.00300778  0.16466287  0.83464399  1
  Cu+  Cu84  1  -0.00252192  0.50921944  0.16826450  1
  Cu+  Cu85  1  0.00094322  0.50015389  0.50184875  1
  Cu+  Cu86  1  -0.00297340  0.50060147  0.83260698  1
  Cu+  Cu87  1  0.00741428  0.82785299  0.16788515  1
  Cu+  Cu88  1  -0.00320805  0.83440618  0.49934082  1
  Cu+  Cu89  1  0.00207717  0.84078542  0.83169793  1
  Cu+  Cu90  1  0.33357422  0.16363126  0.16083616  1
  Cu+  Cu91  1  0.33848255  0.16933677  0.50168852  1
  Cu+  Cu92  1  0.32185319  0.16637093  0.83454702  1
  Cu+  Cu93  1  0.33307000  0.49886841  0.17254392  1
  Cu+  Cu94  1  0.32792278  0.49873374  0.49949312  1
  Cu+  Cu95  1  0.33336880  0.49979975  0.83764640  1
  Cu+  Cu96  1  0.33335129  0.83211204  0.16245554  1
  Cu+  Cu97  1  0.33268221  0.83173935  0.50363550  1
  Cu+  Cu98  1  0.34259329  0.83878834  0.83071617  1
  Cu+  Cu99  1  0.66616680  0.16895344  0.16022467  1
  Cu+  Cu100  1  0.66940456  0.16629453  0.50238607  1
  Cu+  Cu101  1  0.66653136  0.16836581  0.82941513  1
  Cu+  Cu102  1  0.66858389  0.49321630  0.16974706  1
  Cu+  Cu103  1  0.66307235  0.50405002  0.50018319  1
  Cu+  Cu104  1  0.66554184  0.50221686  0.83023822  1
  Cu+  Cu105  1  0.66991280  0.82965603  0.16578255  1
  Cu+  Cu106  1  0.66488306  0.83551581  0.49781831  1
  Cu+  Cu107  1  0.67061873  0.82998182  0.83198337  1
  Cu+  Cu108  1  0.24596167  0.26030781  0.92649258  1
  Cu+  Cu109  1  0.07366731  0.74234175  0.91372123  1
  Cu+  Cu110  1  0.74895300  0.40631248  0.26329038  1
  Cu+  Cu111  1  0.40178216  0.40997862  0.92899663  1
  Cu+  Cu112  1  0.59499824  0.26357037  0.91881953  1
  Cu+  Cu113  1  0.74163949  0.26274484  0.73578153  1
  Cu+  Cu114  1  0.93110681  0.92456706  0.92824688  1
  Cu+  Cu115  1  0.08435511  0.74035296  0.26662136  1
  Cu+  Cu116  1  0.59614405  0.24798533  0.26331226  1
  Cu+  Cu117  1  0.73691078  0.74514960  0.26337514  1
  Cu+  Cu118  1  0.59525964  0.40568540  0.42171491  1
  Cu+  Cu119  1  0.59805949  0.07090250  0.73867324  1
  Cu+  Cu120  1  0.92496180  0.59315208  0.26546400  1
  Cu+  Cu121  1  0.59016010  0.06731906  0.07023138  1
  Cu+  Cu122  1  0.40249769  0.25882657  0.07967652  1
  Cu+  Cu123  1  0.74322850  0.73838528  0.92404894  1
  Cu+  Cu124  1  0.06853212  0.92881547  0.73353751  1
  Cu+  Cu125  1  0.25841215  0.40246676  0.40842934  1
  Cu+  Cu126  1  0.40961299  0.74242168  0.92969851  1
  Cu+  Cu127  1  0.74578567  0.26416880  0.07372623  1
  Cu+  Cu128  1  0.40157734  0.73778956  0.59342600  1
  Cu+  Cu129  1  0.06964727  0.59261603  0.07178125  1
  Cu+  Cu130  1  0.93082617  0.07413953  0.07981810  1
  Cu+  Cu131  1  0.25821974  0.07886564  0.73387540  1
  Cu+  Cu132  1  0.41431877  0.92856467  0.73416811  1
  Te2-  Te133  1  0.24922225  0.25592027  0.07920506  1
  Te2-  Te134  1  0.25540695  0.24998377  0.41284755  1
  Te2-  Te135  1  0.24775448  0.25385689  0.74538783  1
  Te2-  Te136  1  0.25404841  0.58548053  0.08699926  1
  Te2-  Te137  1  0.25067901  0.58952893  0.41754103  1
  Te2-  Te138  1  0.25256478  0.58438729  0.75139411  1
  Te2-  Te139  1  0.25274234  0.91659442  0.07659899  1
  Te2-  Te140  1  0.25331239  0.91734748  0.41541277  1
  Te2-  Te141  1  0.25944695  0.92310019  0.74218855  1
  Te2-  Te142  1  0.59092092  0.26129778  0.07478878  1
  Te2-  Te143  1  0.58920091  0.25330238  0.41634203  1
  Te2-  Te144  1  0.58207356  0.25847350  0.74902368  1
  Te2-  Te145  1  0.58596770  0.57750566  0.08337818  1
  Te2-  Te146  1  0.58026462  0.59012235  0.41719555  1
  Te2-  Te147  1  0.58240900  0.58804401  0.74923944  1
  Te2-  Te148  1  0.58988258  0.91438540  0.07844640  1
  Te2-  Te149  1  0.58453001  0.92007318  0.41246292  1
  Te2-  Te150  1  0.59142460  0.91508542  0.74279868  1
  Te2-  Te151  1  0.91681713  0.25317647  0.08420113  1
  Te2-  Te152  1  0.91947959  0.25188239  0.41494500  1
  Te2-  Te153  1  0.91608646  0.25024021  0.74992992  1
  Te2-  Te154  1  0.91624510  0.59030268  0.07667076  1
  Te2-  Te155  1  0.92018173  0.58679541  0.41600685  1
  Te2-  Te156  1  0.91775888  0.58571641  0.74619683  1
  Te2-  Te157  1  0.92648147  0.91616169  0.08060755  1
  Te2-  Te158  1  0.91758137  0.91943376  0.41313867  1
  Te2-  Te159  1  0.91775899  0.92128465  0.74141098  1
  Te2-  Te160  1  0.25295083  0.08045889  0.24774128  1
  Te2-  Te161  1  0.25587570  0.08041001  0.58293183  1
  Te2-  Te162  1  0.24538115  0.07685257  0.91787137  1
  Te2-  Te163  1  0.25135662  0.41230945  0.25465105  1
  Te2-  Te164  1  0.25093505  0.41440622  0.58959346  1
  Te2-  Te165  1  0.24928466  0.41448316  0.92599315  1
  Te2-  Te166  1  0.25187462  0.74650704  0.24874429  1
  Te2-  Te167  1  0.24900765  0.74770623  0.59077485  1
  Te2-  Te168  1  0.25919399  0.75156486  0.91568937  1
  Te2-  Te169  1  0.58812799  0.08168489  0.25029289  1
  Te2-  Te170  1  0.58977359  0.07891582  0.58660112  1
  Te2-  Te171  1  0.58698411  0.07858418  0.91687511  1
  Te2-  Te172  1  0.58869416  0.40697843  0.25793255  1
  Te2-  Te173  1  0.58297519  0.41849751  0.58862329  1
  Te2-  Te174  1  0.59096292  0.41650611  0.92062018  1
  Te2-  Te175  1  0.58461659  0.74557718  0.25293794  1
  Te2-  Te176  1  0.58538516  0.74884260  0.58327887  1
  Te2-  Te177  1  0.58949427  0.74563710  0.91944327  1
  Te2-  Te178  1  0.91689037  0.07995760  0.25467964  1
  Te2-  Te179  1  0.91752604  0.08222478  0.58603178  1
  Te2-  Te180  1  0.92002004  0.07973409  0.92357530  1
  Te2-  Te181  1  0.91794111  0.41569454  0.24998199  1
  Te2-  Te182  1  0.91778894  0.41522882  0.58456547  1
  Te2-  Te183  1  0.91734593  0.41313154  0.91604949  1
  Te2-  Te184  1  0.92552884  0.74668405  0.25684601  1
  Te2-  Te185  1  0.91848467  0.74671407  0.58363574  1
  Te2-  Te186  1  0.92286870  0.74538487  0.91523457  1
  Te2-  Te187  1  0.08010017  0.25004139  0.25238653  1
  Te2-  Te188  1  0.08230652  0.25183232  0.58357607  1
  Te2-  Te189  1  0.07512409  0.25269014  0.91846116  1
  Te2-  Te190  1  0.08051320  0.58638536  0.26269335  1
  Te2-  Te191  1  0.07917167  0.58555493  0.58927437  1
  Te2-  Te192  1  0.07815466  0.58741099  0.91941420  1
  Te2-  Te193  1  0.08459058  0.91900620  0.25017947  1
  Te2-  Te194  1  0.07841339  0.92221150  0.58260996  1
  Te2-  Te195  1  0.08559161  0.92660293  0.91847851  1
  Te2-  Te196  1  0.41190671  0.24793004  0.25106135  1
  Te2-  Te197  1  0.41794887  0.25205740  0.58982609  1
  Te2-  Te198  1  0.40576063  0.25250315  0.92154146  1
  Te2-  Te199  1  0.41873369  0.58082146  0.25539410  1
  Te2-  Te200  1  0.40741010  0.58497589  0.58760030  1
  Te2-  Te201  1  0.41332851  0.58600998  0.92489096  1
  Te2-  Te202  1  0.41570909  0.91846305  0.24696791  1
  Te2-  Te203  1  0.41290731  0.92484462  0.58326948  1
  Te2-  Te204  1  0.42145045  0.92194850  0.91970233  1
  Te2-  Te205  1  0.74686620  0.25214571  0.25787985  1
  Te2-  Te206  1  0.74575360  0.25560012  0.58580929  1
  Te2-  Te207  1  0.74720372  0.25328318  0.92219863  1
  Te2-  Te208  1  0.74240314  0.58861232  0.25264856  1
  Te2-  Te209  1  0.74717792  0.58610437  0.58432831  1
  Te2-  Te210  1  0.74613414  0.58559430  0.91805028  1
  Te2-  Te211  1  0.75199729  0.91698196  0.24921872  1
  Te2-  Te212  1  0.74731643  0.91844420  0.58379700  1
  Te2-  Te213  1  0.74692579  0.91751160  0.91910466  1
  Te2-  Te214  1  0.08155567  0.07946777  0.07945232  1
  Te2-  Te215  1  0.08267994  0.08136767  0.41384246  1
  Te2-  Te216  1  0.07180997  0.08311213  0.74107862  1
  Te2-  Te217  1  0.07727870  0.41727823  0.08602095  1
  Te2-  Te218  1  0.07983269  0.41318032  0.41737302  1
  Te2-  Te219  1  0.08102633  0.41579791  0.75006308  1
  Te2-  Te220  1  0.07891321  0.74562897  0.07185572  1
  Te2-  Te221  1  0.08057480  0.74754242  0.41799488  1
  Te2-  Te222  1  0.08366025  0.74961424  0.74866243  1
  Te2-  Te223  1  0.41729125  0.07987609  0.07596315  1
  Te2-  Te224  1  0.41794557  0.08358133  0.41481177  1
  Te2-  Te225  1  0.41116870  0.08313478  0.74707313  1
  Te2-  Te226  1  0.41011027  0.41106122  0.08395273  1
  Te2-  Te227  1  0.41117211  0.41165071  0.41599536  1
  Te2-  Te228  1  0.41331266  0.41508561  0.74949648  1
  Te2-  Te229  1  0.41615054  0.74261518  0.08229384  1
  Te2-  Te230  1  0.41190400  0.75052435  0.41192613  1
  Te2-  Te231  1  0.41526280  0.74473771  0.74643646  1
  Te2-  Te232  1  0.74426530  0.07360036  0.08147378  1
  Te2-  Te233  1  0.74729178  0.08051674  0.41594685  1
  Te2-  Te234  1  0.74953508  0.07475262  0.74909901  1
  Te2-  Te235  1  0.74754316  0.41745456  0.07472190  1
  Te2-  Te236  1  0.74648161  0.41275343  0.41422051  1
  Te2-  Te237  1  0.74425676  0.41644210  0.74393033  1
  Te2-  Te238  1  0.75171829  0.74530854  0.07835413  1
  Te2-  Te239  1  0.74425043  0.74630517  0.41446942  1
  Te2-  Te240  1  0.75004784  0.74773449  0.74311773  1
