# generated using pymatgen
data_Ti27(Cu53Te54)2
_symmetry_space_group_name_H-M   'P 1'
_cell_length_a   17.88468484
_cell_length_b   17.88241103
_cell_length_c   17.88695623
_cell_angle_alpha   90.04470644
_cell_angle_beta   90.02741078
_cell_angle_gamma   90.00716820
_symmetry_Int_Tables_number   1
_chemical_formula_structural   Ti27(Cu53Te54)2
_chemical_formula_sum   'Ti27 Cu106 Te108'
_cell_volume   5720.62689505
_cell_formula_units_Z   1
loop_
 _symmetry_equiv_pos_site_id
 _symmetry_equiv_pos_as_xyz
  1  'x, y, z'
loop_
 _atom_type_symbol
 _atom_type_oxidation_number
  Ti4+  4.0
  Cu+  1.0
  Te2-  -2.0
loop_
 _atom_site_type_symbol
 _atom_site_label
 _atom_site_symmetry_multiplicity
 _atom_site_fract_x
 _atom_site_fract_y
 _atom_site_fract_z
 _atom_site_occupancy
  Ti4+  Ti0  1  0.16610010  0.16485740  0.16475159  1
  Ti4+  Ti1  1  0.16721243  0.16586858  0.49686822  1
  Ti4+  Ti2  1  0.16814708  0.16892522  0.83069323  1
  Ti4+  Ti3  1  0.16260344  0.49855526  0.16894939  1
  Ti4+  Ti4  1  0.16893442  0.50271415  0.49889533  1
  Ti4+  Ti5  1  0.16516654  0.50092288  0.83408473  1
  Ti4+  Ti6  1  0.16830804  0.82925830  0.16855577  1
  Ti4+  Ti7  1  0.16804493  0.83161993  0.50582461  1
  Ti4+  Ti8  1  0.16705565  0.83304052  0.83700200  1
  Ti4+  Ti9  1  0.49985877  0.17054503  0.16802400  1
  Ti4+  Ti10  1  0.50423973  0.16795661  0.50053037  1
  Ti4+  Ti11  1  0.50002088  0.16660268  0.83120864  1
  Ti4+  Ti12  1  0.49682502  0.49298503  0.16515368  1
  Ti4+  Ti13  1  0.49918400  0.50028304  0.50142932  1
  Ti4+  Ti14  1  0.50201881  0.50254709  0.83499859  1
  Ti4+  Ti15  1  0.50102272  0.83506186  0.16570154  1
  Ti4+  Ti16  1  0.49800182  0.83556500  0.50080528  1
  Ti4+  Ti17  1  0.50361843  0.83350388  0.83431245  1
  Ti4+  Ti18  1  0.83046347  0.16788934  0.16816231  1
  Ti4+  Ti19  1  0.83489702  0.16650376  0.50058414  1
  Ti4+  Ti20  1  0.83494027  0.16745482  0.83343333  1
  Ti4+  Ti21  1  0.82983076  0.50121483  0.16613052  1
  Ti4+  Ti22  1  0.83433395  0.49831878  0.49888163  1
  Ti4+  Ti23  1  0.83221927  0.49949739  0.82975254  1
  Ti4+  Ti24  1  0.83468939  0.83542167  0.16559399  1
  Ti4+  Ti25  1  0.83207802  0.83063547  0.49870604  1
  Ti4+  Ti26  1  0.83525466  0.83486272  0.83293196  1
  Cu+  Cu27  1  0.16429306  0.16423874  -0.00727319  1
  Cu+  Cu28  1  0.16709030  0.16404133  0.32959019  1
  Cu+  Cu29  1  0.16877267  0.16981169  0.66326471  1
  Cu+  Cu30  1  0.16275437  0.49935329  0.00324286  1
  Cu+  Cu31  1  0.16862949  0.50658802  0.33111541  1
  Cu+  Cu32  1  0.16691550  0.50301181  0.66549944  1
  Cu+  Cu33  1  0.16290952  0.82744184  0.00279484  1
  Cu+  Cu34  1  0.16902378  0.82738117  0.33899216  1
  Cu+  Cu35  1  0.16438817  0.83714773  0.67439240  1
  Cu+  Cu36  1  0.50167004  0.16934835  -0.00124971  1
  Cu+  Cu37  1  0.50136825  0.17347013  0.33746530  1
  Cu+  Cu38  1  0.50054496  0.16425862  0.66233648  1
  Cu+  Cu39  1  0.49900138  0.49140895  -0.00153465  1
  Cu+  Cu40  1  0.49659496  0.49595604  0.33355033  1
  Cu+  Cu41  1  0.50567729  0.50179835  0.67172177  1
  Cu+  Cu42  1  0.50310895  0.83150053  -0.00072707  1
  Cu+  Cu43  1  0.50103562  0.83695815  0.33048279  1
  Cu+  Cu44  1  0.49666194  0.83552930  0.66854948  1
  Cu+  Cu45  1  0.83444647  0.16783251  0.00238934  1
  Cu+  Cu46  1  0.83381050  0.16792178  0.33586603  1
  Cu+  Cu47  1  0.83543376  0.16546493  0.66776354  1
  Cu+  Cu48  1  0.83005186  0.50284502  -0.00393617  1
  Cu+  Cu49  1  0.82666712  0.50208683  0.33194103  1
  Cu+  Cu50  1  0.83614237  0.49198934  0.66496968  1
  Cu+  Cu51  1  0.83307258  0.83829113  0.00077067  1
  Cu+  Cu52  1  0.83305265  0.83162753  0.33192984  1
  Cu+  Cu53  1  0.83756925  0.83355103  0.66259840  1
  Cu+  Cu54  1  0.16771662  -0.00470141  0.16646641  1
  Cu+  Cu55  1  0.16662688  -0.00093682  0.49933917  1
  Cu+  Cu56  1  0.16492147  0.00354863  0.83299802  1
  Cu+  Cu57  1  0.16377633  0.33199151  0.16437590  1
  Cu+  Cu58  1  0.16825395  0.33596905  0.49626910  1
  Cu+  Cu59  1  0.16778257  0.33225279  0.83006183  1
  Cu+  Cu60  1  0.16765618  0.66194334  0.17266525  1
  Cu+  Cu61  1  0.17462048  0.66902331  0.50159423  1
  Cu+  Cu62  1  0.16610568  0.66685045  0.84036314  1
  Cu+  Cu63  1  0.50136120  0.00367964  0.16817984  1
  Cu+  Cu64  1  0.49948717  0.00421653  0.50424706  1
  Cu+  Cu65  1  0.50216052  -0.00134368  0.82939348  1
  Cu+  Cu66  1  0.49531373  0.33299649  0.16246704  1
  Cu+  Cu67  1  0.49969346  0.33017177  0.49598599  1
  Cu+  Cu68  1  0.50198422  0.33428031  0.83247863  1
  Cu+  Cu69  1  0.50314807  0.66461988  0.16545329  1
  Cu+  Cu70  1  0.49847560  0.66794262  0.50123890  1
  Cu+  Cu71  1  0.50059620  0.66953467  0.84078309  1
  Cu+  Cu72  1  0.83018860  0.00111193  0.16244990  1
  Cu+  Cu73  1  0.83457187  -0.00127245  0.49991120  1
  Cu+  Cu74  1  0.83538765  0.00168691  0.83357320  1
  Cu+  Cu75  1  0.82794736  0.33500441  0.17052008  1
  Cu+  Cu76  1  0.83402426  0.33256291  0.50336465  1
  Cu+  Cu77  1  0.83675478  0.33292938  0.83049129  1
  Cu+  Cu78  1  0.83467484  0.66933997  0.16649856  1
  Cu+  Cu79  1  0.82849190  0.66335265  0.49463659  1
  Cu+  Cu80  1  0.83393842  0.66639442  0.83121374  1
  Cu+  Cu81  1  -0.00520770  0.16447805  0.16493040  1
  Cu+  Cu82  1  0.00251497  0.16549243  0.49771112  1
  Cu+  Cu83  1  0.00323600  0.16725081  0.83451560  1
  Cu+  Cu84  1  -0.00426172  0.50165956  0.16622514  1
  Cu+  Cu85  1  0.00328704  0.50224872  0.49684507  1
  Cu+  Cu86  1  -0.00289093  0.49932549  0.82950835  1
  Cu+  Cu87  1  0.00451393  0.83498168  0.16702512  1
  Cu+  Cu88  1  -0.00365059  0.83331370  0.50611342  1
  Cu+  Cu89  1  0.00197862  0.83307743  0.83479806  1
  Cu+  Cu90  1  0.33231904  0.16983178  0.16579548  1
  Cu+  Cu91  1  0.33377553  0.16778641  0.49951896  1
  Cu+  Cu92  1  0.32988398  0.16684251  0.82859459  1
  Cu+  Cu93  1  0.32743498  0.49178877  0.16839806  1
  Cu+  Cu94  1  0.32994924  0.50526966  0.50567438  1
  Cu+  Cu95  1  0.33597687  0.50366822  0.83751903  1
  Cu+  Cu96  1  0.33557705  0.83207106  0.16652700  1
  Cu+  Cu97  1  0.33545111  0.82576423  0.50573306  1
  Cu+  Cu98  1  0.33746473  0.83389364  0.83670838  1
  Cu+  Cu99  1  0.66441379  0.16932755  0.16988430  1
  Cu+  Cu100  1  0.66956775  0.16656023  0.50038172  1
  Cu+  Cu101  1  0.66887549  0.16826977  0.83424304  1
  Cu+  Cu102  1  0.66616434  0.49334841  0.16942197  1
  Cu+  Cu103  1  0.66906663  0.50040422  0.49933136  1
  Cu+  Cu104  1  0.66466314  0.50048460  0.82745144  1
  Cu+  Cu105  1  0.66770484  0.83627582  0.16359808  1
  Cu+  Cu106  1  0.66419854  0.83423079  0.49808437  1
  Cu+  Cu107  1  0.66930702  0.83398572  0.83146210  1
  Cu+  Cu108  1  0.58795827  0.40332175  0.73955135  1
  Cu+  Cu109  1  0.40357083  0.25589877  0.41103679  1
  Cu+  Cu110  1  0.73565063  0.92885367  0.07118114  1
  Cu+  Cu111  1  0.40845632  0.74340266  0.93189382  1
  Cu+  Cu112  1  0.24650555  0.40401978  0.07042171  1
  Cu+  Cu113  1  0.06852309  0.73618789  0.92803053  1
  Cu+  Cu114  1  0.40696866  0.92624133  0.74400501  1
  Cu+  Cu115  1  0.40311767  0.24919722  0.06733579  1
  Cu+  Cu116  1  0.92168058  0.07453022  0.07473896  1
  Cu+  Cu117  1  0.40457857  0.40322522  0.91434157  1
  Cu+  Cu118  1  0.40323239  0.07966439  0.58923002  1
  Cu+  Cu119  1  0.26498324  0.59119128  0.25492638  1
  Cu+  Cu120  1  0.73834384  0.40413551  0.26307077  1
  Cu+  Cu121  1  0.39984788  0.40813645  0.26445669  1
  Cu+  Cu122  1  0.92221496  0.92978904  0.59108491  1
  Cu+  Cu123  1  0.07953433  0.92315970  0.07659331  1
  Cu+  Cu124  1  0.26543956  0.74346774  0.40765668  1
  Cu+  Cu125  1  0.73955052  0.40511441  0.59197723  1
  Cu+  Cu126  1  0.73610516  0.59473640  0.40321714  1
  Cu+  Cu127  1  0.07313842  0.93005451  0.74401748  1
  Cu+  Cu128  1  0.93154622  0.40321864  0.73876728  1
  Cu+  Cu129  1  0.07302908  0.07547187  0.92160213  1
  Cu+  Cu130  1  0.59782421  0.40676834  0.07197908  1
  Cu+  Cu131  1  0.25501901  0.59496090  0.60120725  1
  Cu+  Cu132  1  0.41442050  0.73722412  0.59854141  1
  Te2-  Te133  1  0.24945456  0.25101732  0.07448567  1
  Te2-  Te134  1  0.25153441  0.25275017  0.41031982  1
  Te2-  Te135  1  0.25351174  0.25458756  0.74377865  1
  Te2-  Te136  1  0.25154323  0.58358927  0.08304249  1
  Te2-  Te137  1  0.25941745  0.58947826  0.41054476  1
  Te2-  Te138  1  0.25337448  0.58796028  0.75328336  1
  Te2-  Te139  1  0.25270062  0.91406016  0.08020488  1
  Te2-  Te140  1  0.25464347  0.91494114  0.41949044  1
  Te2-  Te141  1  0.25392862  0.92093506  0.75195887  1
  Te2-  Te142  1  0.58854228  0.25377412  0.07966338  1
  Te2-  Te143  1  0.59243627  0.25430644  0.41545730  1
  Te2-  Te144  1  0.58638749  0.25004953  0.74490853  1
  Te2-  Te145  1  0.58436595  0.57815373  0.08180024  1
  Te2-  Te146  1  0.58226321  0.58503500  0.41365434  1
  Te2-  Te147  1  0.58507936  0.59327838  0.75039633  1
  Te2-  Te148  1  0.58386193  0.92330040  0.07859437  1
  Te2-  Te149  1  0.58219090  0.92167680  0.41627698  1
  Te2-  Te150  1  0.58876539  0.91791055  0.74554157  1
  Te2-  Te151  1  0.91552349  0.25639900  0.08451337  1
  Te2-  Te152  1  0.91974459  0.25265296  0.41602727  1
  Te2-  Te153  1  0.92340068  0.25039397  0.74578139  1
  Te2-  Te154  1  0.91515261  0.58541519  0.07975102  1
  Te2-  Te155  1  0.91830919  0.58382587  0.41158126  1
  Te2-  Te156  1  0.91713234  0.58554004  0.74391448  1
  Te2-  Te157  1  0.92463814  0.92141583  0.07809162  1
  Te2-  Te158  1  0.91906608  0.91612298  0.41366246  1
  Te2-  Te159  1  0.92173670  0.92241323  0.74669767  1
  Te2-  Te160  1  0.25288418  0.08008531  0.24797061  1
  Te2-  Te161  1  0.25174064  0.07999534  0.58520841  1
  Te2-  Te162  1  0.25475063  0.08097683  0.91655708  1
  Te2-  Te163  1  0.24680642  0.40773042  0.25796196  1
  Te2-  Te164  1  0.25125343  0.41421133  0.58593469  1
  Te2-  Te165  1  0.25103654  0.41258367  0.91863611  1
  Te2-  Te166  1  0.25819810  0.74488509  0.25435518  1
  Te2-  Te167  1  0.25443162  0.74764582  0.59943830  1
  Te2-  Te168  1  0.25492504  0.74734063  0.92289466  1
  Te2-  Te169  1  0.58320992  0.08550080  0.25510469  1
  Te2-  Te170  1  0.59105123  0.08106628  0.58612818  1
  Te2-  Te171  1  0.58445439  0.08246262  0.91655428  1
  Te2-  Te172  1  0.58290726  0.40886994  0.25552646  1
  Te2-  Te173  1  0.58497507  0.41148292  0.58471843  1
  Te2-  Te174  1  0.59142724  0.41203805  0.91779978  1
  Te2-  Te175  1  0.58657532  0.74968583  0.24981969  1
  Te2-  Te176  1  0.58426683  0.75034977  0.58647459  1
  Te2-  Te177  1  0.59234583  0.74930937  0.91967509  1
  Te2-  Te178  1  0.91486272  0.08020224  0.25291988  1
  Te2-  Te179  1  0.92241944  0.08163015  0.58631408  1
  Te2-  Te180  1  0.92093953  0.07929173  0.92083307  1
  Te2-  Te181  1  0.91586957  0.41702427  0.25300321  1
  Te2-  Te182  1  0.92673091  0.41265471  0.58213357  1
  Te2-  Te183  1  0.91713459  0.41629189  0.91854330  1
  Te2-  Te184  1  0.92066667  0.74996191  0.25057373  1
  Te2-  Te185  1  0.91557934  0.74041219  0.58281114  1
  Te2-  Te186  1  0.91724574  0.74756202  0.92084394  1
  Te2-  Te187  1  0.07971434  0.24846454  0.24885234  1
  Te2-  Te188  1  0.08335129  0.25325871  0.58088400  1
  Te2-  Te189  1  0.08178569  0.25615122  0.91726268  1
  Te2-  Te190  1  0.07521818  0.58532360  0.25330250  1
  Te2-  Te191  1  0.08234015  0.58888588  0.58326105  1
  Te2-  Te192  1  0.07660951  0.58247059  0.92092170  1
  Te2-  Te193  1  0.08631665  0.91505621  0.25764683  1
  Te2-  Te194  1  0.08040419  0.92189604  0.58855727  1
  Te2-  Te195  1  0.07886937  0.92174875  0.92298915  1
  Te2-  Te196  1  0.40987762  0.25562907  0.25643026  1
  Te2-  Te197  1  0.41507517  0.25418898  0.58666778  1
  Te2-  Te198  1  0.41069384  0.25221912  0.91556003  1
  Te2-  Te199  1  0.41570196  0.58431988  0.25027832  1
  Te2-  Te200  1  0.41539661  0.58544555  0.59211867  1
  Te2-  Te201  1  0.41550404  0.58719918  0.92540463  1
  Te2-  Te202  1  0.41458556  0.92077889  0.24973504  1
  Te2-  Te203  1  0.40917352  0.92336235  0.58779965  1
  Te2-  Te204  1  0.41854640  0.92125035  0.92068344  1
  Te2-  Te205  1  0.74460824  0.25178554  0.25740018  1
  Te2-  Te206  1  0.74793597  0.25075943  0.58890083  1
  Te2-  Te207  1  0.75091225  0.25328305  0.91856276  1
  Te2-  Te208  1  0.74226231  0.59053569  0.24909148  1
  Te2-  Te209  1  0.74998999  0.58296189  0.58810024  1
  Te2-  Te210  1  0.74596559  0.58557154  0.91350937  1
  Te2-  Te211  1  0.74878658  0.91969767  0.25210453  1
  Te2-  Te212  1  0.74699143  0.91757249  0.58428186  1
  Te2-  Te213  1  0.74758783  0.92210127  0.91683477  1
  Te2-  Te214  1  0.07852084  0.07752013  0.07812871  1
  Te2-  Te215  1  0.08254031  0.07924485  0.41225629  1
  Te2-  Te216  1  0.08072326  0.08393827  0.74216986  1
  Te2-  Te217  1  0.07533350  0.41375795  0.08237199  1
  Te2-  Te218  1  0.08474270  0.41849107  0.41148620  1
  Te2-  Te219  1  0.08371505  0.41492662  0.74504471  1
  Te2-  Te220  1  0.08014695  0.73958790  0.08514043  1
  Te2-  Te221  1  0.08005630  0.74778678  0.42211851  1
  Te2-  Te222  1  0.08230126  0.74506686  0.75091189  1
  Te2-  Te223  1  0.41586834  0.08399945  0.08129304  1
  Te2-  Te224  1  0.41670150  0.08230453  0.41345316  1
  Te2-  Te225  1  0.41212966  0.08056375  0.74519142  1
  Te2-  Te226  1  0.40425781  0.40783291  0.07381497  1
  Te2-  Te227  1  0.40811690  0.41501927  0.41835787  1
  Te2-  Te228  1  0.41386009  0.41712161  0.74826471  1
  Te2-  Te229  1  0.41561317  0.74508794  0.08215539  1
  Te2-  Te230  1  0.41768160  0.74751241  0.41008842  1
  Te2-  Te231  1  0.41388870  0.74415247  0.75042848  1
  Te2-  Te232  1  0.74155455  0.08440254  0.07920826  1
  Te2-  Te233  1  0.74981767  0.08048727  0.41574332  1
  Te2-  Te234  1  0.74930673  0.08178208  0.74887497  1
  Te2-  Te235  1  0.74876319  0.41278673  0.07596639  1
  Te2-  Te236  1  0.74608746  0.40950287  0.41444989  1
  Te2-  Te237  1  0.74346484  0.40828283  0.74516274  1
  Te2-  Te238  1  0.74950672  0.74889234  0.08006540  1
  Te2-  Te239  1  0.74274193  0.74817232  0.41070910  1
  Te2-  Te240  1  0.75189165  0.75090671  0.74619125  1
