# generated using pymatgen
data_Ti27(Cu53Te54)2
_symmetry_space_group_name_H-M   'P 1'
_cell_length_a   17.88031816
_cell_length_b   17.88250162
_cell_length_c   17.88241914
_cell_angle_alpha   90.00785352
_cell_angle_beta   89.99368337
_cell_angle_gamma   89.96295872
_symmetry_Int_Tables_number   1
_chemical_formula_structural   Ti27(Cu53Te54)2
_chemical_formula_sum   'Ti27 Cu106 Te108'
_cell_volume   5717.80957704
_cell_formula_units_Z   1
loop_
 _symmetry_equiv_pos_site_id
 _symmetry_equiv_pos_as_xyz
  1  'x, y, z'
loop_
 _atom_type_symbol
 _atom_type_oxidation_number
  Ti4+  4.0
  Cu+  1.0
  Te2-  -2.0
loop_
 _atom_site_type_symbol
 _atom_site_label
 _atom_site_symmetry_multiplicity
 _atom_site_fract_x
 _atom_site_fract_y
 _atom_site_fract_z
 _atom_site_occupancy
  Ti4+  Ti0  1  0.16567178  0.16919333  0.16538920  1
  Ti4+  Ti1  1  0.16507845  0.16887919  0.50174549  1
  Ti4+  Ti2  1  0.16747438  0.16480092  0.83853468  1
  Ti4+  Ti3  1  0.16796312  0.49619258  0.16513988  1
  Ti4+  Ti4  1  0.16419371  0.50119488  0.50133597  1
  Ti4+  Ti5  1  0.16453653  0.50247220  0.83739811  1
  Ti4+  Ti6  1  0.16860089  0.83207866  0.16765130  1
  Ti4+  Ti7  1  0.16722268  0.83312423  0.49816944  1
  Ti4+  Ti8  1  0.16858658  0.83728698  0.82953533  1
  Ti4+  Ti9  1  0.49932829  0.16735588  0.16913454  1
  Ti4+  Ti10  1  0.49846144  0.16653382  0.49923599  1
  Ti4+  Ti11  1  0.49855762  0.16622990  0.83441111  1
  Ti4+  Ti12  1  0.50367030  0.49897987  0.16978250  1
  Ti4+  Ti13  1  0.49872622  0.50085468  0.50175399  1
  Ti4+  Ti14  1  0.50047096  0.50062494  0.83457265  1
  Ti4+  Ti15  1  0.49661409  0.83274666  0.16427915  1
  Ti4+  Ti16  1  0.49680309  0.83492764  0.49627036  1
  Ti4+  Ti17  1  0.50406525  0.83604403  0.83217869  1
  Ti4+  Ti18  1  0.83195087  0.16529268  0.16709353  1
  Ti4+  Ti19  1  0.83378929  0.16450815  0.49864197  1
  Ti4+  Ti20  1  0.83172977  0.16368902  0.83255471  1
  Ti4+  Ti21  1  0.83433105  0.50068817  0.16504398  1
  Ti4+  Ti22  1  0.83201411  0.49972961  0.49851467  1
  Ti4+  Ti23  1  0.83293935  0.49444541  0.83164134  1
  Ti4+  Ti24  1  0.83564360  0.83529198  0.16528823  1
  Ti4+  Ti25  1  0.83355884  0.83285478  0.49928380  1
  Ti4+  Ti26  1  0.83286561  0.83393112  0.83470450  1
  Cu+  Cu27  1  0.17267650  0.16755416  0.00241991  1
  Cu+  Cu28  1  0.16432684  0.17029291  0.33424935  1
  Cu+  Cu29  1  0.16281222  0.16651138  0.67022606  1
  Cu+  Cu30  1  0.15833226  0.49749298  0.00226194  1
  Cu+  Cu31  1  0.16544408  0.49800842  0.33300898  1
  Cu+  Cu32  1  0.16660656  0.50590567  0.67027346  1
  Cu+  Cu33  1  0.16877669  0.83634102  -0.00177707  1
  Cu+  Cu34  1  0.16967651  0.82805442  0.33431073  1
  Cu+  Cu35  1  0.16747086  0.83363910  0.65694181  1
  Cu+  Cu36  1  0.49769082  0.16881089  0.00221704  1
  Cu+  Cu37  1  0.50382389  0.16243084  0.33713335  1
  Cu+  Cu38  1  0.50124927  0.16656905  0.66427942  1
  Cu+  Cu39  1  0.50513229  0.50438688  0.00290000  1
  Cu+  Cu40  1  0.49990257  0.49629423  0.33697823  1
  Cu+  Cu41  1  0.49943605  0.49917822  0.66910261  1
  Cu+  Cu42  1  0.50090205  0.82746748  -0.00385495  1
  Cu+  Cu43  1  0.49270290  0.83678001  0.33050187  1
  Cu+  Cu44  1  0.49985328  0.83723271  0.66635226  1
  Cu+  Cu45  1  0.82821274  0.16291025  0.00086865  1
  Cu+  Cu46  1  0.83406000  0.16613955  0.33402492  1
  Cu+  Cu47  1  0.83356986  0.16519219  0.66350918  1
  Cu+  Cu48  1  0.83657927  0.49872448  -0.00278225  1
  Cu+  Cu49  1  0.83174466  0.49905510  0.33157752  1
  Cu+  Cu50  1  0.83095091  0.49657849  0.66485919  1
  Cu+  Cu51  1  0.83850242  0.83717564  -0.00036809  1
  Cu+  Cu52  1  0.83520410  0.83514214  0.33215375  1
  Cu+  Cu53  1  0.83195456  0.83367876  0.66825432  1
  Cu+  Cu54  1  0.16569684  0.00201447  0.16317097  1
  Cu+  Cu55  1  0.16607372  0.00231207  0.49984419  1
  Cu+  Cu56  1  0.17727500  0.00092705  0.83258942  1
  Cu+  Cu57  1  0.17045419  0.32923610  0.17055790  1
  Cu+  Cu58  1  0.16292847  0.33664382  0.50276056  1
  Cu+  Cu59  1  0.16355781  0.33499324  0.84230616  1
  Cu+  Cu60  1  0.16827516  0.66182430  0.16291995  1
  Cu+  Cu61  1  0.16882858  0.66423660  0.50551899  1
  Cu+  Cu62  1  0.16015908  0.67544975  0.83283043  1
  Cu+  Cu63  1  0.50017806  -0.00101123  0.16554068  1
  Cu+  Cu64  1  0.49857009  0.00281997  0.49032640  1
  Cu+  Cu65  1  0.50023259  -0.00055220  0.83055894  1
  Cu+  Cu66  1  0.50014357  0.33440437  0.17244681  1
  Cu+  Cu67  1  0.49995292  0.33269637  0.50191095  1
  Cu+  Cu68  1  0.50017109  0.33475207  0.83313564  1
  Cu+  Cu69  1  0.49788771  0.66421080  0.16460760  1
  Cu+  Cu70  1  0.49793615  0.66561321  0.50064843  1
  Cu+  Cu71  1  0.50510132  0.66840437  0.83553328  1
  Cu+  Cu72  1  0.83583305  -0.00183475  0.16844981  1
  Cu+  Cu73  1  0.83469762  -0.00046688  0.50089964  1
  Cu+  Cu74  1  0.82700516  0.00120552  0.83780827  1
  Cu+  Cu75  1  0.83068831  0.33322938  0.16674332  1
  Cu+  Cu76  1  0.83178369  0.33095196  0.49857184  1
  Cu+  Cu77  1  0.83160591  0.32774718  0.82929131  1
  Cu+  Cu78  1  0.83527323  0.67089789  0.16360350  1
  Cu+  Cu79  1  0.83127348  0.66546383  0.49847344  1
  Cu+  Cu80  1  0.83613071  0.66154789  0.83218710  1
  Cu+  Cu81  1  -0.00052459  0.16710208  0.16364477  1
  Cu+  Cu82  1  0.00006380  0.16780238  0.50106607  1
  Cu+  Cu83  1  -0.00002620  0.16489599  0.83300443  1
  Cu+  Cu84  1  0.00046990  0.49794159  0.16261627  1
  Cu+  Cu85  1  -0.00405710  0.50015993  0.49788697  1
  Cu+  Cu86  1  -0.00246757  0.49682702  0.83977913  1
  Cu+  Cu87  1  -0.00100571  0.83826941  0.16964236  1
  Cu+  Cu88  1  0.00126706  0.82914476  0.50034205  1
  Cu+  Cu89  1  -0.00135285  0.83629534  0.83387221  1
  Cu+  Cu90  1  0.33113331  0.16978171  0.16794195  1
  Cu+  Cu91  1  0.33370729  0.17025507  0.50119467  1
  Cu+  Cu92  1  0.33139511  0.16706773  0.83647928  1
  Cu+  Cu93  1  0.33784701  0.49601917  0.16723307  1
  Cu+  Cu94  1  0.33073948  0.50307422  0.50428577  1
  Cu+  Cu95  1  0.33311571  0.50367493  0.83360286  1
  Cu+  Cu96  1  0.33666618  0.82562734  0.17004221  1
  Cu+  Cu97  1  0.33060332  0.83795493  0.49049142  1
  Cu+  Cu98  1  0.33958877  0.83953604  0.83173426  1
  Cu+  Cu99  1  0.66445499  0.16743559  0.16709706  1
  Cu+  Cu100  1  0.66643474  0.16266702  0.49656341  1
  Cu+  Cu101  1  0.66477670  0.16134103  0.83561752  1
  Cu+  Cu102  1  0.67161099  0.49737818  0.17140008  1
  Cu+  Cu103  1  0.66439324  0.50058728  0.49904836  1
  Cu+  Cu104  1  0.66683649  0.49656556  0.83160896  1
  Cu+  Cu105  1  0.66609889  0.83322974  0.16330453  1
  Cu+  Cu106  1  0.66587591  0.83266953  0.49952821  1
  Cu+  Cu107  1  0.67097119  0.83720537  0.82609987  1
  Cu+  Cu108  1  0.06931540  0.73559914  0.58740456  1
  Cu+  Cu109  1  0.26081756  0.93089876  0.58145796  1
  Cu+  Cu110  1  0.25532360  0.73265595  0.40904759  1
  Cu+  Cu111  1  0.40244043  0.93395158  0.39848191  1
  Cu+  Cu112  1  0.41596778  0.73452666  0.26177273  1
  Cu+  Cu113  1  0.26338521  0.59113961  0.60082856  1
  Cu+  Cu114  1  0.41242217  0.92836375  0.73750191  1
  Cu+  Cu115  1  0.26027217  0.25386447  0.26689188  1
  Cu+  Cu116  1  0.40825588  0.73999983  0.91673872  1
  Cu+  Cu117  1  0.40745235  0.58655266  0.07458921  1
  Cu+  Cu118  1  0.07299503  0.75406866  0.92833557  1
  Cu+  Cu119  1  0.07163462  0.59425237  0.08116111  1
  Cu+  Cu120  1  0.92570759  0.92975308  0.26548063  1
  Cu+  Cu121  1  0.74669745  0.93070886  0.73561008  1
  Cu+  Cu122  1  0.74520785  0.40290174  0.26269846  1
  Cu+  Cu123  1  0.73339941  0.07365205  0.93317793  1
  Cu+  Cu124  1  0.06678800  0.40119355  0.93061995  1
  Cu+  Cu125  1  0.26059585  0.08591745  0.73741828  1
  Cu+  Cu126  1  0.26591555  0.92148537  0.92883710  1
  Cu+  Cu127  1  0.92687783  0.93202255  0.92371450  1
  Cu+  Cu128  1  0.26299653  0.26637620  0.92515158  1
  Cu+  Cu129  1  0.26328311  0.07264652  0.08222733  1
  Cu+  Cu130  1  0.40933814  0.40564665  0.26553080  1
  Cu+  Cu131  1  0.92097375  0.59166544  0.92438189  1
  Cu+  Cu132  1  0.59952334  0.07043791  0.40485644  1
  Te2-  Te133  1  0.25646706  0.25788483  0.07920446  1
  Te2-  Te134  1  0.25122820  0.25689966  0.41796957  1
  Te2-  Te135  1  0.24822249  0.25465291  0.75204611  1
  Te2-  Te136  1  0.25440735  0.58120279  0.07817148  1
  Te2-  Te137  1  0.25183721  0.58319033  0.41171185  1
  Te2-  Te138  1  0.25034396  0.59220564  0.75353508  1
  Te2-  Te139  1  0.25750784  0.91698178  0.08297741  1
  Te2-  Te140  1  0.24863224  0.92560219  0.40775668  1
  Te2-  Te141  1  0.25700757  0.92125761  0.73855344  1
  Te2-  Te142  1  0.58281896  0.25311215  0.08406813  1
  Te2-  Te143  1  0.58548109  0.25339937  0.41554476  1
  Te2-  Te144  1  0.58488836  0.24926437  0.75024258  1
  Te2-  Te145  1  0.59173041  0.58543118  0.08682739  1
  Te2-  Te146  1  0.58321107  0.58599821  0.41471709  1
  Te2-  Te147  1  0.58609703  0.58490800  0.74868493  1
  Te2-  Te148  1  0.58237185  0.91668485  0.07892339  1
  Te2-  Te149  1  0.58689173  0.91623653  0.40945699  1
  Te2-  Te150  1  0.58862298  0.92342785  0.74302533  1
  Te2-  Te151  1  0.91404820  0.25048227  0.08036111  1
  Te2-  Te152  1  0.91911417  0.25151860  0.41432857  1
  Te2-  Te153  1  0.91872878  0.24765114  0.74669547  1
  Te2-  Te154  1  0.92071031  0.58918929  0.07804989  1
  Te2-  Te155  1  0.91653645  0.58558844  0.41199661  1
  Te2-  Te156  1  0.91993595  0.57941678  0.74611426  1
  Te2-  Te157  1  0.92398814  0.92354246  0.07901770  1
  Te2-  Te158  1  0.92271855  0.91885799  0.41654590  1
  Te2-  Te159  1  0.91687815  0.92235346  0.74924342  1
  Te2-  Te160  1  0.24964134  0.08241163  0.25308297  1
  Te2-  Te161  1  0.25463107  0.08314859  0.58668541  1
  Te2-  Te162  1  0.25901981  0.07659824  0.92617604  1
  Te2-  Te163  1  0.25472224  0.41255499  0.25576649  1
  Te2-  Te164  1  0.24897076  0.41633695  0.58896259  1
  Te2-  Te165  1  0.25448621  0.41952304  0.92256903  1
  Te2-  Te166  1  0.25291364  0.74003737  0.25151975  1
  Te2-  Te167  1  0.26000486  0.74764146  0.58491763  1
  Te2-  Te168  1  0.25481532  0.75015289  0.91583956  1
  Te2-  Te169  1  0.58656955  0.07802675  0.25120918  1
  Te2-  Te170  1  0.58378440  0.07830188  0.58314035  1
  Te2-  Te171  1  0.58094688  0.07872611  0.92258404  1
  Te2-  Te172  1  0.58927740  0.41234126  0.25728081  1
  Te2-  Te173  1  0.58440972  0.41559363  0.58590934  1
  Te2-  Te174  1  0.58528043  0.41513665  0.92013612  1
  Te2-  Te175  1  0.58231781  0.74926935  0.25090537  1
  Te2-  Te176  1  0.58106639  0.75086158  0.58333496  1
  Te2-  Te177  1  0.59361385  0.75114070  0.91514156  1
  Te2-  Te178  1  0.92154483  0.08214371  0.25293901  1
  Te2-  Te179  1  0.92046197  0.08020385  0.58503887  1
  Te2-  Te180  1  0.92020359  0.08162782  0.92103601  1
  Te2-  Te181  1  0.91978248  0.41454125  0.25025407  1
  Te2-  Te182  1  0.91702361  0.41295902  0.58331214  1
  Te2-  Te183  1  0.91608575  0.40449226  0.92021803  1
  Te2-  Te184  1  0.92050017  0.74798720  0.25171589  1
  Te2-  Te185  1  0.91614575  0.74570968  0.58731252  1
  Te2-  Te186  1  0.92080009  0.74536573  0.92070850  1
  Te2-  Te187  1  0.07741532  0.25267692  0.25152040  1
  Te2-  Te188  1  0.08040533  0.25276563  0.58814871  1
  Te2-  Te189  1  0.07745105  0.24773419  0.92386735  1
  Te2-  Te190  1  0.08162560  0.58247558  0.24983769  1
  Te2-  Te191  1  0.07489289  0.58474683  0.58767587  1
  Te2-  Te192  1  0.07711956  0.59363844  0.92336440  1
  Te2-  Te193  1  0.08607690  0.91952890  0.25397047  1
  Te2-  Te194  1  0.07922343  0.92106344  0.58215287  1
  Te2-  Te195  1  0.08271947  0.92378569  0.91728345  1
  Te2-  Te196  1  0.41414179  0.25181446  0.25935837  1
  Te2-  Te197  1  0.41469953  0.25288838  0.58706050  1
  Te2-  Te198  1  0.41477759  0.25480604  0.91992171  1
  Te2-  Te199  1  0.41375626  0.58362428  0.25661562  1
  Te2-  Te200  1  0.41465085  0.58761914  0.59042890  1
  Te2-  Te201  1  0.41380338  0.58836084  0.92116509  1
  Te2-  Te202  1  0.40924367  0.92370815  0.24784138  1
  Te2-  Te203  1  0.41322872  0.92407490  0.58309158  1
  Te2-  Te204  1  0.41852624  0.92306841  0.92355078  1
  Te2-  Te205  1  0.74589997  0.25026776  0.25437619  1
  Te2-  Te206  1  0.74613650  0.24874504  0.58293226  1
  Te2-  Te207  1  0.74595004  0.25003478  0.91773317  1
  Te2-  Te208  1  0.75151303  0.58976150  0.25013168  1
  Te2-  Te209  1  0.74671552  0.58444276  0.58478389  1
  Te2-  Te210  1  0.74788163  0.58229982  0.91702745  1
  Te2-  Te211  1  0.74620375  0.91751133  0.25082767  1
  Te2-  Te212  1  0.74637046  0.91935749  0.58392479  1
  Te2-  Te213  1  0.74342008  0.91753376  0.92349882  1
  Te2-  Te214  1  0.08042664  0.08305203  0.07825975  1
  Te2-  Te215  1  0.08166245  0.08363094  0.41516680  1
  Te2-  Te216  1  0.08243689  0.07790693  0.75213303  1
  Te2-  Te217  1  0.07983766  0.40544630  0.08385935  1
  Te2-  Te218  1  0.07956864  0.41568323  0.41500739  1
  Te2-  Te219  1  0.08279716  0.41669925  0.75118798  1
  Te2-  Te220  1  0.07998220  0.74989608  0.08125960  1
  Te2-  Te221  1  0.08216710  0.74306062  0.41440399  1
  Te2-  Te222  1  0.07886016  0.75411991  0.74248878  1
  Te2-  Te223  1  0.41429970  0.08147104  0.08250770  1
  Te2-  Te224  1  0.40649720  0.08437543  0.41076246  1
  Te2-  Te225  1  0.41279585  0.08173470  0.74453191  1
  Te2-  Te226  1  0.42014101  0.41371730  0.07992253  1
  Te2-  Te227  1  0.41041059  0.41324128  0.41922249  1
  Te2-  Te228  1  0.41295290  0.41593793  0.75006563  1
  Te2-  Te229  1  0.41108651  0.74332818  0.07502797  1
  Te2-  Te230  1  0.41105708  0.74278163  0.41263320  1
  Te2-  Te231  1  0.41754981  0.74795482  0.74799398  1
  Te2-  Te232  1  0.74417502  0.07694140  0.08508609  1
  Te2-  Te233  1  0.74998456  0.07618904  0.41095084  1
  Te2-  Te234  1  0.74504059  0.08119628  0.74301414  1
  Te2-  Te235  1  0.74882023  0.41583390  0.07840559  1
  Te2-  Te236  1  0.74500241  0.41258033  0.41439076  1
  Te2-  Te237  1  0.74667977  0.41055868  0.74621297  1
  Te2-  Te238  1  0.75039670  0.75088229  0.07819278  1
  Te2-  Te239  1  0.74850967  0.74992025  0.41319655  1
  Te2-  Te240  1  0.75124200  0.74371295  0.74913829  1
