# generated using pymatgen
data_Ti27(Cu53Te54)2
_symmetry_space_group_name_H-M   'P 1'
_cell_length_a   17.93857759
_cell_length_b   17.94990664
_cell_length_c   17.94160445
_cell_angle_alpha   90.07408174
_cell_angle_beta   89.97295146
_cell_angle_gamma   90.05311812
_symmetry_Int_Tables_number   1
_chemical_formula_structural   Ti27(Cu53Te54)2
_chemical_formula_sum   'Ti27 Cu106 Te108'
_cell_volume   5777.11319946
_cell_formula_units_Z   1
loop_
 _symmetry_equiv_pos_site_id
 _symmetry_equiv_pos_as_xyz
  1  'x, y, z'
loop_
 _atom_type_symbol
 _atom_type_oxidation_number
  Ti4+  4.0
  Cu+  1.0
  Te2-  -2.0
loop_
 _atom_site_type_symbol
 _atom_site_label
 _atom_site_symmetry_multiplicity
 _atom_site_fract_x
 _atom_site_fract_y
 _atom_site_fract_z
 _atom_site_occupancy
  Ti4+  Ti0  1  0.16655098  0.16614794  0.16625832  1
  Ti4+  Ti1  1  0.16808799  0.16201392  0.50086829  1
  Ti4+  Ti2  1  0.16566560  0.16865898  0.83471710  1
  Ti4+  Ti3  1  0.16287103  0.50314972  0.17025969  1
  Ti4+  Ti4  1  0.17023715  0.49860928  0.50002472  1
  Ti4+  Ti5  1  0.16523498  0.50236404  0.83309054  1
  Ti4+  Ti6  1  0.16755931  0.83234118  0.16138549  1
  Ti4+  Ti7  1  0.16951783  0.83423758  0.49890900  1
  Ti4+  Ti8  1  0.16610530  0.83610445  0.83116784  1
  Ti4+  Ti9  1  0.49885010  0.16748760  0.16650928  1
  Ti4+  Ti10  1  0.50042771  0.16818558  0.49737662  1
  Ti4+  Ti11  1  0.49973771  0.16679950  0.82907619  1
  Ti4+  Ti12  1  0.49905392  0.50071174  0.16882014  1
  Ti4+  Ti13  1  0.49780419  0.50216013  0.50545910  1
  Ti4+  Ti14  1  0.49999736  0.49988064  0.83366041  1
  Ti4+  Ti15  1  0.50020396  0.83311568  0.16628843  1
  Ti4+  Ti16  1  0.50206872  0.83319815  0.49892625  1
  Ti4+  Ti17  1  0.50025155  0.83438052  0.83427620  1
  Ti4+  Ti18  1  0.83304246  0.15891380  0.16693125  1
  Ti4+  Ti19  1  0.83713845  0.16868850  0.49657124  1
  Ti4+  Ti20  1  0.83070751  0.17185098  0.83370199  1
  Ti4+  Ti21  1  0.83311453  0.49668117  0.16796065  1
  Ti4+  Ti22  1  0.83478620  0.49974341  0.50139879  1
  Ti4+  Ti23  1  0.83532814  0.49486311  0.83362143  1
  Ti4+  Ti24  1  0.83323167  0.83030845  0.16539129  1
  Ti4+  Ti25  1  0.83573552  0.83422063  0.50033290  1
  Ti4+  Ti26  1  0.83028343  0.83222336  0.83101776  1
  Cu+  Cu27  1  0.16787220  0.16993087  0.00234631  1
  Cu+  Cu28  1  0.16592940  0.16317506  0.33250733  1
  Cu+  Cu29  1  0.16935883  0.16188506  0.67054362  1
  Cu+  Cu30  1  0.16260298  0.50206302  0.00215623  1
  Cu+  Cu31  1  0.16252358  0.50513506  0.33683742  1
  Cu+  Cu32  1  0.17341470  0.50280882  0.66265633  1
  Cu+  Cu33  1  0.16350084  0.83295218  -0.00512599  1
  Cu+  Cu34  1  0.16998589  0.83343717  0.32979303  1
  Cu+  Cu35  1  0.16846829  0.83568072  0.66587958  1
  Cu+  Cu36  1  0.49970569  0.16560492  -0.00180623  1
  Cu+  Cu37  1  0.49931941  0.17061188  0.33120189  1
  Cu+  Cu38  1  0.50010536  0.16358012  0.66178771  1
  Cu+  Cu39  1  0.49989972  0.49980471  0.00265430  1
  Cu+  Cu40  1  0.50038602  0.50209217  0.33574158  1
  Cu+  Cu41  1  0.48960135  0.50193087  0.67220195  1
  Cu+  Cu42  1  0.49971512  0.83435825  -0.00054563  1
  Cu+  Cu43  1  0.49970739  0.83539542  0.33267231  1
  Cu+  Cu44  1  0.50442112  0.83173336  0.66723884  1
  Cu+  Cu45  1  0.82680443  0.16784533  0.00423319  1
  Cu+  Cu46  1  0.84401773  0.16179267  0.33076970  1
  Cu+  Cu47  1  0.83219822  0.17290287  0.66455241  1
  Cu+  Cu48  1  0.83291527  0.49142087  0.00018334  1
  Cu+  Cu49  1  0.83602815  0.49900785  0.33510214  1
  Cu+  Cu50  1  0.83681555  0.49809826  0.66999094  1
  Cu+  Cu51  1  0.82997833  0.83285128  -0.00103159  1
  Cu+  Cu52  1  0.83553243  0.83220827  0.33451224  1
  Cu+  Cu53  1  0.83085364  0.83241340  0.66344906  1
  Cu+  Cu54  1  0.16955995  -0.00101716  0.16183732  1
  Cu+  Cu55  1  0.16981376  -0.00262676  0.50230653  1
  Cu+  Cu56  1  0.16839717  0.00334068  0.83110787  1
  Cu+  Cu57  1  0.16480355  0.33715391  0.16856473  1
  Cu+  Cu58  1  0.16725670  0.32691703  0.49998889  1
  Cu+  Cu59  1  0.16429525  0.33575339  0.83604997  1
  Cu+  Cu60  1  0.16207957  0.67024578  0.16866288  1
  Cu+  Cu61  1  0.17236043  0.66795190  0.50020645  1
  Cu+  Cu62  1  0.16121732  0.67208722  0.83398019  1
  Cu+  Cu63  1  0.49877872  0.00239645  0.16735652  1
  Cu+  Cu64  1  0.50073094  -0.00115210  0.49535643  1
  Cu+  Cu65  1  0.49929078  -0.00013586  0.83235142  1
  Cu+  Cu66  1  0.49819097  0.33598007  0.16698349  1
  Cu+  Cu67  1  0.50072558  0.33667733  0.50300669  1
  Cu+  Cu68  1  0.50362517  0.32986588  0.83440386  1
  Cu+  Cu69  1  0.50125636  0.66732149  0.16717302  1
  Cu+  Cu70  1  0.49771441  0.66515230  0.49942121  1
  Cu+  Cu71  1  0.50083473  0.66840834  0.83142875  1
  Cu+  Cu72  1  0.82909419  -0.00855168  0.16236099  1
  Cu+  Cu73  1  0.83869443  0.00242848  0.49692173  1
  Cu+  Cu74  1  0.83043735  0.00332390  0.83364615  1
  Cu+  Cu75  1  0.83208088  0.32636185  0.16799758  1
  Cu+  Cu76  1  0.83794712  0.33663705  0.49562075  1
  Cu+  Cu77  1  0.82989321  0.33452163  0.82980357  1
  Cu+  Cu78  1  0.83421667  0.66409471  0.16600238  1
  Cu+  Cu79  1  0.83231496  0.66976179  0.50598292  1
  Cu+  Cu80  1  0.83274967  0.66023897  0.83066272  1
  Cu+  Cu81  1  0.00090222  0.15925919  0.16941519  1
  Cu+  Cu82  1  0.00341014  0.16509916  0.49391405  1
  Cu+  Cu83  1  -0.00174196  0.17013454  0.83832621  1
  Cu+  Cu84  1  -0.00566305  0.50561533  0.17217298  1
  Cu+  Cu85  1  0.00165741  0.49804081  0.49777223  1
  Cu+  Cu86  1  0.00364285  0.49139280  0.83560070  1
  Cu+  Cu87  1  0.00144709  0.83042909  0.16431847  1
  Cu+  Cu88  1  0.00174509  0.83377388  0.50059157  1
  Cu+  Cu89  1  -0.00296201  0.83466079  0.83187983  1
  Cu+  Cu90  1  0.33238698  0.16854358  0.16633236  1
  Cu+  Cu91  1  0.33330707  0.16331825  0.50097138  1
  Cu+  Cu92  1  0.33198955  0.16434079  0.82860318  1
  Cu+  Cu93  1  0.33053561  0.50126340  0.16932600  1
  Cu+  Cu94  1  0.33567218  0.50279378  0.50973400  1
  Cu+  Cu95  1  0.33178535  0.50340394  0.83199598  1
  Cu+  Cu96  1  0.33303495  0.83339892  0.16161840  1
  Cu+  Cu97  1  0.33829434  0.83682457  0.49672488  1
  Cu+  Cu98  1  0.33379569  0.83818434  0.83495734  1
  Cu+  Cu99  1  0.66516523  0.16213333  0.16547993  1
  Cu+  Cu100  1  0.66783305  0.16941843  0.49698918  1
  Cu+  Cu101  1  0.66424447  0.17561002  0.83162407  1
  Cu+  Cu102  1  0.66537327  0.49875810  0.16837877  1
  Cu+  Cu103  1  0.66305838  0.49678181  0.50384118  1
  Cu+  Cu104  1  0.66911137  0.49792875  0.83357393  1
  Cu+  Cu105  1  0.66682161  0.83325442  0.16432896  1
  Cu+  Cu106  1  0.67068602  0.83292479  0.50230565  1
  Cu+  Cu107  1  0.66300805  0.82904043  0.83128318  1
  Cu+  Cu108  1  0.58753291  0.40863361  0.40732424  1
  Cu+  Cu109  1  0.73629273  0.25663729  0.08577527  1
  Cu+  Cu110  1  0.93081439  0.06773831  0.40566785  1
  Cu+  Cu111  1  0.40866559  0.40084534  0.59962432  1
  Cu+  Cu112  1  0.92969053  0.41239123  0.40553968  1
  Cu+  Cu113  1  0.93311981  0.40566525  0.73980859  1
  Cu+  Cu114  1  0.06686463  0.74539632  0.92252339  1
  Cu+  Cu115  1  0.74411684  0.58702327  0.74169279  1
  Cu+  Cu116  1  0.73485530  0.91857024  0.06816793  1
  Cu+  Cu117  1  0.73571639  0.25676286  0.73177254  1
  Cu+  Cu118  1  0.41021426  0.93071174  0.40269384  1
  Cu+  Cu119  1  0.92911425  0.25470803  0.24847464  1
  Cu+  Cu120  1  0.07352501  0.59782520  0.42136457  1
  Cu+  Cu121  1  0.25867125  0.59934803  0.59381394  1
  Cu+  Cu122  1  0.08434404  0.25630653  0.40474926  1
  Cu+  Cu123  1  0.58531890  0.25657253  0.92909695  1
  Cu+  Cu124  1  0.58831709  0.73992197  0.73990981  1
  Cu+  Cu125  1  0.40245867  0.59970703  0.75231178  1
  Cu+  Cu126  1  0.40903448  0.59114276  0.40463099  1
  Cu+  Cu127  1  0.91475144  0.59622645  0.26272899  1
  Cu+  Cu128  1  0.26210822  0.07262194  0.74135998  1
  Cu+  Cu129  1  0.08055033  0.40429327  0.93342151  1
  Cu+  Cu130  1  0.07360682  0.75202979  0.26157570  1
  Cu+  Cu131  1  0.73775511  0.41201584  0.92867268  1
  Cu+  Cu132  1  0.73977745  0.74232048  0.58966908  1
  Te2-  Te133  1  0.25040243  0.25551607  0.08447937  1
  Te2-  Te134  1  0.25343790  0.24719119  0.41392235  1
  Te2-  Te135  1  0.24978165  0.25554817  0.74954064  1
  Te2-  Te136  1  0.24742617  0.58605125  0.08467142  1
  Te2-  Te137  1  0.25696368  0.58526926  0.41431923  1
  Te2-  Te138  1  0.25041740  0.59316125  0.74811857  1
  Te2-  Te139  1  0.25193111  0.91712993  0.07518863  1
  Te2-  Te140  1  0.25348146  0.92013675  0.41151347  1
  Te2-  Te141  1  0.25492685  0.92055326  0.74572008  1
  Te2-  Te142  1  0.58527280  0.25575892  0.08083302  1
  Te2-  Te143  1  0.58552405  0.25561085  0.41316817  1
  Te2-  Te144  1  0.58293585  0.25426210  0.73889804  1
  Te2-  Te145  1  0.58552287  0.58420191  0.08323738  1
  Te2-  Te146  1  0.58706326  0.58542398  0.41866113  1
  Te2-  Te147  1  0.58847850  0.58392021  0.74573109  1
  Te2-  Te148  1  0.58370361  0.92106175  0.08006219  1
  Te2-  Te149  1  0.58992770  0.91598732  0.41487471  1
  Te2-  Te150  1  0.58629997  0.92025627  0.74822610  1
  Te2-  Te151  1  0.92068234  0.24645612  0.08331724  1
  Te2-  Te152  1  0.92594249  0.25757841  0.40842027  1
  Te2-  Te153  1  0.92171523  0.25348180  0.74778922  1
  Te2-  Te154  1  0.91459672  0.58118272  0.07812816  1
  Te2-  Te155  1  0.91893046  0.59183533  0.41727113  1
  Te2-  Te156  1  0.92446423  0.58125023  0.75069440  1
  Te2-  Te157  1  0.92019730  0.91448309  0.07965627  1
  Te2-  Te158  1  0.92355254  0.91683515  0.41218751  1
  Te2-  Te159  1  0.91304868  0.91868610  0.74818441  1
  Te2-  Te160  1  0.25182414  0.08068355  0.24990508  1
  Te2-  Te161  1  0.25541493  0.07734066  0.58691580  1
  Te2-  Te162  1  0.25136514  0.08392816  0.92017388  1
  Te2-  Te163  1  0.24772756  0.41875449  0.25516788  1
  Te2-  Te164  1  0.25277973  0.40798147  0.58582199  1
  Te2-  Te165  1  0.25119080  0.41971086  0.91914951  1
  Te2-  Te166  1  0.25439350  0.74855388  0.24823860  1
  Te2-  Te167  1  0.25655945  0.75234014  0.58551104  1
  Te2-  Te168  1  0.25271314  0.75002656  0.91556062  1
  Te2-  Te169  1  0.58343254  0.08260301  0.25285940  1
  Te2-  Te170  1  0.58650158  0.08146576  0.57920272  1
  Te2-  Te171  1  0.58650541  0.08299729  0.91410804  1
  Te2-  Te172  1  0.58515747  0.41376678  0.25419898  1
  Te2-  Te173  1  0.58180729  0.41759090  0.59421600  1
  Te2-  Te174  1  0.58533386  0.41401943  0.92225564  1
  Te2-  Te175  1  0.58588296  0.74985591  0.25160670  1
  Te2-  Te176  1  0.58723795  0.74269956  0.58518664  1
  Te2-  Te177  1  0.58382674  0.74682972  0.92052734  1
  Te2-  Te178  1  0.92019511  0.06829268  0.24879692  1
  Te2-  Te179  1  0.91938143  0.08665899  0.58573289  1
  Te2-  Te180  1  0.91269096  0.08609921  0.91960664  1
  Te2-  Te181  1  0.92081833  0.40890676  0.25324730  1
  Te2-  Te182  1  0.92231230  0.41396936  0.58616015  1
  Te2-  Te183  1  0.92115043  0.40721646  0.92136890  1
  Te2-  Te184  1  0.92056577  0.74616330  0.25489234  1
  Te2-  Te185  1  0.92243158  0.74922054  0.58682524  1
  Te2-  Te186  1  0.91377303  0.74577119  0.91688646  1
  Te2-  Te187  1  0.08012045  0.25362932  0.25304587  1
  Te2-  Te188  1  0.08321603  0.24593451  0.58751161  1
  Te2-  Te189  1  0.07997463  0.25367142  0.92368160  1
  Te2-  Te190  1  0.07505965  0.59175409  0.25881487  1
  Te2-  Te191  1  0.08212571  0.58544164  0.58330512  1
  Te2-  Te192  1  0.07738054  0.58708721  0.91840222  1
  Te2-  Te193  1  0.08337199  0.91835249  0.24803512  1
  Te2-  Te194  1  0.08305119  0.91772227  0.58452436  1
  Te2-  Te195  1  0.08032056  0.92241339  0.91491345  1
  Te2-  Te196  1  0.41367167  0.25381503  0.25047824  1
  Te2-  Te197  1  0.41322786  0.25051430  0.58510605  1
  Te2-  Te198  1  0.41247224  0.24937347  0.91546842  1
  Te2-  Te199  1  0.41344513  0.58798954  0.25269200  1
  Te2-  Te200  1  0.41199663  0.59585162  0.59427023  1
  Te2-  Te201  1  0.41670558  0.58561040  0.91867823  1
  Te2-  Te202  1  0.41218702  0.91959143  0.24967116  1
  Te2-  Te203  1  0.41961026  0.91779893  0.58654121  1
  Te2-  Te204  1  0.41597670  0.92094012  0.91966172  1
  Te2-  Te205  1  0.74822790  0.24394883  0.25480451  1
  Te2-  Te206  1  0.74915135  0.25693153  0.57856362  1
  Te2-  Te207  1  0.74326388  0.25850697  0.92553602  1
  Te2-  Te208  1  0.74888471  0.58285535  0.25307388  1
  Te2-  Te209  1  0.74646437  0.58318259  0.58822372  1
  Te2-  Te210  1  0.74977206  0.58154972  0.92119750  1
  Te2-  Te211  1  0.74857516  0.91384616  0.25386376  1
  Te2-  Te212  1  0.75138808  0.92391435  0.58282563  1
  Te2-  Te213  1  0.74390498  0.91796989  0.91489118  1
  Te2-  Te214  1  0.08268146  0.08090562  0.07968651  1
  Te2-  Te215  1  0.08418369  0.07344577  0.41283374  1
  Te2-  Te216  1  0.07676460  0.08383939  0.75189135  1
  Te2-  Te217  1  0.07577268  0.41720663  0.08616948  1
  Te2-  Te218  1  0.08298205  0.41033033  0.41262888  1
  Te2-  Te219  1  0.08664498  0.41488403  0.74075593  1
  Te2-  Te220  1  0.07885241  0.74560472  0.07576349  1
  Te2-  Te221  1  0.08136480  0.74812223  0.41409173  1
  Te2-  Te222  1  0.07989163  0.75176399  0.74433789  1
  Te2-  Te223  1  0.41412625  0.08310399  0.08070382  1
  Te2-  Te224  1  0.41453152  0.08299105  0.41140255  1
  Te2-  Te225  1  0.41577305  0.07849609  0.74353687  1
  Te2-  Te226  1  0.41251645  0.41736945  0.08315706  1
  Te2-  Te227  1  0.41213945  0.41753994  0.41785094  1
  Te2-  Te228  1  0.41158562  0.40902970  0.75377717  1
  Te2-  Te229  1  0.41662355  0.74760912  0.08055561  1
  Te2-  Te230  1  0.41510506  0.74655271  0.41237108  1
  Te2-  Te231  1  0.41116596  0.75138638  0.74683608  1
  Te2-  Te232  1  0.74433061  0.07513468  0.07934181  1
  Te2-  Te233  1  0.75092621  0.08416817  0.41309830  1
  Te2-  Te234  1  0.74701681  0.08719173  0.74798858  1
  Te2-  Te235  1  0.74383299  0.40971312  0.08401574  1
  Te2-  Te236  1  0.74648969  0.41633357  0.41514199  1
  Te2-  Te237  1  0.74348802  0.41188717  0.74230739  1
  Te2-  Te238  1  0.74779770  0.74359287  0.08138606  1
  Te2-  Te239  1  0.74998947  0.74719749  0.41469994  1
  Te2-  Te240  1  0.74440439  0.74212120  0.74366726  1
