# generated using pymatgen
data_Ti27(Cu53Te54)2
_symmetry_space_group_name_H-M   'P 1'
_cell_length_a   17.88286326
_cell_length_b   17.88600669
_cell_length_c   17.88634310
_cell_angle_alpha   90.02336743
_cell_angle_beta   89.98288313
_cell_angle_gamma   90.00932861
_symmetry_Int_Tables_number   1
_chemical_formula_structural   Ti27(Cu53Te54)2
_chemical_formula_sum   'Ti27 Cu106 Te108'
_cell_volume   5720.99990571
_cell_formula_units_Z   1
loop_
 _symmetry_equiv_pos_site_id
 _symmetry_equiv_pos_as_xyz
  1  'x, y, z'
loop_
 _atom_type_symbol
 _atom_type_oxidation_number
  Ti4+  4.0
  Cu+  1.0
  Te2-  -2.0
loop_
 _atom_site_type_symbol
 _atom_site_label
 _atom_site_symmetry_multiplicity
 _atom_site_fract_x
 _atom_site_fract_y
 _atom_site_fract_z
 _atom_site_occupancy
  Ti4+  Ti0  1  0.16487677  0.16718098  0.16695287  1
  Ti4+  Ti1  1  0.16541891  0.16639040  0.50157436  1
  Ti4+  Ti2  1  0.16875672  0.16420732  0.83412554  1
  Ti4+  Ti3  1  0.16522695  0.49916686  0.16500693  1
  Ti4+  Ti4  1  0.16577494  0.49758680  0.50012996  1
  Ti4+  Ti5  1  0.16814404  0.49937695  0.83143508  1
  Ti4+  Ti6  1  0.16780655  0.83543340  0.17077198  1
  Ti4+  Ti7  1  0.16213730  0.83097174  0.50052999  1
  Ti4+  Ti8  1  0.16791799  0.83167172  0.83924046  1
  Ti4+  Ti9  1  0.49767466  0.16527571  0.16681122  1
  Ti4+  Ti10  1  0.50161284  0.16577239  0.50160303  1
  Ti4+  Ti11  1  0.50138159  0.16882562  0.83218203  1
  Ti4+  Ti12  1  0.49714667  0.49985227  0.16801066  1
  Ti4+  Ti13  1  0.50425402  0.50049427  0.49895421  1
  Ti4+  Ti14  1  0.50069845  0.50238694  0.83375937  1
  Ti4+  Ti15  1  0.50541912  0.83150338  0.16359700  1
  Ti4+  Ti16  1  0.49891590  0.83185162  0.49706665  1
  Ti4+  Ti17  1  0.49786900  0.83349357  0.83079596  1
  Ti4+  Ti18  1  0.82957012  0.16711792  0.16615510  1
  Ti4+  Ti19  1  0.83327451  0.16890203  0.49969515  1
  Ti4+  Ti20  1  0.83504096  0.16660242  0.83299979  1
  Ti4+  Ti21  1  0.83265173  0.50098037  0.16473470  1
  Ti4+  Ti22  1  0.82998233  0.49817475  0.50006821  1
  Ti4+  Ti23  1  0.83428467  0.50166992  0.83345420  1
  Ti4+  Ti24  1  0.83315786  0.83506067  0.17208530  1
  Ti4+  Ti25  1  0.83381089  0.83433608  0.49971069  1
  Ti4+  Ti26  1  0.83622855  0.83441268  0.83193650  1
  Cu+  Cu27  1  0.16503507  0.16224490  0.00072484  1
  Cu+  Cu28  1  0.16474119  0.17001101  0.33347231  1
  Cu+  Cu29  1  0.16663163  0.16771500  0.66881158  1
  Cu+  Cu30  1  0.16675305  0.49986860  -0.00200934  1
  Cu+  Cu31  1  0.16745216  0.49842814  0.33177685  1
  Cu+  Cu32  1  0.16788362  0.49755055  0.66348693  1
  Cu+  Cu33  1  0.17114936  0.83479984  0.00769114  1
  Cu+  Cu34  1  0.15855834  0.83078750  0.33265424  1
  Cu+  Cu35  1  0.16756938  0.83110050  0.67336924  1
  Cu+  Cu36  1  0.49782328  0.16410595  -0.00010484  1
  Cu+  Cu37  1  0.49559286  0.16343228  0.33474182  1
  Cu+  Cu38  1  0.50772093  0.17023118  0.66698128  1
  Cu+  Cu39  1  0.49872936  0.50052885  0.00255403  1
  Cu+  Cu40  1  0.50017986  0.50656506  0.33287830  1
  Cu+  Cu41  1  0.50392231  0.50368142  0.66715726  1
  Cu+  Cu42  1  0.49779663  0.83082770  -0.00621452  1
  Cu+  Cu43  1  0.50548122  0.82566364  0.32935138  1
  Cu+  Cu44  1  0.49692616  0.83655777  0.66255644  1
  Cu+  Cu45  1  0.83228470  0.16847689  -0.00172103  1
  Cu+  Cu46  1  0.82890210  0.16966114  0.33363969  1
  Cu+  Cu47  1  0.83684889  0.16582762  0.66730694  1
  Cu+  Cu48  1  0.83380008  0.50255744  -0.00138047  1
  Cu+  Cu49  1  0.82829358  0.49481858  0.32888313  1
  Cu+  Cu50  1  0.83367298  0.49851512  0.66847910  1
  Cu+  Cu51  1  0.83661880  0.83427435  -0.00000014  1
  Cu+  Cu52  1  0.83354966  0.83326166  0.34127552  1
  Cu+  Cu53  1  0.83944216  0.83535317  0.66359850  1
  Cu+  Cu54  1  0.16879434  0.00238466  0.16812463  1
  Cu+  Cu55  1  0.16316652  -0.00018173  0.50016915  1
  Cu+  Cu56  1  0.16344641  -0.00213785  0.83997085  1
  Cu+  Cu57  1  0.16379803  0.33404403  0.16375166  1
  Cu+  Cu58  1  0.16553296  0.33224151  0.49875732  1
  Cu+  Cu59  1  0.16872025  0.33188557  0.82986313  1
  Cu+  Cu60  1  0.16731035  0.66559037  0.16874894  1
  Cu+  Cu61  1  0.16503686  0.66131605  0.50410938  1
  Cu+  Cu62  1  0.17360871  0.66574612  0.83346961  1
  Cu+  Cu63  1  0.50793999  0.00083509  0.15935204  1
  Cu+  Cu64  1  0.49979917  -0.00132905  0.50392823  1
  Cu+  Cu65  1  0.49861725  0.00494241  0.83085469  1
  Cu+  Cu66  1  0.49540049  0.33109987  0.16739265  1
  Cu+  Cu67  1  0.50431413  0.33207748  0.50292760  1
  Cu+  Cu68  1  0.50057048  0.33797773  0.83438266  1
  Cu+  Cu69  1  0.49973559  0.66523663  0.17396649  1
  Cu+  Cu70  1  0.50264079  0.66401192  0.49242317  1
  Cu+  Cu71  1  0.49582129  0.66861786  0.83347807  1
  Cu+  Cu72  1  0.82901220  -0.00017884  0.16744684  1
  Cu+  Cu73  1  0.83242057  0.00081853  0.50297841  1
  Cu+  Cu74  1  0.83620615  0.00117609  0.83350877  1
  Cu+  Cu75  1  0.82853600  0.33632533  0.16713293  1
  Cu+  Cu76  1  0.82906139  0.33222639  0.49546568  1
  Cu+  Cu77  1  0.83499577  0.33527308  0.83400084  1
  Cu+  Cu78  1  0.83422070  0.66883692  0.16663201  1
  Cu+  Cu79  1  0.83297329  0.66394063  0.49989913  1
  Cu+  Cu80  1  0.83544012  0.66842078  0.83173107  1
  Cu+  Cu81  1  -0.00543122  0.16685159  0.16722055  1
  Cu+  Cu82  1  0.00175655  0.17091175  0.49723521  1
  Cu+  Cu83  1  0.00313662  0.16498163  0.83389002  1
  Cu+  Cu84  1  -0.00169682  0.50092016  0.16313650  1
  Cu+  Cu85  1  -0.00281635  0.49640150  0.50000058  1
  Cu+  Cu86  1  -0.00002472  0.50011575  0.83230933  1
  Cu+  Cu87  1  0.00087484  0.83219689  0.17450536  1
  Cu+  Cu88  1  -0.00135963  0.83672577  0.49536606  1
  Cu+  Cu89  1  0.00373356  0.83671296  0.83570052  1
  Cu+  Cu90  1  0.32980998  0.16745520  0.16597361  1
  Cu+  Cu91  1  0.33291912  0.16330685  0.50408652  1
  Cu+  Cu92  1  0.33738981  0.16432623  0.83691413  1
  Cu+  Cu93  1  0.32826537  0.49858830  0.16538136  1
  Cu+  Cu94  1  0.33419549  0.49649179  0.49730615  1
  Cu+  Cu95  1  0.33411758  0.50000201  0.83192506  1
  Cu+  Cu96  1  0.33657999  0.83075896  0.16687858  1
  Cu+  Cu97  1  0.32769885  0.82990284  0.49754753  1
  Cu+  Cu98  1  0.33209679  0.82651393  0.83479876  1
  Cu+  Cu99  1  0.66073251  0.16370281  0.16384055  1
  Cu+  Cu100  1  0.66703879  0.17288206  0.50284941  1
  Cu+  Cu101  1  0.66885732  0.16645954  0.82834876  1
  Cu+  Cu102  1  0.66556547  0.49829258  0.16742327  1
  Cu+  Cu103  1  0.66659226  0.50340568  0.50484965  1
  Cu+  Cu104  1  0.66842393  0.50214957  0.83494180  1
  Cu+  Cu105  1  0.66966258  0.84496969  0.16589078  1
  Cu+  Cu106  1  0.66448885  0.83370018  0.49730657  1
  Cu+  Cu107  1  0.66959343  0.83443729  0.82919603  1
  Cu+  Cu108  1  0.59883118  0.59078465  0.25366362  1
  Cu+  Cu109  1  0.40579649  0.74310964  0.25806006  1
  Cu+  Cu110  1  0.40091162  0.58896372  0.40982568  1
  Cu+  Cu111  1  0.92800234  0.92993555  0.59036784  1
  Cu+  Cu112  1  0.40816112  0.07357660  0.92847191  1
  Cu+  Cu113  1  0.06985522  0.07366564  0.93153472  1
  Cu+  Cu114  1  0.25982535  0.73711405  0.73814908  1
  Cu+  Cu115  1  0.59089517  0.92312468  0.59215887  1
  Cu+  Cu116  1  0.59368225  0.07811313  0.06732052  1
  Cu+  Cu117  1  0.59347308  0.59619685  0.59818123  1
  Cu+  Cu118  1  0.74899428  0.92527387  0.06694466  1
  Cu+  Cu119  1  0.92731940  0.73235441  0.41626191  1
  Cu+  Cu120  1  0.07714500  0.26426869  0.40150485  1
  Cu+  Cu121  1  0.58715063  0.93087071  0.25815947  1
  Cu+  Cu122  1  0.73513780  0.26025564  0.40503816  1
  Cu+  Cu123  1  0.07445900  0.26154484  0.74366622  1
  Cu+  Cu124  1  0.59640603  0.07441942  0.73973321  1
  Cu+  Cu125  1  0.59795694  0.26459028  0.59717263  1
  Cu+  Cu126  1  0.40569590  0.73542022  0.92714272  1
  Cu+  Cu127  1  0.07220592  0.73316399  0.25501781  1
  Cu+  Cu128  1  0.73438522  0.40585277  0.25597093  1
  Cu+  Cu129  1  0.59728272  0.73864889  0.40479970  1
  Cu+  Cu130  1  0.07622815  0.93045807  0.40345968  1
  Cu+  Cu131  1  0.07957502  0.92450980  0.74456042  1
  Cu+  Cu132  1  0.73803825  0.93094455  0.41531615  1
  Te2-  Te133  1  0.24893785  0.25125784  0.07947164  1
  Te2-  Te134  1  0.25403003  0.24987910  0.41716135  1
  Te2-  Te135  1  0.25716200  0.24848610  0.74954993  1
  Te2-  Te136  1  0.25056684  0.58608428  0.08035844  1
  Te2-  Te137  1  0.24994372  0.58564928  0.41352594  1
  Te2-  Te138  1  0.25525864  0.58371096  0.74319185  1
  Te2-  Te139  1  0.25620141  0.92016103  0.08664043  1
  Te2-  Te140  1  0.24692302  0.91573584  0.41403977  1
  Te2-  Te141  1  0.25289503  0.91938998  0.75335392  1
  Te2-  Te142  1  0.58150320  0.25291656  0.08006392  1
  Te2-  Te143  1  0.58298876  0.25193382  0.41034282  1
  Te2-  Te144  1  0.58926629  0.25935132  0.75011136  1
  Te2-  Te145  1  0.58390632  0.58582907  0.08356623  1
  Te2-  Te146  1  0.59562816  0.58670918  0.40869149  1
  Te2-  Te147  1  0.58800663  0.59079677  0.75065077  1
  Te2-  Te148  1  0.58797280  0.91827774  0.06920132  1
  Te2-  Te149  1  0.58412412  0.92344407  0.41042948  1
  Te2-  Te150  1  0.58671902  0.92037054  0.74548159  1
  Te2-  Te151  1  0.91397927  0.25351088  0.08246508  1
  Te2-  Te152  1  0.91880571  0.25460954  0.41134497  1
  Te2-  Te153  1  0.92094024  0.25336049  0.74803231  1
  Te2-  Te154  1  0.91783168  0.58824679  0.08052759  1
  Te2-  Te155  1  0.91638590  0.57942626  0.41134216  1
  Te2-  Te156  1  0.91998431  0.58584061  0.74641980  1
  Te2-  Te157  1  0.92048050  0.91792570  0.08690391  1
  Te2-  Te158  1  0.91975691  0.92640943  0.41216805  1
  Te2-  Te159  1  0.92342189  0.92353944  0.74640045  1
  Te2-  Te160  1  0.25073591  0.08407542  0.25441979  1
  Te2-  Te161  1  0.24901620  0.07913846  0.58702090  1
  Te2-  Te162  1  0.25434352  0.07766633  0.92159847  1
  Te2-  Te163  1  0.24995827  0.41205311  0.25066170  1
  Te2-  Te164  1  0.25336745  0.41228591  0.58303917  1
  Te2-  Te165  1  0.25238193  0.41373798  0.91646850  1
  Te2-  Te166  1  0.25277979  0.74727349  0.25607796  1
  Te2-  Te167  1  0.24999494  0.74550964  0.58557200  1
  Te2-  Te168  1  0.25267242  0.74476809  0.92788047  1
  Te2-  Te169  1  0.58564084  0.08149607  0.25659951  1
  Te2-  Te170  1  0.59193676  0.07778158  0.58646835  1
  Te2-  Te171  1  0.58981754  0.08083813  0.91681033  1
  Te2-  Te172  1  0.58071638  0.41139356  0.25402124  1
  Te2-  Te173  1  0.58902320  0.41527289  0.58872598  1
  Te2-  Te174  1  0.58550692  0.41835411  0.92031021  1
  Te2-  Te175  1  0.59799248  0.74517148  0.24948653  1
  Te2-  Te176  1  0.58499499  0.74716389  0.58553777  1
  Te2-  Te177  1  0.58750934  0.74953583  0.91333394  1
  Te2-  Te178  1  0.91321079  0.08264201  0.25276837  1
  Te2-  Te179  1  0.92201177  0.08379055  0.58459256  1
  Te2-  Te180  1  0.91910522  0.08049417  0.92149088  1
  Te2-  Te181  1  0.91946581  0.41450778  0.24951686  1
  Te2-  Te182  1  0.91421464  0.41207051  0.58348856  1
  Te2-  Te183  1  0.91968901  0.41603463  0.91941577  1
  Te2-  Te184  1  0.91775893  0.74512218  0.25838055  1
  Te2-  Te185  1  0.92149035  0.74583481  0.58243825  1
  Te2-  Te186  1  0.92058985  0.74980430  0.91818546  1
  Te2-  Te187  1  0.07679003  0.25447033  0.24982494  1
  Te2-  Te188  1  0.07977138  0.25402528  0.58838364  1
  Te2-  Te189  1  0.08389669  0.25228651  0.91899644  1
  Te2-  Te190  1  0.07829393  0.58269766  0.25343303  1
  Te2-  Te191  1  0.07796713  0.58093758  0.58592747  1
  Te2-  Te192  1  0.08346737  0.58568630  0.91564525  1
  Te2-  Te193  1  0.07914645  0.92564753  0.25257519  1
  Te2-  Te194  1  0.08047779  0.91871566  0.59034589  1
  Te2-  Te195  1  0.08081064  0.91700610  0.92941909  1
  Te2-  Te196  1  0.41219706  0.24930494  0.25306867  1
  Te2-  Te197  1  0.41562742  0.25107330  0.58611139  1
  Te2-  Te198  1  0.41689337  0.25441521  0.91927323  1
  Te2-  Te199  1  0.40472656  0.58645781  0.25398335  1
  Te2-  Te200  1  0.41617053  0.58582122  0.58224886  1
  Te2-  Te201  1  0.41188987  0.58473993  0.92132492  1
  Te2-  Te202  1  0.42175897  0.91841383  0.24954693  1
  Te2-  Te203  1  0.40867327  0.91616063  0.58032284  1
  Te2-  Te204  1  0.41223643  0.92048502  0.91663306  1
  Te2-  Te205  1  0.73933720  0.25245479  0.25069834  1
  Te2-  Te206  1  0.75092713  0.25487342  0.59128624  1
  Te2-  Te207  1  0.74809377  0.25183369  0.91557045  1
  Te2-  Te208  1  0.74896497  0.58953376  0.25278017  1
  Te2-  Te209  1  0.74974974  0.58754604  0.58949303  1
  Te2-  Te210  1  0.74943154  0.58915252  0.91830652  1
  Te2-  Te211  1  0.74690848  0.92370479  0.26145842  1
  Te2-  Te212  1  0.74521927  0.91867539  0.58804252  1
  Te2-  Te213  1  0.74856144  0.92070829  0.91603809  1
  Te2-  Te214  1  0.07701196  0.07902698  0.08427645  1
  Te2-  Te215  1  0.07876432  0.08185222  0.41249990  1
  Te2-  Te216  1  0.08172177  0.07771151  0.74629044  1
  Te2-  Te217  1  0.07948427  0.41554131  0.07827672  1
  Te2-  Te218  1  0.07876761  0.41449250  0.41183591  1
  Te2-  Te219  1  0.08050194  0.41448985  0.74534934  1
  Te2-  Te220  1  0.08158934  0.74971711  0.08499342  1
  Te2-  Te221  1  0.07870766  0.73869251  0.41483666  1
  Te2-  Te222  1  0.08138961  0.74515816  0.75335494  1
  Te2-  Te223  1  0.40997288  0.07758252  0.08246270  1
  Te2-  Te224  1  0.41442471  0.07911025  0.41881546  1
  Te2-  Te225  1  0.41576342  0.08550528  0.74247578  1
  Te2-  Te226  1  0.41284102  0.41497894  0.08256559  1
  Te2-  Te227  1  0.42053403  0.41288045  0.41419096  1
  Te2-  Te228  1  0.41721257  0.41753955  0.74614707  1
  Te2-  Te229  1  0.41706295  0.74430293  0.08081415  1
  Te2-  Te230  1  0.40923698  0.74583437  0.41114874  1
  Te2-  Te231  1  0.41400464  0.74695073  0.74149740  1
  Te2-  Te232  1  0.74569667  0.07961775  0.07613726  1
  Te2-  Te233  1  0.74474229  0.08275738  0.41622386  1
  Te2-  Te234  1  0.75127165  0.07865550  0.74496182  1
  Te2-  Te235  1  0.74594722  0.41696041  0.07783330  1
  Te2-  Te236  1  0.73947781  0.41376538  0.41291581  1
  Te2-  Te237  1  0.74766474  0.41505895  0.74956334  1
  Te2-  Te238  1  0.74885373  0.75161238  0.08336741  1
  Te2-  Te239  1  0.74693741  0.74342222  0.41490890  1
  Te2-  Te240  1  0.75252129  0.75078602  0.74468755  1
