# generated using pymatgen
data_Ti27(Cu53Te54)2
_symmetry_space_group_name_H-M   'P 1'
_cell_length_a   17.87603655
_cell_length_b   17.88120787
_cell_length_c   17.87874516
_cell_angle_alpha   90.01172425
_cell_angle_beta   90.02358932
_cell_angle_gamma   89.98431397
_symmetry_Int_Tables_number   1
_chemical_formula_structural   Ti27(Cu53Te54)2
_chemical_formula_sum   'Ti27 Cu106 Te108'
_cell_volume   5714.85292188
_cell_formula_units_Z   1
loop_
 _symmetry_equiv_pos_site_id
 _symmetry_equiv_pos_as_xyz
  1  'x, y, z'
loop_
 _atom_type_symbol
 _atom_type_oxidation_number
  Ti4+  4.0
  Cu+  1.0
  Te2-  -2.0
loop_
 _atom_site_type_symbol
 _atom_site_label
 _atom_site_symmetry_multiplicity
 _atom_site_fract_x
 _atom_site_fract_y
 _atom_site_fract_z
 _atom_site_occupancy
  Ti4+  Ti0  1  0.16431973  0.16779160  0.16983922  1
  Ti4+  Ti1  1  0.16672957  0.16701516  0.50284915  1
  Ti4+  Ti2  1  0.16512070  0.16550268  0.83303608  1
  Ti4+  Ti3  1  0.16748933  0.49875491  0.16748988  1
  Ti4+  Ti4  1  0.16598421  0.50119842  0.50169045  1
  Ti4+  Ti5  1  0.16635147  0.49854126  0.83402813  1
  Ti4+  Ti6  1  0.17473264  0.83427297  0.16535611  1
  Ti4+  Ti7  1  0.16562677  0.83312233  0.49957012  1
  Ti4+  Ti8  1  0.16495977  0.83136412  0.83445779  1
  Ti4+  Ti9  1  0.50092399  0.16698209  0.16713648  1
  Ti4+  Ti10  1  0.50117583  0.16613744  0.49789064  1
  Ti4+  Ti11  1  0.50072821  0.16669742  0.83403370  1
  Ti4+  Ti12  1  0.49784174  0.49822696  0.16472632  1
  Ti4+  Ti13  1  0.49971660  0.49932270  0.49795255  1
  Ti4+  Ti14  1  0.50153398  0.50043444  0.83375508  1
  Ti4+  Ti15  1  0.49682154  0.83432774  0.16736935  1
  Ti4+  Ti16  1  0.49859302  0.83347076  0.50037016  1
  Ti4+  Ti17  1  0.50406017  0.83324929  0.83527987  1
  Ti4+  Ti18  1  0.83203169  0.16604100  0.16705851  1
  Ti4+  Ti19  1  0.83288696  0.16488993  0.49968109  1
  Ti4+  Ti20  1  0.83230126  0.16583572  0.83358786  1
  Ti4+  Ti21  1  0.83354772  0.50169401  0.16678213  1
  Ti4+  Ti22  1  0.83345696  0.50117857  0.49797113  1
  Ti4+  Ti23  1  0.83374566  0.50202340  0.83374297  1
  Ti4+  Ti24  1  0.83612895  0.83441379  0.16703762  1
  Ti4+  Ti25  1  0.83235606  0.83264264  0.49945402  1
  Ti4+  Ti26  1  0.83021469  0.83511036  0.83031965  1
  Cu+  Cu27  1  0.16259225  0.16578970  0.00178459  1
  Cu+  Cu28  1  0.16559293  0.17088203  0.33852799  1
  Cu+  Cu29  1  0.16656377  0.16662516  0.66680754  1
  Cu+  Cu30  1  0.16702798  0.49805604  0.00185522  1
  Cu+  Cu31  1  0.16484725  0.50032700  0.33431429  1
  Cu+  Cu32  1  0.16599794  0.49971147  0.66909324  1
  Cu+  Cu33  1  0.17314315  0.83755475  -0.00329095  1
  Cu+  Cu34  1  0.17322453  0.83026633  0.33330994  1
  Cu+  Cu35  1  0.16147571  0.83161639  0.66716717  1
  Cu+  Cu36  1  0.50474522  0.17363374  -0.00229072  1
  Cu+  Cu37  1  0.50361213  0.15865683  0.33232599  1
  Cu+  Cu38  1  0.49872941  0.16515968  0.66544289  1
  Cu+  Cu39  1  0.49979427  0.49976772  -0.00311064  1
  Cu+  Cu40  1  0.49772400  0.49581275  0.33093459  1
  Cu+  Cu41  1  0.50047166  0.49743457  0.66343577  1
  Cu+  Cu42  1  0.49603058  0.83145360  -0.00002630  1
  Cu+  Cu43  1  0.49365192  0.83623556  0.33611585  1
  Cu+  Cu44  1  0.50493464  0.83285567  0.66863900  1
  Cu+  Cu45  1  0.82870581  0.16397621  0.00118110  1
  Cu+  Cu46  1  0.83090390  0.16939382  0.33345543  1
  Cu+  Cu47  1  0.83644259  0.16366223  0.66681491  1
  Cu+  Cu48  1  0.83588138  0.49972708  0.00282674  1
  Cu+  Cu49  1  0.82944823  0.50385210  0.33194205  1
  Cu+  Cu50  1  0.83683857  0.50325563  0.66661567  1
  Cu+  Cu51  1  0.83414058  0.83775278  0.00101768  1
  Cu+  Cu52  1  0.83743224  0.83013779  0.33234661  1
  Cu+  Cu53  1  0.82203725  0.83507860  0.66357021  1
  Cu+  Cu54  1  0.17224186  0.00403701  0.16445766  1
  Cu+  Cu55  1  0.16400480  0.00086208  0.50264945  1
  Cu+  Cu56  1  0.16503622  -0.00383054  0.83400654  1
  Cu+  Cu57  1  0.16439019  0.33222355  0.16901845  1
  Cu+  Cu58  1  0.16572239  0.33446610  0.50252678  1
  Cu+  Cu59  1  0.16434514  0.33089326  0.83341151  1
  Cu+  Cu60  1  0.17103521  0.66446896  0.16547368  1
  Cu+  Cu61  1  0.16684524  0.66820141  0.49909479  1
  Cu+  Cu62  1  0.16434114  0.66359028  0.83212710  1
  Cu+  Cu63  1  0.49523870  0.00294843  0.16875671  1
  Cu+  Cu64  1  0.49805174  0.00000256  0.49828185  1
  Cu+  Cu65  1  0.50300510  0.00246856  0.83175415  1
  Cu+  Cu66  1  0.49557391  0.33510533  0.16700049  1
  Cu+  Cu67  1  0.50294110  0.33341478  0.49694956  1
  Cu+  Cu68  1  0.50200652  0.33172894  0.83706102  1
  Cu+  Cu69  1  0.49956664  0.66732171  0.16793151  1
  Cu+  Cu70  1  0.50013284  0.66077018  0.50046117  1
  Cu+  Cu71  1  0.50607119  0.66796548  0.83766342  1
  Cu+  Cu72  1  0.83393237  -0.00041359  0.16767680  1
  Cu+  Cu73  1  0.83544424  -0.00101494  0.50017219  1
  Cu+  Cu74  1  0.83323138  0.00195147  0.83076118  1
  Cu+  Cu75  1  0.83457370  0.33530571  0.16721451  1
  Cu+  Cu76  1  0.82945807  0.33030274  0.49912128  1
  Cu+  Cu77  1  0.83232486  0.33697105  0.83135154  1
  Cu+  Cu78  1  0.83582490  0.66725457  0.16668623  1
  Cu+  Cu79  1  0.83497546  0.66536914  0.49797904  1
  Cu+  Cu80  1  0.83132944  0.66726947  0.83292319  1
  Cu+  Cu81  1  -0.00226596  0.16845714  0.16968872  1
  Cu+  Cu82  1  0.00108774  0.16799636  0.50220846  1
  Cu+  Cu83  1  -0.00079098  0.16338837  0.83014299  1
  Cu+  Cu84  1  0.00032904  0.50057471  0.16813321  1
  Cu+  Cu85  1  -0.00064194  0.50290415  0.50505697  1
  Cu+  Cu86  1  0.00119996  0.49951425  0.83422899  1
  Cu+  Cu87  1  0.00791459  0.83432869  0.16491654  1
  Cu+  Cu88  1  -0.00202353  0.82975767  0.49741467  1
  Cu+  Cu89  1  -0.00406577  0.83747199  0.83255767  1
  Cu+  Cu90  1  0.33016712  0.16535990  0.16833152  1
  Cu+  Cu91  1  0.33225016  0.16636148  0.50573373  1
  Cu+  Cu92  1  0.33254040  0.16574778  0.83071764  1
  Cu+  Cu93  1  0.33242924  0.49434512  0.16764015  1
  Cu+  Cu94  1  0.33281618  0.49984336  0.49991720  1
  Cu+  Cu95  1  0.33280627  0.49599272  0.83342515  1
  Cu+  Cu96  1  0.34022179  0.83414154  0.16518551  1
  Cu+  Cu97  1  0.33031701  0.83456231  0.49757965  1
  Cu+  Cu98  1  0.33254140  0.83119914  0.83747991  1
  Cu+  Cu99  1  0.66708676  0.16794657  0.16517626  1
  Cu+  Cu100  1  0.66829693  0.16654774  0.49317452  1
  Cu+  Cu101  1  0.66532399  0.16783329  0.84007443  1
  Cu+  Cu102  1  0.66700200  0.50027847  0.16505667  1
  Cu+  Cu103  1  0.66491504  0.50171610  0.49322176  1
  Cu+  Cu104  1  0.66727087  0.50659652  0.83365447  1
  Cu+  Cu105  1  0.66370101  0.83604994  0.16795454  1
  Cu+  Cu106  1  0.66817644  0.82996788  0.50459131  1
  Cu+  Cu107  1  0.66903935  0.83134265  0.82642008  1
  Cu+  Cu108  1  0.92781915  0.73841579  0.40264818  1
  Cu+  Cu109  1  0.75448035  0.73920297  0.93371212  1
  Cu+  Cu110  1  0.25986023  0.73565162  0.40946449  1
  Cu+  Cu111  1  0.40089507  0.92873950  0.41156719  1
  Cu+  Cu112  1  0.40131027  0.07737987  0.25890715  1
  Cu+  Cu113  1  0.59883555  0.06654327  0.40830028  1
  Cu+  Cu114  1  0.73978102  0.26107457  0.40317729  1
  Cu+  Cu115  1  0.93010086  0.07257797  0.73699920  1
  Cu+  Cu116  1  0.59396364  0.59451273  0.93159398  1
  Cu+  Cu117  1  0.59818310  0.26423647  0.92833589  1
  Cu+  Cu118  1  0.73609856  0.59626285  0.40244332  1
  Cu+  Cu119  1  0.40395903  0.73742126  0.92392129  1
  Cu+  Cu120  1  0.40235748  0.40181854  0.92127500  1
  Cu+  Cu121  1  0.92424170  0.92732089  0.92837224  1
  Cu+  Cu122  1  0.59002612  0.73592195  0.73853710  1
  Cu+  Cu123  1  0.41908081  0.93301931  0.06820523  1
  Cu+  Cu124  1  0.73719423  0.07274566  0.93009458  1
  Cu+  Cu125  1  0.92985303  0.59501459  0.59704646  1
  Cu+  Cu126  1  0.40340063  0.40378694  0.26268628  1
  Cu+  Cu127  1  0.40620521  0.07284277  0.59625968  1
  Cu+  Cu128  1  0.25811251  0.08350927  0.07123152  1
  Cu+  Cu129  1  0.74165832  0.73362970  0.58830563  1
  Cu+  Cu130  1  0.26203391  0.92903552  0.91790439  1
  Cu+  Cu131  1  0.73868753  0.93382270  0.73675546  1
  Cu+  Cu132  1  0.41494180  0.73507032  0.26390598  1
  Te2-  Te133  1  0.25035844  0.25248684  0.08227146  1
  Te2-  Te134  1  0.25304369  0.25346526  0.41913458  1
  Te2-  Te135  1  0.25069526  0.25115565  0.74855458  1
  Te2-  Te136  1  0.25484955  0.58188140  0.08107690  1
  Te2-  Te137  1  0.25316478  0.58441069  0.41307931  1
  Te2-  Te138  1  0.25313038  0.58394327  0.74910903  1
  Te2-  Te139  1  0.26118159  0.92442026  0.07700313  1
  Te2-  Te140  1  0.24934921  0.92422747  0.41398876  1
  Te2-  Te141  1  0.25186445  0.91469426  0.74754925  1
  Te2-  Te142  1  0.58651487  0.25674733  0.08366768  1
  Te2-  Te143  1  0.58470126  0.25362404  0.40860493  1
  Te2-  Te144  1  0.58521656  0.25052857  0.74733793  1
  Te2-  Te145  1  0.58502233  0.58717243  0.08252951  1
  Te2-  Te146  1  0.58238796  0.58665559  0.40760728  1
  Te2-  Te147  1  0.58545519  0.58479493  0.74304913  1
  Te2-  Te148  1  0.58204183  0.92076945  0.08161236  1
  Te2-  Te149  1  0.58867632  0.91486042  0.41457998  1
  Te2-  Te150  1  0.58640417  0.92332754  0.74626761  1
  Te2-  Te151  1  0.91638505  0.25056503  0.08095031  1
  Te2-  Te152  1  0.91927938  0.25134613  0.41597337  1
  Te2-  Te153  1  0.91720905  0.25297719  0.74891364  1
  Te2-  Te154  1  0.92085603  0.58633802  0.08178048  1
  Te2-  Te155  1  0.92260653  0.58541338  0.41067958  1
  Te2-  Te156  1  0.92196069  0.58899681  0.75046764  1
  Te2-  Te157  1  0.92302621  0.92104512  0.08269027  1
  Te2-  Te158  1  0.91870115  0.91851819  0.41417265  1
  Te2-  Te159  1  0.91703374  0.91834671  0.74014913  1
  Te2-  Te160  1  0.24955969  0.08187326  0.25981004  1
  Te2-  Te161  1  0.25172720  0.07760812  0.58950529  1
  Te2-  Te162  1  0.25415449  0.08019695  0.91931555  1
  Te2-  Te163  1  0.25051754  0.41059592  0.25636530  1
  Te2-  Te164  1  0.25154069  0.41614907  0.58643233  1
  Te2-  Te165  1  0.25021148  0.41020538  0.92074096  1
  Te2-  Te166  1  0.25909410  0.74398955  0.25145607  1
  Te2-  Te167  1  0.25167045  0.74945333  0.58722815  1
  Te2-  Te168  1  0.25063413  0.74153675  0.91988199  1
  Te2-  Te169  1  0.59048966  0.07757259  0.24881549  1
  Te2-  Te170  1  0.58750373  0.08117274  0.58302534  1
  Te2-  Te171  1  0.58441856  0.07760620  0.92345947  1
  Te2-  Te172  1  0.58596914  0.41434701  0.24936081  1
  Te2-  Te173  1  0.58771352  0.41491158  0.58181684  1
  Te2-  Te174  1  0.59144114  0.41557414  0.91962843  1
  Te2-  Te175  1  0.58291665  0.75086016  0.25465365  1
  Te2-  Te176  1  0.58461517  0.74250029  0.58507392  1
  Te2-  Te177  1  0.59403445  0.75065258  0.92591206  1
  Te2-  Te178  1  0.91680475  0.08227941  0.25406135  1
  Te2-  Te179  1  0.92186306  0.07840290  0.58417288  1
  Te2-  Te180  1  0.91992833  0.08065443  0.92158879  1
  Te2-  Te181  1  0.91782391  0.41706647  0.25400324  1
  Te2-  Te182  1  0.91554356  0.41255767  0.58367892  1
  Te2-  Te183  1  0.91800546  0.41556781  0.91816184  1
  Te2-  Te184  1  0.92523913  0.74740882  0.24885912  1
  Te2-  Te185  1  0.91817632  0.74897879  0.59028132  1
  Te2-  Te186  1  0.91697093  0.74915873  0.91736088  1
  Te2-  Te187  1  0.07919983  0.25290934  0.25546133  1
  Te2-  Te188  1  0.08091585  0.25296338  0.58768168  1
  Te2-  Te189  1  0.07841975  0.24911544  0.91811359  1
  Te2-  Te190  1  0.08301659  0.58667919  0.25128774  1
  Te2-  Te191  1  0.08284122  0.58980066  0.58930439  1
  Te2-  Te192  1  0.08166521  0.58367226  0.92081485  1
  Te2-  Te193  1  0.08983430  0.91827280  0.25045451  1
  Te2-  Te194  1  0.07776282  0.91646734  0.58408749  1
  Te2-  Te195  1  0.07833214  0.91939784  0.92123220  1
  Te2-  Te196  1  0.41370162  0.25008468  0.25474620  1
  Te2-  Te197  1  0.41789252  0.25410802  0.58366559  1
  Te2-  Te198  1  0.40974580  0.25027819  0.91939302  1
  Te2-  Te199  1  0.41198339  0.58366725  0.25241216  1
  Te2-  Te200  1  0.41388067  0.58317938  0.58569919  1
  Te2-  Te201  1  0.41224455  0.58660783  0.91819124  1
  Te2-  Te202  1  0.40844367  0.92421256  0.25670214  1
  Te2-  Te203  1  0.41393741  0.91681567  0.58945942  1
  Te2-  Te204  1  0.41548934  0.92512381  0.91719047  1
  Te2-  Te205  1  0.74573504  0.25534903  0.25048970  1
  Te2-  Te206  1  0.74696771  0.24809967  0.58710202  1
  Te2-  Te207  1  0.75017506  0.25701450  0.92054442  1
  Te2-  Te208  1  0.74430017  0.59015759  0.24959094  1
  Te2-  Te209  1  0.74405801  0.58355568  0.58552475  1
  Te2-  Te210  1  0.74817379  0.58770451  0.92530848  1
  Te2-  Te211  1  0.74978715  0.91656577  0.25338953  1
  Te2-  Te212  1  0.74347105  0.92537459  0.58211586  1
  Te2-  Te213  1  0.74357119  0.92077719  0.91884453  1
  Te2-  Te214  1  0.07782028  0.08144006  0.08482539  1
  Te2-  Te215  1  0.08064646  0.08252148  0.41638525  1
  Te2-  Te216  1  0.08270288  0.07680670  0.74546711  1
  Te2-  Te217  1  0.08064000  0.41381833  0.08309806  1
  Te2-  Te218  1  0.07949716  0.41651833  0.41782517  1
  Te2-  Te219  1  0.08023519  0.41359044  0.74846820  1
  Te2-  Te220  1  0.08994338  0.75007256  0.07993732  1
  Te2-  Te221  1  0.08112824  0.74622617  0.41054172  1
  Te2-  Te222  1  0.07719152  0.74764082  0.75050039  1
  Te2-  Te223  1  0.41448469  0.08535690  0.07416584  1
  Te2-  Te224  1  0.40727698  0.08112941  0.41255910  1
  Te2-  Te225  1  0.41360771  0.07887854  0.74840466  1
  Te2-  Te226  1  0.41226829  0.41256390  0.07615710  1
  Te2-  Te227  1  0.41169887  0.41155004  0.41498652  1
  Te2-  Te228  1  0.41814385  0.41273845  0.74837815  1
  Te2-  Te229  1  0.41285713  0.74249140  0.07896571  1
  Te2-  Te230  1  0.41314759  0.74132658  0.41654844  1
  Te2-  Te231  1  0.41655740  0.74843389  0.75053917  1
  Te2-  Te232  1  0.74443500  0.07703037  0.08292034  1
  Te2-  Te233  1  0.75040464  0.07518118  0.41078825  1
  Te2-  Te234  1  0.74169246  0.08463610  0.74572057  1
  Te2-  Te235  1  0.74861864  0.41503403  0.08128300  1
  Te2-  Te236  1  0.74691435  0.41393187  0.41170514  1
  Te2-  Te237  1  0.74780989  0.41965101  0.74715927  1
  Te2-  Te238  1  0.74693261  0.74960152  0.08406634  1
  Te2-  Te239  1  0.74480076  0.74792800  0.41085554  1
  Te2-  Te240  1  0.74500999  0.73952162  0.74227395  1
