# generated using pymatgen
data_Ti27(Cu53Te54)2
_symmetry_space_group_name_H-M   'P 1'
_cell_length_a   17.92451023
_cell_length_b   17.92884247
_cell_length_c   17.92310709
_cell_angle_alpha   89.95857833
_cell_angle_beta   90.04718475
_cell_angle_gamma   89.96134700
_symmetry_Int_Tables_number   1
_chemical_formula_structural   Ti27(Cu53Te54)2
_chemical_formula_sum   'Ti27 Cu106 Te108'
_cell_volume   5759.86744755
_cell_formula_units_Z   1
loop_
 _symmetry_equiv_pos_site_id
 _symmetry_equiv_pos_as_xyz
  1  'x, y, z'
loop_
 _atom_type_symbol
 _atom_type_oxidation_number
  Ti4+  4.0
  Cu+  1.0
  Te2-  -2.0
loop_
 _atom_site_type_symbol
 _atom_site_label
 _atom_site_symmetry_multiplicity
 _atom_site_fract_x
 _atom_site_fract_y
 _atom_site_fract_z
 _atom_site_occupancy
  Ti4+  Ti0  1  0.17009699  0.16685213  0.16657427  1
  Ti4+  Ti1  1  0.17044091  0.17018998  0.49905219  1
  Ti4+  Ti2  1  0.16821927  0.16550714  0.83343296  1
  Ti4+  Ti3  1  0.16303421  0.49955899  0.16755378  1
  Ti4+  Ti4  1  0.16317835  0.50188621  0.50412255  1
  Ti4+  Ti5  1  0.16437350  0.50009887  0.83381320  1
  Ti4+  Ti6  1  0.16755722  0.83274811  0.16442868  1
  Ti4+  Ti7  1  0.16638583  0.83439162  0.49933285  1
  Ti4+  Ti8  1  0.16846059  0.83375295  0.82857397  1
  Ti4+  Ti9  1  0.49787759  0.16653215  0.16473219  1
  Ti4+  Ti10  1  0.49902573  0.16749854  0.49706403  1
  Ti4+  Ti11  1  0.49973817  0.16658689  0.83396408  1
  Ti4+  Ti12  1  0.49966135  0.50071421  0.16548879  1
  Ti4+  Ti13  1  0.49544645  0.49890198  0.49806630  1
  Ti4+  Ti14  1  0.49829229  0.50040991  0.83168601  1
  Ti4+  Ti15  1  0.50303468  0.83371687  0.16462334  1
  Ti4+  Ti16  1  0.50117053  0.83203528  0.49848634  1
  Ti4+  Ti17  1  0.50185993  0.83360695  0.83047929  1
  Ti4+  Ti18  1  0.83504545  0.16553505  0.16695765  1
  Ti4+  Ti19  1  0.83526244  0.16585661  0.50104563  1
  Ti4+  Ti20  1  0.83360111  0.16598850  0.83422832  1
  Ti4+  Ti21  1  0.83246180  0.50142914  0.17046921  1
  Ti4+  Ti22  1  0.82876948  0.49862701  0.50466769  1
  Ti4+  Ti23  1  0.83355192  0.49540296  0.83759849  1
  Ti4+  Ti24  1  0.83606198  0.83367502  0.16753800  1
  Ti4+  Ti25  1  0.83166434  0.83586718  0.50386459  1
  Ti4+  Ti26  1  0.83524473  0.83055780  0.83144973  1
  Cu+  Cu27  1  0.17336534  0.16983984  -0.00121254  1
  Cu+  Cu28  1  0.17716483  0.16834444  0.33305126  1
  Cu+  Cu29  1  0.16864266  0.16380077  0.66698699  1
  Cu+  Cu30  1  0.16405267  0.49910522  0.00284519  1
  Cu+  Cu31  1  0.16208373  0.50104924  0.33657954  1
  Cu+  Cu32  1  0.16208791  0.50255846  0.66658739  1
  Cu+  Cu33  1  0.16738128  0.83379353  -0.00430822  1
  Cu+  Cu34  1  0.16450422  0.83235370  0.33000544  1
  Cu+  Cu35  1  0.16601890  0.83252464  0.66313883  1
  Cu+  Cu36  1  0.50084884  0.16293443  0.00180742  1
  Cu+  Cu37  1  0.49726812  0.16891607  0.32992283  1
  Cu+  Cu38  1  0.49917710  0.16866017  0.66647443  1
  Cu+  Cu39  1  0.49815781  0.50305389  -0.00109663  1
  Cu+  Cu40  1  0.49962136  0.49780592  0.33048332  1
  Cu+  Cu41  1  0.49501618  0.49883097  0.66383734  1
  Cu+  Cu42  1  0.50288181  0.83345860  -0.00235448  1
  Cu+  Cu43  1  0.50293782  0.83210746  0.33115905  1
  Cu+  Cu44  1  0.50195802  0.83623580  0.66426017  1
  Cu+  Cu45  1  0.83373675  0.16589185  -0.00149562  1
  Cu+  Cu46  1  0.83696118  0.16521179  0.33301288  1
  Cu+  Cu47  1  0.83321921  0.16732215  0.66705361  1
  Cu+  Cu48  1  0.83740102  0.49858916  0.00492288  1
  Cu+  Cu49  1  0.82940322  0.50253959  0.33656646  1
  Cu+  Cu50  1  0.82920753  0.49540403  0.67399241  1
  Cu+  Cu51  1  0.83783840  0.83120289  0.00197233  1
  Cu+  Cu52  1  0.83356757  0.83453267  0.33591152  1
  Cu+  Cu53  1  0.83015140  0.83785934  0.66767704  1
  Cu+  Cu54  1  0.17048391  -0.00173502  0.16291879  1
  Cu+  Cu55  1  0.16866927  0.00465661  0.49774120  1
  Cu+  Cu56  1  0.17031918  -0.00015927  0.82528888  1
  Cu+  Cu57  1  0.16353909  0.32904761  0.16714499  1
  Cu+  Cu58  1  0.16649958  0.34026089  0.49858198  1
  Cu+  Cu59  1  0.16822241  0.33221646  0.83620567  1
  Cu+  Cu60  1  0.16318864  0.66676123  0.16917438  1
  Cu+  Cu61  1  0.16489389  0.66764402  0.50545961  1
  Cu+  Cu62  1  0.16365469  0.66861300  0.83370574  1
  Cu+  Cu63  1  0.50174856  -0.00033578  0.16304413  1
  Cu+  Cu64  1  0.49991098  0.00030929  0.49758222  1
  Cu+  Cu65  1  0.49992943  -0.00014923  0.83384755  1
  Cu+  Cu66  1  0.49741210  0.33491021  0.16353750  1
  Cu+  Cu67  1  0.49557912  0.33489183  0.49440712  1
  Cu+  Cu68  1  0.49837576  0.33360045  0.83278369  1
  Cu+  Cu69  1  0.50225341  0.66746108  0.16608461  1
  Cu+  Cu70  1  0.50044899  0.66452128  0.49856809  1
  Cu+  Cu71  1  0.50094294  0.66858073  0.83035733  1
  Cu+  Cu72  1  0.83724179  -0.00131578  0.16671180  1
  Cu+  Cu73  1  0.83838139  0.00080862  0.50353674  1
  Cu+  Cu74  1  0.83333476  0.00011930  0.83173469  1
  Cu+  Cu75  1  0.83411282  0.33393222  0.17002151  1
  Cu+  Cu76  1  0.83125901  0.32935634  0.50000470  1
  Cu+  Cu77  1  0.83615586  0.33004008  0.83483889  1
  Cu+  Cu78  1  0.83251446  0.66859054  0.17021894  1
  Cu+  Cu79  1  0.82645085  0.66824050  0.50580660  1
  Cu+  Cu80  1  0.83611892  0.65886829  0.83629308  1
  Cu+  Cu81  1  0.00412567  0.16739236  0.16608678  1
  Cu+  Cu82  1  0.00391886  0.16820158  0.50179775  1
  Cu+  Cu83  1  -0.00167439  0.16483339  0.83475254  1
  Cu+  Cu84  1  -0.00451451  0.49582385  0.16742259  1
  Cu+  Cu85  1  -0.00523959  0.50031218  0.50641400  1
  Cu+  Cu86  1  -0.00405253  0.49698803  0.83730801  1
  Cu+  Cu87  1  0.00178737  0.83113609  0.16838318  1
  Cu+  Cu88  1  -0.00130770  0.83404579  0.50413880  1
  Cu+  Cu89  1  0.00429544  0.82954855  0.83341644  1
  Cu+  Cu90  1  0.33125357  0.16675464  0.16619319  1
  Cu+  Cu91  1  0.33403523  0.16703224  0.49319403  1
  Cu+  Cu92  1  0.33263365  0.16664039  0.83442781  1
  Cu+  Cu93  1  0.33387137  0.50149581  0.16683450  1
  Cu+  Cu94  1  0.32912016  0.49859710  0.50464854  1
  Cu+  Cu95  1  0.33326474  0.50178983  0.83203446  1
  Cu+  Cu96  1  0.33676840  0.83267425  0.16536294  1
  Cu+  Cu97  1  0.33656553  0.83289206  0.49422572  1
  Cu+  Cu98  1  0.33586998  0.83468959  0.82895564  1
  Cu+  Cu99  1  0.66660134  0.16489470  0.16411850  1
  Cu+  Cu100  1  0.66888486  0.16652056  0.49639296  1
  Cu+  Cu101  1  0.66622338  0.16811173  0.83446056  1
  Cu+  Cu102  1  0.66718825  0.50306565  0.16900075  1
  Cu+  Cu103  1  0.65965266  0.49726802  0.49938380  1
  Cu+  Cu104  1  0.66586683  0.49836370  0.83455916  1
  Cu+  Cu105  1  0.67036050  0.83533653  0.16638225  1
  Cu+  Cu106  1  0.66434676  0.83602979  0.50615463  1
  Cu+  Cu107  1  0.66919613  0.83360787  0.82895876  1
  Cu+  Cu108  1  0.92405610  0.40264901  0.74360663  1
  Cu+  Cu109  1  0.59748226  0.07146820  0.07419766  1
  Cu+  Cu110  1  0.25772231  0.06818537  0.07083523  1
  Cu+  Cu111  1  0.58749765  0.58721045  0.59154676  1
  Cu+  Cu112  1  0.40734664  0.40224431  0.59432797  1
  Cu+  Cu113  1  0.26217614  0.07057223  0.40461827  1
  Cu+  Cu114  1  0.25630810  0.41848988  0.40570756  1
  Cu+  Cu115  1  0.92518152  0.58937246  0.93369705  1
  Cu+  Cu116  1  0.26473127  0.26408325  0.92305930  1
  Cu+  Cu117  1  0.73937406  0.58798945  0.75065486  1
  Cu+  Cu118  1  0.07434396  0.25207227  0.07029303  1
  Cu+  Cu119  1  0.59153564  0.40537575  0.40139262  1
  Cu+  Cu120  1  0.74094553  0.93134149  0.74603515  1
  Cu+  Cu121  1  0.26484027  0.07407134  0.73903951  1
  Cu+  Cu122  1  0.92158175  0.40380406  0.07921364  1
  Cu+  Cu123  1  0.07868798  0.74238480  0.92743465  1
  Cu+  Cu124  1  0.92847118  0.92767273  0.59526207  1
  Cu+  Cu125  1  0.25730893  0.59684062  0.59621217  1
  Cu+  Cu126  1  0.26158103  0.26281228  0.25822152  1
  Cu+  Cu127  1  0.73658281  0.74386464  0.59317346  1
  Cu+  Cu128  1  0.06922214  0.40753279  0.59100183  1
  Cu+  Cu129  1  0.07211114  0.73917161  0.26000037  1
  Cu+  Cu130  1  0.07731106  0.07764860  0.59185368  1
  Cu+  Cu131  1  0.58552178  0.93301983  0.59134206  1
  Cu+  Cu132  1  0.07144631  0.74165985  0.59146325  1
  Te2-  Te133  1  0.25668962  0.25839552  0.08002666  1
  Te2-  Te134  1  0.25663602  0.26162839  0.41394008  1
  Te2-  Te135  1  0.25215210  0.25301649  0.74699573  1
  Te2-  Te136  1  0.24798837  0.58463285  0.08438250  1
  Te2-  Te137  1  0.24912349  0.58708301  0.41651548  1
  Te2-  Te138  1  0.24927646  0.58699341  0.74937092  1
  Te2-  Te139  1  0.25555528  0.91532204  0.07661234  1
  Te2-  Te140  1  0.25157364  0.91758926  0.41151246  1
  Te2-  Te141  1  0.25557591  0.91780773  0.74062690  1
  Te2-  Te142  1  0.58396929  0.25258668  0.08088828  1
  Te2-  Te143  1  0.58520536  0.25197965  0.41128416  1
  Te2-  Te144  1  0.58383096  0.25185248  0.74911719  1
  Te2-  Te145  1  0.58593636  0.58506189  0.08093408  1
  Te2-  Te146  1  0.58337222  0.58422681  0.41173771  1
  Te2-  Te147  1  0.58559322  0.58631430  0.74491360  1
  Te2-  Te148  1  0.58993361  0.91889209  0.07773392  1
  Te2-  Te149  1  0.58728859  0.91772244  0.41365352  1
  Te2-  Te150  1  0.58830274  0.92408458  0.74479668  1
  Te2-  Te151  1  0.92057418  0.25228476  0.07881382  1
  Te2-  Te152  1  0.92037979  0.25081862  0.41634163  1
  Te2-  Te153  1  0.92164149  0.25030751  0.74672198  1
  Te2-  Te154  1  0.92049752  0.59009324  0.08549919  1
  Te2-  Te155  1  0.91261132  0.58598865  0.42247762  1
  Te2-  Te156  1  0.91982177  0.58153057  0.74687245  1
  Te2-  Te157  1  0.92276565  0.91740373  0.08177275  1
  Te2-  Te158  1  0.91940443  0.91810246  0.41647531  1
  Te2-  Te159  1  0.92339958  0.91811952  0.74917949  1
  Te2-  Te160  1  0.25634952  0.07564543  0.25230519  1
  Te2-  Te161  1  0.25809871  0.08183125  0.58438188  1
  Te2-  Te162  1  0.25372330  0.07605590  0.91855846  1
  Te2-  Te163  1  0.25147091  0.41533565  0.25257420  1
  Te2-  Te164  1  0.25046662  0.41262027  0.59281601  1
  Te2-  Te165  1  0.25229640  0.41781040  0.92004086  1
  Te2-  Te166  1  0.25327036  0.74828591  0.25040974  1
  Te2-  Te167  1  0.25700812  0.75087256  0.58405193  1
  Te2-  Te168  1  0.25433573  0.74907173  0.91452403  1
  Te2-  Te169  1  0.58344390  0.08238422  0.25137352  1
  Te2-  Te170  1  0.58544350  0.08481341  0.58388847  1
  Te2-  Te171  1  0.58691405  0.07968237  0.91843605  1
  Te2-  Te172  1  0.58686667  0.41199692  0.24956899  1
  Te2-  Te173  1  0.58082396  0.41069968  0.58570706  1
  Te2-  Te174  1  0.58247882  0.41607078  0.91812943  1
  Te2-  Te175  1  0.58879921  0.74878294  0.24979120  1
  Te2-  Te176  1  0.58508189  0.74241159  0.58924965  1
  Te2-  Te177  1  0.58816940  0.74901257  0.91471873  1
  Te2-  Te178  1  0.92249371  0.08203059  0.24994902  1
  Te2-  Te179  1  0.92365205  0.08141989  0.59108580  1
  Te2-  Te180  1  0.91805374  0.07853170  0.91877794  1
  Te2-  Te181  1  0.91617209  0.41542426  0.25881748  1
  Te2-  Te182  1  0.91481897  0.40938040  0.58934406  1
  Te2-  Te183  1  0.92118832  0.40776108  0.92478847  1
  Te2-  Te184  1  0.91957134  0.74688341  0.25691192  1
  Te2-  Te185  1  0.91754679  0.74640284  0.59037909  1
  Te2-  Te186  1  0.92168536  0.74451596  0.92011761  1
  Te2-  Te187  1  0.08293460  0.24885783  0.25685048  1
  Te2-  Te188  1  0.08424823  0.25526657  0.58689073  1
  Te2-  Te189  1  0.07926657  0.25141913  0.91826061  1
  Te2-  Te190  1  0.07630896  0.58327040  0.25415383  1
  Te2-  Te191  1  0.07346877  0.58932984  0.58966198  1
  Te2-  Te192  1  0.07900848  0.58556400  0.92160027  1
  Te2-  Te193  1  0.08350895  0.92149722  0.24850735  1
  Te2-  Te194  1  0.08262540  0.92436459  0.58642774  1
  Te2-  Te195  1  0.08431281  0.92162713  0.91336953  1
  Te2-  Te196  1  0.41310738  0.25524187  0.25050829  1
  Te2-  Te197  1  0.41204054  0.25124017  0.58338172  1
  Te2-  Te198  1  0.41556496  0.25223006  0.92131599  1
  Te2-  Te199  1  0.41568515  0.58662660  0.25151785  1
  Te2-  Te200  1  0.41074836  0.58937687  0.58546500  1
  Te2-  Te201  1  0.41524682  0.58776524  0.91513853  1
  Te2-  Te202  1  0.41769102  0.91838028  0.25048270  1
  Te2-  Te203  1  0.41383144  0.91850035  0.58235430  1
  Te2-  Te204  1  0.41614078  0.91688505  0.91679496  1
  Te2-  Te205  1  0.74894996  0.24913298  0.25134375  1
  Te2-  Te206  1  0.74699762  0.24954280  0.58513218  1
  Te2-  Te207  1  0.74884456  0.25192734  0.91924051  1
  Te2-  Te208  1  0.74699223  0.58793986  0.25427096  1
  Te2-  Te209  1  0.74165609  0.58405018  0.59188436  1
  Te2-  Te210  1  0.74708020  0.58223342  0.92346764  1
  Te2-  Te211  1  0.75098080  0.91949854  0.25249986  1
  Te2-  Te212  1  0.74372275  0.92776416  0.58910965  1
  Te2-  Te213  1  0.75185597  0.91449529  0.91810332  1
  Te2-  Te214  1  0.08469477  0.08173686  0.07860285  1
  Te2-  Te215  1  0.08452380  0.08685434  0.41135203  1
  Te2-  Te216  1  0.07816338  0.08071227  0.74760787  1
  Te2-  Te217  1  0.07832862  0.41092303  0.08059336  1
  Te2-  Te218  1  0.07440077  0.41757755  0.41677983  1
  Te2-  Te219  1  0.07964139  0.41140940  0.74916565  1
  Te2-  Te220  1  0.08086179  0.74705235  0.07846326  1
  Te2-  Te221  1  0.07956053  0.74779377  0.41575196  1
  Te2-  Te222  1  0.08027415  0.74623742  0.74317164  1
  Te2-  Te223  1  0.41061693  0.07932306  0.07981951  1
  Te2-  Te224  1  0.41576713  0.07923905  0.41015414  1
  Te2-  Te225  1  0.41536947  0.08070270  0.74666510  1
  Te2-  Te226  1  0.41296186  0.41734913  0.07935693  1
  Te2-  Te227  1  0.40795263  0.41549652  0.40913017  1
  Te2-  Te228  1  0.41119509  0.41296247  0.74782107  1
  Te2-  Te229  1  0.41792449  0.74825273  0.07954587  1
  Te2-  Te230  1  0.41785719  0.74649108  0.41156633  1
  Te2-  Te231  1  0.41684591  0.74957470  0.74386721  1
  Te2-  Te232  1  0.75112985  0.07884174  0.08015115  1
  Te2-  Te233  1  0.75262243  0.07930882  0.41535679  1
  Te2-  Te234  1  0.74606304  0.08319412  0.74683146  1
  Te2-  Te235  1  0.74759399  0.41574627  0.08391371  1
  Te2-  Te236  1  0.74637123  0.41338306  0.41649665  1
  Te2-  Te237  1  0.74490097  0.40845340  0.75303475  1
  Te2-  Te238  1  0.75016328  0.74865851  0.08194757  1
  Te2-  Te239  1  0.74566758  0.75146939  0.41749670  1
  Te2-  Te240  1  0.74801616  0.74131571  0.74708853  1
