# generated using pymatgen
data_Ti27(Cu53Te54)2
_symmetry_space_group_name_H-M   'P 1'
_cell_length_a   17.85928922
_cell_length_b   17.85913872
_cell_length_c   17.86116248
_cell_angle_alpha   89.95649158
_cell_angle_beta   90.00173960
_cell_angle_gamma   89.99297716
_symmetry_Int_Tables_number   1
_chemical_formula_structural   Ti27(Cu53Te54)2
_chemical_formula_sum   'Ti27 Cu106 Te108'
_cell_volume   5696.84329750
_cell_formula_units_Z   1
loop_
 _symmetry_equiv_pos_site_id
 _symmetry_equiv_pos_as_xyz
  1  'x, y, z'
loop_
 _atom_type_symbol
 _atom_type_oxidation_number
  Ti4+  4.0
  Cu+  1.0
  Te2-  -2.0
loop_
 _atom_site_type_symbol
 _atom_site_label
 _atom_site_symmetry_multiplicity
 _atom_site_fract_x
 _atom_site_fract_y
 _atom_site_fract_z
 _atom_site_occupancy
  Ti4+  Ti0  1  0.16604768  0.16589285  0.16648638  1
  Ti4+  Ti1  1  0.16701341  0.16678694  0.50113642  1
  Ti4+  Ti2  1  0.17024712  0.16784592  0.83319221  1
  Ti4+  Ti3  1  0.16569449  0.49951234  0.16689689  1
  Ti4+  Ti4  1  0.16670543  0.49864937  0.50300164  1
  Ti4+  Ti5  1  0.16353761  0.49883708  0.83365429  1
  Ti4+  Ti6  1  0.16677950  0.83198187  0.16621662  1
  Ti4+  Ti7  1  0.16603685  0.83150614  0.50006705  1
  Ti4+  Ti8  1  0.16851233  0.83284482  0.83526427  1
  Ti4+  Ti9  1  0.50021977  0.16599079  0.16770439  1
  Ti4+  Ti10  1  0.49852460  0.16669068  0.50044290  1
  Ti4+  Ti11  1  0.49991736  0.16475284  0.83273512  1
  Ti4+  Ti12  1  0.49898096  0.50086591  0.16722895  1
  Ti4+  Ti13  1  0.49825931  0.50284818  0.49854712  1
  Ti4+  Ti14  1  0.50111290  0.50234188  0.83430734  1
  Ti4+  Ti15  1  0.50213424  0.83202655  0.16509784  1
  Ti4+  Ti16  1  0.50248068  0.82913184  0.49877209  1
  Ti4+  Ti17  1  0.49474233  0.83506582  0.83140979  1
  Ti4+  Ti18  1  0.83693106  0.16674893  0.16866691  1
  Ti4+  Ti19  1  0.82913389  0.16697561  0.50082935  1
  Ti4+  Ti20  1  0.83461252  0.16753360  0.83331504  1
  Ti4+  Ti21  1  0.83287577  0.49976341  0.16625748  1
  Ti4+  Ti22  1  0.83559386  0.49946991  0.50074332  1
  Ti4+  Ti23  1  0.83150169  0.50247636  0.83385009  1
  Ti4+  Ti24  1  0.83325307  0.83774346  0.16329639  1
  Ti4+  Ti25  1  0.83337176  0.83352434  0.49711233  1
  Ti4+  Ti26  1  0.83182457  0.83367020  0.83433634  1
  Cu+  Cu27  1  0.16225195  0.17220340  0.00286277  1
  Cu+  Cu28  1  0.16415127  0.16558907  0.33138967  1
  Cu+  Cu29  1  0.17352702  0.16734299  0.66624945  1
  Cu+  Cu30  1  0.16654438  0.50131119  -0.00120067  1
  Cu+  Cu31  1  0.16494320  0.49847480  0.33414883  1
  Cu+  Cu32  1  0.16320586  0.49808596  0.67159829  1
  Cu+  Cu33  1  0.16827403  0.83713685  0.00068485  1
  Cu+  Cu34  1  0.16789696  0.83165432  0.33513563  1
  Cu+  Cu35  1  0.16645230  0.83169555  0.66617579  1
  Cu+  Cu36  1  0.49949533  0.16486126  0.00110115  1
  Cu+  Cu37  1  0.49766969  0.16674079  0.33516099  1
  Cu+  Cu38  1  0.50000020  0.16610411  0.66731912  1
  Cu+  Cu39  1  0.50101161  0.50017045  0.00321417  1
  Cu+  Cu40  1  0.49882125  0.50159620  0.33204855  1
  Cu+  Cu41  1  0.50027670  0.50709984  0.66387044  1
  Cu+  Cu42  1  0.49723981  0.83636571  -0.00360832  1
  Cu+  Cu43  1  0.50560151  0.82809911  0.33105519  1
  Cu+  Cu44  1  0.49869062  0.82370183  0.66653746  1
  Cu+  Cu45  1  0.83671032  0.16497866  0.00102168  1
  Cu+  Cu46  1  0.83374703  0.16225318  0.33645430  1
  Cu+  Cu47  1  0.83221162  0.17053774  0.66492532  1
  Cu+  Cu48  1  0.82797473  0.49931719  -0.00116413  1
  Cu+  Cu49  1  0.83387952  0.50001871  0.33295681  1
  Cu+  Cu50  1  0.83691033  0.49674179  0.66878079  1
  Cu+  Cu51  1  0.83677527  0.83319035  -0.00111830  1
  Cu+  Cu52  1  0.83274619  0.83858551  0.32935368  1
  Cu+  Cu53  1  0.82996377  0.83446504  0.66374540  1
  Cu+  Cu54  1  0.16700924  -0.00065445  0.16782563  1
  Cu+  Cu55  1  0.16505566  -0.00350481  0.50067683  1
  Cu+  Cu56  1  0.17382134  0.00228126  0.83292755  1
  Cu+  Cu57  1  0.16376381  0.33129011  0.16469637  1
  Cu+  Cu58  1  0.17321655  0.33172473  0.50299650  1
  Cu+  Cu59  1  0.16998663  0.33574888  0.83149461  1
  Cu+  Cu60  1  0.16561365  0.66703286  0.16601899  1
  Cu+  Cu61  1  0.16209182  0.66449761  0.49894520  1
  Cu+  Cu62  1  0.16463555  0.66261084  0.83615377  1
  Cu+  Cu63  1  0.50313026  0.00007276  0.16771442  1
  Cu+  Cu64  1  0.49850243  0.00012384  0.49992806  1
  Cu+  Cu65  1  0.50121697  -0.00078274  0.83434606  1
  Cu+  Cu66  1  0.50087017  0.33326812  0.16703034  1
  Cu+  Cu67  1  0.49733625  0.33502712  0.49885542  1
  Cu+  Cu68  1  0.49948225  0.33091113  0.83353649  1
  Cu+  Cu69  1  0.49590018  0.66633919  0.16858230  1
  Cu+  Cu70  1  0.50389123  0.66635869  0.50283770  1
  Cu+  Cu71  1  0.49573588  0.66969549  0.82815985  1
  Cu+  Cu72  1  0.84082596  0.00236895  0.16731414  1
  Cu+  Cu73  1  0.83159588  0.00135195  0.49518117  1
  Cu+  Cu74  1  0.83470816  -0.00062270  0.83477302  1
  Cu+  Cu75  1  0.83311975  0.33328230  0.16912715  1
  Cu+  Cu76  1  0.83179834  0.33293862  0.50537678  1
  Cu+  Cu77  1  0.83149610  0.33594204  0.83438030  1
  Cu+  Cu78  1  0.83096828  0.66750582  0.16141430  1
  Cu+  Cu79  1  0.83467024  0.66738049  0.49936691  1
  Cu+  Cu80  1  0.82910026  0.66769822  0.83468912  1
  Cu+  Cu81  1  0.00261618  0.16685246  0.16021067  1
  Cu+  Cu82  1  -0.00178059  0.16629753  0.50050856  1
  Cu+  Cu83  1  0.00491731  0.16813105  0.83243413  1
  Cu+  Cu84  1  -0.00235068  0.49927566  0.16779246  1
  Cu+  Cu85  1  0.00360831  0.50230328  0.49859957  1
  Cu+  Cu86  1  -0.00260664  0.50204628  0.82630124  1
  Cu+  Cu87  1  -0.00019331  0.83362681  0.16346498  1
  Cu+  Cu88  1  0.00050621  0.83266350  0.50115202  1
  Cu+  Cu89  1  -0.00093087  0.83387625  0.83500660  1
  Cu+  Cu90  1  0.33334716  0.16425955  0.16898073  1
  Cu+  Cu91  1  0.33423303  0.16962833  0.50239732  1
  Cu+  Cu92  1  0.33449460  0.16082949  0.83072685  1
  Cu+  Cu93  1  0.33313579  0.49916646  0.16550751  1
  Cu+  Cu94  1  0.33083808  0.49564911  0.49684994  1
  Cu+  Cu95  1  0.33402219  0.50163700  0.83538493  1
  Cu+  Cu96  1  0.33484304  0.82926400  0.16759549  1
  Cu+  Cu97  1  0.33276919  0.83035924  0.50169986  1
  Cu+  Cu98  1  0.33092487  0.83425402  0.84146246  1
  Cu+  Cu99  1  0.66855313  0.16743454  0.16862151  1
  Cu+  Cu100  1  0.66342311  0.16758780  0.50054398  1
  Cu+  Cu101  1  0.66792709  0.16640432  0.83225324  1
  Cu+  Cu102  1  0.66518860  0.50193672  0.16634676  1
  Cu+  Cu103  1  0.66857162  0.50212789  0.50169609  1
  Cu+  Cu104  1  0.66788755  0.49919990  0.83826490  1
  Cu+  Cu105  1  0.66629702  0.83999455  0.16732988  1
  Cu+  Cu106  1  0.66849371  0.82981065  0.49237921  1
  Cu+  Cu107  1  0.66450374  0.83690716  0.83163513  1
  Cu+  Cu108  1  0.92676275  0.73568523  0.07388120  1
  Cu+  Cu109  1  0.07096528  0.26580688  0.07184667  1
  Cu+  Cu110  1  0.26674680  0.41198901  0.74605459  1
  Cu+  Cu111  1  0.92990063  0.07686829  0.07002397  1
  Cu+  Cu112  1  0.25755404  0.40473488  0.40206494  1
  Cu+  Cu113  1  0.59011237  0.93045056  0.26302121  1
  Cu+  Cu114  1  0.73823608  0.40416199  0.93000353  1
  Cu+  Cu115  1  0.92952663  0.92741609  0.92075691  1
  Cu+  Cu116  1  0.40471294  0.73910907  0.26151373  1
  Cu+  Cu117  1  0.07506901  0.59337652  0.40250892  1
  Cu+  Cu118  1  0.25824835  0.93389813  0.93302484  1
  Cu+  Cu119  1  0.59788232  0.73617026  0.40090552  1
  Cu+  Cu120  1  0.06986539  0.59833636  0.74248920  1
  Cu+  Cu121  1  0.59498661  0.74294697  0.74613290  1
  Cu+  Cu122  1  0.40115416  0.73863600  0.59310581  1
  Cu+  Cu123  1  0.92812832  0.07514996  0.41247515  1
  Cu+  Cu124  1  0.59924974  0.59001000  0.59268474  1
  Cu+  Cu125  1  0.40896663  0.73964216  0.92740976  1
  Cu+  Cu126  1  0.26217849  0.06869533  0.73489479  1
  Cu+  Cu127  1  0.26526270  0.25935137  0.59424229  1
  Cu+  Cu128  1  0.59430390  0.92824279  0.92340896  1
  Cu+  Cu129  1  0.93212926  0.92279135  0.25988079  1
  Cu+  Cu130  1  0.25941557  0.58759074  0.92821301  1
  Cu+  Cu131  1  0.92379836  0.40464411  0.74449658  1
  Cu+  Cu132  1  0.92665857  0.25818745  0.58993739  1
  Te2-  Te133  1  0.25459897  0.25164807  0.08271656  1
  Te2-  Te134  1  0.25303153  0.25017556  0.41056473  1
  Te2-  Te135  1  0.25927840  0.25617552  0.74782594  1
  Te2-  Te136  1  0.25245497  0.58643736  0.08210284  1
  Te2-  Te137  1  0.25098835  0.58555551  0.41499455  1
  Te2-  Te138  1  0.25216642  0.58583362  0.74704631  1
  Te2-  Te139  1  0.25596109  0.91960616  0.08464594  1
  Te2-  Te140  1  0.25333852  0.91701441  0.41609257  1
  Te2-  Te141  1  0.25501581  0.91552710  0.74541642  1
  Te2-  Te142  1  0.58604493  0.25068010  0.08196288  1
  Te2-  Te143  1  0.58328110  0.25339404  0.41503173  1
  Te2-  Te144  1  0.58553137  0.25116735  0.74825591  1
  Te2-  Te145  1  0.58418446  0.58843629  0.08228220  1
  Te2-  Te146  1  0.58805734  0.58538925  0.41092351  1
  Te2-  Te147  1  0.58948489  0.58787548  0.74851763  1
  Te2-  Te148  1  0.58573245  0.92076300  0.07669728  1
  Te2-  Te149  1  0.58599616  0.92094378  0.41417628  1
  Te2-  Te150  1  0.58173045  0.91881951  0.74252161  1
  Te2-  Te151  1  0.91870414  0.25691587  0.07933586  1
  Te2-  Te152  1  0.91655809  0.25410274  0.41507817  1
  Te2-  Te153  1  0.92199069  0.25327739  0.74695028  1
  Te2-  Te154  1  0.91899837  0.58353761  0.07741875  1
  Te2-  Te155  1  0.91972938  0.58614859  0.41316509  1
  Te2-  Te156  1  0.91569747  0.59287066  0.74525770  1
  Te2-  Te157  1  0.92440054  0.92386947  0.07474128  1
  Te2-  Te158  1  0.92317564  0.92033885  0.41264116  1
  Te2-  Te159  1  0.91738098  0.91726352  0.74644183  1
  Te2-  Te160  1  0.25129663  0.07994427  0.25360427  1
  Te2-  Te161  1  0.25453435  0.07659517  0.58310205  1
  Te2-  Te162  1  0.25326397  0.08541425  0.92638849  1
  Te2-  Te163  1  0.25127667  0.41182679  0.25019202  1
  Te2-  Te164  1  0.25614570  0.41386538  0.59302373  1
  Te2-  Te165  1  0.25347218  0.41369036  0.92096774  1
  Te2-  Te166  1  0.25120319  0.74531105  0.25370424  1
  Te2-  Te167  1  0.24918991  0.74249069  0.58658210  1
  Te2-  Te168  1  0.25141359  0.74244479  0.92430648  1
  Te2-  Te169  1  0.58760284  0.08248724  0.25594881  1
  Te2-  Te170  1  0.58420173  0.08037022  0.58556075  1
  Te2-  Te171  1  0.58817990  0.08124914  0.92008005  1
  Te2-  Te172  1  0.58528710  0.41572058  0.25253868  1
  Te2-  Te173  1  0.58315545  0.41644943  0.58423919  1
  Te2-  Te174  1  0.58299644  0.41305384  0.92045706  1
  Te2-  Te175  1  0.59239849  0.74288782  0.24773113  1
  Te2-  Te176  1  0.59480470  0.74496487  0.58819362  1
  Te2-  Te177  1  0.58316463  0.74791690  0.91700479  1
  Te2-  Te178  1  0.92703369  0.08104850  0.25633780  1
  Te2-  Te179  1  0.91612916  0.07927509  0.58667420  1
  Te2-  Te180  1  0.92484210  0.08140561  0.91731248  1
  Te2-  Te181  1  0.91818525  0.41425456  0.25288212  1
  Te2-  Te182  1  0.92498892  0.41343850  0.58647488  1
  Te2-  Te183  1  0.92039581  0.41738753  0.91871713  1
  Te2-  Te184  1  0.91663923  0.74872352  0.24930084  1
  Te2-  Te185  1  0.91741508  0.74941792  0.58531480  1
  Te2-  Te186  1  0.91982948  0.74385876  0.91848676  1
  Te2-  Te187  1  0.07840082  0.25150297  0.25227968  1
  Te2-  Te188  1  0.08115132  0.25231858  0.58764425  1
  Te2-  Te189  1  0.08178295  0.25706876  0.91652441  1
  Te2-  Te190  1  0.07908955  0.58623627  0.25115588  1
  Te2-  Te191  1  0.07966347  0.58598790  0.59029300  1
  Te2-  Te192  1  0.07470032  0.58369931  0.91997190  1
  Te2-  Te193  1  0.08281887  0.91787083  0.25348310  1
  Te2-  Te194  1  0.08086131  0.91711391  0.58678021  1
  Te2-  Te195  1  0.08300348  0.92257995  0.91795767  1
  Te2-  Te196  1  0.41440147  0.25200607  0.25197726  1
  Te2-  Te197  1  0.41615159  0.25562390  0.58904040  1
  Te2-  Te198  1  0.41360080  0.24899958  0.91789042  1
  Te2-  Te199  1  0.40961473  0.58550682  0.25445912  1
  Te2-  Te200  1  0.40753454  0.58653154  0.58407154  1
  Te2-  Te201  1  0.41463851  0.58710355  0.92236372  1
  Te2-  Te202  1  0.41660827  0.91642883  0.25289224  1
  Te2-  Te203  1  0.41743156  0.91472632  0.58531641  1
  Te2-  Te204  1  0.41049478  0.92575696  0.92125216  1
  Te2-  Te205  1  0.75059059  0.25037780  0.25506050  1
  Te2-  Te206  1  0.74183329  0.25326579  0.58707270  1
  Te2-  Te207  1  0.74843222  0.25063558  0.92110202  1
  Te2-  Te208  1  0.74899462  0.58654151  0.25088098  1
  Te2-  Te209  1  0.75244653  0.58623805  0.58861849  1
  Te2-  Te210  1  0.74501495  0.58942465  0.92096298  1
  Te2-  Te211  1  0.74706541  0.92608208  0.25107715  1
  Te2-  Te212  1  0.74596903  0.91883939  0.57991775  1
  Te2-  Te213  1  0.74586312  0.92026287  0.92096389  1
  Te2-  Te214  1  0.08291570  0.07557230  0.07768312  1
  Te2-  Te215  1  0.08185739  0.07971282  0.41495472  1
  Te2-  Te216  1  0.08538931  0.08211079  0.74697166  1
  Te2-  Te217  1  0.07922863  0.41704763  0.07867434  1
  Te2-  Te218  1  0.08252581  0.40960094  0.41783843  1
  Te2-  Te219  1  0.07728189  0.40817232  0.74647796  1
  Te2-  Te220  1  0.08148936  0.74734700  0.07754800  1
  Te2-  Te221  1  0.07795819  0.74741826  0.41233413  1
  Te2-  Te222  1  0.08026872  0.74896254  0.74944892  1
  Te2-  Te223  1  0.41489576  0.07895100  0.08337599  1
  Te2-  Te224  1  0.41164681  0.08114650  0.41594560  1
  Te2-  Te225  1  0.41585971  0.07603839  0.74481343  1
  Te2-  Te226  1  0.41472396  0.41367770  0.08141741  1
  Te2-  Te227  1  0.41393158  0.41380378  0.41096276  1
  Te2-  Te228  1  0.41856978  0.41688963  0.74675229  1
  Te2-  Te229  1  0.41402863  0.74667098  0.07822115  1
  Te2-  Te230  1  0.41388593  0.74427844  0.41339879  1
  Te2-  Te231  1  0.40323014  0.74681464  0.74677850  1
  Te2-  Te232  1  0.74993117  0.08148367  0.08357337  1
  Te2-  Te233  1  0.74175365  0.08154825  0.41421978  1
  Te2-  Te234  1  0.75109685  0.08154316  0.74808639  1
  Te2-  Te235  1  0.74493504  0.41200167  0.08307704  1
  Te2-  Te236  1  0.74873757  0.41514871  0.41701724  1
  Te2-  Te237  1  0.74484582  0.41550767  0.74698451  1
  Te2-  Te238  1  0.74458070  0.75266953  0.07954917  1
  Te2-  Te239  1  0.75174944  0.74511149  0.40741739  1
  Te2-  Te240  1  0.74665119  0.74838020  0.74643034  1
