# generated using pymatgen
data_Ti27(Cu53Te54)2
_symmetry_space_group_name_H-M   'P 1'
_cell_length_a   17.88473984
_cell_length_b   17.88560473
_cell_length_c   17.88477023
_cell_angle_alpha   90.03492341
_cell_angle_beta   90.03007533
_cell_angle_gamma   90.01006603
_symmetry_Int_Tables_number   1
_chemical_formula_structural   Ti27(Cu53Te54)2
_chemical_formula_sum   'Ti27 Cu106 Te108'
_cell_volume   5720.96740406
_cell_formula_units_Z   1
loop_
 _symmetry_equiv_pos_site_id
 _symmetry_equiv_pos_as_xyz
  1  'x, y, z'
loop_
 _atom_type_symbol
 _atom_type_oxidation_number
  Ti4+  4.0
  Cu+  1.0
  Te2-  -2.0
loop_
 _atom_site_type_symbol
 _atom_site_label
 _atom_site_symmetry_multiplicity
 _atom_site_fract_x
 _atom_site_fract_y
 _atom_site_fract_z
 _atom_site_occupancy
  Ti4+  Ti0  1  0.16077188  0.16789094  0.16999898  1
  Ti4+  Ti1  1  0.16721330  0.17024660  0.50227531  1
  Ti4+  Ti2  1  0.16559741  0.16218513  0.83274294  1
  Ti4+  Ti3  1  0.16666386  0.49770760  0.16440780  1
  Ti4+  Ti4  1  0.17122273  0.50285493  0.49917834  1
  Ti4+  Ti5  1  0.17064738  0.49839937  0.83414152  1
  Ti4+  Ti6  1  0.16650821  0.83218990  0.16722995  1
  Ti4+  Ti7  1  0.16672246  0.83397958  0.50020284  1
  Ti4+  Ti8  1  0.16613101  0.83194335  0.83160381  1
  Ti4+  Ti9  1  0.49426776  0.16681257  0.16625314  1
  Ti4+  Ti10  1  0.50266326  0.16895443  0.50160254  1
  Ti4+  Ti11  1  0.49747863  0.16585912  0.83567397  1
  Ti4+  Ti12  1  0.49931878  0.50062411  0.16903798  1
  Ti4+  Ti13  1  0.49915185  0.49818380  0.49787075  1
  Ti4+  Ti14  1  0.50149988  0.49814055  0.83349878  1
  Ti4+  Ti15  1  0.50167062  0.83379690  0.16676087  1
  Ti4+  Ti16  1  0.50048763  0.83529283  0.50074900  1
  Ti4+  Ti17  1  0.50044222  0.83178463  0.83481836  1
  Ti4+  Ti18  1  0.83138776  0.16632917  0.16240530  1
  Ti4+  Ti19  1  0.83480056  0.16695164  0.50136518  1
  Ti4+  Ti20  1  0.83733560  0.17134544  0.83653052  1
  Ti4+  Ti21  1  0.83402048  0.49848575  0.16690694  1
  Ti4+  Ti22  1  0.83325271  0.49941766  0.49885814  1
  Ti4+  Ti23  1  0.83616401  0.50319518  0.83167867  1
  Ti4+  Ti24  1  0.83575186  0.83087125  0.16530420  1
  Ti4+  Ti25  1  0.83169573  0.83232489  0.49882291  1
  Ti4+  Ti26  1  0.83361691  0.83609060  0.83384720  1
  Cu+  Cu27  1  0.16362749  0.16553598  0.00282395  1
  Cu+  Cu28  1  0.16376453  0.16847076  0.33750383  1
  Cu+  Cu29  1  0.16400226  0.16300125  0.66276207  1
  Cu+  Cu30  1  0.17175330  0.49731507  -0.00086364  1
  Cu+  Cu31  1  0.17169623  0.50214708  0.33020921  1
  Cu+  Cu32  1  0.17076497  0.50149682  0.66812058  1
  Cu+  Cu33  1  0.16888431  0.82895105  0.00017156  1
  Cu+  Cu34  1  0.16731946  0.83352432  0.33513266  1
  Cu+  Cu35  1  0.16482845  0.83542616  0.66657351  1
  Cu+  Cu36  1  0.49360123  0.16289497  0.00104616  1
  Cu+  Cu37  1  0.49664450  0.17220891  0.33495290  1
  Cu+  Cu38  1  0.50329369  0.16716781  0.66933560  1
  Cu+  Cu39  1  0.49910701  0.49916437  -0.00094887  1
  Cu+  Cu40  1  0.49729895  0.49686114  0.33432532  1
  Cu+  Cu41  1  0.50033797  0.49628783  0.66550161  1
  Cu+  Cu42  1  0.50521376  0.82758647  0.00258424  1
  Cu+  Cu43  1  0.50224602  0.83623944  0.33263543  1
  Cu+  Cu44  1  0.49813863  0.83406347  0.66744778  1
  Cu+  Cu45  1  0.82822433  0.16330689  -0.00513932  1
  Cu+  Cu46  1  0.83305266  0.16526455  0.33085947  1
  Cu+  Cu47  1  0.84142369  0.17337393  0.66838038  1
  Cu+  Cu48  1  0.83453652  0.49931058  -0.00079135  1
  Cu+  Cu49  1  0.83239235  0.49895346  0.33417192  1
  Cu+  Cu50  1  0.83403516  0.50324617  0.66417914  1
  Cu+  Cu51  1  0.83364216  0.84089832  0.00152418  1
  Cu+  Cu52  1  0.83292741  0.82941163  0.33240805  1
  Cu+  Cu53  1  0.83226958  0.83065734  0.66311479  1
  Cu+  Cu54  1  0.16509083  -0.00122641  0.16939254  1
  Cu+  Cu55  1  0.16837269  0.00262503  0.50110155  1
  Cu+  Cu56  1  0.16249728  -0.00555093  0.83062082  1
  Cu+  Cu57  1  0.15271703  0.33293514  0.16735466  1
  Cu+  Cu58  1  0.16988453  0.33727365  0.50014933  1
  Cu+  Cu59  1  0.17022195  0.33021975  0.83209540  1
  Cu+  Cu60  1  0.17033821  0.66553226  0.16604965  1
  Cu+  Cu61  1  0.16914512  0.67151262  0.50062362  1
  Cu+  Cu62  1  0.16710172  0.66223718  0.83102472  1
  Cu+  Cu63  1  0.50029929  0.00317362  0.16516412  1
  Cu+  Cu64  1  0.50306028  0.00285171  0.50262592  1
  Cu+  Cu65  1  0.49357960  -0.00385434  0.83540920  1
  Cu+  Cu66  1  0.49517215  0.33403684  0.17101790  1
  Cu+  Cu67  1  0.49796321  0.33232839  0.49481166  1
  Cu+  Cu68  1  0.49931124  0.33326345  0.83884816  1
  Cu+  Cu69  1  0.50438008  0.67064580  0.16488801  1
  Cu+  Cu70  1  0.50070837  0.66837838  0.49859456  1
  Cu+  Cu71  1  0.50343697  0.66374014  0.83215105  1
  Cu+  Cu72  1  0.83072253  -0.00318222  0.16189547  1
  Cu+  Cu73  1  0.83318594  -0.00373089  0.49919143  1
  Cu+  Cu74  1  0.84205963  0.00172860  0.84149137  1
  Cu+  Cu75  1  0.83510256  0.32983490  0.16594638  1
  Cu+  Cu76  1  0.83601297  0.33262500  0.50413554  1
  Cu+  Cu77  1  0.83249667  0.34118427  0.83601985  1
  Cu+  Cu78  1  0.83563387  0.66293693  0.16658003  1
  Cu+  Cu79  1  0.83022267  0.66434639  0.49856114  1
  Cu+  Cu80  1  0.83701214  0.67062078  0.83123354  1
  Cu+  Cu81  1  -0.00407270  0.17394200  0.16465821  1
  Cu+  Cu82  1  0.00119816  0.17315274  0.50767017  1
  Cu+  Cu83  1  -0.00293812  0.16442568  0.82820876  1
  Cu+  Cu84  1  0.00121561  0.49405072  0.16600517  1
  Cu+  Cu85  1  0.00026117  0.50338430  0.49893045  1
  Cu+  Cu86  1  0.00627846  0.50401504  0.83033302  1
  Cu+  Cu87  1  0.00336978  0.82899922  0.16764459  1
  Cu+  Cu88  1  -0.00221992  0.83244342  0.49803510  1
  Cu+  Cu89  1  -0.00257173  0.83513695  0.83139299  1
  Cu+  Cu90  1  0.32173363  0.16476719  0.16555005  1
  Cu+  Cu91  1  0.33458678  0.17100095  0.50020489  1
  Cu+  Cu92  1  0.33255543  0.16101830  0.83719748  1
  Cu+  Cu93  1  0.33153290  0.50166618  0.17291749  1
  Cu+  Cu94  1  0.33753476  0.50261609  0.49963134  1
  Cu+  Cu95  1  0.33625247  0.49592205  0.83613591  1
  Cu+  Cu96  1  0.33632165  0.83576841  0.16811891  1
  Cu+  Cu97  1  0.33167352  0.83507984  0.50199977  1
  Cu+  Cu98  1  0.33559627  0.83390775  0.83123037  1
  Cu+  Cu99  1  0.65992696  0.16681359  0.16346894  1
  Cu+  Cu100  1  0.67002556  0.16658621  0.50065896  1
  Cu+  Cu101  1  0.66764697  0.17066682  0.83656206  1
  Cu+  Cu102  1  0.66845036  0.49988960  0.16724520  1
  Cu+  Cu103  1  0.66554903  0.49585624  0.49589946  1
  Cu+  Cu104  1  0.66940973  0.50078129  0.83410692  1
  Cu+  Cu105  1  0.66847795  0.82949530  0.16250627  1
  Cu+  Cu106  1  0.66589495  0.83247426  0.50029329  1
  Cu+  Cu107  1  0.66452733  0.83463764  0.83397318  1
  Cu+  Cu108  1  0.07201698  0.41501686  0.26600542  1
  Cu+  Cu109  1  0.06904756  0.25910392  0.06601736  1
  Cu+  Cu110  1  0.40261583  0.40661301  0.25823604  1
  Cu+  Cu111  1  0.40986617  0.40449251  0.59576882  1
  Cu+  Cu112  1  0.40241789  0.06547358  0.92687064  1
  Cu+  Cu113  1  0.07175322  0.07044021  0.58308525  1
  Cu+  Cu114  1  0.25780128  0.59840172  0.25766988  1
  Cu+  Cu115  1  0.73745442  0.92317189  0.07620066  1
  Cu+  Cu116  1  0.41134400  0.60049562  0.40890380  1
  Cu+  Cu117  1  0.58832188  0.07794188  0.07245469  1
  Cu+  Cu118  1  0.24643235  0.06944478  0.07532836  1
  Cu+  Cu119  1  0.40214919  0.25602289  0.40633663  1
  Cu+  Cu120  1  0.91622526  0.07398738  0.73902455  1
  Cu+  Cu121  1  0.07871806  0.58892791  0.73587683  1
  Cu+  Cu122  1  0.73905178  0.07302020  0.91287191  1
  Cu+  Cu123  1  0.07060363  0.92236639  0.73817265  1
  Cu+  Cu124  1  0.40670482  0.92556235  0.73649301  1
  Cu+  Cu125  1  0.91935091  0.25714308  0.26219234  1
  Cu+  Cu126  1  0.59952504  0.73426957  0.07202302  1
  Cu+  Cu127  1  0.59727249  0.40373668  0.40489607  1
  Cu+  Cu128  1  0.92263577  0.74129816  0.73515897  1
  Cu+  Cu129  1  0.74062790  0.41369178  0.92922689  1
  Cu+  Cu130  1  0.93322284  0.92616175  0.93316495  1
  Cu+  Cu131  1  0.93153018  0.26882621  0.59822140  1
  Cu+  Cu132  1  0.40595648  0.40711007  0.93083913  1
  Te2-  Te133  1  0.24525194  0.25618701  0.08358107  1
  Te2-  Te134  1  0.25080047  0.25596869  0.41303511  1
  Te2-  Te135  1  0.25182008  0.24477026  0.74791097  1
  Te2-  Te136  1  0.25492567  0.58352053  0.08030815  1
  Te2-  Te137  1  0.25598787  0.59134505  0.41276279  1
  Te2-  Te138  1  0.25865879  0.58368379  0.74968666  1
  Te2-  Te139  1  0.25267331  0.91742117  0.08063891  1
  Te2-  Te140  1  0.25153771  0.92051090  0.41559629  1
  Te2-  Te141  1  0.25350668  0.91971194  0.74607514  1
  Te2-  Te142  1  0.57777397  0.25440764  0.08071262  1
  Te2-  Te143  1  0.59108264  0.25170434  0.41261727  1
  Te2-  Te144  1  0.58438589  0.25240745  0.75289852  1
  Te2-  Te145  1  0.58658174  0.58240761  0.08050018  1
  Te2-  Te146  1  0.58494120  0.58501477  0.41235714  1
  Te2-  Te147  1  0.58646854  0.58160823  0.74611008  1
  Te2-  Te148  1  0.58638094  0.92269135  0.07739005  1
  Te2-  Te149  1  0.58586404  0.92054505  0.41629961  1
  Te2-  Te150  1  0.58438916  0.91999350  0.74927092  1
  Te2-  Te151  1  0.91464178  0.25301495  0.07194421  1
  Te2-  Te152  1  0.92009508  0.25256385  0.41499281  1
  Te2-  Te153  1  0.92217182  0.26250706  0.75188305  1
  Te2-  Te154  1  0.92089947  0.58180263  0.08190249  1
  Te2-  Te155  1  0.91783829  0.58552127  0.41345410  1
  Te2-  Te156  1  0.92285501  0.58875026  0.74254025  1
  Te2-  Te157  1  0.92645634  0.91989467  0.08400768  1
  Te2-  Te158  1  0.91735611  0.91691234  0.41215631  1
  Te2-  Te159  1  0.91747948  0.92214435  0.74121897  1
  Te2-  Te160  1  0.24639345  0.08178534  0.25732600  1
  Te2-  Te161  1  0.25599863  0.08351686  0.58435949  1
  Te2-  Te162  1  0.24803424  0.07402600  0.92074211  1
  Te2-  Te163  1  0.24971487  0.40694730  0.25153800  1
  Te2-  Te164  1  0.25528576  0.41659156  0.58644621  1
  Te2-  Te165  1  0.25416542  0.40845948  0.92072547  1
  Te2-  Te166  1  0.25523091  0.75002697  0.25406737  1
  Te2-  Te167  1  0.25252262  0.75019895  0.58825007  1
  Te2-  Te168  1  0.25238156  0.74699056  0.91434947  1
  Te2-  Te169  1  0.58104995  0.08517740  0.25443328  1
  Te2-  Te170  1  0.58820101  0.08373039  0.58706321  1
  Te2-  Te171  1  0.58590598  0.07753630  0.91936843  1
  Te2-  Te172  1  0.58790682  0.41317446  0.25176017  1
  Te2-  Te173  1  0.58494832  0.41117941  0.58308782  1
  Te2-  Te174  1  0.58851598  0.41370651  0.92196125  1
  Te2-  Te175  1  0.58823397  0.74963459  0.25361143  1
  Te2-  Te176  1  0.58391212  0.74849855  0.58610232  1
  Te2-  Te177  1  0.58960277  0.74367114  0.91797605  1
  Te2-  Te178  1  0.91673071  0.07995500  0.24615234  1
  Te2-  Te179  1  0.91971322  0.07590487  0.58700218  1
  Te2-  Te180  1  0.92731646  0.08359563  0.92600166  1
  Te2-  Te181  1  0.91905588  0.41119998  0.25628403  1
  Te2-  Te182  1  0.92296487  0.41832847  0.58701540  1
  Te2-  Te183  1  0.92484200  0.41957348  0.91618472  1
  Te2-  Te184  1  0.91953271  0.74559749  0.25135106  1
  Te2-  Te185  1  0.91936616  0.74417893  0.58265006  1
  Te2-  Te186  1  0.91834717  0.75138202  0.92169177  1
  Te2-  Te187  1  0.07432685  0.25427514  0.26172639  1
  Te2-  Te188  1  0.08464068  0.26137749  0.59025125  1
  Te2-  Te189  1  0.08011258  0.25034300  0.91449738  1
  Te2-  Te190  1  0.08068591  0.58479368  0.24976908  1
  Te2-  Te191  1  0.08407735  0.58742521  0.58352267  1
  Te2-  Te192  1  0.08557921  0.58427172  0.92190769  1
  Te2-  Te193  1  0.08117327  0.91669308  0.25327369  1
  Te2-  Te194  1  0.07610918  0.91945575  0.58503112  1
  Te2-  Te195  1  0.08255897  0.91664916  0.92276760  1
  Te2-  Te196  1  0.40461370  0.25148213  0.25182869  1
  Te2-  Te197  1  0.41540220  0.25278917  0.59020449  1
  Te2-  Te198  1  0.41025939  0.25188851  0.92192036  1
  Te2-  Te199  1  0.41575162  0.59302074  0.25395680  1
  Te2-  Te200  1  0.41788762  0.58700057  0.58646271  1
  Te2-  Te201  1  0.41616675  0.58614988  0.91800141  1
  Te2-  Te202  1  0.41730776  0.92121995  0.25161908  1
  Te2-  Te203  1  0.41339703  0.92269578  0.58489427  1
  Te2-  Te204  1  0.41306059  0.91311830  0.92650641  1
  Te2-  Te205  1  0.74455200  0.24943715  0.24870862  1
  Te2-  Te206  1  0.74901619  0.25117660  0.58826632  1
  Te2-  Te207  1  0.74733184  0.25814698  0.92057750  1
  Te2-  Te208  1  0.74905268  0.58420715  0.25203403  1
  Te2-  Te209  1  0.74452071  0.58293035  0.58245140  1
  Te2-  Te210  1  0.75154161  0.58937061  0.91733981  1
  Te2-  Te211  1  0.74838170  0.91543485  0.25051910  1
  Te2-  Te212  1  0.74673947  0.91813522  0.58553684  1
  Te2-  Te213  1  0.74241502  0.92210551  0.91922328  1
  Te2-  Te214  1  0.07649949  0.07983818  0.08477938  1
  Te2-  Te215  1  0.07831449  0.08440626  0.41892638  1
  Te2-  Te216  1  0.07699213  0.07692071  0.74302340  1
  Te2-  Te217  1  0.07856547  0.41455773  0.07303852  1
  Te2-  Te218  1  0.08307128  0.41781076  0.41602468  1
  Te2-  Te219  1  0.08526189  0.41285304  0.74740673  1
  Te2-  Te220  1  0.08375516  0.74456945  0.08141831  1
  Te2-  Te221  1  0.08151981  0.74810733  0.41456366  1
  Te2-  Te222  1  0.07881567  0.74462957  0.74466570  1
  Te2-  Te223  1  0.40469834  0.07732493  0.08151967  1
  Te2-  Te224  1  0.41604985  0.08260228  0.41724996  1
  Te2-  Te225  1  0.41318061  0.08120797  0.74542219  1
  Te2-  Te226  1  0.41160732  0.41584852  0.08329257  1
  Te2-  Te227  1  0.40576277  0.40987591  0.40977287  1
  Te2-  Te228  1  0.41457661  0.41036769  0.74809880  1
  Te2-  Te229  1  0.41341416  0.74819651  0.08243478  1
  Te2-  Te230  1  0.41331595  0.75229107  0.41283281  1
  Te2-  Te231  1  0.41652819  0.74497114  0.74901725  1
  Te2-  Te232  1  0.74197486  0.07841293  0.07574864  1
  Te2-  Te233  1  0.75071210  0.08150875  0.41510561  1
  Te2-  Te234  1  0.75291794  0.08391274  0.75062124  1
  Te2-  Te235  1  0.74722783  0.41180474  0.08217915  1
  Te2-  Te236  1  0.75044136  0.40893946  0.41308929  1
  Te2-  Te237  1  0.74989474  0.41811314  0.74514702  1
  Te2-  Te238  1  0.75239780  0.74298114  0.07630088  1
  Te2-  Te239  1  0.74589181  0.74687621  0.41405380  1
  Te2-  Te240  1  0.74664931  0.75033863  0.74909976  1
