# generated using pymatgen
data_Ti27(Cu53Te54)2
_symmetry_space_group_name_H-M   'P 1'
_cell_length_a   17.96984498
_cell_length_b   17.95983312
_cell_length_c   17.95559426
_cell_angle_alpha   90.02572729
_cell_angle_beta   90.01206475
_cell_angle_gamma   90.08394381
_symmetry_Int_Tables_number   1
_chemical_formula_structural   Ti27(Cu53Te54)2
_chemical_formula_sum   'Ti27 Cu106 Te108'
_cell_volume   5794.89926664
_cell_formula_units_Z   1
loop_
 _symmetry_equiv_pos_site_id
 _symmetry_equiv_pos_as_xyz
  1  'x, y, z'
loop_
 _atom_type_symbol
 _atom_type_oxidation_number
  Ti4+  4.0
  Cu+  1.0
  Te2-  -2.0
loop_
 _atom_site_type_symbol
 _atom_site_label
 _atom_site_symmetry_multiplicity
 _atom_site_fract_x
 _atom_site_fract_y
 _atom_site_fract_z
 _atom_site_occupancy
  Ti4+  Ti0  1  0.17157528  0.16501859  0.16696734  1
  Ti4+  Ti1  1  0.16395289  0.16805437  0.50220321  1
  Ti4+  Ti2  1  0.16870050  0.16314361  0.83305310  1
  Ti4+  Ti3  1  0.16801988  0.49870972  0.16561940  1
  Ti4+  Ti4  1  0.16821772  0.50190914  0.49528167  1
  Ti4+  Ti5  1  0.16415946  0.49971576  0.83120925  1
  Ti4+  Ti6  1  0.16578468  0.83551066  0.17075518  1
  Ti4+  Ti7  1  0.16668838  0.83466780  0.50076122  1
  Ti4+  Ti8  1  0.16607957  0.82992880  0.83512609  1
  Ti4+  Ti9  1  0.50146493  0.17095054  0.16918243  1
  Ti4+  Ti10  1  0.49532985  0.16553269  0.49894923  1
  Ti4+  Ti11  1  0.50075561  0.16870690  0.83356527  1
  Ti4+  Ti12  1  0.50243555  0.50111514  0.16309907  1
  Ti4+  Ti13  1  0.49957577  0.49955240  0.50108700  1
  Ti4+  Ti14  1  0.49211168  0.50089856  0.83359939  1
  Ti4+  Ti15  1  0.50358821  0.83584964  0.16275670  1
  Ti4+  Ti16  1  0.50041414  0.83155523  0.49819754  1
  Ti4+  Ti17  1  0.49882018  0.83120914  0.83260500  1
  Ti4+  Ti18  1  0.83560967  0.16320833  0.16838656  1
  Ti4+  Ti19  1  0.83135862  0.17112796  0.50130359  1
  Ti4+  Ti20  1  0.83357917  0.16469733  0.83285393  1
  Ti4+  Ti21  1  0.83619578  0.49648619  0.16540650  1
  Ti4+  Ti22  1  0.83613187  0.49963023  0.50033755  1
  Ti4+  Ti23  1  0.83026134  0.50113460  0.83112756  1
  Ti4+  Ti24  1  0.83546969  0.82889711  0.16979038  1
  Ti4+  Ti25  1  0.83305448  0.83332235  0.50277376  1
  Ti4+  Ti26  1  0.83201367  0.83566010  0.83385618  1
  Cu+  Cu27  1  0.17364084  0.16317567  -0.00250078  1
  Cu+  Cu28  1  0.16740805  0.16289900  0.33595945  1
  Cu+  Cu29  1  0.16294883  0.16970329  0.66988634  1
  Cu+  Cu30  1  0.16627417  0.49979147  -0.00021915  1
  Cu+  Cu31  1  0.16871811  0.50252617  0.32959364  1
  Cu+  Cu32  1  0.16483897  0.50066681  0.66072434  1
  Cu+  Cu33  1  0.16585219  0.83360628  0.00455153  1
  Cu+  Cu34  1  0.16977831  0.83182968  0.33655728  1
  Cu+  Cu35  1  0.16383355  0.83461723  0.66811346  1
  Cu+  Cu36  1  0.50171838  0.17211539  0.00453429  1
  Cu+  Cu37  1  0.49361820  0.16490639  0.33277571  1
  Cu+  Cu38  1  0.49814392  0.17008033  0.66317230  1
  Cu+  Cu39  1  0.50340597  0.50383518  -0.00377144  1
  Cu+  Cu40  1  0.50038928  0.49871697  0.33188593  1
  Cu+  Cu41  1  0.49496453  0.49976076  0.67077620  1
  Cu+  Cu42  1  0.50020994  0.83349157  -0.00405198  1
  Cu+  Cu43  1  0.50330955  0.83404696  0.33102010  1
  Cu+  Cu44  1  0.49986874  0.82997874  0.66274042  1
  Cu+  Cu45  1  0.83565204  0.16204952  -0.00105596  1
  Cu+  Cu46  1  0.83268559  0.16897369  0.33538963  1
  Cu+  Cu47  1  0.82870343  0.16989123  0.66831749  1
  Cu+  Cu48  1  0.83080780  0.50178351  -0.00175213  1
  Cu+  Cu49  1  0.83829471  0.49657906  0.33277847  1
  Cu+  Cu50  1  0.83435758  0.49553915  0.66731508  1
  Cu+  Cu51  1  0.83144453  0.83197375  0.00216717  1
  Cu+  Cu52  1  0.83709356  0.83080447  0.33668849  1
  Cu+  Cu53  1  0.83268815  0.83345190  0.66894467  1
  Cu+  Cu54  1  0.16428609  0.00218456  0.17206558  1
  Cu+  Cu55  1  0.16742584  0.00257345  0.50083577  1
  Cu+  Cu56  1  0.16663227  -0.00468700  0.83210032  1
  Cu+  Cu57  1  0.17183481  0.33149110  0.16452776  1
  Cu+  Cu58  1  0.16357239  0.33514296  0.50256517  1
  Cu+  Cu59  1  0.16552248  0.33142926  0.83322991  1
  Cu+  Cu60  1  0.16663823  0.66657166  0.16725340  1
  Cu+  Cu61  1  0.17079981  0.66914029  0.49413177  1
  Cu+  Cu62  1  0.16574143  0.66435222  0.83667216  1
  Cu+  Cu63  1  0.50768349  0.00476967  0.16485626  1
  Cu+  Cu64  1  0.49778270  -0.00385279  0.49784043  1
  Cu+  Cu65  1  0.50343328  0.00022690  0.83539817  1
  Cu+  Cu66  1  0.49595301  0.33824480  0.16715565  1
  Cu+  Cu67  1  0.49971124  0.33041240  0.50205382  1
  Cu+  Cu68  1  0.49335097  0.33170212  0.82582535  1
  Cu+  Cu69  1  0.50451813  0.66799483  0.16115654  1
  Cu+  Cu70  1  0.49977805  0.66587983  0.49917913  1
  Cu+  Cu71  1  0.49042477  0.66577422  0.83775998  1
  Cu+  Cu72  1  0.83677398  -0.00493624  0.17300216  1
  Cu+  Cu73  1  0.83093761  0.00406669  0.50209832  1
  Cu+  Cu74  1  0.82862854  -0.00068017  0.83104163  1
  Cu+  Cu75  1  0.83566491  0.32963780  0.16393207  1
  Cu+  Cu76  1  0.83406386  0.33879014  0.49980069  1
  Cu+  Cu77  1  0.83266769  0.33207000  0.83133125  1
  Cu+  Cu78  1  0.83743960  0.66196935  0.16815578  1
  Cu+  Cu79  1  0.83504676  0.66497005  0.50172752  1
  Cu+  Cu80  1  0.83256503  0.67069677  0.83156558  1
  Cu+  Cu81  1  0.00323691  0.16194468  0.16822604  1
  Cu+  Cu82  1  -0.00417416  0.17064941  0.50268356  1
  Cu+  Cu83  1  0.00124374  0.16380755  0.83472689  1
  Cu+  Cu84  1  0.00250498  0.49715947  0.16446597  1
  Cu+  Cu85  1  0.00234748  0.49676575  0.49725636  1
  Cu+  Cu86  1  -0.00295861  0.49991379  0.82986953  1
  Cu+  Cu87  1  -0.00123196  0.83518830  0.17471933  1
  Cu+  Cu88  1  0.00036756  0.83456306  0.50330036  1
  Cu+  Cu89  1  0.00002177  0.83260641  0.83025525  1
  Cu+  Cu90  1  0.33911143  0.17012393  0.16802794  1
  Cu+  Cu91  1  0.32743659  0.16325634  0.49755034  1
  Cu+  Cu92  1  0.33508467  0.16541958  0.83182229  1
  Cu+  Cu93  1  0.33467690  0.49958484  0.16666782  1
  Cu+  Cu94  1  0.33411733  0.50235607  0.49760564  1
  Cu+  Cu95  1  0.32914137  0.50383399  0.82942744  1
  Cu+  Cu96  1  0.33355244  0.83720570  0.16622688  1
  Cu+  Cu97  1  0.33320045  0.82979359  0.49742771  1
  Cu+  Cu98  1  0.33272936  0.82599965  0.83809373  1
  Cu+  Cu99  1  0.66717639  0.16587874  0.16701451  1
  Cu+  Cu100  1  0.66255340  0.16833952  0.50072795  1
  Cu+  Cu101  1  0.66957235  0.16802016  0.83348550  1
  Cu+  Cu102  1  0.67146374  0.49898798  0.16229154  1
  Cu+  Cu103  1  0.66705023  0.50141677  0.50214142  1
  Cu+  Cu104  1  0.66021725  0.50129004  0.83541141  1
  Cu+  Cu105  1  0.67232407  0.83419979  0.16093256  1
  Cu+  Cu106  1  0.66667520  0.83205263  0.50018747  1
  Cu+  Cu107  1  0.66419183  0.83993244  0.83480118  1
  Cu+  Cu108  1  0.92590431  0.92092505  0.26836177  1
  Cu+  Cu109  1  0.59567852  0.08565200  0.07317146  1
  Cu+  Cu110  1  0.93100238  0.40954838  0.40057916  1
  Cu+  Cu111  1  0.07769054  0.41035123  0.58980456  1
  Cu+  Cu112  1  0.40320592  0.25412483  0.73482331  1
  Cu+  Cu113  1  0.59134131  0.59449500  0.92422598  1
  Cu+  Cu114  1  0.92685151  0.74301512  0.73994556  1
  Cu+  Cu115  1  0.75308046  0.92683370  0.07775759  1
  Cu+  Cu116  1  0.58573677  0.41226029  0.74601236  1
  Cu+  Cu117  1  0.41224819  0.06997562  0.25367468  1
  Cu+  Cu118  1  0.92518101  0.40499912  0.74671818  1
  Cu+  Cu119  1  0.73929416  0.41324595  0.58823085  1
  Cu+  Cu120  1  0.40863135  0.26568215  0.07515284  1
  Cu+  Cu121  1  0.25606211  0.07277331  0.40854677  1
  Cu+  Cu122  1  0.59019921  0.92860028  0.92377726  1
  Cu+  Cu123  1  0.40549996  0.41519000  0.26232015  1
  Cu+  Cu124  1  0.39973909  0.59610827  0.73760994  1
  Cu+  Cu125  1  0.07377769  0.25764695  0.74770171  1
  Cu+  Cu126  1  0.73557108  0.92267543  0.73560773  1
  Cu+  Cu127  1  0.26453378  0.73818472  0.40466924  1
  Cu+  Cu128  1  0.07316823  0.07793334  0.26322508  1
  Cu+  Cu129  1  0.40168967  0.73906940  0.93118883  1
  Cu+  Cu130  1  0.74169236  0.25950473  0.74618899  1
  Cu+  Cu131  1  0.58971443  0.25564318  0.58753710  1
  Cu+  Cu132  1  0.07541153  0.92436758  0.73965296  1
  Te2-  Te133  1  0.25599551  0.25087298  0.07879623  1
  Te2-  Te134  1  0.24780108  0.25396044  0.41652243  1
  Te2-  Te135  1  0.25342421  0.25292481  0.74721733  1
  Te2-  Te136  1  0.25189778  0.58514293  0.08166305  1
  Te2-  Te137  1  0.25628922  0.58602719  0.40927563  1
  Te2-  Te138  1  0.24657103  0.58750805  0.74381597  1
  Te2-  Te139  1  0.24901393  0.92101350  0.08491345  1
  Te2-  Te140  1  0.25378103  0.92098224  0.41491265  1
  Te2-  Te141  1  0.25472544  0.91294827  0.75106820  1
  Te2-  Te142  1  0.58848434  0.25748811  0.08477219  1
  Te2-  Te143  1  0.58073712  0.25024658  0.41268608  1
  Te2-  Te144  1  0.58921792  0.25489627  0.74402088  1
  Te2-  Te145  1  0.59084461  0.58673192  0.07824879  1
  Te2-  Te146  1  0.58468388  0.58257770  0.41589761  1
  Te2-  Te147  1  0.57981224  0.58877177  0.75012367  1
  Te2-  Te148  1  0.59123573  0.92323656  0.07558991  1
  Te2-  Te149  1  0.58649240  0.91751417  0.41480507  1
  Te2-  Te150  1  0.58204831  0.91949524  0.74337986  1
  Te2-  Te151  1  0.92101370  0.24525310  0.08234705  1
  Te2-  Te152  1  0.91836913  0.25515923  0.41485705  1
  Te2-  Te153  1  0.92186154  0.25155850  0.74552853  1
  Te2-  Te154  1  0.92022179  0.58204886  0.08001143  1
  Te2-  Te155  1  0.92053615  0.58520536  0.41522194  1
  Te2-  Te156  1  0.91651899  0.58755442  0.74596609  1
  Te2-  Te157  1  0.91985698  0.91647841  0.08211567  1
  Te2-  Te158  1  0.91874503  0.92148837  0.42004470  1
  Te2-  Te159  1  0.91899265  0.92198785  0.74705608  1
  Te2-  Te160  1  0.25923136  0.07878154  0.25438946  1
  Te2-  Te161  1  0.24805182  0.08397024  0.58969986  1
  Te2-  Te162  1  0.25480136  0.07705860  0.91522221  1
  Te2-  Te163  1  0.25368281  0.41266053  0.25305680  1
  Te2-  Te164  1  0.25337546  0.41691110  0.58203268  1
  Te2-  Te165  1  0.24957217  0.41596518  0.91516464  1
  Te2-  Te166  1  0.25441014  0.74836248  0.25111760  1
  Te2-  Te167  1  0.25014600  0.74917620  0.58680065  1
  Te2-  Te168  1  0.24877249  0.74423686  0.92485207  1
  Te2-  Te169  1  0.58702560  0.08436316  0.25657438  1
  Te2-  Te170  1  0.58067346  0.08020729  0.58357048  1
  Te2-  Te171  1  0.58884879  0.08432002  0.92055546  1
  Te2-  Te172  1  0.58780260  0.41687768  0.24834939  1
  Te2-  Te173  1  0.58544091  0.41239294  0.59045543  1
  Te2-  Te174  1  0.57919109  0.41036849  0.91479559  1
  Te2-  Te175  1  0.58776144  0.75107500  0.24632863  1
  Te2-  Te176  1  0.58554177  0.74608932  0.58343867  1
  Te2-  Te177  1  0.58742035  0.74598837  0.91775011  1
  Te2-  Te178  1  0.91997380  0.07910704  0.25874845  1
  Te2-  Te179  1  0.91481107  0.08574357  0.58732035  1
  Te2-  Te180  1  0.91792016  0.07774290  0.91588080  1
  Te2-  Te181  1  0.92275846  0.40937687  0.24901026  1
  Te2-  Te182  1  0.92409897  0.41096263  0.58956202  1
  Te2-  Te183  1  0.91510011  0.41614016  0.91625250  1
  Te2-  Te184  1  0.92033062  0.74321336  0.25576431  1
  Te2-  Te185  1  0.91957921  0.74736286  0.58724135  1
  Te2-  Te186  1  0.91725912  0.75044098  0.91907703  1
  Te2-  Te187  1  0.08600362  0.24981897  0.25118505  1
  Te2-  Te188  1  0.07633996  0.25479842  0.58865691  1
  Te2-  Te189  1  0.08385784  0.24805330  0.92030683  1
  Te2-  Te190  1  0.08155887  0.58375839  0.24956821  1
  Te2-  Te191  1  0.08261485  0.58829157  0.57843895  1
  Te2-  Te192  1  0.07862355  0.58177232  0.91746418  1
  Te2-  Te193  1  0.08101322  0.92139284  0.26135817  1
  Te2-  Te194  1  0.08048546  0.92212322  0.58596382  1
  Te2-  Te195  1  0.08107734  0.91543266  0.91958035  1
  Te2-  Te196  1  0.41327237  0.25814330  0.25630636  1
  Te2-  Te197  1  0.40620123  0.25234840  0.58255957  1
  Te2-  Te198  1  0.41429571  0.25225443  0.91944960  1
  Te2-  Te199  1  0.41913607  0.58750484  0.24834545  1
  Te2-  Te200  1  0.41341470  0.58607841  0.58482691  1
  Te2-  Te201  1  0.40539322  0.58441189  0.92426083  1
  Te2-  Te202  1  0.41902584  0.91965026  0.24957649  1
  Te2-  Te203  1  0.41375505  0.91518470  0.58342929  1
  Te2-  Te204  1  0.41357590  0.91941279  0.91623895  1
  Te2-  Te205  1  0.74986103  0.25038724  0.24962573  1
  Te2-  Te206  1  0.74333879  0.25865066  0.58831611  1
  Te2-  Te207  1  0.75091171  0.25080794  0.92047403  1
  Te2-  Te208  1  0.75184513  0.58061022  0.25197698  1
  Te2-  Te209  1  0.75045494  0.58434168  0.58747059  1
  Te2-  Te210  1  0.74682367  0.58766633  0.91703734  1
  Te2-  Te211  1  0.74840020  0.91451015  0.25606754  1
  Te2-  Te212  1  0.74599414  0.92018326  0.58521473  1
  Te2-  Te213  1  0.74619572  0.92291734  0.92370213  1
  Te2-  Te214  1  0.08610867  0.08208164  0.07972225  1
  Te2-  Te215  1  0.07566229  0.08162282  0.41869693  1
  Te2-  Te216  1  0.08024974  0.07765222  0.74719515  1
  Te2-  Te217  1  0.08454656  0.41162083  0.08098604  1
  Te2-  Te218  1  0.08409348  0.41316488  0.40836854  1
  Te2-  Te219  1  0.07804479  0.41137885  0.74311741  1
  Te2-  Te220  1  0.07978347  0.75111172  0.08724253  1
  Te2-  Te221  1  0.07939336  0.75042988  0.41577719  1
  Te2-  Te222  1  0.08137571  0.74274106  0.74726968  1
  Te2-  Te223  1  0.41669828  0.08207101  0.08166127  1
  Te2-  Te224  1  0.41049493  0.07585822  0.41301877  1
  Te2-  Te225  1  0.41946614  0.08100272  0.74840561  1
  Te2-  Te226  1  0.41433634  0.41814110  0.07451765  1
  Te2-  Te227  1  0.41470416  0.41321211  0.41635267  1
  Te2-  Te228  1  0.40510277  0.41275903  0.74478790  1
  Te2-  Te229  1  0.41468760  0.74983841  0.08141341  1
  Te2-  Te230  1  0.41690220  0.74570775  0.40967928  1
  Te2-  Te231  1  0.41182467  0.74769280  0.74416211  1
  Te2-  Te232  1  0.74923029  0.07799958  0.08106345  1
  Te2-  Te233  1  0.74674135  0.08567278  0.41744384  1
  Te2-  Te234  1  0.74406185  0.07977911  0.74554969  1
  Te2-  Te235  1  0.75147903  0.41192290  0.07905935  1
  Te2-  Te236  1  0.74675064  0.41694448  0.41448614  1
  Te2-  Te237  1  0.73967409  0.41292622  0.74577479  1
  Te2-  Te238  1  0.75188338  0.74196340  0.08260421  1
  Te2-  Te239  1  0.75080210  0.74743577  0.41744544  1
  Te2-  Te240  1  0.74303304  0.75147726  0.75027478  1
