# generated using pymatgen
data_Ti27(Cu53Te54)2
_symmetry_space_group_name_H-M   'P 1'
_cell_length_a   17.90480816
_cell_length_b   17.90694375
_cell_length_c   17.89357619
_cell_angle_alpha   89.99631263
_cell_angle_beta   89.97313524
_cell_angle_gamma   90.06154925
_symmetry_Int_Tables_number   1
_chemical_formula_structural   Ti27(Cu53Te54)2
_chemical_formula_sum   'Ti27 Cu106 Te108'
_cell_volume   5737.04146837
_cell_formula_units_Z   1
loop_
 _symmetry_equiv_pos_site_id
 _symmetry_equiv_pos_as_xyz
  1  'x, y, z'
loop_
 _atom_type_symbol
 _atom_type_oxidation_number
  Ti4+  4.0
  Cu+  1.0
  Te2-  -2.0
loop_
 _atom_site_type_symbol
 _atom_site_label
 _atom_site_symmetry_multiplicity
 _atom_site_fract_x
 _atom_site_fract_y
 _atom_site_fract_z
 _atom_site_occupancy
  Ti4+  Ti0  1  0.16813139  0.16499004  0.16967497  1
  Ti4+  Ti1  1  0.16674248  0.16912906  0.50217334  1
  Ti4+  Ti2  1  0.16599187  0.17055140  0.83735718  1
  Ti4+  Ti3  1  0.16914964  0.49866862  0.16530032  1
  Ti4+  Ti4  1  0.16614889  0.49553533  0.49869153  1
  Ti4+  Ti5  1  0.16480022  0.50189360  0.83371156  1
  Ti4+  Ti6  1  0.16689941  0.82995821  0.16588868  1
  Ti4+  Ti7  1  0.16803476  0.83089957  0.50129219  1
  Ti4+  Ti8  1  0.16286039  0.83742452  0.83457776  1
  Ti4+  Ti9  1  0.49957758  0.16663678  0.16628951  1
  Ti4+  Ti10  1  0.50362116  0.16931818  0.49930722  1
  Ti4+  Ti11  1  0.49669245  0.16532739  0.83065826  1
  Ti4+  Ti12  1  0.50041134  0.50007649  0.16590428  1
  Ti4+  Ti13  1  0.49893873  0.50259256  0.50149517  1
  Ti4+  Ti14  1  0.49944180  0.50106080  0.83250094  1
  Ti4+  Ti15  1  0.49828236  0.83328507  0.16594942  1
  Ti4+  Ti16  1  0.50156064  0.83328354  0.50596434  1
  Ti4+  Ti17  1  0.50215455  0.83568420  0.82865862  1
  Ti4+  Ti18  1  0.83285489  0.16571430  0.16600449  1
  Ti4+  Ti19  1  0.83746749  0.16399667  0.49827635  1
  Ti4+  Ti20  1  0.83278283  0.16813399  0.83301498  1
  Ti4+  Ti21  1  0.83126681  0.49960621  0.16830055  1
  Ti4+  Ti22  1  0.83479858  0.49844980  0.49450950  1
  Ti4+  Ti23  1  0.83142551  0.49900484  0.83441689  1
  Ti4+  Ti24  1  0.83615605  0.83275409  0.16751338  1
  Ti4+  Ti25  1  0.83304541  0.83057106  0.49770851  1
  Ti4+  Ti26  1  0.83391866  0.83262735  0.83495384  1
  Cu+  Cu27  1  0.16466957  0.16819701  0.00283310  1
  Cu+  Cu28  1  0.16944185  0.16765789  0.33413673  1
  Cu+  Cu29  1  0.16262883  0.17299059  0.67282063  1
  Cu+  Cu30  1  0.16219306  0.50210620  0.00117588  1
  Cu+  Cu31  1  0.16819382  0.49570350  0.33094504  1
  Cu+  Cu32  1  0.16840658  0.49492896  0.66624820  1
  Cu+  Cu33  1  0.16106755  0.83777217  0.00104297  1
  Cu+  Cu34  1  0.17303816  0.82962679  0.33211313  1
  Cu+  Cu35  1  0.16467052  0.83123554  0.66969233  1
  Cu+  Cu36  1  0.49545305  0.16535698  -0.00166290  1
  Cu+  Cu37  1  0.50347842  0.16644053  0.33185269  1
  Cu+  Cu38  1  0.50022160  0.16329191  0.66176835  1
  Cu+  Cu39  1  0.49814357  0.50260844  -0.00021366  1
  Cu+  Cu40  1  0.49996990  0.49840460  0.33366751  1
  Cu+  Cu41  1  0.50084422  0.50404691  0.66589895  1
  Cu+  Cu42  1  0.50047877  0.83507351  -0.00351748  1
  Cu+  Cu43  1  0.49967925  0.83308412  0.33785661  1
  Cu+  Cu44  1  0.49782242  0.83127084  0.67002563  1
  Cu+  Cu45  1  0.82973534  0.16897121  0.00099458  1
  Cu+  Cu46  1  0.83239173  0.16615278  0.33214970  1
  Cu+  Cu47  1  0.83977759  0.16518529  0.66223182  1
  Cu+  Cu48  1  0.83255317  0.49933351  -0.00011203  1
  Cu+  Cu49  1  0.83464974  0.49960048  0.33433924  1
  Cu+  Cu50  1  0.83074781  0.49850785  0.66879144  1
  Cu+  Cu51  1  0.83480679  0.83243361  0.00075563  1
  Cu+  Cu52  1  0.83421786  0.82524596  0.33033140  1
  Cu+  Cu53  1  0.83263447  0.83243355  0.66528563  1
  Cu+  Cu54  1  0.16781252  -0.00380599  0.16780627  1
  Cu+  Cu55  1  0.16709436  -0.00195773  0.50073480  1
  Cu+  Cu56  1  0.16598533  0.00516286  0.83857562  1
  Cu+  Cu57  1  0.17012068  0.33189068  0.17050091  1
  Cu+  Cu58  1  0.16545631  0.33213030  0.50011356  1
  Cu+  Cu59  1  0.16630429  0.33719587  0.83224992  1
  Cu+  Cu60  1  0.16458704  0.66263832  0.16206891  1
  Cu+  Cu61  1  0.16570121  0.65877779  0.50219146  1
  Cu+  Cu62  1  0.16354623  0.67214817  0.83661583  1
  Cu+  Cu63  1  0.49827798  0.00025817  0.16676531  1
  Cu+  Cu64  1  0.50122178  0.00335862  0.50458647  1
  Cu+  Cu65  1  0.50158501  0.00175859  0.82349057  1
  Cu+  Cu66  1  0.50048396  0.33254247  0.16660219  1
  Cu+  Cu67  1  0.50415242  0.33821536  0.49710400  1
  Cu+  Cu68  1  0.49646039  0.33200142  0.83272089  1
  Cu+  Cu69  1  0.49762247  0.66534354  0.16335502  1
  Cu+  Cu70  1  0.50376836  0.66664947  0.51139677  1
  Cu+  Cu71  1  0.50303852  0.66853439  0.83178007  1
  Cu+  Cu72  1  0.83432263  -0.00014701  0.16781225  1
  Cu+  Cu73  1  0.83668869  -0.00205392  0.49716702  1
  Cu+  Cu74  1  0.83290741  -0.00043598  0.83442397  1
  Cu+  Cu75  1  0.83074305  0.33076984  0.16386443  1
  Cu+  Cu76  1  0.83878505  0.33026939  0.49282908  1
  Cu+  Cu77  1  0.83072415  0.33637897  0.83469758  1
  Cu+  Cu78  1  0.83257653  0.66945472  0.17285593  1
  Cu+  Cu79  1  0.83515519  0.66796884  0.49031638  1
  Cu+  Cu80  1  0.83424295  0.66308058  0.83734982  1
  Cu+  Cu81  1  -0.00106774  0.16547679  0.16893289  1
  Cu+  Cu82  1  0.00026693  0.16795355  0.50511979  1
  Cu+  Cu83  1  0.00088871  0.17221289  0.83635673  1
  Cu+  Cu84  1  0.00145021  0.49913454  0.16582959  1
  Cu+  Cu85  1  0.00091096  0.49197608  0.49508325  1
  Cu+  Cu86  1  -0.00521822  0.50105232  0.83626194  1
  Cu+  Cu87  1  0.00426989  0.83585767  0.16343562  1
  Cu+  Cu88  1  0.00016133  0.82897318  0.49798539  1
  Cu+  Cu89  1  -0.00322428  0.83523241  0.83736346  1
  Cu+  Cu90  1  0.33289085  0.16678873  0.17180869  1
  Cu+  Cu91  1  0.33743525  0.17019427  0.50101765  1
  Cu+  Cu92  1  0.32795302  0.16385765  0.83266508  1
  Cu+  Cu93  1  0.33805630  0.50145664  0.16270355  1
  Cu+  Cu94  1  0.32920870  0.50228335  0.50287626  1
  Cu+  Cu95  1  0.33225564  0.50025972  0.83127337  1
  Cu+  Cu96  1  0.33173276  0.83116767  0.16924630  1
  Cu+  Cu97  1  0.33631973  0.83015421  0.50525225  1
  Cu+  Cu98  1  0.33022220  0.83698784  0.83153804  1
  Cu+  Cu99  1  0.66608587  0.16754031  0.16205644  1
  Cu+  Cu100  1  0.67459043  0.17004031  0.49665269  1
  Cu+  Cu101  1  0.66241133  0.16488097  0.83215717  1
  Cu+  Cu102  1  0.66418181  0.50060497  0.16823844  1
  Cu+  Cu103  1  0.66452171  0.50173228  0.49470375  1
  Cu+  Cu104  1  0.66803338  0.49758279  0.83671761  1
  Cu+  Cu105  1  0.66511489  0.83412346  0.16669611  1
  Cu+  Cu106  1  0.66533720  0.83494883  0.50222459  1
  Cu+  Cu107  1  0.67309024  0.83809724  0.82682702  1
  Cu+  Cu108  1  0.59608165  0.08091914  0.73463169  1
  Cu+  Cu109  1  0.73289596  0.74416853  0.25431390  1
  Cu+  Cu110  1  0.26294640  0.40710136  0.74148071  1
  Cu+  Cu111  1  0.59998649  0.58671755  0.59513063  1
  Cu+  Cu112  1  0.60265569  0.73692548  0.75133540  1
  Cu+  Cu113  1  0.40749265  0.73785132  0.59420641  1
  Cu+  Cu114  1  0.74463264  0.25602424  0.40364755  1
  Cu+  Cu115  1  0.26078660  0.92357335  0.26019924  1
  Cu+  Cu116  1  0.73681339  0.26166452  0.06953253  1
  Cu+  Cu117  1  0.25269423  0.58865977  0.59496574  1
  Cu+  Cu118  1  0.06776643  0.59006499  0.07396987  1
  Cu+  Cu119  1  0.58954225  0.40900217  0.40259395  1
  Cu+  Cu120  1  0.07074295  0.26633635  0.74864514  1
  Cu+  Cu121  1  0.93401946  0.74232106  0.40245275  1
  Cu+  Cu122  1  0.73580925  0.59490227  0.40844607  1
  Cu+  Cu123  1  0.07313832  0.93205067  0.07437493  1
  Cu+  Cu124  1  0.25466057  0.74204284  0.74919673  1
  Cu+  Cu125  1  0.40440528  0.07635767  0.58430703  1
  Cu+  Cu126  1  0.40871878  0.59636851  0.06960265  1
  Cu+  Cu127  1  0.24499533  0.07562265  0.73999702  1
  Cu+  Cu128  1  0.92331356  0.26297112  0.59317646  1
  Cu+  Cu129  1  0.75204651  0.92991943  0.73490473  1
  Cu+  Cu130  1  0.26284367  0.26293432  0.26131629  1
  Cu+  Cu131  1  0.40232176  0.92619250  0.74392490  1
  Cu+  Cu132  1  0.93086236  0.40157005  0.40036328  1
  Te2-  Te133  1  0.25292080  0.25048111  0.08278297  1
  Te2-  Te134  1  0.25469933  0.25350069  0.41690083  1
  Te2-  Te135  1  0.25500462  0.25626161  0.74798120  1
  Te2-  Te136  1  0.25490473  0.58558834  0.07736703  1
  Te2-  Te137  1  0.25055005  0.58290714  0.41226918  1
  Te2-  Te138  1  0.25171809  0.58980543  0.74794062  1
  Te2-  Te139  1  0.25375234  0.91678894  0.08015123  1
  Te2-  Te140  1  0.25617258  0.91642747  0.41784236  1
  Te2-  Te141  1  0.24858734  0.92463451  0.74481658  1
  Te2-  Te142  1  0.58275929  0.25278631  0.07672167  1
  Te2-  Te143  1  0.58991447  0.25481196  0.41029228  1
  Te2-  Te144  1  0.58222218  0.25183165  0.74594461  1
  Te2-  Te145  1  0.58700916  0.58611153  0.08020861  1
  Te2-  Te146  1  0.58127621  0.59168037  0.41171201  1
  Te2-  Te147  1  0.59138869  0.58535365  0.74791963  1
  Te2-  Te148  1  0.58391240  0.91859795  0.08150548  1
  Te2-  Te149  1  0.58347623  0.91971129  0.41857522  1
  Te2-  Te150  1  0.59108286  0.92280038  0.73933095  1
  Te2-  Te151  1  0.92022002  0.25116545  0.08129204  1
  Te2-  Te152  1  0.92629501  0.24824658  0.40803101  1
  Te2-  Te153  1  0.91837090  0.25713375  0.74770135  1
  Te2-  Te154  1  0.91511705  0.58624015  0.08302958  1
  Te2-  Te155  1  0.92545458  0.58503298  0.41044451  1
  Te2-  Te156  1  0.91685176  0.58469330  0.74771924  1
  Te2-  Te157  1  0.91929752  0.92096558  0.08010777  1
  Te2-  Te158  1  0.91885924  0.91454397  0.41157154  1
  Te2-  Te159  1  0.91853695  0.91865388  0.74721894  1
  Te2-  Te160  1  0.25363412  0.07715735  0.25613360  1
  Te2-  Te161  1  0.25147326  0.08137148  0.58744331  1
  Te2-  Te162  1  0.25127279  0.08343785  0.92451301  1
  Te2-  Te163  1  0.25874432  0.41571284  0.25155077  1
  Te2-  Te164  1  0.25422238  0.40838894  0.58568436  1
  Te2-  Te165  1  0.25031334  0.41821418  0.91997116  1
  Te2-  Te166  1  0.25189670  0.74036374  0.24939052  1
  Te2-  Te167  1  0.25255797  0.74302518  0.59094052  1
  Te2-  Te168  1  0.25004084  0.75388422  0.92108365  1
  Te2-  Te169  1  0.58642102  0.08130253  0.24944188  1
  Te2-  Te170  1  0.59479735  0.08324378  0.58227182  1
  Te2-  Te171  1  0.58092457  0.07985365  0.91756342  1
  Te2-  Te172  1  0.58676934  0.41195196  0.25203640  1
  Te2-  Te173  1  0.58738110  0.41750138  0.58699286  1
  Te2-  Te174  1  0.58105876  0.41467730  0.91777001  1
  Te2-  Te175  1  0.58077753  0.74631221  0.25284170  1
  Te2-  Te176  1  0.59320170  0.74746526  0.59334920  1
  Te2-  Te177  1  0.58864129  0.75243459  0.91490774  1
  Te2-  Te178  1  0.91808193  0.08062634  0.25335899  1
  Te2-  Te179  1  0.92196039  0.07542135  0.58415941  1
  Te2-  Te180  1  0.91675213  0.08512010  0.91801249  1
  Te2-  Te181  1  0.91873241  0.41189398  0.24887510  1
  Te2-  Te182  1  0.91764278  0.41501109  0.58648194  1
  Te2-  Te183  1  0.91750297  0.41353203  0.92091490  1
  Te2-  Te184  1  0.92811895  0.74614699  0.25010960  1
  Te2-  Te185  1  0.91711976  0.74559319  0.58431338  1
  Te2-  Te186  1  0.91867871  0.74631065  0.92062008  1
  Te2-  Te187  1  0.08087979  0.25077615  0.25316464  1
  Te2-  Te188  1  0.07946794  0.25723231  0.58922104  1
  Te2-  Te189  1  0.08159913  0.25738404  0.92322010  1
  Te2-  Te190  1  0.08316442  0.58263762  0.25254649  1
  Te2-  Te191  1  0.07818113  0.57824893  0.58518656  1
  Te2-  Te192  1  0.07746346  0.58804811  0.91856771  1
  Te2-  Te193  1  0.08330719  0.91565218  0.25591458  1
  Te2-  Te194  1  0.08084748  0.91494356  0.58409922  1
  Te2-  Te195  1  0.07668210  0.92467355  0.91978300  1
  Te2-  Te196  1  0.41647079  0.25380479  0.25525089  1
  Te2-  Te197  1  0.41978522  0.25712396  0.58421452  1
  Te2-  Te198  1  0.41085928  0.24995854  0.91606689  1
  Te2-  Te199  1  0.41531577  0.58492432  0.25360070  1
  Te2-  Te200  1  0.40856093  0.58650388  0.59107066  1
  Te2-  Te201  1  0.41335626  0.58903531  0.91529812  1
  Te2-  Te202  1  0.41480637  0.91806050  0.25481476  1
  Te2-  Te203  1  0.41166427  0.92243818  0.58985908  1
  Te2-  Te204  1  0.41677938  0.92133713  0.91378557  1
  Te2-  Te205  1  0.74495648  0.25258103  0.25189601  1
  Te2-  Te206  1  0.75334429  0.25368089  0.58517401  1
  Te2-  Te207  1  0.74356910  0.25251555  0.91593196  1
  Te2-  Te208  1  0.74409313  0.58647116  0.25516103  1
  Te2-  Te209  1  0.75180727  0.58610256  0.58256316  1
  Te2-  Te210  1  0.74646262  0.58476248  0.92121056  1
  Te2-  Te211  1  0.74979591  0.91757860  0.25277263  1
  Te2-  Te212  1  0.74891246  0.92048848  0.58297473  1
  Te2-  Te213  1  0.74877440  0.91855656  0.92150405  1
  Te2-  Te214  1  0.08016339  0.08154462  0.08288544  1
  Te2-  Te215  1  0.08340754  0.08322751  0.41791607  1
  Te2-  Te216  1  0.07878273  0.08273289  0.75110810  1
  Te2-  Te217  1  0.08312294  0.41064976  0.08294480  1
  Te2-  Te218  1  0.08283486  0.40809101  0.40909005  1
  Te2-  Te219  1  0.07537122  0.41817714  0.74820712  1
  Te2-  Te220  1  0.07887425  0.74458662  0.07749019  1
  Te2-  Te221  1  0.08667609  0.74358687  0.41397176  1
  Te2-  Te222  1  0.07597870  0.75038005  0.75060883  1
  Te2-  Te223  1  0.41220286  0.08196832  0.08333483  1
  Te2-  Te224  1  0.41759125  0.08297056  0.41481070  1
  Te2-  Te225  1  0.40602166  0.07963365  0.74092960  1
  Te2-  Te226  1  0.41649557  0.41229578  0.07999960  1
  Te2-  Te227  1  0.41178360  0.41753697  0.41698869  1
  Te2-  Te228  1  0.41554407  0.41510572  0.74478147  1
  Te2-  Te229  1  0.41278522  0.75013818  0.07734607  1
  Te2-  Te230  1  0.41815113  0.74564647  0.42089263  1
  Te2-  Te231  1  0.40954689  0.74317635  0.74782819  1
  Te2-  Te232  1  0.74790479  0.07834996  0.08111411  1
  Te2-  Te233  1  0.74991142  0.07801095  0.41296896  1
  Te2-  Te234  1  0.74913776  0.08222705  0.74324971  1
  Te2-  Te235  1  0.74498509  0.41590581  0.08102714  1
  Te2-  Te236  1  0.74525862  0.41059861  0.40919250  1
  Te2-  Te237  1  0.74497742  0.41365098  0.74767846  1
  Te2-  Te238  1  0.74897661  0.74801615  0.08249129  1
  Te2-  Te239  1  0.73912764  0.74717710  0.41168946  1
  Te2-  Te240  1  0.75255327  0.74182313  0.74686543  1
