# generated using pymatgen
data_Ti27(Cu53Te54)2
_symmetry_space_group_name_H-M   'P 1'
_cell_length_a   17.88942840
_cell_length_b   17.89047821
_cell_length_c   17.88690064
_cell_angle_alpha   89.98325154
_cell_angle_beta   89.98516849
_cell_angle_gamma   89.98177801
_symmetry_Int_Tables_number   1
_chemical_formula_structural   Ti27(Cu53Te54)2
_chemical_formula_sum   'Ti27 Cu106 Te108'
_cell_volume   5724.70949724
_cell_formula_units_Z   1
loop_
 _symmetry_equiv_pos_site_id
 _symmetry_equiv_pos_as_xyz
  1  'x, y, z'
loop_
 _atom_type_symbol
 _atom_type_oxidation_number
  Ti4+  4.0
  Cu+  1.0
  Te2-  -2.0
loop_
 _atom_site_type_symbol
 _atom_site_label
 _atom_site_symmetry_multiplicity
 _atom_site_fract_x
 _atom_site_fract_y
 _atom_site_fract_z
 _atom_site_occupancy
  Ti4+  Ti0  1  0.16538238  0.16554142  0.16745401  1
  Ti4+  Ti1  1  0.16775588  0.16842551  0.49956641  1
  Ti4+  Ti2  1  0.16826569  0.16478140  0.83344742  1
  Ti4+  Ti3  1  0.16576344  0.50234869  0.16811397  1
  Ti4+  Ti4  1  0.16709475  0.49993240  0.50258378  1
  Ti4+  Ti5  1  0.16719929  0.49851163  0.83546118  1
  Ti4+  Ti6  1  0.16688362  0.83232926  0.16525413  1
  Ti4+  Ti7  1  0.16489278  0.83246275  0.49728614  1
  Ti4+  Ti8  1  0.16838729  0.83122767  0.83172483  1
  Ti4+  Ti9  1  0.49655072  0.16679569  0.16827144  1
  Ti4+  Ti10  1  0.50459516  0.16575468  0.49852033  1
  Ti4+  Ti11  1  0.50032955  0.16576428  0.83410377  1
  Ti4+  Ti12  1  0.50205449  0.49877356  0.16693248  1
  Ti4+  Ti13  1  0.50453182  0.50027633  0.50127989  1
  Ti4+  Ti14  1  0.50104778  0.49921719  0.83360956  1
  Ti4+  Ti15  1  0.49430637  0.83288835  0.16574970  1
  Ti4+  Ti16  1  0.49924061  0.83298435  0.49921533  1
  Ti4+  Ti17  1  0.50051877  0.83281874  0.83290585  1
  Ti4+  Ti18  1  0.83344905  0.16476191  0.16820812  1
  Ti4+  Ti19  1  0.83146194  0.16508519  0.50487646  1
  Ti4+  Ti20  1  0.83605197  0.16636917  0.83670995  1
  Ti4+  Ti21  1  0.83087915  0.50676323  0.16321447  1
  Ti4+  Ti22  1  0.83373725  0.49986191  0.49640370  1
  Ti4+  Ti23  1  0.83453260  0.50156539  0.83225439  1
  Ti4+  Ti24  1  0.82971341  0.83382220  0.16602176  1
  Ti4+  Ti25  1  0.83336510  0.83544764  0.49913807  1
  Ti4+  Ti26  1  0.83548217  0.83433826  0.83301013  1
  Cu+  Cu27  1  0.16730723  0.16143196  0.00024787  1
  Cu+  Cu28  1  0.16712942  0.17082538  0.33334591  1
  Cu+  Cu29  1  0.16837405  0.16553954  0.66617397  1
  Cu+  Cu30  1  0.16699753  0.49932975  0.00068985  1
  Cu+  Cu31  1  0.16625329  0.50249098  0.33771418  1
  Cu+  Cu32  1  0.16421211  0.50143643  0.67092475  1
  Cu+  Cu33  1  0.17007113  0.82966359  -0.00286996  1
  Cu+  Cu34  1  0.16330678  0.83386296  0.32946713  1
  Cu+  Cu35  1  0.16736743  0.83203777  0.66295239  1
  Cu+  Cu36  1  0.49809839  0.16463853  -0.00136021  1
  Cu+  Cu37  1  0.49486876  0.17341986  0.33406633  1
  Cu+  Cu38  1  0.50467163  0.16457292  0.66750109  1
  Cu+  Cu39  1  0.50155591  0.49531842  -0.00029158  1
  Cu+  Cu40  1  0.50848667  0.50113565  0.33522075  1
  Cu+  Cu41  1  0.50006132  0.50003034  0.67049716  1
  Cu+  Cu42  1  0.49818896  0.83110500  -0.00018275  1
  Cu+  Cu43  1  0.49306121  0.83258046  0.33153462  1
  Cu+  Cu44  1  0.50115251  0.83552490  0.66580345  1
  Cu+  Cu45  1  0.83487358  0.16742039  0.00164072  1
  Cu+  Cu46  1  0.83047466  0.15941127  0.33641559  1
  Cu+  Cu47  1  0.83680196  0.16403699  0.67358637  1
  Cu+  Cu48  1  0.83432724  0.50352887  -0.00284603  1
  Cu+  Cu49  1  0.82645925  0.50852520  0.32930001  1
  Cu+  Cu50  1  0.83613469  0.49846458  0.66374256  1
  Cu+  Cu51  1  0.83030784  0.82770382  -0.00390658  1
  Cu+  Cu52  1  0.83365963  0.83936191  0.33279751  1
  Cu+  Cu53  1  0.83590702  0.83463636  0.66787226  1
  Cu+  Cu54  1  0.17246000  0.00044790  0.16419535  1
  Cu+  Cu55  1  0.16574847  0.00267853  0.49787239  1
  Cu+  Cu56  1  0.16849089  -0.00324421  0.83189823  1
  Cu+  Cu57  1  0.16501951  0.33493805  0.16828891  1
  Cu+  Cu58  1  0.16779596  0.33571688  0.50422670  1
  Cu+  Cu59  1  0.16840248  0.33123979  0.83591495  1
  Cu+  Cu60  1  0.16587505  0.66920974  0.16537068  1
  Cu+  Cu61  1  0.16398306  0.66455225  0.49695117  1
  Cu+  Cu62  1  0.16489278  0.66315337  0.83171102  1
  Cu+  Cu63  1  0.49494502  -0.00161666  0.16882008  1
  Cu+  Cu64  1  0.50384402  -0.00299595  0.50286060  1
  Cu+  Cu65  1  0.50084291  0.00100217  0.83348377  1
  Cu+  Cu66  1  0.50275018  0.33087474  0.16451153  1
  Cu+  Cu67  1  0.50670543  0.33338630  0.49940423  1
  Cu+  Cu68  1  0.49858332  0.33243756  0.83421660  1
  Cu+  Cu69  1  0.49691576  0.66633348  0.16841202  1
  Cu+  Cu70  1  0.50005817  0.66912645  0.50055884  1
  Cu+  Cu71  1  0.49910389  0.66388681  0.83317588  1
  Cu+  Cu72  1  0.83171190  0.00013475  0.17231568  1
  Cu+  Cu73  1  0.83329629  0.00118613  0.50123973  1
  Cu+  Cu74  1  0.83849692  0.00007710  0.83562040  1
  Cu+  Cu75  1  0.83324554  0.33859225  0.16453963  1
  Cu+  Cu76  1  0.82845683  0.33137073  0.50411459  1
  Cu+  Cu77  1  0.83563294  0.33203737  0.83382945  1
  Cu+  Cu78  1  0.83477746  0.67276592  0.15828990  1
  Cu+  Cu79  1  0.83417773  0.66974011  0.49629682  1
  Cu+  Cu80  1  0.83352051  0.66817835  0.83322858  1
  Cu+  Cu81  1  0.00133632  0.16597326  0.16597245  1
  Cu+  Cu82  1  -0.00035902  0.16635001  0.50241573  1
  Cu+  Cu83  1  0.00261351  0.16396274  0.83495913  1
  Cu+  Cu84  1  -0.00209318  0.50524168  0.16575704  1
  Cu+  Cu85  1  0.00142995  0.50191207  0.49697093  1
  Cu+  Cu86  1  0.00147198  0.50215620  0.83152958  1
  Cu+  Cu87  1  -0.00474660  0.83280692  0.16680930  1
  Cu+  Cu88  1  -0.00134556  0.83492795  0.49847887  1
  Cu+  Cu89  1  0.00299626  0.83376878  0.83246938  1
  Cu+  Cu90  1  0.32686767  0.16573320  0.16694408  1
  Cu+  Cu91  1  0.33673170  0.16483130  0.49517457  1
  Cu+  Cu92  1  0.33530496  0.16615319  0.83246311  1
  Cu+  Cu93  1  0.33503889  0.50013889  0.16763424  1
  Cu+  Cu94  1  0.33364260  0.49847361  0.50503093  1
  Cu+  Cu95  1  0.33431183  0.49741615  0.83635048  1
  Cu+  Cu96  1  0.32970881  0.82861041  0.16790757  1
  Cu+  Cu97  1  0.33164477  0.83273361  0.49703080  1
  Cu+  Cu98  1  0.33501665  0.83232709  0.83170026  1
  Cu+  Cu99  1  0.66770111  0.16028588  0.17070875  1
  Cu+  Cu100  1  0.66913856  0.17370321  0.50410787  1
  Cu+  Cu101  1  0.66960558  0.16638437  0.83589877  1
  Cu+  Cu102  1  0.66616770  0.50133152  0.16748527  1
  Cu+  Cu103  1  0.67022441  0.49707155  0.49651779  1
  Cu+  Cu104  1  0.66586179  0.50067533  0.83197594  1
  Cu+  Cu105  1  0.65688664  0.83559081  0.16280355  1
  Cu+  Cu106  1  0.66552516  0.83591339  0.50101663  1
  Cu+  Cu107  1  0.67041684  0.83320617  0.83515551  1
  Cu+  Cu108  1  0.73774560  0.06995024  0.26569681  1
  Cu+  Cu109  1  0.25146057  0.26630348  0.26008866  1
  Cu+  Cu110  1  0.58565958  0.73861489  0.07276928  1
  Cu+  Cu111  1  0.59398859  0.25516481  0.25153122  1
  Cu+  Cu112  1  0.07153677  0.59475903  0.74200304  1
  Cu+  Cu113  1  0.59172679  0.59737159  0.25849541  1
  Cu+  Cu114  1  0.73844816  0.73652270  0.92050496  1
  Cu+  Cu115  1  0.92850484  0.74662692  0.06738880  1
  Cu+  Cu116  1  0.75158617  0.25647827  0.40571999  1
  Cu+  Cu117  1  0.74403728  0.40976020  0.59772984  1
  Cu+  Cu118  1  0.74089565  0.60115485  0.41108186  1
  Cu+  Cu119  1  0.06735787  0.74210249  0.25654686  1
  Cu+  Cu120  1  0.59266403  0.40067279  0.06780624  1
  Cu+  Cu121  1  0.74592341  0.40993961  0.25283686  1
  Cu+  Cu122  1  0.40639273  0.26512185  0.41717514  1
  Cu+  Cu123  1  0.58468744  0.92476119  0.25873019  1
  Cu+  Cu124  1  0.25627163  0.92705375  0.26149446  1
  Cu+  Cu125  1  0.58756821  0.26161640  0.60025574  1
  Cu+  Cu126  1  0.26047991  0.07390147  0.06790970  1
  Cu+  Cu127  1  0.59399762  0.40632355  0.40846832  1
  Cu+  Cu128  1  0.07387447  0.59155714  0.40608726  1
  Cu+  Cu129  1  0.59635980  0.92288681  0.59801476  1
  Cu+  Cu130  1  0.40284050  0.73530030  0.26297893  1
  Cu+  Cu131  1  0.92727932  0.92858317  0.26003435  1
  Cu+  Cu132  1  0.25781585  0.73544629  0.06799301  1
  Te2-  Te133  1  0.24887172  0.25329547  0.08034289  1
  Te2-  Te134  1  0.25464977  0.25878023  0.41419301  1
  Te2-  Te135  1  0.25270253  0.25104585  0.74825460  1
  Te2-  Te136  1  0.25355780  0.58450822  0.08095014  1
  Te2-  Te137  1  0.25597131  0.58432899  0.41737878  1
  Te2-  Te138  1  0.25509782  0.58322406  0.74985454  1
  Te2-  Te139  1  0.25543542  0.91672102  0.07705572  1
  Te2-  Te140  1  0.25086410  0.92016018  0.41304338  1
  Te2-  Te141  1  0.25291730  0.91580941  0.74549420  1
  Te2-  Te142  1  0.58806844  0.24597587  0.07980131  1
  Te2-  Te143  1  0.59405522  0.25445170  0.40738607  1
  Te2-  Te144  1  0.58847476  0.25334394  0.75118282  1
  Te2-  Te145  1  0.58490816  0.58603194  0.07872101  1
  Te2-  Te146  1  0.58958128  0.59300593  0.41501932  1
  Te2-  Te147  1  0.58625239  0.58606241  0.74767928  1
  Te2-  Te148  1  0.57852583  0.92248880  0.07863340  1
  Te2-  Te149  1  0.58460903  0.91826658  0.41066419  1
  Te2-  Te150  1  0.58869088  0.91968655  0.75024778  1
  Te2-  Te151  1  0.91783547  0.25259525  0.08486064  1
  Te2-  Te152  1  0.91527130  0.24989053  0.41700212  1
  Te2-  Te153  1  0.92249963  0.25122539  0.75065316  1
  Te2-  Te154  1  0.92033083  0.58920383  0.07644441  1
  Te2-  Te155  1  0.91880961  0.58769947  0.41054276  1
  Te2-  Te156  1  0.91776167  0.58801063  0.74447851  1
  Te2-  Te157  1  0.91383995  0.91815256  0.07954347  1
  Te2-  Te158  1  0.92008925  0.92375242  0.41430425  1
  Te2-  Te159  1  0.92188794  0.91939143  0.74824816  1
  Te2-  Te160  1  0.25252504  0.07993218  0.25815120  1
  Te2-  Te161  1  0.25419008  0.08238205  0.58233600  1
  Te2-  Te162  1  0.25601276  0.07688545  0.91684706  1
  Te2-  Te163  1  0.25198901  0.41865873  0.25487661  1
  Te2-  Te164  1  0.25160058  0.41592582  0.59061366  1
  Te2-  Te165  1  0.25249868  0.41302148  0.92147689  1
  Te2-  Te166  1  0.25113442  0.74310605  0.25656786  1
  Te2-  Te167  1  0.25022530  0.74650765  0.58085106  1
  Te2-  Te168  1  0.25516224  0.74236809  0.91508833  1
  Te2-  Te169  1  0.58120248  0.07883729  0.25783424  1
  Te2-  Te170  1  0.59037836  0.07972262  0.58603470  1
  Te2-  Te171  1  0.58648619  0.08090311  0.91968508  1
  Te2-  Te172  1  0.59049691  0.40860860  0.25541605  1
  Te2-  Te173  1  0.58977041  0.41467991  0.59192726  1
  Te2-  Te174  1  0.58895547  0.41076711  0.91711516  1
  Te2-  Te175  1  0.58475473  0.74854039  0.25497158  1
  Te2-  Te176  1  0.58591899  0.74806170  0.58543394  1
  Te2-  Te177  1  0.58582702  0.74367125  0.91925965  1
  Te2-  Te178  1  0.92255085  0.08187876  0.25516272  1
  Te2-  Te179  1  0.91913797  0.08054624  0.58776064  1
  Te2-  Te180  1  0.92154089  0.08107333  0.92259363  1
  Te2-  Te181  1  0.91558141  0.42208627  0.25101410  1
  Te2-  Te182  1  0.92074467  0.41424285  0.58045506  1
  Te2-  Te183  1  0.91967615  0.41683709  0.91747041  1
  Te2-  Te184  1  0.91405126  0.74611823  0.25545821  1
  Te2-  Te185  1  0.91800222  0.74917129  0.58361201  1
  Te2-  Te186  1  0.92444665  0.74568194  0.91663731  1
  Te2-  Te187  1  0.07878446  0.25307813  0.25223496  1
  Te2-  Te188  1  0.08230405  0.25161611  0.58614115  1
  Te2-  Te189  1  0.08344584  0.24907888  0.92064549  1
  Te2-  Te190  1  0.07769292  0.58904070  0.25339366  1
  Te2-  Te191  1  0.07846071  0.58696196  0.58734164  1
  Te2-  Te192  1  0.08097495  0.58509197  0.92151456  1
  Te2-  Te193  1  0.07942809  0.92245004  0.24841433  1
  Te2-  Te194  1  0.08224883  0.91878778  0.58278093  1
  Te2-  Te195  1  0.08443981  0.91655723  0.91871214  1
  Te2-  Te196  1  0.40820756  0.25678079  0.25123216  1
  Te2-  Te197  1  0.41830234  0.25109581  0.58392652  1
  Te2-  Te198  1  0.41413480  0.25139578  0.91939443  1
  Te2-  Te199  1  0.41433952  0.58178711  0.25661801  1
  Te2-  Te200  1  0.41859334  0.58425023  0.58522936  1
  Te2-  Te201  1  0.41582828  0.58303589  0.92078135  1
  Te2-  Te202  1  0.40735834  0.92062451  0.25331709  1
  Te2-  Te203  1  0.41211118  0.91767290  0.58374428  1
  Te2-  Te204  1  0.41539424  0.91756676  0.91756310  1
  Te2-  Te205  1  0.74668426  0.25593636  0.25379694  1
  Te2-  Te206  1  0.74752580  0.25266751  0.59812338  1
  Te2-  Te207  1  0.74972596  0.25305425  0.92081251  1
  Te2-  Te208  1  0.74468459  0.59863914  0.24940266  1
  Te2-  Te209  1  0.74935923  0.58603426  0.58292731  1
  Te2-  Te210  1  0.74571062  0.58561285  0.91824829  1
  Te2-  Te211  1  0.73938324  0.91837787  0.25385887  1
  Te2-  Te212  1  0.74938104  0.92036976  0.58794894  1
  Te2-  Te213  1  0.75027826  0.92104569  0.91923026  1
  Te2-  Te214  1  0.08024043  0.07786609  0.08215376  1
  Te2-  Te215  1  0.08110658  0.08513683  0.41362598  1
  Te2-  Te216  1  0.08357065  0.07958201  0.74773444  1
  Te2-  Te217  1  0.08018031  0.41714882  0.08393919  1
  Te2-  Te218  1  0.08228229  0.41281722  0.41555730  1
  Te2-  Te219  1  0.08181162  0.41125463  0.75039043  1
  Te2-  Te220  1  0.07919558  0.74772918  0.07748021  1
  Te2-  Te221  1  0.07530349  0.74689431  0.41081981  1
  Te2-  Te222  1  0.08074227  0.74775913  0.74454652  1
  Te2-  Te223  1  0.41299300  0.08055016  0.08166902  1
  Te2-  Te224  1  0.41980842  0.07773726  0.41466037  1
  Te2-  Te225  1  0.41628107  0.08100712  0.74640768  1
  Te2-  Te226  1  0.41478252  0.41322997  0.08327875  1
  Te2-  Te227  1  0.41590831  0.41717873  0.41489223  1
  Te2-  Te228  1  0.41465216  0.41363146  0.74887568  1
  Te2-  Te229  1  0.41062755  0.74362790  0.07791900  1
  Te2-  Te230  1  0.41151065  0.74457741  0.41474700  1
  Te2-  Te231  1  0.41716904  0.74770800  0.74648817  1
  Te2-  Te232  1  0.74942763  0.08001113  0.08154034  1
  Te2-  Te233  1  0.74199564  0.07751110  0.41947218  1
  Te2-  Te234  1  0.75004492  0.07948157  0.75227367  1
  Te2-  Te235  1  0.74719328  0.41710012  0.07645176  1
  Te2-  Te236  1  0.74661192  0.40944625  0.40634318  1
  Te2-  Te237  1  0.74882998  0.41371878  0.74932768  1
  Te2-  Te238  1  0.73942536  0.74751611  0.07888062  1
  Te2-  Te239  1  0.74556896  0.75313248  0.41162209  1
  Te2-  Te240  1  0.74924900  0.74893289  0.74619239  1
