# generated using pymatgen
data_Ti27(Cu53Te54)2
_symmetry_space_group_name_H-M   'P 1'
_cell_length_a   17.87326411
_cell_length_b   17.87141131
_cell_length_c   17.87071514
_cell_angle_alpha   89.98022539
_cell_angle_beta   89.98899057
_cell_angle_gamma   90.01363859
_symmetry_Int_Tables_number   1
_chemical_formula_structural   Ti27(Cu53Te54)2
_chemical_formula_sum   'Ti27 Cu106 Te108'
_cell_volume   5708.27134454
_cell_formula_units_Z   1
loop_
 _symmetry_equiv_pos_site_id
 _symmetry_equiv_pos_as_xyz
  1  'x, y, z'
loop_
 _atom_type_symbol
 _atom_type_oxidation_number
  Ti4+  4.0
  Cu+  1.0
  Te2-  -2.0
loop_
 _atom_site_type_symbol
 _atom_site_label
 _atom_site_symmetry_multiplicity
 _atom_site_fract_x
 _atom_site_fract_y
 _atom_site_fract_z
 _atom_site_occupancy
  Ti4+  Ti0  1  0.16653229  0.16455074  0.16394801  1
  Ti4+  Ti1  1  0.16512942  0.16688176  0.49925544  1
  Ti4+  Ti2  1  0.16635351  0.17149642  0.83204852  1
  Ti4+  Ti3  1  0.17004805  0.50088014  0.16393919  1
  Ti4+  Ti4  1  0.16761221  0.50132459  0.49718141  1
  Ti4+  Ti5  1  0.16452624  0.50060287  0.82949648  1
  Ti4+  Ti6  1  0.16577413  0.83235305  0.16877742  1
  Ti4+  Ti7  1  0.16480901  0.83473829  0.50384163  1
  Ti4+  Ti8  1  0.16615605  0.83341681  0.83601603  1
  Ti4+  Ti9  1  0.50070129  0.16507967  0.16749523  1
  Ti4+  Ti10  1  0.49945635  0.16759149  0.49967943  1
  Ti4+  Ti11  1  0.49909304  0.16672870  0.83543791  1
  Ti4+  Ti12  1  0.50244006  0.49860586  0.16431779  1
  Ti4+  Ti13  1  0.50068833  0.49886581  0.50139149  1
  Ti4+  Ti14  1  0.50263834  0.49832909  0.83573590  1
  Ti4+  Ti15  1  0.49969420  0.83357272  0.16803360  1
  Ti4+  Ti16  1  0.49832013  0.83153715  0.50108973  1
  Ti4+  Ti17  1  0.50053769  0.83361513  0.83278009  1
  Ti4+  Ti18  1  0.83143172  0.16872593  0.16705629  1
  Ti4+  Ti19  1  0.83360990  0.16777511  0.49835041  1
  Ti4+  Ti20  1  0.83373714  0.16511250  0.83116432  1
  Ti4+  Ti21  1  0.83462882  0.49706798  0.16307590  1
  Ti4+  Ti22  1  0.83196448  0.50151756  0.50012344  1
  Ti4+  Ti23  1  0.83393308  0.50193141  0.83821635  1
  Ti4+  Ti24  1  0.83111123  0.83536853  0.16821137  1
  Ti4+  Ti25  1  0.83266297  0.83274223  0.50125339  1
  Ti4+  Ti26  1  0.83367176  0.82959839  0.83338368  1
  Cu+  Cu27  1  0.16546269  0.16152402  -0.00427909  1
  Cu+  Cu28  1  0.16620279  0.16343673  0.33269224  1
  Cu+  Cu29  1  0.16769967  0.17613024  0.66363413  1
  Cu+  Cu30  1  0.16938992  0.50201904  -0.00301660  1
  Cu+  Cu31  1  0.16796280  0.50044079  0.32779371  1
  Cu+  Cu32  1  0.16620358  0.50106928  0.66349795  1
  Cu+  Cu33  1  0.16471402  0.83368034  0.00471694  1
  Cu+  Cu34  1  0.16741566  0.83270203  0.33710650  1
  Cu+  Cu35  1  0.16504346  0.83567823  0.66875078  1
  Cu+  Cu36  1  0.49700332  0.16793529  0.00254507  1
  Cu+  Cu37  1  0.50186398  0.16847982  0.33427135  1
  Cu+  Cu38  1  0.49881742  0.16617478  0.66762621  1
  Cu+  Cu39  1  0.50895459  0.49847495  -0.00010483  1
  Cu+  Cu40  1  0.49998215  0.50040503  0.33403177  1
  Cu+  Cu41  1  0.50118021  0.49778174  0.66671738  1
  Cu+  Cu42  1  0.49945849  0.83549331  0.00064944  1
  Cu+  Cu43  1  0.49889706  0.83396229  0.33283915  1
  Cu+  Cu44  1  0.50190033  0.82993228  0.66666941  1
  Cu+  Cu45  1  0.83582375  0.16648380  -0.00089262  1
  Cu+  Cu46  1  0.83023350  0.16795267  0.33109293  1
  Cu+  Cu47  1  0.83170790  0.16532185  0.66294086  1
  Cu+  Cu48  1  0.82553020  0.50419456  -0.00053910  1
  Cu+  Cu49  1  0.83691613  0.49553200  0.33467246  1
  Cu+  Cu50  1  0.83147342  0.50041727  0.66879647  1
  Cu+  Cu51  1  0.83513909  0.83034446  0.00412178  1
  Cu+  Cu52  1  0.83221055  0.83434367  0.33548616  1
  Cu+  Cu53  1  0.83183059  0.83223109  0.66834322  1
  Cu+  Cu54  1  0.16242981  -0.00283555  0.16622037  1
  Cu+  Cu55  1  0.16333279  0.00082019  0.50293700  1
  Cu+  Cu56  1  0.16609344  0.00288291  0.83643572  1
  Cu+  Cu57  1  0.16908847  0.33331975  0.16367144  1
  Cu+  Cu58  1  0.16826301  0.33330203  0.49977917  1
  Cu+  Cu59  1  0.15492395  0.33582749  0.82658540  1
  Cu+  Cu60  1  0.17249442  0.66734138  0.16329572  1
  Cu+  Cu61  1  0.16916728  0.66978564  0.49861060  1
  Cu+  Cu62  1  0.17037465  0.66464527  0.83434141  1
  Cu+  Cu63  1  0.49929018  -0.00241704  0.16785432  1
  Cu+  Cu64  1  0.49722093  0.00013804  0.50094462  1
  Cu+  Cu65  1  0.50088388  0.00146408  0.83570713  1
  Cu+  Cu66  1  0.50257667  0.33059363  0.16435565  1
  Cu+  Cu67  1  0.50148886  0.33664047  0.50033745  1
  Cu+  Cu68  1  0.49765752  0.32961274  0.83285477  1
  Cu+  Cu69  1  0.49993111  0.66951341  0.16909805  1
  Cu+  Cu70  1  0.49642714  0.66203291  0.49922832  1
  Cu+  Cu71  1  0.50366066  0.66792819  0.83274390  1
  Cu+  Cu72  1  0.82712664  0.00438577  0.16997470  1
  Cu+  Cu73  1  0.83374134  -0.00060640  0.50029125  1
  Cu+  Cu74  1  0.82896741  -0.00473577  0.82984183  1
  Cu+  Cu75  1  0.83888384  0.32987439  0.16989596  1
  Cu+  Cu76  1  0.83346003  0.33717463  0.49657100  1
  Cu+  Cu77  1  0.83591505  0.33161880  0.83755131  1
  Cu+  Cu78  1  0.83156372  0.66749780  0.16430889  1
  Cu+  Cu79  1  0.83090413  0.66551399  0.50181378  1
  Cu+  Cu80  1  0.84290212  0.66789613  0.83305350  1
  Cu+  Cu81  1  -0.00006370  0.16753830  0.16479224  1
  Cu+  Cu82  1  -0.00031454  0.16443563  0.49801920  1
  Cu+  Cu83  1  -0.00123178  0.17088230  0.83353673  1
  Cu+  Cu84  1  0.00450939  0.50121509  0.16582881  1
  Cu+  Cu85  1  -0.00042020  0.50035092  0.49812439  1
  Cu+  Cu86  1  0.00135252  0.49721202  0.83782767  1
  Cu+  Cu87  1  -0.00245009  0.83602144  0.16644041  1
  Cu+  Cu88  1  -0.00012995  0.83601254  0.50356852  1
  Cu+  Cu89  1  0.00006366  0.82889549  0.83380506  1
  Cu+  Cu90  1  0.33246512  0.16508985  0.16347140  1
  Cu+  Cu91  1  0.33057714  0.16721849  0.50168583  1
  Cu+  Cu92  1  0.33611329  0.17291487  0.82829576  1
  Cu+  Cu93  1  0.33549887  0.49718984  0.16573627  1
  Cu+  Cu94  1  0.33801436  0.50289086  0.49686775  1
  Cu+  Cu95  1  0.33106073  0.50085179  0.83288758  1
  Cu+  Cu96  1  0.33455419  0.83098729  0.16781255  1
  Cu+  Cu97  1  0.33051972  0.83138231  0.50133454  1
  Cu+  Cu98  1  0.33485527  0.83469923  0.83449769  1
  Cu+  Cu99  1  0.66686213  0.16531781  0.17536066  1
  Cu+  Cu100  1  0.66676879  0.16778592  0.49982655  1
  Cu+  Cu101  1  0.66324800  0.16209037  0.83279440  1
  Cu+  Cu102  1  0.66855398  0.49578072  0.15731718  1
  Cu+  Cu103  1  0.66584123  0.50052653  0.50349840  1
  Cu+  Cu104  1  0.66737529  0.50193240  0.84366611  1
  Cu+  Cu105  1  0.66265315  0.83593154  0.17028245  1
  Cu+  Cu106  1  0.66587114  0.83194481  0.50043875  1
  Cu+  Cu107  1  0.66702472  0.83133194  0.82642701  1
  Cu+  Cu108  1  0.93273083  0.25076040  0.26180064  1
  Cu+  Cu109  1  0.41014493  0.59105082  0.40233902  1
  Cu+  Cu110  1  0.59543828  0.39841217  0.07381675  1
  Cu+  Cu111  1  0.73918097  0.39918796  0.92034134  1
  Cu+  Cu112  1  0.59197511  0.60044870  0.92729489  1
  Cu+  Cu113  1  0.93068495  0.59343636  0.92642686  1
  Cu+  Cu114  1  0.92856601  0.73830514  0.08300046  1
  Cu+  Cu115  1  0.59005628  0.26435991  0.26407146  1
  Cu+  Cu116  1  0.73711912  0.07174208  0.26483209  1
  Cu+  Cu117  1  0.26320837  0.59121562  0.92209510  1
  Cu+  Cu118  1  0.25833214  0.74321672  0.40900769  1
  Cu+  Cu119  1  0.06906985  0.92564021  0.07711448  1
  Cu+  Cu120  1  0.92622118  0.25861713  0.92768089  1
  Cu+  Cu121  1  0.06927363  0.07340985  0.91811239  1
  Cu+  Cu122  1  0.73803627  0.92639545  0.73732341  1
  Cu+  Cu123  1  0.26471492  0.74581874  0.07338197  1
  Cu+  Cu124  1  0.26160787  0.26453432  0.58726349  1
  Cu+  Cu125  1  0.73808015  0.59938382  0.07890295  1
  Cu+  Cu126  1  0.07977074  0.40986557  0.93095311  1
  Cu+  Cu127  1  0.40321721  0.25989454  0.07738921  1
  Cu+  Cu128  1  0.06598814  0.25782213  0.73231991  1
  Cu+  Cu129  1  0.59227563  0.73492318  0.73479474  1
  Cu+  Cu130  1  0.93096986  0.40830268  0.41087360  1
  Cu+  Cu131  1  0.93177150  0.74261747  0.73499166  1
  Cu+  Cu132  1  0.41332056  0.26115291  0.73629432  1
  Te2-  Te133  1  0.25023417  0.25114568  0.07621204  1
  Te2-  Te134  1  0.25129170  0.25104344  0.41175163  1
  Te2-  Te135  1  0.25446141  0.26206006  0.74583339  1
  Te2-  Te136  1  0.25965638  0.58630470  0.07691638  1
  Te2-  Te137  1  0.25418933  0.58719267  0.40917874  1
  Te2-  Te138  1  0.25269073  0.58561238  0.74426843  1
  Te2-  Te139  1  0.25331697  0.91838056  0.08337377  1
  Te2-  Te140  1  0.25078651  0.92131300  0.41787201  1
  Te2-  Te141  1  0.24981702  0.91944724  0.75184568  1
  Te2-  Te142  1  0.59221026  0.24717984  0.07992813  1
  Te2-  Te143  1  0.58710586  0.25542462  0.41601460  1
  Te2-  Te144  1  0.58639006  0.25098638  0.74795473  1
  Te2-  Te145  1  0.58659282  0.59285114  0.08082100  1
  Te2-  Te146  1  0.58723918  0.58476874  0.41495147  1
  Te2-  Te147  1  0.58941630  0.58148110  0.74742441  1
  Te2-  Te148  1  0.58510499  0.91953035  0.08172799  1
  Te2-  Te149  1  0.58309076  0.91786083  0.41683759  1
  Te2-  Te150  1  0.58428377  0.92279231  0.74552589  1
  Te2-  Te151  1  0.92170767  0.25369278  0.07899969  1
  Te2-  Te152  1  0.92210544  0.25410028  0.41172598  1
  Te2-  Te153  1  0.91525855  0.25445559  0.74319807  1
  Te2-  Te154  1  0.92319127  0.58496451  0.07908553  1
  Te2-  Te155  1  0.91763355  0.58773449  0.41368663  1
  Te2-  Te156  1  0.92272261  0.58225360  0.74670085  1
  Te2-  Te157  1  0.91408012  0.92605457  0.08205290  1
  Te2-  Te158  1  0.91861059  0.91804105  0.41578865  1
  Te2-  Te159  1  0.92074251  0.91652709  0.74882796  1
  Te2-  Te160  1  0.25081957  0.07969331  0.24871499  1
  Te2-  Te161  1  0.24904427  0.08182029  0.58785527  1
  Te2-  Te162  1  0.25659909  0.08575033  0.91342438  1
  Te2-  Te163  1  0.25342933  0.41332311  0.24970141  1
  Te2-  Te164  1  0.25540970  0.41816300  0.58358257  1
  Te2-  Te165  1  0.24891894  0.41065223  0.91369846  1
  Te2-  Te166  1  0.25400738  0.74641462  0.25476470  1
  Te2-  Te167  1  0.25066321  0.74842311  0.59057970  1
  Te2-  Te168  1  0.25533274  0.74758488  0.92139594  1
  Te2-  Te169  1  0.58329616  0.07558563  0.25642591  1
  Te2-  Te170  1  0.58398046  0.08254698  0.58514567  1
  Te2-  Te171  1  0.58397712  0.08177484  0.92277410  1
  Te2-  Te172  1  0.58809994  0.41636124  0.25336555  1
  Te2-  Te173  1  0.58727775  0.41317434  0.58790778  1
  Te2-  Te174  1  0.58718782  0.40409525  0.91995071  1
  Te2-  Te175  1  0.58535905  0.74783505  0.25475032  1
  Te2-  Te176  1  0.58578636  0.74252171  0.58303977  1
  Te2-  Te177  1  0.58865687  0.75153181  0.92193823  1
  Te2-  Te178  1  0.91931147  0.08255035  0.25190982  1
  Te2-  Te179  1  0.91827137  0.08137000  0.58397633  1
  Te2-  Te180  1  0.91681528  0.07543595  0.91625296  1
  Te2-  Te181  1  0.92515194  0.41387206  0.25129635  1
  Te2-  Te182  1  0.91767320  0.41600733  0.58691270  1
  Te2-  Te183  1  0.92098259  0.41333530  0.92673813  1
  Te2-  Te184  1  0.91661756  0.74796593  0.25199434  1
  Te2-  Te185  1  0.91961264  0.74582225  0.58566035  1
  Te2-  Te186  1  0.92418502  0.74671703  0.92604468  1
  Te2-  Te187  1  0.08444778  0.25276517  0.25116612  1
  Te2-  Te188  1  0.07475830  0.25633541  0.58156257  1
  Te2-  Te189  1  0.07906581  0.25642907  0.92471706  1
  Te2-  Te190  1  0.08477883  0.58789648  0.24845649  1
  Te2-  Te191  1  0.08213003  0.58683395  0.58101890  1
  Te2-  Te192  1  0.08123127  0.58942929  0.92015608  1
  Te2-  Te193  1  0.07988123  0.91655813  0.25605192  1
  Te2-  Te194  1  0.07911915  0.92095052  0.58979930  1
  Te2-  Te195  1  0.07693681  0.91936283  0.92121717  1
  Te2-  Te196  1  0.41349527  0.25210747  0.25093063  1
  Te2-  Te197  1  0.41382728  0.25678130  0.58572193  1
  Te2-  Te198  1  0.41147176  0.25468413  0.92260587  1
  Te2-  Te199  1  0.41484509  0.58506878  0.24894634  1
  Te2-  Te200  1  0.41468263  0.58403675  0.58998764  1
  Te2-  Te201  1  0.41694249  0.58536318  0.92017665  1
  Te2-  Te202  1  0.41243883  0.91855181  0.25292264  1
  Te2-  Te203  1  0.41359787  0.91580516  0.58670923  1
  Te2-  Te204  1  0.41541496  0.91947837  0.91871902  1
  Te2-  Te205  1  0.74552193  0.25899428  0.25500812  1
  Te2-  Te206  1  0.74936064  0.25432295  0.58292069  1
  Te2-  Te207  1  0.74454014  0.24690479  0.91844928  1
  Te2-  Te208  1  0.74972852  0.58003716  0.24960428  1
  Te2-  Te209  1  0.74663261  0.58557343  0.58840161  1
  Te2-  Te210  1  0.74601203  0.59769487  0.92095207  1
  Te2-  Te211  1  0.74481644  0.91869456  0.25614136  1
  Te2-  Te212  1  0.74572247  0.91947092  0.58567600  1
  Te2-  Te213  1  0.74770330  0.91356084  0.91974761  1
  Te2-  Te214  1  0.07598404  0.07926268  0.07762168  1
  Te2-  Te215  1  0.08066398  0.07963772  0.41360435  1
  Te2-  Te216  1  0.08196197  0.08569665  0.74632948  1
  Te2-  Te217  1  0.08223969  0.41411028  0.08078551  1
  Te2-  Te218  1  0.08409762  0.41384743  0.41128217  1
  Te2-  Te219  1  0.07404306  0.41828832  0.73895662  1
  Te2-  Te220  1  0.07923043  0.74443284  0.08165109  1
  Te2-  Te221  1  0.07837358  0.74947478  0.41685785  1
  Te2-  Te222  1  0.08450622  0.74487433  0.74851487  1
  Te2-  Te223  1  0.41541182  0.07804024  0.08229367  1
  Te2-  Te224  1  0.41326772  0.08389330  0.41489297  1
  Te2-  Te225  1  0.41467096  0.07985335  0.74890531  1
  Te2-  Te226  1  0.41506144  0.41387335  0.07724703  1
  Te2-  Te227  1  0.41510542  0.41262055  0.41295496  1
  Te2-  Te228  1  0.41365602  0.41617806  0.74898241  1
  Te2-  Te229  1  0.41622050  0.74566260  0.07875530  1
  Te2-  Te230  1  0.41225664  0.74582731  0.41138784  1
  Te2-  Te231  1  0.41375189  0.74672023  0.74952003  1
  Te2-  Te232  1  0.74598428  0.08464610  0.07967594  1
  Te2-  Te233  1  0.74666930  0.08020404  0.41574860  1
  Te2-  Te234  1  0.74586788  0.08133789  0.74502588  1
  Te2-  Te235  1  0.75072767  0.40399935  0.07719058  1
  Te2-  Te236  1  0.74400537  0.41709364  0.41404662  1
  Te2-  Te237  1  0.74806362  0.41584164  0.75395361  1
  Te2-  Te238  1  0.74122986  0.75147528  0.08221808  1
  Te2-  Te239  1  0.74775296  0.74735775  0.41514562  1
  Te2-  Te240  1  0.74828733  0.73945452  0.74614640  1
