# generated using pymatgen
data_Ti27(Cu53Te54)2
_symmetry_space_group_name_H-M   'P 1'
_cell_length_a   17.88343071
_cell_length_b   17.88043315
_cell_length_c   17.88170024
_cell_angle_alpha   89.97200758
_cell_angle_beta   89.99804363
_cell_angle_gamma   89.96818157
_symmetry_Int_Tables_number   1
_chemical_formula_structural   Ti27(Cu53Te54)2
_chemical_formula_sum   'Ti27 Cu106 Te108'
_cell_volume   5717.91325792
_cell_formula_units_Z   1
loop_
 _symmetry_equiv_pos_site_id
 _symmetry_equiv_pos_as_xyz
  1  'x, y, z'
loop_
 _atom_type_symbol
 _atom_type_oxidation_number
  Ti4+  4.0
  Cu+  1.0
  Te2-  -2.0
loop_
 _atom_site_type_symbol
 _atom_site_label
 _atom_site_symmetry_multiplicity
 _atom_site_fract_x
 _atom_site_fract_y
 _atom_site_fract_z
 _atom_site_occupancy
  Ti4+  Ti0  1  0.16547140  0.16584938  0.16566209  1
  Ti4+  Ti1  1  0.16580344  0.16277678  0.50139726  1
  Ti4+  Ti2  1  0.16426066  0.17045499  0.83011092  1
  Ti4+  Ti3  1  0.16570260  0.49869090  0.16755265  1
  Ti4+  Ti4  1  0.16727183  0.49865632  0.49905901  1
  Ti4+  Ti5  1  0.16661957  0.49975943  0.83439766  1
  Ti4+  Ti6  1  0.16239388  0.83037493  0.16726894  1
  Ti4+  Ti7  1  0.17082404  0.83399154  0.49680270  1
  Ti4+  Ti8  1  0.16738740  0.83630204  0.83478965  1
  Ti4+  Ti9  1  0.50079425  0.16765227  0.16411516  1
  Ti4+  Ti10  1  0.49938083  0.16574471  0.50189658  1
  Ti4+  Ti11  1  0.49860634  0.16651471  0.82944249  1
  Ti4+  Ti12  1  0.50343336  0.50094548  0.16559109  1
  Ti4+  Ti13  1  0.50206567  0.50135383  0.50090457  1
  Ti4+  Ti14  1  0.50196993  0.50055909  0.83109284  1
  Ti4+  Ti15  1  0.49992052  0.83251726  0.16928829  1
  Ti4+  Ti16  1  0.50010134  0.83248343  0.49842910  1
  Ti4+  Ti17  1  0.50025727  0.83364383  0.83322611  1
  Ti4+  Ti18  1  0.83252330  0.16737592  0.16884963  1
  Ti4+  Ti19  1  0.83267986  0.16728621  0.50264618  1
  Ti4+  Ti20  1  0.83246454  0.16482681  0.83365410  1
  Ti4+  Ti21  1  0.83013409  0.50048455  0.16650881  1
  Ti4+  Ti22  1  0.83328341  0.49964319  0.50034403  1
  Ti4+  Ti23  1  0.83079013  0.50158008  0.83525797  1
  Ti4+  Ti24  1  0.83260268  0.83310659  0.16935982  1
  Ti4+  Ti25  1  0.83539177  0.83110405  0.50065884  1
  Ti4+  Ti26  1  0.83678130  0.83336812  0.83334378  1
  Cu+  Cu27  1  0.16370648  0.17049706  -0.00378253  1
  Cu+  Cu28  1  0.16225572  0.15946307  0.33222944  1
  Cu+  Cu29  1  0.17426813  0.16793356  0.66582559  1
  Cu+  Cu30  1  0.16474797  0.49881106  0.00355468  1
  Cu+  Cu31  1  0.16724985  0.49630450  0.33414081  1
  Cu+  Cu32  1  0.16586455  0.49898465  0.66825504  1
  Cu+  Cu33  1  0.16164019  0.83120720  -0.00099608  1
  Cu+  Cu34  1  0.16836435  0.83685630  0.32889895  1
  Cu+  Cu35  1  0.16990378  0.83696915  0.66427189  1
  Cu+  Cu36  1  0.49767930  0.16688100  -0.00335052  1
  Cu+  Cu37  1  0.49907406  0.17059020  0.32999666  1
  Cu+  Cu38  1  0.50261694  0.16272384  0.66421967  1
  Cu+  Cu39  1  0.50762420  0.49892362  -0.00325126  1
  Cu+  Cu40  1  0.50357969  0.50217280  0.33469566  1
  Cu+  Cu41  1  0.50401542  0.50494777  0.66495373  1
  Cu+  Cu42  1  0.49816887  0.83276518  0.00239535  1
  Cu+  Cu43  1  0.49798786  0.83498489  0.33056792  1
  Cu+  Cu44  1  0.50011563  0.82764705  0.66634664  1
  Cu+  Cu45  1  0.83279998  0.16936582  0.00304182  1
  Cu+  Cu46  1  0.83366428  0.16846041  0.33711171  1
  Cu+  Cu47  1  0.83435427  0.16380761  0.66961594  1
  Cu+  Cu48  1  0.82524407  0.50381160  0.00122352  1
  Cu+  Cu49  1  0.83111696  0.50038378  0.33300342  1
  Cu+  Cu50  1  0.83265946  0.49767114  0.66971274  1
  Cu+  Cu51  1  0.83627630  0.83291785  0.00078222  1
  Cu+  Cu52  1  0.82958241  0.83352987  0.33846090  1
  Cu+  Cu53  1  0.83837789  0.83175374  0.66535151  1
  Cu+  Cu54  1  0.16020026  -0.00125882  0.16934400  1
  Cu+  Cu55  1  0.17057954  0.00103238  0.49213792  1
  Cu+  Cu56  1  0.16196571  0.00445498  0.83156565  1
  Cu+  Cu57  1  0.16604009  0.33427482  0.16591931  1
  Cu+  Cu58  1  0.16617170  0.33126080  0.50237360  1
  Cu+  Cu59  1  0.16582745  0.33507157  0.83702339  1
  Cu+  Cu60  1  0.16373609  0.66180579  0.16525060  1
  Cu+  Cu61  1  0.16895683  0.66499510  0.49816885  1
  Cu+  Cu62  1  0.16817884  0.66707137  0.83421190  1
  Cu+  Cu63  1  0.50301551  0.00296393  0.16671032  1
  Cu+  Cu64  1  0.49355399  -0.00061811  0.49931823  1
  Cu+  Cu65  1  0.50165797  -0.00233333  0.82905978  1
  Cu+  Cu66  1  0.50455386  0.33377838  0.16110563  1
  Cu+  Cu67  1  0.50218445  0.33319103  0.50243486  1
  Cu+  Cu68  1  0.49574398  0.33411052  0.82792502  1
  Cu+  Cu69  1  0.49920569  0.66772837  0.17367452  1
  Cu+  Cu70  1  0.50135585  0.66780651  0.50619552  1
  Cu+  Cu71  1  0.50199793  0.66729941  0.83406317  1
  Cu+  Cu72  1  0.83233563  0.00247480  0.16860312  1
  Cu+  Cu73  1  0.83325797  -0.00176715  0.50141652  1
  Cu+  Cu74  1  0.83931412  -0.00188152  0.83182878  1
  Cu+  Cu75  1  0.82944729  0.33255543  0.16984577  1
  Cu+  Cu76  1  0.83142941  0.33419884  0.50130874  1
  Cu+  Cu77  1  0.82910373  0.33411732  0.83652273  1
  Cu+  Cu78  1  0.83548963  0.66683833  0.16619109  1
  Cu+  Cu79  1  0.83633351  0.66733913  0.50088883  1
  Cu+  Cu80  1  0.83459125  0.66679057  0.83215092  1
  Cu+  Cu81  1  -0.00142598  0.16540415  0.16969065  1
  Cu+  Cu82  1  -0.00077306  0.16721651  0.50168721  1
  Cu+  Cu83  1  -0.00360488  0.16215489  0.83033264  1
  Cu+  Cu84  1  -0.00098171  0.50207447  0.16929985  1
  Cu+  Cu85  1  0.00196121  0.49744342  0.50033709  1
  Cu+  Cu86  1  -0.00326222  0.49853201  0.83616663  1
  Cu+  Cu87  1  -0.00596145  0.82760453  0.16397758  1
  Cu+  Cu88  1  0.00278751  0.83260012  0.49852783  1
  Cu+  Cu89  1  0.00586442  0.83317590  0.83660426  1
  Cu+  Cu90  1  0.33802666  0.16766903  0.16248116  1
  Cu+  Cu91  1  0.33149615  0.16275773  0.50543672  1
  Cu+  Cu92  1  0.32887784  0.17168980  0.82934901  1
  Cu+  Cu93  1  0.33204915  0.49831734  0.16481599  1
  Cu+  Cu94  1  0.33433051  0.49757510  0.49675486  1
  Cu+  Cu95  1  0.33503053  0.49898392  0.83262800  1
  Cu+  Cu96  1  0.33009254  0.82923053  0.17015600  1
  Cu+  Cu97  1  0.33859548  0.83170551  0.49739256  1
  Cu+  Cu98  1  0.33406473  0.83634720  0.83444888  1
  Cu+  Cu99  1  0.66781249  0.16857154  0.16558659  1
  Cu+  Cu100  1  0.66528812  0.16827239  0.50541610  1
  Cu+  Cu101  1  0.66521325  0.16397546  0.82888739  1
  Cu+  Cu102  1  0.66662382  0.49903865  0.16408517  1
  Cu+  Cu103  1  0.66746643  0.50420310  0.50189870  1
  Cu+  Cu104  1  0.66482806  0.50352475  0.83678858  1
  Cu+  Cu105  1  0.66445238  0.83563401  0.17137670  1
  Cu+  Cu106  1  0.67293463  0.83644302  0.49508980  1
  Cu+  Cu107  1  0.67132636  0.83401055  0.83375040  1
  Cu+  Cu108  1  0.25855014  0.26241046  0.92818455  1
  Cu+  Cu109  1  0.26269181  0.08454894  0.40198002  1
  Cu+  Cu110  1  0.92819828  0.59111455  0.26284830  1
  Cu+  Cu111  1  0.73895426  0.59980685  0.07712514  1
  Cu+  Cu112  1  0.58953321  0.59939589  0.92597562  1
  Cu+  Cu113  1  0.59272502  0.59312601  0.26342672  1
  Cu+  Cu114  1  0.40698511  0.07079658  0.59499047  1
  Cu+  Cu115  1  0.40551561  0.73712997  0.59720338  1
  Cu+  Cu116  1  0.92724968  0.06901601  0.73669537  1
  Cu+  Cu117  1  0.60007638  0.59811735  0.59505698  1
  Cu+  Cu118  1  0.74701182  0.93182052  0.40963635  1
  Cu+  Cu119  1  0.07088766  0.07972733  0.92650659  1
  Cu+  Cu120  1  0.59433343  0.40171474  0.06634001  1
  Cu+  Cu121  1  0.06626610  0.07031441  0.26187569  1
  Cu+  Cu122  1  0.59357306  0.93339817  0.25658430  1
  Cu+  Cu123  1  0.59628820  0.06790150  0.74007074  1
  Cu+  Cu124  1  0.39941250  0.73320731  0.25802518  1
  Cu+  Cu125  1  0.07704957  0.73437248  0.92231465  1
  Cu+  Cu126  1  0.25841398  0.07199279  0.74842487  1
  Cu+  Cu127  1  0.74085128  0.40408715  0.26379819  1
  Cu+  Cu128  1  0.25805152  0.92842708  0.24829715  1
  Cu+  Cu129  1  0.59593856  0.26263508  0.59274199  1
  Cu+  Cu130  1  0.25938463  0.26424704  0.58946262  1
  Cu+  Cu131  1  0.92172196  0.73704692  0.07117409  1
  Cu+  Cu132  1  0.41030445  0.92587944  0.40462004  1
  Te2-  Te133  1  0.25184761  0.25265632  0.08086274  1
  Te2-  Te134  1  0.25076480  0.24717036  0.41371188  1
  Te2-  Te135  1  0.25210343  0.26129255  0.74532681  1
  Te2-  Te136  1  0.25176256  0.58436793  0.08120659  1
  Te2-  Te137  1  0.25325558  0.58330679  0.41282312  1
  Te2-  Te138  1  0.25193281  0.58490877  0.74934646  1
  Te2-  Te139  1  0.24842671  0.91572788  0.08281218  1
  Te2-  Te140  1  0.25850893  0.92204899  0.40740523  1
  Te2-  Te141  1  0.25371925  0.92074829  0.74774733  1
  Te2-  Te142  1  0.58823550  0.24968419  0.07514078  1
  Te2-  Te143  1  0.58474026  0.25075595  0.41549425  1
  Te2-  Te144  1  0.58537260  0.25421616  0.74530784  1
  Te2-  Te145  1  0.58636840  0.59423858  0.07944737  1
  Te2-  Te146  1  0.58760266  0.59042666  0.41596348  1
  Te2-  Te147  1  0.58934276  0.59007210  0.74665413  1
  Te2-  Te148  1  0.58488886  0.91781366  0.08178206  1
  Te2-  Te149  1  0.58686871  0.92311589  0.41272637  1
  Te2-  Te150  1  0.58826291  0.91471687  0.74436448  1
  Te2-  Te151  1  0.91817371  0.25364669  0.08503713  1
  Te2-  Te152  1  0.91812798  0.25315000  0.41812733  1
  Te2-  Te153  1  0.91616412  0.25425892  0.75029132  1
  Te2-  Te154  1  0.91993660  0.58371873  0.07772793  1
  Te2-  Te155  1  0.92053931  0.58474506  0.41534587  1
  Te2-  Te156  1  0.91845801  0.58366344  0.74892023  1
  Te2-  Te157  1  0.91653035  0.92082146  0.08423564  1
  Te2-  Te158  1  0.92057613  0.91843651  0.41471084  1
  Te2-  Te159  1  0.92563986  0.91576717  0.74618838  1
  Te2-  Te160  1  0.25777266  0.08046291  0.24946912  1
  Te2-  Te161  1  0.25313413  0.07090881  0.58979395  1
  Te2-  Te162  1  0.25160353  0.08359329  0.91678450  1
  Te2-  Te163  1  0.25299600  0.41295649  0.25129356  1
  Te2-  Te164  1  0.25453030  0.41516282  0.58675318  1
  Te2-  Te165  1  0.25399578  0.41587055  0.92226159  1
  Te2-  Te166  1  0.24745515  0.74093638  0.25349733  1
  Te2-  Te167  1  0.25361355  0.74751206  0.58454144  1
  Te2-  Te168  1  0.25351261  0.74996071  0.91978171  1
  Te2-  Te169  1  0.58780554  0.08511121  0.25394543  1
  Te2-  Te170  1  0.58721636  0.07335418  0.58393653  1
  Te2-  Te171  1  0.58298337  0.08142206  0.91596905  1
  Te2-  Te172  1  0.58670607  0.41274667  0.25418833  1
  Te2-  Te173  1  0.58887116  0.41519312  0.58748181  1
  Te2-  Te174  1  0.58737040  0.40787307  0.91385801  1
  Te2-  Te175  1  0.58910859  0.74752906  0.25761329  1
  Te2-  Te176  1  0.59285075  0.75176077  0.58400942  1
  Te2-  Te177  1  0.58764211  0.75172076  0.92096261  1
  Te2-  Te178  1  0.91622097  0.07993505  0.25696535  1
  Te2-  Te179  1  0.91974093  0.07856013  0.58498378  1
  Te2-  Te180  1  0.91737325  0.08019264  0.92413389  1
  Te2-  Te181  1  0.91709568  0.41439224  0.25185607  1
  Te2-  Te182  1  0.91773354  0.41488850  0.58600449  1
  Te2-  Te183  1  0.91326681  0.41619137  0.92282126  1
  Te2-  Te184  1  0.91685541  0.74730634  0.25881186  1
  Te2-  Te185  1  0.92382807  0.74679594  0.58472733  1
  Te2-  Te186  1  0.92226681  0.74379681  0.91961406  1
  Te2-  Te187  1  0.08306290  0.25170785  0.25253165  1
  Te2-  Te188  1  0.08127125  0.24916023  0.58753377  1
  Te2-  Te189  1  0.07401191  0.25304611  0.91558738  1
  Te2-  Te190  1  0.08116852  0.58542258  0.25659590  1
  Te2-  Te191  1  0.08285559  0.58472892  0.58445000  1
  Te2-  Te192  1  0.07962754  0.58355249  0.92085173  1
  Te2-  Te193  1  0.07203196  0.91514087  0.25239525  1
  Te2-  Te194  1  0.08557156  0.91962350  0.58008502  1
  Te2-  Te195  1  0.08042506  0.92438510  0.92146134  1
  Te2-  Te196  1  0.41618769  0.25604750  0.24777992  1
  Te2-  Te197  1  0.41319307  0.25365415  0.58747514  1
  Te2-  Te198  1  0.41342271  0.25358525  0.91612028  1
  Te2-  Te199  1  0.41143174  0.58085374  0.25355138  1
  Te2-  Te200  1  0.41073135  0.58443621  0.58602799  1
  Te2-  Te201  1  0.41661824  0.58395414  0.91928720  1
  Te2-  Te202  1  0.41128357  0.92525825  0.25095148  1
  Te2-  Te203  1  0.41354071  0.91653888  0.58960183  1
  Te2-  Te204  1  0.41675357  0.91985827  0.91896739  1
  Te2-  Te205  1  0.74479833  0.25113801  0.25691494  1
  Te2-  Te206  1  0.74911120  0.25358187  0.59093696  1
  Te2-  Te207  1  0.74472469  0.24834725  0.91780454  1
  Te2-  Te208  1  0.74464952  0.59003275  0.25330114  1
  Te2-  Te209  1  0.75166393  0.58755253  0.58862324  1
  Te2-  Te210  1  0.74423329  0.59397386  0.92074368  1
  Te2-  Te211  1  0.74698640  0.92320732  0.25556915  1
  Te2-  Te212  1  0.74981761  0.91711497  0.58839549  1
  Te2-  Te213  1  0.75244161  0.91910472  0.91882705  1
  Te2-  Te214  1  0.07922485  0.08113318  0.07961972  1
  Te2-  Te215  1  0.07480152  0.07780647  0.41591882  1
  Te2-  Te216  1  0.08021127  0.08252929  0.73964374  1
  Te2-  Te217  1  0.07743013  0.41437400  0.08328578  1
  Te2-  Te218  1  0.08206609  0.41094645  0.41534052  1
  Te2-  Te219  1  0.07978891  0.41486424  0.75073532  1
  Te2-  Te220  1  0.07755004  0.74183017  0.07975941  1
  Te2-  Te221  1  0.08552736  0.74926085  0.41288422  1
  Te2-  Te222  1  0.08552221  0.75018619  0.74613420  1
  Te2-  Te223  1  0.41667307  0.07986616  0.07894711  1
  Te2-  Te224  1  0.41359814  0.08252618  0.40799427  1
  Te2-  Te225  1  0.41009289  0.07793954  0.74614976  1
  Te2-  Te226  1  0.41753067  0.41762150  0.07907864  1
  Te2-  Te227  1  0.41946857  0.41411305  0.41451612  1
  Te2-  Te228  1  0.41573829  0.41848632  0.74300017  1
  Te2-  Te229  1  0.41372145  0.74689615  0.08368203  1
  Te2-  Te230  1  0.41622711  0.74266642  0.41157778  1
  Te2-  Te231  1  0.41235995  0.74545554  0.75047901  1
  Te2-  Te232  1  0.74817532  0.08180814  0.08217831  1
  Te2-  Te233  1  0.74508378  0.08359375  0.41651212  1
  Te2-  Te234  1  0.74816247  0.07556022  0.74676709  1
  Te2-  Te235  1  0.74655752  0.40996194  0.07806622  1
  Te2-  Te236  1  0.74433471  0.41444059  0.41632565  1
  Te2-  Te237  1  0.74504766  0.41613671  0.75093981  1
  Te2-  Te238  1  0.74412125  0.75169901  0.08176779  1
  Te2-  Te239  1  0.74827832  0.74266184  0.41541386  1
  Te2-  Te240  1  0.75139419  0.74928377  0.74742182  1
