# generated using pymatgen
data_Ti27(Cu53Te54)2
_symmetry_space_group_name_H-M   'P 1'
_cell_length_a   17.92414682
_cell_length_b   17.92475732
_cell_length_c   17.92528640
_cell_angle_alpha   89.93955159
_cell_angle_beta   89.94996038
_cell_angle_gamma   89.93684092
_symmetry_Int_Tables_number   1
_chemical_formula_structural   Ti27(Cu53Te54)2
_chemical_formula_sum   'Ti27 Cu106 Te108'
_cell_volume   5759.13434692
_cell_formula_units_Z   1
loop_
 _symmetry_equiv_pos_site_id
 _symmetry_equiv_pos_as_xyz
  1  'x, y, z'
loop_
 _atom_type_symbol
 _atom_type_oxidation_number
  Ti4+  4.0
  Cu+  1.0
  Te2-  -2.0
loop_
 _atom_site_type_symbol
 _atom_site_label
 _atom_site_symmetry_multiplicity
 _atom_site_fract_x
 _atom_site_fract_y
 _atom_site_fract_z
 _atom_site_occupancy
  Ti4+  Ti0  1  0.16243865  0.16540465  0.16879379  1
  Ti4+  Ti1  1  0.17153585  0.16914765  0.49754082  1
  Ti4+  Ti2  1  0.16878026  0.16580925  0.83346218  1
  Ti4+  Ti3  1  0.16602790  0.49702665  0.16580646  1
  Ti4+  Ti4  1  0.16485397  0.49798892  0.50219949  1
  Ti4+  Ti5  1  0.16795647  0.49886701  0.83298406  1
  Ti4+  Ti6  1  0.16623699  0.82982342  0.16461986  1
  Ti4+  Ti7  1  0.16733324  0.83170877  0.49583400  1
  Ti4+  Ti8  1  0.16501820  0.83280931  0.83084793  1
  Ti4+  Ti9  1  0.50177197  0.16729793  0.16888501  1
  Ti4+  Ti10  1  0.50157396  0.16527677  0.49847548  1
  Ti4+  Ti11  1  0.50324408  0.16451913  0.83402597  1
  Ti4+  Ti12  1  0.50101189  0.50044733  0.16799674  1
  Ti4+  Ti13  1  0.49823089  0.50217452  0.50173496  1
  Ti4+  Ti14  1  0.49915898  0.49960495  0.83335884  1
  Ti4+  Ti15  1  0.50023365  0.83181426  0.16650980  1
  Ti4+  Ti16  1  0.49637890  0.83560504  0.49919430  1
  Ti4+  Ti17  1  0.49613336  0.83796255  0.83492423  1
  Ti4+  Ti18  1  0.83229440  0.17046940  0.16669283  1
  Ti4+  Ti19  1  0.83455648  0.16490398  0.49985161  1
  Ti4+  Ti20  1  0.83706730  0.16520305  0.83157642  1
  Ti4+  Ti21  1  0.83412138  0.50142893  0.16644858  1
  Ti4+  Ti22  1  0.83279778  0.49900213  0.50348149  1
  Ti4+  Ti23  1  0.83342994  0.49940612  0.83340335  1
  Ti4+  Ti24  1  0.83404681  0.83510330  0.16565688  1
  Ti4+  Ti25  1  0.83229423  0.83213160  0.50066672  1
  Ti4+  Ti26  1  0.83108665  0.83205906  0.83442691  1
  Cu+  Cu27  1  0.16389943  0.16637755  0.00213809  1
  Cu+  Cu28  1  0.17065192  0.17164766  0.33049812  1
  Cu+  Cu29  1  0.17074400  0.16761897  0.66808099  1
  Cu+  Cu30  1  0.16820964  0.49831037  -0.00354575  1
  Cu+  Cu31  1  0.16145188  0.49411303  0.33297833  1
  Cu+  Cu32  1  0.16595339  0.49983979  0.66995730  1
  Cu+  Cu33  1  0.16692302  0.83159598  -0.00177433  1
  Cu+  Cu34  1  0.16607573  0.82812603  0.33005956  1
  Cu+  Cu35  1  0.16667102  0.83276249  0.66419351  1
  Cu+  Cu36  1  0.50229640  0.16270771  0.00182460  1
  Cu+  Cu37  1  0.50545614  0.17157989  0.33223651  1
  Cu+  Cu38  1  0.50345285  0.16154886  0.66820671  1
  Cu+  Cu39  1  0.49966256  0.50113861  0.00006499  1
  Cu+  Cu40  1  0.50377851  0.50346196  0.33408611  1
  Cu+  Cu41  1  0.49706650  0.49968631  0.66718027  1
  Cu+  Cu42  1  0.49796282  0.84070739  0.00078581  1
  Cu+  Cu43  1  0.50003630  0.83153818  0.33196612  1
  Cu+  Cu44  1  0.49527971  0.83722383  0.66678169  1
  Cu+  Cu45  1  0.83534067  0.16562952  -0.00022661  1
  Cu+  Cu46  1  0.83121699  0.16866338  0.33456588  1
  Cu+  Cu47  1  0.83932230  0.16608127  0.66385107  1
  Cu+  Cu48  1  0.83548066  0.49864056  -0.00068516  1
  Cu+  Cu49  1  0.83027968  0.50158826  0.33702926  1
  Cu+  Cu50  1  0.83480344  0.50184440  0.66836139  1
  Cu+  Cu51  1  0.83672026  0.83339639  -0.00033920  1
  Cu+  Cu52  1  0.83110305  0.83401317  0.33432162  1
  Cu+  Cu53  1  0.82858134  0.82960456  0.66858804  1
  Cu+  Cu54  1  0.16239396  -0.00194347  0.16700893  1
  Cu+  Cu55  1  0.16993475  0.00132441  0.49600946  1
  Cu+  Cu56  1  0.16728155  0.00031929  0.83405885  1
  Cu+  Cu57  1  0.15999354  0.33347418  0.17306533  1
  Cu+  Cu58  1  0.17293001  0.33732790  0.49447680  1
  Cu+  Cu59  1  0.16835122  0.33267651  0.83317871  1
  Cu+  Cu60  1  0.16650967  0.66235795  0.16433245  1
  Cu+  Cu61  1  0.16440227  0.66366420  0.49858514  1
  Cu+  Cu62  1  0.16564360  0.66567866  0.83003042  1
  Cu+  Cu63  1  0.50284440  -0.00232280  0.16807991  1
  Cu+  Cu64  1  0.49607371  -0.00187924  0.49964838  1
  Cu+  Cu65  1  0.50013672  0.00251421  0.84139778  1
  Cu+  Cu66  1  0.50520352  0.33408553  0.17154555  1
  Cu+  Cu67  1  0.49681298  0.33472583  0.50155536  1
  Cu+  Cu68  1  0.50363650  0.33047430  0.83207383  1
  Cu+  Cu69  1  0.49438010  0.66480872  0.16622599  1
  Cu+  Cu70  1  0.49728168  0.67177400  0.49911235  1
  Cu+  Cu71  1  0.49816139  0.66789479  0.83195702  1
  Cu+  Cu72  1  0.83166240  0.00478269  0.16326764  1
  Cu+  Cu73  1  0.83234045  -0.00080826  0.49905315  1
  Cu+  Cu74  1  0.83500178  -0.00181207  0.83477213  1
  Cu+  Cu75  1  0.83407953  0.33771634  0.16346621  1
  Cu+  Cu76  1  0.83418590  0.33046635  0.50364449  1
  Cu+  Cu77  1  0.83482175  0.33242955  0.83056059  1
  Cu+  Cu78  1  0.83587232  0.66864938  0.16468591  1
  Cu+  Cu79  1  0.83292188  0.66527222  0.50410994  1
  Cu+  Cu80  1  0.82833298  0.66551029  0.83322680  1
  Cu+  Cu81  1  -0.00361342  0.16568541  0.16453704  1
  Cu+  Cu82  1  0.00212190  0.16881183  0.50145723  1
  Cu+  Cu83  1  0.00489722  0.16520443  0.83137813  1
  Cu+  Cu84  1  -0.00032678  0.49384723  0.16565921  1
  Cu+  Cu85  1  -0.00377671  0.50232296  0.50623066  1
  Cu+  Cu86  1  0.00245575  0.50026069  0.83281508  1
  Cu+  Cu87  1  -0.00056588  0.82929193  0.16189667  1
  Cu+  Cu88  1  0.00106879  0.82989789  0.49739729  1
  Cu+  Cu89  1  -0.00084857  0.83234317  0.83340032  1
  Cu+  Cu90  1  0.32847680  0.16472166  0.16953024  1
  Cu+  Cu91  1  0.34088639  0.16676304  0.49608943  1
  Cu+  Cu92  1  0.33519372  0.16468774  0.83481262  1
  Cu+  Cu93  1  0.33696641  0.50164745  0.16303237  1
  Cu+  Cu94  1  0.33378918  0.49696478  0.50399947  1
  Cu+  Cu95  1  0.33250484  0.49929511  0.83267206  1
  Cu+  Cu96  1  0.33480464  0.82809425  0.16505600  1
  Cu+  Cu97  1  0.32966709  0.83814477  0.50100447  1
  Cu+  Cu98  1  0.32818698  0.83760691  0.83461163  1
  Cu+  Cu99  1  0.66661024  0.17285337  0.17060770  1
  Cu+  Cu100  1  0.66985323  0.16362644  0.49783877  1
  Cu+  Cu101  1  0.67190146  0.16437620  0.83036718  1
  Cu+  Cu102  1  0.66882610  0.50326446  0.16843240  1
  Cu+  Cu103  1  0.66731519  0.50074074  0.50151806  1
  Cu+  Cu104  1  0.66539978  0.49962608  0.83201833  1
  Cu+  Cu105  1  0.66829972  0.83425453  0.17090501  1
  Cu+  Cu106  1  0.66430586  0.83284605  0.49846179  1
  Cu+  Cu107  1  0.66361096  0.83628459  0.83494716  1
  Cu+  Cu108  1  0.59486691  0.92674669  0.92854592  1
  Cu+  Cu109  1  0.93206897  0.25857301  0.59288747  1
  Cu+  Cu110  1  0.25092756  0.92627997  0.92826816  1
  Cu+  Cu111  1  0.92720525  0.40793489  0.06811648  1
  Cu+  Cu112  1  0.25943848  0.26243222  0.25049535  1
  Cu+  Cu113  1  0.41056669  0.07662587  0.59584809  1
  Cu+  Cu114  1  0.92685542  0.92554689  0.92181871  1
  Cu+  Cu115  1  0.59526332  0.73937829  0.40760528  1
  Cu+  Cu116  1  0.26406890  0.42172815  0.40251629  1
  Cu+  Cu117  1  0.40437451  0.74288562  0.59610290  1
  Cu+  Cu118  1  0.92418803  0.59724965  0.59764527  1
  Cu+  Cu119  1  0.40486203  0.92728448  0.08137007  1
  Cu+  Cu120  1  0.40719406  0.40577156  0.59900636  1
  Cu+  Cu121  1  0.40533114  0.73651101  0.25875286  1
  Cu+  Cu122  1  0.24709554  0.93056319  0.59349303  1
  Cu+  Cu123  1  0.40269027  0.92547286  0.40555623  1
  Cu+  Cu124  1  0.40379443  0.08629451  0.93310187  1
  Cu+  Cu125  1  0.59698918  0.92527573  0.25945300  1
  Cu+  Cu126  1  0.59917493  0.26611084  0.26158304  1
  Cu+  Cu127  1  0.41704540  0.26352760  0.40533041  1
  Cu+  Cu128  1  0.40676760  0.59013419  0.06749886  1
  Cu+  Cu129  1  0.92675051  0.73808392  0.07138697  1
  Cu+  Cu130  1  0.06632417  0.40512591  0.26457222  1
  Cu+  Cu131  1  0.59504175  0.92132904  0.59453382  1
  Cu+  Cu132  1  0.92501136  0.07608439  0.07357937  1
  Te2-  Te133  1  0.24780471  0.25269643  0.08438437  1
  Te2-  Te134  1  0.25966745  0.25663398  0.40988313  1
  Te2-  Te135  1  0.25579265  0.25089023  0.75028328  1
  Te2-  Te136  1  0.25151523  0.58339538  0.07848056  1
  Te2-  Te137  1  0.25015860  0.58118244  0.41430604  1
  Te2-  Te138  1  0.25313367  0.58526106  0.74710824  1
  Te2-  Te139  1  0.25195735  0.92021869  0.08143235  1
  Te2-  Te140  1  0.25031353  0.91920412  0.40601103  1
  Te2-  Te141  1  0.25106914  0.92126982  0.74511239  1
  Te2-  Te142  1  0.58396117  0.25172882  0.08058366  1
  Te2-  Te143  1  0.58986367  0.25553191  0.41716118  1
  Te2-  Te144  1  0.58784887  0.24841525  0.74710592  1
  Te2-  Te145  1  0.58544668  0.58661778  0.08293957  1
  Te2-  Te146  1  0.58641581  0.58744819  0.41722733  1
  Te2-  Te147  1  0.58275122  0.58524968  0.74755556  1
  Te2-  Te148  1  0.59023844  0.91967157  0.08184560  1
  Te2-  Te149  1  0.58622786  0.92165022  0.41173828  1
  Te2-  Te150  1  0.58280367  0.92253207  0.74816689  1
  Te2-  Te151  1  0.91959742  0.25517210  0.07881423  1
  Te2-  Te152  1  0.91907741  0.25219929  0.41447372  1
  Te2-  Te153  1  0.92366610  0.25200403  0.74732545  1
  Te2-  Te154  1  0.92233728  0.58514553  0.07985156  1
  Te2-  Te155  1  0.91730465  0.58507574  0.41655989  1
  Te2-  Te156  1  0.92023580  0.58812539  0.75021294  1
  Te2-  Te157  1  0.92178882  0.92314319  0.07914083  1
  Te2-  Te158  1  0.91784328  0.91636188  0.41594063  1
  Te2-  Te159  1  0.91661118  0.91541084  0.74665447  1
  Te2-  Te160  1  0.24839224  0.07684878  0.25228992  1
  Te2-  Te161  1  0.25650182  0.08304083  0.58523888  1
  Te2-  Te162  1  0.25256301  0.07977381  0.92526533  1
  Te2-  Te163  1  0.25839614  0.41377651  0.25151055  1
  Te2-  Te164  1  0.25165179  0.41259117  0.59085458  1
  Te2-  Te165  1  0.25393745  0.41267528  0.91809057  1
  Te2-  Te166  1  0.25155209  0.74276188  0.25001420  1
  Te2-  Te167  1  0.25145543  0.74395693  0.58383905  1
  Te2-  Te168  1  0.25050321  0.74616094  0.91587676  1
  Te2-  Te169  1  0.58814897  0.08038598  0.25350397  1
  Te2-  Te170  1  0.58839880  0.07776892  0.58331408  1
  Te2-  Te171  1  0.59322168  0.08137892  0.92138844  1
  Te2-  Te172  1  0.59022603  0.41799898  0.25589675  1
  Te2-  Te173  1  0.58375594  0.41552867  0.58471354  1
  Te2-  Te174  1  0.58409315  0.41520582  0.91857102  1
  Te2-  Te175  1  0.58715692  0.74265634  0.25120390  1
  Te2-  Te176  1  0.58248075  0.75051440  0.58794489  1
  Te2-  Te177  1  0.58004978  0.75098846  0.91880281  1
  Te2-  Te178  1  0.91553608  0.08320173  0.25291087  1
  Te2-  Te179  1  0.92174392  0.07765784  0.58271625  1
  Te2-  Te180  1  0.92461066  0.07959045  0.91939445  1
  Te2-  Te181  1  0.91545287  0.41429692  0.25704908  1
  Te2-  Te182  1  0.91943029  0.41174397  0.59008014  1
  Te2-  Te183  1  0.92160078  0.41245785  0.91632472  1
  Te2-  Te184  1  0.91762864  0.75025952  0.25279591  1
  Te2-  Te185  1  0.91960452  0.74937549  0.58804314  1
  Te2-  Te186  1  0.91888992  0.74302207  0.91753140  1
  Te2-  Te187  1  0.07282489  0.25012691  0.25556656  1
  Te2-  Te188  1  0.08831035  0.25455266  0.58437854  1
  Te2-  Te189  1  0.08295394  0.25112509  0.91763739  1
  Te2-  Te190  1  0.08039706  0.58246601  0.25014680  1
  Te2-  Te191  1  0.08159684  0.58624488  0.58902410  1
  Te2-  Te192  1  0.08259579  0.58521270  0.91805478  1
  Te2-  Te193  1  0.07984181  0.91276551  0.24940351  1
  Te2-  Te194  1  0.08236711  0.91859778  0.58048699  1
  Te2-  Te195  1  0.08028292  0.91920791  0.91941505  1
  Te2-  Te196  1  0.41247914  0.25483980  0.25249389  1
  Te2-  Te197  1  0.41595657  0.25009002  0.58965767  1
  Te2-  Te198  1  0.41797933  0.25050453  0.91979060  1
  Te2-  Te199  1  0.41206701  0.58401469  0.25697669  1
  Te2-  Te200  1  0.41196775  0.58881322  0.58651154  1
  Te2-  Te201  1  0.41222620  0.58698802  0.91707511  1
  Te2-  Te202  1  0.41087935  0.91970213  0.25145225  1
  Te2-  Te203  1  0.40676165  0.92409280  0.59018183  1
  Te2-  Te204  1  0.40606037  0.92542724  0.92345247  1
  Te2-  Te205  1  0.75018710  0.25891237  0.25451584  1
  Te2-  Te206  1  0.74655894  0.24838269  0.58626744  1
  Te2-  Te207  1  0.75166807  0.24989780  0.91619971  1
  Te2-  Te208  1  0.75078866  0.58847152  0.25170861  1
  Te2-  Te209  1  0.74592815  0.58493835  0.58846309  1
  Te2-  Te210  1  0.74726305  0.58229810  0.91949718  1
  Te2-  Te211  1  0.75013037  0.92293664  0.25307645  1
  Te2-  Te212  1  0.74700473  0.91839595  0.58644673  1
  Te2-  Te213  1  0.74708225  0.91996581  0.92185743  1
  Te2-  Te214  1  0.07931239  0.07895421  0.08012630  1
  Te2-  Te215  1  0.08535900  0.08607905  0.41443262  1
  Te2-  Te216  1  0.08507032  0.08058043  0.74623802  1
  Te2-  Te217  1  0.08278220  0.41145791  0.07670829  1
  Te2-  Te218  1  0.07404878  0.41294865  0.41884394  1
  Te2-  Te219  1  0.08174460  0.41276859  0.74867812  1
  Te2-  Te220  1  0.08254872  0.74378489  0.07715148  1
  Te2-  Te221  1  0.08171573  0.74481563  0.41279008  1
  Te2-  Te222  1  0.08018181  0.74857730  0.74550491  1
  Te2-  Te223  1  0.41181817  0.08045799  0.08527407  1
  Te2-  Te224  1  0.41712622  0.08049227  0.40674531  1
  Te2-  Te225  1  0.41512143  0.07773321  0.74912674  1
  Te2-  Te226  1  0.41877360  0.41145990  0.08349153  1
  Te2-  Te227  1  0.41533123  0.41617118  0.40881628  1
  Te2-  Te228  1  0.41359628  0.41089566  0.74982884  1
  Te2-  Te229  1  0.41478794  0.74650851  0.07519646  1
  Te2-  Te230  1  0.40771006  0.74831978  0.41253661  1
  Te2-  Te231  1  0.41042143  0.75084138  0.75015183  1
  Te2-  Te232  1  0.74398133  0.08717971  0.08219441  1
  Te2-  Te233  1  0.74903996  0.07950825  0.41274837  1
  Te2-  Te234  1  0.75411557  0.07967973  0.74586959  1
  Te2-  Te235  1  0.74619303  0.41791839  0.08105923  1
  Te2-  Te236  1  0.74820050  0.41338166  0.41840113  1
  Te2-  Te237  1  0.74881678  0.41516162  0.74765539  1
  Te2-  Te238  1  0.74714798  0.75052728  0.08165823  1
  Te2-  Te239  1  0.74794808  0.74522075  0.41473527  1
  Te2-  Te240  1  0.74256734  0.74830014  0.75114392  1
