# generated using pymatgen
data_Ti27(Cu53Te54)2
_symmetry_space_group_name_H-M   'P 1'
_cell_length_a   17.89842051
_cell_length_b   17.90014854
_cell_length_c   17.90361474
_cell_angle_alpha   89.99912616
_cell_angle_beta   89.98824319
_cell_angle_gamma   90.01228541
_symmetry_Int_Tables_number   1
_chemical_formula_structural   Ti27(Cu53Te54)2
_chemical_formula_sum   'Ti27 Cu106 Te108'
_cell_volume   5736.03835707
_cell_formula_units_Z   1
loop_
 _symmetry_equiv_pos_site_id
 _symmetry_equiv_pos_as_xyz
  1  'x, y, z'
loop_
 _atom_type_symbol
 _atom_type_oxidation_number
  Ti4+  4.0
  Cu+  1.0
  Te2-  -2.0
loop_
 _atom_site_type_symbol
 _atom_site_label
 _atom_site_symmetry_multiplicity
 _atom_site_fract_x
 _atom_site_fract_y
 _atom_site_fract_z
 _atom_site_occupancy
  Ti4+  Ti0  1  0.16660300  0.16517217  0.16856971  1
  Ti4+  Ti1  1  0.16598115  0.16748184  0.50269949  1
  Ti4+  Ti2  1  0.16561710  0.16486997  0.83519950  1
  Ti4+  Ti3  1  0.16517606  0.49936080  0.16781842  1
  Ti4+  Ti4  1  0.16730078  0.50383105  0.49920896  1
  Ti4+  Ti5  1  0.16727969  0.49904673  0.82912469  1
  Ti4+  Ti6  1  0.16602515  0.83244781  0.16664420  1
  Ti4+  Ti7  1  0.16524553  0.83518883  0.50051963  1
  Ti4+  Ti8  1  0.16667868  0.82742798  0.83609852  1
  Ti4+  Ti9  1  0.49958598  0.16768642  0.16882749  1
  Ti4+  Ti10  1  0.50243017  0.16715778  0.50364959  1
  Ti4+  Ti11  1  0.50015402  0.16903956  0.83360225  1
  Ti4+  Ti12  1  0.49812577  0.50264542  0.16661598  1
  Ti4+  Ti13  1  0.49903011  0.50218316  0.49732464  1
  Ti4+  Ti14  1  0.50228630  0.49950282  0.83423289  1
  Ti4+  Ti15  1  0.49985075  0.83091847  0.16893422  1
  Ti4+  Ti16  1  0.50460455  0.83625017  0.49698723  1
  Ti4+  Ti17  1  0.49271226  0.83332900  0.83220801  1
  Ti4+  Ti18  1  0.83337823  0.16799722  0.16533642  1
  Ti4+  Ti19  1  0.83436039  0.16732896  0.49959309  1
  Ti4+  Ti20  1  0.83466500  0.16594187  0.83266448  1
  Ti4+  Ti21  1  0.83480716  0.50182934  0.16479745  1
  Ti4+  Ti22  1  0.83196998  0.49978435  0.50034761  1
  Ti4+  Ti23  1  0.83473123  0.49956573  0.83432755  1
  Ti4+  Ti24  1  0.83313497  0.83211924  0.16417968  1
  Ti4+  Ti25  1  0.83352173  0.83269592  0.49965351  1
  Ti4+  Ti26  1  0.83331865  0.83360213  0.83359001  1
  Cu+  Cu27  1  0.16632829  0.16333595  0.00524567  1
  Cu+  Cu28  1  0.16670291  0.16689349  0.33570101  1
  Cu+  Cu29  1  0.16288535  0.16783095  0.66942515  1
  Cu+  Cu30  1  0.16650107  0.49609317  -0.00362877  1
  Cu+  Cu31  1  0.16883163  0.50316995  0.33361994  1
  Cu+  Cu32  1  0.16429410  0.50286365  0.66288122  1
  Cu+  Cu33  1  0.17660000  0.82811402  0.00203008  1
  Cu+  Cu34  1  0.16285545  0.83553028  0.33241532  1
  Cu+  Cu35  1  0.16495777  0.83388237  0.67003538  1
  Cu+  Cu36  1  0.49902467  0.16883173  0.00125993  1
  Cu+  Cu37  1  0.49985655  0.16789929  0.33838740  1
  Cu+  Cu38  1  0.50584592  0.16562525  0.67069798  1
  Cu+  Cu39  1  0.49954652  0.49700850  0.00131557  1
  Cu+  Cu40  1  0.49393505  0.50197446  0.32911615  1
  Cu+  Cu41  1  0.50525371  0.50347654  0.66658804  1
  Cu+  Cu42  1  0.49258852  0.83100925  -0.00077477  1
  Cu+  Cu43  1  0.50905395  0.83408877  0.33229173  1
  Cu+  Cu44  1  0.49469500  0.83408399  0.66005269  1
  Cu+  Cu45  1  0.83652541  0.16920629  -0.00169205  1
  Cu+  Cu46  1  0.83378459  0.16900305  0.33117019  1
  Cu+  Cu47  1  0.83325777  0.16469051  0.66388448  1
  Cu+  Cu48  1  0.83242580  0.50263150  0.00051471  1
  Cu+  Cu49  1  0.83267801  0.49982232  0.33442064  1
  Cu+  Cu50  1  0.83224439  0.49627546  0.66718831  1
  Cu+  Cu51  1  0.83592213  0.83151383  -0.00147114  1
  Cu+  Cu52  1  0.83270179  0.83354706  0.33320392  1
  Cu+  Cu53  1  0.83305831  0.83291889  0.66667966  1
  Cu+  Cu54  1  0.16706411  -0.00054651  0.17030295  1
  Cu+  Cu55  1  0.16547550  0.00325722  0.50250413  1
  Cu+  Cu56  1  0.16513700  -0.00572229  0.83548258  1
  Cu+  Cu57  1  0.16552819  0.32974873  0.16560979  1
  Cu+  Cu58  1  0.16798266  0.33834204  0.50246242  1
  Cu+  Cu59  1  0.16381264  0.33118734  0.83032490  1
  Cu+  Cu60  1  0.16489183  0.66642176  0.16915597  1
  Cu+  Cu61  1  0.16499134  0.67013091  0.50024961  1
  Cu+  Cu62  1  0.16625008  0.66261410  0.82657667  1
  Cu+  Cu63  1  0.49966789  -0.00422022  0.16993669  1
  Cu+  Cu64  1  0.50840875  0.00708846  0.49434143  1
  Cu+  Cu65  1  0.49625861  0.00509190  0.83336386  1
  Cu+  Cu66  1  0.49808968  0.33741424  0.17053895  1
  Cu+  Cu67  1  0.49515005  0.32843085  0.49638474  1
  Cu+  Cu68  1  0.50181641  0.33459829  0.83490395  1
  Cu+  Cu69  1  0.50440963  0.66328174  0.17011649  1
  Cu+  Cu70  1  0.50422343  0.66935563  0.49771275  1
  Cu+  Cu71  1  0.49308674  0.66259993  0.82919976  1
  Cu+  Cu72  1  0.83305813  0.00237554  0.16357059  1
  Cu+  Cu73  1  0.83258847  -0.00150571  0.50000711  1
  Cu+  Cu74  1  0.83386201  -0.00065062  0.83517073  1
  Cu+  Cu75  1  0.83385208  0.33555218  0.16617750  1
  Cu+  Cu76  1  0.83216282  0.33359956  0.49857864  1
  Cu+  Cu77  1  0.83809207  0.33172269  0.83735098  1
  Cu+  Cu78  1  0.83336813  0.66735132  0.15724832  1
  Cu+  Cu79  1  0.83324954  0.66576294  0.50210119  1
  Cu+  Cu80  1  0.83396818  0.66854426  0.83218565  1
  Cu+  Cu81  1  0.00118216  0.16618587  0.16739711  1
  Cu+  Cu82  1  -0.00179757  0.16845079  0.50046753  1
  Cu+  Cu83  1  0.00002796  0.17088507  0.83403582  1
  Cu+  Cu84  1  0.00089668  0.49956762  0.16673112  1
  Cu+  Cu85  1  -0.00168456  0.49983960  0.50007474  1
  Cu+  Cu86  1  0.00074421  0.49974556  0.82950277  1
  Cu+  Cu87  1  -0.00146359  0.82642806  0.16358493  1
  Cu+  Cu88  1  -0.00352267  0.83527779  0.50203630  1
  Cu+  Cu89  1  0.00221283  0.83570399  0.83334471  1
  Cu+  Cu90  1  0.33138411  0.16501194  0.16837553  1
  Cu+  Cu91  1  0.33231096  0.16877695  0.50767735  1
  Cu+  Cu92  1  0.33575905  0.16490789  0.83845505  1
  Cu+  Cu93  1  0.32863041  0.50111595  0.17264042  1
  Cu+  Cu94  1  0.33398660  0.50465062  0.49380015  1
  Cu+  Cu95  1  0.33449779  0.49852297  0.83094495  1
  Cu+  Cu96  1  0.33055694  0.83256748  0.16706973  1
  Cu+  Cu97  1  0.33576501  0.83776134  0.49924606  1
  Cu+  Cu98  1  0.32980372  0.82422447  0.84111067  1
  Cu+  Cu99  1  0.66853905  0.16825578  0.16486959  1
  Cu+  Cu100  1  0.67010710  0.16593270  0.50219564  1
  Cu+  Cu101  1  0.66588881  0.16411647  0.83072911  1
  Cu+  Cu102  1  0.66980033  0.50558585  0.16104682  1
  Cu+  Cu103  1  0.66652187  0.50077274  0.50359792  1
  Cu+  Cu104  1  0.66841290  0.49783017  0.83547835  1
  Cu+  Cu105  1  0.66626641  0.83495787  0.16608730  1
  Cu+  Cu106  1  0.66992394  0.83127486  0.49629660  1
  Cu+  Cu107  1  0.66493333  0.83559647  0.83336637  1
  Cu+  Cu108  1  0.41058260  0.07875050  0.93140457  1
  Cu+  Cu109  1  0.07353563  0.92597965  0.74158780  1
  Cu+  Cu110  1  0.60044802  0.08742443  0.40417985  1
  Cu+  Cu111  1  0.59712849  0.59421287  0.59642130  1
  Cu+  Cu112  1  0.92782896  0.73876218  0.06656455  1
  Cu+  Cu113  1  0.59546262  0.07023831  0.74370379  1
  Cu+  Cu114  1  0.59919633  0.92843440  0.25454538  1
  Cu+  Cu115  1  0.26150845  0.73353894  0.08202516  1
  Cu+  Cu116  1  0.40699771  0.58141991  0.73762876  1
  Cu+  Cu117  1  0.40106022  0.24896406  0.41029217  1
  Cu+  Cu118  1  0.25387397  0.59554656  0.26052987  1
  Cu+  Cu119  1  0.73746434  0.59674165  0.06790981  1
  Cu+  Cu120  1  0.41305954  0.73184769  0.92965955  1
  Cu+  Cu121  1  0.06780881  0.59143977  0.73635902  1
  Cu+  Cu122  1  0.25615523  0.92814267  0.26296983  1
  Cu+  Cu123  1  0.92902725  0.26118429  0.93065346  1
  Cu+  Cu124  1  0.07143339  0.26068635  0.73736815  1
  Cu+  Cu125  1  0.25434083  0.74046705  0.73679204  1
  Cu+  Cu126  1  0.25539531  0.92656917  0.92653935  1
  Cu+  Cu127  1  0.40006341  0.40503404  0.25497610  1
  Cu+  Cu128  1  0.40897710  0.59957163  0.40583023  1
  Cu+  Cu129  1  0.59950408  0.58120617  0.25908053  1
  Cu+  Cu130  1  0.60032975  0.73934706  0.40657258  1
  Cu+  Cu131  1  0.06859248  0.74108024  0.26333601  1
  Cu+  Cu132  1  0.40622047  0.74184289  0.58076901  1
  Te2-  Te133  1  0.25281680  0.25018284  0.08215167  1
  Te2-  Te134  1  0.25077509  0.25452419  0.41669985  1
  Te2-  Te135  1  0.25355123  0.24841040  0.75098510  1
  Te2-  Te136  1  0.25127677  0.58201742  0.07855771  1
  Te2-  Te137  1  0.25317835  0.59399125  0.41277986  1
  Te2-  Te138  1  0.25605700  0.58513306  0.74079447  1
  Te2-  Te139  1  0.25461626  0.92222750  0.08168260  1
  Te2-  Te140  1  0.25052636  0.92181396  0.41622213  1
  Te2-  Te141  1  0.25546339  0.91472605  0.75162162  1
  Te2-  Te142  1  0.58218915  0.25394349  0.08490190  1
  Te2-  Te143  1  0.59013963  0.25289592  0.41616435  1
  Te2-  Te144  1  0.58762250  0.25570108  0.74929648  1
  Te2-  Te145  1  0.58367873  0.58828271  0.07532227  1
  Te2-  Te146  1  0.59057216  0.58543518  0.41033494  1
  Te2-  Te147  1  0.59122823  0.58779147  0.75017750  1
  Te2-  Te148  1  0.58107763  0.91545956  0.07891569  1
  Te2-  Te149  1  0.59400951  0.92403013  0.41098664  1
  Te2-  Te150  1  0.57987935  0.91742096  0.74762476  1
  Te2-  Te151  1  0.92209611  0.25485785  0.08249123  1
  Te2-  Te152  1  0.91829873  0.25336200  0.41364656  1
  Te2-  Te153  1  0.91838815  0.25309604  0.74347831  1
  Te2-  Te154  1  0.92490452  0.58543329  0.07731374  1
  Te2-  Te155  1  0.91760748  0.58533401  0.41544275  1
  Te2-  Te156  1  0.91652713  0.58611412  0.74510486  1
  Te2-  Te157  1  0.91916841  0.91852972  0.08101792  1
  Te2-  Te158  1  0.91793425  0.91877403  0.41359675  1
  Te2-  Te159  1  0.91889052  0.91996750  0.74713250  1
  Te2-  Te160  1  0.25365301  0.08039054  0.25721646  1
  Te2-  Te161  1  0.24997048  0.08249136  0.58980455  1
  Te2-  Te162  1  0.25242115  0.07888924  0.92337562  1
  Te2-  Te163  1  0.24821322  0.40972457  0.25507901  1
  Te2-  Te164  1  0.25505986  0.42019337  0.58374375  1
  Te2-  Te165  1  0.25195252  0.41255451  0.91403984  1
  Te2-  Te166  1  0.25343690  0.74770555  0.25702163  1
  Te2-  Te167  1  0.25339748  0.74799009  0.58502539  1
  Te2-  Te168  1  0.25325274  0.73275881  0.92314743  1
  Te2-  Te169  1  0.58860743  0.08154019  0.25285835  1
  Te2-  Te170  1  0.59092752  0.08002779  0.58944067  1
  Te2-  Te171  1  0.58559694  0.08167220  0.92108644  1
  Te2-  Te172  1  0.58860987  0.41945257  0.25072170  1
  Te2-  Te173  1  0.58061604  0.41301166  0.58129690  1
  Te2-  Te174  1  0.58648305  0.41425133  0.92098809  1
  Te2-  Te175  1  0.59167391  0.74275171  0.25267115  1
  Te2-  Te176  1  0.58982534  0.74989177  0.58765233  1
  Te2-  Te177  1  0.57959215  0.74796685  0.91490806  1
  Te2-  Te178  1  0.91787448  0.08197429  0.25070371  1
  Te2-  Te179  1  0.91889462  0.07996958  0.58396682  1
  Te2-  Te180  1  0.92057527  0.08071089  0.91810000  1
  Te2-  Te181  1  0.91823383  0.41640286  0.25201440  1
  Te2-  Te182  1  0.91774037  0.41395184  0.58438706  1
  Te2-  Te183  1  0.92238362  0.41695992  0.92098841  1
  Te2-  Te184  1  0.91539537  0.74443550  0.25292377  1
  Te2-  Te185  1  0.91808927  0.74761056  0.58641523  1
  Te2-  Te186  1  0.92256220  0.74644945  0.91604940  1
  Te2-  Te187  1  0.08132124  0.25086167  0.25364092  1
  Te2-  Te188  1  0.07972631  0.25580652  0.58510442  1
  Te2-  Te189  1  0.08320052  0.25244434  0.92405754  1
  Te2-  Te190  1  0.07768073  0.58600228  0.25490051  1
  Te2-  Te191  1  0.07753767  0.58931761  0.58367197  1
  Te2-  Te192  1  0.08254371  0.58351949  0.91637450  1
  Te2-  Te193  1  0.07581787  0.91725660  0.24911919  1
  Te2-  Te194  1  0.08011223  0.92010442  0.58679087  1
  Te2-  Te195  1  0.08381595  0.91313962  0.92587438  1
  Te2-  Te196  1  0.41091695  0.25225819  0.25564427  1
  Te2-  Te197  1  0.41742453  0.25147007  0.59197814  1
  Te2-  Te198  1  0.41453616  0.25579857  0.92016135  1
  Te2-  Te199  1  0.40851112  0.59378702  0.25334117  1
  Te2-  Te200  1  0.41144717  0.58876349  0.58545733  1
  Te2-  Te201  1  0.41173527  0.58147788  0.92249456  1
  Te2-  Te202  1  0.41296715  0.91627587  0.25581630  1
  Te2-  Te203  1  0.41909098  0.92624486  0.57853885  1
  Te2-  Te204  1  0.40956712  0.92234342  0.92160946  1
  Te2-  Te205  1  0.74827350  0.25406538  0.25054634  1
  Te2-  Te206  1  0.74886159  0.25255104  0.58560245  1
  Te2-  Te207  1  0.74673412  0.25005392  0.91663119  1
  Te2-  Te208  1  0.75147089  0.58955769  0.25293649  1
  Te2-  Te209  1  0.74795387  0.58671420  0.58957784  1
  Te2-  Te210  1  0.74787499  0.58804118  0.91707520  1
  Te2-  Te211  1  0.75011241  0.92051159  0.25092839  1
  Te2-  Te212  1  0.74716843  0.91713435  0.58474601  1
  Te2-  Te213  1  0.74811575  0.91798058  0.91969912  1
  Te2-  Te214  1  0.08085870  0.07829064  0.08426192  1
  Te2-  Te215  1  0.08062217  0.08297764  0.41653752  1
  Te2-  Te216  1  0.07926155  0.07842416  0.75001422  1
  Te2-  Te217  1  0.08191219  0.41383586  0.08120061  1
  Te2-  Te218  1  0.08313162  0.41800822  0.41515890  1
  Te2-  Te219  1  0.08001341  0.41301327  0.74251733  1
  Te2-  Te220  1  0.08241693  0.74412727  0.07645517  1
  Te2-  Te221  1  0.07788200  0.74977727  0.41601832  1
  Te2-  Te222  1  0.07695865  0.74506085  0.74595276  1
  Te2-  Te223  1  0.41467937  0.07946192  0.08528708  1
  Te2-  Te224  1  0.41115305  0.08324195  0.41816032  1
  Te2-  Te225  1  0.41203842  0.08403478  0.74552767  1
  Te2-  Te226  1  0.41069397  0.41618012  0.08390603  1
  Te2-  Te227  1  0.41121898  0.41215926  0.41130411  1
  Te2-  Te228  1  0.41833469  0.41471755  0.74606728  1
  Te2-  Te229  1  0.41298514  0.74161310  0.08373237  1
  Te2-  Te230  1  0.41441259  0.75235677  0.41016831  1
  Te2-  Te231  1  0.40912552  0.74455528  0.74005485  1
  Te2-  Te232  1  0.74871846  0.08378892  0.07804779  1
  Te2-  Te233  1  0.75039245  0.08033643  0.41160021  1
  Te2-  Te234  1  0.74951968  0.07813063  0.74631608  1
  Te2-  Te235  1  0.74879905  0.41537878  0.08039893  1
  Te2-  Te236  1  0.74573046  0.41561541  0.41502182  1
  Te2-  Te237  1  0.75006072  0.41192580  0.75170884  1
  Te2-  Te238  1  0.74302928  0.75005802  0.07639669  1
  Te2-  Te239  1  0.75026717  0.74343762  0.41159121  1
  Te2-  Te240  1  0.74666638  0.74946175  0.74883773  1
