# generated using pymatgen
data_Ti27(Cu53Te54)2
_symmetry_space_group_name_H-M   'P 1'
_cell_length_a   17.95760032
_cell_length_b   17.96243519
_cell_length_c   17.95313002
_cell_angle_alpha   89.94335068
_cell_angle_beta   89.97034110
_cell_angle_gamma   90.13609803
_symmetry_Int_Tables_number   1
_chemical_formula_structural   Ti27(Cu53Te54)2
_chemical_formula_sum   'Ti27 Cu106 Te108'
_cell_volume   5790.98173754
_cell_formula_units_Z   1
loop_
 _symmetry_equiv_pos_site_id
 _symmetry_equiv_pos_as_xyz
  1  'x, y, z'
loop_
 _atom_type_symbol
 _atom_type_oxidation_number
  Ti4+  4.0
  Cu+  1.0
  Te2-  -2.0
loop_
 _atom_site_type_symbol
 _atom_site_label
 _atom_site_symmetry_multiplicity
 _atom_site_fract_x
 _atom_site_fract_y
 _atom_site_fract_z
 _atom_site_occupancy
  Ti4+  Ti0  1  0.16806894  0.16911990  0.16533585  1
  Ti4+  Ti1  1  0.16680017  0.15855749  0.50126406  1
  Ti4+  Ti2  1  0.16205434  0.16664881  0.83422159  1
  Ti4+  Ti3  1  0.16640834  0.50094691  0.17031887  1
  Ti4+  Ti4  1  0.16651786  0.49821254  0.50325745  1
  Ti4+  Ti5  1  0.16577578  0.50156748  0.83426329  1
  Ti4+  Ti6  1  0.16590097  0.83237128  0.16632448  1
  Ti4+  Ti7  1  0.16941811  0.83490300  0.49682185  1
  Ti4+  Ti8  1  0.16647940  0.83283229  0.83429760  1
  Ti4+  Ti9  1  0.49908996  0.16513850  0.16445850  1
  Ti4+  Ti10  1  0.49880155  0.16355129  0.49761968  1
  Ti4+  Ti11  1  0.49899872  0.16385468  0.83325334  1
  Ti4+  Ti12  1  0.50110140  0.49513760  0.16609923  1
  Ti4+  Ti13  1  0.49737332  0.50122493  0.50127783  1
  Ti4+  Ti14  1  0.50126539  0.49752047  0.83437208  1
  Ti4+  Ti15  1  0.50036526  0.83040248  0.16618852  1
  Ti4+  Ti16  1  0.50195334  0.83173944  0.50200875  1
  Ti4+  Ti17  1  0.50105667  0.83125642  0.83372019  1
  Ti4+  Ti18  1  0.83149785  0.16735194  0.16823124  1
  Ti4+  Ti19  1  0.83871946  0.17120903  0.49762830  1
  Ti4+  Ti20  1  0.82835034  0.16907721  0.83237926  1
  Ti4+  Ti21  1  0.83456883  0.50260578  0.16915096  1
  Ti4+  Ti22  1  0.83128591  0.50132821  0.49794016  1
  Ti4+  Ti23  1  0.83271934  0.50492360  0.83322897  1
  Ti4+  Ti24  1  0.83341665  0.83416882  0.16790427  1
  Ti4+  Ti25  1  0.83545563  0.83324771  0.50157850  1
  Ti4+  Ti26  1  0.83235631  0.83841499  0.83344133  1
  Cu+  Cu27  1  0.16288714  0.17004009  -0.00231953  1
  Cu+  Cu28  1  0.16814390  0.16407902  0.33265008  1
  Cu+  Cu29  1  0.16869019  0.15871219  0.67087645  1
  Cu+  Cu30  1  0.16501243  0.50186407  0.00190467  1
  Cu+  Cu31  1  0.16500418  0.50206917  0.33697157  1
  Cu+  Cu32  1  0.16749158  0.49776013  0.66772916  1
  Cu+  Cu33  1  0.16639558  0.83195547  -0.00068702  1
  Cu+  Cu34  1  0.16558106  0.83436455  0.33074268  1
  Cu+  Cu35  1  0.16879788  0.83448599  0.66332849  1
  Cu+  Cu36  1  0.49927679  0.16988694  -0.00189774  1
  Cu+  Cu37  1  0.50094835  0.16551069  0.33005824  1
  Cu+  Cu38  1  0.49819018  0.16086531  0.66281068  1
  Cu+  Cu39  1  0.50490755  0.49855094  -0.00146837  1
  Cu+  Cu40  1  0.50070694  0.49435342  0.33590416  1
  Cu+  Cu41  1  0.49532533  0.50099977  0.66897810  1
  Cu+  Cu42  1  0.50033455  0.82961509  0.00097156  1
  Cu+  Cu43  1  0.50163146  0.83254826  0.33216093  1
  Cu+  Cu44  1  0.50256201  0.82924438  0.66795519  1
  Cu+  Cu45  1  0.82492210  0.16694059  0.00139118  1
  Cu+  Cu46  1  0.84235246  0.17126778  0.33086844  1
  Cu+  Cu47  1  0.83505657  0.16978729  0.66552751  1
  Cu+  Cu48  1  0.83491315  0.50389041  0.00058880  1
  Cu+  Cu49  1  0.82666334  0.49911893  0.33499229  1
  Cu+  Cu50  1  0.83142758  0.50664047  0.66478087  1
  Cu+  Cu51  1  0.83281930  0.83698695  0.00239454  1
  Cu+  Cu52  1  0.83280584  0.83331157  0.33158830  1
  Cu+  Cu53  1  0.83495795  0.83566985  0.67005615  1
  Cu+  Cu54  1  0.16767721  0.00087796  0.16519191  1
  Cu+  Cu55  1  0.16933848  -0.00267461  0.49201592  1
  Cu+  Cu56  1  0.16573332  -0.00166917  0.83467767  1
  Cu+  Cu57  1  0.17275382  0.33951437  0.16504115  1
  Cu+  Cu58  1  0.16596187  0.32704317  0.50515332  1
  Cu+  Cu59  1  0.16211994  0.33315922  0.83512788  1
  Cu+  Cu60  1  0.16302627  0.66608685  0.16662720  1
  Cu+  Cu61  1  0.16789663  0.66794881  0.50019741  1
  Cu+  Cu62  1  0.16620838  0.66797657  0.83339277  1
  Cu+  Cu63  1  0.49966821  -0.00085151  0.16373746  1
  Cu+  Cu64  1  0.49698535  -0.00377602  0.49989928  1
  Cu+  Cu65  1  0.49877453  -0.00327209  0.83376334  1
  Cu+  Cu66  1  0.49771138  0.32666442  0.16464582  1
  Cu+  Cu67  1  0.49877103  0.33276303  0.49965314  1
  Cu+  Cu68  1  0.50416262  0.32943065  0.83397062  1
  Cu+  Cu69  1  0.50035208  0.66406981  0.16724877  1
  Cu+  Cu70  1  0.49995272  0.66769755  0.50406180  1
  Cu+  Cu71  1  0.50094028  0.66324974  0.83475177  1
  Cu+  Cu72  1  0.83067329  -0.00179289  0.16680626  1
  Cu+  Cu73  1  0.83687956  0.00322868  0.49997573  1
  Cu+  Cu74  1  0.82585197  0.00419920  0.82929448  1
  Cu+  Cu75  1  0.83273443  0.33451615  0.17125472  1
  Cu+  Cu76  1  0.83944209  0.33838550  0.49615512  1
  Cu+  Cu77  1  0.82948766  0.33922972  0.83237931  1
  Cu+  Cu78  1  0.83498832  0.66998844  0.16821129  1
  Cu+  Cu79  1  0.83471246  0.66330078  0.50247654  1
  Cu+  Cu80  1  0.83352656  0.67201898  0.83207710  1
  Cu+  Cu81  1  0.00026583  0.16962127  0.16758420  1
  Cu+  Cu82  1  0.00239686  0.16608717  0.49370784  1
  Cu+  Cu83  1  -0.00517250  0.16711481  0.83158003  1
  Cu+  Cu84  1  0.00291609  0.50646162  0.16614532  1
  Cu+  Cu85  1  0.00159823  0.50419563  0.49953726  1
  Cu+  Cu86  1  -0.00051257  0.50162710  0.83418593  1
  Cu+  Cu87  1  -0.00218364  0.83339663  0.16722334  1
  Cu+  Cu88  1  0.00294011  0.83545953  0.49931169  1
  Cu+  Cu89  1  0.00045864  0.83456796  0.83241152  1
  Cu+  Cu90  1  0.33584022  0.16910871  0.16061850  1
  Cu+  Cu91  1  0.33526524  0.15391524  0.50389150  1
  Cu+  Cu92  1  0.32845882  0.16487765  0.83006762  1
  Cu+  Cu93  1  0.33205617  0.49414231  0.16742218  1
  Cu+  Cu94  1  0.33158030  0.49783364  0.50624050  1
  Cu+  Cu95  1  0.33578776  0.50037267  0.83084563  1
  Cu+  Cu96  1  0.33164317  0.82968429  0.16622706  1
  Cu+  Cu97  1  0.33749261  0.83671691  0.49618083  1
  Cu+  Cu98  1  0.33390303  0.83146367  0.83536247  1
  Cu+  Cu99  1  0.66253088  0.16786791  0.16829159  1
  Cu+  Cu100  1  0.67274297  0.17001532  0.49903043  1
  Cu+  Cu101  1  0.66540559  0.16492047  0.83931362  1
  Cu+  Cu102  1  0.67008968  0.49710328  0.17064047  1
  Cu+  Cu103  1  0.66112032  0.49888778  0.49385176  1
  Cu+  Cu104  1  0.66696978  0.50323247  0.83787403  1
  Cu+  Cu105  1  0.66663748  0.83231273  0.16703453  1
  Cu+  Cu106  1  0.66730954  0.83169217  0.50277446  1
  Cu+  Cu107  1  0.66694402  0.83822861  0.83261995  1
  Cu+  Cu108  1  0.40655894  0.59421259  0.74167171  1
  Cu+  Cu109  1  0.74163200  0.40616558  0.25912517  1
  Cu+  Cu110  1  0.40620532  0.25671661  0.06743051  1
  Cu+  Cu111  1  0.92854062  0.58895480  0.59390208  1
  Cu+  Cu112  1  0.25927437  0.06778952  0.74934883  1
  Cu+  Cu113  1  0.41595669  0.92273575  0.40029507  1
  Cu+  Cu114  1  0.73928708  0.07180023  0.93099127  1
  Cu+  Cu115  1  0.59451828  0.25936491  0.92533112  1
  Cu+  Cu116  1  0.92331280  0.07867353  0.73897337  1
  Cu+  Cu117  1  0.26214910  0.07669149  0.40065378  1
  Cu+  Cu118  1  0.92932102  0.74286939  0.74660114  1
  Cu+  Cu119  1  0.93088493  0.42127239  0.40534871  1
  Cu+  Cu120  1  0.07914497  0.59745040  0.40973376  1
  Cu+  Cu121  1  0.25885182  0.41564711  0.06872391  1
  Cu+  Cu122  1  0.73570540  0.92837859  0.73671002  1
  Cu+  Cu123  1  0.07184295  0.92211540  0.40099895  1
  Cu+  Cu124  1  0.41168408  0.06532718  0.59561086  1
  Cu+  Cu125  1  0.58838374  0.25380601  0.26054582  1
  Cu+  Cu126  1  0.07451698  0.59565439  0.07064980  1
  Cu+  Cu127  1  0.58661367  0.40360070  0.41213359  1
  Cu+  Cu128  1  0.08769462  0.25849216  0.40615312  1
  Cu+  Cu129  1  0.93195942  0.26401152  0.24973028  1
  Cu+  Cu130  1  0.59480688  0.59654192  0.92808874  1
  Cu+  Cu131  1  0.92083204  0.07157671  0.40139279  1
  Cu+  Cu132  1  0.73297236  0.59802134  0.41219838  1
  Te2-  Te133  1  0.25195547  0.25544820  0.07586855  1
  Te2-  Te134  1  0.25457742  0.24598790  0.41977211  1
  Te2-  Te135  1  0.24719386  0.25305583  0.74848689  1
  Te2-  Te136  1  0.25349671  0.58555581  0.08447937  1
  Te2-  Te137  1  0.25326223  0.58310582  0.41887331  1
  Te2-  Te138  1  0.25126371  0.58656031  0.74716515  1
  Te2-  Te139  1  0.25110432  0.91661690  0.08143000  1
  Te2-  Te140  1  0.25823683  0.91975248  0.40630362  1
  Te2-  Te141  1  0.25389974  0.91663534  0.74807711  1
  Te2-  Te142  1  0.58848246  0.25362806  0.07835331  1
  Te2-  Te143  1  0.58759010  0.25116587  0.41386701  1
  Te2-  Te144  1  0.58393790  0.24519023  0.74564825  1
  Te2-  Te145  1  0.58834964  0.58259056  0.08436972  1
  Te2-  Te146  1  0.58070623  0.58979071  0.41181789  1
  Te2-  Te147  1  0.58621447  0.58338742  0.74755549  1
  Te2-  Te148  1  0.58492195  0.91628243  0.08126720  1
  Te2-  Te149  1  0.58718811  0.91733079  0.41611484  1
  Te2-  Te150  1  0.58369121  0.92018749  0.74591326  1
  Te2-  Te151  1  0.91453067  0.25207705  0.08137012  1
  Te2-  Te152  1  0.92742854  0.26100716  0.40937410  1
  Te2-  Te153  1  0.91483298  0.25667413  0.74969950  1
  Te2-  Te154  1  0.91872761  0.58929911  0.08201537  1
  Te2-  Te155  1  0.91996660  0.58751373  0.40924526  1
  Te2-  Te156  1  0.92210670  0.59026559  0.74668389  1
  Te2-  Te157  1  0.91869728  0.92064514  0.08248476  1
  Te2-  Te158  1  0.91905474  0.91874509  0.41152554  1
  Te2-  Te159  1  0.92086409  0.92466503  0.74795201  1
  Te2-  Te160  1  0.25521978  0.08250729  0.24718429  1
  Te2-  Te161  1  0.25241627  0.07039032  0.59026005  1
  Te2-  Te162  1  0.24881303  0.08220396  0.92022720  1
  Te2-  Te163  1  0.25130582  0.41602808  0.25883896  1
  Te2-  Te164  1  0.24988981  0.41047494  0.58737262  1
  Te2-  Te165  1  0.25198306  0.41498047  0.91705529  1
  Te2-  Te166  1  0.24941117  0.74638464  0.25161299  1
  Te2-  Te167  1  0.25457497  0.75066982  0.58167363  1
  Te2-  Te168  1  0.25121224  0.74749183  0.91882409  1
  Te2-  Te169  1  0.58428659  0.07791845  0.25057434  1
  Te2-  Te170  1  0.58807183  0.08089431  0.57936197  1
  Te2-  Te171  1  0.58218315  0.07693054  0.92164246  1
  Te2-  Te172  1  0.58704272  0.40782100  0.25443875  1
  Te2-  Te173  1  0.58239215  0.41631045  0.58664303  1
  Te2-  Te174  1  0.58940022  0.41126048  0.92021039  1
  Te2-  Te175  1  0.58528810  0.74641878  0.25219412  1
  Te2-  Te176  1  0.58758300  0.74626188  0.58722287  1
  Te2-  Te177  1  0.58849004  0.74820569  0.91919881  1
  Te2-  Te178  1  0.92001587  0.07841304  0.24876833  1
  Te2-  Te179  1  0.92195138  0.08387858  0.58538036  1
  Te2-  Te180  1  0.91213018  0.08345970  0.91926074  1
  Te2-  Te181  1  0.92545488  0.41708455  0.25371859  1
  Te2-  Te182  1  0.91826784  0.41926967  0.58664227  1
  Te2-  Te183  1  0.91592758  0.41827183  0.91755165  1
  Te2-  Te184  1  0.91942953  0.74894549  0.25396009  1
  Te2-  Te185  1  0.92251699  0.74835297  0.58696849  1
  Te2-  Te186  1  0.91694777  0.75281826  0.91957395  1
  Te2-  Te187  1  0.08495587  0.25768527  0.25210755  1
  Te2-  Te188  1  0.08268956  0.24272616  0.58851649  1
  Te2-  Te189  1  0.07533448  0.25201267  0.91773664  1
  Te2-  Te190  1  0.07985011  0.58847712  0.25715917  1
  Te2-  Te191  1  0.08313937  0.58727337  0.58883014  1
  Te2-  Te192  1  0.07973991  0.58804837  0.91886212  1
  Te2-  Te193  1  0.07976064  0.92108997  0.24934963  1
  Te2-  Te194  1  0.08472055  0.92015032  0.58315395  1
  Te2-  Te195  1  0.08117884  0.91728751  0.91925931  1
  Te2-  Te196  1  0.41252565  0.25027659  0.25308910  1
  Te2-  Te197  1  0.41422965  0.24892293  0.58250185  1
  Te2-  Te198  1  0.40961931  0.25147849  0.91396616  1
  Te2-  Te199  1  0.41710110  0.57817691  0.25061716  1
  Te2-  Te200  1  0.41140398  0.58759534  0.58706435  1
  Te2-  Te201  1  0.41527980  0.58247033  0.92137650  1
  Te2-  Te202  1  0.41344836  0.91808892  0.24872293  1
  Te2-  Te203  1  0.41417201  0.91504460  0.59108318  1
  Te2-  Te204  1  0.41614903  0.91490815  0.91951521  1
  Te2-  Te205  1  0.74426574  0.25230202  0.25721127  1
  Te2-  Te206  1  0.75351722  0.25647609  0.58219783  1
  Te2-  Te207  1  0.74640206  0.25823876  0.91986298  1
  Te2-  Te208  1  0.74712502  0.58989952  0.25329739  1
  Te2-  Te209  1  0.74109163  0.58430157  0.58166541  1
  Te2-  Te210  1  0.74969675  0.59116229  0.92110716  1
  Te2-  Te211  1  0.74628301  0.91815286  0.25295939  1
  Te2-  Te212  1  0.75001042  0.92088651  0.58353102  1
  Te2-  Te213  1  0.74545937  0.92102889  0.92285865  1
  Te2-  Te214  1  0.08145081  0.08476483  0.08268590  1
  Te2-  Te215  1  0.07798846  0.07586788  0.40788635  1
  Te2-  Te216  1  0.07671247  0.07759452  0.74935386  1
  Te2-  Te217  1  0.07950003  0.41530520  0.08368711  1
  Te2-  Te218  1  0.08211482  0.41008812  0.41479639  1
  Te2-  Te219  1  0.08034003  0.41675503  0.74986896  1
  Te2-  Te220  1  0.07825609  0.74850211  0.08004489  1
  Te2-  Te221  1  0.08110088  0.74820451  0.41313044  1
  Te2-  Te222  1  0.08254586  0.74858699  0.74463142  1
  Te2-  Te223  1  0.41492250  0.07977338  0.07760996  1
  Te2-  Te224  1  0.41487385  0.07706003  0.40634529  1
  Te2-  Te225  1  0.41248769  0.07573738  0.74768136  1
  Te2-  Te226  1  0.41483207  0.41155515  0.07692623  1
  Te2-  Te227  1  0.41082460  0.41473033  0.41780620  1
  Te2-  Te228  1  0.41651054  0.40969407  0.75003263  1
  Te2-  Te229  1  0.41482762  0.74483363  0.08235837  1
  Te2-  Te230  1  0.41683903  0.74678564  0.41522482  1
  Te2-  Te231  1  0.41419495  0.74631752  0.74884087  1
  Te2-  Te232  1  0.74319733  0.08058642  0.08543829  1
  Te2-  Te233  1  0.75338215  0.08545773  0.41261466  1
  Te2-  Te234  1  0.74128157  0.08585717  0.74157255  1
  Te2-  Te235  1  0.75213665  0.41661597  0.08229024  1
  Te2-  Te236  1  0.74288377  0.40781938  0.41316359  1
  Te2-  Te237  1  0.74718850  0.42198246  0.74749131  1
  Te2-  Te238  1  0.74901585  0.74872264  0.08180185  1
  Te2-  Te239  1  0.74965198  0.74923422  0.41616640  1
  Te2-  Te240  1  0.74619923  0.75123842  0.74829180  1
