# generated using pymatgen
data_Ti27(Cu53Te54)2
_symmetry_space_group_name_H-M   'P 1'
_cell_length_a   17.88408618
_cell_length_b   17.88178177
_cell_length_c   17.88168908
_cell_angle_alpha   89.99268228
_cell_angle_beta   90.02282466
_cell_angle_gamma   89.98402675
_symmetry_Int_Tables_number   1
_chemical_formula_structural   Ti27(Cu53Te54)2
_chemical_formula_sum   'Ti27 Cu106 Te108'
_cell_volume   5718.55139741
_cell_formula_units_Z   1
loop_
 _symmetry_equiv_pos_site_id
 _symmetry_equiv_pos_as_xyz
  1  'x, y, z'
loop_
 _atom_type_symbol
 _atom_type_oxidation_number
  Ti4+  4.0
  Cu+  1.0
  Te2-  -2.0
loop_
 _atom_site_type_symbol
 _atom_site_label
 _atom_site_symmetry_multiplicity
 _atom_site_fract_x
 _atom_site_fract_y
 _atom_site_fract_z
 _atom_site_occupancy
  Ti4+  Ti0  1  0.16279413  0.16732827  0.16579100  1
  Ti4+  Ti1  1  0.16622213  0.16377870  0.50333155  1
  Ti4+  Ti2  1  0.16618952  0.16832550  0.83296390  1
  Ti4+  Ti3  1  0.16742804  0.50035061  0.16546211  1
  Ti4+  Ti4  1  0.16749208  0.49594139  0.49746047  1
  Ti4+  Ti5  1  0.16912447  0.50121004  0.82956433  1
  Ti4+  Ti6  1  0.16478555  0.83441300  0.17000185  1
  Ti4+  Ti7  1  0.16455222  0.83254610  0.50189857  1
  Ti4+  Ti8  1  0.16547497  0.82823703  0.83630093  1
  Ti4+  Ti9  1  0.49628116  0.16742222  0.16743633  1
  Ti4+  Ti10  1  0.49983957  0.16697706  0.50109889  1
  Ti4+  Ti11  1  0.49796053  0.16569460  0.83488119  1
  Ti4+  Ti12  1  0.50186973  0.49836528  0.16782358  1
  Ti4+  Ti13  1  0.49972987  0.49992360  0.49793080  1
  Ti4+  Ti14  1  0.50167107  0.49946095  0.83304182  1
  Ti4+  Ti15  1  0.50210131  0.83515163  0.16687818  1
  Ti4+  Ti16  1  0.50271111  0.83325920  0.50018081  1
  Ti4+  Ti17  1  0.49682320  0.83478916  0.83362918  1
  Ti4+  Ti18  1  0.83558494  0.16947787  0.16732389  1
  Ti4+  Ti19  1  0.83115108  0.16735722  0.50083384  1
  Ti4+  Ti20  1  0.83266751  0.16619468  0.83369174  1
  Ti4+  Ti21  1  0.83769656  0.50131859  0.16489206  1
  Ti4+  Ti22  1  0.83415907  0.50090988  0.49959398  1
  Ti4+  Ti23  1  0.83329347  0.50016231  0.83132631  1
  Ti4+  Ti24  1  0.83297051  0.83581288  0.16596728  1
  Ti4+  Ti25  1  0.83299621  0.83000655  0.49862341  1
  Ti4+  Ti26  1  0.83267919  0.83470758  0.82942309  1
  Cu+  Cu27  1  0.16132381  0.17145824  -0.00126037  1
  Cu+  Cu28  1  0.16283618  0.16382547  0.33564387  1
  Cu+  Cu29  1  0.17140348  0.16844579  0.66656423  1
  Cu+  Cu30  1  0.17030306  0.50462282  -0.00509345  1
  Cu+  Cu31  1  0.16159609  0.49694398  0.33131328  1
  Cu+  Cu32  1  0.16959019  0.49741182  0.66002655  1
  Cu+  Cu33  1  0.16761640  0.83014318  0.00687233  1
  Cu+  Cu34  1  0.16661362  0.83461790  0.33401971  1
  Cu+  Cu35  1  0.16145094  0.83000930  0.67166732  1
  Cu+  Cu36  1  0.49611170  0.16676129  0.00217624  1
  Cu+  Cu37  1  0.49937828  0.16995771  0.33387992  1
  Cu+  Cu38  1  0.49722777  0.16241644  0.66846601  1
  Cu+  Cu39  1  0.50384281  0.49691169  0.00192356  1
  Cu+  Cu40  1  0.49706706  0.49689245  0.33116332  1
  Cu+  Cu41  1  0.49814076  0.50245190  0.66656268  1
  Cu+  Cu42  1  0.49952230  0.83911571  -0.00220554  1
  Cu+  Cu43  1  0.50499031  0.83302003  0.33332474  1
  Cu+  Cu44  1  0.50287791  0.83113697  0.67071977  1
  Cu+  Cu45  1  0.83710758  0.16562613  0.00075368  1
  Cu+  Cu46  1  0.83406520  0.16899040  0.33679932  1
  Cu+  Cu47  1  0.83150009  0.16653416  0.66915960  1
  Cu+  Cu48  1  0.83816649  0.50324842  -0.00232483  1
  Cu+  Cu49  1  0.83520390  0.50100265  0.33089186  1
  Cu+  Cu50  1  0.82947898  0.49803536  0.66390559  1
  Cu+  Cu51  1  0.83223644  0.83444533  -0.00226095  1
  Cu+  Cu52  1  0.83027714  0.83579722  0.33360690  1
  Cu+  Cu53  1  0.83945727  0.82931384  0.66454267  1
  Cu+  Cu54  1  0.16107416  0.00082229  0.17126050  1
  Cu+  Cu55  1  0.16547110  -0.00252794  0.50170513  1
  Cu+  Cu56  1  0.16295242  0.00031787  0.83834936  1
  Cu+  Cu57  1  0.16015459  0.33346929  0.16447945  1
  Cu+  Cu58  1  0.16750305  0.32768507  0.50572964  1
  Cu+  Cu59  1  0.16762609  0.33608239  0.83063517  1
  Cu+  Cu60  1  0.17106746  0.67219468  0.16466719  1
  Cu+  Cu61  1  0.16632633  0.66159011  0.49809785  1
  Cu+  Cu62  1  0.17607621  0.66302323  0.83424356  1
  Cu+  Cu63  1  0.49783220  0.00215743  0.16595405  1
  Cu+  Cu64  1  0.49815552  0.00268276  0.50372041  1
  Cu+  Cu65  1  0.49806143  -0.00159400  0.83864946  1
  Cu+  Cu66  1  0.49889539  0.33098909  0.17319550  1
  Cu+  Cu67  1  0.49926544  0.33441218  0.49878371  1
  Cu+  Cu68  1  0.49940254  0.33261589  0.83341483  1
  Cu+  Cu69  1  0.50313672  0.66468862  0.16532106  1
  Cu+  Cu70  1  0.50293739  0.66636799  0.49532289  1
  Cu+  Cu71  1  0.49853609  0.66689639  0.83193914  1
  Cu+  Cu72  1  0.83706683  0.00405258  0.16495923  1
  Cu+  Cu73  1  0.82871915  -0.00257127  0.49937133  1
  Cu+  Cu74  1  0.83103972  0.00270629  0.83281067  1
  Cu+  Cu75  1  0.83381299  0.33799487  0.16844955  1
  Cu+  Cu76  1  0.83031602  0.33395728  0.50418399  1
  Cu+  Cu77  1  0.83299349  0.33214964  0.83402807  1
  Cu+  Cu78  1  0.83552602  0.66671092  0.16392151  1
  Cu+  Cu79  1  0.83448877  0.66945308  0.49742591  1
  Cu+  Cu80  1  0.83412981  0.66561980  0.82898949  1
  Cu+  Cu81  1  0.00078733  0.16553457  0.16237441  1
  Cu+  Cu82  1  -0.00339373  0.16580079  0.49985900  1
  Cu+  Cu83  1  -0.00156995  0.16694181  0.83274973  1
  Cu+  Cu84  1  0.00267563  0.50029562  0.16683759  1
  Cu+  Cu85  1  0.00480827  0.49703251  0.49430640  1
  Cu+  Cu86  1  0.00078174  0.50062443  0.82883305  1
  Cu+  Cu87  1  -0.00046793  0.83774637  0.16816562  1
  Cu+  Cu88  1  -0.00449783  0.83170240  0.50293768  1
  Cu+  Cu89  1  0.00151722  0.83381800  0.82718399  1
  Cu+  Cu90  1  0.32836746  0.16779016  0.16482975  1
  Cu+  Cu91  1  0.33395593  0.16426524  0.50569444  1
  Cu+  Cu92  1  0.33192041  0.16580304  0.83497844  1
  Cu+  Cu93  1  0.33791526  0.49752210  0.16867303  1
  Cu+  Cu94  1  0.33245924  0.50202509  0.49736660  1
  Cu+  Cu95  1  0.33713470  0.50236568  0.83324279  1
  Cu+  Cu96  1  0.33449220  0.83570997  0.16861819  1
  Cu+  Cu97  1  0.33559697  0.83379051  0.50168725  1
  Cu+  Cu98  1  0.33050152  0.82879249  0.83334888  1
  Cu+  Cu99  1  0.66361396  0.17140618  0.16929644  1
  Cu+  Cu100  1  0.66556892  0.16711711  0.49980174  1
  Cu+  Cu101  1  0.66652120  0.16619057  0.83525155  1
  Cu+  Cu102  1  0.67206102  0.49715742  0.16603646  1
  Cu+  Cu103  1  0.66725606  0.49951926  0.50096736  1
  Cu+  Cu104  1  0.66741476  0.50141864  0.83356755  1
  Cu+  Cu105  1  0.66931139  0.83558303  0.16547601  1
  Cu+  Cu106  1  0.66733761  0.82877484  0.49435924  1
  Cu+  Cu107  1  0.66121969  0.83664911  0.83286695  1
  Cu+  Cu108  1  0.59013569  0.73374545  0.39973312  1
  Cu+  Cu109  1  0.07320656  0.40273167  0.59349968  1
  Cu+  Cu110  1  0.07781168  0.59244447  0.40307695  1
  Cu+  Cu111  1  0.59362390  0.25733129  0.26353747  1
  Cu+  Cu112  1  0.40319132  0.40353228  0.26039244  1
  Cu+  Cu113  1  0.92830866  0.07167892  0.06927613  1
  Cu+  Cu114  1  0.74314030  0.41201076  0.26060834  1
  Cu+  Cu115  1  0.92055787  0.92983464  0.58882819  1
  Cu+  Cu116  1  0.92693404  0.74674116  0.40108368  1
  Cu+  Cu117  1  0.73540258  0.40459471  0.59587549  1
  Cu+  Cu118  1  0.07836551  0.93120588  0.74544221  1
  Cu+  Cu119  1  0.26096630  0.59324900  0.58514511  1
  Cu+  Cu120  1  0.26660377  0.74456341  0.08108202  1
  Cu+  Cu121  1  0.25986642  0.74295225  0.73819494  1
  Cu+  Cu122  1  0.07168152  0.07110096  0.26545354  1
  Cu+  Cu123  1  0.07284879  0.40466800  0.25764052  1
  Cu+  Cu124  1  0.26795876  0.58808498  0.92824624  1
  Cu+  Cu125  1  0.73805961  0.92863505  0.40567875  1
  Cu+  Cu126  1  0.73975436  0.74386326  0.59382384  1
  Cu+  Cu127  1  0.59229836  0.73793536  0.74936542  1
  Cu+  Cu128  1  0.07132391  0.26569253  0.06681531  1
  Cu+  Cu129  1  0.59395612  0.92950025  0.92804161  1
  Cu+  Cu130  1  0.93000050  0.73421326  0.74445916  1
  Cu+  Cu131  1  0.26517256  0.25876010  0.59586519  1
  Cu+  Cu132  1  0.40598221  0.06904805  0.59800311  1
  Te2-  Te133  1  0.24891637  0.25444618  0.08041426  1
  Te2-  Te134  1  0.25104721  0.24736115  0.41633194  1
  Te2-  Te135  1  0.25534463  0.25451915  0.74919147  1
  Te2-  Te136  1  0.25819790  0.58591425  0.08227099  1
  Te2-  Te137  1  0.25155407  0.58341695  0.40808037  1
  Te2-  Te138  1  0.25891036  0.58544901  0.73993047  1
  Te2-  Te139  1  0.24960295  0.92206051  0.08526381  1
  Te2-  Te140  1  0.25089983  0.91636041  0.41831289  1
  Te2-  Te141  1  0.24877635  0.91784247  0.75095723  1
  Te2-  Te142  1  0.58189113  0.25341028  0.08127629  1
  Te2-  Te143  1  0.58678764  0.25486777  0.41592126  1
  Te2-  Te144  1  0.58335963  0.24926274  0.74891262  1
  Te2-  Te145  1  0.58906954  0.58204647  0.08267278  1
  Te2-  Te146  1  0.58760577  0.58148086  0.41011556  1
  Te2-  Te147  1  0.58737089  0.58561807  0.74571954  1
  Te2-  Te148  1  0.58718421  0.92286327  0.08188575  1
  Te2-  Te149  1  0.58518070  0.92386581  0.41572039  1
  Te2-  Te150  1  0.58254817  0.92355172  0.74755957  1
  Te2-  Te151  1  0.91902521  0.25798220  0.08037669  1
  Te2-  Te152  1  0.91702672  0.25452027  0.41821565  1
  Te2-  Te153  1  0.91767367  0.25215778  0.74760139  1
  Te2-  Te154  1  0.92323962  0.58714508  0.08002132  1
  Te2-  Te155  1  0.92138917  0.58651656  0.41055944  1
  Te2-  Te156  1  0.91939930  0.58305816  0.74157732  1
  Te2-  Te157  1  0.91966691  0.91919912  0.07798499  1
  Te2-  Te158  1  0.91972695  0.91951335  0.41417524  1
  Te2-  Te159  1  0.91945649  0.92532501  0.74486617  1
  Te2-  Te160  1  0.24998558  0.08258093  0.25218153  1
  Te2-  Te161  1  0.25169459  0.07459490  0.58919943  1
  Te2-  Te162  1  0.24840355  0.08312796  0.92114766  1
  Te2-  Te163  1  0.25035761  0.41171094  0.25169986  1
  Te2-  Te164  1  0.25876025  0.41127183  0.58454209  1
  Te2-  Te165  1  0.25408254  0.41540485  0.91614807  1
  Te2-  Te166  1  0.25390308  0.74990974  0.25544253  1
  Te2-  Te167  1  0.25320953  0.74654716  0.58541235  1
  Te2-  Te168  1  0.25637626  0.74453821  0.92612030  1
  Te2-  Te169  1  0.58346894  0.08204327  0.25274683  1
  Te2-  Te170  1  0.58721085  0.08203726  0.58680470  1
  Te2-  Te171  1  0.58501969  0.08243970  0.92299812  1
  Te2-  Te172  1  0.59065338  0.41212270  0.25649374  1
  Te2-  Te173  1  0.58331701  0.41465806  0.58679288  1
  Te2-  Te174  1  0.58687555  0.41349317  0.91721897  1
  Te2-  Te175  1  0.58966349  0.74681783  0.24903243  1
  Te2-  Te176  1  0.58696389  0.74345742  0.58844307  1
  Te2-  Te177  1  0.58364776  0.74788273  0.91947660  1
  Te2-  Te178  1  0.91945080  0.08315116  0.25629055  1
  Te2-  Te179  1  0.91612340  0.08100958  0.58675535  1
  Te2-  Te180  1  0.92130080  0.07838689  0.91750022  1
  Te2-  Te181  1  0.92323846  0.41397424  0.25440724  1
  Te2-  Te182  1  0.92084240  0.41473607  0.58467380  1
  Te2-  Te183  1  0.92006545  0.41600766  0.91524704  1
  Te2-  Te184  1  0.91885246  0.74891550  0.25078516  1
  Te2-  Te185  1  0.92377644  0.73938317  0.58769392  1
  Te2-  Te186  1  0.91785586  0.75032612  0.91488899  1
  Te2-  Te187  1  0.07676993  0.25153727  0.25537511  1
  Te2-  Te188  1  0.07604710  0.24838331  0.58913545  1
  Te2-  Te189  1  0.07808373  0.25724894  0.91434811  1
  Te2-  Te190  1  0.08277401  0.59102261  0.24870735  1
  Te2-  Te191  1  0.08002737  0.58309546  0.58440026  1
  Te2-  Te192  1  0.08123963  0.58587130  0.91404310  1
  Te2-  Te193  1  0.07684417  0.91924496  0.25821155  1
  Te2-  Te194  1  0.07789614  0.91928483  0.58886811  1
  Te2-  Te195  1  0.08040232  0.91331730  0.92221279  1
  Te2-  Te196  1  0.40625481  0.25083550  0.25533506  1
  Te2-  Te197  1  0.41651437  0.25526037  0.58889582  1
  Te2-  Te198  1  0.41336892  0.25217212  0.91901261  1
  Te2-  Te199  1  0.41646354  0.58738292  0.25154492  1
  Te2-  Te200  1  0.41587665  0.58849993  0.58291363  1
  Te2-  Te201  1  0.41915884  0.58649834  0.92261169  1
  Te2-  Te202  1  0.41724837  0.91895462  0.25386103  1
  Te2-  Te203  1  0.41594315  0.91586268  0.58920002  1
  Te2-  Te204  1  0.40681484  0.91810417  0.91862106  1
  Te2-  Te205  1  0.74881870  0.25540924  0.25605619  1
  Te2-  Te206  1  0.74436498  0.25119091  0.58869412  1
  Te2-  Te207  1  0.74884295  0.25095565  0.92077243  1
  Te2-  Te208  1  0.75029482  0.58715605  0.25024486  1
  Te2-  Te209  1  0.74727073  0.58834826  0.58390632  1
  Te2-  Te210  1  0.75007748  0.58683470  0.91724237  1
  Te2-  Te211  1  0.74773446  0.92442801  0.25063374  1
  Te2-  Te212  1  0.74576471  0.91383842  0.58729762  1
  Te2-  Te213  1  0.74735252  0.92000071  0.91747810  1
  Te2-  Te214  1  0.08107470  0.07738749  0.07608652  1
  Te2-  Te215  1  0.07759992  0.07766604  0.41865014  1
  Te2-  Te216  1  0.08079650  0.08332572  0.74608334  1
  Te2-  Te217  1  0.08153088  0.41978183  0.07365449  1
  Te2-  Te218  1  0.08209806  0.40416943  0.41293848  1
  Te2-  Te219  1  0.08214029  0.41478806  0.74484914  1
  Te2-  Te220  1  0.07690093  0.74855115  0.08450392  1
  Te2-  Te221  1  0.07978091  0.74685339  0.41275200  1
  Te2-  Te222  1  0.08177677  0.73732363  0.74921793  1
  Te2-  Te223  1  0.41040998  0.08184417  0.08217004  1
  Te2-  Te224  1  0.41423468  0.08265965  0.41440260  1
  Te2-  Te225  1  0.41092214  0.07705309  0.75127918  1
  Te2-  Te226  1  0.41722546  0.41178665  0.08182914  1
  Te2-  Te227  1  0.41140066  0.41282107  0.41445423  1
  Te2-  Te228  1  0.41552499  0.41524750  0.74787517  1
  Te2-  Te229  1  0.41850066  0.74866848  0.08039170  1
  Te2-  Te230  1  0.41560882  0.75006625  0.41420995  1
  Te2-  Te231  1  0.41184118  0.74524737  0.74525309  1
  Te2-  Te232  1  0.74653025  0.08637721  0.08464194  1
  Te2-  Te233  1  0.74530437  0.08215180  0.41303279  1
  Te2-  Te234  1  0.74527410  0.08134551  0.74798203  1
  Te2-  Te235  1  0.75292329  0.41608111  0.07672437  1
  Te2-  Te236  1  0.74848348  0.41468182  0.41397359  1
  Te2-  Te237  1  0.74538131  0.41218591  0.74824232  1
  Te2-  Te238  1  0.74982109  0.74926175  0.08043703  1
  Te2-  Te239  1  0.74604440  0.74181470  0.40712736  1
  Te2-  Te240  1  0.74399441  0.74697106  0.74651220  1
