# generated using pymatgen
data_Ti27(Cu53Te54)2
_symmetry_space_group_name_H-M   'P 1'
_cell_length_a   17.87257570
_cell_length_b   17.87026279
_cell_length_c   17.87274828
_cell_angle_alpha   90.00527830
_cell_angle_beta   90.00673386
_cell_angle_gamma   90.00484203
_symmetry_Int_Tables_number   1
_chemical_formula_structural   Ti27(Cu53Te54)2
_chemical_formula_sum   'Ti27 Cu106 Te108'
_cell_volume   5708.33453440
_cell_formula_units_Z   1
loop_
 _symmetry_equiv_pos_site_id
 _symmetry_equiv_pos_as_xyz
  1  'x, y, z'
loop_
 _atom_type_symbol
 _atom_type_oxidation_number
  Ti4+  4.0
  Cu+  1.0
  Te2-  -2.0
loop_
 _atom_site_type_symbol
 _atom_site_label
 _atom_site_symmetry_multiplicity
 _atom_site_fract_x
 _atom_site_fract_y
 _atom_site_fract_z
 _atom_site_occupancy
  Ti4+  Ti0  1  0.16732190  0.16717617  0.16672411  1
  Ti4+  Ti1  1  0.16822699  0.16809544  0.50162430  1
  Ti4+  Ti2  1  0.16383205  0.16503555  0.83558455  1
  Ti4+  Ti3  1  0.16815547  0.50122891  0.16928061  1
  Ti4+  Ti4  1  0.16573405  0.50024477  0.49734829  1
  Ti4+  Ti5  1  0.16656655  0.50018810  0.83325042  1
  Ti4+  Ti6  1  0.16703715  0.83413655  0.16606323  1
  Ti4+  Ti7  1  0.16455304  0.83580965  0.49899521  1
  Ti4+  Ti8  1  0.16654717  0.83341633  0.83216182  1
  Ti4+  Ti9  1  0.50069162  0.16667083  0.16340049  1
  Ti4+  Ti10  1  0.50352118  0.16781185  0.49563413  1
  Ti4+  Ti11  1  0.49715050  0.16030466  0.83671333  1
  Ti4+  Ti12  1  0.50048088  0.50004421  0.16714635  1
  Ti4+  Ti13  1  0.49914851  0.49906420  0.50163022  1
  Ti4+  Ti14  1  0.49926315  0.49944411  0.83361686  1
  Ti4+  Ti15  1  0.50102469  0.83006601  0.16793839  1
  Ti4+  Ti16  1  0.50004355  0.83586627  0.49730174  1
  Ti4+  Ti17  1  0.50200856  0.83645484  0.83284617  1
  Ti4+  Ti18  1  0.83403774  0.16699118  0.16608060  1
  Ti4+  Ti19  1  0.83325356  0.16692496  0.50050385  1
  Ti4+  Ti20  1  0.83222717  0.16836921  0.83171733  1
  Ti4+  Ti21  1  0.83395966  0.49918890  0.17029306  1
  Ti4+  Ti22  1  0.83429509  0.50088362  0.50031157  1
  Ti4+  Ti23  1  0.83204908  0.50059884  0.83367272  1
  Ti4+  Ti24  1  0.83344842  0.82977138  0.16754588  1
  Ti4+  Ti25  1  0.83026751  0.83276747  0.50110119  1
  Ti4+  Ti26  1  0.83343480  0.83365548  0.83632370  1
  Cu+  Cu27  1  0.16411911  0.16930012  0.00151374  1
  Cu+  Cu28  1  0.16986041  0.16648021  0.33450066  1
  Cu+  Cu29  1  0.16263672  0.16295139  0.66849167  1
  Cu+  Cu30  1  0.16707561  0.50170671  0.00072352  1
  Cu+  Cu31  1  0.16624416  0.49372222  0.33239298  1
  Cu+  Cu32  1  0.16433232  0.50205862  0.66605419  1
  Cu+  Cu33  1  0.16813473  0.83363229  -0.00116873  1
  Cu+  Cu34  1  0.16490402  0.83470700  0.33151309  1
  Cu+  Cu35  1  0.16416201  0.83306189  0.66431007  1
  Cu+  Cu36  1  0.49475883  0.16728816  -0.00152428  1
  Cu+  Cu37  1  0.50845132  0.16786426  0.32936584  1
  Cu+  Cu38  1  0.49504925  0.16406259  0.66357623  1
  Cu+  Cu39  1  0.49973349  0.49963906  -0.00143290  1
  Cu+  Cu40  1  0.49910626  0.50190361  0.33640344  1
  Cu+  Cu41  1  0.49767408  0.49975172  0.66955108  1
  Cu+  Cu42  1  0.50314316  0.83186749  0.00258478  1
  Cu+  Cu43  1  0.49807711  0.83158540  0.33065259  1
  Cu+  Cu44  1  0.50416002  0.83906176  0.66341445  1
  Cu+  Cu45  1  0.83122540  0.16698950  0.00056872  1
  Cu+  Cu46  1  0.83422222  0.16723119  0.33021460  1
  Cu+  Cu47  1  0.83756989  0.17150910  0.66301088  1
  Cu+  Cu48  1  0.83227852  0.50210505  0.00150710  1
  Cu+  Cu49  1  0.84487954  0.50223365  0.33481931  1
  Cu+  Cu50  1  0.82928222  0.49853903  0.66792547  1
  Cu+  Cu51  1  0.83701280  0.82965506  0.00298288  1
  Cu+  Cu52  1  0.82760960  0.82728168  0.33331553  1
  Cu+  Cu53  1  0.83077150  0.83440872  0.67133071  1
  Cu+  Cu54  1  0.16790757  -0.00037328  0.16648909  1
  Cu+  Cu55  1  0.16536524  0.00200668  0.50079006  1
  Cu+  Cu56  1  0.16799029  0.00061187  0.83150237  1
  Cu+  Cu57  1  0.16565425  0.33436943  0.16981218  1
  Cu+  Cu58  1  0.17158064  0.33584671  0.49785459  1
  Cu+  Cu59  1  0.16574580  0.33321502  0.83433955  1
  Cu+  Cu60  1  0.16867390  0.66899698  0.16561491  1
  Cu+  Cu61  1  0.16357936  0.66863967  0.49880804  1
  Cu+  Cu62  1  0.16649988  0.66648808  0.83204338  1
  Cu+  Cu63  1  0.49977645  -0.00360148  0.16505266  1
  Cu+  Cu64  1  0.50636212  0.00346149  0.49984306  1
  Cu+  Cu65  1  0.49507764  -0.00464462  0.83820293  1
  Cu+  Cu66  1  0.49975926  0.33062379  0.16433766  1
  Cu+  Cu67  1  0.50527110  0.33609211  0.49671076  1
  Cu+  Cu68  1  0.50061276  0.33146668  0.83494805  1
  Cu+  Cu69  1  0.50192336  0.66620491  0.16689000  1
  Cu+  Cu70  1  0.49471261  0.66560231  0.49840580  1
  Cu+  Cu71  1  0.50052696  0.66829320  0.83332953  1
  Cu+  Cu72  1  0.83493431  0.00032841  0.16587909  1
  Cu+  Cu73  1  0.82969950  -0.00247255  0.49585459  1
  Cu+  Cu74  1  0.82908892  0.00292503  0.83380217  1
  Cu+  Cu75  1  0.83356127  0.33121332  0.16433663  1
  Cu+  Cu76  1  0.83466412  0.33401890  0.50494435  1
  Cu+  Cu77  1  0.83395894  0.33626862  0.83290993  1
  Cu+  Cu78  1  0.82990544  0.66322146  0.17238742  1
  Cu+  Cu79  1  0.83236683  0.66782881  0.50316743  1
  Cu+  Cu80  1  0.83404863  0.66729507  0.83474633  1
  Cu+  Cu81  1  -0.00112097  0.16650517  0.16592513  1
  Cu+  Cu82  1  0.00146467  0.16956954  0.51007195  1
  Cu+  Cu83  1  -0.00132826  0.16943623  0.83233383  1
  Cu+  Cu84  1  0.00254215  0.50037601  0.17630693  1
  Cu+  Cu85  1  -0.00161841  0.49912900  0.49415764  1
  Cu+  Cu86  1  -0.00040121  0.50086199  0.83269280  1
  Cu+  Cu87  1  0.00307869  0.83325637  0.16570752  1
  Cu+  Cu88  1  -0.00365709  0.83287699  0.50102320  1
  Cu+  Cu89  1  0.00051716  0.83336077  0.83443531  1
  Cu+  Cu90  1  0.33506543  0.16985885  0.16283654  1
  Cu+  Cu91  1  0.33653478  0.16485409  0.49627052  1
  Cu+  Cu92  1  0.32874653  0.15689780  0.83536566  1
  Cu+  Cu93  1  0.33390139  0.50077690  0.16826377  1
  Cu+  Cu94  1  0.33225208  0.50264027  0.49523971  1
  Cu+  Cu95  1  0.33300765  0.49964714  0.83415988  1
  Cu+  Cu96  1  0.33376726  0.83236850  0.16473850  1
  Cu+  Cu97  1  0.32907385  0.83417251  0.49811706  1
  Cu+  Cu98  1  0.33358146  0.83408977  0.83131821  1
  Cu+  Cu99  1  0.66622085  0.17012670  0.16631317  1
  Cu+  Cu100  1  0.66622589  0.16455197  0.49270710  1
  Cu+  Cu101  1  0.66735839  0.16155224  0.83850528  1
  Cu+  Cu102  1  0.66950588  0.50321948  0.16486549  1
  Cu+  Cu103  1  0.66793260  0.49450187  0.50470390  1
  Cu+  Cu104  1  0.66414897  0.50077639  0.83294953  1
  Cu+  Cu105  1  0.66869560  0.82469021  0.17170006  1
  Cu+  Cu106  1  0.66472158  0.83965991  0.49899408  1
  Cu+  Cu107  1  0.66960283  0.84096659  0.83345744  1
  Cu+  Cu108  1  0.74058715  0.59213159  0.07099694  1
  Cu+  Cu109  1  0.40221494  0.91436418  0.73409463  1
  Cu+  Cu110  1  0.06973558  0.07053386  0.59438120  1
  Cu+  Cu111  1  0.59612669  0.26213252  0.91974140  1
  Cu+  Cu112  1  0.92395149  0.40081542  0.40922925  1
  Cu+  Cu113  1  0.40357170  0.26360683  0.07059190  1
  Cu+  Cu114  1  0.74257600  0.92407955  0.39997662  1
  Cu+  Cu115  1  0.25582311  0.07126232  0.40316016  1
  Cu+  Cu116  1  0.59870078  0.41915475  0.40336477  1
  Cu+  Cu117  1  0.74584154  0.93161129  0.74062857  1
  Cu+  Cu118  1  0.07361385  0.40094137  0.25814064  1
  Cu+  Cu119  1  0.26385070  0.40712128  0.40530716  1
  Cu+  Cu120  1  0.59743317  0.91689188  0.93612293  1
  Cu+  Cu121  1  0.39963011  0.06747856  0.93110023  1
  Cu+  Cu122  1  0.73644661  0.73198811  0.26584018  1
  Cu+  Cu123  1  0.40293231  0.59606875  0.40534690  1
  Cu+  Cu124  1  0.59438629  0.07234403  0.39954549  1
  Cu+  Cu125  1  0.59467761  0.93089172  0.59310146  1
  Cu+  Cu126  1  0.74466201  0.07394814  0.93207246  1
  Cu+  Cu127  1  0.93211106  0.26678992  0.59574110  1
  Cu+  Cu128  1  0.59529545  0.26236645  0.25552652  1
  Cu+  Cu129  1  0.73854757  0.40455548  0.59819153  1
  Cu+  Cu130  1  0.40943981  0.07525871  0.58426707  1
  Cu+  Cu131  1  0.25482887  0.07438945  0.73945309  1
  Cu+  Cu132  1  0.93279622  0.59870688  0.25925945  1
  Te2-  Te133  1  0.25011117  0.25671956  0.07994219  1
  Te2-  Te134  1  0.25665929  0.25258469  0.41320055  1
  Te2-  Te135  1  0.25124958  0.24866033  0.74980752  1
  Te2-  Te136  1  0.25317494  0.58529033  0.08250394  1
  Te2-  Te137  1  0.24864536  0.58931704  0.41001673  1
  Te2-  Te138  1  0.25226823  0.58512889  0.74708294  1
  Te2-  Te139  1  0.25321174  0.91913655  0.08045622  1
  Te2-  Te140  1  0.25160962  0.92085856  0.41161368  1
  Te2-  Te141  1  0.25215448  0.92032533  0.74130738  1
  Te2-  Te142  1  0.58737814  0.25283024  0.07492471  1
  Te2-  Te143  1  0.59224075  0.25863046  0.41024095  1
  Te2-  Te144  1  0.58227986  0.24421347  0.74968336  1
  Te2-  Te145  1  0.58448597  0.58597974  0.07946523  1
  Te2-  Te146  1  0.58896892  0.58418001  0.41885171  1
  Te2-  Te147  1  0.58384308  0.58642647  0.74779642  1
  Te2-  Te148  1  0.59135956  0.91619225  0.08640015  1
  Te2-  Te149  1  0.58573591  0.92091304  0.40543709  1
  Te2-  Te150  1  0.58926276  0.92774662  0.74596747  1
  Te2-  Te151  1  0.91922165  0.25165939  0.07924046  1
  Te2-  Te152  1  0.92127209  0.24957688  0.41477855  1
  Te2-  Te153  1  0.92015935  0.25655226  0.74816250  1
  Te2-  Te154  1  0.92121990  0.58448962  0.08683381  1
  Te2-  Te155  1  0.92147792  0.59376541  0.41712170  1
  Te2-  Te156  1  0.91631746  0.58505162  0.74702494  1
  Te2-  Te157  1  0.91888288  0.91704539  0.08317813  1
  Te2-  Te158  1  0.91570940  0.91499527  0.41225882  1
  Te2-  Te159  1  0.91798833  0.92067040  0.75101490  1
  Te2-  Te160  1  0.25619621  0.08108920  0.24996027  1
  Te2-  Te161  1  0.25611585  0.07961741  0.58720797  1
  Te2-  Te162  1  0.24720418  0.07704037  0.92657009  1
  Te2-  Te163  1  0.25778093  0.41145135  0.25233492  1
  Te2-  Te164  1  0.25300055  0.41905321  0.58533217  1
  Te2-  Te165  1  0.25129879  0.41446433  0.91988660  1
  Te2-  Te166  1  0.25281902  0.74931660  0.25258344  1
  Te2-  Te167  1  0.25001704  0.74856391  0.58369358  1
  Te2-  Te168  1  0.25299584  0.74843731  0.91595074  1
  Te2-  Te169  1  0.58824237  0.07674441  0.24678079  1
  Te2-  Te170  1  0.59122484  0.08509496  0.58850751  1
  Te2-  Te171  1  0.58622257  0.07397466  0.92529203  1
  Te2-  Te172  1  0.58926826  0.41465673  0.25141027  1
  Te2-  Te173  1  0.58339925  0.41184159  0.59199001  1
  Te2-  Te174  1  0.58712489  0.41413211  0.92081221  1
  Te2-  Te175  1  0.58463608  0.74201463  0.25743509  1
  Te2-  Te176  1  0.58305345  0.74790957  0.58138391  1
  Te2-  Te177  1  0.58826326  0.75003226  0.91639010  1
  Te2-  Te178  1  0.91950500  0.08079680  0.25165272  1
  Te2-  Te179  1  0.91556126  0.07555272  0.58514294  1
  Te2-  Te180  1  0.91791839  0.08287135  0.91742120  1
  Te2-  Te181  1  0.92016409  0.40528363  0.25451542  1
  Te2-  Te182  1  0.92310473  0.41801600  0.58950666  1
  Te2-  Te183  1  0.91800681  0.41702683  0.92038478  1
  Te2-  Te184  1  0.92210924  0.74856846  0.25459905  1
  Te2-  Te185  1  0.91538787  0.75018746  0.58909252  1
  Te2-  Te186  1  0.92046726  0.74714781  0.91922604  1
  Te2-  Te187  1  0.07980531  0.24908189  0.25515633  1
  Te2-  Te188  1  0.08670407  0.25916941  0.58951736  1
  Te2-  Te189  1  0.07943475  0.25274207  0.91911258  1
  Te2-  Te190  1  0.08575999  0.59109123  0.25729793  1
  Te2-  Te191  1  0.07891027  0.58416234  0.58154880  1
  Te2-  Te192  1  0.08109839  0.58606720  0.91877034  1
  Te2-  Te193  1  0.08066732  0.92069266  0.25134622  1
  Te2-  Te194  1  0.07714999  0.91959989  0.58634525  1
  Te2-  Te195  1  0.08260281  0.91946949  0.91747000  1
  Te2-  Te196  1  0.41603865  0.25038983  0.25325016  1
  Te2-  Te197  1  0.41734807  0.25433757  0.58056538  1
  Te2-  Te198  1  0.40720486  0.25153640  0.91544389  1
  Te2-  Te199  1  0.41480527  0.58705754  0.25224310  1
  Te2-  Te200  1  0.41217534  0.58383459  0.58653222  1
  Te2-  Te201  1  0.41497011  0.58669934  0.91831605  1
  Te2-  Te202  1  0.41387452  0.91756968  0.25064556  1
  Te2-  Te203  1  0.41002536  0.92239302  0.58174940  1
  Te2-  Te204  1  0.41006367  0.91458117  0.92561645  1
  Te2-  Te205  1  0.74867224  0.25520630  0.25322445  1
  Te2-  Te206  1  0.74235205  0.25088483  0.58419417  1
  Te2-  Te207  1  0.74852072  0.25625060  0.91948687  1
  Te2-  Te208  1  0.74501916  0.58092223  0.26216853  1
  Te2-  Te209  1  0.74669557  0.58558141  0.58562054  1
  Te2-  Te210  1  0.74544846  0.58746910  0.91843060  1
  Te2-  Te211  1  0.74704131  0.92037084  0.24946237  1
  Te2-  Te212  1  0.74632503  0.92350895  0.58906728  1
  Te2-  Te213  1  0.74935934  0.92066736  0.92904475  1
  Te2-  Te214  1  0.08207240  0.08188954  0.08288912  1
  Te2-  Te215  1  0.07868578  0.08580801  0.41674126  1
  Te2-  Te216  1  0.07459430  0.07802931  0.74916845  1
  Te2-  Te217  1  0.08053694  0.41755875  0.08380334  1
  Te2-  Te218  1  0.07763189  0.40793331  0.41255281  1
  Te2-  Te219  1  0.08109351  0.41455195  0.74753884  1
  Te2-  Te220  1  0.08237906  0.74771027  0.07960042  1
  Te2-  Te221  1  0.07921782  0.75086581  0.41422559  1
  Te2-  Te222  1  0.08045718  0.74849306  0.74761849  1
  Te2-  Te223  1  0.41290168  0.07633906  0.08172151  1
  Te2-  Te224  1  0.41789516  0.08019785  0.40789724  1
  Te2-  Te225  1  0.41138403  0.07399055  0.74353639  1
  Te2-  Te226  1  0.41372060  0.41596627  0.08073652  1
  Te2-  Te227  1  0.41430419  0.41087235  0.41273507  1
  Te2-  Te228  1  0.41408609  0.41171252  0.74989155  1
  Te2-  Te229  1  0.41628595  0.74619435  0.08096344  1
  Te2-  Te230  1  0.41166124  0.75044861  0.41309876  1
  Te2-  Te231  1  0.41847058  0.75128203  0.74477691  1
  Te2-  Te232  1  0.74535637  0.08010948  0.08358163  1
  Te2-  Te233  1  0.74848300  0.08056640  0.40807957  1
  Te2-  Te234  1  0.74640413  0.08546836  0.74160046  1
  Te2-  Te235  1  0.74914345  0.41412467  0.08220233  1
  Te2-  Te236  1  0.75165450  0.41342079  0.41088968  1
  Te2-  Te237  1  0.74383145  0.41236701  0.74955895  1
  Te2-  Te238  1  0.74776143  0.74393872  0.07923095  1
  Te2-  Te239  1  0.74159718  0.74355594  0.41911645  1
  Te2-  Te240  1  0.74610589  0.74791934  0.75179047  1
