# generated using pymatgen
data_Ti27(Cu53Te54)2
_symmetry_space_group_name_H-M   'P 1'
_cell_length_a   17.86905897
_cell_length_b   17.86912985
_cell_length_c   17.87140760
_cell_angle_alpha   89.97790565
_cell_angle_beta   89.95026561
_cell_angle_gamma   89.98135693
_symmetry_Int_Tables_number   1
_chemical_formula_structural   Ti27(Cu53Te54)2
_chemical_formula_sum   'Ti27 Cu106 Te108'
_cell_volume   5706.41861844
_cell_formula_units_Z   1
loop_
 _symmetry_equiv_pos_site_id
 _symmetry_equiv_pos_as_xyz
  1  'x, y, z'
loop_
 _atom_type_symbol
 _atom_type_oxidation_number
  Ti4+  4.0
  Cu+  1.0
  Te2-  -2.0
loop_
 _atom_site_type_symbol
 _atom_site_label
 _atom_site_symmetry_multiplicity
 _atom_site_fract_x
 _atom_site_fract_y
 _atom_site_fract_z
 _atom_site_occupancy
  Ti4+  Ti0  1  0.16498448  0.16667412  0.16702301  1
  Ti4+  Ti1  1  0.16777825  0.16894207  0.50120356  1
  Ti4+  Ti2  1  0.16791281  0.16684235  0.83433002  1
  Ti4+  Ti3  1  0.16747849  0.50113443  0.16519615  1
  Ti4+  Ti4  1  0.16768688  0.49849424  0.49855530  1
  Ti4+  Ti5  1  0.16655288  0.49934829  0.83166406  1
  Ti4+  Ti6  1  0.16369414  0.83422372  0.16877477  1
  Ti4+  Ti7  1  0.16798680  0.83397794  0.49909459  1
  Ti4+  Ti8  1  0.16550243  0.83537581  0.83404334  1
  Ti4+  Ti9  1  0.49866633  0.16288357  0.16636779  1
  Ti4+  Ti10  1  0.49845052  0.16822439  0.49958817  1
  Ti4+  Ti11  1  0.50185277  0.16803821  0.83208599  1
  Ti4+  Ti12  1  0.50095836  0.49360849  0.16872018  1
  Ti4+  Ti13  1  0.49987425  0.50099308  0.49661893  1
  Ti4+  Ti14  1  0.49929793  0.50223940  0.83666855  1
  Ti4+  Ti15  1  0.49919635  0.83494672  0.16909885  1
  Ti4+  Ti16  1  0.50123629  0.83628927  0.50128060  1
  Ti4+  Ti17  1  0.49768325  0.83145459  0.83200384  1
  Ti4+  Ti18  1  0.83500910  0.16602273  0.16783632  1
  Ti4+  Ti19  1  0.83607707  0.16462909  0.50165083  1
  Ti4+  Ti20  1  0.83523766  0.16731410  0.83432068  1
  Ti4+  Ti21  1  0.83158591  0.50187063  0.16797813  1
  Ti4+  Ti22  1  0.83415375  0.49804260  0.49857387  1
  Ti4+  Ti23  1  0.83312689  0.49962477  0.83492189  1
  Ti4+  Ti24  1  0.83408598  0.83388948  0.16524368  1
  Ti4+  Ti25  1  0.83238083  0.83096184  0.49682064  1
  Ti4+  Ti26  1  0.83275475  0.83263646  0.82770431  1
  Cu+  Cu27  1  0.16985210  0.16447482  0.00090257  1
  Cu+  Cu28  1  0.15756808  0.16805073  0.33572612  1
  Cu+  Cu29  1  0.17156940  0.16987560  0.66676485  1
  Cu+  Cu30  1  0.16936054  0.50164524  -0.00275131  1
  Cu+  Cu31  1  0.16853102  0.49928905  0.33073050  1
  Cu+  Cu32  1  0.16551044  0.49657086  0.66483915  1
  Cu+  Cu33  1  0.15914986  0.83553263  0.00268616  1
  Cu+  Cu34  1  0.17066461  0.83499754  0.33217607  1
  Cu+  Cu35  1  0.16915939  0.83430651  0.66814093  1
  Cu+  Cu36  1  0.49762925  0.16214611  -0.00315565  1
  Cu+  Cu37  1  0.49652081  0.16854007  0.33409533  1
  Cu+  Cu38  1  0.50243811  0.16886970  0.66705183  1
  Cu+  Cu39  1  0.49532697  0.49970092  0.00449767  1
  Cu+  Cu40  1  0.51179923  0.49497291  0.33244656  1
  Cu+  Cu41  1  0.49883779  0.50342199  0.66698129  1
  Cu+  Cu42  1  0.50047484  0.82936121  0.00019973  1
  Cu+  Cu43  1  0.50203611  0.84118534  0.33458530  1
  Cu+  Cu44  1  0.49742921  0.82848412  0.66614374  1
  Cu+  Cu45  1  0.83668126  0.16911417  0.00230926  1
  Cu+  Cu46  1  0.83135618  0.16527624  0.33504972  1
  Cu+  Cu47  1  0.84052228  0.16477927  0.66815053  1
  Cu+  Cu48  1  0.83081921  0.50030532  0.00257000  1
  Cu+  Cu49  1  0.82782879  0.50293139  0.33462041  1
  Cu+  Cu50  1  0.83168394  0.49753429  0.66811524  1
  Cu+  Cu51  1  0.83156521  0.83401109  -0.00517502  1
  Cu+  Cu52  1  0.83895409  0.82805935  0.33247097  1
  Cu+  Cu53  1  0.83258890  0.83272019  0.66185145  1
  Cu+  Cu54  1  0.16315154  0.00175264  0.16732421  1
  Cu+  Cu55  1  0.16995035  -0.00078399  0.50567290  1
  Cu+  Cu56  1  0.16492213  0.00160421  0.83217357  1
  Cu+  Cu57  1  0.16744508  0.33635930  0.16491056  1
  Cu+  Cu58  1  0.16720526  0.33182750  0.49926399  1
  Cu+  Cu59  1  0.16585723  0.33348644  0.83238776  1
  Cu+  Cu60  1  0.16361967  0.66794548  0.16590499  1
  Cu+  Cu61  1  0.16619927  0.66391803  0.49751564  1
  Cu+  Cu62  1  0.16832060  0.66845258  0.83447998  1
  Cu+  Cu63  1  0.50368595  -0.00153260  0.16910046  1
  Cu+  Cu64  1  0.49694480  0.00151125  0.49628408  1
  Cu+  Cu65  1  0.49918484  -0.00093117  0.83251065  1
  Cu+  Cu66  1  0.49971531  0.32723459  0.16644853  1
  Cu+  Cu67  1  0.49955300  0.33486779  0.49353532  1
  Cu+  Cu68  1  0.50258692  0.33553256  0.83404972  1
  Cu+  Cu69  1  0.49818887  0.66624374  0.16918026  1
  Cu+  Cu70  1  0.49745085  0.67292917  0.50317839  1
  Cu+  Cu71  1  0.49686232  0.66424355  0.82862703  1
  Cu+  Cu72  1  0.83615557  0.00046560  0.16873904  1
  Cu+  Cu73  1  0.83482110  -0.00210000  0.50280459  1
  Cu+  Cu74  1  0.83744641  0.00003521  0.82958409  1
  Cu+  Cu75  1  0.83284283  0.33502618  0.16882663  1
  Cu+  Cu76  1  0.83593409  0.33024939  0.50483171  1
  Cu+  Cu77  1  0.83441041  0.33434518  0.83876086  1
  Cu+  Cu78  1  0.83061523  0.66892045  0.16363499  1
  Cu+  Cu79  1  0.83253508  0.66490228  0.49237915  1
  Cu+  Cu80  1  0.83063031  0.66531992  0.82960139  1
  Cu+  Cu81  1  0.00213413  0.16401569  0.17174050  1
  Cu+  Cu82  1  0.00072011  0.17282212  0.50067004  1
  Cu+  Cu83  1  -0.00007666  0.16736408  0.83426930  1
  Cu+  Cu84  1  -0.00094213  0.50052893  0.16595789  1
  Cu+  Cu85  1  0.00221739  0.49724701  0.50054383  1
  Cu+  Cu86  1  0.00016772  0.49830308  0.83174332  1
  Cu+  Cu87  1  -0.00121805  0.84044232  0.16617491  1
  Cu+  Cu88  1  -0.00120221  0.82926054  0.49677562  1
  Cu+  Cu89  1  -0.00107534  0.83432234  0.83454657  1
  Cu+  Cu90  1  0.32941342  0.16126839  0.16320991  1
  Cu+  Cu91  1  0.33405408  0.17445882  0.50065582  1
  Cu+  Cu92  1  0.33845723  0.16445020  0.83624298  1
  Cu+  Cu93  1  0.33649586  0.50008088  0.16339534  1
  Cu+  Cu94  1  0.33182397  0.49872895  0.49804479  1
  Cu+  Cu95  1  0.33081344  0.50587799  0.83530162  1
  Cu+  Cu96  1  0.33048073  0.83328287  0.17213780  1
  Cu+  Cu97  1  0.33516960  0.83820491  0.50297961  1
  Cu+  Cu98  1  0.33101088  0.83359364  0.83445299  1
  Cu+  Cu99  1  0.66826619  0.16400974  0.16576386  1
  Cu+  Cu100  1  0.66879149  0.16312292  0.50184474  1
  Cu+  Cu101  1  0.66796891  0.16844470  0.83115666  1
  Cu+  Cu102  1  0.66508098  0.49848828  0.17362652  1
  Cu+  Cu103  1  0.66645188  0.49880232  0.49332155  1
  Cu+  Cu104  1  0.66691027  0.49820063  0.83737423  1
  Cu+  Cu105  1  0.66633727  0.83503849  0.16839777  1
  Cu+  Cu106  1  0.66633646  0.83189795  0.49752140  1
  Cu+  Cu107  1  0.66501152  0.83035371  0.82855969  1
  Cu+  Cu108  1  0.92592980  0.26475459  0.93323626  1
  Cu+  Cu109  1  0.25747334  0.07049970  0.07290581  1
  Cu+  Cu110  1  0.40302119  0.74316331  0.59203742  1
  Cu+  Cu111  1  0.07229741  0.93046725  0.07297488  1
  Cu+  Cu112  1  0.73674535  0.59517874  0.40930574  1
  Cu+  Cu113  1  0.58986992  0.59631596  0.25515286  1
  Cu+  Cu114  1  0.25828700  0.93060260  0.25568100  1
  Cu+  Cu115  1  0.25587198  0.59730084  0.92692015  1
  Cu+  Cu116  1  0.07428382  0.07253422  0.26652812  1
  Cu+  Cu117  1  0.26445211  0.26295145  0.59798616  1
  Cu+  Cu118  1  0.59873193  0.93059847  0.26045443  1
  Cu+  Cu119  1  0.92657327  0.26325043  0.59798199  1
  Cu+  Cu120  1  0.92323398  0.92655518  0.26242126  1
  Cu+  Cu121  1  0.26348161  0.92607440  0.59879982  1
  Cu+  Cu122  1  0.40558701  0.26565652  0.40163684  1
  Cu+  Cu123  1  0.40243142  0.58735917  0.73690302  1
  Cu+  Cu124  1  0.93164160  0.73332783  0.40462254  1
  Cu+  Cu125  1  0.92136242  0.92501878  0.92426337  1
  Cu+  Cu126  1  0.41054043  0.59472637  0.07982341  1
  Cu+  Cu127  1  0.40648276  0.92702280  0.40722398  1
  Cu+  Cu128  1  0.93113888  0.07308780  0.74164880  1
  Cu+  Cu129  1  0.92646646  0.91947055  0.58879040  1
  Cu+  Cu130  1  0.41139315  0.06870264  0.92377351  1
  Cu+  Cu131  1  0.06917762  0.26440250  0.40542351  1
  Cu+  Cu132  1  0.59949447  0.39947533  0.40726241  1
  Te2-  Te133  1  0.25120920  0.25310560  0.08166044  1
  Te2-  Te134  1  0.25167310  0.25329023  0.40828600  1
  Te2-  Te135  1  0.25705655  0.25271357  0.75206846  1
  Te2-  Te136  1  0.25422362  0.59136383  0.08029016  1
  Te2-  Te137  1  0.25248932  0.58463049  0.41260382  1
  Te2-  Te138  1  0.24960197  0.58790573  0.74216940  1
  Te2-  Te139  1  0.25283574  0.91859307  0.08051308  1
  Te2-  Te140  1  0.25345929  0.92381680  0.41245796  1
  Te2-  Te141  1  0.25380777  0.92247919  0.74950207  1
  Te2-  Te142  1  0.58351688  0.24559937  0.08009841  1
  Te2-  Te143  1  0.59055554  0.24854585  0.41357769  1
  Te2-  Te144  1  0.58726766  0.25537822  0.74703069  1
  Te2-  Te145  1  0.58559293  0.58357241  0.08371554  1
  Te2-  Te146  1  0.58415807  0.59468417  0.41336536  1
  Te2-  Te147  1  0.58843691  0.58326739  0.74923337  1
  Te2-  Te148  1  0.58482638  0.91680944  0.07988640  1
  Te2-  Te149  1  0.59103658  0.92409498  0.41552364  1
  Te2-  Te150  1  0.58167804  0.91668702  0.74605688  1
  Te2-  Te151  1  0.92334172  0.25420896  0.08607693  1
  Te2-  Te152  1  0.91732711  0.25385528  0.41047971  1
  Te2-  Te153  1  0.92179947  0.25751607  0.74930836  1
  Te2-  Te154  1  0.91715915  0.58614182  0.08158954  1
  Te2-  Te155  1  0.92407033  0.58174947  0.41158565  1
  Te2-  Te156  1  0.91804894  0.58384019  0.74724334  1
  Te2-  Te157  1  0.91783882  0.92320399  0.07595196  1
  Te2-  Te158  1  0.92066458  0.92121532  0.41369124  1
  Te2-  Te159  1  0.92406540  0.91857196  0.74081474  1
  Te2-  Te160  1  0.25004854  0.08214945  0.25822322  1
  Te2-  Te161  1  0.25700874  0.08259848  0.58715680  1
  Te2-  Te162  1  0.25438883  0.07653933  0.91908004  1
  Te2-  Te163  1  0.25460328  0.41583215  0.24900469  1
  Te2-  Te164  1  0.25449709  0.41311843  0.58610736  1
  Te2-  Te165  1  0.25317505  0.41312611  0.91690497  1
  Te2-  Te166  1  0.24983688  0.74425606  0.25216449  1
  Te2-  Te167  1  0.25110175  0.74536175  0.58433103  1
  Te2-  Te168  1  0.25043215  0.75237271  0.92426136  1
  Te2-  Te169  1  0.58703947  0.08281108  0.25597739  1
  Te2-  Te170  1  0.58267921  0.08064124  0.58396203  1
  Te2-  Te171  1  0.58832397  0.08034377  0.91605084  1
  Te2-  Te172  1  0.58987449  0.40196554  0.25197847  1
  Te2-  Te173  1  0.58338252  0.41709534  0.58374238  1
  Te2-  Te174  1  0.58335630  0.41666431  0.92350446  1
  Te2-  Te175  1  0.58487144  0.74904179  0.25537953  1
  Te2-  Te176  1  0.58861186  0.74857392  0.58580630  1
  Te2-  Te177  1  0.58367410  0.74524739  0.91529367  1
  Te2-  Te178  1  0.92060848  0.07975246  0.25923985  1
  Te2-  Te179  1  0.92688095  0.07680740  0.58568851  1
  Te2-  Te180  1  0.92143146  0.07958255  0.92192089  1
  Te2-  Te181  1  0.91689287  0.41785264  0.25402883  1
  Te2-  Te182  1  0.92100706  0.41532124  0.58824089  1
  Te2-  Te183  1  0.92149358  0.41650453  0.92380845  1
  Te2-  Te184  1  0.92308953  0.74405937  0.24766514  1
  Te2-  Te185  1  0.91684331  0.74259679  0.58264930  1
  Te2-  Te186  1  0.91605837  0.74576393  0.91527945  1
  Te2-  Te187  1  0.07949992  0.25887328  0.25066173  1
  Te2-  Te188  1  0.08140876  0.25519974  0.59054228  1
  Te2-  Te189  1  0.08286076  0.25173309  0.92156472  1
  Te2-  Te190  1  0.08135778  0.58457476  0.25126163  1
  Te2-  Te191  1  0.08229371  0.58418007  0.58447135  1
  Te2-  Te192  1  0.08033324  0.58546571  0.91699879  1
  Te2-  Te193  1  0.07727438  0.92145389  0.26048549  1
  Te2-  Te194  1  0.07965525  0.91643732  0.58561215  1
  Te2-  Te195  1  0.07790997  0.92511068  0.91894280  1
  Te2-  Te196  1  0.40892952  0.24952288  0.24897465  1
  Te2-  Te197  1  0.41786184  0.25826175  0.58849548  1
  Te2-  Te198  1  0.41641046  0.25483523  0.91880109  1
  Te2-  Te199  1  0.41681007  0.58034666  0.25691966  1
  Te2-  Te200  1  0.41022922  0.58665469  0.58349474  1
  Te2-  Te201  1  0.41213311  0.59167154  0.92485394  1
  Te2-  Te202  1  0.41046322  0.92502651  0.25375545  1
  Te2-  Te203  1  0.41637079  0.92449666  0.59109551  1
  Te2-  Te204  1  0.41335379  0.91617044  0.92142223  1
  Te2-  Te205  1  0.74818951  0.25015091  0.25185031  1
  Te2-  Te206  1  0.74931040  0.24765363  0.58841196  1
  Te2-  Te207  1  0.74759839  0.25086879  0.92057891  1
  Te2-  Te208  1  0.74408521  0.59264720  0.25409973  1
  Te2-  Te209  1  0.74803874  0.58353758  0.58248959  1
  Te2-  Te210  1  0.74784741  0.58625517  0.91949139  1
  Te2-  Te211  1  0.75010233  0.91867125  0.25553911  1
  Te2-  Te212  1  0.74529831  0.91713408  0.58292608  1
  Te2-  Te213  1  0.74633354  0.91938542  0.91185361  1
  Te2-  Te214  1  0.07689691  0.08203876  0.07726997  1
  Te2-  Te215  1  0.07918111  0.07705262  0.42119234  1
  Te2-  Te216  1  0.08347811  0.08311812  0.74483474  1
  Te2-  Te217  1  0.08237912  0.41727103  0.07900425  1
  Te2-  Te218  1  0.08123123  0.41432924  0.41121877  1
  Te2-  Te219  1  0.08049957  0.41274205  0.74680700  1
  Te2-  Te220  1  0.07649113  0.74826327  0.08350402  1
  Te2-  Te221  1  0.08448765  0.74702410  0.41104088  1
  Te2-  Te222  1  0.08246903  0.74939894  0.74903443  1
  Te2-  Te223  1  0.41334998  0.07326039  0.08013523  1
  Te2-  Te224  1  0.40895520  0.08288165  0.41365413  1
  Te2-  Te225  1  0.41602074  0.08195687  0.74512923  1
  Te2-  Te226  1  0.41446324  0.40796089  0.08230358  1
  Te2-  Te227  1  0.41204552  0.41756940  0.40836157  1
  Te2-  Te228  1  0.41363110  0.41732959  0.75052075  1
  Te2-  Te229  1  0.41143554  0.74963224  0.08394413  1
  Te2-  Te230  1  0.41420711  0.75252603  0.41301748  1
  Te2-  Te231  1  0.40655832  0.74485921  0.74636473  1
  Te2-  Te232  1  0.75156082  0.08033523  0.08125488  1
  Te2-  Te233  1  0.75003988  0.07860914  0.41701582  1
  Te2-  Te234  1  0.74972557  0.08227120  0.74719392  1
  Te2-  Te235  1  0.74562663  0.41550121  0.08440244  1
  Te2-  Te236  1  0.75084680  0.40646382  0.41380423  1
  Te2-  Te237  1  0.74742771  0.41259727  0.75119915  1
  Te2-  Te238  1  0.74628896  0.75202418  0.07922587  1
  Te2-  Te239  1  0.74312336  0.74824582  0.40823272  1
  Te2-  Te240  1  0.74763518  0.74679202  0.74247263  1
