# generated using pymatgen
data_Ti27(Cu53Te54)2
_symmetry_space_group_name_H-M   'P 1'
_cell_length_a   17.90078501
_cell_length_b   17.90075126
_cell_length_c   17.90029631
_cell_angle_alpha   90.02262642
_cell_angle_beta   89.96663515
_cell_angle_gamma   90.08677485
_symmetry_Int_Tables_number   1
_chemical_formula_structural   Ti27(Cu53Te54)2
_chemical_formula_sum   'Ti27 Cu106 Te108'
_cell_volume   5735.91819830
_cell_formula_units_Z   1
loop_
 _symmetry_equiv_pos_site_id
 _symmetry_equiv_pos_as_xyz
  1  'x, y, z'
loop_
 _atom_type_symbol
 _atom_type_oxidation_number
  Ti4+  4.0
  Cu+  1.0
  Te2-  -2.0
loop_
 _atom_site_type_symbol
 _atom_site_label
 _atom_site_symmetry_multiplicity
 _atom_site_fract_x
 _atom_site_fract_y
 _atom_site_fract_z
 _atom_site_occupancy
  Ti4+  Ti0  1  0.16828807  0.16806677  0.16643966  1
  Ti4+  Ti1  1  0.16525230  0.17098461  0.49865581  1
  Ti4+  Ti2  1  0.16911004  0.16778273  0.82976932  1
  Ti4+  Ti3  1  0.16808643  0.50340859  0.16374590  1
  Ti4+  Ti4  1  0.16704299  0.50448781  0.49955901  1
  Ti4+  Ti5  1  0.16587440  0.49776617  0.83255656  1
  Ti4+  Ti6  1  0.16322643  0.83494845  0.16165932  1
  Ti4+  Ti7  1  0.16524784  0.83279047  0.49657729  1
  Ti4+  Ti8  1  0.16704902  0.83173844  0.83338454  1
  Ti4+  Ti9  1  0.50198445  0.16725531  0.16659954  1
  Ti4+  Ti10  1  0.49652510  0.16369421  0.50101388  1
  Ti4+  Ti11  1  0.50066997  0.16659331  0.83523517  1
  Ti4+  Ti12  1  0.50355484  0.49824341  0.17113350  1
  Ti4+  Ti13  1  0.50112513  0.49736271  0.50418931  1
  Ti4+  Ti14  1  0.50140358  0.50213627  0.83307201  1
  Ti4+  Ti15  1  0.49584232  0.83400179  0.16752681  1
  Ti4+  Ti16  1  0.49808484  0.82973064  0.50134784  1
  Ti4+  Ti17  1  0.49700919  0.83195381  0.83438939  1
  Ti4+  Ti18  1  0.83566530  0.16728911  0.16632204  1
  Ti4+  Ti19  1  0.83541413  0.16179780  0.50472541  1
  Ti4+  Ti20  1  0.83154331  0.16732687  0.82990691  1
  Ti4+  Ti21  1  0.83594930  0.50226032  0.16724179  1
  Ti4+  Ti22  1  0.83551260  0.50000070  0.49906787  1
  Ti4+  Ti23  1  0.83678391  0.50040793  0.83676251  1
  Ti4+  Ti24  1  0.82823612  0.83750268  0.16814997  1
  Ti4+  Ti25  1  0.82866996  0.83324881  0.50116528  1
  Ti4+  Ti26  1  0.83111129  0.83276807  0.83218924  1
  Cu+  Cu27  1  0.17129573  0.16792622  -0.00085263  1
  Cu+  Cu28  1  0.16929249  0.17080700  0.33292274  1
  Cu+  Cu29  1  0.16456499  0.17509354  0.66251873  1
  Cu+  Cu30  1  0.16782506  0.50339711  -0.00353362  1
  Cu+  Cu31  1  0.16690785  0.50514140  0.33218024  1
  Cu+  Cu32  1  0.16305215  0.50163672  0.66686460  1
  Cu+  Cu33  1  0.16830660  0.83035765  -0.00044048  1
  Cu+  Cu34  1  0.16365970  0.83343876  0.32580748  1
  Cu+  Cu35  1  0.16757727  0.83054101  0.66596050  1
  Cu+  Cu36  1  0.50405698  0.16753916  0.00097239  1
  Cu+  Cu37  1  0.49964841  0.16318014  0.33181207  1
  Cu+  Cu38  1  0.49678406  0.16533486  0.67096153  1
  Cu+  Cu39  1  0.50404374  0.49808044  0.00284907  1
  Cu+  Cu40  1  0.50136508  0.49761625  0.33776378  1
  Cu+  Cu41  1  0.50058130  0.50206188  0.66808782  1
  Cu+  Cu42  1  0.49563217  0.83589249  0.00070267  1
  Cu+  Cu43  1  0.49587936  0.83334269  0.33555998  1
  Cu+  Cu44  1  0.50051932  0.82848508  0.66767879  1
  Cu+  Cu45  1  0.83354755  0.16989081  -0.00322757  1
  Cu+  Cu46  1  0.83575303  0.16444075  0.33514040  1
  Cu+  Cu47  1  0.83130556  0.15717736  0.66710638  1
  Cu+  Cu48  1  0.83997828  0.49499973  0.00475356  1
  Cu+  Cu49  1  0.83457196  0.49985142  0.33229452  1
  Cu+  Cu50  1  0.83740056  0.50145270  0.66499254  1
  Cu+  Cu51  1  0.82814688  0.83418437  -0.00023320  1
  Cu+  Cu52  1  0.82642093  0.83808474  0.33498237  1
  Cu+  Cu53  1  0.83330443  0.83487723  0.66409486  1
  Cu+  Cu54  1  0.16428011  0.00114001  0.16595299  1
  Cu+  Cu55  1  0.16595401  0.00129417  0.49634367  1
  Cu+  Cu56  1  0.16852936  -0.00272561  0.83287338  1
  Cu+  Cu57  1  0.16969459  0.33515443  0.16773179  1
  Cu+  Cu58  1  0.16853317  0.33934449  0.50168208  1
  Cu+  Cu59  1  0.16778583  0.32719564  0.83336591  1
  Cu+  Cu60  1  0.16360555  0.66828627  0.15723673  1
  Cu+  Cu61  1  0.16305979  0.66792716  0.49490386  1
  Cu+  Cu62  1  0.16491553  0.66396481  0.83412252  1
  Cu+  Cu63  1  0.49485991  0.00205995  0.16724875  1
  Cu+  Cu64  1  0.49555593  -0.00552523  0.50174738  1
  Cu+  Cu65  1  0.50063413  0.00089264  0.83727210  1
  Cu+  Cu66  1  0.50547072  0.33341747  0.17004085  1
  Cu+  Cu67  1  0.50273626  0.33217047  0.50307542  1
  Cu+  Cu68  1  0.50058752  0.33488855  0.83365016  1
  Cu+  Cu69  1  0.50023764  0.66457620  0.16991156  1
  Cu+  Cu70  1  0.49902547  0.66184112  0.49961954  1
  Cu+  Cu71  1  0.49962352  0.66925040  0.82896694  1
  Cu+  Cu72  1  0.83143235  0.00246250  0.16721010  1
  Cu+  Cu73  1  0.82970216  -0.00327798  0.50993494  1
  Cu+  Cu74  1  0.83063780  -0.00055990  0.83032830  1
  Cu+  Cu75  1  0.83705791  0.33322924  0.16776563  1
  Cu+  Cu76  1  0.83567262  0.33005311  0.50179881  1
  Cu+  Cu77  1  0.83808657  0.33582413  0.83309113  1
  Cu+  Cu78  1  0.83269569  0.67351995  0.16681188  1
  Cu+  Cu79  1  0.83203640  0.66876859  0.49909293  1
  Cu+  Cu80  1  0.82838024  0.66291674  0.83387800  1
  Cu+  Cu81  1  0.00245544  0.16780507  0.16707787  1
  Cu+  Cu82  1  0.00498974  0.16149169  0.50560401  1
  Cu+  Cu83  1  -0.00096121  0.16666910  0.82675494  1
  Cu+  Cu84  1  0.00155793  0.50182668  0.16218334  1
  Cu+  Cu85  1  0.00216155  0.50427158  0.49751973  1
  Cu+  Cu86  1  -0.00122396  0.49549733  0.82747176  1
  Cu+  Cu87  1  -0.00771879  0.83314437  0.16392536  1
  Cu+  Cu88  1  -0.00386583  0.83335109  0.49641656  1
  Cu+  Cu89  1  0.00190104  0.83106369  0.83638055  1
  Cu+  Cu90  1  0.33683755  0.16683660  0.16893185  1
  Cu+  Cu91  1  0.32419039  0.16717358  0.49857742  1
  Cu+  Cu92  1  0.33791073  0.17306357  0.83234563  1
  Cu+  Cu93  1  0.33981829  0.50167397  0.16538401  1
  Cu+  Cu94  1  0.33585294  0.50156468  0.49870541  1
  Cu+  Cu95  1  0.33391668  0.50021159  0.83556480  1
  Cu+  Cu96  1  0.33124841  0.83831091  0.16073955  1
  Cu+  Cu97  1  0.33291539  0.83273619  0.49846404  1
  Cu+  Cu98  1  0.33135737  0.83259336  0.83480591  1
  Cu+  Cu99  1  0.66990667  0.16753112  0.16764089  1
  Cu+  Cu100  1  0.66620805  0.16138600  0.50415178  1
  Cu+  Cu101  1  0.66454079  0.16986655  0.83452291  1
  Cu+  Cu102  1  0.66863551  0.50063691  0.17175366  1
  Cu+  Cu103  1  0.66843970  0.49388182  0.50392812  1
  Cu+  Cu104  1  0.67136041  0.50374080  0.83714250  1
  Cu+  Cu105  1  0.66280687  0.83633291  0.17059093  1
  Cu+  Cu106  1  0.66316459  0.83063853  0.50082061  1
  Cu+  Cu107  1  0.66313875  0.82942116  0.83263969  1
  Cu+  Cu108  1  0.26522714  0.25383221  0.93156790  1
  Cu+  Cu109  1  0.91688083  0.74716930  0.07065359  1
  Cu+  Cu110  1  0.40581875  0.59464576  0.74027438  1
  Cu+  Cu111  1  0.08793952  0.07058790  0.59413965  1
  Cu+  Cu112  1  0.40628162  0.93227474  0.06955462  1
  Cu+  Cu113  1  0.40703468  0.07547346  0.25767993  1
  Cu+  Cu114  1  0.93031147  0.40155105  0.07978911  1
  Cu+  Cu115  1  0.92872194  0.06802772  0.74890553  1
  Cu+  Cu116  1  0.41524392  0.26340265  0.73980273  1
  Cu+  Cu117  1  0.26162723  0.74288400  0.07629700  1
  Cu+  Cu118  1  0.26110558  0.59316262  0.91968415  1
  Cu+  Cu119  1  0.07337334  0.59480144  0.73994864  1
  Cu+  Cu120  1  0.24889171  0.07360510  0.40430386  1
  Cu+  Cu121  1  0.73190076  0.06951062  0.59521686  1
  Cu+  Cu122  1  0.42095753  0.58969073  0.07391368  1
  Cu+  Cu123  1  0.92020576  0.40744721  0.73410011  1
  Cu+  Cu124  1  0.40676019  0.92320331  0.41060596  1
  Cu+  Cu125  1  0.92941796  0.91856135  0.59075544  1
  Cu+  Cu126  1  0.07159027  0.59174522  0.06875462  1
  Cu+  Cu127  1  0.25989115  0.26859441  0.58616869  1
  Cu+  Cu128  1  0.07043683  0.59464113  0.40158320  1
  Cu+  Cu129  1  0.41047457  0.58843012  0.40699285  1
  Cu+  Cu130  1  0.74281772  0.58423843  0.73657623  1
  Cu+  Cu131  1  0.07059535  0.25710039  0.73890200  1
  Cu+  Cu132  1  0.59444766  0.74351988  0.73709108  1
  Te2-  Te133  1  0.25691313  0.25462008  0.08364814  1
  Te2-  Te134  1  0.25215937  0.25965710  0.41323097  1
  Te2-  Te135  1  0.25771049  0.25723788  0.74203402  1
  Te2-  Te136  1  0.26007343  0.58818706  0.07580490  1
  Te2-  Te137  1  0.25487757  0.58885906  0.41278491  1
  Te2-  Te138  1  0.25253999  0.58568409  0.74615856  1
  Te2-  Te139  1  0.24958357  0.92466939  0.07623665  1
  Te2-  Te140  1  0.25101864  0.91810554  0.40827933  1
  Te2-  Te141  1  0.25240547  0.91612175  0.74688346  1
  Te2-  Te142  1  0.58872040  0.25277444  0.08251408  1
  Te2-  Te143  1  0.58416165  0.24597183  0.41835384  1
  Te2-  Te144  1  0.58487141  0.25347580  0.74699938  1
  Te2-  Te145  1  0.58862970  0.58539205  0.08459791  1
  Te2-  Te146  1  0.58899419  0.58143885  0.41856802  1
  Te2-  Te147  1  0.59050660  0.58748877  0.74590465  1
  Te2-  Te148  1  0.58155439  0.91941979  0.08340336  1
  Te2-  Te149  1  0.58365770  0.91712641  0.41610606  1
  Te2-  Te150  1  0.58237247  0.91807702  0.74948897  1
  Te2-  Te151  1  0.92288271  0.25128457  0.07843415  1
  Te2-  Te152  1  0.92151967  0.24610686  0.41953345  1
  Te2-  Te153  1  0.91748570  0.25427145  0.73957350  1
  Te2-  Te154  1  0.91984459  0.59258153  0.07843477  1
  Te2-  Te155  1  0.91794473  0.58890421  0.41236047  1
  Te2-  Te156  1  0.92079955  0.58989237  0.74708953  1
  Te2-  Te157  1  0.91379786  0.92161122  0.07916046  1
  Te2-  Te158  1  0.91331571  0.92133959  0.41602169  1
  Te2-  Te159  1  0.92227007  0.91669361  0.74756489  1
  Te2-  Te160  1  0.25316885  0.07824851  0.25232023  1
  Te2-  Te161  1  0.24910846  0.08052054  0.58782386  1
  Te2-  Te162  1  0.25469859  0.08245996  0.91434822  1
  Te2-  Te163  1  0.25299878  0.42047560  0.25038730  1
  Te2-  Te164  1  0.25450347  0.42077999  0.58801696  1
  Te2-  Te165  1  0.25265860  0.41114131  0.91917083  1
  Te2-  Te166  1  0.25004828  0.74860388  0.24528540  1
  Te2-  Te167  1  0.24981189  0.74736579  0.58131949  1
  Te2-  Te168  1  0.25466110  0.74423623  0.92009444  1
  Te2-  Te169  1  0.58739274  0.08013667  0.25083990  1
  Te2-  Te170  1  0.57856113  0.07749356  0.58838170  1
  Te2-  Te171  1  0.58738760  0.08167578  0.92040579  1
  Te2-  Te172  1  0.58900724  0.41413693  0.25727351  1
  Te2-  Te173  1  0.58619947  0.41214334  0.59074168  1
  Te2-  Te174  1  0.58698301  0.41661593  0.91737879  1
  Te2-  Te175  1  0.58134110  0.75004455  0.25352246  1
  Te2-  Te176  1  0.58539143  0.74188076  0.58496704  1
  Te2-  Te177  1  0.58184306  0.74784200  0.92168303  1
  Te2-  Te178  1  0.92046511  0.08150097  0.25101267  1
  Te2-  Te179  1  0.92699389  0.07356884  0.59259535  1
  Te2-  Te180  1  0.91735810  0.08200637  0.91484388  1
  Te2-  Te181  1  0.92306182  0.41675866  0.25204405  1
  Te2-  Te182  1  0.92332227  0.41418567  0.58253710  1
  Te2-  Te183  1  0.92473891  0.41159501  0.92177785  1
  Te2-  Te184  1  0.91410865  0.75330227  0.25651834  1
  Te2-  Te185  1  0.91820989  0.74719071  0.58494528  1
  Te2-  Te186  1  0.91578720  0.74660495  0.91714343  1
  Te2-  Te187  1  0.08377552  0.25407501  0.25138512  1
  Te2-  Te188  1  0.07645967  0.26071972  0.58364552  1
  Te2-  Te189  1  0.07940489  0.24820425  0.91756499  1
  Te2-  Te190  1  0.08081091  0.58956353  0.24860657  1
  Te2-  Te191  1  0.07943660  0.58991297  0.58665600  1
  Te2-  Te192  1  0.07517320  0.58392717  0.91673372  1
  Te2-  Te193  1  0.07709388  0.91871501  0.24729908  1
  Te2-  Te194  1  0.08162269  0.91760691  0.58628130  1
  Te2-  Te195  1  0.08304725  0.91772246  0.91937343  1
  Te2-  Te196  1  0.41691243  0.25384657  0.25367273  1
  Te2-  Te197  1  0.41186689  0.25306675  0.58610350  1
  Te2-  Te198  1  0.41780229  0.25594184  0.92431594  1
  Te2-  Te199  1  0.41530374  0.58520466  0.25687964  1
  Te2-  Te200  1  0.41278183  0.58667795  0.58884456  1
  Te2-  Te201  1  0.41638481  0.58847655  0.92142914  1
  Te2-  Te202  1  0.40802523  0.92015679  0.25558478  1
  Te2-  Te203  1  0.41243638  0.91398298  0.58931042  1
  Te2-  Te204  1  0.41035474  0.92092023  0.91845946  1
  Te2-  Te205  1  0.75217623  0.25154463  0.25385329  1
  Te2-  Te206  1  0.74915772  0.24929597  0.58716329  1
  Te2-  Te207  1  0.74965629  0.25542455  0.91543511  1
  Te2-  Te208  1  0.75085190  0.58812207  0.25260906  1
  Te2-  Te209  1  0.74820725  0.58544572  0.58416120  1
  Te2-  Te210  1  0.75215878  0.58283308  0.92713512  1
  Te2-  Te211  1  0.74345861  0.92417568  0.25330113  1
  Te2-  Te212  1  0.73839994  0.91617866  0.59046261  1
  Te2-  Te213  1  0.74530362  0.91724748  0.91518761  1
  Te2-  Te214  1  0.08365171  0.08437933  0.07959696  1
  Te2-  Te215  1  0.08085318  0.08312655  0.41005381  1
  Te2-  Te216  1  0.08335544  0.07606940  0.74527120  1
  Te2-  Te217  1  0.08528601  0.41320124  0.07829093  1
  Te2-  Te218  1  0.08357753  0.41727187  0.41355824  1
  Te2-  Te219  1  0.08070741  0.40908736  0.74392212  1
  Te2-  Te220  1  0.07353218  0.74846380  0.07441847  1
  Te2-  Te221  1  0.07789466  0.75041944  0.40926394  1
  Te2-  Te222  1  0.08007022  0.74681240  0.74684336  1
  Te2-  Te223  1  0.41289028  0.08395127  0.07670242  1
  Te2-  Te224  1  0.40793854  0.07766256  0.41335769  1
  Te2-  Te225  1  0.41376478  0.07850850  0.75143521  1
  Te2-  Te226  1  0.41883958  0.41176555  0.08354218  1
  Te2-  Te227  1  0.41563542  0.41092217  0.41768330  1
  Te2-  Te228  1  0.41381659  0.41593580  0.74764714  1
  Te2-  Te229  1  0.41321669  0.74360929  0.07892426  1
  Te2-  Te230  1  0.41217753  0.74305341  0.41412699  1
  Te2-  Te231  1  0.40797733  0.74743199  0.74635136  1
  Te2-  Te232  1  0.74982983  0.08421745  0.07941825  1
  Te2-  Te233  1  0.75011819  0.07886162  0.41755948  1
  Te2-  Te234  1  0.73991486  0.07917308  0.74873142  1
  Te2-  Te235  1  0.74830091  0.41507489  0.08485916  1
  Te2-  Te236  1  0.75161056  0.41246536  0.41577084  1
  Te2-  Te237  1  0.74947071  0.41636680  0.74895519  1
  Te2-  Te238  1  0.74155323  0.75089085  0.08285956  1
  Te2-  Te239  1  0.74454800  0.74799571  0.41414519  1
  Te2-  Te240  1  0.74711034  0.74532915  0.74400659  1
