# generated using pymatgen
data_Ti27(Cu53Te54)2
_symmetry_space_group_name_H-M   'P 1'
_cell_length_a   17.88196754
_cell_length_b   17.88047921
_cell_length_c   17.88182773
_cell_angle_alpha   90.03686665
_cell_angle_beta   89.99134812
_cell_angle_gamma   90.08103341
_symmetry_Int_Tables_number   1
_chemical_formula_structural   Ti27(Cu53Te54)2
_chemical_formula_sum   'Ti27 Cu106 Te108'
_cell_volume   5717.49553291
_cell_formula_units_Z   1
loop_
 _symmetry_equiv_pos_site_id
 _symmetry_equiv_pos_as_xyz
  1  'x, y, z'
loop_
 _atom_type_symbol
 _atom_type_oxidation_number
  Ti4+  4.0
  Cu+  1.0
  Te2-  -2.0
loop_
 _atom_site_type_symbol
 _atom_site_label
 _atom_site_symmetry_multiplicity
 _atom_site_fract_x
 _atom_site_fract_y
 _atom_site_fract_z
 _atom_site_occupancy
  Ti4+  Ti0  1  0.16664416  0.16810376  0.16546456  1
  Ti4+  Ti1  1  0.16764037  0.16713909  0.49855953  1
  Ti4+  Ti2  1  0.16613886  0.16666884  0.83193696  1
  Ti4+  Ti3  1  0.16391683  0.50167405  0.16870941  1
  Ti4+  Ti4  1  0.16760232  0.50005221  0.50362516  1
  Ti4+  Ti5  1  0.16987249  0.50195084  0.83405938  1
  Ti4+  Ti6  1  0.16925037  0.83475356  0.16685285  1
  Ti4+  Ti7  1  0.16639625  0.83124691  0.49779571  1
  Ti4+  Ti8  1  0.16649592  0.83137744  0.83615893  1
  Ti4+  Ti9  1  0.49980640  0.16887926  0.16382060  1
  Ti4+  Ti10  1  0.49884080  0.16647461  0.49874374  1
  Ti4+  Ti11  1  0.49932024  0.16439170  0.83346557  1
  Ti4+  Ti12  1  0.49721731  0.50067745  0.16927859  1
  Ti4+  Ti13  1  0.50077866  0.50037332  0.50009786  1
  Ti4+  Ti14  1  0.49962105  0.49843570  0.83300882  1
  Ti4+  Ti15  1  0.49889063  0.83415447  0.16691943  1
  Ti4+  Ti16  1  0.50372676  0.83851809  0.49886184  1
  Ti4+  Ti17  1  0.49421315  0.83211192  0.83377600  1
  Ti4+  Ti18  1  0.83803839  0.16636438  0.16867738  1
  Ti4+  Ti19  1  0.83436386  0.16532048  0.50279775  1
  Ti4+  Ti20  1  0.83309486  0.16414178  0.83635227  1
  Ti4+  Ti21  1  0.83223035  0.49966027  0.16700765  1
  Ti4+  Ti22  1  0.83312518  0.49968730  0.50357450  1
  Ti4+  Ti23  1  0.83535877  0.49913198  0.83515259  1
  Ti4+  Ti24  1  0.83286048  0.83497969  0.16616039  1
  Ti4+  Ti25  1  0.83368933  0.83228248  0.49576183  1
  Ti4+  Ti26  1  0.83161032  0.83395029  0.83187864  1
  Cu+  Cu27  1  0.16689917  0.16881168  0.00059637  1
  Cu+  Cu28  1  0.16659790  0.16793708  0.33045021  1
  Cu+  Cu29  1  0.16601779  0.16458777  0.66224725  1
  Cu+  Cu30  1  0.16756857  0.50277783  0.00136728  1
  Cu+  Cu31  1  0.16502728  0.50137749  0.33663886  1
  Cu+  Cu32  1  0.16827116  0.50048851  0.67039344  1
  Cu+  Cu33  1  0.16742830  0.83465113  0.00195501  1
  Cu+  Cu34  1  0.16584002  0.82809320  0.32910538  1
  Cu+  Cu35  1  0.16845664  0.83222224  0.66676866  1
  Cu+  Cu36  1  0.50128524  0.16569363  -0.00590823  1
  Cu+  Cu37  1  0.49915981  0.16996268  0.33076975  1
  Cu+  Cu38  1  0.50087987  0.16391308  0.66825923  1
  Cu+  Cu39  1  0.49962586  0.49664604  0.00415989  1
  Cu+  Cu40  1  0.49770251  0.50045913  0.33248566  1
  Cu+  Cu41  1  0.50239601  0.50158531  0.66652406  1
  Cu+  Cu42  1  0.49301440  0.83272457  0.00070330  1
  Cu+  Cu43  1  0.50259224  0.83708786  0.33516917  1
  Cu+  Cu44  1  0.49716650  0.83186386  0.65928271  1
  Cu+  Cu45  1  0.84101321  0.16864123  0.00324206  1
  Cu+  Cu46  1  0.83966130  0.16323126  0.33719082  1
  Cu+  Cu47  1  0.83287970  0.16149288  0.66933216  1
  Cu+  Cu48  1  0.83434253  0.49923406  -0.00013852  1
  Cu+  Cu49  1  0.83172181  0.49841992  0.33330711  1
  Cu+  Cu50  1  0.83257423  0.50035637  0.67114979  1
  Cu+  Cu51  1  0.83152264  0.83410593  -0.00214345  1
  Cu+  Cu52  1  0.83100994  0.83973337  0.33216856  1
  Cu+  Cu53  1  0.83253079  0.83174774  0.66294410  1
  Cu+  Cu54  1  0.16903879  0.00153662  0.16683904  1
  Cu+  Cu55  1  0.16847110  -0.00098039  0.49988168  1
  Cu+  Cu56  1  0.16558108  -0.00355489  0.83368471  1
  Cu+  Cu57  1  0.16312126  0.33454328  0.16690323  1
  Cu+  Cu58  1  0.16765022  0.33294502  0.50293828  1
  Cu+  Cu59  1  0.17175016  0.33602709  0.83465400  1
  Cu+  Cu60  1  0.16580532  0.67039512  0.17168237  1
  Cu+  Cu61  1  0.16385441  0.66133598  0.49779677  1
  Cu+  Cu62  1  0.16879152  0.66872580  0.82976541  1
  Cu+  Cu63  1  0.49969322  0.00118943  0.16321976  1
  Cu+  Cu64  1  0.49700383  0.00098672  0.49630122  1
  Cu+  Cu65  1  0.49673639  0.00226185  0.83370424  1
  Cu+  Cu66  1  0.50137840  0.33925590  0.16416519  1
  Cu+  Cu67  1  0.49846120  0.33327181  0.49857402  1
  Cu+  Cu68  1  0.49838160  0.32742871  0.83264341  1
  Cu+  Cu69  1  0.49917866  0.66411250  0.17066393  1
  Cu+  Cu70  1  0.50828390  0.67289422  0.50237950  1
  Cu+  Cu71  1  0.49338435  0.66444769  0.83534964  1
  Cu+  Cu72  1  0.83931240  0.00138639  0.16650341  1
  Cu+  Cu73  1  0.83592247  -0.00031040  0.49478352  1
  Cu+  Cu74  1  0.83393994  -0.00137452  0.83110721  1
  Cu+  Cu75  1  0.83020490  0.33164434  0.16811095  1
  Cu+  Cu76  1  0.83443957  0.33317919  0.50631278  1
  Cu+  Cu77  1  0.83782085  0.33193765  0.84072465  1
  Cu+  Cu78  1  0.83245057  0.66840507  0.16718167  1
  Cu+  Cu79  1  0.82824591  0.66309509  0.49811823  1
  Cu+  Cu80  1  0.83097106  0.66761710  0.83188643  1
  Cu+  Cu81  1  0.00186264  0.16303381  0.16406058  1
  Cu+  Cu82  1  0.00062272  0.16305230  0.49900998  1
  Cu+  Cu83  1  0.00003874  0.16558357  0.83477569  1
  Cu+  Cu84  1  -0.00368631  0.49992580  0.16726367  1
  Cu+  Cu85  1  0.00007787  0.50060976  0.50469172  1
  Cu+  Cu86  1  0.00411157  0.50248987  0.83438212  1
  Cu+  Cu87  1  0.00152882  0.83551655  0.16847630  1
  Cu+  Cu88  1  -0.00000285  0.83032089  0.50126202  1
  Cu+  Cu89  1  -0.00225825  0.83428420  0.83419164  1
  Cu+  Cu90  1  0.33021687  0.17035420  0.16495122  1
  Cu+  Cu91  1  0.33327061  0.16976657  0.49582270  1
  Cu+  Cu92  1  0.33422446  0.16768138  0.83309834  1
  Cu+  Cu93  1  0.33031139  0.50196580  0.17057163  1
  Cu+  Cu94  1  0.33302584  0.50017682  0.50426906  1
  Cu+  Cu95  1  0.33443325  0.49689990  0.82920859  1
  Cu+  Cu96  1  0.33532309  0.83831248  0.16406243  1
  Cu+  Cu97  1  0.33356407  0.83720895  0.49919776  1
  Cu+  Cu98  1  0.32994794  0.82399932  0.83696174  1
  Cu+  Cu99  1  0.67135248  0.16912779  0.16615873  1
  Cu+  Cu100  1  0.66575976  0.16762465  0.50438104  1
  Cu+  Cu101  1  0.66165287  0.16338289  0.83528990  1
  Cu+  Cu102  1  0.66278435  0.49856671  0.16806815  1
  Cu+  Cu103  1  0.66708173  0.50117747  0.50138838  1
  Cu+  Cu104  1  0.67190710  0.49860669  0.83233100  1
  Cu+  Cu105  1  0.66636793  0.83430583  0.16745015  1
  Cu+  Cu106  1  0.66907240  0.83665804  0.48996786  1
  Cu+  Cu107  1  0.66350290  0.83408443  0.83348175  1
  Cu+  Cu108  1  0.40219277  0.92639306  0.40666996  1
  Cu+  Cu109  1  0.74571793  0.25629882  0.07446991  1
  Cu+  Cu110  1  0.93309812  0.07026211  0.40692205  1
  Cu+  Cu111  1  0.73748581  0.58257737  0.40201345  1
  Cu+  Cu112  1  0.40977699  0.58977275  0.73830952  1
  Cu+  Cu113  1  0.59032326  0.06811528  0.73795760  1
  Cu+  Cu114  1  0.59391387  0.41317456  0.07437607  1
  Cu+  Cu115  1  0.59316527  0.74191128  0.40354142  1
  Cu+  Cu116  1  0.92972955  0.07359310  0.74054741  1
  Cu+  Cu117  1  0.93067490  0.06860492  0.07238377  1
  Cu+  Cu118  1  0.40672304  0.25158592  0.73728097  1
  Cu+  Cu119  1  0.40679994  0.26347198  0.40103119  1
  Cu+  Cu120  1  0.40458862  0.73258600  0.93330991  1
  Cu+  Cu121  1  0.25770100  0.40463199  0.73933307  1
  Cu+  Cu122  1  0.74005139  0.59586391  0.74281453  1
  Cu+  Cu123  1  0.40565171  0.74159429  0.57771255  1
  Cu+  Cu124  1  0.40125987  0.07699948  0.92414503  1
  Cu+  Cu125  1  0.40749981  0.93022654  0.07184615  1
  Cu+  Cu126  1  0.59147925  0.25991164  0.92073352  1
  Cu+  Cu127  1  0.93292111  0.26134547  0.92873396  1
  Cu+  Cu128  1  0.07216685  0.59675807  0.74419892  1
  Cu+  Cu129  1  0.06997737  0.58493910  0.40707056  1
  Cu+  Cu130  1  0.06854276  0.74200224  0.25581050  1
  Cu+  Cu131  1  0.74119228  0.93435749  0.40246644  1
  Cu+  Cu132  1  0.25711436  0.74449414  0.73593517  1
  Te2-  Te133  1  0.25024621  0.25640418  0.08035940  1
  Te2-  Te134  1  0.25107488  0.25607154  0.41119502  1
  Te2-  Te135  1  0.25265359  0.25151932  0.74354144  1
  Te2-  Te136  1  0.24963996  0.58798904  0.08560259  1
  Te2-  Te137  1  0.25482548  0.58381008  0.41625309  1
  Te2-  Te138  1  0.25806801  0.58976277  0.74341292  1
  Te2-  Te139  1  0.25303820  0.92310132  0.07847025  1
  Te2-  Te140  1  0.24950473  0.91758780  0.41017394  1
  Te2-  Te141  1  0.25361043  0.91620348  0.75027959  1
  Te2-  Te142  1  0.58817430  0.25558821  0.07696819  1
  Te2-  Te143  1  0.58653384  0.25153016  0.41545446  1
  Te2-  Te144  1  0.58820079  0.25203993  0.74657744  1
  Te2-  Te145  1  0.58409956  0.58649055  0.08219187  1
  Te2-  Te146  1  0.58560763  0.58667959  0.41153179  1
  Te2-  Te147  1  0.58628047  0.58705361  0.75054177  1
  Te2-  Te148  1  0.58457717  0.91680782  0.07897536  1
  Te2-  Te149  1  0.58818282  0.92810651  0.40937775  1
  Te2-  Te150  1  0.58014970  0.91571964  0.74659902  1
  Te2-  Te151  1  0.92495567  0.25815732  0.08384974  1
  Te2-  Te152  1  0.91882186  0.25361967  0.41893012  1
  Te2-  Te153  1  0.91717456  0.24982771  0.74916082  1
  Te2-  Te154  1  0.91671166  0.58632547  0.08220202  1
  Te2-  Te155  1  0.91836302  0.58469398  0.41466988  1
  Te2-  Te156  1  0.92011376  0.58739182  0.74859594  1
  Te2-  Te157  1  0.92165506  0.91650897  0.07857623  1
  Te2-  Te158  1  0.92554608  0.91693528  0.41200101  1
  Te2-  Te159  1  0.91955528  0.91757570  0.74392683  1
  Te2-  Te160  1  0.25341191  0.08329463  0.25110361  1
  Te2-  Te161  1  0.25452102  0.08155529  0.58249080  1
  Te2-  Te162  1  0.24946828  0.08087339  0.91826279  1
  Te2-  Te163  1  0.24755909  0.41574247  0.25393454  1
  Te2-  Te164  1  0.25473985  0.41269708  0.58798975  1
  Te2-  Te165  1  0.25455685  0.41731758  0.92216413  1
  Te2-  Te166  1  0.25851777  0.74971101  0.25066640  1
  Te2-  Te167  1  0.25296875  0.74343302  0.58247698  1
  Te2-  Te168  1  0.24966222  0.74216428  0.92658015  1
  Te2-  Te169  1  0.58447884  0.08497976  0.24758907  1
  Te2-  Te170  1  0.58458870  0.07825370  0.58398518  1
  Te2-  Te171  1  0.58660283  0.07481022  0.92132271  1
  Te2-  Te172  1  0.58443217  0.41430344  0.25603216  1
  Te2-  Te173  1  0.58486143  0.41461839  0.58422652  1
  Te2-  Te174  1  0.58815110  0.41301839  0.91795494  1
  Te2-  Te175  1  0.58588593  0.74803035  0.25157574  1
  Te2-  Te176  1  0.59441300  0.75485174  0.58509760  1
  Te2-  Te177  1  0.58046304  0.74831878  0.91840584  1
  Te2-  Te178  1  0.92492626  0.07850219  0.25447346  1
  Te2-  Te179  1  0.92037747  0.07662271  0.58702298  1
  Te2-  Te180  1  0.92080733  0.07653045  0.92024822  1
  Te2-  Te181  1  0.91645799  0.41358763  0.25254732  1
  Te2-  Te182  1  0.91907545  0.41578940  0.58990008  1
  Te2-  Te183  1  0.92510444  0.41669047  0.92238573  1
  Te2-  Te184  1  0.91623289  0.74920588  0.25443276  1
  Te2-  Te185  1  0.91595621  0.74489866  0.58212136  1
  Te2-  Te186  1  0.91627004  0.74803185  0.91743938  1
  Te2-  Te187  1  0.07898381  0.25156665  0.25074494  1
  Te2-  Te188  1  0.07997309  0.25058270  0.58423150  1
  Te2-  Te189  1  0.08397437  0.25457110  0.91817981  1
  Te2-  Te190  1  0.07474664  0.58779694  0.25508450  1
  Te2-  Te191  1  0.08056557  0.58674492  0.59091187  1
  Te2-  Te192  1  0.08458342  0.58881244  0.91930909  1
  Te2-  Te193  1  0.08376679  0.92139403  0.25260501  1
  Te2-  Te194  1  0.08337787  0.91597483  0.58442445  1
  Te2-  Te195  1  0.08036021  0.91742012  0.92009605  1
  Te2-  Te196  1  0.41399773  0.25627336  0.24747077  1
  Te2-  Te197  1  0.41429307  0.25207258  0.58618859  1
  Te2-  Te198  1  0.41138605  0.25353220  0.92178240  1
  Te2-  Te199  1  0.41154203  0.58670107  0.25547604  1
  Te2-  Te200  1  0.41508089  0.58918915  0.58519214  1
  Te2-  Te201  1  0.41198657  0.57911283  0.92313517  1
  Te2-  Te202  1  0.41480484  0.92244770  0.25369182  1
  Te2-  Te203  1  0.41337072  0.92325682  0.58540219  1
  Te2-  Te204  1  0.40702083  0.92114843  0.91788388  1
  Te2-  Te205  1  0.75191266  0.24862917  0.25788739  1
  Te2-  Te206  1  0.74918001  0.25006151  0.58966138  1
  Te2-  Te207  1  0.74529965  0.25204753  0.92175191  1
  Te2-  Te208  1  0.74492867  0.58604756  0.25011147  1
  Te2-  Te209  1  0.74551663  0.58614101  0.59010885  1
  Te2-  Te210  1  0.74880876  0.58518408  0.92041227  1
  Te2-  Te211  1  0.74594626  0.92506077  0.24876542  1
  Te2-  Te212  1  0.74943347  0.91859433  0.58090443  1
  Te2-  Te213  1  0.74615705  0.91952885  0.91742791  1
  Te2-  Te214  1  0.08362380  0.07804285  0.07754685  1
  Te2-  Te215  1  0.08461919  0.07881337  0.41208113  1
  Te2-  Te216  1  0.08259888  0.07894984  0.74680970  1
  Te2-  Te217  1  0.08012790  0.41776063  0.08118436  1
  Te2-  Te218  1  0.08100164  0.41438130  0.41871251  1
  Te2-  Te219  1  0.08266914  0.41354699  0.75037143  1
  Te2-  Te220  1  0.08141966  0.74906814  0.08216435  1
  Te2-  Te221  1  0.07755046  0.74456637  0.41294634  1
  Te2-  Te222  1  0.07754650  0.74987792  0.74616125  1
  Te2-  Te223  1  0.41066317  0.08389945  0.07850363  1
  Te2-  Te224  1  0.41245385  0.08214317  0.40951342  1
  Te2-  Te225  1  0.41008568  0.07900057  0.74517606  1
  Te2-  Te226  1  0.40848703  0.41604827  0.08353161  1
  Te2-  Te227  1  0.41196940  0.41672459  0.41495162  1
  Te2-  Te228  1  0.41610858  0.40929124  0.74329797  1
  Te2-  Te229  1  0.41239187  0.74285470  0.08497988  1
  Te2-  Te230  1  0.41633399  0.74834310  0.41479746  1
  Te2-  Te231  1  0.41180316  0.74449374  0.74017528  1
  Te2-  Te232  1  0.75175403  0.08145582  0.08092754  1
  Te2-  Te233  1  0.74437795  0.08457123  0.41384533  1
  Te2-  Te234  1  0.74437585  0.07902923  0.74948094  1
  Te2-  Te235  1  0.74624565  0.41260320  0.07776620  1
  Te2-  Te236  1  0.74859959  0.41238400  0.41845049  1
  Te2-  Te237  1  0.75197421  0.40862627  0.75129030  1
  Te2-  Te238  1  0.74736304  0.74970110  0.08160807  1
  Te2-  Te239  1  0.74764236  0.74326248  0.40662953  1
  Te2-  Te240  1  0.74388243  0.74969526  0.74539191  1
