# generated using pymatgen
data_Ti27(Cu53Te54)2
_symmetry_space_group_name_H-M   'P 1'
_cell_length_a   17.87085740
_cell_length_b   17.87143134
_cell_length_c   17.87074300
_cell_angle_alpha   89.99644713
_cell_angle_beta   90.00172928
_cell_angle_gamma   89.98524983
_symmetry_Int_Tables_number   1
_chemical_formula_structural   Ti27(Cu53Te54)2
_chemical_formula_sum   'Ti27 Cu106 Te108'
_cell_volume   5707.51840181
_cell_formula_units_Z   1
loop_
 _symmetry_equiv_pos_site_id
 _symmetry_equiv_pos_as_xyz
  1  'x, y, z'
loop_
 _atom_type_symbol
 _atom_type_oxidation_number
  Ti4+  4.0
  Cu+  1.0
  Te2-  -2.0
loop_
 _atom_site_type_symbol
 _atom_site_label
 _atom_site_symmetry_multiplicity
 _atom_site_fract_x
 _atom_site_fract_y
 _atom_site_fract_z
 _atom_site_occupancy
  Ti4+  Ti0  1  0.16808100  0.17033435  0.16781799  1
  Ti4+  Ti1  1  0.16768676  0.16644414  0.50037725  1
  Ti4+  Ti2  1  0.16886155  0.16744775  0.83512961  1
  Ti4+  Ti3  1  0.16255284  0.50067845  0.16637744  1
  Ti4+  Ti4  1  0.16738737  0.50384763  0.50065573  1
  Ti4+  Ti5  1  0.16534641  0.49470024  0.83147512  1
  Ti4+  Ti6  1  0.16874401  0.83164758  0.16709174  1
  Ti4+  Ti7  1  0.16452315  0.83401252  0.50007255  1
  Ti4+  Ti8  1  0.16575923  0.83124294  0.83434638  1
  Ti4+  Ti9  1  0.50008038  0.16597363  0.16472887  1
  Ti4+  Ti10  1  0.49931533  0.16746531  0.49869896  1
  Ti4+  Ti11  1  0.49858585  0.16649510  0.83194144  1
  Ti4+  Ti12  1  0.49746672  0.50039984  0.16824959  1
  Ti4+  Ti13  1  0.50244847  0.49857117  0.50233741  1
  Ti4+  Ti14  1  0.49830514  0.50288644  0.83087936  1
  Ti4+  Ti15  1  0.50297211  0.83291985  0.16752495  1
  Ti4+  Ti16  1  0.50140660  0.83481349  0.50078539  1
  Ti4+  Ti17  1  0.49989563  0.83472652  0.83464530  1
  Ti4+  Ti18  1  0.83623610  0.16535784  0.16655448  1
  Ti4+  Ti19  1  0.83295206  0.16587317  0.49791973  1
  Ti4+  Ti20  1  0.83236759  0.16850253  0.83354705  1
  Ti4+  Ti21  1  0.83020912  0.49789114  0.16635240  1
  Ti4+  Ti22  1  0.83298668  0.50023213  0.50201922  1
  Ti4+  Ti23  1  0.83181507  0.49912172  0.83261469  1
  Ti4+  Ti24  1  0.83198315  0.83031162  0.16705522  1
  Ti4+  Ti25  1  0.83753543  0.83478988  0.49761845  1
  Ti4+  Ti26  1  0.83360873  0.83448044  0.83369624  1
  Cu+  Cu27  1  0.17176789  0.17020983  0.00098762  1
  Cu+  Cu28  1  0.16710545  0.16939404  0.33326599  1
  Cu+  Cu29  1  0.16671786  0.16603723  0.66895881  1
  Cu+  Cu30  1  0.16500512  0.49349831  -0.00031326  1
  Cu+  Cu31  1  0.16604301  0.50668392  0.33405784  1
  Cu+  Cu32  1  0.16315600  0.49648964  0.66375924  1
  Cu+  Cu33  1  0.16846438  0.83087104  -0.00046049  1
  Cu+  Cu34  1  0.16576590  0.83521403  0.33550039  1
  Cu+  Cu35  1  0.16382087  0.83159118  0.66849981  1
  Cu+  Cu36  1  0.49955683  0.16212946  -0.00197099  1
  Cu+  Cu37  1  0.50102249  0.16523056  0.33024825  1
  Cu+  Cu38  1  0.49283554  0.16808984  0.66260423  1
  Cu+  Cu39  1  0.49610229  0.50311108  -0.00178995  1
  Cu+  Cu40  1  0.50174442  0.49714260  0.33623174  1
  Cu+  Cu41  1  0.50843355  0.50121427  0.66816826  1
  Cu+  Cu42  1  0.50014241  0.83842456  0.00405174  1
  Cu+  Cu43  1  0.50162324  0.83155287  0.33363388  1
  Cu+  Cu44  1  0.50248408  0.83559530  0.66959116  1
  Cu+  Cu45  1  0.83111640  0.17223358  0.00055134  1
  Cu+  Cu46  1  0.84105903  0.16409708  0.33303028  1
  Cu+  Cu47  1  0.83026762  0.16440011  0.66542709  1
  Cu+  Cu48  1  0.82870562  0.49907478  0.00051325  1
  Cu+  Cu49  1  0.83106176  0.50019709  0.33247307  1
  Cu+  Cu50  1  0.83415520  0.49893372  0.66508280  1
  Cu+  Cu51  1  0.82966774  0.82786876  -0.00143495  1
  Cu+  Cu52  1  0.83593941  0.83584959  0.33265348  1
  Cu+  Cu53  1  0.83604099  0.83952449  0.66676083  1
  Cu+  Cu54  1  0.16827397  0.00449648  0.16510985  1
  Cu+  Cu55  1  0.16444899  -0.00135008  0.50041892  1
  Cu+  Cu56  1  0.16673829  -0.00201505  0.83472078  1
  Cu+  Cu57  1  0.16611944  0.33870161  0.16251044  1
  Cu+  Cu58  1  0.16867686  0.33500476  0.49906916  1
  Cu+  Cu59  1  0.16787020  0.32617416  0.83225320  1
  Cu+  Cu60  1  0.16825598  0.66432558  0.17024550  1
  Cu+  Cu61  1  0.16526252  0.67038474  0.49853061  1
  Cu+  Cu62  1  0.16490205  0.66307308  0.83337236  1
  Cu+  Cu63  1  0.50050364  -0.00252256  0.16169982  1
  Cu+  Cu64  1  0.49754938  0.00203147  0.50133339  1
  Cu+  Cu65  1  0.49927611  0.00032827  0.83655065  1
  Cu+  Cu66  1  0.49828080  0.33158159  0.16507109  1
  Cu+  Cu67  1  0.50414073  0.33402670  0.49397680  1
  Cu+  Cu68  1  0.49670982  0.33506863  0.82713819  1
  Cu+  Cu69  1  0.49835181  0.66820490  0.17103039  1
  Cu+  Cu70  1  0.50336828  0.66659913  0.50325813  1
  Cu+  Cu71  1  0.49751904  0.66931659  0.83406559  1
  Cu+  Cu72  1  0.83681418  -0.00463512  0.16927656  1
  Cu+  Cu73  1  0.83686690  0.00019790  0.49327630  1
  Cu+  Cu74  1  0.83324041  0.00255114  0.83315225  1
  Cu+  Cu75  1  0.83121454  0.33090128  0.16653936  1
  Cu+  Cu76  1  0.82785182  0.33338764  0.50235944  1
  Cu+  Cu77  1  0.83959356  0.33231948  0.83505892  1
  Cu+  Cu78  1  0.83099743  0.66259851  0.16649382  1
  Cu+  Cu79  1  0.84085569  0.66559376  0.50068939  1
  Cu+  Cu80  1  0.82671927  0.66994440  0.83453383  1
  Cu+  Cu81  1  0.00328587  0.17123312  0.17063564  1
  Cu+  Cu82  1  -0.00121359  0.16591958  0.49664519  1
  Cu+  Cu83  1  -0.00178652  0.17063085  0.83669913  1
  Cu+  Cu84  1  -0.00307574  0.50037298  0.16622051  1
  Cu+  Cu85  1  0.00315020  0.50351356  0.50577036  1
  Cu+  Cu86  1  -0.00278633  0.49521441  0.82883508  1
  Cu+  Cu87  1  0.00273406  0.83156070  0.16684019  1
  Cu+  Cu88  1  -0.00129800  0.83140046  0.50094791  1
  Cu+  Cu89  1  0.00114545  0.83320850  0.83405457  1
  Cu+  Cu90  1  0.33367796  0.16693870  0.16784229  1
  Cu+  Cu91  1  0.33310359  0.16428831  0.50318981  1
  Cu+  Cu92  1  0.33695950  0.16770049  0.83514901  1
  Cu+  Cu93  1  0.32917035  0.50250669  0.16830479  1
  Cu+  Cu94  1  0.33588113  0.50352416  0.50027747  1
  Cu+  Cu95  1  0.33229054  0.50005708  0.83256226  1
  Cu+  Cu96  1  0.33744986  0.83167412  0.16884099  1
  Cu+  Cu97  1  0.33114074  0.83449894  0.50057042  1
  Cu+  Cu98  1  0.32970946  0.83146019  0.83312252  1
  Cu+  Cu99  1  0.66833604  0.16483691  0.16188330  1
  Cu+  Cu100  1  0.66489860  0.16651698  0.49895648  1
  Cu+  Cu101  1  0.66641243  0.16812994  0.83198062  1
  Cu+  Cu102  1  0.66440109  0.49975406  0.16704190  1
  Cu+  Cu103  1  0.66503936  0.49732225  0.50449004  1
  Cu+  Cu104  1  0.66291900  0.49990267  0.82923957  1
  Cu+  Cu105  1  0.66566038  0.82980719  0.16728934  1
  Cu+  Cu106  1  0.67083194  0.83473966  0.49511981  1
  Cu+  Cu107  1  0.66761649  0.83330048  0.83686652  1
  Cu+  Cu108  1  0.73474376  0.73898442  0.92801016  1
  Cu+  Cu109  1  0.59329102  0.40222119  0.74585656  1
  Cu+  Cu110  1  0.41037057  0.74290879  0.26446093  1
  Cu+  Cu111  1  0.93059813  0.59467802  0.59760359  1
  Cu+  Cu112  1  0.40765381  0.26594955  0.73283902  1
  Cu+  Cu113  1  0.25803501  0.59216164  0.26185835  1
  Cu+  Cu114  1  0.73698698  0.26034716  0.07337191  1
  Cu+  Cu115  1  0.92881137  0.26045112  0.93128924  1
  Cu+  Cu116  1  0.92648583  0.93100465  0.59660483  1
  Cu+  Cu117  1  0.73768297  0.92844593  0.40535085  1
  Cu+  Cu118  1  0.59548098  0.40583579  0.40160886  1
  Cu+  Cu119  1  0.59233888  0.60060317  0.59636834  1
  Cu+  Cu120  1  0.40292423  0.06911322  0.59035714  1
  Cu+  Cu121  1  0.07827618  0.40399131  0.58606888  1
  Cu+  Cu122  1  0.40380530  0.92322347  0.07768360  1
  Cu+  Cu123  1  0.92478948  0.73482961  0.40149066  1
  Cu+  Cu124  1  0.73933506  0.40537603  0.59440000  1
  Cu+  Cu125  1  0.93242017  0.07397750  0.40611415  1
  Cu+  Cu126  1  0.92763503  0.26399930  0.26290464  1
  Cu+  Cu127  1  0.93291969  0.92124262  0.25394159  1
  Cu+  Cu128  1  0.26216986  0.41332245  0.07464151  1
  Cu+  Cu129  1  0.06970777  0.24752517  0.73846082  1
  Cu+  Cu130  1  0.40663383  0.07170487  0.92588107  1
  Cu+  Cu131  1  0.26714188  0.25679523  0.92819746  1
  Cu+  Cu132  1  0.92379030  0.40687644  0.73799286  1
  Te2-  Te133  1  0.25819789  0.25677682  0.08171807  1
  Te2-  Te134  1  0.25333616  0.25141612  0.41682266  1
  Te2-  Te135  1  0.25676868  0.25163529  0.74431014  1
  Te2-  Te136  1  0.24917203  0.58504759  0.07732766  1
  Te2-  Te137  1  0.25490448  0.59060413  0.41655678  1
  Te2-  Te138  1  0.24813400  0.58134709  0.74653891  1
  Te2-  Te139  1  0.25225918  0.91873873  0.08158541  1
  Te2-  Te140  1  0.25153444  0.91984739  0.41547623  1
  Te2-  Te141  1  0.25029114  0.91786919  0.74770967  1
  Te2-  Te142  1  0.58382008  0.25212633  0.07698023  1
  Te2-  Te143  1  0.58806903  0.25017492  0.40946979  1
  Te2-  Te144  1  0.58614730  0.24983742  0.74336562  1
  Te2-  Te145  1  0.58147080  0.58533814  0.08314851  1
  Te2-  Te146  1  0.58826995  0.58509247  0.41583243  1
  Te2-  Te147  1  0.58762321  0.59431019  0.74916157  1
  Te2-  Te148  1  0.59146825  0.91879783  0.08160386  1
  Te2-  Te149  1  0.58383186  0.92215740  0.41321334  1
  Te2-  Te150  1  0.58678395  0.92045514  0.75191507  1
  Te2-  Te151  1  0.92307630  0.25481452  0.08173828  1
  Te2-  Te152  1  0.91879095  0.25834068  0.41637001  1
  Te2-  Te153  1  0.91821924  0.25218277  0.73972688  1
  Te2-  Te154  1  0.91545317  0.58361019  0.08029589  1
  Te2-  Te155  1  0.92188954  0.58097645  0.41175781  1
  Te2-  Te156  1  0.91645169  0.58924412  0.74951953  1
  Te2-  Te157  1  0.91745604  0.91292419  0.07916115  1
  Te2-  Te158  1  0.92852909  0.92143008  0.40881422  1
  Te2-  Te159  1  0.92228938  0.92313645  0.75059562  1
  Te2-  Te160  1  0.25214954  0.08329952  0.25289651  1
  Te2-  Te161  1  0.24933050  0.07810117  0.58850337  1
  Te2-  Te162  1  0.25319269  0.07869571  0.92055792  1
  Te2-  Te163  1  0.24911425  0.41554485  0.25510010  1
  Te2-  Te164  1  0.25476118  0.41682316  0.58384119  1
  Te2-  Te165  1  0.25536459  0.41045690  0.91795781  1
  Te2-  Te166  1  0.25486237  0.74732821  0.25749221  1
  Te2-  Te167  1  0.25045182  0.74922342  0.58563050  1
  Te2-  Te168  1  0.25150068  0.74363496  0.91836323  1
  Te2-  Te169  1  0.58571785  0.07978905  0.24766642  1
  Te2-  Te170  1  0.58460959  0.08311159  0.58642556  1
  Te2-  Te171  1  0.58778085  0.08225978  0.91667357  1
  Te2-  Te172  1  0.58495582  0.41171553  0.24997966  1
  Te2-  Te173  1  0.58741573  0.40558393  0.59042096  1
  Te2-  Te174  1  0.58143880  0.41548429  0.91712746  1
  Te2-  Te175  1  0.58831394  0.74537378  0.25499131  1
  Te2-  Te176  1  0.59089522  0.75297254  0.58650922  1
  Te2-  Te177  1  0.58255826  0.74807961  0.92275374  1
  Te2-  Te178  1  0.92675520  0.07680145  0.25163171  1
  Te2-  Te179  1  0.91929955  0.08186825  0.58668161  1
  Te2-  Te180  1  0.91722463  0.08393442  0.92034545  1
  Te2-  Te181  1  0.91797561  0.41442766  0.25353966  1
  Te2-  Te182  1  0.92209515  0.40916489  0.58498209  1
  Te2-  Te183  1  0.91915242  0.41630328  0.92330237  1
  Te2-  Te184  1  0.91961673  0.74299359  0.25061784  1
  Te2-  Te185  1  0.92019100  0.74781073  0.59134916  1
  Te2-  Te186  1  0.91946007  0.74656655  0.91764314  1
  Te2-  Te187  1  0.08402792  0.25905879  0.25477535  1
  Te2-  Te188  1  0.07779702  0.25186905  0.58516490  1
  Te2-  Te189  1  0.08141232  0.25437564  0.92381907  1
  Te2-  Te190  1  0.07597452  0.58669763  0.25232044  1
  Te2-  Te191  1  0.08295603  0.59289519  0.58972734  1
  Te2-  Te192  1  0.08000385  0.57842962  0.91645960  1
  Te2-  Te193  1  0.08484769  0.92117897  0.25085435  1
  Te2-  Te194  1  0.07912992  0.91964594  0.58792377  1
  Te2-  Te195  1  0.08164126  0.91804379  0.92116577  1
  Te2-  Te196  1  0.41532968  0.25119332  0.25155252  1
  Te2-  Te197  1  0.41241130  0.25971804  0.58051679  1
  Te2-  Te198  1  0.41849852  0.25755213  0.92197523  1
  Te2-  Te199  1  0.41276389  0.58563444  0.25882972  1
  Te2-  Te200  1  0.41713464  0.58514749  0.58862328  1
  Te2-  Te201  1  0.41157235  0.58714950  0.91671660  1
  Te2-  Te202  1  0.41679076  0.92064041  0.25403879  1
  Te2-  Te203  1  0.41342056  0.91724314  0.58773498  1
  Te2-  Te204  1  0.40885553  0.91909694  0.92082268  1
  Te2-  Te205  1  0.74884331  0.24683264  0.25398049  1
  Te2-  Te206  1  0.74481445  0.24937283  0.58666412  1
  Te2-  Te207  1  0.74323543  0.25685307  0.91687388  1
  Te2-  Te208  1  0.74540497  0.58419973  0.25245417  1
  Te2-  Te209  1  0.74748498  0.58968676  0.58639371  1
  Te2-  Te210  1  0.74306873  0.58286108  0.91809794  1
  Te2-  Te211  1  0.74402195  0.91813908  0.25209561  1
  Te2-  Te212  1  0.75029793  0.92193722  0.58188231  1
  Te2-  Te213  1  0.74974007  0.92147702  0.92002574  1
  Te2-  Te214  1  0.08312240  0.08627867  0.08099473  1
  Te2-  Te215  1  0.08377116  0.08092391  0.41217063  1
  Te2-  Te216  1  0.08001030  0.08211882  0.75220468  1
  Te2-  Te217  1  0.07482186  0.41452123  0.08055735  1
  Te2-  Te218  1  0.08138692  0.41892605  0.41435832  1
  Te2-  Te219  1  0.07861153  0.40581581  0.74335172  1
  Te2-  Te220  1  0.08411170  0.74586489  0.08331178  1
  Te2-  Te221  1  0.07892276  0.74713146  0.41155417  1
  Te2-  Te222  1  0.07954079  0.74528168  0.74933919  1
  Te2-  Te223  1  0.40945133  0.07933331  0.07946178  1
  Te2-  Te224  1  0.41396872  0.08235394  0.41239604  1
  Te2-  Te225  1  0.41215682  0.07764937  0.74652987  1
  Te2-  Te226  1  0.41363035  0.41547699  0.08056228  1
  Te2-  Te227  1  0.41278075  0.41536990  0.41600670  1
  Te2-  Te228  1  0.41060831  0.41905948  0.74128521  1
  Te2-  Te229  1  0.41606803  0.74658404  0.08002252  1
  Te2-  Te230  1  0.41486631  0.74638158  0.41880431  1
  Te2-  Te231  1  0.41472232  0.75066259  0.74789014  1
  Te2-  Te232  1  0.75348023  0.07746449  0.08104496  1
  Te2-  Te233  1  0.74535076  0.08242739  0.41049085  1
  Te2-  Te234  1  0.74690734  0.08193315  0.74853504  1
  Te2-  Te235  1  0.74292357  0.41284011  0.08012772  1
  Te2-  Te236  1  0.74695482  0.41459824  0.41311785  1
  Te2-  Te237  1  0.74630507  0.40900725  0.74711550  1
  Te2-  Te238  1  0.74503978  0.74329132  0.08245985  1
  Te2-  Te239  1  0.75309734  0.74486110  0.41356947  1
  Te2-  Te240  1  0.74771937  0.75293631  0.74372089  1
