# generated using pymatgen
data_Ti27(Cu53Te54)2
_symmetry_space_group_name_H-M   'P 1'
_cell_length_a   17.86821742
_cell_length_b   17.86751198
_cell_length_c   17.86822622
_cell_angle_alpha   90.00006678
_cell_angle_beta   90.04078310
_cell_angle_gamma   89.98313254
_symmetry_Int_Tables_number   1
_chemical_formula_structural   Ti27(Cu53Te54)2
_chemical_formula_sum   'Ti27 Cu106 Te108'
_cell_volume   5704.61873320
_cell_formula_units_Z   1
loop_
 _symmetry_equiv_pos_site_id
 _symmetry_equiv_pos_as_xyz
  1  'x, y, z'
loop_
 _atom_type_symbol
 _atom_type_oxidation_number
  Ti4+  4.0
  Cu+  1.0
  Te2-  -2.0
loop_
 _atom_site_type_symbol
 _atom_site_label
 _atom_site_symmetry_multiplicity
 _atom_site_fract_x
 _atom_site_fract_y
 _atom_site_fract_z
 _atom_site_occupancy
  Ti4+  Ti0  1  0.16896988  0.16696967  0.16802029  1
  Ti4+  Ti1  1  0.16746464  0.16761439  0.50022154  1
  Ti4+  Ti2  1  0.16572934  0.16745709  0.83339033  1
  Ti4+  Ti3  1  0.16964952  0.50086566  0.16818528  1
  Ti4+  Ti4  1  0.16643272  0.49894330  0.49841416  1
  Ti4+  Ti5  1  0.16747150  0.49856918  0.83367722  1
  Ti4+  Ti6  1  0.16691522  0.83207221  0.16607269  1
  Ti4+  Ti7  1  0.16790194  0.83376238  0.49995939  1
  Ti4+  Ti8  1  0.16311594  0.83081544  0.82948684  1
  Ti4+  Ti9  1  0.49870127  0.16583843  0.16792130  1
  Ti4+  Ti10  1  0.50209474  0.16501312  0.50385264  1
  Ti4+  Ti11  1  0.50519248  0.16772872  0.83376244  1
  Ti4+  Ti12  1  0.50115410  0.50031152  0.16508937  1
  Ti4+  Ti13  1  0.49910127  0.50094828  0.50181897  1
  Ti4+  Ti14  1  0.49924231  0.49978617  0.83225348  1
  Ti4+  Ti15  1  0.49962939  0.83433149  0.16747521  1
  Ti4+  Ti16  1  0.49765438  0.83136521  0.49594794  1
  Ti4+  Ti17  1  0.49567920  0.83660636  0.83323251  1
  Ti4+  Ti18  1  0.83239666  0.16723385  0.16306669  1
  Ti4+  Ti19  1  0.83224347  0.16975039  0.49785751  1
  Ti4+  Ti20  1  0.83308802  0.16713051  0.83463456  1
  Ti4+  Ti21  1  0.83382228  0.49938049  0.16501350  1
  Ti4+  Ti22  1  0.83163984  0.50231327  0.49967337  1
  Ti4+  Ti23  1  0.83305746  0.50060671  0.83628788  1
  Ti4+  Ti24  1  0.83402590  0.83458284  0.16697669  1
  Ti4+  Ti25  1  0.83412938  0.83358479  0.50109859  1
  Ti4+  Ti26  1  0.83394022  0.83205047  0.83683612  1
  Cu+  Cu27  1  0.16662597  0.16737905  0.00183811  1
  Cu+  Cu28  1  0.17157875  0.17160924  0.33429019  1
  Cu+  Cu29  1  0.16522817  0.16632556  0.66696920  1
  Cu+  Cu30  1  0.17178936  0.49791847  0.00095091  1
  Cu+  Cu31  1  0.16195725  0.49913775  0.33111565  1
  Cu+  Cu32  1  0.16583468  0.50049931  0.66802508  1
  Cu+  Cu33  1  0.16537633  0.83315243  -0.00464260  1
  Cu+  Cu34  1  0.17106850  0.83171195  0.33352534  1
  Cu+  Cu35  1  0.15916996  0.82955374  0.66272065  1
  Cu+  Cu36  1  0.50244577  0.16116178  0.00203135  1
  Cu+  Cu37  1  0.49636437  0.16329919  0.33599790  1
  Cu+  Cu38  1  0.51277823  0.17227512  0.66689712  1
  Cu+  Cu39  1  0.50010505  0.50100740  -0.00311292  1
  Cu+  Cu40  1  0.50106340  0.50138157  0.33320020  1
  Cu+  Cu41  1  0.49568816  0.49711340  0.66702807  1
  Cu+  Cu42  1  0.49533990  0.83906747  0.00116323  1
  Cu+  Cu43  1  0.50068472  0.83203219  0.33122722  1
  Cu+  Cu44  1  0.49560222  0.83407916  0.66505718  1
  Cu+  Cu45  1  0.83362911  0.16959671  -0.00167471  1
  Cu+  Cu46  1  0.83045600  0.16833694  0.32998916  1
  Cu+  Cu47  1  0.83108404  0.16701661  0.66435472  1
  Cu+  Cu48  1  0.83026619  0.50442318  0.00191282  1
  Cu+  Cu49  1  0.83702080  0.49777493  0.33431279  1
  Cu+  Cu50  1  0.83206062  0.50104551  0.66630811  1
  Cu+  Cu51  1  0.83780292  0.83069875  0.00456346  1
  Cu+  Cu52  1  0.83471003  0.83590695  0.33520136  1
  Cu+  Cu53  1  0.83481203  0.83195994  0.67291710  1
  Cu+  Cu54  1  0.16539749  -0.00215041  0.16817306  1
  Cu+  Cu55  1  0.16854619  0.00198080  0.49765712  1
  Cu+  Cu56  1  0.16412041  -0.00142606  0.83149732  1
  Cu+  Cu57  1  0.17374440  0.33449194  0.17008740  1
  Cu+  Cu58  1  0.16622995  0.33143061  0.50017036  1
  Cu+  Cu59  1  0.16628977  0.33362000  0.83254364  1
  Cu+  Cu60  1  0.16789539  0.66532632  0.16550102  1
  Cu+  Cu61  1  0.16844392  0.66599600  0.49736004  1
  Cu+  Cu62  1  0.16552000  0.66304981  0.83252765  1
  Cu+  Cu63  1  0.49550844  0.00080580  0.16615560  1
  Cu+  Cu64  1  0.50363104  -0.00793938  0.50154984  1
  Cu+  Cu65  1  0.49755199  0.00628577  0.83286164  1
  Cu+  Cu66  1  0.50104071  0.33574138  0.16836440  1
  Cu+  Cu67  1  0.50000836  0.33360797  0.50571280  1
  Cu+  Cu68  1  0.50215711  0.33300163  0.83314759  1
  Cu+  Cu69  1  0.50087062  0.66754949  0.16753399  1
  Cu+  Cu70  1  0.49419223  0.66787902  0.50112947  1
  Cu+  Cu71  1  0.49878475  0.66702850  0.83146064  1
  Cu+  Cu72  1  0.83545367  0.00261982  0.16776374  1
  Cu+  Cu73  1  0.83250617  0.00100743  0.49905878  1
  Cu+  Cu74  1  0.82966410  -0.00304972  0.83816542  1
  Cu+  Cu75  1  0.82965147  0.33073534  0.16150652  1
  Cu+  Cu76  1  0.83387296  0.33782803  0.49480931  1
  Cu+  Cu77  1  0.83709663  0.33473523  0.83600348  1
  Cu+  Cu78  1  0.83364301  0.66557172  0.16226640  1
  Cu+  Cu79  1  0.83086221  0.66615718  0.50168267  1
  Cu+  Cu80  1  0.83468649  0.66683114  0.83510897  1
  Cu+  Cu81  1  -0.00016291  0.16508469  0.16143476  1
  Cu+  Cu82  1  0.00162235  0.16972133  0.49607321  1
  Cu+  Cu83  1  -0.00030030  0.17114174  0.83588729  1
  Cu+  Cu84  1  0.00431194  0.49814130  0.17223132  1
  Cu+  Cu85  1  -0.00392396  0.50004227  0.49508348  1
  Cu+  Cu86  1  0.00285427  0.49900635  0.83606013  1
  Cu+  Cu87  1  0.00096771  0.83031023  0.16623800  1
  Cu+  Cu88  1  0.00155454  0.83418202  0.50441286  1
  Cu+  Cu89  1  -0.00344687  0.82744928  0.82897285  1
  Cu+  Cu90  1  0.33224833  0.16880121  0.17803317  1
  Cu+  Cu91  1  0.33384000  0.16437639  0.50083245  1
  Cu+  Cu92  1  0.33498226  0.16854186  0.83269487  1
  Cu+  Cu93  1  0.33463033  0.49741137  0.16223245  1
  Cu+  Cu94  1  0.33410383  0.49787882  0.50216638  1
  Cu+  Cu95  1  0.33383890  0.50030188  0.83246598  1
  Cu+  Cu96  1  0.33482890  0.83543231  0.16418428  1
  Cu+  Cu97  1  0.33236039  0.82450246  0.49499013  1
  Cu+  Cu98  1  0.32619178  0.83789082  0.83198586  1
  Cu+  Cu99  1  0.66626256  0.16559824  0.16278044  1
  Cu+  Cu100  1  0.66839136  0.16823824  0.50559084  1
  Cu+  Cu101  1  0.66856266  0.16067208  0.83294080  1
  Cu+  Cu102  1  0.66717457  0.50342925  0.16433797  1
  Cu+  Cu103  1  0.66670508  0.50428525  0.49961833  1
  Cu+  Cu104  1  0.66529365  0.50090557  0.83242441  1
  Cu+  Cu105  1  0.66667202  0.83638080  0.17068376  1
  Cu+  Cu106  1  0.66647044  0.83478139  0.49800397  1
  Cu+  Cu107  1  0.66564153  0.83498227  0.83629788  1
  Cu+  Cu108  1  0.74349795  0.06963425  0.92698636  1
  Cu+  Cu109  1  0.40416371  0.92713011  0.07547515  1
  Cu+  Cu110  1  0.07541205  0.40178209  0.25611577  1
  Cu+  Cu111  1  0.07214461  0.73376509  0.58409848  1
  Cu+  Cu112  1  0.74751406  0.07130083  0.59181773  1
  Cu+  Cu113  1  0.93202712  0.73425538  0.07885638  1
  Cu+  Cu114  1  0.24925530  0.92646260  0.92353330  1
  Cu+  Cu115  1  0.26273009  0.40529619  0.06989400  1
  Cu+  Cu116  1  0.59225847  0.06912601  0.07920692  1
  Cu+  Cu117  1  0.93108286  0.26533787  0.92498065  1
  Cu+  Cu118  1  0.40304573  0.07122549  0.26638919  1
  Cu+  Cu119  1  0.59921859  0.26770591  0.59237980  1
  Cu+  Cu120  1  0.74152522  0.07476822  0.26082425  1
  Cu+  Cu121  1  0.92980038  0.07324450  0.07085173  1
  Cu+  Cu122  1  0.73581035  0.59807069  0.07277021  1
  Cu+  Cu123  1  0.40407860  0.08444662  0.92519441  1
  Cu+  Cu124  1  0.59245779  0.07238920  0.74055034  1
  Cu+  Cu125  1  0.40623140  0.74111860  0.59679928  1
  Cu+  Cu126  1  0.73467612  0.26147065  0.06985926  1
  Cu+  Cu127  1  0.40221067  0.40203154  0.59459568  1
  Cu+  Cu128  1  0.25837882  0.73503823  0.40127416  1
  Cu+  Cu129  1  0.92109634  0.73378170  0.73990128  1
  Cu+  Cu130  1  0.26325621  0.26650965  0.26662000  1
  Cu+  Cu131  1  0.59392789  0.91201866  0.59448906  1
  Cu+  Cu132  1  0.92627665  0.40661613  0.40706423  1
  Te2-  Te133  1  0.25690606  0.25080449  0.08082153  1
  Te2-  Te134  1  0.25798644  0.25572475  0.41725999  1
  Te2-  Te135  1  0.25191072  0.25135763  0.74827037  1
  Te2-  Te136  1  0.25452479  0.58700868  0.08063167  1
  Te2-  Te137  1  0.25349751  0.58182888  0.41178978  1
  Te2-  Te138  1  0.25231714  0.58467839  0.74729309  1
  Te2-  Te139  1  0.25087633  0.92161866  0.07839445  1
  Te2-  Te140  1  0.25447925  0.91933052  0.41477279  1
  Te2-  Te141  1  0.24564687  0.91770739  0.74126514  1
  Te2-  Te142  1  0.58248011  0.25471877  0.07993984  1
  Te2-  Te143  1  0.58373860  0.25049775  0.41633015  1
  Te2-  Te144  1  0.59504875  0.25776062  0.75085402  1
  Te2-  Te145  1  0.58402493  0.58867282  0.07785756  1
  Te2-  Te146  1  0.58250046  0.58834191  0.41662005  1
  Te2-  Te147  1  0.58332651  0.58520247  0.74576803  1
  Te2-  Te148  1  0.58800041  0.91945161  0.08077888  1
  Te2-  Te149  1  0.58611103  0.91719160  0.40998411  1
  Te2-  Te150  1  0.58594043  0.91989368  0.74769266  1
  Te2-  Te151  1  0.92262823  0.25592864  0.07856713  1
  Te2-  Te152  1  0.91867531  0.25243773  0.40924376  1
  Te2-  Te153  1  0.91683814  0.25139277  0.74632309  1
  Te2-  Te154  1  0.92606303  0.58188376  0.08137294  1
  Te2-  Te155  1  0.91707745  0.59000339  0.41329206  1
  Te2-  Te156  1  0.92052019  0.58261937  0.74865837  1
  Te2-  Te157  1  0.92207790  0.92127695  0.08190075  1
  Te2-  Te158  1  0.92060499  0.91909191  0.41784993  1
  Te2-  Te159  1  0.91745262  0.92183122  0.75143249  1
  Te2-  Te160  1  0.25031120  0.07603075  0.25622189  1
  Te2-  Te161  1  0.25162451  0.08137534  0.58644514  1
  Te2-  Te162  1  0.25204639  0.08019553  0.92071846  1
  Te2-  Te163  1  0.25900235  0.41745629  0.25859262  1
  Te2-  Te164  1  0.24946937  0.41315011  0.58697192  1
  Te2-  Te165  1  0.25602045  0.41077194  0.91746874  1
  Te2-  Te166  1  0.25588655  0.74616149  0.24849124  1
  Te2-  Te167  1  0.25240023  0.74411560  0.58898503  1
  Te2-  Te168  1  0.25056077  0.74604789  0.91579624  1
  Te2-  Te169  1  0.58639299  0.07988364  0.25384036  1
  Te2-  Te170  1  0.59086537  0.07270108  0.58796357  1
  Te2-  Te171  1  0.59037854  0.07481936  0.92301853  1
  Te2-  Te172  1  0.58784949  0.41722436  0.25154636  1
  Te2-  Te173  1  0.58981422  0.41803747  0.58810550  1
  Te2-  Te174  1  0.58590273  0.41501575  0.91825263  1
  Te2-  Te175  1  0.58642892  0.74787574  0.25166803  1
  Te2-  Te176  1  0.58511492  0.74789849  0.58467569  1
  Te2-  Te177  1  0.57913064  0.75228623  0.91857048  1
  Te2-  Te178  1  0.92047754  0.08477461  0.25259968  1
  Te2-  Te179  1  0.91945880  0.08466753  0.58223976  1
  Te2-  Te180  1  0.92087939  0.07878823  0.91915736  1
  Te2-  Te181  1  0.91862498  0.40787986  0.25058590  1
  Te2-  Te182  1  0.91812875  0.41577359  0.58570596  1
  Te2-  Te183  1  0.92048857  0.41760974  0.92436432  1
  Te2-  Te184  1  0.91683576  0.74715607  0.25248166  1
  Te2-  Te185  1  0.91887055  0.74423564  0.58759082  1
  Te2-  Te186  1  0.92174987  0.74429974  0.92313358  1
  Te2-  Te187  1  0.07854243  0.25041784  0.25134480  1
  Te2-  Te188  1  0.08045752  0.25217263  0.58567380  1
  Te2-  Te189  1  0.08335173  0.25532175  0.92202185  1
  Te2-  Te190  1  0.08202353  0.58973638  0.25247794  1
  Te2-  Te191  1  0.07911307  0.58236123  0.58318191  1
  Te2-  Te192  1  0.08377796  0.58319668  0.92222773  1
  Te2-  Te193  1  0.08195986  0.91484997  0.25331614  1
  Te2-  Te194  1  0.08267083  0.92360248  0.58373734  1
  Te2-  Te195  1  0.07612694  0.91600131  0.91490199  1
  Te2-  Te196  1  0.41811682  0.25690578  0.25691769  1
  Te2-  Te197  1  0.41328680  0.24873262  0.59025150  1
  Te2-  Te198  1  0.41832404  0.25122465  0.92093880  1
  Te2-  Te199  1  0.41426247  0.58394312  0.24963922  1
  Te2-  Te200  1  0.41074112  0.58696346  0.58896977  1
  Te2-  Te201  1  0.41402331  0.58629434  0.91727803  1
  Te2-  Te202  1  0.41200143  0.91942368  0.25620213  1
  Te2-  Te203  1  0.40806772  0.91635845  0.58106772  1
  Te2-  Te204  1  0.40817130  0.92642551  0.91924937  1
  Te2-  Te205  1  0.74425404  0.25304476  0.24960361  1
  Te2-  Te206  1  0.75084492  0.26042741  0.58601668  1
  Te2-  Te207  1  0.74341196  0.25523567  0.91737423  1
  Te2-  Te208  1  0.75160759  0.58463481  0.25249711  1
  Te2-  Te209  1  0.74623193  0.58712179  0.58788310  1
  Te2-  Te210  1  0.74477969  0.58900735  0.91835143  1
  Te2-  Te211  1  0.74876528  0.92136299  0.25444217  1
  Te2-  Te212  1  0.74799271  0.91798119  0.59062457  1
  Te2-  Te213  1  0.74614012  0.91527133  0.92605313  1
  Te2-  Te214  1  0.08419007  0.07869834  0.08024187  1
  Te2-  Te215  1  0.08360392  0.08373658  0.41178140  1
  Te2-  Te216  1  0.07846545  0.08317282  0.75010235  1
  Te2-  Te217  1  0.08415502  0.41280719  0.08302362  1
  Te2-  Te218  1  0.07965662  0.40983956  0.41255625  1
  Te2-  Te219  1  0.08057382  0.41407016  0.74770476  1
  Te2-  Te220  1  0.08390445  0.74583487  0.07792346  1
  Te2-  Te221  1  0.08003933  0.74877220  0.41382420  1
  Te2-  Te222  1  0.07742616  0.73918413  0.74384289  1
  Te2-  Te223  1  0.40544336  0.08268900  0.08082213  1
  Te2-  Te224  1  0.41536999  0.07591724  0.41982594  1
  Te2-  Te225  1  0.41785647  0.08810734  0.74226788  1
  Te2-  Te226  1  0.41725358  0.41178090  0.07735379  1
  Te2-  Te227  1  0.41702819  0.41369499  0.41529570  1
  Te2-  Te228  1  0.41158396  0.40973944  0.74866984  1
  Te2-  Te229  1  0.41546573  0.74750916  0.08123106  1
  Te2-  Te230  1  0.41411717  0.74276204  0.40558008  1
  Te2-  Te231  1  0.41010386  0.74966822  0.74987691  1
  Te2-  Te232  1  0.74581804  0.07549225  0.07708999  1
  Te2-  Te233  1  0.74476808  0.08202172  0.41330212  1
  Te2-  Te234  1  0.74891355  0.07605207  0.74523018  1
  Te2-  Te235  1  0.74483190  0.41459083  0.07837319  1
  Te2-  Te236  1  0.74387377  0.41762221  0.41274127  1
  Te2-  Te237  1  0.75008058  0.41488455  0.75033901  1
  Te2-  Te238  1  0.74346350  0.75062135  0.08156498  1
  Te2-  Te239  1  0.74873913  0.74962202  0.41526648  1
  Te2-  Te240  1  0.74545173  0.74774061  0.75162457  1
