# generated using pymatgen
data_Ti27(Cu53Te54)2
_symmetry_space_group_name_H-M   'P 1'
_cell_length_a   17.87193910
_cell_length_b   17.87108647
_cell_length_c   17.87250027
_cell_angle_alpha   89.99407616
_cell_angle_beta   89.99757732
_cell_angle_gamma   89.95251723
_symmetry_Int_Tables_number   1
_chemical_formula_structural   Ti27(Cu53Te54)2
_chemical_formula_sum   'Ti27 Cu106 Te108'
_cell_volume   5708.31318368
_cell_formula_units_Z   1
loop_
 _symmetry_equiv_pos_site_id
 _symmetry_equiv_pos_as_xyz
  1  'x, y, z'
loop_
 _atom_type_symbol
 _atom_type_oxidation_number
  Ti4+  4.0
  Cu+  1.0
  Te2-  -2.0
loop_
 _atom_site_type_symbol
 _atom_site_label
 _atom_site_symmetry_multiplicity
 _atom_site_fract_x
 _atom_site_fract_y
 _atom_site_fract_z
 _atom_site_occupancy
  Ti4+  Ti0  1  0.16536226  0.16684814  0.16521716  1
  Ti4+  Ti1  1  0.16534608  0.16563718  0.50248572  1
  Ti4+  Ti2  1  0.16559168  0.17126560  0.83570101  1
  Ti4+  Ti3  1  0.16876435  0.49899901  0.16597560  1
  Ti4+  Ti4  1  0.16540538  0.49416001  0.49811811  1
  Ti4+  Ti5  1  0.17142633  0.49883158  0.83025994  1
  Ti4+  Ti6  1  0.16923042  0.83351361  0.16500579  1
  Ti4+  Ti7  1  0.16565624  0.83637592  0.50114375  1
  Ti4+  Ti8  1  0.16565755  0.83632753  0.83379544  1
  Ti4+  Ti9  1  0.49749189  0.16409704  0.16826212  1
  Ti4+  Ti10  1  0.50180842  0.16862934  0.49850074  1
  Ti4+  Ti11  1  0.50174810  0.16748038  0.83514403  1
  Ti4+  Ti12  1  0.50199979  0.50013821  0.17033160  1
  Ti4+  Ti13  1  0.49692419  0.49884534  0.50187387  1
  Ti4+  Ti14  1  0.50028898  0.49727461  0.83315100  1
  Ti4+  Ti15  1  0.50015543  0.83476215  0.16990132  1
  Ti4+  Ti16  1  0.49669445  0.83292259  0.50073220  1
  Ti4+  Ti17  1  0.50051073  0.83243779  0.83529979  1
  Ti4+  Ti18  1  0.82991705  0.16349525  0.16593504  1
  Ti4+  Ti19  1  0.83104992  0.16539933  0.49897755  1
  Ti4+  Ti20  1  0.83166121  0.16640036  0.82954283  1
  Ti4+  Ti21  1  0.83573230  0.50211342  0.16341031  1
  Ti4+  Ti22  1  0.83608228  0.50084887  0.49824142  1
  Ti4+  Ti23  1  0.83559772  0.50073100  0.83200056  1
  Ti4+  Ti24  1  0.83469051  0.83277432  0.16671412  1
  Ti4+  Ti25  1  0.83032763  0.83297193  0.49931954  1
  Ti4+  Ti26  1  0.83337567  0.83407931  0.83308482  1
  Cu+  Cu27  1  0.16943380  0.17195215  -0.00078214  1
  Cu+  Cu28  1  0.16289081  0.16658379  0.33690291  1
  Cu+  Cu29  1  0.16525243  0.16636273  0.66908460  1
  Cu+  Cu30  1  0.16900637  0.49953959  -0.00155956  1
  Cu+  Cu31  1  0.16278267  0.49443549  0.33018465  1
  Cu+  Cu32  1  0.17393733  0.49380651  0.66313615  1
  Cu+  Cu33  1  0.16333080  0.83690676  -0.00010285  1
  Cu+  Cu34  1  0.17116847  0.83433228  0.33098883  1
  Cu+  Cu35  1  0.16843338  0.83822142  0.66802662  1
  Cu+  Cu36  1  0.50085778  0.16429900  0.00357356  1
  Cu+  Cu37  1  0.50323540  0.16953469  0.33047185  1
  Cu+  Cu38  1  0.50309679  0.16866453  0.66693666  1
  Cu+  Cu39  1  0.50206286  0.50083903  -0.00026052  1
  Cu+  Cu40  1  0.49678447  0.49354083  0.33694889  1
  Cu+  Cu41  1  0.49467481  0.50302784  0.67014429  1
  Cu+  Cu42  1  0.50240888  0.83277744  0.00183785  1
  Cu+  Cu43  1  0.49451155  0.83055581  0.33524095  1
  Cu+  Cu44  1  0.49957354  0.83293356  0.66684933  1
  Cu+  Cu45  1  0.82913890  0.16469827  -0.00316129  1
  Cu+  Cu46  1  0.82910599  0.15962608  0.33234089  1
  Cu+  Cu47  1  0.83136594  0.16628940  0.66541862  1
  Cu+  Cu48  1  0.83550015  0.50286549  -0.00081413  1
  Cu+  Cu49  1  0.83779156  0.50403249  0.32798755  1
  Cu+  Cu50  1  0.83499164  0.50125249  0.66682393  1
  Cu+  Cu51  1  0.83504965  0.83411284  -0.00079830  1
  Cu+  Cu52  1  0.83382783  0.82806035  0.33635289  1
  Cu+  Cu53  1  0.83273923  0.83631007  0.66561395  1
  Cu+  Cu54  1  0.16656017  -0.00058013  0.16441547  1
  Cu+  Cu55  1  0.17027047  0.00064795  0.50622848  1
  Cu+  Cu56  1  0.16431777  0.00506799  0.83417227  1
  Cu+  Cu57  1  0.16410991  0.33429480  0.16860950  1
  Cu+  Cu58  1  0.15709976  0.32851742  0.49947391  1
  Cu+  Cu59  1  0.17226951  0.33530612  0.83756791  1
  Cu+  Cu60  1  0.17163586  0.66598848  0.16160966  1
  Cu+  Cu61  1  0.16569856  0.66506329  0.49680640  1
  Cu+  Cu62  1  0.16712190  0.67098189  0.83060463  1
  Cu+  Cu63  1  0.49498555  -0.00280955  0.16221664  1
  Cu+  Cu64  1  0.49783557  0.00189688  0.49684475  1
  Cu+  Cu65  1  0.50088551  0.00061755  0.83295796  1
  Cu+  Cu66  1  0.49896581  0.33068783  0.17326203  1
  Cu+  Cu67  1  0.50551443  0.33421193  0.50085778  1
  Cu+  Cu68  1  0.50242165  0.33283713  0.83570274  1
  Cu+  Cu69  1  0.50283787  0.66988766  0.16895687  1
  Cu+  Cu70  1  0.49630257  0.66697086  0.50049071  1
  Cu+  Cu71  1  0.49896680  0.66513992  0.83507212  1
  Cu+  Cu72  1  0.82955081  -0.00078186  0.16928533  1
  Cu+  Cu73  1  0.83188719  -0.00297491  0.50198505  1
  Cu+  Cu74  1  0.82875781  0.00154787  0.83275250  1
  Cu+  Cu75  1  0.82843807  0.33533671  0.16296404  1
  Cu+  Cu76  1  0.83491960  0.33213016  0.49749819  1
  Cu+  Cu77  1  0.83629532  0.33252100  0.83199023  1
  Cu+  Cu78  1  0.83918858  0.66535819  0.16646942  1
  Cu+  Cu79  1  0.83442684  0.66789362  0.49437732  1
  Cu+  Cu80  1  0.83580099  0.66732110  0.83187573  1
  Cu+  Cu81  1  -0.00324157  0.16430215  0.16297724  1
  Cu+  Cu82  1  -0.00059833  0.16545139  0.49738717  1
  Cu+  Cu83  1  -0.00430820  0.17381160  0.83460413  1
  Cu+  Cu84  1  0.00117659  0.50287510  0.16741179  1
  Cu+  Cu85  1  0.00227031  0.49482473  0.50149988  1
  Cu+  Cu86  1  0.00312397  0.49937137  0.83224952  1
  Cu+  Cu87  1  0.00433276  0.83492133  0.16256595  1
  Cu+  Cu88  1  -0.00357493  0.83549940  0.50075697  1
  Cu+  Cu89  1  -0.00012565  0.83472230  0.83270894  1
  Cu+  Cu90  1  0.33069748  0.16530793  0.16549347  1
  Cu+  Cu91  1  0.33471638  0.16668790  0.49988150  1
  Cu+  Cu92  1  0.33554160  0.17099546  0.83670083  1
  Cu+  Cu93  1  0.33630949  0.49819586  0.16895870  1
  Cu+  Cu94  1  0.32835070  0.50142568  0.50228342  1
  Cu+  Cu95  1  0.33669856  0.49772782  0.82248132  1
  Cu+  Cu96  1  0.33515872  0.83825749  0.17248614  1
  Cu+  Cu97  1  0.33166565  0.83768069  0.50278763  1
  Cu+  Cu98  1  0.33093491  0.83340594  0.83563583  1
  Cu+  Cu99  1  0.66581327  0.16036609  0.17094513  1
  Cu+  Cu100  1  0.66450632  0.17002415  0.50261392  1
  Cu+  Cu101  1  0.66894173  0.16113940  0.83360164  1
  Cu+  Cu102  1  0.67148567  0.50050615  0.16698849  1
  Cu+  Cu103  1  0.66665520  0.50077571  0.49889563  1
  Cu+  Cu104  1  0.66782673  0.49859545  0.83455256  1
  Cu+  Cu105  1  0.66591500  0.82950983  0.16563812  1
  Cu+  Cu106  1  0.66337511  0.83203731  0.49973999  1
  Cu+  Cu107  1  0.66673624  0.83273611  0.83328667  1
  Cu+  Cu108  1  0.91824138  0.25853431  0.92942972  1
  Cu+  Cu109  1  0.40395548  0.40225347  0.26139670  1
  Cu+  Cu110  1  0.59472589  0.74035056  0.07325041  1
  Cu+  Cu111  1  0.26741522  0.26186027  0.93049018  1
  Cu+  Cu112  1  0.40937956  0.59958900  0.74400316  1
  Cu+  Cu113  1  0.26482594  0.40067279  0.73477816  1
  Cu+  Cu114  1  0.93233539  0.59608382  0.25695701  1
  Cu+  Cu115  1  0.59622080  0.25718859  0.25351084  1
  Cu+  Cu116  1  0.06984761  0.40535080  0.25508096  1
  Cu+  Cu117  1  0.25883684  0.93215104  0.26080777  1
  Cu+  Cu118  1  0.40675190  0.73801825  0.26156673  1
  Cu+  Cu119  1  0.93024085  0.74257704  0.41081675  1
  Cu+  Cu120  1  0.40750479  0.92278250  0.06876326  1
  Cu+  Cu121  1  0.92379184  0.92758405  0.59563066  1
  Cu+  Cu122  1  0.07097088  0.40343472  0.59666733  1
  Cu+  Cu123  1  0.06814481  0.25372887  0.40534794  1
  Cu+  Cu124  1  0.59339404  0.26289962  0.59943110  1
  Cu+  Cu125  1  0.07541345  0.41330415  0.92694741  1
  Cu+  Cu126  1  0.59548072  0.40982368  0.41204450  1
  Cu+  Cu127  1  0.26434767  0.93037488  0.59988477  1
  Cu+  Cu128  1  0.25163384  0.59589827  0.58937684  1
  Cu+  Cu129  1  0.73853267  0.07000981  0.92586256  1
  Cu+  Cu130  1  0.74669393  0.41177646  0.25867674  1
  Cu+  Cu131  1  0.73647220  0.06522861  0.26554101  1
  Cu+  Cu132  1  0.07070034  0.92959684  0.07212545  1
  Te2-  Te133  1  0.25273821  0.25648291  0.08386451  1
  Te2-  Te134  1  0.25075598  0.25172435  0.41688094  1
  Te2-  Te135  1  0.25422982  0.25139013  0.74580817  1
  Te2-  Te136  1  0.25661405  0.58176055  0.07991389  1
  Te2-  Te137  1  0.24811667  0.58107731  0.41013184  1
  Te2-  Te138  1  0.25374765  0.59141098  0.74326295  1
  Te2-  Te139  1  0.25550169  0.92045904  0.07778363  1
  Te2-  Te140  1  0.25276018  0.92237753  0.41478135  1
  Te2-  Te141  1  0.25372250  0.92455146  0.75123655  1
  Te2-  Te142  1  0.58530947  0.25053077  0.08546466  1
  Te2-  Te143  1  0.59144339  0.25532130  0.40934677  1
  Te2-  Te144  1  0.59047587  0.25275631  0.75124020  1
  Te2-  Te145  1  0.58711001  0.58554702  0.08272205  1
  Te2-  Te146  1  0.58099414  0.58481517  0.41525699  1
  Te2-  Te147  1  0.58649604  0.58429508  0.74907205  1
  Te2-  Te148  1  0.58810380  0.91959972  0.08220788  1
  Te2-  Te149  1  0.58190237  0.91679690  0.41399405  1
  Te2-  Te150  1  0.58452496  0.91757179  0.74850598  1
  Te2-  Te151  1  0.91515344  0.25183310  0.08117637  1
  Te2-  Te152  1  0.91545777  0.24950126  0.40958810  1
  Te2-  Te153  1  0.91733713  0.25293780  0.74221497  1
  Te2-  Te154  1  0.92358264  0.58701574  0.07738308  1
  Te2-  Te155  1  0.92656885  0.58574220  0.41268406  1
  Te2-  Te156  1  0.92219437  0.58528683  0.74760640  1
  Te2-  Te157  1  0.91723965  0.92167800  0.08120396  1
  Te2-  Te158  1  0.91682692  0.92023506  0.41192430  1
  Te2-  Te159  1  0.91881274  0.92284248  0.74891409  1
  Te2-  Te160  1  0.24958493  0.08352864  0.25407781  1
  Te2-  Te161  1  0.25564844  0.08408788  0.59036464  1
  Te2-  Te162  1  0.25210231  0.08376108  0.91830663  1
  Te2-  Te163  1  0.25362551  0.41161448  0.25377094  1
  Te2-  Te164  1  0.25446184  0.40306657  0.58036302  1
  Te2-  Te165  1  0.26111812  0.41726216  0.92037361  1
  Te2-  Te166  1  0.25380831  0.74362103  0.25197217  1
  Te2-  Te167  1  0.25081780  0.74852935  0.58583163  1
  Te2-  Te168  1  0.24927442  0.74960622  0.92046445  1
  Te2-  Te169  1  0.58194575  0.07267783  0.25322261  1
  Te2-  Te170  1  0.58411202  0.07982767  0.58398657  1
  Te2-  Te171  1  0.58513293  0.07894318  0.92181070  1
  Te2-  Te172  1  0.59202158  0.41255569  0.25617342  1
  Te2-  Te173  1  0.58663222  0.41845206  0.59103398  1
  Te2-  Te174  1  0.58722687  0.41423097  0.92053496  1
  Te2-  Te175  1  0.58677978  0.74899145  0.25759433  1
  Te2-  Te176  1  0.58283699  0.74673177  0.58524025  1
  Te2-  Te177  1  0.58669852  0.74467357  0.91953911  1
  Te2-  Te178  1  0.91877598  0.07971875  0.25066134  1
  Te2-  Te179  1  0.91882541  0.08196283  0.58535299  1
  Te2-  Te180  1  0.91880573  0.08097728  0.91697292  1
  Te2-  Te181  1  0.91929197  0.40988699  0.25019960  1
  Te2-  Te182  1  0.91718497  0.41217853  0.58644701  1
  Te2-  Te183  1  0.92171018  0.41360432  0.92165661  1
  Te2-  Te184  1  0.92587244  0.74899626  0.25228690  1
  Te2-  Te185  1  0.91721385  0.74641403  0.58583670  1
  Te2-  Te186  1  0.91980220  0.74880452  0.91808810  1
  Te2-  Te187  1  0.07521958  0.25065107  0.25143035  1
  Te2-  Te188  1  0.07515673  0.24904155  0.59092885  1
  Te2-  Te189  1  0.07711458  0.25812451  0.92304983  1
  Te2-  Te190  1  0.08586419  0.59003682  0.25173026  1
  Te2-  Te191  1  0.08361467  0.58220275  0.58659386  1
  Te2-  Te192  1  0.08599407  0.58560028  0.91526507  1
  Te2-  Te193  1  0.08228349  0.91864682  0.25213268  1
  Te2-  Te194  1  0.07831601  0.92104056  0.58744878  1
  Te2-  Te195  1  0.07808594  0.92362617  0.91827966  1
  Te2-  Te196  1  0.40785845  0.24940272  0.25498701  1
  Te2-  Te197  1  0.41636768  0.25347332  0.58446899  1
  Te2-  Te198  1  0.41872420  0.25439917  0.92454886  1
  Te2-  Te199  1  0.41577969  0.58603102  0.25544653  1
  Te2-  Te200  1  0.40954504  0.58897049  0.58717845  1
  Te2-  Te201  1  0.41177204  0.58151214  0.91813914  1
  Te2-  Te202  1  0.41455976  0.92516240  0.25910948  1
  Te2-  Te203  1  0.41555119  0.92277694  0.58825513  1
  Te2-  Te204  1  0.41429933  0.92000888  0.91854646  1
  Te2-  Te205  1  0.74780836  0.25398693  0.25481396  1
  Te2-  Te206  1  0.74841400  0.25546018  0.58574525  1
  Te2-  Te207  1  0.74605547  0.25428156  0.91620280  1
  Te2-  Te208  1  0.74880806  0.58949131  0.25093502  1
  Te2-  Te209  1  0.75071231  0.58549683  0.58187675  1
  Te2-  Te210  1  0.75000187  0.58612468  0.91648198  1
  Te2-  Te211  1  0.74596477  0.91322517  0.25445137  1
  Te2-  Te212  1  0.74266758  0.91792006  0.58520037  1
  Te2-  Te213  1  0.74560356  0.91769479  0.92112554  1
  Te2-  Te214  1  0.08142762  0.08290534  0.07680725  1
  Te2-  Te215  1  0.08216168  0.07622392  0.41757255  1
  Te2-  Te216  1  0.07780700  0.08643176  0.75181100  1
  Te2-  Te217  1  0.07969451  0.41504986  0.08046148  1
  Te2-  Te218  1  0.07438199  0.40911178  0.40877499  1
  Te2-  Te219  1  0.08313633  0.41172451  0.74633904  1
  Te2-  Te220  1  0.08349353  0.74595120  0.07992478  1
  Te2-  Te221  1  0.08315315  0.74951966  0.41329111  1
  Te2-  Te222  1  0.08151521  0.75135626  0.74608488  1
  Te2-  Te223  1  0.41006677  0.08097236  0.07881389  1
  Te2-  Te224  1  0.41567328  0.08507722  0.41150122  1
  Te2-  Te225  1  0.41556488  0.08512675  0.74920882  1
  Te2-  Te226  1  0.41966576  0.41393240  0.08318946  1
  Te2-  Te227  1  0.40828159  0.41072465  0.41880198  1
  Te2-  Te228  1  0.41769888  0.40514785  0.74372134  1
  Te2-  Te229  1  0.41221301  0.74902799  0.08367355  1
  Te2-  Te230  1  0.40736154  0.74601376  0.41720524  1
  Te2-  Te231  1  0.41255550  0.75009477  0.74843191  1
  Te2-  Te232  1  0.74393396  0.07800038  0.07944669  1
  Te2-  Te233  1  0.74234154  0.07753874  0.41781308  1
  Te2-  Te234  1  0.74611753  0.07941429  0.74248807  1
  Te2-  Te235  1  0.74773036  0.41760423  0.07593574  1
  Te2-  Te236  1  0.75032882  0.41393249  0.41131904  1
  Te2-  Te237  1  0.75013032  0.41494892  0.74823941  1
  Te2-  Te238  1  0.75159288  0.74548386  0.08035692  1
  Te2-  Te239  1  0.74272785  0.74653757  0.41403448  1
  Te2-  Te240  1  0.74928096  0.74858506  0.74700037  1
