# generated using pymatgen
data_Ti27(Cu53Te54)2
_symmetry_space_group_name_H-M   'P 1'
_cell_length_a   17.89304331
_cell_length_b   17.89998181
_cell_length_c   17.90188072
_cell_angle_alpha   90.06219760
_cell_angle_beta   90.02118826
_cell_angle_gamma   90.01081362
_symmetry_Int_Tables_number   1
_chemical_formula_structural   Ti27(Cu53Te54)2
_chemical_formula_sum   'Ti27 Cu106 Te108'
_cell_volume   5733.70267340
_cell_formula_units_Z   1
loop_
 _symmetry_equiv_pos_site_id
 _symmetry_equiv_pos_as_xyz
  1  'x, y, z'
loop_
 _atom_type_symbol
 _atom_type_oxidation_number
  Ti4+  4.0
  Cu+  1.0
  Te2-  -2.0
loop_
 _atom_site_type_symbol
 _atom_site_label
 _atom_site_symmetry_multiplicity
 _atom_site_fract_x
 _atom_site_fract_y
 _atom_site_fract_z
 _atom_site_occupancy
  Ti4+  Ti0  1  0.16562714  0.16771524  0.16707246  1
  Ti4+  Ti1  1  0.16521851  0.16477316  0.50126080  1
  Ti4+  Ti2  1  0.17225079  0.15987795  0.83464076  1
  Ti4+  Ti3  1  0.16706387  0.50059015  0.16975621  1
  Ti4+  Ti4  1  0.16754273  0.49859550  0.50243196  1
  Ti4+  Ti5  1  0.16509719  0.50051899  0.83288564  1
  Ti4+  Ti6  1  0.16458817  0.83230448  0.16638663  1
  Ti4+  Ti7  1  0.16624889  0.83469504  0.50193793  1
  Ti4+  Ti8  1  0.16635563  0.83009726  0.82900403  1
  Ti4+  Ti9  1  0.49813274  0.16691046  0.16713804  1
  Ti4+  Ti10  1  0.49861135  0.17017536  0.50067963  1
  Ti4+  Ti11  1  0.49591294  0.16791482  0.83269698  1
  Ti4+  Ti12  1  0.49770654  0.49935025  0.16509684  1
  Ti4+  Ti13  1  0.49807830  0.50305749  0.50069624  1
  Ti4+  Ti14  1  0.50503883  0.49737210  0.83544984  1
  Ti4+  Ti15  1  0.49967907  0.83361994  0.16499334  1
  Ti4+  Ti16  1  0.50033834  0.83415577  0.49457497  1
  Ti4+  Ti17  1  0.50072363  0.83316124  0.83175597  1
  Ti4+  Ti18  1  0.83325289  0.16694305  0.16614498  1
  Ti4+  Ti19  1  0.83713975  0.16983869  0.49964929  1
  Ti4+  Ti20  1  0.83318246  0.16544553  0.83289742  1
  Ti4+  Ti21  1  0.83298494  0.49966524  0.16523131  1
  Ti4+  Ti22  1  0.83338947  0.49994449  0.50145597  1
  Ti4+  Ti23  1  0.83616309  0.50130767  0.83294799  1
  Ti4+  Ti24  1  0.83311736  0.83309679  0.16726542  1
  Ti4+  Ti25  1  0.83277687  0.83506447  0.49991168  1
  Ti4+  Ti26  1  0.83245784  0.83593740  0.83345826  1
  Cu+  Cu27  1  0.17209318  0.15939821  0.00497941  1
  Cu+  Cu28  1  0.16462464  0.16890777  0.33198466  1
  Cu+  Cu29  1  0.17296048  0.15825132  0.66849396  1
  Cu+  Cu30  1  0.16603368  0.50407822  0.00411858  1
  Cu+  Cu31  1  0.17039968  0.50214988  0.33343802  1
  Cu+  Cu32  1  0.16223838  0.49730043  0.66751528  1
  Cu+  Cu33  1  0.16563254  0.82952841  -0.00417701  1
  Cu+  Cu34  1  0.16657266  0.83611276  0.33497604  1
  Cu+  Cu35  1  0.16172120  0.82843942  0.66369018  1
  Cu+  Cu36  1  0.49167289  0.17188419  0.00146120  1
  Cu+  Cu37  1  0.50002187  0.16873637  0.33772506  1
  Cu+  Cu38  1  0.50098968  0.16997730  0.66522570  1
  Cu+  Cu39  1  0.50417944  0.49155598  0.00100371  1
  Cu+  Cu40  1  0.49525869  0.50065779  0.33165773  1
  Cu+  Cu41  1  0.50018176  0.50455247  0.67121772  1
  Cu+  Cu42  1  0.50179327  0.83132262  0.00037367  1
  Cu+  Cu43  1  0.50456736  0.83814379  0.32665342  1
  Cu+  Cu44  1  0.50084483  0.83244501  0.66165923  1
  Cu+  Cu45  1  0.83317993  0.16460802  0.00050881  1
  Cu+  Cu46  1  0.83559975  0.16854837  0.33110019  1
  Cu+  Cu47  1  0.83429392  0.16935101  0.66709575  1
  Cu+  Cu48  1  0.83439668  0.49884009  -0.00412128  1
  Cu+  Cu49  1  0.83300442  0.49997863  0.33277082  1
  Cu+  Cu50  1  0.83334382  0.50306902  0.66755189  1
  Cu+  Cu51  1  0.83127357  0.83455537  0.00061281  1
  Cu+  Cu52  1  0.83419005  0.83215918  0.33309078  1
  Cu+  Cu53  1  0.83104875  0.83871805  0.66838187  1
  Cu+  Cu54  1  0.16617054  0.00161317  0.16865616  1
  Cu+  Cu55  1  0.15823898  -0.00182892  0.49990078  1
  Cu+  Cu56  1  0.17711319  -0.00612000  0.82931692  1
  Cu+  Cu57  1  0.16670034  0.33615254  0.16969734  1
  Cu+  Cu58  1  0.16332943  0.33230214  0.50613079  1
  Cu+  Cu59  1  0.16929024  0.32855873  0.83556968  1
  Cu+  Cu60  1  0.16305469  0.66380277  0.16575327  1
  Cu+  Cu61  1  0.16971657  0.67162841  0.50030003  1
  Cu+  Cu62  1  0.16193814  0.66441560  0.82696475  1
  Cu+  Cu63  1  0.50352236  -0.00376360  0.17008387  1
  Cu+  Cu64  1  0.49978804  0.00420960  0.49715417  1
  Cu+  Cu65  1  0.49814683  0.00039366  0.83252771  1
  Cu+  Cu66  1  0.49519527  0.33291816  0.16436438  1
  Cu+  Cu67  1  0.49950917  0.33548758  0.50185931  1
  Cu+  Cu68  1  0.49705448  0.33420829  0.83900768  1
  Cu+  Cu69  1  0.49985494  0.66890580  0.16331242  1
  Cu+  Cu70  1  0.49339035  0.67001971  0.49675049  1
  Cu+  Cu71  1  0.50509948  0.66314866  0.83077163  1
  Cu+  Cu72  1  0.83337750  0.00084695  0.16614110  1
  Cu+  Cu73  1  0.83556513  0.00329825  0.50029803  1
  Cu+  Cu74  1  0.82775309  0.00047397  0.83098762  1
  Cu+  Cu75  1  0.83478706  0.32987414  0.16592890  1
  Cu+  Cu76  1  0.83743046  0.33621495  0.49718728  1
  Cu+  Cu77  1  0.83671987  0.33231620  0.83371532  1
  Cu+  Cu78  1  0.83127578  0.66714187  0.16671999  1
  Cu+  Cu79  1  0.83384999  0.66624080  0.50024666  1
  Cu+  Cu80  1  0.83615927  0.67071753  0.83333221  1
  Cu+  Cu81  1  -0.00184619  0.16758769  0.16675247  1
  Cu+  Cu82  1  0.00525513  0.16810211  0.50058307  1
  Cu+  Cu83  1  0.00039473  0.16289477  0.83564430  1
  Cu+  Cu84  1  0.00198220  0.50395895  0.16676482  1
  Cu+  Cu85  1  -0.00333174  0.49316497  0.50053628  1
  Cu+  Cu86  1  0.00048983  0.50258633  0.82933211  1
  Cu+  Cu87  1  -0.00266699  0.83172923  0.16694921  1
  Cu+  Cu88  1  -0.00161806  0.83683378  0.50086962  1
  Cu+  Cu89  1  -0.00276056  0.83502025  0.83248650  1
  Cu+  Cu90  1  0.33086234  0.16998181  0.16352129  1
  Cu+  Cu91  1  0.32946862  0.17110382  0.50330749  1
  Cu+  Cu92  1  0.33559073  0.15483798  0.83201379  1
  Cu+  Cu93  1  0.33208767  0.49685097  0.17299351  1
  Cu+  Cu94  1  0.33880325  0.50251296  0.50284458  1
  Cu+  Cu95  1  0.33254239  0.50165333  0.83509108  1
  Cu+  Cu96  1  0.33501335  0.83072848  0.16609966  1
  Cu+  Cu97  1  0.33326195  0.82956855  0.49770258  1
  Cu+  Cu98  1  0.32995820  0.83105575  0.83319411  1
  Cu+  Cu99  1  0.66969034  0.16627828  0.16829653  1
  Cu+  Cu100  1  0.66748214  0.17060875  0.49980966  1
  Cu+  Cu101  1  0.66170435  0.16887525  0.83267581  1
  Cu+  Cu102  1  0.66401120  0.49896559  0.16341879  1
  Cu+  Cu103  1  0.66544198  0.50329949  0.49963787  1
  Cu+  Cu104  1  0.67436771  0.49538999  0.83918483  1
  Cu+  Cu105  1  0.66607942  0.83596415  0.16771583  1
  Cu+  Cu106  1  0.66700875  0.83511898  0.49681279  1
  Cu+  Cu107  1  0.66787222  0.83704147  0.82945934  1
  Cu+  Cu108  1  0.40210697  0.41451395  0.92586158  1
  Cu+  Cu109  1  0.59992689  0.93012380  0.25885923  1
  Cu+  Cu110  1  0.75070998  0.40041137  0.92573801  1
  Cu+  Cu111  1  0.06738628  0.74007462  0.58348035  1
  Cu+  Cu112  1  0.41019543  0.59605681  0.40052937  1
  Cu+  Cu113  1  0.59617919  0.40059571  0.08093443  1
  Cu+  Cu114  1  0.40684670  0.59206211  0.74998416  1
  Cu+  Cu115  1  0.06924864  0.59152079  0.73581196  1
  Cu+  Cu116  1  0.07166066  0.07336038  0.59883180  1
  Cu+  Cu117  1  0.40737268  0.74712862  0.59353357  1
  Cu+  Cu118  1  0.07991129  0.26196327  0.40381975  1
  Cu+  Cu119  1  0.73740432  0.93152048  0.73691750  1
  Cu+  Cu120  1  0.26172748  0.06833052  0.08601148  1
  Cu+  Cu121  1  0.06943820  0.92283732  0.40379835  1
  Cu+  Cu122  1  0.06844556  0.40464857  0.59707121  1
  Cu+  Cu123  1  0.40719386  0.40397312  0.26301243  1
  Cu+  Cu124  1  0.26628268  0.06406387  0.73414028  1
  Cu+  Cu125  1  0.25485164  0.25941667  0.59782683  1
  Cu+  Cu126  1  0.42046520  0.40629118  0.59876161  1
  Cu+  Cu127  1  0.41930071  0.06692104  0.93253683  1
  Cu+  Cu128  1  0.25646357  0.74473328  0.40260044  1
  Cu+  Cu129  1  0.07047673  0.59359100  0.07312521  1
  Cu+  Cu130  1  0.92112188  0.40908892  0.40034280  1
  Cu+  Cu131  1  0.25820154  0.91613950  0.92828915  1
  Cu+  Cu132  1  0.39955796  0.26127288  0.07348784  1
  Te2-  Te133  1  0.24893710  0.25788179  0.07954851  1
  Te2-  Te134  1  0.24898661  0.25383178  0.41509175  1
  Te2-  Te135  1  0.25684288  0.25000883  0.75057176  1
  Te2-  Te136  1  0.25543579  0.58501701  0.08500548  1
  Te2-  Te137  1  0.25431278  0.58693695  0.41584986  1
  Te2-  Te138  1  0.25233428  0.58496465  0.74490466  1
  Te2-  Te139  1  0.25350357  0.91650052  0.08088744  1
  Te2-  Te140  1  0.25257138  0.92158955  0.41681827  1
  Te2-  Te141  1  0.25557134  0.91193894  0.73814679  1
  Te2-  Te142  1  0.58695498  0.24939744  0.08095998  1
  Te2-  Te143  1  0.58468588  0.25614382  0.41651445  1
  Te2-  Te144  1  0.58123834  0.25547151  0.74969347  1
  Te2-  Te145  1  0.58315248  0.58547066  0.07943065  1
  Te2-  Te146  1  0.58277523  0.58640297  0.41308126  1
  Te2-  Te147  1  0.59426362  0.58075148  0.75146048  1
  Te2-  Te148  1  0.58635901  0.91931517  0.07868621  1
  Te2-  Te149  1  0.58698534  0.92313415  0.41240925  1
  Te2-  Te150  1  0.58245575  0.92040840  0.74440479  1
  Te2-  Te151  1  0.91934156  0.25112024  0.07877790  1
  Te2-  Te152  1  0.92442667  0.25488315  0.41040516  1
  Te2-  Te153  1  0.92161233  0.25019396  0.75039085  1
  Te2-  Te154  1  0.91673816  0.58664012  0.07945215  1
  Te2-  Te155  1  0.91961622  0.58490613  0.41540850  1
  Te2-  Te156  1  0.91891065  0.59025596  0.74483067  1
  Te2-  Te157  1  0.91792513  0.91852313  0.08166406  1
  Te2-  Te158  1  0.91779747  0.92122850  0.41299949  1
  Te2-  Te159  1  0.91918772  0.92257367  0.74791885  1
  Te2-  Te160  1  0.25276315  0.08341709  0.25365950  1
  Te2-  Te161  1  0.25510454  0.07326514  0.58151785  1
  Te2-  Te162  1  0.25929255  0.07236975  0.92573683  1
  Te2-  Te163  1  0.25286527  0.41117115  0.25772419  1
  Te2-  Te164  1  0.25628071  0.41514579  0.58981591  1
  Te2-  Te165  1  0.24893844  0.41561124  0.92154815  1
  Te2-  Te166  1  0.25049605  0.74663964  0.25028904  1
  Te2-  Te167  1  0.25507027  0.74659332  0.58975573  1
  Te2-  Te168  1  0.24946160  0.74164609  0.91463346  1
  Te2-  Te169  1  0.58538724  0.08428033  0.25425007  1
  Te2-  Te170  1  0.58537781  0.08460843  0.58377687  1
  Te2-  Te171  1  0.58062331  0.08407834  0.92029849  1
  Te2-  Te172  1  0.58333839  0.41414348  0.25170091  1
  Te2-  Te173  1  0.58481933  0.41863380  0.58671390  1
  Te2-  Te174  1  0.59249316  0.40694316  0.92206367  1
  Te2-  Te175  1  0.58615130  0.74623292  0.24980359  1
  Te2-  Te176  1  0.58585601  0.74760225  0.57957424  1
  Te2-  Te177  1  0.58654088  0.74982841  0.91472454  1
  Te2-  Te178  1  0.91915895  0.08118878  0.25143347  1
  Te2-  Te179  1  0.92043853  0.08267680  0.58734978  1
  Te2-  Te180  1  0.91590420  0.07841855  0.91803848  1
  Te2-  Te181  1  0.92050408  0.41415584  0.24865205  1
  Te2-  Te182  1  0.91762365  0.41211811  0.59224343  1
  Te2-  Te183  1  0.92379565  0.41510519  0.91719326  1
  Te2-  Te184  1  0.91802600  0.74614573  0.25232696  1
  Te2-  Te185  1  0.91566243  0.74901011  0.58772784  1
  Te2-  Te186  1  0.91886663  0.75131285  0.92013231  1
  Te2-  Te187  1  0.07817950  0.25544306  0.25092383  1
  Te2-  Te188  1  0.08113898  0.24975575  0.59557648  1
  Te2-  Te189  1  0.08684788  0.24396830  0.92009109  1
  Te2-  Te190  1  0.08125606  0.58619024  0.25719213  1
  Te2-  Te191  1  0.07763814  0.58681006  0.58332182  1
  Te2-  Te192  1  0.07956725  0.58705863  0.91960244  1
  Te2-  Te193  1  0.07916398  0.91927226  0.25062192  1
  Te2-  Te194  1  0.07685173  0.92052552  0.59128222  1
  Te2-  Te195  1  0.08361725  0.91825371  0.91415738  1
  Te2-  Te196  1  0.41218689  0.25066123  0.25550173  1
  Te2-  Te197  1  0.41096057  0.25577685  0.59052828  1
  Te2-  Te198  1  0.40431740  0.25485388  0.91848909  1
  Te2-  Te199  1  0.41234434  0.59055698  0.24914204  1
  Te2-  Te200  1  0.41181773  0.59199494  0.59201212  1
  Te2-  Te201  1  0.41951374  0.58433787  0.92098551  1
  Te2-  Te202  1  0.41118952  0.91912135  0.25123456  1
  Te2-  Te203  1  0.41523807  0.91928917  0.58069577  1
  Te2-  Te204  1  0.41299120  0.91611420  0.92100348  1
  Te2-  Te205  1  0.74830465  0.25367283  0.25289657  1
  Te2-  Te206  1  0.75147653  0.25503945  0.58355422  1
  Te2-  Te207  1  0.74678208  0.24934221  0.91965385  1
  Te2-  Te208  1  0.74656605  0.58268383  0.24992965  1
  Te2-  Te209  1  0.74738027  0.58655132  0.58567887  1
  Te2-  Te210  1  0.75155076  0.58930525  0.91838394  1
  Te2-  Te211  1  0.74979095  0.92134135  0.25442934  1
  Te2-  Te212  1  0.74605537  0.92299942  0.58309238  1
  Te2-  Te213  1  0.74554113  0.91996329  0.92032586  1
  Te2-  Te214  1  0.07904341  0.08075265  0.08322122  1
  Te2-  Te215  1  0.07881817  0.07983407  0.40965878  1
  Te2-  Te216  1  0.08217768  0.07575819  0.75190206  1
  Te2-  Te217  1  0.08164471  0.41516901  0.08266522  1
  Te2-  Te218  1  0.08235224  0.41492209  0.41126310  1
  Te2-  Te219  1  0.08047647  0.40789936  0.75039458  1
  Te2-  Te220  1  0.07893059  0.74808329  0.07952674  1
  Te2-  Te221  1  0.07874929  0.74806926  0.41460475  1
  Te2-  Te222  1  0.07312702  0.74609068  0.74408836  1
  Te2-  Te223  1  0.41402240  0.07415736  0.08375246  1
  Te2-  Te224  1  0.41104720  0.08572498  0.41639540  1
  Te2-  Te225  1  0.41690468  0.07797652  0.73986055  1
  Te2-  Te226  1  0.40570569  0.41320665  0.07781853  1
  Te2-  Te227  1  0.41150448  0.41242361  0.41466881  1
  Te2-  Te228  1  0.41333432  0.41302104  0.74932121  1
  Te2-  Te229  1  0.41385187  0.74725595  0.07826090  1
  Te2-  Te230  1  0.41335037  0.75020456  0.40267171  1
  Te2-  Te231  1  0.41374015  0.74570388  0.74713583  1
  Te2-  Te232  1  0.74727305  0.08029129  0.08134147  1
  Te2-  Te233  1  0.75057922  0.08563551  0.41521020  1
  Te2-  Te234  1  0.74320245  0.08494980  0.74496417  1
  Te2-  Te235  1  0.74867331  0.41014625  0.07912746  1
  Te2-  Te236  1  0.74597393  0.41596159  0.41534470  1
  Te2-  Te237  1  0.75153153  0.41375178  0.74706019  1
  Te2-  Te238  1  0.74625586  0.74943703  0.08218138  1
  Te2-  Te239  1  0.74922955  0.74792163  0.41481805  1
  Te2-  Te240  1  0.74832123  0.74810767  0.74704698  1
