# generated using pymatgen
data_Ti27(Cu53Te54)2
_symmetry_space_group_name_H-M   'P 1'
_cell_length_a   17.87340259
_cell_length_b   17.87164712
_cell_length_c   17.87354356
_cell_angle_alpha   89.98472745
_cell_angle_beta   90.02143837
_cell_angle_gamma   89.99534309
_symmetry_Int_Tables_number   1
_chemical_formula_structural   Ti27(Cu53Te54)2
_chemical_formula_sum   'Ti27 Cu106 Te108'
_cell_volume   5709.29435046
_cell_formula_units_Z   1
loop_
 _symmetry_equiv_pos_site_id
 _symmetry_equiv_pos_as_xyz
  1  'x, y, z'
loop_
 _atom_type_symbol
 _atom_type_oxidation_number
  Ti4+  4.0
  Cu+  1.0
  Te2-  -2.0
loop_
 _atom_site_type_symbol
 _atom_site_label
 _atom_site_symmetry_multiplicity
 _atom_site_fract_x
 _atom_site_fract_y
 _atom_site_fract_z
 _atom_site_occupancy
  Ti4+  Ti0  1  0.16225435  0.16517010  0.16251656  1
  Ti4+  Ti1  1  0.16595905  0.16553849  0.49786386  1
  Ti4+  Ti2  1  0.16861641  0.16547402  0.83263359  1
  Ti4+  Ti3  1  0.16760292  0.49931764  0.16682689  1
  Ti4+  Ti4  1  0.16952456  0.50101657  0.49846917  1
  Ti4+  Ti5  1  0.16742890  0.50114764  0.83345619  1
  Ti4+  Ti6  1  0.16637467  0.83356528  0.16737638  1
  Ti4+  Ti7  1  0.16661736  0.83389513  0.49942494  1
  Ti4+  Ti8  1  0.16763957  0.83242448  0.83533639  1
  Ti4+  Ti9  1  0.49669252  0.16948901  0.16889395  1
  Ti4+  Ti10  1  0.49878034  0.16807322  0.49977847  1
  Ti4+  Ti11  1  0.50056565  0.16782420  0.83559589  1
  Ti4+  Ti12  1  0.50215743  0.49810337  0.16515607  1
  Ti4+  Ti13  1  0.49800365  0.50229884  0.50258494  1
  Ti4+  Ti14  1  0.49653313  0.49995675  0.83377048  1
  Ti4+  Ti15  1  0.50402804  0.83256728  0.16624850  1
  Ti4+  Ti16  1  0.49985022  0.83442293  0.49590215  1
  Ti4+  Ti17  1  0.50172334  0.83325644  0.83445547  1
  Ti4+  Ti18  1  0.83282657  0.16659880  0.16962123  1
  Ti4+  Ti19  1  0.83266950  0.16437295  0.50460681  1
  Ti4+  Ti20  1  0.83440335  0.16370589  0.83098098  1
  Ti4+  Ti21  1  0.83343542  0.49994613  0.16648859  1
  Ti4+  Ti22  1  0.83823274  0.50099215  0.50171512  1
  Ti4+  Ti23  1  0.83239037  0.49817177  0.82959816  1
  Ti4+  Ti24  1  0.83151594  0.83402784  0.16536425  1
  Ti4+  Ti25  1  0.82953377  0.83469905  0.50197139  1
  Ti4+  Ti26  1  0.83578435  0.83560573  0.83455128  1
  Cu+  Cu27  1  0.16635675  0.16202393  -0.00288016  1
  Cu+  Cu28  1  0.16132053  0.16557687  0.33064161  1
  Cu+  Cu29  1  0.16902527  0.16733682  0.66391329  1
  Cu+  Cu30  1  0.16852437  0.49988796  0.00312258  1
  Cu+  Cu31  1  0.16757225  0.50125064  0.33282766  1
  Cu+  Cu32  1  0.17083169  0.50256355  0.66467497  1
  Cu+  Cu33  1  0.16411302  0.83099347  0.00020893  1
  Cu+  Cu34  1  0.16813778  0.83204245  0.33471254  1
  Cu+  Cu35  1  0.16560124  0.83486991  0.67065449  1
  Cu+  Cu36  1  0.49761879  0.16833210  0.00323993  1
  Cu+  Cu37  1  0.50150541  0.17244419  0.33486473  1
  Cu+  Cu38  1  0.49858361  0.16818269  0.66890891  1
  Cu+  Cu39  1  0.49545766  0.49720009  -0.00286494  1
  Cu+  Cu40  1  0.50101259  0.50185864  0.33002266  1
  Cu+  Cu41  1  0.49138677  0.49862936  0.66804875  1
  Cu+  Cu42  1  0.50803185  0.83271365  -0.00005243  1
  Cu+  Cu43  1  0.50416626  0.82903715  0.33397027  1
  Cu+  Cu44  1  0.49906485  0.83355326  0.66085630  1
  Cu+  Cu45  1  0.83666946  0.16443784  0.00139626  1
  Cu+  Cu46  1  0.83340272  0.16753437  0.33738480  1
  Cu+  Cu47  1  0.82981568  0.15862145  0.66909011  1
  Cu+  Cu48  1  0.83061420  0.50051091  -0.00178939  1
  Cu+  Cu49  1  0.83628381  0.50134508  0.33537602  1
  Cu+  Cu50  1  0.83706301  0.49364650  0.66450755  1
  Cu+  Cu51  1  0.83351861  0.83412109  -0.00124404  1
  Cu+  Cu52  1  0.82732811  0.83667098  0.33143364  1
  Cu+  Cu53  1  0.83421954  0.84147581  0.66837752  1
  Cu+  Cu54  1  0.16292761  0.00023601  0.16341778  1
  Cu+  Cu55  1  0.16622989  0.00073049  0.49896076  1
  Cu+  Cu56  1  0.16761928  -0.00299339  0.83394923  1
  Cu+  Cu57  1  0.16658901  0.33134389  0.16711342  1
  Cu+  Cu58  1  0.16566292  0.33265082  0.49688577  1
  Cu+  Cu59  1  0.16759086  0.33050232  0.83249838  1
  Cu+  Cu60  1  0.16835371  0.66381486  0.16696023  1
  Cu+  Cu61  1  0.17159517  0.66962042  0.49657786  1
  Cu+  Cu62  1  0.16503799  0.66977586  0.83856621  1
  Cu+  Cu63  1  0.49703653  0.00154466  0.16860941  1
  Cu+  Cu64  1  0.49776009  0.00107839  0.49848807  1
  Cu+  Cu65  1  0.50459856  0.00132341  0.83879218  1
  Cu+  Cu66  1  0.49906185  0.33260628  0.17320465  1
  Cu+  Cu67  1  0.49590571  0.33440012  0.50209455  1
  Cu+  Cu68  1  0.49906465  0.33621428  0.83574485  1
  Cu+  Cu69  1  0.50857603  0.66561392  0.16271593  1
  Cu+  Cu70  1  0.50216645  0.66989148  0.49698441  1
  Cu+  Cu71  1  0.49728706  0.66584649  0.83209922  1
  Cu+  Cu72  1  0.83356085  0.00184864  0.16475095  1
  Cu+  Cu73  1  0.82906722  -0.00212573  0.50609687  1
  Cu+  Cu74  1  0.83462257  -0.00168011  0.82413976  1
  Cu+  Cu75  1  0.83227255  0.33479734  0.16829617  1
  Cu+  Cu76  1  0.83448869  0.33535873  0.50625250  1
  Cu+  Cu77  1  0.83710057  0.33197200  0.82633123  1
  Cu+  Cu78  1  0.83352360  0.66689973  0.16607100  1
  Cu+  Cu79  1  0.83511952  0.66590935  0.50139087  1
  Cu+  Cu80  1  0.83278058  0.66602374  0.83236568  1
  Cu+  Cu81  1  -0.00290486  0.15829101  0.16677195  1
  Cu+  Cu82  1  0.00111048  0.16729562  0.50038869  1
  Cu+  Cu83  1  0.00264562  0.16225629  0.83232965  1
  Cu+  Cu84  1  0.00023209  0.50021132  0.16591980  1
  Cu+  Cu85  1  0.00465264  0.50267367  0.49826353  1
  Cu+  Cu86  1  -0.00116358  0.49949123  0.83091979  1
  Cu+  Cu87  1  -0.00206148  0.83504808  0.16780805  1
  Cu+  Cu88  1  -0.00071831  0.83322932  0.50296927  1
  Cu+  Cu89  1  0.00557436  0.82773569  0.83914883  1
  Cu+  Cu90  1  0.32641982  0.16945637  0.16386726  1
  Cu+  Cu91  1  0.33291857  0.16677209  0.49642868  1
  Cu+  Cu92  1  0.33429102  0.16694176  0.83319422  1
  Cu+  Cu93  1  0.33555056  0.49597375  0.16674943  1
  Cu+  Cu94  1  0.33155399  0.50383449  0.50774918  1
  Cu+  Cu95  1  0.33537393  0.50179964  0.83404832  1
  Cu+  Cu96  1  0.33727699  0.83387018  0.16750065  1
  Cu+  Cu97  1  0.33222657  0.83068748  0.49543142  1
  Cu+  Cu98  1  0.33342391  0.83299910  0.83517415  1
  Cu+  Cu99  1  0.66537011  0.17101963  0.17011631  1
  Cu+  Cu100  1  0.66401099  0.16493111  0.50338857  1
  Cu+  Cu101  1  0.66864411  0.17143858  0.83561257  1
  Cu+  Cu102  1  0.66829690  0.50197712  0.16732118  1
  Cu+  Cu103  1  0.67198841  0.50196553  0.50201168  1
  Cu+  Cu104  1  0.66125743  0.49897917  0.82909716  1
  Cu+  Cu105  1  0.66647458  0.83044872  0.15964413  1
  Cu+  Cu106  1  0.66546078  0.83711104  0.49070064  1
  Cu+  Cu107  1  0.66515142  0.83906960  0.83878008  1
  Cu+  Cu108  1  0.40144009  0.40255210  0.59356637  1
  Cu+  Cu109  1  0.40634029  0.59854517  0.74244725  1
  Cu+  Cu110  1  0.93124129  0.92440355  0.59143699  1
  Cu+  Cu111  1  0.40238536  0.40487829  0.92791481  1
  Cu+  Cu112  1  0.07314678  0.73566093  0.93381994  1
  Cu+  Cu113  1  0.07164017  0.07046688  0.26184286  1
  Cu+  Cu114  1  0.59789314  0.25848389  0.26518301  1
  Cu+  Cu115  1  0.74182470  0.25683935  0.74185497  1
  Cu+  Cu116  1  0.40805149  0.40995664  0.26321165  1
  Cu+  Cu117  1  0.59520743  0.93357315  0.93188285  1
  Cu+  Cu118  1  0.59852587  0.73708179  0.41025554  1
  Cu+  Cu119  1  0.26058870  0.73928347  0.40126334  1
  Cu+  Cu120  1  0.73166259  0.07131451  0.59328221  1
  Cu+  Cu121  1  0.58435453  0.40852225  0.73940081  1
  Cu+  Cu122  1  0.59615183  0.59325541  0.25798781  1
  Cu+  Cu123  1  0.25104451  0.25581143  0.26012207  1
  Cu+  Cu124  1  0.26018582  0.07068445  0.07133180  1
  Cu+  Cu125  1  0.73343309  0.91925636  0.74165939  1
  Cu+  Cu126  1  0.93475465  0.07233735  0.74008600  1
  Cu+  Cu127  1  0.73986231  0.40942312  0.58743851  1
  Cu+  Cu128  1  0.73936805  0.93116537  0.39971429  1
  Cu+  Cu129  1  0.92315823  0.07025365  0.07084860  1
  Cu+  Cu130  1  0.25367088  0.60108727  0.59562718  1
  Cu+  Cu131  1  0.93402264  0.40695592  0.73804513  1
  Cu+  Cu132  1  0.59619519  0.73449809  0.06590908  1
  Te2-  Te133  1  0.24747219  0.25320719  0.07563124  1
  Te2-  Te134  1  0.25100092  0.25213147  0.41199449  1
  Te2-  Te135  1  0.25361406  0.25097887  0.74678527  1
  Te2-  Te136  1  0.25541151  0.58402802  0.08289673  1
  Te2-  Te137  1  0.25737231  0.58522021  0.41011928  1
  Te2-  Te138  1  0.25331658  0.59142504  0.74946070  1
  Te2-  Te139  1  0.25286189  0.91670262  0.08009533  1
  Te2-  Te140  1  0.25192403  0.92072805  0.41409005  1
  Te2-  Te141  1  0.25406613  0.91827011  0.74904916  1
  Te2-  Te142  1  0.58304653  0.25423295  0.08307570  1
  Te2-  Te143  1  0.58781541  0.25714992  0.41891446  1
  Te2-  Te144  1  0.58548592  0.25480244  0.74623833  1
  Te2-  Te145  1  0.58809874  0.58041354  0.07323875  1
  Te2-  Te146  1  0.58947348  0.58347569  0.41491543  1
  Te2-  Te147  1  0.58197866  0.58592586  0.74401542  1
  Te2-  Te148  1  0.58726059  0.92584027  0.08302123  1
  Te2-  Te149  1  0.58347378  0.92583964  0.40898997  1
  Te2-  Te150  1  0.58196359  0.92049291  0.74415978  1
  Te2-  Te151  1  0.91909721  0.25183605  0.08471868  1
  Te2-  Te152  1  0.91636762  0.25229436  0.41990378  1
  Te2-  Te153  1  0.92338762  0.24833488  0.74256456  1
  Te2-  Te154  1  0.91800942  0.58462308  0.07983999  1
  Te2-  Te155  1  0.92159571  0.58774165  0.41533721  1
  Te2-  Te156  1  0.91740748  0.58588718  0.74564331  1
  Te2-  Te157  1  0.91960236  0.91850249  0.07897583  1
  Te2-  Te158  1  0.91564267  0.91901414  0.41604309  1
  Te2-  Te159  1  0.93093944  0.91760926  0.74892970  1
  Te2-  Te160  1  0.24982749  0.07983803  0.25043131  1
  Te2-  Te161  1  0.25302702  0.08133121  0.58284248  1
  Te2-  Te162  1  0.25541515  0.07766637  0.91727617  1
  Te2-  Te163  1  0.25367372  0.41190829  0.25618477  1
  Te2-  Te164  1  0.25072579  0.40895344  0.58630038  1
  Te2-  Te165  1  0.25118382  0.41394722  0.91885292  1
  Te2-  Te166  1  0.25418873  0.74668968  0.24990395  1
  Te2-  Te167  1  0.25383600  0.75185740  0.58979027  1
  Te2-  Te168  1  0.25515337  0.74779123  0.92219692  1
  Te2-  Te169  1  0.58322662  0.08321891  0.25260869  1
  Te2-  Te170  1  0.58018908  0.07952727  0.58858531  1
  Te2-  Te171  1  0.58898616  0.08668295  0.92393213  1
  Te2-  Te172  1  0.58996161  0.41323111  0.25468861  1
  Te2-  Te173  1  0.58570971  0.41426900  0.58641570  1
  Te2-  Te174  1  0.58667219  0.41515595  0.92029333  1
  Te2-  Te175  1  0.59321880  0.74580226  0.25444224  1
  Te2-  Te176  1  0.58825940  0.75078119  0.58219633  1
  Te2-  Te177  1  0.58939658  0.74178972  0.91484585  1
  Te2-  Te178  1  0.91602858  0.07777091  0.25911903  1
  Te2-  Te179  1  0.92440500  0.07812035  0.58769265  1
  Te2-  Te180  1  0.91931825  0.07625313  0.91718089  1
  Te2-  Te181  1  0.91925868  0.41552875  0.25247631  1
  Te2-  Te182  1  0.92939541  0.41253198  0.58456232  1
  Te2-  Te183  1  0.91698132  0.41377962  0.91700433  1
  Te2-  Te184  1  0.91553270  0.75077639  0.25297681  1
  Te2-  Te185  1  0.91551289  0.74956966  0.58859223  1
  Te2-  Te186  1  0.91739927  0.74473663  0.92066341  1
  Te2-  Te187  1  0.07548086  0.25134953  0.24864975  1
  Te2-  Te188  1  0.08253804  0.25220783  0.58472337  1
  Te2-  Te189  1  0.08107435  0.24980418  0.91745237  1
  Te2-  Te190  1  0.08175709  0.58482443  0.25147571  1
  Te2-  Te191  1  0.08492468  0.58877471  0.58347595  1
  Te2-  Te192  1  0.07941281  0.58213905  0.92090825  1
  Te2-  Te193  1  0.08020249  0.91771201  0.25467393  1
  Te2-  Te194  1  0.08319895  0.92092461  0.58721093  1
  Te2-  Te195  1  0.08149932  0.92026939  0.92072253  1
  Te2-  Te196  1  0.40660725  0.25409534  0.25657397  1
  Te2-  Te197  1  0.41039044  0.25049323  0.58730135  1
  Te2-  Te198  1  0.41250000  0.25238915  0.92057147  1
  Te2-  Te199  1  0.41668661  0.58805534  0.24715895  1
  Te2-  Te200  1  0.41427863  0.59514772  0.58705122  1
  Te2-  Te201  1  0.41271637  0.58888591  0.92182737  1
  Te2-  Te202  1  0.41846527  0.91595131  0.25401694  1
  Te2-  Te203  1  0.41219446  0.91784673  0.58106015  1
  Te2-  Te204  1  0.41687126  0.91706725  0.92136980  1
  Te2-  Te205  1  0.74958014  0.25459998  0.25736608  1
  Te2-  Te206  1  0.74478962  0.25325076  0.58900444  1
  Te2-  Te207  1  0.75508107  0.25289312  0.91972880  1
  Te2-  Te208  1  0.74961789  0.58733590  0.25515878  1
  Te2-  Te209  1  0.75201822  0.58651084  0.58910296  1
  Te2-  Te210  1  0.74527525  0.58319263  0.91337998  1
  Te2-  Te211  1  0.74289932  0.92234278  0.24694291  1
  Te2-  Te212  1  0.73636162  0.91897354  0.58903633  1
  Te2-  Te213  1  0.75109202  0.92500297  0.92161351  1
  Te2-  Te214  1  0.07647218  0.07679173  0.07397773  1
  Te2-  Te215  1  0.07742335  0.07843399  0.41440242  1
  Te2-  Te216  1  0.08628211  0.07831674  0.74446904  1
  Te2-  Te217  1  0.08207212  0.41367717  0.08222387  1
  Te2-  Te218  1  0.08288169  0.41581848  0.41313993  1
  Te2-  Te219  1  0.08564565  0.41461989  0.74564862  1
  Te2-  Te220  1  0.07908964  0.74542591  0.08513587  1
  Te2-  Te221  1  0.07853930  0.74842550  0.41581121  1
  Te2-  Te222  1  0.08192345  0.74615884  0.74712293  1
  Te2-  Te223  1  0.41241543  0.08153106  0.08237327  1
  Te2-  Te224  1  0.41570445  0.08379062  0.41198649  1
  Te2-  Te225  1  0.41774364  0.08034753  0.75209063  1
  Te2-  Te226  1  0.41436035  0.40956121  0.08089920  1
  Te2-  Te227  1  0.41233224  0.41883572  0.41558034  1
  Te2-  Te228  1  0.40775172  0.40878919  0.74730237  1
  Te2-  Te229  1  0.41867000  0.74785482  0.08065069  1
  Te2-  Te230  1  0.41360977  0.74488019  0.40994282  1
  Te2-  Te231  1  0.41401700  0.75145644  0.74584585  1
  Te2-  Te232  1  0.74427826  0.08516815  0.08304864  1
  Te2-  Te233  1  0.74651159  0.08183931  0.41516196  1
  Te2-  Te234  1  0.73756773  0.07633858  0.74790696  1
  Te2-  Te235  1  0.74735932  0.41453006  0.08128042  1
  Te2-  Te236  1  0.75131162  0.41465331  0.41630219  1
  Te2-  Te237  1  0.74135703  0.41029181  0.74237203  1
  Te2-  Te238  1  0.74955653  0.74483414  0.07638858  1
  Te2-  Te239  1  0.74997277  0.74347540  0.41305848  1
  Te2-  Te240  1  0.74819164  0.75253959  0.74950103  1
