# generated using pymatgen
data_Ti27(Cu53Te54)2
_symmetry_space_group_name_H-M   'P 1'
_cell_length_a   17.89152950
_cell_length_b   17.89570218
_cell_length_c   17.89329744
_cell_angle_alpha   90.00030753
_cell_angle_beta   89.98762146
_cell_angle_gamma   90.00066664
_symmetry_Int_Tables_number   1
_chemical_formula_structural   Ti27(Cu53Te54)2
_chemical_formula_sum   'Ti27 Cu106 Te108'
_cell_volume   5729.10238626
_cell_formula_units_Z   1
loop_
 _symmetry_equiv_pos_site_id
 _symmetry_equiv_pos_as_xyz
  1  'x, y, z'
loop_
 _atom_type_symbol
 _atom_type_oxidation_number
  Ti4+  4.0
  Cu+  1.0
  Te2-  -2.0
loop_
 _atom_site_type_symbol
 _atom_site_label
 _atom_site_symmetry_multiplicity
 _atom_site_fract_x
 _atom_site_fract_y
 _atom_site_fract_z
 _atom_site_occupancy
  Ti4+  Ti0  1  0.16602826  0.16595606  0.16590826  1
  Ti4+  Ti1  1  0.16695997  0.16450488  0.50300303  1
  Ti4+  Ti2  1  0.16341556  0.16769512  0.83308255  1
  Ti4+  Ti3  1  0.16840053  0.50067333  0.16794381  1
  Ti4+  Ti4  1  0.16635430  0.50017500  0.50075238  1
  Ti4+  Ti5  1  0.16927950  0.49766506  0.83153875  1
  Ti4+  Ti6  1  0.16652758  0.83301720  0.16457876  1
  Ti4+  Ti7  1  0.16574792  0.83287301  0.49958969  1
  Ti4+  Ti8  1  0.16735947  0.83218146  0.82800307  1
  Ti4+  Ti9  1  0.50204235  0.16688493  0.16872510  1
  Ti4+  Ti10  1  0.49712106  0.17381339  0.49652142  1
  Ti4+  Ti11  1  0.50341871  0.16491176  0.83480085  1
  Ti4+  Ti12  1  0.50090449  0.49900167  0.16870782  1
  Ti4+  Ti13  1  0.49925286  0.49879447  0.50079838  1
  Ti4+  Ti14  1  0.49883898  0.49966147  0.83719815  1
  Ti4+  Ti15  1  0.50020791  0.83303403  0.16946830  1
  Ti4+  Ti16  1  0.50057516  0.83852935  0.49881924  1
  Ti4+  Ti17  1  0.50319024  0.82873164  0.83440825  1
  Ti4+  Ti18  1  0.83094316  0.16665069  0.16430032  1
  Ti4+  Ti19  1  0.83200884  0.16846229  0.50057327  1
  Ti4+  Ti20  1  0.83111592  0.16926438  0.83416380  1
  Ti4+  Ti21  1  0.83753473  0.50108636  0.16483670  1
  Ti4+  Ti22  1  0.83083803  0.50232640  0.49999994  1
  Ti4+  Ti23  1  0.83560772  0.50115599  0.83300896  1
  Ti4+  Ti24  1  0.83692516  0.83441584  0.16793425  1
  Ti4+  Ti25  1  0.83014394  0.83035854  0.49683146  1
  Ti4+  Ti26  1  0.83336403  0.83073489  0.83211932  1
  Cu+  Cu27  1  0.16468344  0.16702326  -0.00031447  1
  Cu+  Cu28  1  0.16539217  0.16289168  0.33335574  1
  Cu+  Cu29  1  0.16947647  0.16731022  0.66891035  1
  Cu+  Cu30  1  0.16973434  0.49965653  -0.00027533  1
  Cu+  Cu31  1  0.16768799  0.49825000  0.33710686  1
  Cu+  Cu32  1  0.16403900  0.50135181  0.66712307  1
  Cu+  Cu33  1  0.16701025  0.83429910  -0.00287585  1
  Cu+  Cu34  1  0.16309677  0.83168913  0.32999845  1
  Cu+  Cu35  1  0.16808817  0.83193757  0.66598099  1
  Cu+  Cu36  1  0.50760172  0.16697893  0.00169103  1
  Cu+  Cu37  1  0.50113244  0.16465765  0.33714686  1
  Cu+  Cu38  1  0.50106568  0.16969216  0.66101399  1
  Cu+  Cu39  1  0.49769600  0.50144437  0.00547237  1
  Cu+  Cu40  1  0.49751407  0.49433076  0.33191805  1
  Cu+  Cu41  1  0.49693302  0.49772285  0.66889454  1
  Cu+  Cu42  1  0.50018650  0.82943371  -0.00106587  1
  Cu+  Cu43  1  0.50401321  0.84008731  0.33391575  1
  Cu+  Cu44  1  0.49948722  0.83742789  0.67207202  1
  Cu+  Cu45  1  0.82716243  0.16526524  -0.00228535  1
  Cu+  Cu46  1  0.83068910  0.17210708  0.33184534  1
  Cu+  Cu47  1  0.83096570  0.16551549  0.66872390  1
  Cu+  Cu48  1  0.83775477  0.50140459  -0.00270453  1
  Cu+  Cu49  1  0.83964729  0.50288258  0.33083988  1
  Cu+  Cu50  1  0.82998042  0.50324564  0.66710222  1
  Cu+  Cu51  1  0.83926074  0.83004521  0.00283788  1
  Cu+  Cu52  1  0.82889513  0.82857632  0.33038237  1
  Cu+  Cu53  1  0.83040770  0.83039514  0.66268454  1
  Cu+  Cu54  1  0.16465421  -0.00047263  0.16410748  1
  Cu+  Cu55  1  0.16787434  -0.00389097  0.50475472  1
  Cu+  Cu56  1  0.16335187  0.00383212  0.82624270  1
  Cu+  Cu57  1  0.16759591  0.33122445  0.16596116  1
  Cu+  Cu58  1  0.16595218  0.33231476  0.50285423  1
  Cu+  Cu59  1  0.16464763  0.33311133  0.83447921  1
  Cu+  Cu60  1  0.16636472  0.66874628  0.16649128  1
  Cu+  Cu61  1  0.16727420  0.66668080  0.50050722  1
  Cu+  Cu62  1  0.17154363  0.66416381  0.82601347  1
  Cu+  Cu63  1  0.50520078  -0.00155287  0.17105194  1
  Cu+  Cu64  1  0.49290756  0.00506886  0.48909162  1
  Cu+  Cu65  1  0.50191664  -0.00685028  0.83467024  1
  Cu+  Cu66  1  0.49774717  0.33580892  0.17403827  1
  Cu+  Cu67  1  0.50326717  0.33450170  0.50280818  1
  Cu+  Cu68  1  0.50257369  0.33198324  0.83766454  1
  Cu+  Cu69  1  0.49846647  0.66332535  0.16732761  1
  Cu+  Cu70  1  0.49997048  0.66627924  0.49969519  1
  Cu+  Cu71  1  0.50145616  0.66570298  0.83712079  1
  Cu+  Cu72  1  0.83472761  0.00235388  0.16585392  1
  Cu+  Cu73  1  0.83143798  -0.00305431  0.49848855  1
  Cu+  Cu74  1  0.83222467  -0.00020147  0.83312837  1
  Cu+  Cu75  1  0.83389602  0.33465756  0.16359562  1
  Cu+  Cu76  1  0.82982949  0.33472344  0.49714326  1
  Cu+  Cu77  1  0.83562934  0.33722450  0.83358276  1
  Cu+  Cu78  1  0.84261191  0.66684562  0.16851547  1
  Cu+  Cu79  1  0.82736906  0.66836571  0.50190907  1
  Cu+  Cu80  1  0.83356767  0.66346217  0.83028342  1
  Cu+  Cu81  1  -0.00097267  0.16871182  0.16541988  1
  Cu+  Cu82  1  -0.00110470  0.16286670  0.50163689  1
  Cu+  Cu83  1  -0.00393590  0.16952890  0.83363251  1
  Cu+  Cu84  1  0.00228054  0.50388091  0.16962301  1
  Cu+  Cu85  1  -0.00147113  0.49928987  0.50123399  1
  Cu+  Cu86  1  0.00356402  0.50130855  0.82937367  1
  Cu+  Cu87  1  0.00138951  0.83086656  0.16113837  1
  Cu+  Cu88  1  -0.00324088  0.83229899  0.49727367  1
  Cu+  Cu89  1  0.00018220  0.83448538  0.82827254  1
  Cu+  Cu90  1  0.33292648  0.16522319  0.16642756  1
  Cu+  Cu91  1  0.33034535  0.17208709  0.50794189  1
  Cu+  Cu92  1  0.33341506  0.16423663  0.83324809  1
  Cu+  Cu93  1  0.33661670  0.49846392  0.16808335  1
  Cu+  Cu94  1  0.33349141  0.49981404  0.50035828  1
  Cu+  Cu95  1  0.33212056  0.50032890  0.84000009  1
  Cu+  Cu96  1  0.32947780  0.83382979  0.16661179  1
  Cu+  Cu97  1  0.33336907  0.84113273  0.49881782  1
  Cu+  Cu98  1  0.33636418  0.82573718  0.82756587  1
  Cu+  Cu99  1  0.66410910  0.16433767  0.16225050  1
  Cu+  Cu100  1  0.66870901  0.17921421  0.49362623  1
  Cu+  Cu101  1  0.66764035  0.16850675  0.84166262  1
  Cu+  Cu102  1  0.66803948  0.49929586  0.16456113  1
  Cu+  Cu103  1  0.66443175  0.49889599  0.49824142  1
  Cu+  Cu104  1  0.66752422  0.50022791  0.83615645  1
  Cu+  Cu105  1  0.66901909  0.83462377  0.17332628  1
  Cu+  Cu106  1  0.66489325  0.82723053  0.49681096  1
  Cu+  Cu107  1  0.66641801  0.82937760  0.83727863  1
  Cu+  Cu108  1  0.26073807  0.07820204  0.74486461  1
  Cu+  Cu109  1  0.58556708  0.73532818  0.40693900  1
  Cu+  Cu110  1  0.40283493  0.40440567  0.26339035  1
  Cu+  Cu111  1  0.73424171  0.58832241  0.74251573  1
  Cu+  Cu112  1  0.26489537  0.73370769  0.73376016  1
  Cu+  Cu113  1  0.40681277  0.59453323  0.07800158  1
  Cu+  Cu114  1  0.93056136  0.73799467  0.06965115  1
  Cu+  Cu115  1  0.60039342  0.92917765  0.26066839  1
  Cu+  Cu116  1  0.41276605  0.07796813  0.58857232  1
  Cu+  Cu117  1  0.59531425  0.26519211  0.93221628  1
  Cu+  Cu118  1  0.06715290  0.93204502  0.74042468  1
  Cu+  Cu119  1  0.58684049  0.06623860  0.07245921  1
  Cu+  Cu120  1  0.40959934  0.92452627  0.74951541  1
  Cu+  Cu121  1  0.74400343  0.26840117  0.39762840  1
  Cu+  Cu122  1  0.25359192  0.59566551  0.92856365  1
  Cu+  Cu123  1  0.40017060  0.92692400  0.40049737  1
  Cu+  Cu124  1  0.59828936  0.07990654  0.41652526  1
  Cu+  Cu125  1  0.07338846  0.59135378  0.73783652  1
  Cu+  Cu126  1  0.59702837  0.26139861  0.59355023  1
  Cu+  Cu127  1  0.74335514  0.06626350  0.92405365  1
  Cu+  Cu128  1  0.93370719  0.59518425  0.26553258  1
  Cu+  Cu129  1  0.74051850  0.73354144  0.24925032  1
  Cu+  Cu130  1  0.25336289  0.26658334  0.59818556  1
  Cu+  Cu131  1  0.25895451  0.92120822  0.59368073  1
  Cu+  Cu132  1  0.73460964  0.74292259  0.59561781  1
  Te2-  Te133  1  0.25284224  0.25036858  0.08015782  1
  Te2-  Te134  1  0.24904641  0.25012270  0.41510835  1
  Te2-  Te135  1  0.25461787  0.25550644  0.75024192  1
  Te2-  Te136  1  0.25452431  0.58897143  0.08181856  1
  Te2-  Te137  1  0.25279248  0.58508691  0.41614048  1
  Te2-  Te138  1  0.25985958  0.58164366  0.74238501  1
  Te2-  Te139  1  0.25117733  0.91930952  0.07894634  1
  Te2-  Te140  1  0.24814962  0.92047681  0.40929039  1
  Te2-  Te141  1  0.25826674  0.92317807  0.74419441  1
  Te2-  Te142  1  0.58566920  0.25887096  0.08528887  1
  Te2-  Te143  1  0.58406846  0.26111079  0.40714341  1
  Te2-  Te144  1  0.58732896  0.25137211  0.74847664  1
  Te2-  Te145  1  0.58720821  0.58610112  0.08241119  1
  Te2-  Te146  1  0.58362193  0.58253760  0.41128573  1
  Te2-  Te147  1  0.58268140  0.58452730  0.74879766  1
  Te2-  Te148  1  0.58782235  0.91368518  0.08003220  1
  Te2-  Te149  1  0.59244562  0.92506628  0.41460544  1
  Te2-  Te150  1  0.59125458  0.91690785  0.75012534  1
  Te2-  Te151  1  0.91552263  0.25012787  0.07863153  1
  Te2-  Te152  1  0.91991698  0.25211878  0.41627682  1
  Te2-  Te153  1  0.91605702  0.25353141  0.74709058  1
  Te2-  Te154  1  0.92481661  0.58606097  0.07666656  1
  Te2-  Te155  1  0.91936131  0.58919720  0.41809727  1
  Te2-  Te156  1  0.92154967  0.58727235  0.74354298  1
  Te2-  Te157  1  0.92029697  0.92144997  0.08136690  1
  Te2-  Te158  1  0.91501756  0.91609529  0.41177442  1
  Te2-  Te159  1  0.91372282  0.91881729  0.74399950  1
  Te2-  Te160  1  0.25095983  0.07899705  0.25043849  1
  Te2-  Te161  1  0.25649877  0.07511629  0.59168983  1
  Te2-  Te162  1  0.24897319  0.08055151  0.91744852  1
  Te2-  Te163  1  0.25140391  0.41271280  0.25368775  1
  Te2-  Te164  1  0.25286025  0.41652372  0.58845271  1
  Te2-  Te165  1  0.25189903  0.41043184  0.92016341  1
  Te2-  Te166  1  0.25142172  0.74806627  0.25227943  1
  Te2-  Te167  1  0.25704404  0.74679869  0.58251543  1
  Te2-  Te168  1  0.25298177  0.74866606  0.91752879  1
  Te2-  Te169  1  0.59093422  0.08133576  0.25837056  1
  Te2-  Te170  1  0.58592228  0.08412209  0.57688304  1
  Te2-  Te171  1  0.58763138  0.07305469  0.92007226  1
  Te2-  Te172  1  0.59034802  0.41465652  0.25318096  1
  Te2-  Te173  1  0.58738473  0.41570800  0.58910661  1
  Te2-  Te174  1  0.58613643  0.41744134  0.92401267  1
  Te2-  Te175  1  0.58509186  0.74236409  0.25443522  1
  Te2-  Te176  1  0.58097892  0.74946262  0.58861070  1
  Te2-  Te177  1  0.58741051  0.74362329  0.92244278  1
  Te2-  Te178  1  0.91674877  0.08557408  0.25186951  1
  Te2-  Te179  1  0.91384629  0.07966756  0.58533908  1
  Te2-  Te180  1  0.91734849  0.08197321  0.91848012  1
  Te2-  Te181  1  0.92090939  0.41311663  0.24999248  1
  Te2-  Te182  1  0.91366295  0.41657031  0.58469020  1
  Te2-  Te183  1  0.92381436  0.41687913  0.91690011  1
  Te2-  Te184  1  0.92608550  0.74964171  0.25647594  1
  Te2-  Te185  1  0.91797682  0.74676020  0.58321788  1
  Te2-  Te186  1  0.92187292  0.74548121  0.91431697  1
  Te2-  Te187  1  0.08158290  0.25113961  0.25247720  1
  Te2-  Te188  1  0.07985101  0.24932980  0.58701249  1
  Te2-  Te189  1  0.07908211  0.25234840  0.91887193  1
  Te2-  Te190  1  0.08530844  0.58765386  0.25596331  1
  Te2-  Te191  1  0.07906705  0.58772837  0.58494801  1
  Te2-  Te192  1  0.08490437  0.58631810  0.91706373  1
  Te2-  Te193  1  0.07957546  0.91768589  0.24857338  1
  Te2-  Te194  1  0.07644828  0.91715245  0.58629426  1
  Te2-  Te195  1  0.08316980  0.91847980  0.91329192  1
  Te2-  Te196  1  0.41286883  0.24900955  0.25512894  1
  Te2-  Te197  1  0.41218540  0.25998137  0.58929723  1
  Te2-  Te198  1  0.41611627  0.24668992  0.91975514  1
  Te2-  Te199  1  0.41380609  0.58571835  0.25588381  1
  Te2-  Te200  1  0.41515324  0.58496500  0.58515572  1
  Te2-  Te201  1  0.41252527  0.58916698  0.92310800  1
  Te2-  Te202  1  0.41093738  0.92063071  0.25056618  1
  Te2-  Te203  1  0.41428032  0.92496365  0.59057480  1
  Te2-  Te204  1  0.41320381  0.91380421  0.91828354  1
  Te2-  Te205  1  0.74430716  0.25551388  0.24690013  1
  Te2-  Te206  1  0.74823912  0.25598699  0.58995981  1
  Te2-  Te207  1  0.74797888  0.26068941  0.92157293  1
  Te2-  Te208  1  0.74800770  0.58431034  0.25123336  1
  Te2-  Te209  1  0.73991386  0.58732156  0.58635114  1
  Te2-  Te210  1  0.74976248  0.58654983  0.92041890  1
  Te2-  Te211  1  0.75122742  0.92438466  0.25473206  1
  Te2-  Te212  1  0.74434081  0.91649559  0.58244628  1
  Te2-  Te213  1  0.74971047  0.91300020  0.92193293  1
  Te2-  Te214  1  0.07927375  0.08190252  0.08046963  1
  Te2-  Te215  1  0.08278670  0.07814510  0.41865481  1
  Te2-  Te216  1  0.07367502  0.08530256  0.74369013  1
  Te2-  Te217  1  0.08349321  0.41731283  0.08309947  1
  Te2-  Te218  1  0.08089024  0.41364593  0.41756467  1
  Te2-  Te219  1  0.08190456  0.41192130  0.74616396  1
  Te2-  Te220  1  0.08298511  0.74514402  0.07532536  1
  Te2-  Te221  1  0.08132799  0.74747570  0.41527220  1
  Te2-  Te222  1  0.07942866  0.74543170  0.74366612  1
  Te2-  Te223  1  0.41925174  0.08067755  0.08310115  1
  Te2-  Te224  1  0.40313567  0.08738990  0.41141747  1
  Te2-  Te225  1  0.41655858  0.07849779  0.74526426  1
  Te2-  Te226  1  0.41459281  0.41104679  0.08212328  1
  Te2-  Te227  1  0.41245879  0.41103764  0.41716291  1
  Te2-  Te228  1  0.41464199  0.41347599  0.75419233  1
  Te2-  Te229  1  0.41343544  0.74909437  0.08311217  1
  Te2-  Te230  1  0.41541991  0.75249142  0.41495033  1
  Te2-  Te231  1  0.41848201  0.74018152  0.74402283  1
  Te2-  Te232  1  0.74363328  0.07562451  0.07870950  1
  Te2-  Te233  1  0.74870083  0.08097204  0.41247747  1
  Te2-  Te234  1  0.74427764  0.08232327  0.75009787  1
  Te2-  Te235  1  0.75122060  0.41795427  0.07852055  1
  Te2-  Te236  1  0.74757314  0.41905837  0.40939746  1
  Te2-  Te237  1  0.74751560  0.41526283  0.74891380  1
  Te2-  Te238  1  0.74938416  0.74721863  0.08504821  1
  Te2-  Te239  1  0.74266910  0.74082274  0.40750094  1
  Te2-  Te240  1  0.74384464  0.74466081  0.74752090  1
