# generated using pymatgen
data_Ti27(Cu53Te54)2
_symmetry_space_group_name_H-M   'P 1'
_cell_length_a   17.90151478
_cell_length_b   17.90203408
_cell_length_c   17.90592847
_cell_angle_alpha   89.96476103
_cell_angle_beta   90.01889274
_cell_angle_gamma   89.98370951
_symmetry_Int_Tables_number   1
_chemical_formula_structural   Ti27(Cu53Te54)2
_chemical_formula_sum   'Ti27 Cu106 Te108'
_cell_volume   5738.37443258
_cell_formula_units_Z   1
loop_
 _symmetry_equiv_pos_site_id
 _symmetry_equiv_pos_as_xyz
  1  'x, y, z'
loop_
 _atom_type_symbol
 _atom_type_oxidation_number
  Ti4+  4.0
  Cu+  1.0
  Te2-  -2.0
loop_
 _atom_site_type_symbol
 _atom_site_label
 _atom_site_symmetry_multiplicity
 _atom_site_fract_x
 _atom_site_fract_y
 _atom_site_fract_z
 _atom_site_occupancy
  Ti4+  Ti0  1  0.16988921  0.16590749  0.16686953  1
  Ti4+  Ti1  1  0.16865108  0.16767183  0.50123620  1
  Ti4+  Ti2  1  0.16491910  0.16588359  0.83307661  1
  Ti4+  Ti3  1  0.16332105  0.49811781  0.16674835  1
  Ti4+  Ti4  1  0.16328965  0.50141858  0.50071422  1
  Ti4+  Ti5  1  0.16882320  0.49876891  0.83377428  1
  Ti4+  Ti6  1  0.16669801  0.83082726  0.16748616  1
  Ti4+  Ti7  1  0.16966434  0.83224773  0.50170739  1
  Ti4+  Ti8  1  0.16133487  0.83129918  0.83496160  1
  Ti4+  Ti9  1  0.49766268  0.16900674  0.17035114  1
  Ti4+  Ti10  1  0.49908136  0.16601506  0.50230345  1
  Ti4+  Ti11  1  0.50213411  0.16633470  0.83544062  1
  Ti4+  Ti12  1  0.49910118  0.50063457  0.16650102  1
  Ti4+  Ti13  1  0.50048766  0.50028155  0.49941730  1
  Ti4+  Ti14  1  0.50176177  0.50239190  0.83323465  1
  Ti4+  Ti15  1  0.50148520  0.83366889  0.16535180  1
  Ti4+  Ti16  1  0.50474142  0.83471458  0.49757290  1
  Ti4+  Ti17  1  0.49792990  0.83184037  0.83366950  1
  Ti4+  Ti18  1  0.83272568  0.16569853  0.16713066  1
  Ti4+  Ti19  1  0.83357228  0.16893822  0.49773038  1
  Ti4+  Ti20  1  0.83753236  0.16731184  0.83582387  1
  Ti4+  Ti21  1  0.83266962  0.49881975  0.16502448  1
  Ti4+  Ti22  1  0.83257498  0.50163874  0.49992687  1
  Ti4+  Ti23  1  0.83116219  0.49865827  0.83224788  1
  Ti4+  Ti24  1  0.83255142  0.83279618  0.16710985  1
  Ti4+  Ti25  1  0.83327738  0.83644754  0.49681535  1
  Ti4+  Ti26  1  0.83078398  0.83686107  0.83194298  1
  Cu+  Cu27  1  0.16927440  0.16877043  -0.00252879  1
  Cu+  Cu28  1  0.17474298  0.16580571  0.33467089  1
  Cu+  Cu29  1  0.16677571  0.16950277  0.66636313  1
  Cu+  Cu30  1  0.16368756  0.49360747  0.00017162  1
  Cu+  Cu31  1  0.16211926  0.49911324  0.33543274  1
  Cu+  Cu32  1  0.16531768  0.50539362  0.66688823  1
  Cu+  Cu33  1  0.16447877  0.83020106  0.00448663  1
  Cu+  Cu34  1  0.16855436  0.83091948  0.33329990  1
  Cu+  Cu35  1  0.16462301  0.83114585  0.67069696  1
  Cu+  Cu36  1  0.50003394  0.16514830  0.00661470  1
  Cu+  Cu37  1  0.49639902  0.16816925  0.33742401  1
  Cu+  Cu38  1  0.49817882  0.16606169  0.66860448  1
  Cu+  Cu39  1  0.50070301  0.50218675  0.00184297  1
  Cu+  Cu40  1  0.49672239  0.50063098  0.33120735  1
  Cu+  Cu41  1  0.50289480  0.50015799  0.66697039  1
  Cu+  Cu42  1  0.49502653  0.83383866  -0.00284544  1
  Cu+  Cu43  1  0.51001488  0.83547342  0.33001821  1
  Cu+  Cu44  1  0.50359246  0.83275810  0.66313810  1
  Cu+  Cu45  1  0.83271170  0.16475789  0.00172571  1
  Cu+  Cu46  1  0.83403713  0.16867761  0.33158362  1
  Cu+  Cu47  1  0.83674108  0.16848038  0.66327389  1
  Cu+  Cu48  1  0.83224458  0.49707692  0.00048697  1
  Cu+  Cu49  1  0.83561521  0.50212366  0.33150657  1
  Cu+  Cu50  1  0.83127927  0.50313769  0.66717142  1
  Cu+  Cu51  1  0.83166009  0.83507776  -0.00016045  1
  Cu+  Cu52  1  0.83313178  0.83459639  0.33300032  1
  Cu+  Cu53  1  0.82839528  0.83473595  0.65732651  1
  Cu+  Cu54  1  0.16674150  -0.00357892  0.16629932  1
  Cu+  Cu55  1  0.17217185  0.00225317  0.49963906  1
  Cu+  Cu56  1  0.15802928  -0.00242538  0.83306421  1
  Cu+  Cu57  1  0.16783918  0.33183876  0.16761304  1
  Cu+  Cu58  1  0.16450073  0.33645328  0.50034163  1
  Cu+  Cu59  1  0.16683679  0.33293379  0.84023973  1
  Cu+  Cu60  1  0.16616098  0.66558035  0.16666008  1
  Cu+  Cu61  1  0.16924979  0.66353770  0.50572634  1
  Cu+  Cu62  1  0.16352161  0.66440385  0.82678008  1
  Cu+  Cu63  1  0.50145293  0.00265665  0.16880011  1
  Cu+  Cu64  1  0.50489967  0.00034431  0.50209328  1
  Cu+  Cu65  1  0.50108553  -0.00298384  0.83585325  1
  Cu+  Cu66  1  0.49676092  0.33648969  0.16906271  1
  Cu+  Cu67  1  0.49618043  0.33189600  0.50264946  1
  Cu+  Cu68  1  0.50409670  0.33539279  0.83477267  1
  Cu+  Cu69  1  0.49825504  0.66334864  0.16489894  1
  Cu+  Cu70  1  0.50116162  0.66871550  0.49398616  1
  Cu+  Cu71  1  0.49833295  0.67237395  0.83444897  1
  Cu+  Cu72  1  0.83395231  0.00108468  0.16693712  1
  Cu+  Cu73  1  0.83436721  0.00368043  0.49416133  1
  Cu+  Cu74  1  0.84205073  0.00334908  0.83688800  1
  Cu+  Cu75  1  0.83169072  0.33184906  0.16501396  1
  Cu+  Cu76  1  0.83392312  0.33556246  0.49944427  1
  Cu+  Cu77  1  0.83144412  0.32931557  0.83011122  1
  Cu+  Cu78  1  0.83580902  0.66386810  0.16651191  1
  Cu+  Cu79  1  0.83328416  0.66905005  0.49837261  1
  Cu+  Cu80  1  0.82697498  0.66534984  0.83200889  1
  Cu+  Cu81  1  0.00199405  0.16483545  0.16610846  1
  Cu+  Cu82  1  0.00298270  0.17040988  0.49711834  1
  Cu+  Cu83  1  -0.00264904  0.16106922  0.83006883  1
  Cu+  Cu84  1  -0.00389538  0.50090167  0.16686410  1
  Cu+  Cu85  1  -0.00277428  0.50014687  0.50172861  1
  Cu+  Cu86  1  0.00255080  0.49594553  0.83434142  1
  Cu+  Cu87  1  0.00256717  0.83195973  0.16832416  1
  Cu+  Cu88  1  0.00102368  0.83518100  0.49780855  1
  Cu+  Cu89  1  -0.00336028  0.84235557  0.83145206  1
  Cu+  Cu90  1  0.33197766  0.17169053  0.17285243  1
  Cu+  Cu91  1  0.33257371  0.16305806  0.49850216  1
  Cu+  Cu92  1  0.33256502  0.16673919  0.83744781  1
  Cu+  Cu93  1  0.33320792  0.49911731  0.16519695  1
  Cu+  Cu94  1  0.33102692  0.50067569  0.49828212  1
  Cu+  Cu95  1  0.33806767  0.50053324  0.83418320  1
  Cu+  Cu96  1  0.33217531  0.83235831  0.16755365  1
  Cu+  Cu97  1  0.34012369  0.83287356  0.50083206  1
  Cu+  Cu98  1  0.32844852  0.82627738  0.83578973  1
  Cu+  Cu99  1  0.66477187  0.16702231  0.16611590  1
  Cu+  Cu100  1  0.66660640  0.16669329  0.50027915  1
  Cu+  Cu101  1  0.67479693  0.16777897  0.83536129  1
  Cu+  Cu102  1  0.66572224  0.49847306  0.16642284  1
  Cu+  Cu103  1  0.66677160  0.49990492  0.49862503  1
  Cu+  Cu104  1  0.66465618  0.49957951  0.82810684  1
  Cu+  Cu105  1  0.66652484  0.83689091  0.16660834  1
  Cu+  Cu106  1  0.66722281  0.83432802  0.49947689  1
  Cu+  Cu107  1  0.66509315  0.83004037  0.83584882  1
  Cu+  Cu108  1  0.26501395  0.26027292  0.92608263  1
  Cu+  Cu109  1  0.06956890  0.58653880  0.74098790  1
  Cu+  Cu110  1  0.41259880  0.74027500  0.58611099  1
  Cu+  Cu111  1  0.59108603  0.74528337  0.74040057  1
  Cu+  Cu112  1  0.74696566  0.73691390  0.93051090  1
  Cu+  Cu113  1  0.73778857  0.59049037  0.73858668  1
  Cu+  Cu114  1  0.26209141  0.06905211  0.40442434  1
  Cu+  Cu115  1  0.92763726  0.92488703  0.93342273  1
  Cu+  Cu116  1  0.07542814  0.92717035  0.73512533  1
  Cu+  Cu117  1  0.59473945  0.73598027  0.39932715  1
  Cu+  Cu118  1  0.58859797  0.40399033  0.73758894  1
  Cu+  Cu119  1  0.06995298  0.40391299  0.92974158  1
  Cu+  Cu120  1  0.74254034  0.73924979  0.58272313  1
  Cu+  Cu121  1  0.59204596  0.07619912  0.07956955  1
  Cu+  Cu122  1  0.92657082  0.59362875  0.26103847  1
  Cu+  Cu123  1  0.25591255  0.74061406  0.74330945  1
  Cu+  Cu124  1  0.26389625  0.58341119  0.59347963  1
  Cu+  Cu125  1  0.59605662  0.93241882  0.25896857  1
  Cu+  Cu126  1  0.39955462  0.73972637  0.93110201  1
  Cu+  Cu127  1  0.58934647  0.92045210  0.92600034  1
  Cu+  Cu128  1  0.92216571  0.07562128  0.73146922  1
  Cu+  Cu129  1  0.74542349  0.07654445  0.92688119  1
  Cu+  Cu130  1  0.59485371  0.93097455  0.59467493  1
  Cu+  Cu131  1  0.25647276  0.26600673  0.26617169  1
  Cu+  Cu132  1  0.74525947  0.25208002  0.73548791  1
  Te2-  Te133  1  0.25497067  0.25429684  0.07931721  1
  Te2-  Te134  1  0.25536845  0.25782133  0.41801418  1
  Te2-  Te135  1  0.25130610  0.25248046  0.75044900  1
  Te2-  Te136  1  0.24843489  0.58182772  0.08077367  1
  Te2-  Te137  1  0.24947063  0.58587136  0.41304324  1
  Te2-  Te138  1  0.25960998  0.58644395  0.74701572  1
  Te2-  Te139  1  0.25231196  0.91626390  0.08085741  1
  Te2-  Te140  1  0.25612285  0.91564189  0.41464307  1
  Te2-  Te141  1  0.25004781  0.91767194  0.75202061  1
  Te2-  Te142  1  0.58290667  0.25528374  0.08455548  1
  Te2-  Te143  1  0.58321331  0.25232482  0.41736303  1
  Te2-  Te144  1  0.58894814  0.25085750  0.74689948  1
  Te2-  Te145  1  0.58678025  0.58568463  0.08151191  1
  Te2-  Te146  1  0.58617296  0.58380940  0.41097553  1
  Te2-  Te147  1  0.58554355  0.59251587  0.74450769  1
  Te2-  Te148  1  0.58698565  0.92127930  0.07704074  1
  Te2-  Te149  1  0.59128634  0.92463434  0.41267092  1
  Te2-  Te150  1  0.58774746  0.91968615  0.74751127  1
  Te2-  Te151  1  0.91859271  0.25000507  0.08227175  1
  Te2-  Te152  1  0.91886842  0.25435870  0.41329859  1
  Te2-  Te153  1  0.92255047  0.25355979  0.74677963  1
  Te2-  Te154  1  0.91804153  0.58448075  0.07674425  1
  Te2-  Te155  1  0.91982238  0.58807507  0.41556872  1
  Te2-  Te156  1  0.91853739  0.58600366  0.74923207  1
  Te2-  Te157  1  0.92020398  0.91869050  0.08397404  1
  Te2-  Te158  1  0.92012815  0.92038127  0.41155228  1
  Te2-  Te159  1  0.91603050  0.92083779  0.73825745  1
  Te2-  Te160  1  0.25552810  0.07527004  0.25115079  1
  Te2-  Te161  1  0.25327434  0.08228100  0.58959678  1
  Te2-  Te162  1  0.24819718  0.07713091  0.91641166  1
  Te2-  Te163  1  0.25155799  0.41699731  0.25427523  1
  Te2-  Te164  1  0.25030188  0.41644433  0.58691910  1
  Te2-  Te165  1  0.25827425  0.41491521  0.92089986  1
  Te2-  Te166  1  0.25294190  0.74508656  0.25230219  1
  Te2-  Te167  1  0.25717679  0.74503723  0.58993008  1
  Te2-  Te168  1  0.24551183  0.74186170  0.92236442  1
  Te2-  Te169  1  0.58600204  0.08449947  0.25795437  1
  Te2-  Te170  1  0.58816546  0.08325606  0.58980272  1
  Te2-  Te171  1  0.58902351  0.07928309  0.92280949  1
  Te2-  Te172  1  0.58431242  0.41544251  0.25304422  1
  Te2-  Te173  1  0.58655409  0.41302156  0.58415064  1
  Te2-  Te174  1  0.58682502  0.41812281  0.92073311  1
  Te2-  Te175  1  0.58851505  0.74307481  0.24706904  1
  Te2-  Te176  1  0.59016638  0.74159461  0.58576474  1
  Te2-  Te177  1  0.58722630  0.74509190  0.92447911  1
  Te2-  Te178  1  0.91938546  0.08160950  0.25202815  1
  Te2-  Te179  1  0.92219926  0.08158698  0.57998585  1
  Te2-  Te180  1  0.92535601  0.08088705  0.92704114  1
  Te2-  Te181  1  0.91721346  0.41178755  0.25105527  1
  Te2-  Te182  1  0.91606346  0.41685799  0.58734664  1
  Te2-  Te183  1  0.91599680  0.41147528  0.91757245  1
  Te2-  Te184  1  0.91902644  0.74837727  0.25316702  1
  Te2-  Te185  1  0.91953609  0.75028072  0.58290988  1
  Te2-  Te186  1  0.91583868  0.74939478  0.91418059  1
  Te2-  Te187  1  0.08379500  0.24872637  0.25337977  1
  Te2-  Te188  1  0.08176132  0.25390359  0.58522583  1
  Te2-  Te189  1  0.07506253  0.24921284  0.91948040  1
  Te2-  Te190  1  0.07984855  0.58582297  0.25273590  1
  Te2-  Te191  1  0.07455064  0.58882780  0.58709684  1
  Te2-  Te192  1  0.08247046  0.58444940  0.91901595  1
  Te2-  Te193  1  0.08272780  0.91720677  0.25395795  1
  Te2-  Te194  1  0.08320314  0.92030905  0.58347877  1
  Te2-  Te195  1  0.07914959  0.91839624  0.92584209  1
  Te2-  Te196  1  0.41320071  0.25667993  0.25774120  1
  Te2-  Te197  1  0.41197271  0.24949067  0.58711113  1
  Te2-  Te198  1  0.41938755  0.25247682  0.92112007  1
  Te2-  Te199  1  0.41174257  0.58596279  0.25118596  1
  Te2-  Te200  1  0.41567606  0.58748143  0.58683827  1
  Te2-  Te201  1  0.41514755  0.58801972  0.92077024  1
  Te2-  Te202  1  0.41589312  0.91713349  0.25155421  1
  Te2-  Te203  1  0.41776277  0.92051712  0.58577847  1
  Te2-  Te204  1  0.40847012  0.91832006  0.91618600  1
  Te2-  Te205  1  0.74678176  0.25166616  0.25051993  1
  Te2-  Te206  1  0.74703220  0.25457607  0.58376803  1
  Te2-  Te207  1  0.75013992  0.25421339  0.92331191  1
  Te2-  Te208  1  0.74681064  0.58480828  0.25067983  1
  Te2-  Te209  1  0.74320683  0.58792199  0.58559440  1
  Te2-  Te210  1  0.74442900  0.58262931  0.92098059  1
  Te2-  Te211  1  0.74829828  0.92140999  0.25300267  1
  Te2-  Te212  1  0.74718082  0.92709904  0.58204931  1
  Te2-  Te213  1  0.74471456  0.92362796  0.92037498  1
  Te2-  Te214  1  0.08522856  0.08166306  0.08105080  1
  Te2-  Te215  1  0.08437734  0.08241882  0.41417179  1
  Te2-  Te216  1  0.07863676  0.07990272  0.74163599  1
  Te2-  Te217  1  0.07676824  0.41007647  0.08363383  1
  Te2-  Te218  1  0.07718398  0.41499477  0.41633603  1
  Te2-  Te219  1  0.08511096  0.41260855  0.74696955  1
  Te2-  Te220  1  0.07909635  0.74488271  0.08282762  1
  Te2-  Te221  1  0.08530544  0.74712704  0.41847314  1
  Te2-  Te222  1  0.07218425  0.74674605  0.74714957  1
  Te2-  Te223  1  0.41095839  0.08286554  0.08614097  1
  Te2-  Te224  1  0.41599999  0.07680396  0.41536011  1
  Te2-  Te225  1  0.41578651  0.08130508  0.75302247  1
  Te2-  Te226  1  0.41436497  0.41519265  0.07967990  1
  Te2-  Te227  1  0.41431495  0.41627441  0.41654241  1
  Te2-  Te228  1  0.41685294  0.41473629  0.74785839  1
  Te2-  Te229  1  0.41317828  0.74726869  0.08206192  1
  Te2-  Te230  1  0.41804538  0.75140496  0.40839540  1
  Te2-  Te231  1  0.41127805  0.74585432  0.74251832  1
  Te2-  Te232  1  0.74503585  0.07682511  0.08068810  1
  Te2-  Te233  1  0.74741183  0.08462044  0.41220978  1
  Te2-  Te234  1  0.75235903  0.08013232  0.74720742  1
  Te2-  Te235  1  0.74595208  0.41280579  0.08078750  1
  Te2-  Te236  1  0.74945094  0.41692985  0.41309258  1
  Te2-  Te237  1  0.74581875  0.41055763  0.74308530  1
  Te2-  Te238  1  0.74679690  0.74628910  0.08250230  1
  Te2-  Te239  1  0.74704197  0.74734416  0.41022373  1
  Te2-  Te240  1  0.74481012  0.74810061  0.74096403  1
