# generated using pymatgen
data_Ti27(Cu53Te54)2
_symmetry_space_group_name_H-M   'P 1'
_cell_length_a   17.85690470
_cell_length_b   17.85812604
_cell_length_c   17.85799972
_cell_angle_alpha   90.01563966
_cell_angle_beta   90.02980854
_cell_angle_gamma   89.97768807
_symmetry_Int_Tables_number   1
_chemical_formula_structural   Ti27(Cu53Te54)2
_chemical_formula_sum   'Ti27 Cu106 Te108'
_cell_volume   5694.75137919
_cell_formula_units_Z   1
loop_
 _symmetry_equiv_pos_site_id
 _symmetry_equiv_pos_as_xyz
  1  'x, y, z'
loop_
 _atom_type_symbol
 _atom_type_oxidation_number
  Ti4+  4.0
  Cu+  1.0
  Te2-  -2.0
loop_
 _atom_site_type_symbol
 _atom_site_label
 _atom_site_symmetry_multiplicity
 _atom_site_fract_x
 _atom_site_fract_y
 _atom_site_fract_z
 _atom_site_occupancy
  Ti4+  Ti0  1  0.16620449  0.16632586  0.16221898  1
  Ti4+  Ti1  1  0.16684081  0.16541127  0.50014739  1
  Ti4+  Ti2  1  0.16646250  0.16697060  0.83001841  1
  Ti4+  Ti3  1  0.16837169  0.50135567  0.16644253  1
  Ti4+  Ti4  1  0.16572263  0.49974490  0.50152790  1
  Ti4+  Ti5  1  0.16443288  0.49852829  0.83394038  1
  Ti4+  Ti6  1  0.16651036  0.83495515  0.16726530  1
  Ti4+  Ti7  1  0.16728531  0.83439903  0.50222932  1
  Ti4+  Ti8  1  0.16813884  0.83147929  0.83438886  1
  Ti4+  Ti9  1  0.49968241  0.16885744  0.16374852  1
  Ti4+  Ti10  1  0.50024899  0.16691496  0.50064559  1
  Ti4+  Ti11  1  0.50031709  0.16795521  0.83280281  1
  Ti4+  Ti12  1  0.49748507  0.49881900  0.16843570  1
  Ti4+  Ti13  1  0.50185819  0.50063181  0.50023305  1
  Ti4+  Ti14  1  0.50208701  0.49948494  0.83607819  1
  Ti4+  Ti15  1  0.49975853  0.83411580  0.16371301  1
  Ti4+  Ti16  1  0.49989649  0.83366775  0.49910300  1
  Ti4+  Ti17  1  0.49978150  0.83792539  0.83274709  1
  Ti4+  Ti18  1  0.83140364  0.16653651  0.16740065  1
  Ti4+  Ti19  1  0.83605060  0.16621452  0.50008221  1
  Ti4+  Ti20  1  0.83257366  0.16519396  0.83366460  1
  Ti4+  Ti21  1  0.83407708  0.50047151  0.16922810  1
  Ti4+  Ti22  1  0.83354624  0.49755807  0.49931987  1
  Ti4+  Ti23  1  0.83171342  0.49956313  0.83238908  1
  Ti4+  Ti24  1  0.83320950  0.83268358  0.16716272  1
  Ti4+  Ti25  1  0.83357083  0.83274338  0.50086838  1
  Ti4+  Ti26  1  0.83373229  0.83307246  0.83313005  1
  Cu+  Cu27  1  0.16124147  0.16415993  -0.00443950  1
  Cu+  Cu28  1  0.16620226  0.16596332  0.32834946  1
  Cu+  Cu29  1  0.17407856  0.16362978  0.66606430  1
  Cu+  Cu30  1  0.16543774  0.50645922  0.00157996  1
  Cu+  Cu31  1  0.16794354  0.50265686  0.33537255  1
  Cu+  Cu32  1  0.16145200  0.49505865  0.66676449  1
  Cu+  Cu33  1  0.17201025  0.83203960  0.00316105  1
  Cu+  Cu34  1  0.16665112  0.83975034  0.33559881  1
  Cu+  Cu35  1  0.16528899  0.82912572  0.66712496  1
  Cu+  Cu36  1  0.50623672  0.16875789  -0.00122435  1
  Cu+  Cu37  1  0.49883550  0.16715101  0.33527392  1
  Cu+  Cu38  1  0.49899281  0.16730975  0.66602873  1
  Cu+  Cu39  1  0.49840048  0.49390695  0.00228156  1
  Cu+  Cu40  1  0.49748107  0.49980768  0.33442429  1
  Cu+  Cu41  1  0.50360654  0.49873548  0.66806426  1
  Cu+  Cu42  1  0.49308453  0.83994633  -0.00168789  1
  Cu+  Cu43  1  0.49907646  0.83119292  0.33222173  1
  Cu+  Cu44  1  0.50252711  0.83553878  0.66588327  1
  Cu+  Cu45  1  0.83407744  0.16696986  0.00212523  1
  Cu+  Cu46  1  0.83435407  0.16888227  0.33467785  1
  Cu+  Cu47  1  0.83089101  0.16407048  0.66608650  1
  Cu+  Cu48  1  0.83287656  0.50164287  -0.00332197  1
  Cu+  Cu49  1  0.83016047  0.49641296  0.33462897  1
  Cu+  Cu50  1  0.83268420  0.50120087  0.66675320  1
  Cu+  Cu51  1  0.83325100  0.83250571  -0.00027976  1
  Cu+  Cu52  1  0.83436650  0.83337550  0.33230179  1
  Cu+  Cu53  1  0.83497156  0.83355456  0.66781680  1
  Cu+  Cu54  1  0.16248851  0.00394145  0.17035442  1
  Cu+  Cu55  1  0.16011802  -0.00236866  0.49846537  1
  Cu+  Cu56  1  0.16728429  -0.00006833  0.83189152  1
  Cu+  Cu57  1  0.17324789  0.33172484  0.16517066  1
  Cu+  Cu58  1  0.16706176  0.33391953  0.50541913  1
  Cu+  Cu59  1  0.16487963  0.33278074  0.83049503  1
  Cu+  Cu60  1  0.16645021  0.66729535  0.16124199  1
  Cu+  Cu61  1  0.16503380  0.66842357  0.50469054  1
  Cu+  Cu62  1  0.17036905  0.66159348  0.83519757  1
  Cu+  Cu63  1  0.49956408  0.00143144  0.15778521  1
  Cu+  Cu64  1  0.49919044  -0.00015168  0.49839615  1
  Cu+  Cu65  1  0.50100660  0.00119356  0.83183811  1
  Cu+  Cu66  1  0.49874915  0.33810087  0.16520177  1
  Cu+  Cu67  1  0.50313114  0.33256228  0.49931721  1
  Cu+  Cu68  1  0.50449418  0.33352657  0.83829860  1
  Cu+  Cu69  1  0.49790621  0.66600393  0.17075340  1
  Cu+  Cu70  1  0.50079628  0.66673807  0.50044826  1
  Cu+  Cu71  1  0.49936214  0.66963148  0.83452083  1
  Cu+  Cu72  1  0.83229586  -0.00297143  0.16635659  1
  Cu+  Cu73  1  0.83178609  0.00162703  0.50391031  1
  Cu+  Cu74  1  0.83373983  -0.00162020  0.83186508  1
  Cu+  Cu75  1  0.83031291  0.33256197  0.17261926  1
  Cu+  Cu76  1  0.84120469  0.33259827  0.49492106  1
  Cu+  Cu77  1  0.83276070  0.33233001  0.83237805  1
  Cu+  Cu78  1  0.83556906  0.66856847  0.16715762  1
  Cu+  Cu79  1  0.83309338  0.66418331  0.49683473  1
  Cu+  Cu80  1  0.83192250  0.66727419  0.83332888  1
  Cu+  Cu81  1  -0.00274642  0.16414036  0.16539550  1
  Cu+  Cu82  1  0.00200437  0.16450884  0.50205388  1
  Cu+  Cu83  1  -0.00133891  0.16442476  0.83423943  1
  Cu+  Cu84  1  0.00333731  0.50397708  0.16442952  1
  Cu+  Cu85  1  -0.00032768  0.49228418  0.50093772  1
  Cu+  Cu86  1  -0.00416638  0.49952981  0.83261880  1
  Cu+  Cu87  1  -0.00297971  0.83336597  0.16820295  1
  Cu+  Cu88  1  0.00044130  0.83320622  0.50161047  1
  Cu+  Cu89  1  0.00020516  0.83289067  0.83369548  1
  Cu+  Cu90  1  0.33086533  0.17357213  0.16434164  1
  Cu+  Cu91  1  0.33303534  0.17094089  0.50221904  1
  Cu+  Cu92  1  0.33239724  0.16480552  0.82645992  1
  Cu+  Cu93  1  0.33583201  0.49731023  0.17159242  1
  Cu+  Cu94  1  0.33419893  0.50336582  0.49949245  1
  Cu+  Cu95  1  0.33217962  0.49901628  0.83835690  1
  Cu+  Cu96  1  0.33470226  0.83288647  0.16407964  1
  Cu+  Cu97  1  0.33268644  0.83460434  0.50083578  1
  Cu+  Cu98  1  0.33636472  0.83230115  0.83624017  1
  Cu+  Cu99  1  0.66438944  0.16400487  0.16356020  1
  Cu+  Cu100  1  0.66869599  0.16491062  0.50299448  1
  Cu+  Cu101  1  0.66701639  0.17089227  0.83475601  1
  Cu+  Cu102  1  0.66877463  0.49728274  0.17117572  1
  Cu+  Cu103  1  0.66873449  0.50424535  0.49637746  1
  Cu+  Cu104  1  0.66707183  0.49849421  0.82839781  1
  Cu+  Cu105  1  0.66859163  0.83372798  0.16563701  1
  Cu+  Cu106  1  0.66456942  0.83405201  0.49853185  1
  Cu+  Cu107  1  0.66693808  0.83572110  0.83170132  1
  Cu+  Cu108  1  0.73950077  0.40196244  0.26391118  1
  Cu+  Cu109  1  0.07128934  0.73852296  0.59522905  1
  Cu+  Cu110  1  0.07469104  0.07189750  0.59524864  1
  Cu+  Cu111  1  0.26256497  0.06630683  0.73927647  1
  Cu+  Cu112  1  0.25771931  0.25776023  0.26046701  1
  Cu+  Cu113  1  0.26184759  0.74034561  0.07887716  1
  Cu+  Cu114  1  0.73990919  0.59705057  0.40549821  1
  Cu+  Cu115  1  0.06759314  0.07884545  0.25785060  1
  Cu+  Cu116  1  0.06867137  0.59699504  0.07164174  1
  Cu+  Cu117  1  0.59941821  0.41449306  0.07691226  1
  Cu+  Cu118  1  0.59798209  0.26029900  0.92689985  1
  Cu+  Cu119  1  0.26288167  0.26343311  0.59439421  1
  Cu+  Cu120  1  0.26070721  0.58817327  0.92711355  1
  Cu+  Cu121  1  0.73715769  0.07224488  0.59513300  1
  Cu+  Cu122  1  0.40780157  0.40567878  0.26661013  1
  Cu+  Cu123  1  0.07110045  0.07084435  0.92345825  1
  Cu+  Cu124  1  0.59485771  0.40671856  0.73583366  1
  Cu+  Cu125  1  0.41266446  0.74135005  0.92393893  1
  Cu+  Cu126  1  0.06788799  0.92151119  0.40759925  1
  Cu+  Cu127  1  0.40144782  0.93307710  0.07250829  1
  Cu+  Cu128  1  0.40080267  0.40006231  0.92265739  1
  Cu+  Cu129  1  0.93084561  0.40716371  0.40118858  1
  Cu+  Cu130  1  0.06927042  0.40297852  0.59618441  1
  Cu+  Cu131  1  0.40517995  0.74382181  0.26374431  1
  Cu+  Cu132  1  0.59666612  0.06949130  0.07127999  1
  Te2-  Te133  1  0.24995538  0.25102291  0.07190833  1
  Te2-  Te134  1  0.25055326  0.25359673  0.41358965  1
  Te2-  Te135  1  0.25479235  0.25761557  0.74625317  1
  Te2-  Te136  1  0.26129226  0.58615795  0.08163530  1
  Te2-  Te137  1  0.25010092  0.58824896  0.41794300  1
  Te2-  Te138  1  0.25160090  0.57987767  0.74584891  1
  Te2-  Te139  1  0.25035111  0.92550723  0.08265104  1
  Te2-  Te140  1  0.25407824  0.92192055  0.41646981  1
  Te2-  Te141  1  0.25387592  0.91469882  0.74679371  1
  Te2-  Te142  1  0.58915910  0.25889233  0.08091697  1
  Te2-  Te143  1  0.58790532  0.24965561  0.41536775  1
  Te2-  Te144  1  0.58657009  0.25311932  0.74447824  1
  Te2-  Te145  1  0.58451462  0.58377826  0.08397575  1
  Te2-  Te146  1  0.58440595  0.58777497  0.41096045  1
  Te2-  Te147  1  0.58416063  0.58869261  0.75002040  1
  Te2-  Te148  1  0.58958986  0.91754553  0.07628308  1
  Te2-  Te149  1  0.58388505  0.91875456  0.41161951  1
  Te2-  Te150  1  0.58687947  0.92154144  0.74658970  1
  Te2-  Te151  1  0.91709390  0.25357005  0.08440890  1
  Te2-  Te152  1  0.92614822  0.25018831  0.41153972  1
  Te2-  Te153  1  0.91761280  0.24916773  0.74761456  1
  Te2-  Te154  1  0.91691346  0.58663155  0.07958758  1
  Te2-  Te155  1  0.92170059  0.58170006  0.41370338  1
  Te2-  Te156  1  0.91714723  0.58634714  0.74763266  1
  Te2-  Te157  1  0.91868633  0.91828614  0.08052869  1
  Te2-  Te158  1  0.91660777  0.92113119  0.41537099  1
  Te2-  Te159  1  0.92091882  0.91871270  0.74766131  1
  Te2-  Te160  1  0.25601238  0.08200198  0.24946636  1
  Te2-  Te161  1  0.25501585  0.07478686  0.58191203  1
  Te2-  Te162  1  0.25331565  0.08215651  0.91709934  1
  Te2-  Te163  1  0.25303802  0.41342762  0.25733677  1
  Te2-  Te164  1  0.25667471  0.41685083  0.58784093  1
  Te2-  Te165  1  0.24775066  0.41053971  0.92266069  1
  Te2-  Te166  1  0.25009828  0.74859264  0.25509414  1
  Te2-  Te167  1  0.25479606  0.74771606  0.58699961  1
  Te2-  Te168  1  0.25641731  0.74365878  0.92232250  1
  Te2-  Te169  1  0.58072421  0.08139639  0.25032912  1
  Te2-  Te170  1  0.58439305  0.07887699  0.58749938  1
  Te2-  Te171  1  0.58824329  0.07933923  0.91707048  1
  Te2-  Te172  1  0.58524908  0.41226370  0.25718087  1
  Te2-  Te173  1  0.59035440  0.41445129  0.58303905  1
  Te2-  Te174  1  0.59403948  0.41434592  0.92375932  1
  Te2-  Te175  1  0.58663562  0.74889507  0.24952330  1
  Te2-  Te176  1  0.58572339  0.74837614  0.58500463  1
  Te2-  Te177  1  0.58465815  0.75271231  0.92029185  1
  Te2-  Te178  1  0.91558374  0.07879242  0.25383808  1
  Te2-  Te179  1  0.92151227  0.07892375  0.58871650  1
  Te2-  Te180  1  0.91738804  0.07837742  0.92085868  1
  Te2-  Te181  1  0.92442984  0.41442483  0.25055170  1
  Te2-  Te182  1  0.91732820  0.41080575  0.59086202  1
  Te2-  Te183  1  0.91724867  0.41354327  0.91841993  1
  Te2-  Te184  1  0.91996771  0.74702630  0.25415834  1
  Te2-  Te185  1  0.91808941  0.74457198  0.58586157  1
  Te2-  Te186  1  0.91896419  0.74700043  0.91884784  1
  Te2-  Te187  1  0.07998552  0.25354519  0.24789146  1
  Te2-  Te188  1  0.08056985  0.25031762  0.58979841  1
  Te2-  Te189  1  0.07952568  0.25336221  0.91564828  1
  Te2-  Te190  1  0.08436864  0.58770412  0.25247779  1
  Te2-  Te191  1  0.07669356  0.58463480  0.58702248  1
  Te2-  Te192  1  0.07574274  0.58705828  0.91782053  1
  Te2-  Te193  1  0.07631544  0.92074154  0.25332206  1
  Te2-  Te194  1  0.07827605  0.91917331  0.59198330  1
  Te2-  Te195  1  0.08313916  0.91665398  0.92067978  1
  Te2-  Te196  1  0.41402945  0.25439923  0.25438855  1
  Te2-  Te197  1  0.41600619  0.25626169  0.58766060  1
  Te2-  Te198  1  0.41029857  0.24935103  0.91923542  1
  Te2-  Te199  1  0.41121556  0.58789792  0.25635417  1
  Te2-  Te200  1  0.41723540  0.58446617  0.58744178  1
  Te2-  Te201  1  0.41551470  0.58724211  0.92399237  1
  Te2-  Te202  1  0.41559938  0.92136416  0.24939670  1
  Te2-  Te203  1  0.41503427  0.91907544  0.58535454  1
  Te2-  Te204  1  0.40979667  0.92807012  0.91751411  1
  Te2-  Te205  1  0.74242350  0.24892663  0.25500751  1
  Te2-  Te206  1  0.75189790  0.25510642  0.58311453  1
  Te2-  Te207  1  0.75016468  0.25387965  0.92181160  1
  Te2-  Te208  1  0.74727252  0.58914372  0.25259730  1
  Te2-  Te209  1  0.74882804  0.58574758  0.58544752  1
  Te2-  Te210  1  0.74494045  0.58523261  0.91674270  1
  Te2-  Te211  1  0.74682443  0.91861075  0.25315417  1
  Te2-  Te212  1  0.74619519  0.91709136  0.58703379  1
  Te2-  Te213  1  0.74814237  0.91890646  0.91884330  1
  Te2-  Te214  1  0.07689818  0.07790973  0.07771594  1
  Te2-  Te215  1  0.07800042  0.08063545  0.40985664  1
  Te2-  Te216  1  0.07862806  0.07920594  0.74540772  1
  Te2-  Te217  1  0.08490613  0.41383787  0.08191737  1
  Te2-  Te218  1  0.08432330  0.41091076  0.41154699  1
  Te2-  Te219  1  0.07554502  0.41164686  0.74925817  1
  Te2-  Te220  1  0.07777351  0.75093441  0.07957432  1
  Te2-  Te221  1  0.08233887  0.74849675  0.41347121  1
  Te2-  Te222  1  0.08167136  0.74350514  0.75130706  1
  Te2-  Te223  1  0.41041662  0.08742500  0.07626094  1
  Te2-  Te224  1  0.41236461  0.08331941  0.41615276  1
  Te2-  Te225  1  0.41620649  0.07923359  0.74463144  1
  Te2-  Te226  1  0.40748400  0.41162437  0.07925817  1
  Te2-  Te227  1  0.41320218  0.41292591  0.41769306  1
  Te2-  Te228  1  0.41529715  0.41411085  0.75140536  1
  Te2-  Te229  1  0.41451694  0.74184952  0.07700703  1
  Te2-  Te230  1  0.41137507  0.74589097  0.41555415  1
  Te2-  Te231  1  0.41581767  0.74984157  0.74597201  1
  Te2-  Te232  1  0.74857448  0.07862252  0.07944576  1
  Te2-  Te233  1  0.74931987  0.08158967  0.41408174  1
  Te2-  Te234  1  0.74404674  0.07968100  0.74934358  1
  Te2-  Te235  1  0.75137669  0.41408465  0.07986538  1
  Te2-  Te236  1  0.74413180  0.40783474  0.41581644  1
  Te2-  Te237  1  0.74806854  0.41102003  0.74376612  1
  Te2-  Te238  1  0.74801856  0.74651795  0.08080532  1
  Te2-  Te239  1  0.74706484  0.74950886  0.41303545  1
  Te2-  Te240  1  0.74705419  0.74847790  0.74724197  1
