# generated using pymatgen
data_Ti27(Cu53Te54)2
_symmetry_space_group_name_H-M   'P 1'
_cell_length_a   17.90055716
_cell_length_b   17.90547269
_cell_length_c   17.89829276
_cell_angle_alpha   89.99835463
_cell_angle_beta   90.03304890
_cell_angle_gamma   89.99882395
_symmetry_Int_Tables_number   1
_chemical_formula_structural   Ti27(Cu53Te54)2
_chemical_formula_sum   'Ti27 Cu106 Te108'
_cell_volume   5736.72291912
_cell_formula_units_Z   1
loop_
 _symmetry_equiv_pos_site_id
 _symmetry_equiv_pos_as_xyz
  1  'x, y, z'
loop_
 _atom_type_symbol
 _atom_type_oxidation_number
  Ti4+  4.0
  Cu+  1.0
  Te2-  -2.0
loop_
 _atom_site_type_symbol
 _atom_site_label
 _atom_site_symmetry_multiplicity
 _atom_site_fract_x
 _atom_site_fract_y
 _atom_site_fract_z
 _atom_site_occupancy
  Ti4+  Ti0  1  0.16541105  0.17029991  0.16283560  1
  Ti4+  Ti1  1  0.16892453  0.16701338  0.50202365  1
  Ti4+  Ti2  1  0.16601111  0.16332269  0.84088128  1
  Ti4+  Ti3  1  0.16919224  0.49995236  0.16718197  1
  Ti4+  Ti4  1  0.16695115  0.50089255  0.49887375  1
  Ti4+  Ti5  1  0.16663145  0.49788812  0.83064281  1
  Ti4+  Ti6  1  0.16366863  0.83183940  0.16653324  1
  Ti4+  Ti7  1  0.16477952  0.83726002  0.50033218  1
  Ti4+  Ti8  1  0.16561155  0.83268223  0.83322934  1
  Ti4+  Ti9  1  0.49743857  0.16442549  0.16611063  1
  Ti4+  Ti10  1  0.50059683  0.16843363  0.49919064  1
  Ti4+  Ti11  1  0.49843745  0.16861637  0.83501870  1
  Ti4+  Ti12  1  0.50198556  0.50159408  0.16675375  1
  Ti4+  Ti13  1  0.49984452  0.50164761  0.49937895  1
  Ti4+  Ti14  1  0.50224821  0.50072187  0.83305360  1
  Ti4+  Ti15  1  0.50104221  0.83350305  0.16810984  1
  Ti4+  Ti16  1  0.49992408  0.83520919  0.50203384  1
  Ti4+  Ti17  1  0.50000831  0.83380881  0.83378444  1
  Ti4+  Ti18  1  0.83127985  0.16861541  0.16395847  1
  Ti4+  Ti19  1  0.83372459  0.16566480  0.50161246  1
  Ti4+  Ti20  1  0.83163340  0.16670584  0.83575716  1
  Ti4+  Ti21  1  0.83629535  0.49950749  0.16592021  1
  Ti4+  Ti22  1  0.83238262  0.49437071  0.49763696  1
  Ti4+  Ti23  1  0.83747474  0.49861650  0.83020702  1
  Ti4+  Ti24  1  0.83265880  0.83387059  0.16815579  1
  Ti4+  Ti25  1  0.83231366  0.83331193  0.50011290  1
  Ti4+  Ti26  1  0.83130805  0.83048456  0.83251658  1
  Cu+  Cu27  1  0.17547935  0.16282688  0.00157048  1
  Cu+  Cu28  1  0.16875527  0.17130960  0.33432997  1
  Cu+  Cu29  1  0.16660906  0.16466428  0.67160574  1
  Cu+  Cu30  1  0.16698899  0.50005153  0.00122877  1
  Cu+  Cu31  1  0.16886024  0.49898970  0.33310953  1
  Cu+  Cu32  1  0.16348638  0.49658405  0.66220665  1
  Cu+  Cu33  1  0.16613586  0.83041631  -0.00252469  1
  Cu+  Cu34  1  0.16478140  0.83662015  0.33297276  1
  Cu+  Cu35  1  0.16756860  0.83568271  0.66660724  1
  Cu+  Cu36  1  0.49474667  0.16397679  0.00319082  1
  Cu+  Cu37  1  0.49713773  0.16729015  0.33206526  1
  Cu+  Cu38  1  0.49761876  0.16690858  0.66325196  1
  Cu+  Cu39  1  0.50312681  0.50315741  -0.00054648  1
  Cu+  Cu40  1  0.50269086  0.49892590  0.33386791  1
  Cu+  Cu41  1  0.50080285  0.50243664  0.66523047  1
  Cu+  Cu42  1  0.49940504  0.83281003  0.00145938  1
  Cu+  Cu43  1  0.50076012  0.83562050  0.33495465  1
  Cu+  Cu44  1  0.50237181  0.83397749  0.66996959  1
  Cu+  Cu45  1  0.83931666  0.16646831  0.00065528  1
  Cu+  Cu46  1  0.83100780  0.16785690  0.33274860  1
  Cu+  Cu47  1  0.83002467  0.16926046  0.67188563  1
  Cu+  Cu48  1  0.83476835  0.49702464  -0.00284403  1
  Cu+  Cu49  1  0.83267850  0.49811481  0.33326049  1
  Cu+  Cu50  1  0.83897630  0.50088424  0.65886401  1
  Cu+  Cu51  1  0.83118277  0.83100240  0.00074649  1
  Cu+  Cu52  1  0.83086167  0.83363629  0.33396276  1
  Cu+  Cu53  1  0.83361996  0.83298805  0.66575959  1
  Cu+  Cu54  1  0.16395196  -0.00267415  0.16496295  1
  Cu+  Cu55  1  0.16635893  0.00337807  0.50295767  1
  Cu+  Cu56  1  0.16095287  -0.00317854  0.83720555  1
  Cu+  Cu57  1  0.16417459  0.33845989  0.17132449  1
  Cu+  Cu58  1  0.16852968  0.33506341  0.50291559  1
  Cu+  Cu59  1  0.16354596  0.32876626  0.83730284  1
  Cu+  Cu60  1  0.16699762  0.66416287  0.16462397  1
  Cu+  Cu61  1  0.16553470  0.67284160  0.49654054  1
  Cu+  Cu62  1  0.16835249  0.66590798  0.83107980  1
  Cu+  Cu63  1  0.50368538  -0.00274278  0.16619846  1
  Cu+  Cu64  1  0.49945838  0.00154626  0.50193111  1
  Cu+  Cu65  1  0.49739789  0.00065924  0.83557758  1
  Cu+  Cu66  1  0.49662334  0.33296997  0.16886033  1
  Cu+  Cu67  1  0.50263070  0.33621379  0.49512050  1
  Cu+  Cu68  1  0.50291787  0.33794467  0.83264015  1
  Cu+  Cu69  1  0.50302590  0.66736471  0.16895374  1
  Cu+  Cu70  1  0.49886209  0.66749086  0.50002925  1
  Cu+  Cu71  1  0.50185398  0.66747526  0.83072965  1
  Cu+  Cu72  1  0.83069300  0.00095394  0.16445808  1
  Cu+  Cu73  1  0.83470366  -0.00040911  0.50262677  1
  Cu+  Cu74  1  0.82757221  -0.00420023  0.83424636  1
  Cu+  Cu75  1  0.83305310  0.33098962  0.17007008  1
  Cu+  Cu76  1  0.83193755  0.32933463  0.49715921  1
  Cu+  Cu77  1  0.82861514  0.33277315  0.83601450  1
  Cu+  Cu78  1  0.83686991  0.66816731  0.16584482  1
  Cu+  Cu79  1  0.82945325  0.66160206  0.49821120  1
  Cu+  Cu80  1  0.83882745  0.66754141  0.82511979  1
  Cu+  Cu81  1  -0.00546807  0.17162375  0.16424832  1
  Cu+  Cu82  1  0.00286168  0.16264376  0.50286080  1
  Cu+  Cu83  1  -0.00110467  0.16741962  0.84285692  1
  Cu+  Cu84  1  0.00473849  0.50194381  0.16622664  1
  Cu+  Cu85  1  -0.00128026  0.49537297  0.50151623  1
  Cu+  Cu86  1  0.00890554  0.49868531  0.82850493  1
  Cu+  Cu87  1  -0.00371470  0.83038053  0.16501133  1
  Cu+  Cu88  1  -0.00323148  0.83863129  0.50292593  1
  Cu+  Cu89  1  -0.00346854  0.83036531  0.83215033  1
  Cu+  Cu90  1  0.33175192  0.16954397  0.15692186  1
  Cu+  Cu91  1  0.33651035  0.16789198  0.50317647  1
  Cu+  Cu92  1  0.33520484  0.16305867  0.84505702  1
  Cu+  Cu93  1  0.33509349  0.50095943  0.16842283  1
  Cu+  Cu94  1  0.33404848  0.50533225  0.49813403  1
  Cu+  Cu95  1  0.33628716  0.50109352  0.83142132  1
  Cu+  Cu96  1  0.33492736  0.83242480  0.16890352  1
  Cu+  Cu97  1  0.33176114  0.83776724  0.49987023  1
  Cu+  Cu98  1  0.33112383  0.83510147  0.83244504  1
  Cu+  Cu99  1  0.66233497  0.16260188  0.16350336  1
  Cu+  Cu100  1  0.66631935  0.16712606  0.49832390  1
  Cu+  Cu101  1  0.66672469  0.17236206  0.83181947  1
  Cu+  Cu102  1  0.66849756  0.50089748  0.16571670  1
  Cu+  Cu103  1  0.66350385  0.49435839  0.49321892  1
  Cu+  Cu104  1  0.67159025  0.49826980  0.83434683  1
  Cu+  Cu105  1  0.66799903  0.83498020  0.16998241  1
  Cu+  Cu106  1  0.66717095  0.83307753  0.50095009  1
  Cu+  Cu107  1  0.66317108  0.82985041  0.83013189  1
  Cu+  Cu108  1  0.25859838  0.06552389  0.08229258  1
  Cu+  Cu109  1  0.92628371  0.59297668  0.57902496  1
  Cu+  Cu110  1  0.92514941  0.07134090  0.08129313  1
  Cu+  Cu111  1  0.92201234  0.25570968  0.26456432  1
  Cu+  Cu112  1  0.92230386  0.26359060  0.92635060  1
  Cu+  Cu113  1  0.07264706  0.24915904  0.74379837  1
  Cu+  Cu114  1  0.08928832  0.59707016  0.73307924  1
  Cu+  Cu115  1  0.40945449  0.07225447  0.59033540  1
  Cu+  Cu116  1  0.41082057  0.26740394  0.07531583  1
  Cu+  Cu117  1  0.92141146  0.73977906  0.07224424  1
  Cu+  Cu118  1  0.92146412  0.92899195  0.59633831  1
  Cu+  Cu119  1  0.59093806  0.73709361  0.73827238  1
  Cu+  Cu120  1  0.07068299  0.06664515  0.92829887  1
  Cu+  Cu121  1  0.41149725  0.06654805  0.92904759  1
  Cu+  Cu122  1  0.07805416  0.59210093  0.07257575  1
  Cu+  Cu123  1  0.73578360  0.26311864  0.73796901  1
  Cu+  Cu124  1  0.26333350  0.26462081  0.92111336  1
  Cu+  Cu125  1  0.59228978  0.40400855  0.40115398  1
  Cu+  Cu126  1  0.08040072  0.40839047  0.92939052  1
  Cu+  Cu127  1  0.07188983  0.40566167  0.58937025  1
  Cu+  Cu128  1  0.59315996  0.06972060  0.07219200  1
  Cu+  Cu129  1  0.07424167  0.41545802  0.26312794  1
  Cu+  Cu130  1  0.73825776  0.40783262  0.92930880  1
  Cu+  Cu131  1  0.92815065  0.74672978  0.73509641  1
  Cu+  Cu132  1  0.07486420  0.07294804  0.59380832  1
  Te2-  Te133  1  0.25120832  0.26314090  0.07872771  1
  Te2-  Te134  1  0.25379211  0.25328059  0.41810114  1
  Te2-  Te135  1  0.25458315  0.24773966  0.75535846  1
  Te2-  Te136  1  0.25533677  0.58481442  0.08052364  1
  Te2-  Te137  1  0.24960024  0.58799230  0.41395481  1
  Te2-  Te138  1  0.25175273  0.58253319  0.74422564  1
  Te2-  Te139  1  0.25229400  0.91405446  0.07988724  1
  Te2-  Te140  1  0.24955139  0.92233532  0.41508096  1
  Te2-  Te141  1  0.24915263  0.92124818  0.74971293  1
  Te2-  Te142  1  0.58233465  0.25249383  0.08133879  1
  Te2-  Te143  1  0.58702318  0.25133879  0.40962673  1
  Te2-  Te144  1  0.58220382  0.25388532  0.74586181  1
  Te2-  Te145  1  0.58749028  0.58678786  0.08221157  1
  Te2-  Te146  1  0.58545660  0.58846684  0.41385415  1
  Te2-  Te147  1  0.59004026  0.58381389  0.74668480  1
  Te2-  Te148  1  0.58898908  0.91695590  0.07902890  1
  Te2-  Te149  1  0.58553151  0.92008022  0.41768514  1
  Te2-  Te150  1  0.58486845  0.92314721  0.74994794  1
  Te2-  Te151  1  0.91924657  0.25999212  0.07815873  1
  Te2-  Te152  1  0.92220823  0.24985944  0.41660125  1
  Te2-  Te153  1  0.91965282  0.25324217  0.75054594  1
  Te2-  Te154  1  0.92156303  0.58470563  0.07714059  1
  Te2-  Te155  1  0.91914418  0.58200448  0.41393597  1
  Te2-  Te156  1  0.92620097  0.58498669  0.74133438  1
  Te2-  Te157  1  0.91848320  0.91916658  0.07870526  1
  Te2-  Te158  1  0.91667585  0.91955612  0.41348598  1
  Te2-  Te159  1  0.91825810  0.92115543  0.74938083  1
  Te2-  Te160  1  0.24931893  0.08523630  0.24749295  1
  Te2-  Te161  1  0.25481329  0.08147967  0.59010658  1
  Te2-  Te162  1  0.25489461  0.06956519  0.92368127  1
  Te2-  Te163  1  0.25612968  0.41434358  0.25335217  1
  Te2-  Te164  1  0.25583349  0.41776279  0.58363795  1
  Te2-  Te165  1  0.25535709  0.41684132  0.91882910  1
  Te2-  Te166  1  0.24896913  0.74866660  0.25164157  1
  Te2-  Te167  1  0.25085816  0.75104174  0.58423463  1
  Te2-  Te168  1  0.25200298  0.74666940  0.91636960  1
  Te2-  Te169  1  0.58334030  0.08082462  0.25371113  1
  Te2-  Te170  1  0.58703450  0.08300818  0.58545391  1
  Te2-  Te171  1  0.58703664  0.08311755  0.91814204  1
  Te2-  Te172  1  0.58799076  0.41227598  0.24955812  1
  Te2-  Te173  1  0.58483127  0.41475280  0.58590719  1
  Te2-  Te174  1  0.58778015  0.41462460  0.92121208  1
  Te2-  Te175  1  0.58653890  0.74988017  0.25455247  1
  Te2-  Te176  1  0.58645734  0.74680600  0.58572382  1
  Te2-  Te177  1  0.58436995  0.74742106  0.92040507  1
  Te2-  Te178  1  0.91715968  0.08209693  0.25061619  1
  Te2-  Te179  1  0.91882639  0.08209740  0.59286104  1
  Te2-  Te180  1  0.91686348  0.07227721  0.92052643  1
  Te2-  Te181  1  0.92145034  0.41296613  0.25489917  1
  Te2-  Te182  1  0.91832894  0.40526889  0.58529743  1
  Te2-  Te183  1  0.92574146  0.41452967  0.91828312  1
  Te2-  Te184  1  0.91809760  0.74847964  0.25563537  1
  Te2-  Te185  1  0.92069563  0.74350899  0.58461684  1
  Te2-  Te186  1  0.91866929  0.74450718  0.91930764  1
  Te2-  Te187  1  0.07919242  0.25363118  0.25396654  1
  Te2-  Te188  1  0.07998828  0.25345439  0.58939530  1
  Te2-  Te189  1  0.07925165  0.25260889  0.93168647  1
  Te2-  Te190  1  0.08303752  0.58649306  0.25463686  1
  Te2-  Te191  1  0.07953978  0.59175780  0.58283875  1
  Te2-  Te192  1  0.08171879  0.58744706  0.91800238  1
  Te2-  Te193  1  0.07775213  0.91782813  0.24942308  1
  Te2-  Te194  1  0.07824448  0.92233622  0.59128230  1
  Te2-  Te195  1  0.07533279  0.91375557  0.92152510  1
  Te2-  Te196  1  0.41010305  0.24967407  0.25101744  1
  Te2-  Te197  1  0.41721172  0.25814237  0.58345237  1
  Te2-  Te198  1  0.41545034  0.26070878  0.92192228  1
  Te2-  Te199  1  0.41740201  0.58526477  0.25309553  1
  Te2-  Te200  1  0.41469455  0.58743165  0.58564110  1
  Te2-  Te201  1  0.41680172  0.58652552  0.91683434  1
  Te2-  Te202  1  0.41542337  0.91956724  0.25260610  1
  Te2-  Te203  1  0.41334339  0.91915646  0.58971842  1
  Te2-  Te204  1  0.41177846  0.91646669  0.92172758  1
  Te2-  Te205  1  0.74232328  0.24991877  0.24994039  1
  Te2-  Te206  1  0.74578454  0.25249377  0.58504034  1
  Te2-  Te207  1  0.74506139  0.25153030  0.92556332  1
  Te2-  Te208  1  0.75219240  0.58474284  0.24972029  1
  Te2-  Te209  1  0.74396053  0.57895085  0.58144954  1
  Te2-  Te210  1  0.75523438  0.58690432  0.91418997  1
  Te2-  Te211  1  0.74863985  0.92157036  0.25299820  1
  Te2-  Te212  1  0.74691164  0.91885106  0.58668637  1
  Te2-  Te213  1  0.74465388  0.91319173  0.91804964  1
  Te2-  Te214  1  0.07712576  0.08001780  0.08005752  1
  Te2-  Te215  1  0.08428004  0.08333792  0.41305012  1
  Te2-  Te216  1  0.07691645  0.07993276  0.75181567  1
  Te2-  Te217  1  0.07932897  0.41181893  0.07989060  1
  Te2-  Te218  1  0.08095274  0.41189120  0.41452370  1
  Te2-  Te219  1  0.08040293  0.40568537  0.74308813  1
  Te2-  Te220  1  0.07842485  0.74493645  0.07702571  1
  Te2-  Te221  1  0.07771586  0.75396834  0.41512569  1
  Te2-  Te222  1  0.08035985  0.74756748  0.74303978  1
  Te2-  Te223  1  0.41019729  0.07097805  0.08068308  1
  Te2-  Te224  1  0.41397047  0.08195563  0.41437922  1
  Te2-  Te225  1  0.41255330  0.08292811  0.74888014  1
  Te2-  Te226  1  0.41448933  0.41852586  0.07908112  1
  Te2-  Te227  1  0.41244719  0.41679902  0.41356006  1
  Te2-  Te228  1  0.41666699  0.41632711  0.74668280  1
  Te2-  Te229  1  0.41605237  0.74705921  0.08362614  1
  Te2-  Te230  1  0.41452128  0.75158385  0.41649283  1
  Te2-  Te231  1  0.41283348  0.74930147  0.74826543  1
  Te2-  Te232  1  0.74644597  0.08068679  0.07628794  1
  Te2-  Te233  1  0.74985645  0.08106193  0.41627747  1
  Te2-  Te234  1  0.74584552  0.08061749  0.75075338  1
  Te2-  Te235  1  0.74918471  0.41316477  0.08217753  1
  Te2-  Te236  1  0.74776629  0.40849829  0.40926837  1
  Te2-  Te237  1  0.75044917  0.41602746  0.74176303  1
  Te2-  Te238  1  0.74589401  0.74729216  0.08353431  1
  Te2-  Te239  1  0.74736900  0.74727427  0.41541014  1
  Te2-  Te240  1  0.74623310  0.74511169  0.74351154  1
