# generated using pymatgen
data_Ti27(Cu53Te54)2
_symmetry_space_group_name_H-M   'P 1'
_cell_length_a   17.87472981
_cell_length_b   17.87500143
_cell_length_c   17.87642372
_cell_angle_alpha   89.99084860
_cell_angle_beta   90.02450013
_cell_angle_gamma   90.00378149
_symmetry_Int_Tables_number   1
_chemical_formula_structural   Ti27(Cu53Te54)2
_chemical_formula_sum   'Ti27 Cu106 Te108'
_cell_volume   5711.71021148
_cell_formula_units_Z   1
loop_
 _symmetry_equiv_pos_site_id
 _symmetry_equiv_pos_as_xyz
  1  'x, y, z'
loop_
 _atom_type_symbol
 _atom_type_oxidation_number
  Ti4+  4.0
  Cu+  1.0
  Te2-  -2.0
loop_
 _atom_site_type_symbol
 _atom_site_label
 _atom_site_symmetry_multiplicity
 _atom_site_fract_x
 _atom_site_fract_y
 _atom_site_fract_z
 _atom_site_occupancy
  Ti4+  Ti0  1  0.16682054  0.16842285  0.16767624  1
  Ti4+  Ti1  1  0.16626905  0.16607592  0.50034022  1
  Ti4+  Ti2  1  0.16623023  0.17076785  0.83405489  1
  Ti4+  Ti3  1  0.16577843  0.50156070  0.16731459  1
  Ti4+  Ti4  1  0.16723791  0.50003515  0.49793261  1
  Ti4+  Ti5  1  0.16671553  0.50267746  0.83478641  1
  Ti4+  Ti6  1  0.16802723  0.83389564  0.16594633  1
  Ti4+  Ti7  1  0.16722145  0.83100362  0.50115829  1
  Ti4+  Ti8  1  0.16604349  0.83432173  0.83352955  1
  Ti4+  Ti9  1  0.49998538  0.16685601  0.16423761  1
  Ti4+  Ti10  1  0.49817927  0.17025752  0.49943666  1
  Ti4+  Ti11  1  0.49873592  0.16373212  0.82781272  1
  Ti4+  Ti12  1  0.50180652  0.49749259  0.16628065  1
  Ti4+  Ti13  1  0.50214680  0.50033560  0.49980408  1
  Ti4+  Ti14  1  0.50004178  0.50029810  0.83333824  1
  Ti4+  Ti15  1  0.49662195  0.83416651  0.16840266  1
  Ti4+  Ti16  1  0.49934722  0.83335860  0.50092124  1
  Ti4+  Ti17  1  0.50114727  0.82760410  0.83697567  1
  Ti4+  Ti18  1  0.83336984  0.16579450  0.16579452  1
  Ti4+  Ti19  1  0.83254129  0.16842439  0.50032487  1
  Ti4+  Ti20  1  0.83329896  0.16665082  0.83126868  1
  Ti4+  Ti21  1  0.82957257  0.50136158  0.16474974  1
  Ti4+  Ti22  1  0.83332868  0.49953693  0.49927146  1
  Ti4+  Ti23  1  0.83451483  0.49907481  0.83797455  1
  Ti4+  Ti24  1  0.83526685  0.83304167  0.16818760  1
  Ti4+  Ti25  1  0.83403222  0.83674895  0.49694083  1
  Ti4+  Ti26  1  0.83057368  0.83173105  0.83158001  1
  Cu+  Cu27  1  0.16626198  0.16960871  0.00144089  1
  Cu+  Cu28  1  0.16616744  0.16738969  0.33274799  1
  Cu+  Cu29  1  0.16780143  0.16692440  0.66878150  1
  Cu+  Cu30  1  0.16566173  0.50141335  0.00114095  1
  Cu+  Cu31  1  0.16665519  0.49956357  0.33294328  1
  Cu+  Cu32  1  0.16633904  0.50201567  0.66466573  1
  Cu+  Cu33  1  0.16777867  0.83873299  -0.00122942  1
  Cu+  Cu34  1  0.16831459  0.82916647  0.33433541  1
  Cu+  Cu35  1  0.16905855  0.82951105  0.66793958  1
  Cu+  Cu36  1  0.49994491  0.16346813  -0.00391256  1
  Cu+  Cu37  1  0.49910780  0.16839525  0.33126821  1
  Cu+  Cu38  1  0.49310674  0.17223481  0.66236074  1
  Cu+  Cu39  1  0.49967811  0.50066865  0.00086568  1
  Cu+  Cu40  1  0.50553481  0.49881331  0.33349929  1
  Cu+  Cu41  1  0.50056627  0.49751928  0.66349256  1
  Cu+  Cu42  1  0.50136870  0.82893063  0.00636292  1
  Cu+  Cu43  1  0.49670395  0.83654948  0.33561089  1
  Cu+  Cu44  1  0.49992498  0.83270377  0.67081371  1
  Cu+  Cu45  1  0.83088279  0.16544931  -0.00290704  1
  Cu+  Cu46  1  0.83423280  0.16406059  0.33502119  1
  Cu+  Cu47  1  0.83656993  0.17137986  0.66570819  1
  Cu+  Cu48  1  0.84224721  0.49795978  0.00195518  1
  Cu+  Cu49  1  0.82466439  0.50248640  0.33378280  1
  Cu+  Cu50  1  0.83325795  0.49890996  0.67083502  1
  Cu+  Cu51  1  0.83283929  0.83289742  0.00134240  1
  Cu+  Cu52  1  0.83494630  0.83653529  0.33195950  1
  Cu+  Cu53  1  0.83091811  0.83410803  0.66020375  1
  Cu+  Cu54  1  0.16803227  0.00169003  0.16683414  1
  Cu+  Cu55  1  0.16387175  -0.00459814  0.50246860  1
  Cu+  Cu56  1  0.16769019  0.00446427  0.83512820  1
  Cu+  Cu57  1  0.16649859  0.33345020  0.16843278  1
  Cu+  Cu58  1  0.16710162  0.33474928  0.49857331  1
  Cu+  Cu59  1  0.16477491  0.33802700  0.83633518  1
  Cu+  Cu60  1  0.16207261  0.67097261  0.16842017  1
  Cu+  Cu61  1  0.17144778  0.66519224  0.49620458  1
  Cu+  Cu62  1  0.16684207  0.66944347  0.83130653  1
  Cu+  Cu63  1  0.49787011  0.00175956  0.16814125  1
  Cu+  Cu64  1  0.49755225  0.00148751  0.50061950  1
  Cu+  Cu65  1  0.49793434  -0.00908346  0.83211710  1
  Cu+  Cu66  1  0.50328449  0.33110160  0.16176912  1
  Cu+  Cu67  1  0.50536213  0.33533886  0.50095540  1
  Cu+  Cu68  1  0.49624194  0.33006171  0.82704726  1
  Cu+  Cu69  1  0.49808734  0.66690993  0.16351473  1
  Cu+  Cu70  1  0.49886159  0.66583779  0.50126448  1
  Cu+  Cu71  1  0.50805405  0.66404765  0.83574300  1
  Cu+  Cu72  1  0.83512432  -0.00251424  0.16472063  1
  Cu+  Cu73  1  0.83515003  0.00451052  0.49270183  1
  Cu+  Cu74  1  0.82996772  0.00203103  0.83289705  1
  Cu+  Cu75  1  0.82935461  0.33365087  0.16316844  1
  Cu+  Cu76  1  0.83896455  0.33169777  0.50516725  1
  Cu+  Cu77  1  0.83296184  0.33274028  0.83474258  1
  Cu+  Cu78  1  0.83625564  0.66314026  0.17235482  1
  Cu+  Cu79  1  0.83035082  0.67016269  0.49657517  1
  Cu+  Cu80  1  0.82995482  0.66205024  0.83596306  1
  Cu+  Cu81  1  0.00219836  0.16781868  0.16812593  1
  Cu+  Cu82  1  -0.00046140  0.16649011  0.50019959  1
  Cu+  Cu83  1  0.00049133  0.16986934  0.83498056  1
  Cu+  Cu84  1  -0.00288484  0.50224196  0.16358889  1
  Cu+  Cu85  1  0.00300366  0.49917214  0.49949630  1
  Cu+  Cu86  1  0.00114377  0.50107455  0.84003080  1
  Cu+  Cu87  1  0.00265776  0.83014795  0.16783178  1
  Cu+  Cu88  1  0.00018027  0.83605944  0.49879521  1
  Cu+  Cu89  1  -0.00040844  0.83867634  0.83082263  1
  Cu+  Cu90  1  0.33338040  0.16722716  0.16551498  1
  Cu+  Cu91  1  0.33364393  0.16548380  0.50241767  1
  Cu+  Cu92  1  0.32990002  0.16743168  0.82459193  1
  Cu+  Cu93  1  0.33403039  0.50220116  0.16389936  1
  Cu+  Cu94  1  0.33581832  0.49882368  0.49934164  1
  Cu+  Cu95  1  0.33247207  0.50010715  0.83469669  1
  Cu+  Cu96  1  0.33231926  0.83694769  0.16894650  1
  Cu+  Cu97  1  0.33034077  0.82964459  0.49854650  1
  Cu+  Cu98  1  0.33355293  0.83042048  0.83253833  1
  Cu+  Cu99  1  0.66603745  0.16665948  0.16473842  1
  Cu+  Cu100  1  0.66341516  0.17202248  0.50298720  1
  Cu+  Cu101  1  0.66864096  0.16091294  0.83167182  1
  Cu+  Cu102  1  0.66537798  0.49155286  0.17065875  1
  Cu+  Cu103  1  0.67102769  0.50198391  0.49443350  1
  Cu+  Cu104  1  0.66605236  0.50326168  0.83653785  1
  Cu+  Cu105  1  0.66640460  0.83454187  0.16716558  1
  Cu+  Cu106  1  0.66719413  0.83574016  0.50184254  1
  Cu+  Cu107  1  0.66929961  0.82165856  0.83811259  1
  Cu+  Cu108  1  0.25182669  0.07316472  0.74020237  1
  Cu+  Cu109  1  0.93084358  0.07720103  0.40459538  1
  Cu+  Cu110  1  0.74137645  0.60111932  0.40459013  1
  Cu+  Cu111  1  0.25944714  0.73583858  0.74095920  1
  Cu+  Cu112  1  0.59665602  0.74155976  0.08468770  1
  Cu+  Cu113  1  0.40671829  0.91739676  0.74308981  1
  Cu+  Cu114  1  0.73910649  0.07313427  0.92760778  1
  Cu+  Cu115  1  0.58011058  0.60126734  0.26332553  1
  Cu+  Cu116  1  0.59287186  0.58709362  0.93062305  1
  Cu+  Cu117  1  0.75038375  0.73561002  0.93376235  1
  Cu+  Cu118  1  0.74131076  0.74213718  0.58599947  1
  Cu+  Cu119  1  0.93281401  0.25896549  0.59493599  1
  Cu+  Cu120  1  0.59182121  0.74196717  0.73829002  1
  Cu+  Cu121  1  0.40705144  0.07147931  0.58717254  1
  Cu+  Cu122  1  0.92702924  0.58030312  0.26454089  1
  Cu+  Cu123  1  0.74241405  0.40117445  0.26269158  1
  Cu+  Cu124  1  0.92902780  0.40235990  0.07842084  1
  Cu+  Cu125  1  0.40260588  0.59349381  0.07245627  1
  Cu+  Cu126  1  0.93258270  0.59913877  0.92375134  1
  Cu+  Cu127  1  0.07286615  0.74457750  0.26394358  1
  Cu+  Cu128  1  0.58925511  0.40023060  0.06626756  1
  Cu+  Cu129  1  0.40012733  0.26455143  0.73646301  1
  Cu+  Cu130  1  0.59358964  0.26392609  0.59537707  1
  Cu+  Cu131  1  0.74083169  0.58443952  0.74071943  1
  Cu+  Cu132  1  0.26263142  0.73605863  0.40199942  1
  Te2-  Te133  1  0.25230517  0.25434835  0.08188579  1
  Te2-  Te134  1  0.25208907  0.25000900  0.41633604  1
  Te2-  Te135  1  0.24882229  0.26134369  0.74496247  1
  Te2-  Te136  1  0.24912392  0.58963750  0.08157845  1
  Te2-  Te137  1  0.25713004  0.58324533  0.41027093  1
  Te2-  Te138  1  0.25414486  0.58504755  0.74627847  1
  Te2-  Te139  1  0.25328578  0.92100610  0.08156864  1
  Te2-  Te140  1  0.25067271  0.91860382  0.41495927  1
  Te2-  Te141  1  0.25365227  0.92144929  0.74534135  1
  Te2-  Te142  1  0.58822731  0.24928080  0.07387780  1
  Te2-  Te143  1  0.58488892  0.25297016  0.41152564  1
  Te2-  Te144  1  0.58875977  0.25049259  0.74676619  1
  Te2-  Te145  1  0.59296889  0.58596798  0.08177071  1
  Te2-  Te146  1  0.58813551  0.59144078  0.41392898  1
  Te2-  Te147  1  0.58692004  0.58498124  0.74115497  1
  Te2-  Te148  1  0.58321268  0.92025134  0.08383307  1
  Te2-  Te149  1  0.58347257  0.91984897  0.41726496  1
  Te2-  Te150  1  0.59121516  0.91236162  0.75263133  1
  Te2-  Te151  1  0.91871849  0.25036202  0.07919239  1
  Te2-  Te152  1  0.91997144  0.25329327  0.41311733  1
  Te2-  Te153  1  0.92179273  0.25659682  0.74883736  1
  Te2-  Te154  1  0.92017911  0.59206369  0.07929994  1
  Te2-  Te155  1  0.91932722  0.58651707  0.41519383  1
  Te2-  Te156  1  0.92047985  0.58462010  0.75095259  1
  Te2-  Te157  1  0.92129952  0.91521295  0.08175923  1
  Te2-  Te158  1  0.92261878  0.92102902  0.41032959  1
  Te2-  Te159  1  0.91294541  0.91848515  0.74646651  1
  Te2-  Te160  1  0.25288037  0.08248870  0.25270986  1
  Te2-  Te161  1  0.25211399  0.07633129  0.58678866  1
  Te2-  Te162  1  0.25367588  0.08610688  0.91953170  1
  Te2-  Te163  1  0.25317861  0.41722727  0.24986405  1
  Te2-  Te164  1  0.25210172  0.41566298  0.58448499  1
  Te2-  Te165  1  0.25188799  0.41697783  0.92094634  1
  Te2-  Te166  1  0.25679814  0.74487709  0.25105798  1
  Te2-  Te167  1  0.25500965  0.74335423  0.58766353  1
  Te2-  Te168  1  0.25164918  0.74947807  0.92009938  1
  Te2-  Te169  1  0.58491748  0.08252140  0.25143406  1
  Te2-  Te170  1  0.58285693  0.08307375  0.58710152  1
  Te2-  Te171  1  0.58274656  0.07596257  0.91502326  1
  Te2-  Te172  1  0.58528498  0.40565416  0.25621301  1
  Te2-  Te173  1  0.59235831  0.41764188  0.58593520  1
  Te2-  Te174  1  0.58435546  0.40925399  0.91511016  1
  Te2-  Te175  1  0.58456615  0.75050442  0.25616271  1
  Te2-  Te176  1  0.58622921  0.74512828  0.58627278  1
  Te2-  Te177  1  0.59054018  0.74105637  0.93001119  1
  Te2-  Te178  1  0.92011011  0.07959241  0.25025524  1
  Te2-  Te179  1  0.91801385  0.08066875  0.58596681  1
  Te2-  Te180  1  0.91967547  0.08123706  0.91708630  1
  Te2-  Te181  1  0.91515792  0.41661801  0.25266707  1
  Te2-  Te182  1  0.92108549  0.41829471  0.58879335  1
  Te2-  Te183  1  0.92235537  0.40797501  0.92054173  1
  Te2-  Te184  1  0.92023774  0.74547223  0.25759020  1
  Te2-  Te185  1  0.91917129  0.74842682  0.58160374  1
  Te2-  Te186  1  0.92063691  0.74994103  0.91759769  1
  Te2-  Te187  1  0.08066408  0.25416107  0.25409115  1
  Te2-  Te188  1  0.08327838  0.25321879  0.58665058  1
  Te2-  Te189  1  0.08091289  0.25489326  0.92052193  1
  Te2-  Te190  1  0.07830094  0.58691617  0.25554624  1
  Te2-  Te191  1  0.08264320  0.58768643  0.58247670  1
  Te2-  Te192  1  0.08359555  0.59139539  0.92204355  1
  Te2-  Te193  1  0.08369585  0.91837286  0.25325594  1
  Te2-  Te194  1  0.08155258  0.91484182  0.58891867  1
  Te2-  Te195  1  0.08142914  0.92224382  0.91714102  1
  Te2-  Te196  1  0.41557165  0.25402262  0.24873576  1
  Te2-  Te197  1  0.40843709  0.26161043  0.58289798  1
  Te2-  Te198  1  0.41390671  0.24757773  0.91435403  1
  Te2-  Te199  1  0.41667685  0.58379172  0.25350134  1
  Te2-  Te200  1  0.41531631  0.58419433  0.58538301  1
  Te2-  Te201  1  0.41275242  0.58760283  0.91854237  1
  Te2-  Te202  1  0.41334093  0.92124953  0.25371947  1
  Te2-  Te203  1  0.41023961  0.91652908  0.58744175  1
  Te2-  Te204  1  0.41511880  0.91256514  0.92297006  1
  Te2-  Te205  1  0.74761033  0.24971025  0.25311032  1
  Te2-  Te206  1  0.74680240  0.25628852  0.58868709  1
  Te2-  Te207  1  0.74535729  0.25203714  0.91663076  1
  Te2-  Te208  1  0.73842440  0.59077785  0.25176680  1
  Te2-  Te209  1  0.74684962  0.58631009  0.58742141  1
  Te2-  Te210  1  0.74612712  0.58374545  0.93034511  1
  Te2-  Te211  1  0.74825035  0.91910442  0.25068181  1
  Te2-  Te212  1  0.74968462  0.92537453  0.58108409  1
  Te2-  Te213  1  0.74590457  0.91788174  0.91948054  1
  Te2-  Te214  1  0.08181128  0.08210564  0.08158280  1
  Te2-  Te215  1  0.08267389  0.07914858  0.41425161  1
  Te2-  Te216  1  0.07976947  0.08321379  0.74930881  1
  Te2-  Te217  1  0.08110814  0.41422704  0.08194036  1
  Te2-  Te218  1  0.08111356  0.41386575  0.41252402  1
  Te2-  Te219  1  0.08057332  0.41900583  0.74936465  1
  Te2-  Te220  1  0.08286786  0.75044355  0.07642077  1
  Te2-  Te221  1  0.07784169  0.74492380  0.41634928  1
  Te2-  Te222  1  0.07818795  0.74968982  0.74844584  1
  Te2-  Te223  1  0.41427152  0.08120645  0.07972664  1
  Te2-  Te224  1  0.41374097  0.08295261  0.41298076  1
  Te2-  Te225  1  0.41117870  0.07322501  0.74211455  1
  Te2-  Te226  1  0.41413836  0.41330335  0.07984704  1
  Te2-  Te227  1  0.41883367  0.41473804  0.41399304  1
  Te2-  Te228  1  0.41247480  0.41781978  0.74557356  1
  Te2-  Te229  1  0.40758225  0.74770332  0.08163617  1
  Te2-  Te230  1  0.41584004  0.74599720  0.41402302  1
  Te2-  Te231  1  0.41494848  0.73976763  0.74858426  1
  Te2-  Te232  1  0.74715696  0.07857222  0.08128314  1
  Te2-  Te233  1  0.74178489  0.08559697  0.41619902  1
  Te2-  Te234  1  0.75021081  0.08196281  0.74114139  1
  Te2-  Te235  1  0.74451597  0.41425873  0.07436633  1
  Te2-  Te236  1  0.74959844  0.40716279  0.41660097  1
  Te2-  Te237  1  0.74629510  0.41465785  0.75211787  1
  Te2-  Te238  1  0.74872435  0.74274976  0.08456700  1
  Te2-  Te239  1  0.74420846  0.75263526  0.40864145  1
  Te2-  Te240  1  0.74620357  0.74109886  0.74089858  1
