# generated using pymatgen
data_Ti27(Cu53Te54)2
_symmetry_space_group_name_H-M   'P 1'
_cell_length_a   17.91090219
_cell_length_b   17.90971581
_cell_length_c   17.91445630
_cell_angle_alpha   89.96577450
_cell_angle_beta   89.98417716
_cell_angle_gamma   89.98178208
_symmetry_Int_Tables_number   1
_chemical_formula_structural   Ti27(Cu53Te54)2
_chemical_formula_sum   'Ti27 Cu106 Te108'
_cell_volume   5746.58285613
_cell_formula_units_Z   1
loop_
 _symmetry_equiv_pos_site_id
 _symmetry_equiv_pos_as_xyz
  1  'x, y, z'
loop_
 _atom_type_symbol
 _atom_type_oxidation_number
  Ti4+  4.0
  Cu+  1.0
  Te2-  -2.0
loop_
 _atom_site_type_symbol
 _atom_site_label
 _atom_site_symmetry_multiplicity
 _atom_site_fract_x
 _atom_site_fract_y
 _atom_site_fract_z
 _atom_site_occupancy
  Ti4+  Ti0  1  0.16400631  0.16294299  0.16322324  1
  Ti4+  Ti1  1  0.16967066  0.16646995  0.49965238  1
  Ti4+  Ti2  1  0.16694800  0.16784973  0.83319709  1
  Ti4+  Ti3  1  0.16849842  0.50073656  0.16906767  1
  Ti4+  Ti4  1  0.16893747  0.50038190  0.50047859  1
  Ti4+  Ti5  1  0.16692552  0.49933938  0.83536382  1
  Ti4+  Ti6  1  0.16621642  0.83183627  0.17006512  1
  Ti4+  Ti7  1  0.16667779  0.83124652  0.50156509  1
  Ti4+  Ti8  1  0.16381936  0.83096218  0.83436512  1
  Ti4+  Ti9  1  0.49644021  0.16567518  0.16776320  1
  Ti4+  Ti10  1  0.49790120  0.16726430  0.49990571  1
  Ti4+  Ti11  1  0.50126492  0.16449280  0.83292248  1
  Ti4+  Ti12  1  0.50068795  0.50316459  0.16532945  1
  Ti4+  Ti13  1  0.50356655  0.49890563  0.49919699  1
  Ti4+  Ti14  1  0.50093920  0.49918110  0.83010087  1
  Ti4+  Ti15  1  0.50063885  0.83036453  0.16872391  1
  Ti4+  Ti16  1  0.50157858  0.83320486  0.50261180  1
  Ti4+  Ti17  1  0.50035430  0.83759197  0.83969485  1
  Ti4+  Ti18  1  0.83245945  0.16890573  0.16427013  1
  Ti4+  Ti19  1  0.83458926  0.16802343  0.49549347  1
  Ti4+  Ti20  1  0.83408493  0.16709569  0.82981405  1
  Ti4+  Ti21  1  0.83301042  0.50023187  0.16597493  1
  Ti4+  Ti22  1  0.83411806  0.50122521  0.49934310  1
  Ti4+  Ti23  1  0.83404194  0.49991516  0.82994843  1
  Ti4+  Ti24  1  0.83399310  0.83226442  0.16695019  1
  Ti4+  Ti25  1  0.83420400  0.83729555  0.50031354  1
  Ti4+  Ti26  1  0.82764181  0.83502879  0.83321307  1
  Cu+  Cu27  1  0.16118052  0.16109839  -0.00334327  1
  Cu+  Cu28  1  0.17046705  0.16527718  0.32914311  1
  Cu+  Cu29  1  0.17054961  0.17062527  0.66615286  1
  Cu+  Cu30  1  0.16762707  0.49771078  0.00071833  1
  Cu+  Cu31  1  0.16955632  0.50482797  0.33437681  1
  Cu+  Cu32  1  0.16679597  0.49956321  0.66888454  1
  Cu+  Cu33  1  0.16460041  0.82964718  0.00222488  1
  Cu+  Cu34  1  0.16354593  0.83601947  0.33875306  1
  Cu+  Cu35  1  0.16661627  0.82984534  0.66633784  1
  Cu+  Cu36  1  0.49662176  0.16628379  0.00122207  1
  Cu+  Cu37  1  0.49752950  0.16288226  0.33577870  1
  Cu+  Cu38  1  0.49503130  0.16249353  0.66374220  1
  Cu+  Cu39  1  0.49846050  0.50133674  -0.00308590  1
  Cu+  Cu40  1  0.50359667  0.50338191  0.33200322  1
  Cu+  Cu41  1  0.50647328  0.49464086  0.66571758  1
  Cu+  Cu42  1  0.50126144  0.83777469  0.00780940  1
  Cu+  Cu43  1  0.49952174  0.83078543  0.33678640  1
  Cu+  Cu44  1  0.50066748  0.83551197  0.67222873  1
  Cu+  Cu45  1  0.83575095  0.16943111  -0.00301579  1
  Cu+  Cu46  1  0.83256458  0.16995525  0.32985967  1
  Cu+  Cu47  1  0.83638571  0.16824395  0.65982537  1
  Cu+  Cu48  1  0.83286780  0.50055339  0.00008221  1
  Cu+  Cu49  1  0.83352506  0.49970464  0.33330126  1
  Cu+  Cu50  1  0.83598951  0.49793037  0.66453293  1
  Cu+  Cu51  1  0.83183136  0.83336088  0.00126386  1
  Cu+  Cu52  1  0.83605472  0.83497432  0.33187299  1
  Cu+  Cu53  1  0.82685175  0.83510576  0.66636615  1
  Cu+  Cu54  1  0.15924703  -0.00408894  0.16201988  1
  Cu+  Cu55  1  0.16716440  -0.00211839  0.49855653  1
  Cu+  Cu56  1  0.16372735  -0.00051256  0.83291657  1
  Cu+  Cu57  1  0.16948486  0.33107577  0.16734216  1
  Cu+  Cu58  1  0.17267363  0.33358080  0.50085779  1
  Cu+  Cu59  1  0.16899934  0.33611470  0.83362629  1
  Cu+  Cu60  1  0.17352632  0.66652206  0.17165029  1
  Cu+  Cu61  1  0.16501104  0.66477911  0.49799601  1
  Cu+  Cu62  1  0.16138571  0.66232478  0.83422601  1
  Cu+  Cu63  1  0.49512261  -0.00248362  0.16935708  1
  Cu+  Cu64  1  0.49936181  0.00115746  0.49941486  1
  Cu+  Cu65  1  0.49823195  0.00198663  0.84581343  1
  Cu+  Cu66  1  0.49408085  0.33516115  0.16589234  1
  Cu+  Cu67  1  0.49881211  0.33325746  0.49730035  1
  Cu+  Cu68  1  0.50366779  0.33297645  0.82667261  1
  Cu+  Cu69  1  0.50699173  0.66700054  0.16676726  1
  Cu+  Cu70  1  0.50410555  0.66398850  0.50412416  1
  Cu+  Cu71  1  0.50519889  0.66579709  0.83826442  1
  Cu+  Cu72  1  0.83327557  0.00094477  0.16598250  1
  Cu+  Cu73  1  0.83583633  0.00449221  0.49755805  1
  Cu+  Cu74  1  0.82275566  0.00152868  0.83161266  1
  Cu+  Cu75  1  0.83066870  0.33575252  0.16431255  1
  Cu+  Cu76  1  0.83427580  0.33391605  0.49688099  1
  Cu+  Cu77  1  0.83776058  0.33130975  0.83255233  1
  Cu+  Cu78  1  0.83570087  0.66545096  0.16681224  1
  Cu+  Cu79  1  0.83416552  0.66968334  0.50165316  1
  Cu+  Cu80  1  0.83311645  0.66934768  0.82764197  1
  Cu+  Cu81  1  -0.00225026  0.16661179  0.16282728  1
  Cu+  Cu82  1  0.00140400  0.16904675  0.49516019  1
  Cu+  Cu83  1  -0.00069513  0.16946386  0.83500149  1
  Cu+  Cu84  1  -0.00044897  0.49834645  0.16764339  1
  Cu+  Cu85  1  0.00139324  0.50054650  0.49680574  1
  Cu+  Cu86  1  0.00338067  0.50235779  0.83142639  1
  Cu+  Cu87  1  -0.00069887  0.83322422  0.16770393  1
  Cu+  Cu88  1  0.00242833  0.83825561  0.49888683  1
  Cu+  Cu89  1  -0.00666995  0.83113031  0.83283060  1
  Cu+  Cu90  1  0.32733978  0.16686913  0.16769460  1
  Cu+  Cu91  1  0.33219630  0.16883298  0.50759082  1
  Cu+  Cu92  1  0.33517166  0.16553392  0.83240451  1
  Cu+  Cu93  1  0.33375904  0.50418561  0.17091986  1
  Cu+  Cu94  1  0.33913081  0.49720899  0.50012996  1
  Cu+  Cu95  1  0.33277667  0.49833899  0.83143886  1
  Cu+  Cu96  1  0.33157587  0.82683658  0.16495576  1
  Cu+  Cu97  1  0.33352211  0.82869477  0.50371283  1
  Cu+  Cu98  1  0.33029362  0.83409121  0.83777700  1
  Cu+  Cu99  1  0.66373096  0.16742413  0.16598083  1
  Cu+  Cu100  1  0.66663549  0.16635508  0.49496655  1
  Cu+  Cu101  1  0.66924651  0.16333382  0.83101054  1
  Cu+  Cu102  1  0.66722365  0.50255198  0.16765344  1
  Cu+  Cu103  1  0.66797671  0.50186632  0.50160389  1
  Cu+  Cu104  1  0.66721586  0.49544688  0.82891085  1
  Cu+  Cu105  1  0.67033522  0.82835365  0.16772497  1
  Cu+  Cu106  1  0.67012163  0.83438836  0.50280156  1
  Cu+  Cu107  1  0.66186843  0.84238819  0.83294455  1
  Cu+  Cu108  1  0.59457007  0.07348927  0.40774299  1
  Cu+  Cu109  1  0.07628141  0.59021662  0.73840208  1
  Cu+  Cu110  1  0.25612300  0.73719257  0.07147101  1
  Cu+  Cu111  1  0.74376978  0.73949181  0.58975440  1
  Cu+  Cu112  1  0.59791878  0.57910137  0.92501752  1
  Cu+  Cu113  1  0.59684010  0.39907900  0.73605939  1
  Cu+  Cu114  1  0.59898342  0.59180723  0.26158633  1
  Cu+  Cu115  1  0.59198642  0.92934454  0.93666209  1
  Cu+  Cu116  1  0.73493233  0.93209841  0.73506531  1
  Cu+  Cu117  1  0.74235884  0.08244447  0.93002812  1
  Cu+  Cu118  1  0.92832912  0.26361629  0.92690369  1
  Cu+  Cu119  1  0.25795094  0.25916804  0.25779455  1
  Cu+  Cu120  1  0.26344083  0.59662527  0.26536601  1
  Cu+  Cu121  1  0.58497342  0.74307449  0.74552725  1
  Cu+  Cu122  1  0.59868801  0.74152745  0.07765895  1
  Cu+  Cu123  1  0.92308335  0.74640932  0.73713573  1
  Cu+  Cu124  1  0.59343403  0.58860639  0.59323563  1
  Cu+  Cu125  1  0.07002722  0.07178405  0.91824515  1
  Cu+  Cu126  1  0.07122211  0.59088802  0.40463535  1
  Cu+  Cu127  1  0.40288242  0.08208479  0.93046791  1
  Cu+  Cu128  1  0.26013670  0.26472346  0.59779190  1
  Cu+  Cu129  1  0.07372904  0.93232203  0.40937996  1
  Cu+  Cu130  1  0.40448882  0.06836851  0.58958050  1
  Cu+  Cu131  1  0.40250910  0.92621466  0.08543022  1
  Cu+  Cu132  1  0.06853247  0.91696697  0.07196778  1
  Te2-  Te133  1  0.24844244  0.24807057  0.07605127  1
  Te2-  Te134  1  0.25549475  0.25181746  0.41238988  1
  Te2-  Te135  1  0.25565255  0.25466932  0.75029395  1
  Te2-  Te136  1  0.25424441  0.58483022  0.07913546  1
  Te2-  Te137  1  0.25916765  0.58675271  0.41786721  1
  Te2-  Te138  1  0.25236603  0.58624657  0.74889387  1
  Te2-  Te139  1  0.25113653  0.91810456  0.08036646  1
  Te2-  Te140  1  0.25570435  0.91574036  0.41753654  1
  Te2-  Te141  1  0.24866095  0.91593523  0.75011521  1
  Te2-  Te142  1  0.57961434  0.25185636  0.08292956  1
  Te2-  Te143  1  0.58288045  0.25230367  0.41207437  1
  Te2-  Te144  1  0.58720681  0.24609571  0.74289393  1
  Te2-  Te145  1  0.59032286  0.58690044  0.07578692  1
  Te2-  Te146  1  0.59004947  0.58815093  0.41424420  1
  Te2-  Te147  1  0.59054864  0.58833506  0.74504412  1
  Te2-  Te148  1  0.59028121  0.92207173  0.08850714  1
  Te2-  Te149  1  0.58648955  0.91754904  0.41519530  1
  Te2-  Te150  1  0.58089558  0.92913905  0.74824914  1
  Te2-  Te151  1  0.91944159  0.25622660  0.07938649  1
  Te2-  Te152  1  0.91949152  0.25405106  0.41063788  1
  Te2-  Te153  1  0.92049280  0.25129059  0.74372793  1
  Te2-  Te154  1  0.92005899  0.58426488  0.08097425  1
  Te2-  Te155  1  0.91757664  0.58863059  0.41310313  1
  Te2-  Te156  1  0.92017908  0.58732074  0.74280563  1
  Te2-  Te157  1  0.91751514  0.91967767  0.07968815  1
  Te2-  Te158  1  0.91956599  0.92214939  0.41239955  1
  Te2-  Te159  1  0.91429114  0.92087841  0.74900464  1
  Te2-  Te160  1  0.24838882  0.07399864  0.24714926  1
  Te2-  Te161  1  0.25064352  0.07626139  0.58826972  1
  Te2-  Te162  1  0.25227992  0.07889429  0.91831256  1
  Te2-  Te163  1  0.25459267  0.41409933  0.25479564  1
  Te2-  Te164  1  0.25599489  0.41694127  0.58826895  1
  Te2-  Te165  1  0.25455545  0.41434037  0.91992402  1
  Te2-  Te166  1  0.25348864  0.75040229  0.26136613  1
  Te2-  Te167  1  0.25078501  0.74347133  0.58636441  1
  Te2-  Te168  1  0.24967003  0.74383756  0.91832488  1
  Te2-  Te169  1  0.58324928  0.07895235  0.25146672  1
  Te2-  Te170  1  0.58666034  0.08209703  0.58433486  1
  Te2-  Te171  1  0.58979461  0.08290579  0.92551724  1
  Te2-  Te172  1  0.58392872  0.41442678  0.24901872  1
  Te2-  Te173  1  0.59055374  0.40772253  0.58246729  1
  Te2-  Te174  1  0.58547996  0.41260724  0.91845664  1
  Te2-  Te175  1  0.58878549  0.74712218  0.25785920  1
  Te2-  Te176  1  0.58942979  0.74709730  0.59098180  1
  Te2-  Te177  1  0.58998997  0.74978205  0.92407068  1
  Te2-  Te178  1  0.91746296  0.08352691  0.24977238  1
  Te2-  Te179  1  0.92237203  0.08379947  0.58100830  1
  Te2-  Te180  1  0.91713882  0.07645031  0.91655282  1
  Te2-  Te181  1  0.91712074  0.41406046  0.25171665  1
  Te2-  Te182  1  0.92035051  0.41484028  0.58142980  1
  Te2-  Te183  1  0.92019593  0.41784553  0.91752166  1
  Te2-  Te184  1  0.91958052  0.74726896  0.25206450  1
  Te2-  Te185  1  0.92192031  0.75123648  0.58545323  1
  Te2-  Te186  1  0.91313008  0.74796449  0.91903350  1
  Te2-  Te187  1  0.08053262  0.24922144  0.24975771  1
  Te2-  Te188  1  0.08294829  0.25241001  0.58257445  1
  Te2-  Te189  1  0.08241390  0.25671009  0.91948437  1
  Te2-  Te190  1  0.07890129  0.58724891  0.25178877  1
  Te2-  Te191  1  0.08043046  0.58518093  0.58597293  1
  Te2-  Te192  1  0.08022607  0.58330746  0.92395514  1
  Te2-  Te193  1  0.07826378  0.91918955  0.25509109  1
  Te2-  Te194  1  0.08298339  0.91892915  0.58816583  1
  Te2-  Te195  1  0.07534177  0.91656147  0.91919909  1
  Te2-  Te196  1  0.41209046  0.25148906  0.25370992  1
  Te2-  Te197  1  0.41488004  0.25791514  0.58847604  1
  Te2-  Te198  1  0.41754558  0.25394113  0.91509557  1
  Te2-  Te199  1  0.41649141  0.59100418  0.25370657  1
  Te2-  Te200  1  0.41794837  0.58193201  0.58785564  1
  Te2-  Te201  1  0.41312969  0.58518099  0.91489320  1
  Te2-  Te202  1  0.41203173  0.91307447  0.25432684  1
  Te2-  Te203  1  0.41413499  0.91617816  0.58808257  1
  Te2-  Te204  1  0.40765243  0.92023564  0.92673547  1
  Te2-  Te205  1  0.74612119  0.25326955  0.24865707  1
  Te2-  Te206  1  0.74786995  0.25194254  0.58052768  1
  Te2-  Te207  1  0.74678661  0.25304196  0.91543294  1
  Te2-  Te208  1  0.74964973  0.58798996  0.25427450  1
  Te2-  Te209  1  0.74834286  0.58730513  0.59022386  1
  Te2-  Te210  1  0.74960759  0.58596141  0.91552738  1
  Te2-  Te211  1  0.74843177  0.91811870  0.25089139  1
  Te2-  Te212  1  0.74704722  0.92719922  0.58322224  1
  Te2-  Te213  1  0.74438697  0.92218111  0.92644900  1
  Te2-  Te214  1  0.07304975  0.07664181  0.07621612  1
  Te2-  Te215  1  0.08343642  0.08323258  0.41169370  1
  Te2-  Te216  1  0.08174524  0.08489429  0.74622277  1
  Te2-  Te217  1  0.08416001  0.41448649  0.08489608  1
  Te2-  Te218  1  0.08615093  0.41409242  0.41449386  1
  Te2-  Te219  1  0.08162691  0.41270501  0.74796879  1
  Te2-  Te220  1  0.08118487  0.74360813  0.08607162  1
  Te2-  Te221  1  0.07781136  0.74565013  0.41428505  1
  Te2-  Te222  1  0.07764006  0.74609850  0.74607616  1
  Te2-  Te223  1  0.40779659  0.07951616  0.08200414  1
  Te2-  Te224  1  0.40831787  0.08139776  0.41704243  1
  Te2-  Te225  1  0.41420798  0.07621605  0.74859250  1
  Te2-  Te226  1  0.41279601  0.41984371  0.08123460  1
  Te2-  Te227  1  0.41835346  0.41634781  0.41105575  1
  Te2-  Te228  1  0.41413005  0.41418588  0.74525291  1
  Te2-  Te229  1  0.41549762  0.74229198  0.07983036  1
  Te2-  Te230  1  0.41779225  0.74525068  0.42023042  1
  Te2-  Te231  1  0.41622688  0.75007308  0.75490023  1
  Te2-  Te232  1  0.74618902  0.08170351  0.08091758  1
  Te2-  Te233  1  0.74885364  0.08043527  0.40899652  1
  Te2-  Te234  1  0.74723231  0.08437372  0.73818218  1
  Te2-  Te235  1  0.74551700  0.41729116  0.08001492  1
  Te2-  Te236  1  0.74780706  0.41698106  0.41521651  1
  Te2-  Te237  1  0.75124782  0.41052588  0.74481946  1
  Te2-  Te238  1  0.75048431  0.74354009  0.07943321  1
  Te2-  Te239  1  0.75010033  0.75093756  0.41420431  1
  Te2-  Te240  1  0.73906408  0.74667932  0.74725775  1
