# generated using pymatgen
data_Ti27(Cu53Te54)2
_symmetry_space_group_name_H-M   'P 1'
_cell_length_a   17.88179996
_cell_length_b   17.88137220
_cell_length_c   17.88322045
_cell_angle_alpha   90.00181420
_cell_angle_beta   90.03225153
_cell_angle_gamma   89.98667670
_symmetry_Int_Tables_number   1
_chemical_formula_structural   Ti27(Cu53Te54)2
_chemical_formula_sum   'Ti27 Cu106 Te108'
_cell_volume   5718.17871686
_cell_formula_units_Z   1
loop_
 _symmetry_equiv_pos_site_id
 _symmetry_equiv_pos_as_xyz
  1  'x, y, z'
loop_
 _atom_type_symbol
 _atom_type_oxidation_number
  Ti4+  4.0
  Cu+  1.0
  Te2-  -2.0
loop_
 _atom_site_type_symbol
 _atom_site_label
 _atom_site_symmetry_multiplicity
 _atom_site_fract_x
 _atom_site_fract_y
 _atom_site_fract_z
 _atom_site_occupancy
  Ti4+  Ti0  1  0.16814492  0.16981173  0.16585057  1
  Ti4+  Ti1  1  0.16540918  0.16370371  0.50176644  1
  Ti4+  Ti2  1  0.16786285  0.16650510  0.83275524  1
  Ti4+  Ti3  1  0.16652248  0.50226127  0.16517954  1
  Ti4+  Ti4  1  0.16432770  0.50020124  0.50157341  1
  Ti4+  Ti5  1  0.16911840  0.49741443  0.83297648  1
  Ti4+  Ti6  1  0.16460673  0.83648138  0.16791774  1
  Ti4+  Ti7  1  0.16905567  0.83573003  0.50009641  1
  Ti4+  Ti8  1  0.16813184  0.83407155  0.83369763  1
  Ti4+  Ti9  1  0.50003720  0.16740503  0.16156514  1
  Ti4+  Ti10  1  0.50010904  0.16708204  0.49855329  1
  Ti4+  Ti11  1  0.49964956  0.16738614  0.83245585  1
  Ti4+  Ti12  1  0.50009844  0.50025707  0.17123492  1
  Ti4+  Ti13  1  0.49837692  0.50180269  0.50335236  1
  Ti4+  Ti14  1  0.49689681  0.50089900  0.83465047  1
  Ti4+  Ti15  1  0.49683317  0.83378521  0.16596746  1
  Ti4+  Ti16  1  0.49727300  0.83263879  0.49843369  1
  Ti4+  Ti17  1  0.50188916  0.83273966  0.83336903  1
  Ti4+  Ti18  1  0.83417521  0.16929105  0.16573010  1
  Ti4+  Ti19  1  0.83504529  0.16391261  0.49955459  1
  Ti4+  Ti20  1  0.83374028  0.16901900  0.83388705  1
  Ti4+  Ti21  1  0.83600164  0.49711940  0.16532918  1
  Ti4+  Ti22  1  0.83473678  0.49526294  0.50077369  1
  Ti4+  Ti23  1  0.83141919  0.50301236  0.83330372  1
  Ti4+  Ti24  1  0.83026088  0.83032408  0.16392838  1
  Ti4+  Ti25  1  0.83438791  0.83057387  0.49965083  1
  Ti4+  Ti26  1  0.83487159  0.83391184  0.83358605  1
  Cu+  Cu27  1  0.17074501  0.17025687  0.00049048  1
  Cu+  Cu28  1  0.16523327  0.16385495  0.33251260  1
  Cu+  Cu29  1  0.16336085  0.16119691  0.66685459  1
  Cu+  Cu30  1  0.16951009  0.50322752  -0.00108998  1
  Cu+  Cu31  1  0.16450351  0.50130046  0.33108107  1
  Cu+  Cu32  1  0.16965703  0.49699037  0.66867354  1
  Cu+  Cu33  1  0.16714427  0.83544303  -0.00009912  1
  Cu+  Cu34  1  0.16497269  0.84027641  0.33651689  1
  Cu+  Cu35  1  0.17230815  0.83401608  0.66612207  1
  Cu+  Cu36  1  0.50098163  0.16639522  -0.00413781  1
  Cu+  Cu37  1  0.49967288  0.16660027  0.32757778  1
  Cu+  Cu38  1  0.49997715  0.16702918  0.66558381  1
  Cu+  Cu39  1  0.49692015  0.49907890  0.00162394  1
  Cu+  Cu40  1  0.50029102  0.50291487  0.34233498  1
  Cu+  Cu41  1  0.49894075  0.50339518  0.66743239  1
  Cu+  Cu42  1  0.49848622  0.82781331  -0.00171691  1
  Cu+  Cu43  1  0.49175479  0.83504413  0.33194996  1
  Cu+  Cu44  1  0.50317581  0.83192376  0.66760877  1
  Cu+  Cu45  1  0.83128008  0.17195006  0.00013711  1
  Cu+  Cu46  1  0.83575135  0.16418440  0.33597201  1
  Cu+  Cu47  1  0.83505197  0.16958511  0.66579938  1
  Cu+  Cu48  1  0.83423295  0.50276003  -0.00243573  1
  Cu+  Cu49  1  0.83403345  0.49172175  0.33219744  1
  Cu+  Cu50  1  0.83658809  0.49824305  0.67075231  1
  Cu+  Cu51  1  0.83302392  0.82759443  -0.00038343  1
  Cu+  Cu52  1  0.83059022  0.83134617  0.33071511  1
  Cu+  Cu53  1  0.83518547  0.83475582  0.66821699  1
  Cu+  Cu54  1  0.16816962  0.00540952  0.16606864  1
  Cu+  Cu55  1  0.16611417  -0.00113381  0.50594575  1
  Cu+  Cu56  1  0.16717980  -0.00127752  0.83388127  1
  Cu+  Cu57  1  0.16257237  0.33653929  0.16484530  1
  Cu+  Cu58  1  0.16478872  0.33053926  0.49840962  1
  Cu+  Cu59  1  0.17336662  0.33399438  0.82987647  1
  Cu+  Cu60  1  0.16661481  0.66746816  0.16633830  1
  Cu+  Cu61  1  0.16593868  0.66979711  0.50411473  1
  Cu+  Cu62  1  0.16964649  0.66398068  0.83166530  1
  Cu+  Cu63  1  0.49989792  0.00153555  0.16289697  1
  Cu+  Cu64  1  0.49901858  0.00063288  0.49691135  1
  Cu+  Cu65  1  0.50205719  -0.00037442  0.83191545  1
  Cu+  Cu66  1  0.50482138  0.32917704  0.17093037  1
  Cu+  Cu67  1  0.49918519  0.33518037  0.50091436  1
  Cu+  Cu68  1  0.49727531  0.33407170  0.83619702  1
  Cu+  Cu69  1  0.49907121  0.66944799  0.16777001  1
  Cu+  Cu70  1  0.49454190  0.66412710  0.49807341  1
  Cu+  Cu71  1  0.49596775  0.66803935  0.83803052  1
  Cu+  Cu72  1  0.83157721  -0.00231624  0.16884886  1
  Cu+  Cu73  1  0.83290002  -0.00224785  0.49938681  1
  Cu+  Cu74  1  0.83371610  0.00167483  0.83469891  1
  Cu+  Cu75  1  0.82664441  0.33248302  0.16342105  1
  Cu+  Cu76  1  0.84045058  0.32808556  0.49945422  1
  Cu+  Cu77  1  0.83200842  0.33883477  0.83069201  1
  Cu+  Cu78  1  0.83724482  0.66503309  0.16071951  1
  Cu+  Cu79  1  0.83451822  0.66329390  0.50126273  1
  Cu+  Cu80  1  0.83072591  0.66881648  0.83424830  1
  Cu+  Cu81  1  0.00467069  0.17162040  0.16538507  1
  Cu+  Cu82  1  -0.00032226  0.16286120  0.50752707  1
  Cu+  Cu83  1  0.00019622  0.16789664  0.83630792  1
  Cu+  Cu84  1  0.00423630  0.49688505  0.16958643  1
  Cu+  Cu85  1  -0.00447180  0.50140963  0.50255314  1
  Cu+  Cu86  1  0.00103149  0.50033203  0.83109886  1
  Cu+  Cu87  1  -0.00664350  0.83441817  0.16511081  1
  Cu+  Cu88  1  0.00462452  0.83006456  0.49977825  1
  Cu+  Cu89  1  0.00117380  0.83447586  0.83181851  1
  Cu+  Cu90  1  0.33241942  0.16418986  0.15927682  1
  Cu+  Cu91  1  0.33296294  0.16628642  0.49860802  1
  Cu+  Cu92  1  0.33496619  0.16638194  0.83119068  1
  Cu+  Cu93  1  0.33053829  0.50158957  0.16662694  1
  Cu+  Cu94  1  0.33213634  0.50297257  0.50193009  1
  Cu+  Cu95  1  0.33385534  0.49337525  0.83476584  1
  Cu+  Cu96  1  0.33239099  0.83303460  0.17116823  1
  Cu+  Cu97  1  0.33382893  0.84332542  0.49848272  1
  Cu+  Cu98  1  0.33578044  0.83148370  0.83453667  1
  Cu+  Cu99  1  0.66740647  0.17298599  0.16160975  1
  Cu+  Cu100  1  0.66894104  0.16496075  0.49769352  1
  Cu+  Cu101  1  0.66520527  0.16905145  0.83099999  1
  Cu+  Cu102  1  0.66969145  0.49937166  0.16943043  1
  Cu+  Cu103  1  0.66509788  0.49596744  0.50125998  1
  Cu+  Cu104  1  0.66413992  0.50470566  0.83450557  1
  Cu+  Cu105  1  0.66189680  0.82944925  0.16197445  1
  Cu+  Cu106  1  0.66586469  0.82959530  0.49857881  1
  Cu+  Cu107  1  0.66972748  0.83533311  0.83428555  1
  Cu+  Cu108  1  0.40456262  0.73894405  0.25987242  1
  Cu+  Cu109  1  0.40970397  0.93384576  0.40249926  1
  Cu+  Cu110  1  0.07513391  0.07767205  0.25485651  1
  Cu+  Cu111  1  0.07956116  0.40766045  0.26220557  1
  Cu+  Cu112  1  0.93012239  0.25577708  0.59625256  1
  Cu+  Cu113  1  0.93021837  0.73888926  0.06942814  1
  Cu+  Cu114  1  0.73607658  0.26213870  0.06613963  1
  Cu+  Cu115  1  0.40222566  0.73959858  0.92584540  1
  Cu+  Cu116  1  0.74066035  0.40801880  0.25884597  1
  Cu+  Cu117  1  0.40820402  0.40216069  0.93374693  1
  Cu+  Cu118  1  0.07762212  0.26389995  0.06746163  1
  Cu+  Cu119  1  0.58998997  0.73735391  0.07046411  1
  Cu+  Cu120  1  0.91909451  0.59453828  0.59782751  1
  Cu+  Cu121  1  0.40033789  0.58964677  0.41059602  1
  Cu+  Cu122  1  0.58922563  0.40648204  0.41495269  1
  Cu+  Cu123  1  0.26604038  0.92770794  0.59889743  1
  Cu+  Cu124  1  0.92877121  0.40718495  0.74712026  1
  Cu+  Cu125  1  0.07989216  0.74109252  0.59696139  1
  Cu+  Cu126  1  0.59558658  0.24903476  0.26176690  1
  Cu+  Cu127  1  0.91761513  0.92278438  0.25948564  1
  Cu+  Cu128  1  0.25930626  0.07174240  0.06946962  1
  Cu+  Cu129  1  0.06881233  0.07012021  0.60093872  1
  Cu+  Cu130  1  0.07140190  0.92713281  0.41535976  1
  Cu+  Cu131  1  0.92716905  0.40306437  0.40520654  1
  Cu+  Cu132  1  0.26534799  0.40388569  0.73478426  1
  Te2-  Te133  1  0.25355849  0.25874167  0.08172830  1
  Te2-  Te134  1  0.24900790  0.24898177  0.41436390  1
  Te2-  Te135  1  0.25370199  0.24849205  0.74286637  1
  Te2-  Te136  1  0.25296363  0.58864747  0.08084914  1
  Te2-  Te137  1  0.24690786  0.58715090  0.41483744  1
  Te2-  Te138  1  0.25598301  0.58332941  0.74821021  1
  Te2-  Te139  1  0.25314942  0.91875819  0.08214706  1
  Te2-  Te140  1  0.25299982  0.92717108  0.41136567  1
  Te2-  Te141  1  0.25664544  0.92034072  0.75041642  1
  Te2-  Te142  1  0.58441672  0.25637401  0.07364588  1
  Te2-  Te143  1  0.58779958  0.25291888  0.41298765  1
  Te2-  Te144  1  0.58292143  0.25490125  0.74749211  1
  Te2-  Te145  1  0.58488960  0.58336937  0.08354205  1
  Te2-  Te146  1  0.58904147  0.58784096  0.41863550  1
  Te2-  Te147  1  0.58128664  0.58861661  0.75059826  1
  Te2-  Te148  1  0.58226873  0.91783433  0.07804150  1
  Te2-  Te149  1  0.58414061  0.91587938  0.41291764  1
  Te2-  Te150  1  0.58767966  0.91803382  0.74789499  1
  Te2-  Te151  1  0.92091723  0.25590858  0.08018794  1
  Te2-  Te152  1  0.92579970  0.24765605  0.41218634  1
  Te2-  Te153  1  0.92285809  0.25462478  0.74842016  1
  Te2-  Te154  1  0.92434230  0.58151154  0.07943815  1
  Te2-  Te155  1  0.91640338  0.58245085  0.41138112  1
  Te2-  Te156  1  0.92033281  0.59085542  0.74970241  1
  Te2-  Te157  1  0.91431581  0.91981952  0.07801338  1
  Te2-  Te158  1  0.91950933  0.91886542  0.41292388  1
  Te2-  Te159  1  0.91951525  0.92098308  0.74874638  1
  Te2-  Te160  1  0.25525855  0.08337039  0.25256314  1
  Te2-  Te161  1  0.25617914  0.08093623  0.58779783  1
  Te2-  Te162  1  0.25406468  0.08064800  0.91763974  1
  Te2-  Te163  1  0.25093380  0.41457127  0.25171192  1
  Te2-  Te164  1  0.25250899  0.41198406  0.58195690  1
  Te2-  Te165  1  0.25313625  0.41144082  0.92416144  1
  Te2-  Te166  1  0.24760275  0.74959569  0.25534836  1
  Te2-  Te167  1  0.25825356  0.74966488  0.58376389  1
  Te2-  Te168  1  0.25087182  0.74620475  0.92059115  1
  Te2-  Te169  1  0.58801823  0.08234949  0.24621176  1
  Te2-  Te170  1  0.58509316  0.08150724  0.58280231  1
  Te2-  Te171  1  0.58702706  0.08161596  0.91642667  1
  Te2-  Te172  1  0.58720462  0.41320547  0.25857495  1
  Te2-  Te173  1  0.58377821  0.41443023  0.58968084  1
  Te2-  Te174  1  0.58492984  0.41662768  0.91911698  1
  Te2-  Te175  1  0.58276696  0.75050588  0.25557525  1
  Te2-  Te176  1  0.58208254  0.74560213  0.58209480  1
  Te2-  Te177  1  0.59032841  0.74535613  0.91797857  1
  Te2-  Te178  1  0.92082669  0.08155475  0.25181880  1
  Te2-  Te179  1  0.91637152  0.07470932  0.58978874  1
  Te2-  Te180  1  0.91708400  0.08465194  0.92103054  1
  Te2-  Te181  1  0.92259984  0.40604859  0.25052702  1
  Te2-  Te182  1  0.92313536  0.40968541  0.59089034  1
  Te2-  Te183  1  0.91913075  0.41648834  0.91790671  1
  Te2-  Te184  1  0.91744373  0.74524186  0.25176923  1
  Te2-  Te185  1  0.92210589  0.74683714  0.58857522  1
  Te2-  Te186  1  0.92248485  0.74535646  0.91711109  1
  Te2-  Te187  1  0.08102718  0.25483504  0.25684382  1
  Te2-  Te188  1  0.08267939  0.25360222  0.58888089  1
  Te2-  Te189  1  0.08380988  0.25558665  0.91630869  1
  Te2-  Te190  1  0.08028395  0.58881913  0.25158409  1
  Te2-  Te191  1  0.08010735  0.58519658  0.59079689  1
  Te2-  Te192  1  0.08276001  0.58461133  0.91604943  1
  Te2-  Te193  1  0.07616592  0.92374515  0.25292026  1
  Te2-  Te194  1  0.07793991  0.91836362  0.59096518  1
  Te2-  Te195  1  0.08167350  0.91860876  0.91854235  1
  Te2-  Te196  1  0.41074732  0.24964577  0.24764789  1
  Te2-  Te197  1  0.41455535  0.25167926  0.58332729  1
  Te2-  Te198  1  0.41111908  0.25132221  0.92063175  1
  Te2-  Te199  1  0.41160828  0.58573981  0.25533195  1
  Te2-  Te200  1  0.41119711  0.58768317  0.58932761  1
  Te2-  Te201  1  0.40927306  0.58529126  0.92215808  1
  Te2-  Te202  1  0.41145357  0.92623546  0.24947392  1
  Te2-  Te203  1  0.41858266  0.92136953  0.58979533  1
  Te2-  Te204  1  0.41670702  0.91924878  0.91889501  1
  Te2-  Te205  1  0.74820229  0.25267614  0.25855000  1
  Te2-  Te206  1  0.74821676  0.25160556  0.58282316  1
  Te2-  Te207  1  0.74573309  0.25742722  0.91521448  1
  Te2-  Te208  1  0.75416490  0.58495826  0.25164850  1
  Te2-  Te209  1  0.74872083  0.58040319  0.58623843  1
  Te2-  Te210  1  0.74641580  0.58796913  0.92003044  1
  Te2-  Te211  1  0.74229944  0.91526067  0.24958295  1
  Te2-  Te212  1  0.74828058  0.91480641  0.58320667  1
  Te2-  Te213  1  0.75044672  0.91870067  0.92067050  1
  Te2-  Te214  1  0.08143740  0.08344992  0.07791702  1
  Te2-  Te215  1  0.07714702  0.07896970  0.41377281  1
  Te2-  Te216  1  0.07817609  0.07866473  0.75192629  1
  Te2-  Te217  1  0.08027592  0.41751572  0.07455652  1
  Te2-  Te218  1  0.07879012  0.41321032  0.41555820  1
  Te2-  Te219  1  0.08178313  0.41145650  0.74636896  1
  Te2-  Te220  1  0.08179312  0.74990287  0.08137316  1
  Te2-  Te221  1  0.08413087  0.74707408  0.41227997  1
  Te2-  Te222  1  0.08366233  0.74709804  0.74790141  1
  Te2-  Te223  1  0.41533890  0.07944456  0.07464172  1
  Te2-  Te224  1  0.41347643  0.08394735  0.40986988  1
  Te2-  Te225  1  0.41592480  0.08034693  0.74694401  1
  Te2-  Te226  1  0.41521701  0.41255882  0.08780206  1
  Te2-  Te227  1  0.41093215  0.41491623  0.41634922  1
  Te2-  Te228  1  0.41592280  0.41240433  0.74384773  1
  Te2-  Te229  1  0.40832145  0.74576364  0.08096381  1
  Te2-  Te230  1  0.40586780  0.74585533  0.41368600  1
  Te2-  Te231  1  0.41549959  0.74771767  0.74646048  1
  Te2-  Te232  1  0.74942198  0.08237290  0.08263115  1
  Te2-  Te233  1  0.74898790  0.07843589  0.41325918  1
  Te2-  Te234  1  0.74966067  0.08425992  0.74785333  1
  Te2-  Te235  1  0.74603932  0.41693977  0.07558761  1
  Te2-  Te236  1  0.74650886  0.40709351  0.41590669  1
  Te2-  Te237  1  0.74288611  0.41870038  0.74807851  1
  Te2-  Te238  1  0.74441936  0.74188879  0.07845781  1
  Te2-  Te239  1  0.74962778  0.74488913  0.41502201  1
  Te2-  Te240  1  0.74830749  0.74960460  0.74719638  1
