# generated using pymatgen
data_Ti27(Cu53Te54)2
_symmetry_space_group_name_H-M   'P 1'
_cell_length_a   17.87358460
_cell_length_b   17.87233257
_cell_length_c   17.86999982
_cell_angle_alpha   90.05224081
_cell_angle_beta   89.99165664
_cell_angle_gamma   90.01342372
_symmetry_Int_Tables_number   1
_chemical_formula_structural   Ti27(Cu53Te54)2
_chemical_formula_sum   'Ti27 Cu106 Te108'
_cell_volume   5708.43747666
_cell_formula_units_Z   1
loop_
 _symmetry_equiv_pos_site_id
 _symmetry_equiv_pos_as_xyz
  1  'x, y, z'
loop_
 _atom_type_symbol
 _atom_type_oxidation_number
  Ti4+  4.0
  Cu+  1.0
  Te2-  -2.0
loop_
 _atom_site_type_symbol
 _atom_site_label
 _atom_site_symmetry_multiplicity
 _atom_site_fract_x
 _atom_site_fract_y
 _atom_site_fract_z
 _atom_site_occupancy
  Ti4+  Ti0  1  0.16537177  0.16542355  0.16417504  1
  Ti4+  Ti1  1  0.16644033  0.16780099  0.50010649  1
  Ti4+  Ti2  1  0.16930684  0.16731124  0.83302443  1
  Ti4+  Ti3  1  0.16695764  0.49964837  0.16736015  1
  Ti4+  Ti4  1  0.16649957  0.49933828  0.50118632  1
  Ti4+  Ti5  1  0.16395630  0.50062827  0.83091881  1
  Ti4+  Ti6  1  0.17029676  0.83436072  0.16773173  1
  Ti4+  Ti7  1  0.17145665  0.83308460  0.50311111  1
  Ti4+  Ti8  1  0.16449416  0.83442456  0.83307039  1
  Ti4+  Ti9  1  0.50096701  0.16702349  0.16299066  1
  Ti4+  Ti10  1  0.50036709  0.16660560  0.50096766  1
  Ti4+  Ti11  1  0.50031014  0.16548864  0.83504247  1
  Ti4+  Ti12  1  0.49786167  0.49729174  0.16502477  1
  Ti4+  Ti13  1  0.49989673  0.50029767  0.49788980  1
  Ti4+  Ti14  1  0.49786734  0.49922487  0.83237928  1
  Ti4+  Ti15  1  0.50161336  0.83152261  0.16738045  1
  Ti4+  Ti16  1  0.50276131  0.83388689  0.50038912  1
  Ti4+  Ti17  1  0.49934967  0.83276289  0.83468305  1
  Ti4+  Ti18  1  0.83304228  0.16381330  0.16736949  1
  Ti4+  Ti19  1  0.83081743  0.16865158  0.49891277  1
  Ti4+  Ti20  1  0.83081598  0.16706104  0.83511637  1
  Ti4+  Ti21  1  0.83407273  0.50150028  0.16784226  1
  Ti4+  Ti22  1  0.83481760  0.50229216  0.50275664  1
  Ti4+  Ti23  1  0.83136584  0.49864474  0.83212854  1
  Ti4+  Ti24  1  0.83387169  0.83311756  0.16785805  1
  Ti4+  Ti25  1  0.83478240  0.83589126  0.49957528  1
  Ti4+  Ti26  1  0.83184411  0.83284125  0.83393801  1
  Cu+  Cu27  1  0.16523199  0.16292569  -0.00382265  1
  Cu+  Cu28  1  0.16741733  0.16714632  0.32924289  1
  Cu+  Cu29  1  0.16890274  0.16848772  0.66938499  1
  Cu+  Cu30  1  0.16445444  0.49998574  0.00046596  1
  Cu+  Cu31  1  0.17111252  0.49874166  0.33438711  1
  Cu+  Cu32  1  0.16531871  0.50195199  0.66323172  1
  Cu+  Cu33  1  0.16547183  0.83662885  0.00115809  1
  Cu+  Cu34  1  0.17267308  0.83417756  0.33523959  1
  Cu+  Cu35  1  0.16612504  0.82952890  0.66700960  1
  Cu+  Cu36  1  0.50050346  0.17349399  -0.00083764  1
  Cu+  Cu37  1  0.50226749  0.16545878  0.33299745  1
  Cu+  Cu38  1  0.49997496  0.16548158  0.66673940  1
  Cu+  Cu39  1  0.49664291  0.49917884  -0.00130919  1
  Cu+  Cu40  1  0.50361777  0.50113911  0.32820107  1
  Cu+  Cu41  1  0.49736573  0.49701967  0.66700984  1
  Cu+  Cu42  1  0.49822274  0.83242509  0.00106212  1
  Cu+  Cu43  1  0.50273713  0.83166969  0.33405049  1
  Cu+  Cu44  1  0.50048735  0.83387732  0.66867327  1
  Cu+  Cu45  1  0.82670384  0.16443477  0.00289589  1
  Cu+  Cu46  1  0.83811616  0.16512327  0.33355193  1
  Cu+  Cu47  1  0.82691553  0.16764730  0.66610523  1
  Cu+  Cu48  1  0.83633873  0.50097333  -0.00239193  1
  Cu+  Cu49  1  0.83587131  0.50367056  0.33562959  1
  Cu+  Cu50  1  0.82976488  0.49725517  0.66645332  1
  Cu+  Cu51  1  0.83329789  0.83155901  0.00092476  1
  Cu+  Cu52  1  0.83419915  0.83879052  0.33299543  1
  Cu+  Cu53  1  0.83207154  0.83076117  0.66833163  1
  Cu+  Cu54  1  0.16592862  -0.00135683  0.16264838  1
  Cu+  Cu55  1  0.16612261  -0.00164518  0.49960030  1
  Cu+  Cu56  1  0.16928043  0.00302901  0.83389621  1
  Cu+  Cu57  1  0.16490325  0.33327644  0.16644965  1
  Cu+  Cu58  1  0.16610842  0.33536007  0.49880385  1
  Cu+  Cu59  1  0.16541826  0.33271334  0.82905315  1
  Cu+  Cu60  1  0.16993929  0.66702738  0.17001703  1
  Cu+  Cu61  1  0.16971295  0.66723239  0.50945065  1
  Cu+  Cu62  1  0.16421450  0.66759669  0.83183199  1
  Cu+  Cu63  1  0.50089110  -0.00150377  0.16393826  1
  Cu+  Cu64  1  0.50105057  0.00083011  0.49978911  1
  Cu+  Cu65  1  0.50075440  -0.00190272  0.83530318  1
  Cu+  Cu66  1  0.49382516  0.33188593  0.16151813  1
  Cu+  Cu67  1  0.49707608  0.33247936  0.50098598  1
  Cu+  Cu68  1  0.50139717  0.33298252  0.83614976  1
  Cu+  Cu69  1  0.50115167  0.66464254  0.16847922  1
  Cu+  Cu70  1  0.50339716  0.66850578  0.49860095  1
  Cu+  Cu71  1  0.49734629  0.66603392  0.83325491  1
  Cu+  Cu72  1  0.83598487  -0.00165105  0.16921445  1
  Cu+  Cu73  1  0.82991210  0.00269788  0.49411260  1
  Cu+  Cu74  1  0.82994959  -0.00025226  0.83758578  1
  Cu+  Cu75  1  0.83280866  0.33334893  0.16955282  1
  Cu+  Cu76  1  0.83596422  0.33810289  0.50146407  1
  Cu+  Cu77  1  0.83118695  0.33168942  0.82620297  1
  Cu+  Cu78  1  0.83600318  0.67016040  0.16788461  1
  Cu+  Cu79  1  0.83111817  0.66864752  0.50278718  1
  Cu+  Cu80  1  0.83533227  0.66382578  0.83508589  1
  Cu+  Cu81  1  -0.00156944  0.16611201  0.16587270  1
  Cu+  Cu82  1  -0.00395089  0.16550958  0.49825080  1
  Cu+  Cu83  1  0.00233835  0.16751649  0.83536242  1
  Cu+  Cu84  1  0.00371709  0.50243019  0.16832797  1
  Cu+  Cu85  1  -0.00150312  0.49548239  0.49896105  1
  Cu+  Cu86  1  -0.00555503  0.50177470  0.83478147  1
  Cu+  Cu87  1  0.00068548  0.83478705  0.16846606  1
  Cu+  Cu88  1  0.00804627  0.83334621  0.49987359  1
  Cu+  Cu89  1  -0.00419095  0.83544247  0.83059340  1
  Cu+  Cu90  1  0.33228201  0.16662605  0.16171795  1
  Cu+  Cu91  1  0.33406228  0.16821149  0.49927703  1
  Cu+  Cu92  1  0.33194989  0.16246213  0.82878856  1
  Cu+  Cu93  1  0.33155962  0.49896934  0.16545587  1
  Cu+  Cu94  1  0.33481137  0.49636821  0.50220967  1
  Cu+  Cu95  1  0.33116734  0.49934437  0.83033876  1
  Cu+  Cu96  1  0.33767993  0.83496762  0.16652503  1
  Cu+  Cu97  1  0.33720311  0.83273943  0.50084090  1
  Cu+  Cu98  1  0.33199376  0.83295396  0.83539060  1
  Cu+  Cu99  1  0.66977039  0.16741930  0.16363224  1
  Cu+  Cu100  1  0.66483706  0.16600786  0.50340682  1
  Cu+  Cu101  1  0.66569961  0.16878342  0.84042465  1
  Cu+  Cu102  1  0.66292633  0.49892033  0.16947837  1
  Cu+  Cu103  1  0.67011995  0.50482697  0.49926582  1
  Cu+  Cu104  1  0.66430903  0.50040008  0.83110243  1
  Cu+  Cu105  1  0.66807132  0.83083521  0.16716626  1
  Cu+  Cu106  1  0.66886607  0.83429038  0.49989209  1
  Cu+  Cu107  1  0.66366103  0.83116170  0.83416002  1
  Cu+  Cu108  1  0.73648834  0.41029319  0.58880549  1
  Cu+  Cu109  1  0.07306308  0.40518912  0.59225590  1
  Cu+  Cu110  1  0.39909708  0.26176303  0.07070314  1
  Cu+  Cu111  1  0.40962230  0.92624561  0.07247304  1
  Cu+  Cu112  1  0.26457310  0.40848082  0.40409231  1
  Cu+  Cu113  1  0.92422035  0.40936569  0.40301389  1
  Cu+  Cu114  1  0.73943925  0.07194169  0.59339744  1
  Cu+  Cu115  1  0.74514959  0.26574002  0.07963878  1
  Cu+  Cu116  1  0.92642746  0.59510610  0.92928049  1
  Cu+  Cu117  1  0.08304422  0.92390614  0.40584620  1
  Cu+  Cu118  1  0.73621555  0.06783157  0.93056549  1
  Cu+  Cu119  1  0.73743129  0.74298973  0.59652774  1
  Cu+  Cu120  1  0.07324468  0.07426446  0.92194239  1
  Cu+  Cu121  1  0.59382850  0.26534674  0.92731596  1
  Cu+  Cu122  1  0.06916039  0.92048828  0.07255765  1
  Cu+  Cu123  1  0.26602658  0.59356814  0.59276235  1
  Cu+  Cu124  1  0.07332312  0.25798336  0.74182237  1
  Cu+  Cu125  1  0.74610511  0.59551286  0.40645299  1
  Cu+  Cu126  1  0.59236785  0.59426070  0.25493395  1
  Cu+  Cu127  1  0.73372328  0.25490955  0.74005038  1
  Cu+  Cu128  1  0.73677978  0.92946710  0.40440487  1
  Cu+  Cu129  1  0.07267927  0.74093287  0.59580542  1
  Cu+  Cu130  1  0.40654293  0.40321482  0.59609926  1
  Cu+  Cu131  1  0.26051819  0.07031238  0.73610398  1
  Cu+  Cu132  1  0.92689459  0.07308560  0.40701807  1
  Te2-  Te133  1  0.24769285  0.25291721  0.07648235  1
  Te2-  Te134  1  0.25176007  0.25201556  0.41310440  1
  Te2-  Te135  1  0.25647663  0.25522915  0.74684973  1
  Te2-  Te136  1  0.25092725  0.58528061  0.08068753  1
  Te2-  Te137  1  0.25366506  0.58676516  0.41852673  1
  Te2-  Te138  1  0.25138805  0.58756013  0.74665207  1
  Te2-  Te139  1  0.25595046  0.92025421  0.07929027  1
  Te2-  Te140  1  0.25737525  0.91995722  0.41715084  1
  Te2-  Te141  1  0.25225795  0.91749035  0.74653388  1
  Te2-  Te142  1  0.59026321  0.25799072  0.08019511  1
  Te2-  Te143  1  0.58526909  0.25251458  0.41571718  1
  Te2-  Te144  1  0.58400867  0.25212575  0.74648144  1
  Te2-  Te145  1  0.58400114  0.58343290  0.07942291  1
  Te2-  Te146  1  0.58789743  0.58823502  0.41225162  1
  Te2-  Te147  1  0.58226625  0.58526161  0.74643018  1
  Te2-  Te148  1  0.58803833  0.91615006  0.08085361  1
  Te2-  Te149  1  0.58633163  0.92086416  0.41277047  1
  Te2-  Te150  1  0.58582577  0.91856857  0.74934161  1
  Te2-  Te151  1  0.91671718  0.25075979  0.08050362  1
  Te2-  Te152  1  0.91938917  0.25581929  0.41345124  1
  Te2-  Te153  1  0.91975363  0.24887082  0.74554916  1
  Te2-  Te154  1  0.92089891  0.58698293  0.08343575  1
  Te2-  Te155  1  0.92166679  0.58992662  0.41806028  1
  Te2-  Te156  1  0.91610422  0.58416942  0.74400081  1
  Te2-  Te157  1  0.91799193  0.91962285  0.07952914  1
  Te2-  Te158  1  0.92565573  0.92031100  0.41346741  1
  Te2-  Te159  1  0.91405764  0.92142410  0.74787930  1
  Te2-  Te160  1  0.25234792  0.08084984  0.24830844  1
  Te2-  Te161  1  0.25226107  0.08079997  0.58351628  1
  Te2-  Te162  1  0.25662083  0.08035063  0.92054574  1
  Te2-  Te163  1  0.25449897  0.41056469  0.25129573  1
  Te2-  Te164  1  0.25290309  0.41000058  0.58966357  1
  Te2-  Te165  1  0.24799648  0.41571463  0.91567354  1
  Te2-  Te166  1  0.25658830  0.74982922  0.25288988  1
  Te2-  Te167  1  0.26085982  0.74888704  0.59077152  1
  Te2-  Te168  1  0.24769834  0.74898732  0.91883571  1
  Te2-  Te169  1  0.58630169  0.08178751  0.24796166  1
  Te2-  Te170  1  0.58519044  0.07852283  0.58884049  1
  Te2-  Te171  1  0.58404220  0.07812295  0.92309615  1
  Te2-  Te172  1  0.58244687  0.40754052  0.24950523  1
  Te2-  Te173  1  0.58594322  0.41550603  0.58372266  1
  Te2-  Te174  1  0.58678983  0.41693561  0.92085439  1
  Te2-  Te175  1  0.58903191  0.74668749  0.25455472  1
  Te2-  Te176  1  0.58670287  0.74741747  0.58825507  1
  Te2-  Te177  1  0.58306144  0.74586252  0.92023802  1
  Te2-  Te178  1  0.92299936  0.07803511  0.25233823  1
  Te2-  Te179  1  0.91399902  0.08143497  0.58623213  1
  Te2-  Te180  1  0.91806139  0.08213269  0.92119261  1
  Te2-  Te181  1  0.92044791  0.41528217  0.25161302  1
  Te2-  Te182  1  0.92051023  0.41295038  0.59177917  1
  Te2-  Te183  1  0.91615943  0.40945467  0.91608896  1
  Te2-  Te184  1  0.92078106  0.75012711  0.25499363  1
  Te2-  Te185  1  0.92079842  0.74896094  0.58506421  1
  Te2-  Te186  1  0.92046692  0.74876730  0.91997269  1
  Te2-  Te187  1  0.08003744  0.25106433  0.25010267  1
  Te2-  Te188  1  0.07740897  0.25165916  0.58622692  1
  Te2-  Te189  1  0.08207486  0.25506178  0.91979859  1
  Te2-  Te190  1  0.08471320  0.58598781  0.25574937  1
  Te2-  Te191  1  0.07428197  0.58581226  0.58539654  1
  Te2-  Te192  1  0.08025209  0.58667016  0.91916364  1
  Te2-  Te193  1  0.08313136  0.92010527  0.25437582  1
  Te2-  Te194  1  0.08339809  0.92002524  0.58918939  1
  Te2-  Te195  1  0.07640206  0.92159059  0.91811181  1
  Te2-  Te196  1  0.41448717  0.24853593  0.25121140  1
  Te2-  Te197  1  0.41245318  0.25078365  0.58889573  1
  Te2-  Te198  1  0.40847051  0.25200399  0.91559157  1
  Te2-  Te199  1  0.41206815  0.58394542  0.25109828  1
  Te2-  Te200  1  0.41749314  0.58804337  0.58529511  1
  Te2-  Te201  1  0.41160467  0.58409665  0.91715043  1
  Te2-  Te202  1  0.41831441  0.91916993  0.25436447  1
  Te2-  Te203  1  0.41704559  0.91888083  0.58556685  1
  Te2-  Te204  1  0.41198733  0.92023737  0.91957956  1
  Te2-  Te205  1  0.74886862  0.24949876  0.25536259  1
  Te2-  Te206  1  0.74401245  0.25814687  0.58491423  1
  Te2-  Te207  1  0.74807240  0.25985401  0.92296605  1
  Te2-  Te208  1  0.74785196  0.58925420  0.25326225  1
  Te2-  Te209  1  0.74580869  0.58877386  0.59125874  1
  Te2-  Te210  1  0.74554312  0.58418264  0.91827145  1
  Te2-  Te211  1  0.74505251  0.92113462  0.25143262  1
  Te2-  Te212  1  0.74874355  0.92078661  0.58776437  1
  Te2-  Te213  1  0.74434588  0.91556416  0.92191800  1
  Te2-  Te214  1  0.07592575  0.07847075  0.07827840  1
  Te2-  Te215  1  0.08180286  0.08174552  0.41143716  1
  Te2-  Te216  1  0.08010802  0.08056399  0.74686952  1
  Te2-  Te217  1  0.08012416  0.41478314  0.08162327  1
  Te2-  Te218  1  0.08015224  0.41330628  0.41016706  1
  Te2-  Te219  1  0.07537508  0.41456980  0.74543613  1
  Te2-  Te220  1  0.08350202  0.74810769  0.08415261  1
  Te2-  Te221  1  0.08846168  0.74461065  0.41542723  1
  Te2-  Te222  1  0.07680707  0.74696913  0.74873742  1
  Te2-  Te223  1  0.41521867  0.08080988  0.07604728  1
  Te2-  Te224  1  0.41536636  0.08203282  0.41463546  1
  Te2-  Te225  1  0.41705804  0.07744411  0.74665340  1
  Te2-  Te226  1  0.40872042  0.41439360  0.07606452  1
  Te2-  Te227  1  0.41687397  0.41453999  0.40917455  1
  Te2-  Te228  1  0.41214699  0.40947983  0.74894810  1
  Te2-  Te229  1  0.41569947  0.74380260  0.08311065  1
  Te2-  Te230  1  0.41675118  0.74804088  0.41479648  1
  Te2-  Te231  1  0.41324685  0.74876135  0.74849481  1
  Te2-  Te232  1  0.74597807  0.07278190  0.08358358  1
  Te2-  Te233  1  0.74250200  0.08496671  0.40903705  1
  Te2-  Te234  1  0.74265118  0.08019388  0.74990813  1
  Te2-  Te235  1  0.74775611  0.41880039  0.08119355  1
  Te2-  Te236  1  0.74834878  0.41526707  0.41425764  1
  Te2-  Te237  1  0.74039050  0.41210981  0.74493218  1
  Te2-  Te238  1  0.74871668  0.74679553  0.08180642  1
  Te2-  Te239  1  0.74933971  0.74928239  0.41134366  1
  Te2-  Te240  1  0.74613779  0.74400547  0.75074095  1
