# generated using pymatgen
data_Ti27(Cu53Te54)2
_symmetry_space_group_name_H-M   'P 1'
_cell_length_a   17.88610096
_cell_length_b   17.89117281
_cell_length_c   17.88725164
_cell_angle_alpha   89.93376324
_cell_angle_beta   90.02689411
_cell_angle_gamma   89.99829873
_symmetry_Int_Tables_number   1
_chemical_formula_structural   Ti27(Cu53Te54)2
_chemical_formula_sum   'Ti27 Cu106 Te108'
_cell_volume   5723.97550800
_cell_formula_units_Z   1
loop_
 _symmetry_equiv_pos_site_id
 _symmetry_equiv_pos_as_xyz
  1  'x, y, z'
loop_
 _atom_type_symbol
 _atom_type_oxidation_number
  Ti4+  4.0
  Cu+  1.0
  Te2-  -2.0
loop_
 _atom_site_type_symbol
 _atom_site_label
 _atom_site_symmetry_multiplicity
 _atom_site_fract_x
 _atom_site_fract_y
 _atom_site_fract_z
 _atom_site_occupancy
  Ti4+  Ti0  1  0.16475981  0.16627093  0.16459218  1
  Ti4+  Ti1  1  0.16865591  0.16901701  0.49541306  1
  Ti4+  Ti2  1  0.16878850  0.16633086  0.83333059  1
  Ti4+  Ti3  1  0.16960090  0.49955598  0.16568680  1
  Ti4+  Ti4  1  0.16792603  0.49887459  0.49707554  1
  Ti4+  Ti5  1  0.16533617  0.49846460  0.83252795  1
  Ti4+  Ti6  1  0.16896037  0.83202485  0.16913049  1
  Ti4+  Ti7  1  0.16546410  0.83678264  0.50137933  1
  Ti4+  Ti8  1  0.16383163  0.82975304  0.83180633  1
  Ti4+  Ti9  1  0.49833836  0.16497183  0.16392293  1
  Ti4+  Ti10  1  0.49934883  0.16750669  0.50059217  1
  Ti4+  Ti11  1  0.50056632  0.16807368  0.83127157  1
  Ti4+  Ti12  1  0.49986253  0.50201980  0.16690602  1
  Ti4+  Ti13  1  0.50138319  0.50224308  0.50028644  1
  Ti4+  Ti14  1  0.50000348  0.50197389  0.83219107  1
  Ti4+  Ti15  1  0.49810906  0.83596232  0.16654037  1
  Ti4+  Ti16  1  0.50049854  0.83158211  0.50257673  1
  Ti4+  Ti17  1  0.49801188  0.83217311  0.83464870  1
  Ti4+  Ti18  1  0.83206098  0.16534612  0.16779612  1
  Ti4+  Ti19  1  0.83440071  0.16606900  0.50014797  1
  Ti4+  Ti20  1  0.83449584  0.16851040  0.83320131  1
  Ti4+  Ti21  1  0.83375554  0.49728153  0.16756379  1
  Ti4+  Ti22  1  0.83631688  0.50035487  0.50075556  1
  Ti4+  Ti23  1  0.83013352  0.49999606  0.83372138  1
  Ti4+  Ti24  1  0.83490011  0.83114882  0.16823101  1
  Ti4+  Ti25  1  0.83314425  0.82926016  0.50118811  1
  Ti4+  Ti26  1  0.83033842  0.83767305  0.83567974  1
  Cu+  Cu27  1  0.16828190  0.16175041  0.00173893  1
  Cu+  Cu28  1  0.16542039  0.16908355  0.32462290  1
  Cu+  Cu29  1  0.17032824  0.17017669  0.66664796  1
  Cu+  Cu30  1  0.16577123  0.49724390  -0.00284000  1
  Cu+  Cu31  1  0.17219259  0.49812171  0.33197745  1
  Cu+  Cu32  1  0.16328609  0.50019373  0.66652460  1
  Cu+  Cu33  1  0.16578408  0.82797662  -0.00092734  1
  Cu+  Cu34  1  0.17491761  0.83786633  0.33627347  1
  Cu+  Cu35  1  0.15844016  0.83033127  0.66511829  1
  Cu+  Cu36  1  0.49556782  0.16590457  -0.00415642  1
  Cu+  Cu37  1  0.49795187  0.16642575  0.33346447  1
  Cu+  Cu38  1  0.50016371  0.16738155  0.66570650  1
  Cu+  Cu39  1  0.49945010  0.50484761  0.00025674  1
  Cu+  Cu40  1  0.50003508  0.50187373  0.33096239  1
  Cu+  Cu41  1  0.50561760  0.50306620  0.66487638  1
  Cu+  Cu42  1  0.50012167  0.83852382  -0.00224624  1
  Cu+  Cu43  1  0.49948223  0.83358289  0.33750506  1
  Cu+  Cu44  1  0.49499297  0.82772325  0.66853211  1
  Cu+  Cu45  1  0.83343025  0.16662710  -0.00104810  1
  Cu+  Cu46  1  0.83207813  0.16580610  0.33445153  1
  Cu+  Cu47  1  0.83406639  0.16920587  0.66644793  1
  Cu+  Cu48  1  0.83065447  0.49953420  0.00271093  1
  Cu+  Cu49  1  0.83580364  0.49769719  0.33388252  1
  Cu+  Cu50  1  0.83523665  0.49807199  0.66950497  1
  Cu+  Cu51  1  0.82824045  0.83703052  0.00515474  1
  Cu+  Cu52  1  0.83501583  0.82685076  0.33374845  1
  Cu+  Cu53  1  0.83508827  0.83463174  0.67094054  1
  Cu+  Cu54  1  0.16580327  0.00028626  0.16902058  1
  Cu+  Cu55  1  0.16055205  0.00736111  0.50057301  1
  Cu+  Cu56  1  0.16600509  -0.00673030  0.83201480  1
  Cu+  Cu57  1  0.16697179  0.33127683  0.16752779  1
  Cu+  Cu58  1  0.17467882  0.33378029  0.49603126  1
  Cu+  Cu59  1  0.16662781  0.33265381  0.83385036  1
  Cu+  Cu60  1  0.17371515  0.66326447  0.16837925  1
  Cu+  Cu61  1  0.16509032  0.66987006  0.49874677  1
  Cu+  Cu62  1  0.16317127  0.66091711  0.83305160  1
  Cu+  Cu63  1  0.49789748  0.00220980  0.16758741  1
  Cu+  Cu64  1  0.49889215  0.00082351  0.50220519  1
  Cu+  Cu65  1  0.49854715  -0.00018280  0.83491196  1
  Cu+  Cu66  1  0.49937957  0.33555420  0.16273099  1
  Cu+  Cu67  1  0.49950480  0.33159004  0.49931550  1
  Cu+  Cu68  1  0.50271653  0.33692111  0.82786698  1
  Cu+  Cu69  1  0.49810910  0.67069317  0.16505021  1
  Cu+  Cu70  1  0.50478431  0.66650054  0.50582290  1
  Cu+  Cu71  1  0.50142186  0.66484044  0.83763518  1
  Cu+  Cu72  1  0.83322483  -0.00358094  0.16585892  1
  Cu+  Cu73  1  0.83411935  -0.00340318  0.50282961  1
  Cu+  Cu74  1  0.83170560  0.00620822  0.83466865  1
  Cu+  Cu75  1  0.83219364  0.33058396  0.16868291  1
  Cu+  Cu76  1  0.83626685  0.33390681  0.49961116  1
  Cu+  Cu77  1  0.83340509  0.33369272  0.83072952  1
  Cu+  Cu78  1  0.83419605  0.66235667  0.16843377  1
  Cu+  Cu79  1  0.83627993  0.66641983  0.49697518  1
  Cu+  Cu80  1  0.82773216  0.67097437  0.83526706  1
  Cu+  Cu81  1  -0.00196694  0.16254941  0.16709801  1
  Cu+  Cu82  1  0.00408479  0.16578445  0.49857155  1
  Cu+  Cu83  1  0.00135261  0.16828232  0.83385454  1
  Cu+  Cu84  1  0.00243690  0.49832424  0.16758220  1
  Cu+  Cu85  1  -0.00075950  0.49628531  0.49577240  1
  Cu+  Cu86  1  -0.00095901  0.49756188  0.83228153  1
  Cu+  Cu87  1  0.00154929  0.83098447  0.16897476  1
  Cu+  Cu88  1  -0.00365447  0.83243843  0.50672869  1
  Cu+  Cu89  1  -0.00361200  0.83151929  0.83237583  1
  Cu+  Cu90  1  0.33139144  0.16620744  0.15990315  1
  Cu+  Cu91  1  0.33192095  0.17163102  0.50115280  1
  Cu+  Cu92  1  0.33715550  0.16507388  0.83538008  1
  Cu+  Cu93  1  0.33612319  0.50579259  0.16692714  1
  Cu+  Cu94  1  0.33427014  0.49773819  0.49720712  1
  Cu+  Cu95  1  0.33199656  0.49994804  0.83012111  1
  Cu+  Cu96  1  0.33019632  0.83415201  0.16719074  1
  Cu+  Cu97  1  0.33761173  0.83524669  0.49824341  1
  Cu+  Cu98  1  0.32893064  0.83078004  0.83022814  1
  Cu+  Cu99  1  0.66377570  0.16653181  0.16640903  1
  Cu+  Cu100  1  0.66674237  0.16618907  0.49905534  1
  Cu+  Cu101  1  0.67033053  0.16983571  0.83191054  1
  Cu+  Cu102  1  0.66758054  0.49847887  0.16697503  1
  Cu+  Cu103  1  0.66952685  0.50566749  0.50399858  1
  Cu+  Cu104  1  0.66256224  0.50065440  0.83323799  1
  Cu+  Cu105  1  0.67058274  0.83609116  0.16525398  1
  Cu+  Cu106  1  0.66545355  0.82847449  0.49763276  1
  Cu+  Cu107  1  0.66218882  0.83894794  0.83817748  1
  Cu+  Cu108  1  0.25659137  0.07025935  0.07375991  1
  Cu+  Cu109  1  0.26205690  0.74355047  0.41493381  1
  Cu+  Cu110  1  0.26407676  0.25903746  0.24701120  1
  Cu+  Cu111  1  0.74055417  0.93076593  0.07800548  1
  Cu+  Cu112  1  0.91984770  0.92923766  0.59869591  1
  Cu+  Cu113  1  0.25706272  0.73561315  0.06832552  1
  Cu+  Cu114  1  0.06741295  0.06974037  0.25484019  1
  Cu+  Cu115  1  0.92916673  0.40407107  0.74444760  1
  Cu+  Cu116  1  0.25943645  0.93084248  0.25918076  1
  Cu+  Cu117  1  0.59413633  0.59080218  0.93172512  1
  Cu+  Cu118  1  0.59273698  0.73805819  0.40300018  1
  Cu+  Cu119  1  0.92398833  0.40192395  0.40324073  1
  Cu+  Cu120  1  0.60163034  0.59637375  0.59587273  1
  Cu+  Cu121  1  0.26680709  0.40655097  0.40396059  1
  Cu+  Cu122  1  0.59092971  0.93333444  0.92511153  1
  Cu+  Cu123  1  0.59173878  0.40533116  0.73482679  1
  Cu+  Cu124  1  0.25980226  0.26225880  0.59693368  1
  Cu+  Cu125  1  0.07219967  0.73521387  0.59028826  1
  Cu+  Cu126  1  0.92981932  0.74157833  0.40421610  1
  Cu+  Cu127  1  0.41418204  0.93178791  0.40930884  1
  Cu+  Cu128  1  0.26378991  0.59214636  0.26094290  1
  Cu+  Cu129  1  0.40546168  0.73602650  0.59667985  1
  Cu+  Cu130  1  0.40693992  0.07035174  0.92300531  1
  Cu+  Cu131  1  0.92104988  0.73846679  0.74856265  1
  Cu+  Cu132  1  0.07658900  0.08687896  0.59839191  1
  Te2-  Te133  1  0.25055063  0.25428585  0.07743775  1
  Te2-  Te134  1  0.25727991  0.25292240  0.40487810  1
  Te2-  Te135  1  0.25634144  0.25341471  0.75051645  1
  Te2-  Te136  1  0.25437568  0.58324814  0.07484102  1
  Te2-  Te137  1  0.25604401  0.58950624  0.41424580  1
  Te2-  Te138  1  0.24991320  0.58456000  0.74562082  1
  Te2-  Te139  1  0.25022681  0.91840587  0.07804389  1
  Te2-  Te140  1  0.25415729  0.92864627  0.41841287  1
  Te2-  Te141  1  0.24838522  0.91391152  0.74388811  1
  Te2-  Te142  1  0.58264293  0.25035107  0.07859368  1
  Te2-  Te143  1  0.58459352  0.25106907  0.41392868  1
  Te2-  Te144  1  0.58846289  0.25205459  0.74435193  1
  Te2-  Te145  1  0.58780235  0.58906075  0.08385327  1
  Te2-  Te146  1  0.58771518  0.58600333  0.41164843  1
  Te2-  Te147  1  0.58845430  0.59189472  0.74691721  1
  Te2-  Te148  1  0.58511905  0.92356676  0.08140524  1
  Te2-  Te149  1  0.58616423  0.92026198  0.41738851  1
  Te2-  Te150  1  0.58033037  0.91784026  0.74632415  1
  Te2-  Te151  1  0.91798128  0.24981824  0.08283460  1
  Te2-  Te152  1  0.92152472  0.25009510  0.41299248  1
  Te2-  Te153  1  0.92246409  0.25247579  0.74562439  1
  Te2-  Te154  1  0.91971241  0.58251268  0.08226965  1
  Te2-  Te155  1  0.92239486  0.58650007  0.41162432  1
  Te2-  Te156  1  0.91734384  0.58738077  0.75036372  1
  Te2-  Te157  1  0.92259077  0.91650015  0.08274461  1
  Te2-  Te158  1  0.91815205  0.91538816  0.41484537  1
  Te2-  Te159  1  0.91885081  0.92523914  0.75154781  1
  Te2-  Te160  1  0.25724101  0.08108864  0.25344811  1
  Te2-  Te161  1  0.25267305  0.08194495  0.58373126  1
  Te2-  Te162  1  0.25274905  0.07506207  0.91782694  1
  Te2-  Te163  1  0.25994601  0.41162542  0.25071784  1
  Te2-  Te164  1  0.25352757  0.41675361  0.58823297  1
  Te2-  Te165  1  0.25318156  0.41413625  0.91672794  1
  Te2-  Te166  1  0.25801979  0.74519091  0.25867984  1
  Te2-  Te167  1  0.25282089  0.74932258  0.58644368  1
  Te2-  Te168  1  0.25125705  0.74263060  0.91573126  1
  Te2-  Te169  1  0.58296624  0.08204275  0.25212673  1
  Te2-  Te170  1  0.58521375  0.08183152  0.58516334  1
  Te2-  Te171  1  0.58898371  0.08435047  0.91843335  1
  Te2-  Te172  1  0.58411287  0.41464281  0.25099996  1
  Te2-  Te173  1  0.58813583  0.41223494  0.58201469  1
  Te2-  Te174  1  0.58331275  0.41544002  0.92098412  1
  Te2-  Te175  1  0.58600744  0.75109484  0.24985490  1
  Te2-  Te176  1  0.59048975  0.74884413  0.59253966  1
  Te2-  Te177  1  0.58594644  0.74744719  0.92287046  1
  Te2-  Te178  1  0.91572577  0.07674074  0.25449338  1
  Te2-  Te179  1  0.92206744  0.08128196  0.58889265  1
  Te2-  Te180  1  0.92049719  0.08299718  0.91910837  1
  Te2-  Te181  1  0.92182930  0.41045358  0.25178602  1
  Te2-  Te182  1  0.92186010  0.41318002  0.58795384  1
  Te2-  Te183  1  0.91557778  0.41543912  0.91948894  1
  Te2-  Te184  1  0.92247587  0.74210939  0.25172801  1
  Te2-  Te185  1  0.91891083  0.74046347  0.59250752  1
  Te2-  Te186  1  0.91346704  0.75134879  0.92269107  1
  Te2-  Te187  1  0.07647128  0.25348689  0.24871494  1
  Te2-  Te188  1  0.08405417  0.25567170  0.58208093  1
  Te2-  Te189  1  0.08440601  0.24958696  0.92057461  1
  Te2-  Te190  1  0.08417288  0.58365034  0.25239743  1
  Te2-  Te191  1  0.07976224  0.58303378  0.58217167  1
  Te2-  Te192  1  0.07822863  0.58196270  0.91909462  1
  Te2-  Te193  1  0.08026869  0.91631576  0.25586436  1
  Te2-  Te194  1  0.07784009  0.92458290  0.58790318  1
  Te2-  Te195  1  0.07988958  0.91425426  0.91886552  1
  Te2-  Te196  1  0.41528714  0.25272416  0.24921930  1
  Te2-  Te197  1  0.41420730  0.25541496  0.58782918  1
  Te2-  Te198  1  0.41678391  0.25766010  0.91488620  1
  Te2-  Te199  1  0.41614920  0.59133548  0.25451856  1
  Te2-  Te200  1  0.41122296  0.58381288  0.58690715  1
  Te2-  Te201  1  0.41075672  0.58504984  0.91739860  1
  Te2-  Te202  1  0.41265202  0.92183775  0.25489814  1
  Te2-  Te203  1  0.41443011  0.91887136  0.58876347  1
  Te2-  Te204  1  0.40708806  0.91691573  0.91800003  1
  Te2-  Te205  1  0.74599235  0.24972237  0.25283599  1
  Te2-  Te206  1  0.74925347  0.25234782  0.58300261  1
  Te2-  Te207  1  0.74932276  0.25420919  0.91883077  1
  Te2-  Te208  1  0.74863609  0.58238385  0.25373212  1
  Te2-  Te209  1  0.75367375  0.58883378  0.58923005  1
  Te2-  Te210  1  0.74626637  0.58671835  0.92121871  1
  Te2-  Te211  1  0.75045934  0.91651636  0.25641186  1
  Te2-  Te212  1  0.74607209  0.91428073  0.58540088  1
  Te2-  Te213  1  0.74538848  0.92671328  0.92229893  1
  Te2-  Te214  1  0.07875635  0.07745366  0.08030169  1
  Te2-  Te215  1  0.08088029  0.08292706  0.40745097  1
  Te2-  Te216  1  0.08232460  0.08106637  0.74905362  1
  Te2-  Te217  1  0.08371922  0.41337556  0.08234948  1
  Te2-  Te218  1  0.08285201  0.41171983  0.41102051  1
  Te2-  Te219  1  0.08101598  0.41067732  0.74548103  1
  Te2-  Te220  1  0.08367695  0.74433150  0.08611226  1
  Te2-  Te221  1  0.08058784  0.75225790  0.41201344  1
  Te2-  Te222  1  0.07625941  0.74088978  0.74672677  1
  Te2-  Te223  1  0.41124283  0.07601482  0.07691804  1
  Te2-  Te224  1  0.41133060  0.08325760  0.41468166  1
  Te2-  Te225  1  0.41563023  0.08068044  0.74604779  1
  Te2-  Te226  1  0.41430168  0.41865069  0.07993971  1
  Te2-  Te227  1  0.41842471  0.41422571  0.41232626  1
  Te2-  Te228  1  0.41539017  0.41793337  0.74379563  1
  Te2-  Te229  1  0.41324732  0.75123767  0.07865138  1
  Te2-  Te230  1  0.41551420  0.74136854  0.41435952  1
  Te2-  Te231  1  0.41187234  0.74188865  0.75146179  1
  Te2-  Te232  1  0.74573947  0.08199848  0.08022235  1
  Te2-  Te233  1  0.74965237  0.07888323  0.41732398  1
  Te2-  Te234  1  0.74836889  0.08372455  0.74605500  1
  Te2-  Te235  1  0.74753965  0.41196938  0.08267986  1
  Te2-  Te236  1  0.74749192  0.41682373  0.41764537  1
  Te2-  Te237  1  0.74405025  0.41407515  0.74643893  1
  Te2-  Te238  1  0.74865409  0.74409923  0.08383166  1
  Te2-  Te239  1  0.74650006  0.74319286  0.41281757  1
  Te2-  Te240  1  0.74241587  0.75402798  0.75067349  1
