# generated using pymatgen
data_Ti27(Cu53Te54)2
_symmetry_space_group_name_H-M   'P 1'
_cell_length_a   17.87825134
_cell_length_b   17.88193693
_cell_length_c   17.88057256
_cell_angle_alpha   90.00230054
_cell_angle_beta   90.00752393
_cell_angle_gamma   90.00684442
_symmetry_Int_Tables_number   1
_chemical_formula_structural   Ti27(Cu53Te54)2
_chemical_formula_sum   'Ti27 Cu106 Te108'
_cell_volume   5716.37895202
_cell_formula_units_Z   1
loop_
 _symmetry_equiv_pos_site_id
 _symmetry_equiv_pos_as_xyz
  1  'x, y, z'
loop_
 _atom_type_symbol
 _atom_type_oxidation_number
  Ti4+  4.0
  Cu+  1.0
  Te2-  -2.0
loop_
 _atom_site_type_symbol
 _atom_site_label
 _atom_site_symmetry_multiplicity
 _atom_site_fract_x
 _atom_site_fract_y
 _atom_site_fract_z
 _atom_site_occupancy
  Ti4+  Ti0  1  0.16632925  0.16499034  0.17007925  1
  Ti4+  Ti1  1  0.16890222  0.16704567  0.50210829  1
  Ti4+  Ti2  1  0.16535092  0.16521928  0.83375918  1
  Ti4+  Ti3  1  0.16349361  0.49537580  0.16376816  1
  Ti4+  Ti4  1  0.16725377  0.50049813  0.50028233  1
  Ti4+  Ti5  1  0.16506546  0.50069697  0.83462115  1
  Ti4+  Ti6  1  0.16896110  0.83330065  0.17313143  1
  Ti4+  Ti7  1  0.16830951  0.83293115  0.49812906  1
  Ti4+  Ti8  1  0.16712357  0.83347120  0.83990261  1
  Ti4+  Ti9  1  0.49824745  0.16746840  0.16511168  1
  Ti4+  Ti10  1  0.50101541  0.16635036  0.49856636  1
  Ti4+  Ti11  1  0.49775868  0.16792470  0.83156442  1
  Ti4+  Ti12  1  0.49994235  0.50046757  0.16599580  1
  Ti4+  Ti13  1  0.50027596  0.49817647  0.50050484  1
  Ti4+  Ti14  1  0.49996575  0.50028792  0.83575886  1
  Ti4+  Ti15  1  0.50078943  0.83517966  0.16569417  1
  Ti4+  Ti16  1  0.49992194  0.82904041  0.50395950  1
  Ti4+  Ti17  1  0.49838882  0.83323858  0.82912128  1
  Ti4+  Ti18  1  0.83404616  0.16644442  0.16669344  1
  Ti4+  Ti19  1  0.83379692  0.17103711  0.50065896  1
  Ti4+  Ti20  1  0.83051381  0.16648763  0.83387443  1
  Ti4+  Ti21  1  0.83365704  0.49943332  0.16384782  1
  Ti4+  Ti22  1  0.83457684  0.50138315  0.49888365  1
  Ti4+  Ti23  1  0.83259369  0.50172352  0.83420564  1
  Ti4+  Ti24  1  0.83301440  0.83072626  0.16602236  1
  Ti4+  Ti25  1  0.83342216  0.83896515  0.49793049  1
  Ti4+  Ti26  1  0.83421136  0.83573834  0.82685328  1
  Cu+  Cu27  1  0.16364289  0.16297225  0.00122318  1
  Cu+  Cu28  1  0.17090479  0.16309772  0.33997277  1
  Cu+  Cu29  1  0.16794132  0.16592003  0.66679393  1
  Cu+  Cu30  1  0.16186451  0.49976545  -0.00056274  1
  Cu+  Cu31  1  0.16676073  0.49627489  0.33050094  1
  Cu+  Cu32  1  0.16440433  0.50224212  0.66625914  1
  Cu+  Cu33  1  0.16683483  0.83254061  0.00639780  1
  Cu+  Cu34  1  0.17179726  0.83882237  0.33599765  1
  Cu+  Cu35  1  0.16895748  0.83420323  0.67133470  1
  Cu+  Cu36  1  0.49849301  0.16843930  -0.00242059  1
  Cu+  Cu37  1  0.49622413  0.16938016  0.33102037  1
  Cu+  Cu38  1  0.50174064  0.16614497  0.66363364  1
  Cu+  Cu39  1  0.50060461  0.50120024  0.00178567  1
  Cu+  Cu40  1  0.50147451  0.49972947  0.33371245  1
  Cu+  Cu41  1  0.50113238  0.49771878  0.66953872  1
  Cu+  Cu42  1  0.49766311  0.83525497  -0.00368268  1
  Cu+  Cu43  1  0.50041793  0.83366591  0.33449217  1
  Cu+  Cu44  1  0.50123526  0.82410547  0.66723106  1
  Cu+  Cu45  1  0.83100464  0.16315574  -0.00034081  1
  Cu+  Cu46  1  0.83685351  0.17212977  0.33362068  1
  Cu+  Cu47  1  0.83413736  0.16809626  0.66881811  1
  Cu+  Cu48  1  0.82612542  0.49991651  -0.00132110  1
  Cu+  Cu49  1  0.83524668  0.49982693  0.33191396  1
  Cu+  Cu50  1  0.83423655  0.50178574  0.66765269  1
  Cu+  Cu51  1  0.83312798  0.83328952  -0.00454728  1
  Cu+  Cu52  1  0.83999358  0.83368091  0.33079421  1
  Cu+  Cu53  1  0.82649049  0.83989219  0.66215677  1
  Cu+  Cu54  1  0.17295006  0.00155072  0.16941850  1
  Cu+  Cu55  1  0.16795495  0.00069320  0.49663864  1
  Cu+  Cu56  1  0.16177780  -0.00330635  0.83726166  1
  Cu+  Cu57  1  0.15977075  0.32824451  0.16463870  1
  Cu+  Cu58  1  0.16753401  0.33532748  0.50230172  1
  Cu+  Cu59  1  0.16492831  0.33461817  0.83465467  1
  Cu+  Cu60  1  0.16570584  0.65896844  0.16875729  1
  Cu+  Cu61  1  0.16716812  0.66629858  0.49522646  1
  Cu+  Cu62  1  0.16955532  0.66762253  0.83742834  1
  Cu+  Cu63  1  0.50073811  0.00196294  0.16343594  1
  Cu+  Cu64  1  0.49765433  -0.00222248  0.50459283  1
  Cu+  Cu65  1  0.49811554  0.00115145  0.82966826  1
  Cu+  Cu66  1  0.50026488  0.33474897  0.16615050  1
  Cu+  Cu67  1  0.50160944  0.33053207  0.49886868  1
  Cu+  Cu68  1  0.49886258  0.33379185  0.83356713  1
  Cu+  Cu69  1  0.49967335  0.66925009  0.16708816  1
  Cu+  Cu70  1  0.49858808  0.66154596  0.50485071  1
  Cu+  Cu71  1  0.50052396  0.66682813  0.83510345  1
  Cu+  Cu72  1  0.83327281  -0.00172401  0.16646459  1
  Cu+  Cu73  1  0.83297960  0.00847390  0.49841900  1
  Cu+  Cu74  1  0.83189583  0.00156397  0.82442376  1
  Cu+  Cu75  1  0.83939034  0.33061518  0.16774836  1
  Cu+  Cu76  1  0.83276581  0.33815453  0.50089886  1
  Cu+  Cu77  1  0.82820924  0.33473861  0.83783612  1
  Cu+  Cu78  1  0.82941186  0.66381664  0.16164801  1
  Cu+  Cu79  1  0.83586895  0.66889436  0.49812977  1
  Cu+  Cu80  1  0.83704932  0.66769880  0.83243324  1
  Cu+  Cu81  1  0.00071606  0.17227121  0.17030721  1
  Cu+  Cu82  1  0.00115210  0.17078485  0.50290279  1
  Cu+  Cu83  1  -0.00522529  0.16304937  0.83290373  1
  Cu+  Cu84  1  0.00115239  0.49912342  0.15885577  1
  Cu+  Cu85  1  0.00201639  0.50168988  0.50047617  1
  Cu+  Cu86  1  -0.00194815  0.49968053  0.83418928  1
  Cu+  Cu87  1  -0.00405412  0.83374586  0.17304108  1
  Cu+  Cu88  1  -0.00093521  0.83664237  0.49246084  1
  Cu+  Cu89  1  0.00452100  0.84043293  0.83269087  1
  Cu+  Cu90  1  0.33305801  0.16368034  0.16489329  1
  Cu+  Cu91  1  0.33712140  0.16372504  0.49748479  1
  Cu+  Cu92  1  0.33148223  0.16777040  0.83313768  1
  Cu+  Cu93  1  0.33069766  0.49737383  0.16639064  1
  Cu+  Cu94  1  0.33312899  0.49682424  0.50019732  1
  Cu+  Cu95  1  0.33222373  0.50162584  0.83601635  1
  Cu+  Cu96  1  0.33787207  0.83204093  0.17488985  1
  Cu+  Cu97  1  0.33584817  0.82603840  0.50359782  1
  Cu+  Cu98  1  0.33024493  0.82637177  0.83604082  1
  Cu+  Cu99  1  0.66599267  0.16730618  0.16592039  1
  Cu+  Cu100  1  0.66713479  0.17164023  0.50138944  1
  Cu+  Cu101  1  0.66219503  0.16782315  0.83365976  1
  Cu+  Cu102  1  0.66698966  0.50159709  0.16277473  1
  Cu+  Cu103  1  0.66718509  0.50013656  0.49875710  1
  Cu+  Cu104  1  0.66911460  0.49771293  0.83917567  1
  Cu+  Cu105  1  0.66562916  0.83370081  0.16301964  1
  Cu+  Cu106  1  0.66913343  0.83221771  0.50484096  1
  Cu+  Cu107  1  0.66665920  0.83672836  0.82176394  1
  Cu+  Cu108  1  0.40546646  0.73134135  0.59408288  1
  Cu+  Cu109  1  0.41881221  0.73805662  0.26274819  1
  Cu+  Cu110  1  0.26000847  0.07645438  0.06975866  1
  Cu+  Cu111  1  0.73521631  0.59518871  0.07055448  1
  Cu+  Cu112  1  0.59654810  0.73273764  0.74657004  1
  Cu+  Cu113  1  0.92360689  0.73688820  0.40495717  1
  Cu+  Cu114  1  0.59475975  0.26067954  0.59434061  1
  Cu+  Cu115  1  0.40818128  0.73957947  0.92936189  1
  Cu+  Cu116  1  0.73341035  0.93465729  0.73580552  1
  Cu+  Cu117  1  0.08077340  0.92500561  0.73921417  1
  Cu+  Cu118  1  0.73726223  0.40185626  0.93059214  1
  Cu+  Cu119  1  0.07385503  0.93115337  0.40667520  1
  Cu+  Cu120  1  0.26129123  0.73766297  0.40947650  1
  Cu+  Cu121  1  0.07139679  0.25287393  0.06901850  1
  Cu+  Cu122  1  0.92600253  0.07644565  0.73696871  1
  Cu+  Cu123  1  0.92276227  0.93027060  0.25533593  1
  Cu+  Cu124  1  0.26546018  0.07271912  0.41193328  1
  Cu+  Cu125  1  0.40773576  0.26230209  0.40375489  1
  Cu+  Cu126  1  0.74775802  0.73701290  0.58783051  1
  Cu+  Cu127  1  0.26748527  0.92839310  0.25935442  1
  Cu+  Cu128  1  0.40760731  0.07370492  0.59504632  1
  Cu+  Cu129  1  0.07473948  0.59678648  0.07126407  1
  Cu+  Cu130  1  0.25271214  0.73728809  0.74279713  1
  Cu+  Cu131  1  0.92883903  0.26505477  0.26540753  1
  Cu+  Cu132  1  0.25878585  0.58126656  0.25815684  1
  Te2-  Te133  1  0.25062799  0.25015322  0.08164460  1
  Te2-  Te134  1  0.25382758  0.25574603  0.41610449  1
  Te2-  Te135  1  0.24926193  0.25233015  0.74957670  1
  Te2-  Te136  1  0.25137061  0.58279204  0.07894839  1
  Te2-  Te137  1  0.25673129  0.58403058  0.41146711  1
  Te2-  Te138  1  0.25248425  0.58498248  0.74772471  1
  Te2-  Te139  1  0.25590557  0.91622888  0.08453346  1
  Te2-  Te140  1  0.26344387  0.91993033  0.41640621  1
  Te2-  Te141  1  0.25386825  0.92000032  0.75311731  1
  Te2-  Te142  1  0.58398037  0.25203650  0.08048508  1
  Te2-  Te143  1  0.58649858  0.25180073  0.41041256  1
  Te2-  Te144  1  0.58506744  0.25502860  0.74698475  1
  Te2-  Te145  1  0.58371960  0.58976907  0.07988117  1
  Te2-  Te146  1  0.58451881  0.58546651  0.41587136  1
  Te2-  Te147  1  0.58879279  0.58229430  0.74931675  1
  Te2-  Te148  1  0.58447769  0.91931431  0.07783454  1
  Te2-  Te149  1  0.58406152  0.91558062  0.41988663  1
  Te2-  Te150  1  0.58040977  0.92275445  0.74023389  1
  Te2-  Te151  1  0.91886295  0.25079549  0.07550911  1
  Te2-  Te152  1  0.92185490  0.25791674  0.41769930  1
  Te2-  Te153  1  0.91584494  0.25596891  0.75187268  1
  Te2-  Te154  1  0.91851679  0.58591803  0.07542469  1
  Te2-  Te155  1  0.92196711  0.58567554  0.41221000  1
  Te2-  Te156  1  0.91990655  0.58574610  0.74789365  1
  Te2-  Te157  1  0.91827848  0.91640442  0.07975770  1
  Te2-  Te158  1  0.91937761  0.92986968  0.41105758  1
  Te2-  Te159  1  0.92333702  0.92105093  0.73977469  1
  Te2-  Te160  1  0.25859844  0.08040230  0.25868888  1
  Te2-  Te161  1  0.25355396  0.07790413  0.58796064  1
  Te2-  Te162  1  0.25168189  0.07846977  0.91787444  1
  Te2-  Te163  1  0.24957209  0.40818927  0.24888409  1
  Te2-  Te164  1  0.25134106  0.41597429  0.58785659  1
  Te2-  Te165  1  0.25021211  0.41557815  0.92000363  1
  Te2-  Te166  1  0.25517587  0.74017353  0.25640011  1
  Te2-  Te167  1  0.25037581  0.74316111  0.58889069  1
  Te2-  Te168  1  0.25181760  0.74484998  0.92902820  1
  Te2-  Te169  1  0.58351298  0.08340974  0.25135963  1
  Te2-  Te170  1  0.58846567  0.07989045  0.58349605  1
  Te2-  Te171  1  0.58184928  0.08101974  0.91696212  1
  Te2-  Te172  1  0.58641471  0.41645425  0.25020683  1
  Te2-  Te173  1  0.58735538  0.41404731  0.58639501  1
  Te2-  Te174  1  0.58394639  0.41231808  0.92237148  1
  Te2-  Te175  1  0.58709519  0.74962742  0.25221099  1
  Te2-  Te176  1  0.59037387  0.74029598  0.58751915  1
  Te2-  Te177  1  0.58894847  0.75307389  0.91495427  1
  Te2-  Te178  1  0.92078911  0.08174591  0.25354963  1
  Te2-  Te179  1  0.92090187  0.08350677  0.58523644  1
  Te2-  Te180  1  0.91434030  0.07717653  0.91843288  1
  Te2-  Te181  1  0.92311646  0.41680380  0.25100914  1
  Te2-  Te182  1  0.91960629  0.41758746  0.58582968  1
  Te2-  Te183  1  0.91715599  0.41549220  0.92062211  1
  Te2-  Te184  1  0.91844970  0.73891021  0.25041878  1
  Te2-  Te185  1  0.91999296  0.75477594  0.58471726  1
  Te2-  Te186  1  0.92085804  0.75288588  0.91345000  1
  Te2-  Te187  1  0.08399761  0.25145725  0.26171466  1
  Te2-  Te188  1  0.08408223  0.25294133  0.58714750  1
  Te2-  Te189  1  0.07758313  0.25004743  0.91685415  1
  Te2-  Te190  1  0.07715431  0.58047998  0.25264870  1
  Te2-  Te191  1  0.08222849  0.58865238  0.58371689  1
  Te2-  Te192  1  0.07760670  0.58887267  0.91849087  1
  Te2-  Te193  1  0.08002290  0.92350128  0.25438759  1
  Te2-  Te194  1  0.08298281  0.91856219  0.58454787  1
  Te2-  Te195  1  0.08095686  0.91835602  0.92815592  1
  Te2-  Te196  1  0.41034473  0.25509642  0.24903442  1
  Te2-  Te197  1  0.41288352  0.25196247  0.58498003  1
  Te2-  Te198  1  0.41266624  0.25292408  0.91753530  1
  Te2-  Te199  1  0.41286719  0.58534793  0.25467207  1
  Te2-  Te200  1  0.41186595  0.58011368  0.58948657  1
  Te2-  Te201  1  0.41354618  0.58638528  0.92205318  1
  Te2-  Te202  1  0.41895916  0.92452180  0.25541394  1
  Te2-  Te203  1  0.41304373  0.91512109  0.59028681  1
  Te2-  Te204  1  0.41244005  0.91937670  0.91359994  1
  Te2-  Te205  1  0.74787678  0.25297516  0.25063923  1
  Te2-  Te206  1  0.74964109  0.25665430  0.58853719  1
  Te2-  Te207  1  0.74303049  0.24953708  0.92221829  1
  Te2-  Te208  1  0.74850481  0.58339243  0.25147620  1
  Te2-  Te209  1  0.74802347  0.58576353  0.58540144  1
  Te2-  Te210  1  0.74585673  0.59318973  0.91784561  1
  Te2-  Te211  1  0.74722431  0.91601408  0.25183823  1
  Te2-  Te212  1  0.74509520  0.92923951  0.58150253  1
  Te2-  Te213  1  0.74766612  0.91881233  0.91240264  1
  Te2-  Te214  1  0.07889538  0.07833163  0.08694258  1
  Te2-  Te215  1  0.07732506  0.08343185  0.41594033  1
  Te2-  Te216  1  0.08008406  0.07877756  0.74465103  1
  Te2-  Te217  1  0.07745952  0.40833688  0.07561558  1
  Te2-  Te218  1  0.08230109  0.41464647  0.41541813  1
  Te2-  Te219  1  0.08042998  0.41604742  0.74864957  1
  Te2-  Te220  1  0.08064523  0.74952444  0.08814911  1
  Te2-  Te221  1  0.08128789  0.74782091  0.40979814  1
  Te2-  Te222  1  0.08195268  0.74745609  0.75106212  1
  Te2-  Te223  1  0.41412572  0.07982738  0.07681117  1
  Te2-  Te224  1  0.41782505  0.07510299  0.41034058  1
  Te2-  Te225  1  0.41115308  0.08163702  0.74593276  1
  Te2-  Te226  1  0.41404635  0.41552674  0.08120390  1
  Te2-  Te227  1  0.41434291  0.41399279  0.41268733  1
  Te2-  Te228  1  0.41348183  0.41612248  0.75109756  1
  Te2-  Te229  1  0.41274823  0.74833451  0.08066035  1
  Te2-  Te230  1  0.41558940  0.74117916  0.41369651  1
  Te2-  Te231  1  0.40896499  0.74041691  0.74563858  1
  Te2-  Te232  1  0.74746970  0.07971789  0.08343356  1
  Te2-  Te233  1  0.74805121  0.08853911  0.41310661  1
  Te2-  Te234  1  0.74080103  0.08525000  0.74419602  1
  Te2-  Te235  1  0.74696257  0.40813526  0.08327916  1
  Te2-  Te236  1  0.74882035  0.41648431  0.41307779  1
  Te2-  Te237  1  0.74775506  0.41617762  0.74715945  1
  Te2-  Te238  1  0.74594526  0.74918502  0.07620600  1
  Te2-  Te239  1  0.74885860  0.75192938  0.41211224  1
  Te2-  Te240  1  0.74935878  0.74235527  0.74258088  1
