# generated using pymatgen
data_Ti27(Cu53Te54)2
_symmetry_space_group_name_H-M   'P 1'
_cell_length_a   17.95144983
_cell_length_b   17.94754567
_cell_length_c   17.95201571
_cell_angle_alpha   90.01459540
_cell_angle_beta   90.11097692
_cell_angle_gamma   90.07498013
_symmetry_Int_Tables_number   1
_chemical_formula_structural   Ti27(Cu53Te54)2
_chemical_formula_sum   'Ti27 Cu106 Te108'
_cell_volume   5783.84459269
_cell_formula_units_Z   1
loop_
 _symmetry_equiv_pos_site_id
 _symmetry_equiv_pos_as_xyz
  1  'x, y, z'
loop_
 _atom_type_symbol
 _atom_type_oxidation_number
  Ti4+  4.0
  Cu+  1.0
  Te2-  -2.0
loop_
 _atom_site_type_symbol
 _atom_site_label
 _atom_site_symmetry_multiplicity
 _atom_site_fract_x
 _atom_site_fract_y
 _atom_site_fract_z
 _atom_site_occupancy
  Ti4+  Ti0  1  0.16450354  0.16887118  0.17056645  1
  Ti4+  Ti1  1  0.16961678  0.16585445  0.49894122  1
  Ti4+  Ti2  1  0.16718838  0.16734237  0.83141670  1
  Ti4+  Ti3  1  0.16937901  0.49941593  0.16466972  1
  Ti4+  Ti4  1  0.16736321  0.50228706  0.50014306  1
  Ti4+  Ti5  1  0.16594158  0.50269222  0.83602797  1
  Ti4+  Ti6  1  0.16647099  0.83534625  0.16666567  1
  Ti4+  Ti7  1  0.16123277  0.83291470  0.50102150  1
  Ti4+  Ti8  1  0.16472325  0.83635281  0.83416181  1
  Ti4+  Ti9  1  0.49607477  0.16586504  0.16437311  1
  Ti4+  Ti10  1  0.50003528  0.16360442  0.49553641  1
  Ti4+  Ti11  1  0.49838187  0.16576504  0.82916393  1
  Ti4+  Ti12  1  0.50445941  0.49721447  0.16987155  1
  Ti4+  Ti13  1  0.50142332  0.49849595  0.50533187  1
  Ti4+  Ti14  1  0.50069979  0.49945496  0.83224523  1
  Ti4+  Ti15  1  0.49625495  0.83054718  0.16553780  1
  Ti4+  Ti16  1  0.49860615  0.82861342  0.49950510  1
  Ti4+  Ti17  1  0.50159038  0.83524658  0.83187272  1
  Ti4+  Ti18  1  0.83300996  0.16840362  0.16601908  1
  Ti4+  Ti19  1  0.83379821  0.16761769  0.49973842  1
  Ti4+  Ti20  1  0.83423048  0.16671373  0.83398447  1
  Ti4+  Ti21  1  0.83531706  0.50188833  0.16592631  1
  Ti4+  Ti22  1  0.83326093  0.50137899  0.50064249  1
  Ti4+  Ti23  1  0.83439787  0.49939782  0.83410921  1
  Ti4+  Ti24  1  0.83277701  0.83476534  0.16664253  1
  Ti4+  Ti25  1  0.83560793  0.83384361  0.50036857  1
  Ti4+  Ti26  1  0.83370135  0.83567537  0.83379154  1
  Cu+  Cu27  1  0.16419518  0.16500568  0.00051936  1
  Cu+  Cu28  1  0.16608929  0.17753861  0.33746092  1
  Cu+  Cu29  1  0.17313071  0.16430778  0.66475475  1
  Cu+  Cu30  1  0.16355359  0.50515796  0.00160401  1
  Cu+  Cu31  1  0.16897257  0.49815120  0.33002973  1
  Cu+  Cu32  1  0.16904342  0.50104704  0.66893474  1
  Cu+  Cu33  1  0.16999323  0.83528987  0.00138302  1
  Cu+  Cu34  1  0.16257910  0.83559902  0.33417579  1
  Cu+  Cu35  1  0.15611335  0.83673996  0.66908838  1
  Cu+  Cu36  1  0.49477814  0.16640109  -0.00455604  1
  Cu+  Cu37  1  0.49671548  0.16326930  0.32772677  1
  Cu+  Cu38  1  0.49842950  0.16401096  0.66127038  1
  Cu+  Cu39  1  0.50255948  0.49889364  0.00019983  1
  Cu+  Cu40  1  0.50347905  0.49597074  0.33963704  1
  Cu+  Cu41  1  0.50815499  0.49769602  0.67027958  1
  Cu+  Cu42  1  0.49670110  0.83099198  -0.00395629  1
  Cu+  Cu43  1  0.49654610  0.82832746  0.33168456  1
  Cu+  Cu44  1  0.50189887  0.83296458  0.66725154  1
  Cu+  Cu45  1  0.83324506  0.16835691  -0.00004429  1
  Cu+  Cu46  1  0.83369420  0.16770993  0.33445812  1
  Cu+  Cu47  1  0.83424733  0.16744308  0.66738555  1
  Cu+  Cu48  1  0.83814531  0.49927712  -0.00088783  1
  Cu+  Cu49  1  0.82984161  0.50069887  0.33208469  1
  Cu+  Cu50  1  0.83443800  0.50130144  0.66722730  1
  Cu+  Cu51  1  0.83247190  0.83560418  0.00010287  1
  Cu+  Cu52  1  0.83608152  0.83309860  0.33200607  1
  Cu+  Cu53  1  0.83312473  0.83509132  0.66681049  1
  Cu+  Cu54  1  0.16929845  0.00474339  0.16552448  1
  Cu+  Cu55  1  0.16275458  -0.00328437  0.49826764  1
  Cu+  Cu56  1  0.16182513  0.00261007  0.83152293  1
  Cu+  Cu57  1  0.16721634  0.33466631  0.17712287  1
  Cu+  Cu58  1  0.16909471  0.33250239  0.49796217  1
  Cu+  Cu59  1  0.16977758  0.33761956  0.83234742  1
  Cu+  Cu60  1  0.16684495  0.66638216  0.16125071  1
  Cu+  Cu61  1  0.16527456  0.67033021  0.50131110  1
  Cu+  Cu62  1  0.16595636  0.66672981  0.83664301  1
  Cu+  Cu63  1  0.49179168  -0.00246423  0.16607709  1
  Cu+  Cu64  1  0.49945873  -0.00508395  0.49792387  1
  Cu+  Cu65  1  0.50132212  -0.00110491  0.83025495  1
  Cu+  Cu66  1  0.50726117  0.32798373  0.17093029  1
  Cu+  Cu67  1  0.50261140  0.33332073  0.49661175  1
  Cu+  Cu68  1  0.49976833  0.33170983  0.82884965  1
  Cu+  Cu69  1  0.49944377  0.66150134  0.16396547  1
  Cu+  Cu70  1  0.49814343  0.66159506  0.50493508  1
  Cu+  Cu71  1  0.49915754  0.66988384  0.83525157  1
  Cu+  Cu72  1  0.83171920  0.00030827  0.16764261  1
  Cu+  Cu73  1  0.83405942  0.00201717  0.50121856  1
  Cu+  Cu74  1  0.83327675  0.00186673  0.83424429  1
  Cu+  Cu75  1  0.83447184  0.33715655  0.16428302  1
  Cu+  Cu76  1  0.83355510  0.33338887  0.50260075  1
  Cu+  Cu77  1  0.83405536  0.33090577  0.83379733  1
  Cu+  Cu78  1  0.83353111  0.66942518  0.16534858  1
  Cu+  Cu79  1  0.83674918  0.66732098  0.49839297  1
  Cu+  Cu80  1  0.83424967  0.66780442  0.83486677  1
  Cu+  Cu81  1  -0.00285916  0.16925839  0.16864721  1
  Cu+  Cu82  1  -0.00000204  0.16825809  0.49944857  1
  Cu+  Cu83  1  0.00151069  0.16560073  0.83648012  1
  Cu+  Cu84  1  0.00127530  0.49775114  0.16032538  1
  Cu+  Cu85  1  -0.00040233  0.50106056  0.49963612  1
  Cu+  Cu86  1  0.00005730  0.50217508  0.83655940  1
  Cu+  Cu87  1  -0.00048058  0.83720160  0.16776659  1
  Cu+  Cu88  1  -0.00104425  0.82955713  0.49756896  1
  Cu+  Cu89  1  -0.00145454  0.83931302  0.83295207  1
  Cu+  Cu90  1  0.32947432  0.16473893  0.16999563  1
  Cu+  Cu91  1  0.33908129  0.15876703  0.50096366  1
  Cu+  Cu92  1  0.33129623  0.16515701  0.82651378  1
  Cu+  Cu93  1  0.34146906  0.50002413  0.16395465  1
  Cu+  Cu94  1  0.33522338  0.50615961  0.50134640  1
  Cu+  Cu95  1  0.32923593  0.49926273  0.83279857  1
  Cu+  Cu96  1  0.32875741  0.82972513  0.16333815  1
  Cu+  Cu97  1  0.32864310  0.82768889  0.50151719  1
  Cu+  Cu98  1  0.33575350  0.83466900  0.83390729  1
  Cu+  Cu99  1  0.66623871  0.16796757  0.16250928  1
  Cu+  Cu100  1  0.66887263  0.16668674  0.49805712  1
  Cu+  Cu101  1  0.66666697  0.16703030  0.83309601  1
  Cu+  Cu102  1  0.67070274  0.49732873  0.17217813  1
  Cu+  Cu103  1  0.66476234  0.50060411  0.50683537  1
  Cu+  Cu104  1  0.66878256  0.49798570  0.83203622  1
  Cu+  Cu105  1  0.66430483  0.83378638  0.16683907  1
  Cu+  Cu106  1  0.66786045  0.83204547  0.49951679  1
  Cu+  Cu107  1  0.66761321  0.83563466  0.83177972  1
  Cu+  Cu108  1  0.25858131  0.07985144  0.07261458  1
  Cu+  Cu109  1  0.06707577  0.93052892  0.74110372  1
  Cu+  Cu110  1  0.06997597  0.92743696  0.40309910  1
  Cu+  Cu111  1  0.41518621  0.58546763  0.07093633  1
  Cu+  Cu112  1  0.26185760  0.26306929  0.26393590  1
  Cu+  Cu113  1  0.07224063  0.41370925  0.25955401  1
  Cu+  Cu114  1  0.25721477  0.06971676  0.73887521  1
  Cu+  Cu115  1  0.41263515  0.58833912  0.40803238  1
  Cu+  Cu116  1  0.59685842  0.24273840  0.26050892  1
  Cu+  Cu117  1  0.07056522  0.07661046  0.93028393  1
  Cu+  Cu118  1  0.92014864  0.73632053  0.40065821  1
  Cu+  Cu119  1  0.07046352  0.59592800  0.07439087  1
  Cu+  Cu120  1  0.59424026  0.59593847  0.59920054  1
  Cu+  Cu121  1  0.92596429  0.40482349  0.06941236  1
  Cu+  Cu122  1  0.40206740  0.06708717  0.25615422  1
  Cu+  Cu123  1  0.25429627  0.73916983  0.07145013  1
  Cu+  Cu124  1  0.59561991  0.40692872  0.41472643  1
  Cu+  Cu125  1  0.41618003  0.06543639  0.59178653  1
  Cu+  Cu126  1  0.06927559  0.26351472  0.41730222  1
  Cu+  Cu127  1  0.59988413  0.40078224  0.74737096  1
  Cu+  Cu128  1  0.40637039  0.74057953  0.91889599  1
  Cu+  Cu129  1  0.25821555  0.40954428  0.73895132  1
  Cu+  Cu130  1  0.07190079  0.73727624  0.59819710  1
  Cu+  Cu131  1  0.74632733  0.40607857  0.25916996  1
  Cu+  Cu132  1  0.25654546  0.74620905  0.40614137  1
  Te2-  Te133  1  0.24840913  0.25279300  0.08327723  1
  Te2-  Te134  1  0.26109795  0.25257276  0.41836399  1
  Te2-  Te135  1  0.25276170  0.25553496  0.74480425  1
  Te2-  Te136  1  0.25873613  0.58565259  0.07814685  1
  Te2-  Te137  1  0.25151737  0.58852301  0.41221129  1
  Te2-  Te138  1  0.25110829  0.58963733  0.75013974  1
  Te2-  Te139  1  0.25325548  0.92301016  0.08084622  1
  Te2-  Te140  1  0.25165924  0.91665182  0.41618609  1
  Te2-  Te141  1  0.25235418  0.91740234  0.74694838  1
  Te2-  Te142  1  0.58214987  0.24915707  0.07643346  1
  Te2-  Te143  1  0.58838753  0.25057550  0.41048297  1
  Te2-  Te144  1  0.58607048  0.24831892  0.74319204  1
  Te2-  Te145  1  0.59016186  0.58081910  0.08360691  1
  Te2-  Te146  1  0.58710069  0.58592277  0.41751340  1
  Te2-  Te147  1  0.58803432  0.59006648  0.75215177  1
  Te2-  Te148  1  0.57936338  0.91689263  0.08164866  1
  Te2-  Te149  1  0.58280966  0.91234252  0.41366672  1
  Te2-  Te150  1  0.58707381  0.91968753  0.74553799  1
  Te2-  Te151  1  0.91987896  0.25343566  0.08009438  1
  Te2-  Te152  1  0.91789051  0.25616576  0.41362224  1
  Te2-  Te153  1  0.92083643  0.25080147  0.74951289  1
  Te2-  Te154  1  0.91940646  0.59021688  0.07910412  1
  Te2-  Te155  1  0.91951021  0.58342064  0.41155119  1
  Te2-  Te156  1  0.91872605  0.58539882  0.75013969  1
  Te2-  Te157  1  0.91747656  0.92051188  0.08213074  1
  Te2-  Te158  1  0.91896525  0.92256178  0.41359842  1
  Te2-  Te159  1  0.91694387  0.92364002  0.74572164  1
  Te2-  Te160  1  0.24793569  0.08161917  0.26016929  1
  Te2-  Te161  1  0.25411345  0.07377178  0.58364403  1
  Te2-  Te162  1  0.25321150  0.08032588  0.91789910  1
  Te2-  Te163  1  0.26072617  0.41767497  0.25227936  1
  Te2-  Te164  1  0.25363625  0.41632404  0.58318387  1
  Te2-  Te165  1  0.25052565  0.41737467  0.92341610  1
  Te2-  Te166  1  0.24899767  0.74640157  0.25327313  1
  Te2-  Te167  1  0.24593957  0.75032124  0.59220083  1
  Te2-  Te168  1  0.25265549  0.74745441  0.91898135  1
  Te2-  Te169  1  0.58495171  0.07913818  0.24658037  1
  Te2-  Te170  1  0.58603288  0.07931885  0.58064700  1
  Te2-  Te171  1  0.58239371  0.08272044  0.91604559  1
  Te2-  Te172  1  0.59097472  0.40927163  0.25870509  1
  Te2-  Te173  1  0.58871298  0.40721349  0.58935892  1
  Te2-  Te174  1  0.58450844  0.41328017  0.91713262  1
  Te2-  Te175  1  0.58180807  0.74606423  0.24863478  1
  Te2-  Te176  1  0.58692863  0.74747867  0.58589926  1
  Te2-  Te177  1  0.58808931  0.74991506  0.91786650  1
  Te2-  Te178  1  0.91647125  0.08313669  0.25181471  1
  Te2-  Te179  1  0.91950369  0.08366598  0.58508894  1
  Te2-  Te180  1  0.91877997  0.08007158  0.92204248  1
  Te2-  Te181  1  0.92078573  0.41562468  0.25493360  1
  Te2-  Te182  1  0.91859398  0.41670979  0.58479938  1
  Te2-  Te183  1  0.92169060  0.41161896  0.91778957  1
  Te2-  Te184  1  0.92178115  0.74715399  0.24983793  1
  Te2-  Te185  1  0.91919632  0.74694416  0.58979852  1
  Te2-  Te186  1  0.91909101  0.75165471  0.91905775  1
  Te2-  Te187  1  0.07350979  0.25578312  0.25672237  1
  Te2-  Te188  1  0.08583781  0.25064177  0.58552898  1
  Te2-  Te189  1  0.08483433  0.25464564  0.91715554  1
  Te2-  Te190  1  0.08248396  0.58488464  0.24841612  1
  Te2-  Te191  1  0.08094920  0.58416160  0.58683378  1
  Te2-  Te192  1  0.07785973  0.59009236  0.92141639  1
  Te2-  Te193  1  0.08105116  0.92363548  0.25045385  1
  Te2-  Te194  1  0.07377108  0.92263110  0.58525965  1
  Te2-  Te195  1  0.08100544  0.92056739  0.92319246  1
  Te2-  Te196  1  0.41179071  0.25508493  0.25261151  1
  Te2-  Te197  1  0.41710478  0.25230308  0.58022919  1
  Te2-  Te198  1  0.41220793  0.25078034  0.91227927  1
  Te2-  Te199  1  0.41794888  0.58270700  0.25600438  1
  Te2-  Te200  1  0.41600234  0.58264931  0.59413712  1
  Te2-  Te201  1  0.41241846  0.58460727  0.91872599  1
  Te2-  Te202  1  0.40859728  0.91321893  0.25243588  1
  Te2-  Te203  1  0.41235549  0.91289733  0.58497676  1
  Te2-  Te204  1  0.41535993  0.92195224  0.91741775  1
  Te2-  Te205  1  0.74762902  0.25440395  0.25400770  1
  Te2-  Te206  1  0.74807330  0.25129791  0.58557729  1
  Te2-  Te207  1  0.74785538  0.25159228  0.91825564  1
  Te2-  Te208  1  0.74964351  0.58909349  0.25086486  1
  Te2-  Te209  1  0.75023064  0.58830722  0.58709801  1
  Te2-  Te210  1  0.74970974  0.58371492  0.91901758  1
  Te2-  Te211  1  0.74762567  0.91783197  0.25267158  1
  Te2-  Te212  1  0.74865482  0.91839329  0.58351184  1
  Te2-  Te213  1  0.74790155  0.92027796  0.91821832  1
  Te2-  Te214  1  0.07652357  0.08231077  0.08477753  1
  Te2-  Te215  1  0.08140633  0.08254972  0.41246069  1
  Te2-  Te216  1  0.07843504  0.08419315  0.74183661  1
  Te2-  Te217  1  0.08543578  0.40881853  0.07952673  1
  Te2-  Te218  1  0.08054966  0.41564659  0.41387107  1
  Te2-  Te219  1  0.08050818  0.41767909  0.74986478  1
  Te2-  Te220  1  0.07860191  0.75165200  0.07926325  1
  Te2-  Te221  1  0.07760454  0.74384000  0.40979717  1
  Te2-  Te222  1  0.07786799  0.74592590  0.75330007  1
  Te2-  Te223  1  0.40983958  0.08046863  0.07707985  1
  Te2-  Te224  1  0.41504430  0.07515420  0.40912620  1
  Te2-  Te225  1  0.41257992  0.07545061  0.74319190  1
  Te2-  Te226  1  0.42200176  0.40993926  0.08372286  1
  Te2-  Te227  1  0.41213178  0.41490644  0.41783631  1
  Te2-  Te228  1  0.41288884  0.41537549  0.74635018  1
  Te2-  Te229  1  0.41008134  0.74177016  0.07643472  1
  Te2-  Te230  1  0.41100324  0.74172348  0.41370138  1
  Te2-  Te231  1  0.41434740  0.74850150  0.74662227  1
  Te2-  Te232  1  0.74844304  0.08270490  0.08144916  1
  Te2-  Te233  1  0.74932901  0.08127899  0.41405079  1
  Te2-  Te234  1  0.74869631  0.08250314  0.74849962  1
  Te2-  Te235  1  0.74805646  0.41749606  0.07915594  1
  Te2-  Te236  1  0.74685812  0.41248633  0.41604002  1
  Te2-  Te237  1  0.75120823  0.41217942  0.74616792  1
  Te2-  Te238  1  0.74751670  0.75018951  0.08134155  1
  Te2-  Te239  1  0.74997389  0.74874025  0.41438532  1
  Te2-  Te240  1  0.74966704  0.74942596  0.74887425  1
