# generated using pymatgen
data_Ti27(Cu53Te54)2
_symmetry_space_group_name_H-M   'P 1'
_cell_length_a   17.88794887
_cell_length_b   17.88316808
_cell_length_c   17.88645349
_cell_angle_alpha   89.97617274
_cell_angle_beta   89.98071153
_cell_angle_gamma   90.01967154
_symmetry_Int_Tables_number   1
_chemical_formula_structural   Ti27(Cu53Te54)2
_chemical_formula_sum   'Ti27 Cu106 Te108'
_cell_volume   5721.75361886
_cell_formula_units_Z   1
loop_
 _symmetry_equiv_pos_site_id
 _symmetry_equiv_pos_as_xyz
  1  'x, y, z'
loop_
 _atom_type_symbol
 _atom_type_oxidation_number
  Ti4+  4.0
  Cu+  1.0
  Te2-  -2.0
loop_
 _atom_site_type_symbol
 _atom_site_label
 _atom_site_symmetry_multiplicity
 _atom_site_fract_x
 _atom_site_fract_y
 _atom_site_fract_z
 _atom_site_occupancy
  Ti4+  Ti0  1  0.16610748  0.16349060  0.16676735  1
  Ti4+  Ti1  1  0.16594248  0.16557043  0.50301097  1
  Ti4+  Ti2  1  0.16547633  0.16811246  0.83684323  1
  Ti4+  Ti3  1  0.17112710  0.50178577  0.16467886  1
  Ti4+  Ti4  1  0.16923379  0.49964274  0.49869668  1
  Ti4+  Ti5  1  0.16329545  0.50294965  0.82987777  1
  Ti4+  Ti6  1  0.16623181  0.83247929  0.16670925  1
  Ti4+  Ti7  1  0.16547180  0.83398130  0.49937486  1
  Ti4+  Ti8  1  0.16577115  0.83316793  0.83387122  1
  Ti4+  Ti9  1  0.49951782  0.16823926  0.16647875  1
  Ti4+  Ti10  1  0.49462798  0.16530683  0.49883484  1
  Ti4+  Ti11  1  0.50188746  0.16855765  0.83380481  1
  Ti4+  Ti12  1  0.50529156  0.50505944  0.16830524  1
  Ti4+  Ti13  1  0.49966280  0.49593993  0.50035465  1
  Ti4+  Ti14  1  0.49528580  0.49826851  0.83356362  1
  Ti4+  Ti15  1  0.49960783  0.83144960  0.16868344  1
  Ti4+  Ti16  1  0.49778365  0.83408739  0.50313504  1
  Ti4+  Ti17  1  0.50045492  0.83234060  0.83238224  1
  Ti4+  Ti18  1  0.83633245  0.16675170  0.16759513  1
  Ti4+  Ti19  1  0.83022646  0.16516767  0.49908890  1
  Ti4+  Ti20  1  0.83441766  0.16512868  0.83331023  1
  Ti4+  Ti21  1  0.83815830  0.49955717  0.16908827  1
  Ti4+  Ti22  1  0.83484084  0.49856279  0.50136133  1
  Ti4+  Ti23  1  0.83222336  0.49941451  0.83344265  1
  Ti4+  Ti24  1  0.83290622  0.83414916  0.16681403  1
  Ti4+  Ti25  1  0.83271787  0.83390054  0.49749709  1
  Ti4+  Ti26  1  0.83333457  0.83249485  0.83086644  1
  Cu+  Cu27  1  0.16428961  0.16531214  0.00431833  1
  Cu+  Cu28  1  0.16466305  0.16537599  0.33317602  1
  Cu+  Cu29  1  0.16489487  0.16651069  0.67342057  1
  Cu+  Cu30  1  0.16368836  0.50649152  -0.00515476  1
  Cu+  Cu31  1  0.17570805  0.50149355  0.33250262  1
  Cu+  Cu32  1  0.16393000  0.49754099  0.66327812  1
  Cu+  Cu33  1  0.16629202  0.83086234  0.00060523  1
  Cu+  Cu34  1  0.16235451  0.83381875  0.33353908  1
  Cu+  Cu35  1  0.16708669  0.83372981  0.66717603  1
  Cu+  Cu36  1  0.50123089  0.16931929  -0.00048458  1
  Cu+  Cu37  1  0.49634699  0.16943803  0.33354664  1
  Cu+  Cu38  1  0.50137681  0.16724272  0.66532821  1
  Cu+  Cu39  1  0.50208774  0.50840333  0.00054719  1
  Cu+  Cu40  1  0.50052495  0.49658634  0.32921297  1
  Cu+  Cu41  1  0.49378597  0.49291033  0.66842734  1
  Cu+  Cu42  1  0.50016646  0.83268084  -0.00163572  1
  Cu+  Cu43  1  0.49769265  0.83163085  0.33803459  1
  Cu+  Cu44  1  0.50184483  0.83162018  0.66889194  1
  Cu+  Cu45  1  0.84013652  0.16542108  -0.00032943  1
  Cu+  Cu46  1  0.83420829  0.16155204  0.33588503  1
  Cu+  Cu47  1  0.83306448  0.16775885  0.66532500  1
  Cu+  Cu48  1  0.83279465  0.49910520  0.00369986  1
  Cu+  Cu49  1  0.83957529  0.49697547  0.33588872  1
  Cu+  Cu50  1  0.83086262  0.49909846  0.66732747  1
  Cu+  Cu51  1  0.83357695  0.83358453  -0.00505846  1
  Cu+  Cu52  1  0.83022800  0.83479588  0.33022249  1
  Cu+  Cu53  1  0.83295693  0.83375823  0.66386929  1
  Cu+  Cu54  1  0.16946979  -0.00005635  0.16553903  1
  Cu+  Cu55  1  0.16916460  -0.00221019  0.50473627  1
  Cu+  Cu56  1  0.16442097  0.00108540  0.83722341  1
  Cu+  Cu57  1  0.16638776  0.32974286  0.16618456  1
  Cu+  Cu58  1  0.16371590  0.33497267  0.50142486  1
  Cu+  Cu59  1  0.16547825  0.33604224  0.83334247  1
  Cu+  Cu60  1  0.17013674  0.66750769  0.16462346  1
  Cu+  Cu61  1  0.16923161  0.66789316  0.49640669  1
  Cu+  Cu62  1  0.16655741  0.66729626  0.83263202  1
  Cu+  Cu63  1  0.49801883  0.00057322  0.17042479  1
  Cu+  Cu64  1  0.48729867  -0.00158240  0.49884673  1
  Cu+  Cu65  1  0.50347633  -0.00034358  0.83368014  1
  Cu+  Cu66  1  0.50344450  0.33683739  0.16948421  1
  Cu+  Cu67  1  0.49354310  0.32952323  0.50309639  1
  Cu+  Cu68  1  0.50137816  0.33519559  0.82843562  1
  Cu+  Cu69  1  0.50469737  0.67048622  0.16184773  1
  Cu+  Cu70  1  0.50397628  0.66829881  0.49793197  1
  Cu+  Cu71  1  0.49652579  0.66294267  0.83156987  1
  Cu+  Cu72  1  0.83525834  0.00042177  0.16423222  1
  Cu+  Cu73  1  0.83101833  0.00068130  0.49386918  1
  Cu+  Cu74  1  0.83279716  -0.00300480  0.83019907  1
  Cu+  Cu75  1  0.83739485  0.33551918  0.17328798  1
  Cu+  Cu76  1  0.83439846  0.33022149  0.50306725  1
  Cu+  Cu77  1  0.83332739  0.33135358  0.83604725  1
  Cu+  Cu78  1  0.83381583  0.66543991  0.16777452  1
  Cu+  Cu79  1  0.83298565  0.66498540  0.49981128  1
  Cu+  Cu80  1  0.83250993  0.66850443  0.83151827  1
  Cu+  Cu81  1  0.00086090  0.16357778  0.16223346  1
  Cu+  Cu82  1  -0.00322042  0.16528975  0.50060451  1
  Cu+  Cu83  1  -0.00180895  0.17018558  0.83905395  1
  Cu+  Cu84  1  0.00453722  0.50111615  0.16401651  1
  Cu+  Cu85  1  0.00354138  0.49660218  0.50011380  1
  Cu+  Cu86  1  -0.00284461  0.49983620  0.83116865  1
  Cu+  Cu87  1  -0.00090817  0.83324161  0.16823001  1
  Cu+  Cu88  1  0.00018759  0.83428498  0.49830380  1
  Cu+  Cu89  1  -0.00046873  0.83304487  0.83233528  1
  Cu+  Cu90  1  0.33083296  0.16223696  0.16616204  1
  Cu+  Cu91  1  0.33352105  0.16287554  0.49963629  1
  Cu+  Cu92  1  0.33380373  0.16983982  0.83578045  1
  Cu+  Cu93  1  0.33789881  0.50762377  0.17348485  1
  Cu+  Cu94  1  0.33601954  0.49635613  0.50237347  1
  Cu+  Cu95  1  0.32808363  0.50650151  0.82760049  1
  Cu+  Cu96  1  0.33012692  0.82969416  0.16712314  1
  Cu+  Cu97  1  0.32944758  0.84164811  0.50210813  1
  Cu+  Cu98  1  0.33673058  0.83353931  0.83282689  1
  Cu+  Cu99  1  0.66741907  0.16948927  0.16873636  1
  Cu+  Cu100  1  0.66092891  0.16634666  0.50063884  1
  Cu+  Cu101  1  0.66976840  0.16477211  0.83213802  1
  Cu+  Cu102  1  0.67573450  0.50417278  0.16585558  1
  Cu+  Cu103  1  0.67041409  0.49814210  0.49859985  1
  Cu+  Cu104  1  0.66491127  0.49426061  0.83755429  1
  Cu+  Cu105  1  0.66588902  0.83295080  0.16898014  1
  Cu+  Cu106  1  0.66576455  0.83307780  0.49852122  1
  Cu+  Cu107  1  0.66973540  0.83190388  0.83097806  1
  Cu+  Cu108  1  0.07290004  0.59588812  0.07247326  1
  Cu+  Cu109  1  0.59136060  0.25738837  0.58972046  1
  Cu+  Cu110  1  0.25856573  0.74324498  0.07094690  1
  Cu+  Cu111  1  0.25550561  0.92608665  0.60080061  1
  Cu+  Cu112  1  0.92300628  0.26464128  0.92894407  1
  Cu+  Cu113  1  0.40755763  0.40721363  0.25082430  1
  Cu+  Cu114  1  0.07468716  0.26090389  0.07752648  1
  Cu+  Cu115  1  0.40323667  0.40234467  0.59639692  1
  Cu+  Cu116  1  0.40102928  0.92190018  0.40221413  1
  Cu+  Cu117  1  0.59563638  0.41213203  0.74073068  1
  Cu+  Cu118  1  0.41039906  0.07253052  0.60104004  1
  Cu+  Cu119  1  0.59851644  0.75552164  0.06816979  1
  Cu+  Cu120  1  0.40354932  0.59420225  0.73408886  1
  Cu+  Cu121  1  0.41111012  0.59350875  0.07703274  1
  Cu+  Cu122  1  0.07181508  0.40821458  0.59345688  1
  Cu+  Cu123  1  0.40108807  0.25884802  0.40582637  1
  Cu+  Cu124  1  0.59462115  0.59264846  0.91507214  1
  Cu+  Cu125  1  0.92902003  0.07153110  0.40835572  1
  Cu+  Cu126  1  0.26350465  0.07296708  0.07185227  1
  Cu+  Cu127  1  0.26260585  0.59865953  0.26464462  1
  Cu+  Cu128  1  0.25673469  0.59438030  0.91982988  1
  Cu+  Cu129  1  0.59546283  0.74074803  0.40973792  1
  Cu+  Cu130  1  0.92639166  0.25466890  0.59278214  1
  Cu+  Cu131  1  0.92441802  0.06707981  0.06850106  1
  Cu+  Cu132  1  0.74913007  0.59446393  0.07386257  1
  Te2-  Te133  1  0.25344955  0.25124334  0.08121385  1
  Te2-  Te134  1  0.24860597  0.25174841  0.41554519  1
  Te2-  Te135  1  0.25082643  0.25320557  0.75100322  1
  Te2-  Te136  1  0.25902025  0.58918431  0.07500259  1
  Te2-  Te137  1  0.25966727  0.58695243  0.41675612  1
  Te2-  Te138  1  0.24747752  0.58952063  0.73875819  1
  Te2-  Te139  1  0.25404785  0.91803979  0.07906124  1
  Te2-  Te140  1  0.24885774  0.92243171  0.40902557  1
  Te2-  Te141  1  0.25270928  0.92141751  0.75201370  1
  Te2-  Te142  1  0.58541438  0.25402029  0.08300492  1
  Te2-  Te143  1  0.58234749  0.25366433  0.41495994  1
  Te2-  Te144  1  0.59061812  0.25338723  0.74552560  1
  Te2-  Te145  1  0.59512676  0.59173258  0.07791913  1
  Te2-  Te146  1  0.58569702  0.58080991  0.41362131  1
  Te2-  Te147  1  0.58491782  0.58028290  0.74594574  1
  Te2-  Te148  1  0.58310666  0.91875187  0.08343786  1
  Te2-  Te149  1  0.58178481  0.92183716  0.41740752  1
  Te2-  Te150  1  0.58667456  0.91750727  0.74833135  1
  Te2-  Te151  1  0.92156019  0.25929842  0.08173296  1
  Te2-  Te152  1  0.91802538  0.25175583  0.41363378  1
  Te2-  Te153  1  0.92010343  0.25349179  0.74729460  1
  Te2-  Te154  1  0.92116568  0.58794027  0.07931056  1
  Te2-  Te155  1  0.92155211  0.58384774  0.41775420  1
  Te2-  Te156  1  0.91581273  0.58478493  0.74737975  1
  Te2-  Te157  1  0.92032936  0.91576113  0.07808096  1
  Te2-  Te158  1  0.91988094  0.91835869  0.41003079  1
  Te2-  Te159  1  0.91943585  0.91759351  0.74534684  1
  Te2-  Te160  1  0.25136355  0.07921325  0.25538566  1
  Te2-  Te161  1  0.25256193  0.08143565  0.59236925  1
  Te2-  Te162  1  0.25322664  0.08152208  0.92008394  1
  Te2-  Te163  1  0.25379610  0.41089025  0.24983169  1
  Te2-  Te164  1  0.25304161  0.41112162  0.58751179  1
  Te2-  Te165  1  0.25043633  0.41894835  0.91619544  1
  Te2-  Te166  1  0.25177207  0.74867455  0.25774665  1
  Te2-  Te167  1  0.25243259  0.74850235  0.58428102  1
  Te2-  Te168  1  0.25647513  0.74703445  0.91840490  1
  Te2-  Te169  1  0.58380670  0.08430108  0.25281048  1
  Te2-  Te170  1  0.58056035  0.07590105  0.58235223  1
  Te2-  Te171  1  0.58649569  0.08312877  0.91865499  1
  Te2-  Te172  1  0.59350031  0.41839009  0.25014577  1
  Te2-  Te173  1  0.58898707  0.41147908  0.58614196  1
  Te2-  Te174  1  0.57989524  0.41293661  0.92363865  1
  Te2-  Te175  1  0.58611204  0.74699517  0.25659395  1
  Te2-  Te176  1  0.58639783  0.74817014  0.58682028  1
  Te2-  Te177  1  0.58892412  0.74493692  0.91677965  1
  Te2-  Te178  1  0.92211450  0.07898105  0.25288508  1
  Te2-  Te179  1  0.91563906  0.07798214  0.58542976  1
  Te2-  Te180  1  0.92073977  0.07448334  0.91645602  1
  Te2-  Te181  1  0.92701244  0.41602343  0.25316185  1
  Te2-  Te182  1  0.92006398  0.41151182  0.59063593  1
  Te2-  Te183  1  0.91952912  0.41673086  0.92108268  1
  Te2-  Te184  1  0.91744370  0.74824037  0.25208068  1
  Te2-  Te185  1  0.91807306  0.74895813  0.58231061  1
  Te2-  Te186  1  0.91909689  0.74678340  0.91715969  1
  Te2-  Te187  1  0.07944296  0.25017925  0.25213740  1
  Te2-  Te188  1  0.07973678  0.25127529  0.58969354  1
  Te2-  Te189  1  0.08012129  0.25779324  0.92303840  1
  Te2-  Te190  1  0.08588329  0.58492304  0.25215387  1
  Te2-  Te191  1  0.08353264  0.58731052  0.58202194  1
  Te2-  Te192  1  0.07418594  0.58993384  0.91517393  1
  Te2-  Te193  1  0.08143146  0.91961569  0.24992225  1
  Te2-  Te194  1  0.07916789  0.91824275  0.58658803  1
  Te2-  Te195  1  0.08070869  0.91632791  0.92022410  1
  Te2-  Te196  1  0.40876805  0.25408682  0.25094811  1
  Te2-  Te197  1  0.40663662  0.25057370  0.59108196  1
  Te2-  Te198  1  0.41728246  0.25511063  0.91794348  1
  Te2-  Te199  1  0.42050666  0.59482397  0.25714447  1
  Te2-  Te200  1  0.41702971  0.58766735  0.58329868  1
  Te2-  Te201  1  0.40891921  0.58947002  0.92110608  1
  Te2-  Te202  1  0.41120208  0.91706644  0.25142332  1
  Te2-  Te203  1  0.41097291  0.91950867  0.59651502  1
  Te2-  Te204  1  0.41690470  0.91898210  0.91815912  1
  Te2-  Te205  1  0.75206336  0.25081389  0.25462489  1
  Te2-  Te206  1  0.74408537  0.25197197  0.58682227  1
  Te2-  Te207  1  0.74857798  0.24889978  0.92123222  1
  Te2-  Te208  1  0.75362672  0.58436920  0.25775278  1
  Te2-  Te209  1  0.74762276  0.58429715  0.58521076  1
  Te2-  Te210  1  0.74717739  0.58777322  0.91917574  1
  Te2-  Te211  1  0.74706643  0.92159355  0.24941622  1
  Te2-  Te212  1  0.74755039  0.91942527  0.58202323  1
  Te2-  Te213  1  0.74718078  0.91871307  0.91695816  1
  Te2-  Te214  1  0.07932435  0.07369358  0.07890458  1
  Te2-  Te215  1  0.08266760  0.07882112  0.41730411  1
  Te2-  Te216  1  0.07857674  0.08265976  0.75339801  1
  Te2-  Te217  1  0.08486545  0.41581702  0.07828033  1
  Te2-  Te218  1  0.08538647  0.41587100  0.40940369  1
  Te2-  Te219  1  0.07749730  0.41303931  0.74752920  1
  Te2-  Te220  1  0.07766475  0.74741311  0.08063759  1
  Te2-  Te221  1  0.08025065  0.74742946  0.41423739  1
  Te2-  Te222  1  0.08167180  0.74857813  0.74725191  1
  Te2-  Te223  1  0.41681378  0.08002210  0.07915346  1
  Te2-  Te224  1  0.40847765  0.07944486  0.40720120  1
  Te2-  Te225  1  0.41445823  0.08146606  0.75163370  1
  Te2-  Te226  1  0.41751577  0.42013784  0.08335449  1
  Te2-  Te227  1  0.41210110  0.41221255  0.40983647  1
  Te2-  Te228  1  0.40440893  0.40988275  0.75018509  1
  Te2-  Te229  1  0.41192134  0.74722188  0.07704449  1
  Te2-  Te230  1  0.40894122  0.74855400  0.42016981  1
  Te2-  Te231  1  0.41293709  0.74664642  0.74546228  1
  Te2-  Te232  1  0.74896366  0.08479281  0.08146877  1
  Te2-  Te233  1  0.74057777  0.08206565  0.41390916  1
  Te2-  Te234  1  0.74971658  0.08074129  0.74588619  1
  Te2-  Te235  1  0.75136368  0.41119653  0.08481499  1
  Te2-  Te236  1  0.75166740  0.41177328  0.41512881  1
  Te2-  Te237  1  0.74804052  0.41078521  0.74867932  1
  Te2-  Te238  1  0.74857878  0.74774117  0.07753308  1
  Te2-  Te239  1  0.74787942  0.74579033  0.41190372  1
  Te2-  Te240  1  0.74804476  0.74694738  0.74406065  1
