# generated using pymatgen
data_Ti27(Cu53Te54)2
_symmetry_space_group_name_H-M   'P 1'
_cell_length_a   17.86748396
_cell_length_b   17.87011641
_cell_length_c   17.87126972
_cell_angle_alpha   90.03008486
_cell_angle_beta   90.01074765
_cell_angle_gamma   89.98797415
_symmetry_Int_Tables_number   1
_chemical_formula_structural   Ti27(Cu53Te54)2
_chemical_formula_sum   'Ti27 Cu106 Te108'
_cell_volume   5706.18851166
_cell_formula_units_Z   1
loop_
 _symmetry_equiv_pos_site_id
 _symmetry_equiv_pos_as_xyz
  1  'x, y, z'
loop_
 _atom_type_symbol
 _atom_type_oxidation_number
  Ti4+  4.0
  Cu+  1.0
  Te2-  -2.0
loop_
 _atom_site_type_symbol
 _atom_site_label
 _atom_site_symmetry_multiplicity
 _atom_site_fract_x
 _atom_site_fract_y
 _atom_site_fract_z
 _atom_site_occupancy
  Ti4+  Ti0  1  0.16416877  0.16632915  0.16664728  1
  Ti4+  Ti1  1  0.16872246  0.16481892  0.50024796  1
  Ti4+  Ti2  1  0.16741705  0.16440110  0.83186677  1
  Ti4+  Ti3  1  0.16472989  0.49723243  0.16913756  1
  Ti4+  Ti4  1  0.16947463  0.49865302  0.49933410  1
  Ti4+  Ti5  1  0.16613424  0.50225141  0.83267596  1
  Ti4+  Ti6  1  0.16563800  0.83050258  0.16156305  1
  Ti4+  Ti7  1  0.16787345  0.83392163  0.49744242  1
  Ti4+  Ti8  1  0.16757434  0.83561758  0.83318109  1
  Ti4+  Ti9  1  0.50101236  0.16809028  0.16509402  1
  Ti4+  Ti10  1  0.49959135  0.16726071  0.50217505  1
  Ti4+  Ti11  1  0.50265163  0.16413400  0.83369144  1
  Ti4+  Ti12  1  0.50079830  0.50379896  0.16643650  1
  Ti4+  Ti13  1  0.49689087  0.49892825  0.49852334  1
  Ti4+  Ti14  1  0.49763050  0.50156308  0.83571429  1
  Ti4+  Ti15  1  0.49897757  0.83604586  0.16759510  1
  Ti4+  Ti16  1  0.50050812  0.83013931  0.49855678  1
  Ti4+  Ti17  1  0.49942299  0.83469743  0.83155157  1
  Ti4+  Ti18  1  0.83409397  0.16703128  0.16570298  1
  Ti4+  Ti19  1  0.83341746  0.16820641  0.50230144  1
  Ti4+  Ti20  1  0.83372490  0.16774722  0.83243208  1
  Ti4+  Ti21  1  0.83536736  0.49811605  0.16790388  1
  Ti4+  Ti22  1  0.83318711  0.49994716  0.50201448  1
  Ti4+  Ti23  1  0.83371007  0.49829212  0.83351192  1
  Ti4+  Ti24  1  0.83489814  0.83224321  0.16854518  1
  Ti4+  Ti25  1  0.83262843  0.83426425  0.50114347  1
  Ti4+  Ti26  1  0.83015903  0.83549225  0.83229322  1
  Cu+  Cu27  1  0.16303473  0.16593003  0.00152523  1
  Cu+  Cu28  1  0.16467702  0.16403089  0.33321626  1
  Cu+  Cu29  1  0.17415213  0.16445800  0.66645438  1
  Cu+  Cu30  1  0.16572845  0.50495566  0.00074597  1
  Cu+  Cu31  1  0.16790108  0.49142888  0.33464313  1
  Cu+  Cu32  1  0.16691615  0.50214496  0.66615105  1
  Cu+  Cu33  1  0.16544598  0.83391315  -0.00758333  1
  Cu+  Cu34  1  0.16789571  0.83139159  0.32950619  1
  Cu+  Cu35  1  0.16959963  0.83516794  0.66471474  1
  Cu+  Cu36  1  0.50019148  0.16587919  -0.00067470  1
  Cu+  Cu37  1  0.50153532  0.16905605  0.33415257  1
  Cu+  Cu38  1  0.50234118  0.16396613  0.66831719  1
  Cu+  Cu39  1  0.50239086  0.50321308  0.00272862  1
  Cu+  Cu40  1  0.49371250  0.50125114  0.33022356  1
  Cu+  Cu41  1  0.49476559  0.50309138  0.67095426  1
  Cu+  Cu42  1  0.49951367  0.83351206  -0.00001331  1
  Cu+  Cu43  1  0.49661591  0.83745076  0.33462913  1
  Cu+  Cu44  1  0.50137166  0.82894716  0.66287726  1
  Cu+  Cu45  1  0.82702693  0.16994519  0.00159624  1
  Cu+  Cu46  1  0.83440525  0.16829416  0.33381619  1
  Cu+  Cu47  1  0.83514733  0.16946047  0.66821766  1
  Cu+  Cu48  1  0.83757770  0.49494045  0.00044823  1
  Cu+  Cu49  1  0.83373394  0.50061193  0.33688571  1
  Cu+  Cu50  1  0.83556313  0.49728367  0.66841341  1
  Cu+  Cu51  1  0.83515778  0.83290235  0.00525258  1
  Cu+  Cu52  1  0.83504556  0.83427343  0.33521206  1
  Cu+  Cu53  1  0.82583491  0.83388651  0.66503415  1
  Cu+  Cu54  1  0.16939991  -0.00167161  0.16296042  1
  Cu+  Cu55  1  0.16520553  -0.00053315  0.49890161  1
  Cu+  Cu56  1  0.17095916  0.00305162  0.83372862  1
  Cu+  Cu57  1  0.16078225  0.33134024  0.17115462  1
  Cu+  Cu58  1  0.17384439  0.33099301  0.49923010  1
  Cu+  Cu59  1  0.16651947  0.33491542  0.83524402  1
  Cu+  Cu60  1  0.15828257  0.66382647  0.16573365  1
  Cu+  Cu61  1  0.17014112  0.66745505  0.49808414  1
  Cu+  Cu62  1  0.16377866  0.66950005  0.83345950  1
  Cu+  Cu63  1  0.50029917  0.00482829  0.16666828  1
  Cu+  Cu64  1  0.50069082  -0.00064161  0.49873030  1
  Cu+  Cu65  1  0.50809781  -0.00302470  0.83553281  1
  Cu+  Cu66  1  0.50208130  0.33536711  0.16575411  1
  Cu+  Cu67  1  0.49720173  0.33287646  0.50551186  1
  Cu+  Cu68  1  0.50114937  0.33185661  0.83501535  1
  Cu+  Cu69  1  0.50253561  0.67137301  0.16619077  1
  Cu+  Cu70  1  0.49814130  0.66281686  0.49484353  1
  Cu+  Cu71  1  0.49275790  0.66759865  0.83272797  1
  Cu+  Cu72  1  0.83587821  -0.00265195  0.16755191  1
  Cu+  Cu73  1  0.83397931  0.00287289  0.50037783  1
  Cu+  Cu74  1  0.82947050  0.00088782  0.83095126  1
  Cu+  Cu75  1  0.83638910  0.33307676  0.16084628  1
  Cu+  Cu76  1  0.83291327  0.33375227  0.50152767  1
  Cu+  Cu77  1  0.83538155  0.33460688  0.82552493  1
  Cu+  Cu78  1  0.83475774  0.66662899  0.16839746  1
  Cu+  Cu79  1  0.83144866  0.66731001  0.50408260  1
  Cu+  Cu80  1  0.83144364  0.66389536  0.83492851  1
  Cu+  Cu81  1  -0.00173086  0.16519653  0.16702016  1
  Cu+  Cu82  1  0.00237744  0.16870291  0.50140151  1
  Cu+  Cu83  1  0.00100499  0.15908923  0.83289972  1
  Cu+  Cu84  1  0.00024326  0.49406813  0.16609049  1
  Cu+  Cu85  1  0.00097782  0.50197103  0.50157191  1
  Cu+  Cu86  1  -0.00213214  0.49741964  0.83028137  1
  Cu+  Cu87  1  0.00059833  0.82669718  0.16700793  1
  Cu+  Cu88  1  -0.00089456  0.83415855  0.49932706  1
  Cu+  Cu89  1  -0.00156602  0.83459032  0.83220698  1
  Cu+  Cu90  1  0.33172063  0.16831070  0.16378822  1
  Cu+  Cu91  1  0.33178582  0.16958917  0.50474757  1
  Cu+  Cu92  1  0.33584180  0.16157529  0.82808443  1
  Cu+  Cu93  1  0.33595340  0.49828570  0.17145288  1
  Cu+  Cu94  1  0.33481724  0.49581721  0.49440410  1
  Cu+  Cu95  1  0.33170925  0.50661038  0.83170191  1
  Cu+  Cu96  1  0.32956727  0.83731891  0.16723056  1
  Cu+  Cu97  1  0.33493178  0.83457111  0.49553968  1
  Cu+  Cu98  1  0.33502217  0.83348406  0.83903353  1
  Cu+  Cu99  1  0.66710059  0.17001316  0.16389652  1
  Cu+  Cu100  1  0.66562491  0.16750395  0.50113066  1
  Cu+  Cu101  1  0.67071172  0.16770368  0.83578671  1
  Cu+  Cu102  1  0.66570077  0.50407369  0.16785839  1
  Cu+  Cu103  1  0.66434286  0.49936291  0.50082564  1
  Cu+  Cu104  1  0.66480549  0.49988390  0.83751099  1
  Cu+  Cu105  1  0.66883247  0.83355633  0.16760729  1
  Cu+  Cu106  1  0.66715807  0.82769105  0.50450171  1
  Cu+  Cu107  1  0.66527691  0.84126003  0.83003395  1
  Cu+  Cu108  1  0.26673237  0.07006492  0.73525807  1
  Cu+  Cu109  1  0.40907934  0.73881718  0.93122593  1
  Cu+  Cu110  1  0.41271638  0.40192777  0.25490792  1
  Cu+  Cu111  1  0.07365757  0.74103801  0.26336796  1
  Cu+  Cu112  1  0.06669189  0.73962131  0.91635559  1
  Cu+  Cu113  1  0.40910101  0.93235249  0.41024149  1
  Cu+  Cu114  1  0.25642484  0.26281348  0.59911210  1
  Cu+  Cu115  1  0.74333872  0.07394191  0.92991332  1
  Cu+  Cu116  1  0.59421925  0.92021051  0.93248846  1
  Cu+  Cu117  1  0.73663984  0.93000166  0.73366965  1
  Cu+  Cu118  1  0.41235768  0.40620130  0.60144213  1
  Cu+  Cu119  1  0.93148962  0.40171847  0.07032054  1
  Cu+  Cu120  1  0.06984621  0.58863950  0.07391688  1
  Cu+  Cu121  1  0.93217756  0.40763230  0.73448912  1
  Cu+  Cu122  1  0.07271419  0.07543405  0.93129270  1
  Cu+  Cu123  1  0.25305858  0.92768223  0.25815171  1
  Cu+  Cu124  1  0.40383422  0.59454074  0.40088042  1
  Cu+  Cu125  1  0.73885569  0.73451045  0.59652488  1
  Cu+  Cu126  1  0.26152194  0.39995839  0.40493622  1
  Cu+  Cu127  1  0.26318672  0.93278320  0.92363420  1
  Cu+  Cu128  1  0.06831210  0.40231474  0.26557127  1
  Cu+  Cu129  1  0.92538047  0.07041109  0.73848837  1
  Cu+  Cu130  1  0.73836758  0.26321421  0.73792232  1
  Cu+  Cu131  1  0.40212206  0.59819498  0.73737393  1
  Cu+  Cu132  1  0.73573157  0.26611813  0.07730640  1
  Te2-  Te133  1  0.24722965  0.25363588  0.08138741  1
  Te2-  Te134  1  0.25535046  0.24781937  0.40874963  1
  Te2-  Te135  1  0.25512694  0.25547658  0.75135262  1
  Te2-  Te136  1  0.25272368  0.58358144  0.08700960  1
  Te2-  Te137  1  0.25178025  0.58623001  0.41015571  1
  Te2-  Te138  1  0.24882955  0.59125812  0.74560240  1
  Te2-  Te139  1  0.25228013  0.91889739  0.07494331  1
  Te2-  Te140  1  0.25329570  0.92265787  0.41014004  1
  Te2-  Te141  1  0.25693406  0.91819201  0.74628094  1
  Te2-  Te142  1  0.58436892  0.25580902  0.07699363  1
  Te2-  Te143  1  0.58397894  0.25471132  0.41839835  1
  Te2-  Te144  1  0.58640351  0.25222602  0.74827373  1
  Te2-  Te145  1  0.58718748  0.58988944  0.08157463  1
  Te2-  Te146  1  0.58454757  0.58119741  0.41175072  1
  Te2-  Te147  1  0.58374833  0.58656726  0.75076281  1
  Te2-  Te148  1  0.58680519  0.92066937  0.08338301  1
  Te2-  Te149  1  0.58869957  0.91601038  0.41651482  1
  Te2-  Te150  1  0.58362866  0.92041490  0.73873683  1
  Te2-  Te151  1  0.92380590  0.24923555  0.07603944  1
  Te2-  Te152  1  0.91894014  0.25283651  0.41666086  1
  Te2-  Te153  1  0.92675128  0.25183425  0.74717292  1
  Te2-  Te154  1  0.91912279  0.58630112  0.08105497  1
  Te2-  Te155  1  0.91826478  0.58692427  0.41797560  1
  Te2-  Te156  1  0.91754839  0.58695506  0.74827913  1
  Te2-  Te157  1  0.92240275  0.91718708  0.08324419  1
  Te2-  Te158  1  0.91852161  0.92058381  0.41604259  1
  Te2-  Te159  1  0.91845730  0.91811112  0.74523007  1
  Te2-  Te160  1  0.25285170  0.08197330  0.25134636  1
  Te2-  Te161  1  0.25623958  0.07382120  0.58366325  1
  Te2-  Te162  1  0.25675040  0.08473624  0.92331613  1
  Te2-  Te163  1  0.25551552  0.40721718  0.25199870  1
  Te2-  Te164  1  0.25648420  0.41501741  0.59094804  1
  Te2-  Te165  1  0.25123293  0.41931490  0.91886861  1
  Te2-  Te166  1  0.25052952  0.74299958  0.24709667  1
  Te2-  Te167  1  0.25435113  0.75011922  0.58268733  1
  Te2-  Te168  1  0.25333606  0.74400755  0.91946087  1
  Te2-  Te169  1  0.58745961  0.08470961  0.25173807  1
  Te2-  Te170  1  0.58551071  0.07979867  0.58449733  1
  Te2-  Te171  1  0.59019026  0.07961750  0.92342419  1
  Te2-  Te172  1  0.58593547  0.41782468  0.25309590  1
  Te2-  Te173  1  0.58205398  0.41765662  0.58900861  1
  Te2-  Te174  1  0.58264071  0.41498988  0.92087889  1
  Te2-  Te175  1  0.58384047  0.75315809  0.25358946  1
  Te2-  Te176  1  0.58331919  0.73925680  0.58532745  1
  Te2-  Te177  1  0.58634714  0.74861867  0.91494807  1
  Te2-  Te178  1  0.91750110  0.08139143  0.25290108  1
  Te2-  Te179  1  0.92149859  0.08177799  0.58651651  1
  Te2-  Te180  1  0.91603851  0.07932801  0.92276249  1
  Te2-  Te181  1  0.91734961  0.41058440  0.25658731  1
  Te2-  Te182  1  0.92237325  0.41233261  0.58480229  1
  Te2-  Te183  1  0.92156426  0.40899756  0.91767440  1
  Te2-  Te184  1  0.91951221  0.74422736  0.25678619  1
  Te2-  Te185  1  0.91863074  0.75015343  0.58797070  1
  Te2-  Te186  1  0.91496569  0.74848700  0.91826087  1
  Te2-  Te187  1  0.07626649  0.24897873  0.25615576  1
  Te2-  Te188  1  0.08628297  0.25241255  0.58683832  1
  Te2-  Te189  1  0.08025849  0.25026127  0.91617552  1
  Te2-  Te190  1  0.07804584  0.58144340  0.25821702  1
  Te2-  Te191  1  0.08466139  0.58681755  0.58305185  1
  Te2-  Te192  1  0.07462899  0.58643882  0.91784895  1
  Te2-  Te193  1  0.08179453  0.91796070  0.24815768  1
  Te2-  Te194  1  0.08209178  0.91753712  0.58417377  1
  Te2-  Te195  1  0.07743760  0.92338260  0.91689616  1
  Te2-  Te196  1  0.41342723  0.25107763  0.25168680  1
  Te2-  Te197  1  0.41267711  0.25225314  0.59414240  1
  Te2-  Te198  1  0.41419825  0.24827133  0.91573532  1
  Te2-  Te199  1  0.41204174  0.59376264  0.24944774  1
  Te2-  Te200  1  0.40916116  0.58759143  0.58421200  1
  Te2-  Te201  1  0.41155632  0.58610857  0.92551829  1
  Te2-  Te202  1  0.41171565  0.92529337  0.25276292  1
  Te2-  Te203  1  0.41570609  0.91677344  0.58461632  1
  Te2-  Te204  1  0.41602365  0.92431119  0.92082430  1
  Te2-  Te205  1  0.75044594  0.25432461  0.25094129  1
  Te2-  Te206  1  0.74568696  0.25452519  0.58682881  1
  Te2-  Te207  1  0.74851143  0.25973599  0.91803216  1
  Te2-  Te208  1  0.75052849  0.58448134  0.25300368  1
  Te2-  Te209  1  0.74537205  0.58237172  0.58982208  1
  Te2-  Te210  1  0.74964851  0.58236341  0.92208484  1
  Te2-  Te211  1  0.74937193  0.91855829  0.25327557  1
  Te2-  Te212  1  0.74349108  0.92484180  0.58295483  1
  Te2-  Te213  1  0.74766355  0.91997841  0.92595924  1
  Te2-  Te214  1  0.07796068  0.07736358  0.08282986  1
  Te2-  Te215  1  0.08021385  0.08106373  0.41565872  1
  Te2-  Te216  1  0.08304631  0.07755004  0.74198490  1
  Te2-  Te217  1  0.08332712  0.41024465  0.07617177  1
  Te2-  Te218  1  0.07897063  0.41004106  0.41907735  1
  Te2-  Te219  1  0.08411515  0.41331482  0.74533207  1
  Te2-  Te220  1  0.07736531  0.74547756  0.07202373  1
  Te2-  Te221  1  0.08085562  0.74684898  0.41470087  1
  Te2-  Te222  1  0.08180243  0.75172656  0.74530489  1
  Te2-  Te223  1  0.41383236  0.08253393  0.08041935  1
  Te2-  Te224  1  0.41299195  0.08482627  0.41462751  1
  Te2-  Te225  1  0.42014159  0.07449139  0.74708396  1
  Te2-  Te226  1  0.41519680  0.41703994  0.08041256  1
  Te2-  Te227  1  0.41424244  0.40560150  0.40951299  1
  Te2-  Te228  1  0.41086041  0.41130260  0.75299180  1
  Te2-  Te229  1  0.41208855  0.74962226  0.08306090  1
  Te2-  Te230  1  0.41203237  0.74590591  0.41048127  1
  Te2-  Te231  1  0.40998916  0.75126301  0.74348884  1
  Te2-  Te232  1  0.74708014  0.07673021  0.08316206  1
  Te2-  Te233  1  0.74834207  0.08445339  0.41531718  1
  Te2-  Te234  1  0.74453092  0.08222964  0.74321463  1
  Te2-  Te235  1  0.74398093  0.41744977  0.08100996  1
  Te2-  Te236  1  0.74737323  0.41468390  0.41660316  1
  Te2-  Te237  1  0.74203017  0.41640559  0.74664110  1
  Te2-  Te238  1  0.74855832  0.74661279  0.08288092  1
  Te2-  Te239  1  0.74898678  0.74765687  0.41422704  1
  Te2-  Te240  1  0.74364663  0.74507453  0.75106369  1
