# generated using pymatgen
data_Ti27(Cu53Te54)2
_symmetry_space_group_name_H-M   'P 1'
_cell_length_a   17.95778721
_cell_length_b   17.95254181
_cell_length_c   17.94870520
_cell_angle_alpha   89.85398968
_cell_angle_beta   90.02527139
_cell_angle_gamma   89.99865736
_symmetry_Int_Tables_number   1
_chemical_formula_structural   Ti27(Cu53Te54)2
_chemical_formula_sum   'Ti27 Cu106 Te108'
_cell_volume   5786.42648525
_cell_formula_units_Z   1
loop_
 _symmetry_equiv_pos_site_id
 _symmetry_equiv_pos_as_xyz
  1  'x, y, z'
loop_
 _atom_type_symbol
 _atom_type_oxidation_number
  Ti4+  4.0
  Cu+  1.0
  Te2-  -2.0
loop_
 _atom_site_type_symbol
 _atom_site_label
 _atom_site_symmetry_multiplicity
 _atom_site_fract_x
 _atom_site_fract_y
 _atom_site_fract_z
 _atom_site_occupancy
  Ti4+  Ti0  1  0.16889660  0.16550174  0.16745997  1
  Ti4+  Ti1  1  0.16682479  0.16636770  0.50083909  1
  Ti4+  Ti2  1  0.16861105  0.16688837  0.83546713  1
  Ti4+  Ti3  1  0.16330850  0.50068631  0.16632577  1
  Ti4+  Ti4  1  0.16818077  0.50072708  0.49866539  1
  Ti4+  Ti5  1  0.16567374  0.49798235  0.83211974  1
  Ti4+  Ti6  1  0.16422741  0.83229281  0.16366373  1
  Ti4+  Ti7  1  0.16567859  0.83491237  0.49914770  1
  Ti4+  Ti8  1  0.16873471  0.83260132  0.83383542  1
  Ti4+  Ti9  1  0.50300678  0.16787231  0.16941614  1
  Ti4+  Ti10  1  0.50030614  0.16242315  0.50184197  1
  Ti4+  Ti11  1  0.50437154  0.16829052  0.83318329  1
  Ti4+  Ti12  1  0.49541759  0.50142869  0.16734863  1
  Ti4+  Ti13  1  0.50073676  0.49887852  0.50079586  1
  Ti4+  Ti14  1  0.50147468  0.49765280  0.83784237  1
  Ti4+  Ti15  1  0.49770906  0.83612122  0.16499842  1
  Ti4+  Ti16  1  0.49598815  0.83071665  0.49850428  1
  Ti4+  Ti17  1  0.49927557  0.83163260  0.83616046  1
  Ti4+  Ti18  1  0.83402393  0.16765474  0.16203606  1
  Ti4+  Ti19  1  0.83463872  0.16616156  0.49885265  1
  Ti4+  Ti20  1  0.83219941  0.16995261  0.83216345  1
  Ti4+  Ti21  1  0.83108334  0.50488249  0.16806197  1
  Ti4+  Ti22  1  0.83445499  0.50127210  0.49773776  1
  Ti4+  Ti23  1  0.83657396  0.49829241  0.82970320  1
  Ti4+  Ti24  1  0.83048719  0.83374582  0.16704778  1
  Ti4+  Ti25  1  0.82963793  0.83475596  0.50221823  1
  Ti4+  Ti26  1  0.83537119  0.83326231  0.83262476  1
  Cu+  Cu27  1  0.16733409  0.16691799  0.00291010  1
  Cu+  Cu28  1  0.17092635  0.16320444  0.33418870  1
  Cu+  Cu29  1  0.16658046  0.16734830  0.66837248  1
  Cu+  Cu30  1  0.16636247  0.50255084  -0.00310725  1
  Cu+  Cu31  1  0.16521212  0.50060284  0.33300697  1
  Cu+  Cu32  1  0.16658878  0.49959303  0.66348829  1
  Cu+  Cu33  1  0.16437624  0.83257253  -0.00492962  1
  Cu+  Cu34  1  0.16613649  0.83119857  0.33248447  1
  Cu+  Cu35  1  0.16623126  0.83533371  0.66819958  1
  Cu+  Cu36  1  0.50411426  0.16985473  0.00199233  1
  Cu+  Cu37  1  0.50021932  0.16258701  0.33680650  1
  Cu+  Cu38  1  0.50488409  0.17075950  0.66392685  1
  Cu+  Cu39  1  0.50067193  0.49483042  0.00656308  1
  Cu+  Cu40  1  0.49617859  0.50130933  0.33249174  1
  Cu+  Cu41  1  0.50141366  0.49735884  0.66991645  1
  Cu+  Cu42  1  0.50103272  0.83095156  0.00056221  1
  Cu+  Cu43  1  0.49574062  0.83676958  0.33068013  1
  Cu+  Cu44  1  0.49542018  0.83028014  0.66986766  1
  Cu+  Cu45  1  0.83375742  0.16970318  -0.00590948  1
  Cu+  Cu46  1  0.83495110  0.16613360  0.33058797  1
  Cu+  Cu47  1  0.82955705  0.16510570  0.66466893  1
  Cu+  Cu48  1  0.83397363  0.49783538  0.00098426  1
  Cu+  Cu49  1  0.83052058  0.51123420  0.33390369  1
  Cu+  Cu50  1  0.83852178  0.49766312  0.66326098  1
  Cu+  Cu51  1  0.83399520  0.83152976  0.00144486  1
  Cu+  Cu52  1  0.82701985  0.83449899  0.33574245  1
  Cu+  Cu53  1  0.83718936  0.83673999  0.66618913  1
  Cu+  Cu54  1  0.16688658  -0.00103157  0.16821893  1
  Cu+  Cu55  1  0.16778206  0.00300216  0.49758796  1
  Cu+  Cu56  1  0.17153327  0.00111814  0.83549189  1
  Cu+  Cu57  1  0.16371096  0.33174517  0.16551224  1
  Cu+  Cu58  1  0.16672182  0.33340764  0.50078903  1
  Cu+  Cu59  1  0.16667814  0.33270987  0.83196315  1
  Cu+  Cu60  1  0.16312939  0.66652202  0.16492304  1
  Cu+  Cu61  1  0.16858792  0.66855668  0.49641282  1
  Cu+  Cu62  1  0.16830243  0.66221971  0.83596404  1
  Cu+  Cu63  1  0.50577744  0.00029056  0.17022442  1
  Cu+  Cu64  1  0.49839709  -0.00588246  0.50419383  1
  Cu+  Cu65  1  0.49887283  0.00009969  0.83170016  1
  Cu+  Cu66  1  0.49452001  0.33211685  0.16556608  1
  Cu+  Cu67  1  0.49993635  0.33130277  0.50203391  1
  Cu+  Cu68  1  0.50886385  0.33392098  0.83281453  1
  Cu+  Cu69  1  0.49607577  0.66817576  0.16530367  1
  Cu+  Cu70  1  0.49616463  0.66525671  0.49877182  1
  Cu+  Cu71  1  0.49834042  0.66515841  0.83860106  1
  Cu+  Cu72  1  0.83084798  0.00043266  0.16479527  1
  Cu+  Cu73  1  0.83239970  0.00002608  0.50607946  1
  Cu+  Cu74  1  0.83181896  -0.00072849  0.83109196  1
  Cu+  Cu75  1  0.83321042  0.33508230  0.16472368  1
  Cu+  Cu76  1  0.83526111  0.33384781  0.49466277  1
  Cu+  Cu77  1  0.83788067  0.33696012  0.83211078  1
  Cu+  Cu78  1  0.83622677  0.66968532  0.16875410  1
  Cu+  Cu79  1  0.82833213  0.66700290  0.49670822  1
  Cu+  Cu80  1  0.83499087  0.66478215  0.83047632  1
  Cu+  Cu81  1  0.00304732  0.16861152  0.16382166  1
  Cu+  Cu82  1  0.00135334  0.16844297  0.49999281  1
  Cu+  Cu83  1  0.00033631  0.16972328  0.83326114  1
  Cu+  Cu84  1  -0.00443195  0.50305474  0.16937230  1
  Cu+  Cu85  1  0.00433132  0.50113297  0.49937591  1
  Cu+  Cu86  1  -0.00014191  0.49593814  0.82434472  1
  Cu+  Cu87  1  -0.00241353  0.83149045  0.16446347  1
  Cu+  Cu88  1  -0.00212554  0.83701795  0.50309864  1
  Cu+  Cu89  1  0.00354480  0.82999933  0.83353490  1
  Cu+  Cu90  1  0.33748183  0.16925516  0.16910408  1
  Cu+  Cu91  1  0.33213845  0.16163495  0.49796165  1
  Cu+  Cu92  1  0.33671200  0.16596842  0.83268154  1
  Cu+  Cu93  1  0.32973724  0.50076782  0.16825941  1
  Cu+  Cu94  1  0.33519872  0.50042235  0.50046327  1
  Cu+  Cu95  1  0.33314994  0.49983098  0.83768831  1
  Cu+  Cu96  1  0.33206905  0.83543700  0.16513173  1
  Cu+  Cu97  1  0.32981100  0.82903743  0.49428473  1
  Cu+  Cu98  1  0.33308258  0.83526117  0.83780003  1
  Cu+  Cu99  1  0.66807484  0.16233200  0.16420219  1
  Cu+  Cu100  1  0.66930885  0.16247590  0.50334084  1
  Cu+  Cu101  1  0.66811159  0.16877965  0.83930195  1
  Cu+  Cu102  1  0.66262868  0.50332686  0.16912551  1
  Cu+  Cu103  1  0.66911482  0.50203023  0.49677520  1
  Cu+  Cu104  1  0.66930514  0.49519039  0.83261282  1
  Cu+  Cu105  1  0.66304018  0.83452949  0.16746108  1
  Cu+  Cu106  1  0.65983348  0.83449743  0.50440569  1
  Cu+  Cu107  1  0.66848640  0.83110258  0.83266687  1
  Cu+  Cu108  1  0.92661732  0.41122518  0.08162001  1
  Cu+  Cu109  1  0.92767910  0.59820374  0.26431471  1
  Cu+  Cu110  1  0.74630827  0.06865494  0.92431488  1
  Cu+  Cu111  1  0.59380208  0.92472413  0.26303315  1
  Cu+  Cu112  1  0.59270897  0.40586623  0.09043288  1
  Cu+  Cu113  1  0.58919066  0.07164873  0.07443696  1
  Cu+  Cu114  1  0.73424459  0.59875668  0.40814188  1
  Cu+  Cu115  1  0.25712943  0.73658854  0.40248397  1
  Cu+  Cu116  1  0.59214178  0.25951775  0.92951896  1
  Cu+  Cu117  1  0.92583609  0.74463082  0.07277820  1
  Cu+  Cu118  1  0.58936543  0.73872819  0.07546324  1
  Cu+  Cu119  1  0.07560233  0.73457771  0.92052082  1
  Cu+  Cu120  1  0.40665842  0.25734804  0.07276604  1
  Cu+  Cu121  1  0.26216971  0.07388903  0.40478792  1
  Cu+  Cu122  1  0.07702894  0.25821014  0.07466362  1
  Cu+  Cu123  1  0.26134986  0.93049101  0.92650543  1
  Cu+  Cu124  1  0.92931538  0.26000020  0.91994292  1
  Cu+  Cu125  1  0.93061146  0.92769303  0.59368739  1
  Cu+  Cu126  1  0.59506554  0.41167462  0.73762331  1
  Cu+  Cu127  1  0.93149867  0.40657209  0.73070233  1
  Cu+  Cu128  1  0.58293557  0.91863815  0.59992163  1
  Cu+  Cu129  1  0.74376173  0.41421897  0.92850387  1
  Cu+  Cu130  1  0.59799126  0.26185056  0.58150811  1
  Cu+  Cu131  1  0.74031742  0.07173933  0.59306883  1
  Cu+  Cu132  1  0.26342751  0.59017184  0.92711506  1
  Te2-  Te133  1  0.25497620  0.25349540  0.08117571  1
  Te2-  Te134  1  0.25264213  0.25230181  0.41569785  1
  Te2-  Te135  1  0.25299700  0.25105685  0.74974783  1
  Te2-  Te136  1  0.25057321  0.58636878  0.08148279  1
  Te2-  Te137  1  0.25492260  0.58473099  0.41126632  1
  Te2-  Te138  1  0.25201950  0.58228362  0.74773944  1
  Te2-  Te139  1  0.25015924  0.91872549  0.07940075  1
  Te2-  Te140  1  0.25165832  0.92017548  0.41100391  1
  Te2-  Te141  1  0.25378162  0.91883150  0.74834593  1
  Te2-  Te142  1  0.59250449  0.25600351  0.08268930  1
  Te2-  Te143  1  0.58653981  0.24767098  0.41716569  1
  Te2-  Te144  1  0.59304994  0.25341085  0.74419708  1
  Te2-  Te145  1  0.58395959  0.58759851  0.08096835  1
  Te2-  Te146  1  0.58252418  0.58622232  0.41280558  1
  Te2-  Te147  1  0.58520954  0.58436520  0.75319752  1
  Te2-  Te148  1  0.58711982  0.92052446  0.07708633  1
  Te2-  Te149  1  0.58367285  0.91889965  0.41359306  1
  Te2-  Te150  1  0.58514053  0.91701666  0.75065746  1
  Te2-  Te151  1  0.92202114  0.25668142  0.07618738  1
  Te2-  Te152  1  0.91946035  0.25018830  0.41268998  1
  Te2-  Te153  1  0.91941383  0.25196861  0.74269888  1
  Te2-  Te154  1  0.91777000  0.58852584  0.07789798  1
  Te2-  Te155  1  0.92327389  0.59006118  0.41625650  1
  Te2-  Te156  1  0.91969287  0.58595930  0.74432709  1
  Te2-  Te157  1  0.91661970  0.91925537  0.08191580  1
  Te2-  Te158  1  0.91378537  0.91958708  0.41587384  1
  Te2-  Te159  1  0.92272347  0.92029492  0.74977797  1
  Te2-  Te160  1  0.25688996  0.07842161  0.25058702  1
  Te2-  Te161  1  0.25112993  0.08080075  0.58822340  1
  Te2-  Te162  1  0.25644311  0.08406507  0.92223742  1
  Te2-  Te163  1  0.24743947  0.41493604  0.25008037  1
  Te2-  Te164  1  0.25289491  0.41510287  0.58372176  1
  Te2-  Te165  1  0.24985778  0.41251047  0.91906393  1
  Te2-  Te166  1  0.25146117  0.74708996  0.24820289  1
  Te2-  Te167  1  0.24976947  0.74992047  0.58614473  1
  Te2-  Te168  1  0.25481793  0.74427300  0.92160340  1
  Te2-  Te169  1  0.59022320  0.08199887  0.25721217  1
  Te2-  Te170  1  0.58634494  0.07447913  0.59037665  1
  Te2-  Te171  1  0.58748904  0.07644233  0.92013836  1
  Te2-  Te172  1  0.58095608  0.41458969  0.25194693  1
  Te2-  Te173  1  0.59114491  0.41371889  0.58554362  1
  Te2-  Te174  1  0.59063005  0.41169223  0.92822269  1
  Te2-  Te175  1  0.58096842  0.74838256  0.25217866  1
  Te2-  Te176  1  0.57973265  0.74533612  0.58608006  1
  Te2-  Te177  1  0.58812069  0.74566097  0.91932959  1
  Te2-  Te178  1  0.91853879  0.08270059  0.24614771  1
  Te2-  Te179  1  0.92233420  0.08282102  0.58800468  1
  Te2-  Te180  1  0.91815287  0.08163912  0.91531763  1
  Te2-  Te181  1  0.91273648  0.41764593  0.25494840  1
  Te2-  Te182  1  0.92263325  0.41245296  0.57977821  1
  Te2-  Te183  1  0.92578515  0.41435580  0.92160426  1
  Te2-  Te184  1  0.91783470  0.75196834  0.25769059  1
  Te2-  Te185  1  0.91550846  0.74662138  0.58304974  1
  Te2-  Te186  1  0.91948980  0.74348497  0.91873917  1
  Te2-  Te187  1  0.08353653  0.24906072  0.25443883  1
  Te2-  Te188  1  0.08213462  0.25205244  0.58611941  1
  Te2-  Te189  1  0.08197996  0.25584516  0.92075724  1
  Te2-  Te190  1  0.07975657  0.58765412  0.25322587  1
  Te2-  Te191  1  0.08416851  0.58751104  0.58316109  1
  Te2-  Te192  1  0.07423392  0.58140017  0.91646501  1
  Te2-  Te193  1  0.08062751  0.91543148  0.24959830  1
  Te2-  Te194  1  0.08308761  0.92257476  0.58675671  1
  Te2-  Te195  1  0.08089733  0.92090072  0.91624171  1
  Te2-  Te196  1  0.41792557  0.25073445  0.25766963  1
  Te2-  Te197  1  0.41243327  0.24790760  0.58341176  1
  Te2-  Te198  1  0.41667746  0.25381956  0.91753077  1
  Te2-  Te199  1  0.41128260  0.58711380  0.25134368  1
  Te2-  Te200  1  0.41694412  0.58250779  0.58758299  1
  Te2-  Te201  1  0.41647765  0.58276836  0.92527787  1
  Te2-  Te202  1  0.41131389  0.92230443  0.24920685  1
  Te2-  Te203  1  0.40902176  0.91289717  0.58482538  1
  Te2-  Te204  1  0.41679480  0.92078304  0.92181676  1
  Te2-  Te205  1  0.74967471  0.25004480  0.24803840  1
  Te2-  Te206  1  0.75040084  0.25657399  0.58387448  1
  Te2-  Te207  1  0.74662998  0.26044353  0.92097515  1
  Te2-  Te208  1  0.74188904  0.59201496  0.25085079  1
  Te2-  Te209  1  0.74974370  0.58360002  0.58651627  1
  Te2-  Te210  1  0.75088777  0.58287456  0.91584697  1
  Te2-  Te211  1  0.74605559  0.92151667  0.25249787  1
  Te2-  Te212  1  0.74156831  0.91928489  0.59163904  1
  Te2-  Te213  1  0.74815993  0.91577657  0.91952035  1
  Te2-  Te214  1  0.08311095  0.07968926  0.08193486  1
  Te2-  Te215  1  0.07972377  0.08251746  0.41426829  1
  Te2-  Te216  1  0.08330972  0.08232008  0.75185787  1
  Te2-  Te217  1  0.07816897  0.41533646  0.07825020  1
  Te2-  Te218  1  0.08284184  0.41463511  0.41457170  1
  Te2-  Te219  1  0.08349301  0.41035195  0.74265440  1
  Te2-  Te220  1  0.07833914  0.74430752  0.07694017  1
  Te2-  Te221  1  0.07760866  0.75110796  0.41613461  1
  Te2-  Te222  1  0.08480325  0.74544746  0.74784405  1
  Te2-  Te223  1  0.41900456  0.08190061  0.08337207  1
  Te2-  Te224  1  0.41611713  0.07518507  0.41519952  1
  Te2-  Te225  1  0.41958218  0.08532079  0.74679346  1
  Te2-  Te226  1  0.40742909  0.41396268  0.08182947  1
  Te2-  Te227  1  0.41637559  0.41379536  0.41635433  1
  Te2-  Te228  1  0.41513177  0.41374587  0.75341334  1
  Te2-  Te229  1  0.41147742  0.74967349  0.08054853  1
  Te2-  Te230  1  0.41300399  0.74524367  0.40911420  1
  Te2-  Te231  1  0.41307898  0.74665098  0.75392169  1
  Te2-  Te232  1  0.74802187  0.07930445  0.07570430  1
  Te2-  Te233  1  0.75032641  0.08071506  0.41392385  1
  Te2-  Te234  1  0.74437070  0.08187104  0.74858330  1
  Te2-  Te235  1  0.74411212  0.41510102  0.08286013  1
  Te2-  Te236  1  0.75031850  0.41618397  0.41118656  1
  Te2-  Te237  1  0.75009521  0.41244728  0.74222198  1
  Te2-  Te238  1  0.74455886  0.74677037  0.08179516  1
  Te2-  Te239  1  0.74042265  0.75121541  0.41596365  1
  Te2-  Te240  1  0.75170346  0.74907302  0.74729706  1
