# generated using pymatgen
data_Ti27(Cu53Te54)2
_symmetry_space_group_name_H-M   'P 1'
_cell_length_a   17.88217029
_cell_length_b   17.87807417
_cell_length_c   17.87910859
_cell_angle_alpha   89.98151907
_cell_angle_beta   90.02353255
_cell_angle_gamma   90.06197689
_symmetry_Int_Tables_number   1
_chemical_formula_structural   Ti27(Cu53Te54)2
_chemical_formula_sum   'Ti27 Cu106 Te108'
_cell_volume   5715.92484355
_cell_formula_units_Z   1
loop_
 _symmetry_equiv_pos_site_id
 _symmetry_equiv_pos_as_xyz
  1  'x, y, z'
loop_
 _atom_type_symbol
 _atom_type_oxidation_number
  Ti4+  4.0
  Cu+  1.0
  Te2-  -2.0
loop_
 _atom_site_type_symbol
 _atom_site_label
 _atom_site_symmetry_multiplicity
 _atom_site_fract_x
 _atom_site_fract_y
 _atom_site_fract_z
 _atom_site_occupancy
  Ti4+  Ti0  1  0.17294825  0.16491516  0.16963668  1
  Ti4+  Ti1  1  0.16421833  0.16827955  0.49893431  1
  Ti4+  Ti2  1  0.16525607  0.16805718  0.83434669  1
  Ti4+  Ti3  1  0.16654352  0.49788188  0.16547574  1
  Ti4+  Ti4  1  0.16747313  0.50379685  0.50018177  1
  Ti4+  Ti5  1  0.16574896  0.49833290  0.83442901  1
  Ti4+  Ti6  1  0.16622261  0.83383615  0.16694535  1
  Ti4+  Ti7  1  0.16816352  0.83035921  0.50205028  1
  Ti4+  Ti8  1  0.16468009  0.83482648  0.83376188  1
  Ti4+  Ti9  1  0.49855639  0.16554635  0.16848864  1
  Ti4+  Ti10  1  0.49876648  0.16852401  0.49906688  1
  Ti4+  Ti11  1  0.49845802  0.16617939  0.83369514  1
  Ti4+  Ti12  1  0.50052797  0.50001340  0.16563983  1
  Ti4+  Ti13  1  0.50431706  0.50138653  0.50213011  1
  Ti4+  Ti14  1  0.49968772  0.49980954  0.83639466  1
  Ti4+  Ti15  1  0.49869608  0.83033968  0.16814037  1
  Ti4+  Ti16  1  0.49859977  0.83251481  0.49579738  1
  Ti4+  Ti17  1  0.50111744  0.83336997  0.83213244  1
  Ti4+  Ti18  1  0.83348554  0.16650575  0.16771746  1
  Ti4+  Ti19  1  0.83039009  0.16723466  0.50086098  1
  Ti4+  Ti20  1  0.83242952  0.16760058  0.83396563  1
  Ti4+  Ti21  1  0.83587716  0.50184176  0.16156458  1
  Ti4+  Ti22  1  0.83276397  0.50073013  0.49719789  1
  Ti4+  Ti23  1  0.83316864  0.49637728  0.83280781  1
  Ti4+  Ti24  1  0.83005204  0.83400689  0.16699962  1
  Ti4+  Ti25  1  0.83480989  0.83469725  0.49921902  1
  Ti4+  Ti26  1  0.83315981  0.83461320  0.83204107  1
  Cu+  Cu27  1  0.16971814  0.16576724  0.00581319  1
  Cu+  Cu28  1  0.17567828  0.16539005  0.33454796  1
  Cu+  Cu29  1  0.16100494  0.17131271  0.66713970  1
  Cu+  Cu30  1  0.16419158  0.49313348  0.00020059  1
  Cu+  Cu31  1  0.16546157  0.50273737  0.33525218  1
  Cu+  Cu32  1  0.16845305  0.50255149  0.66514083  1
  Cu+  Cu33  1  0.16536339  0.83614937  -0.00303808  1
  Cu+  Cu34  1  0.16778624  0.83537881  0.33355246  1
  Cu+  Cu35  1  0.16851125  0.82654844  0.67025752  1
  Cu+  Cu36  1  0.49881118  0.16579309  0.00012668  1
  Cu+  Cu37  1  0.50004510  0.16310907  0.33380025  1
  Cu+  Cu38  1  0.49791533  0.17080030  0.66640381  1
  Cu+  Cu39  1  0.49623706  0.50362095  0.00191371  1
  Cu+  Cu40  1  0.50320504  0.49955712  0.33425814  1
  Cu+  Cu41  1  0.50270217  0.49936408  0.67293377  1
  Cu+  Cu42  1  0.49966195  0.83003850  -0.00083589  1
  Cu+  Cu43  1  0.50480516  0.82952544  0.33298761  1
  Cu+  Cu44  1  0.49751070  0.83593349  0.66318307  1
  Cu+  Cu45  1  0.83575490  0.16626100  0.00105794  1
  Cu+  Cu46  1  0.83203918  0.16647264  0.33345511  1
  Cu+  Cu47  1  0.82971340  0.16777274  0.66768994  1
  Cu+  Cu48  1  0.83432156  0.49925536  -0.00683765  1
  Cu+  Cu49  1  0.83432444  0.50166363  0.32771003  1
  Cu+  Cu50  1  0.83247567  0.49871968  0.66499466  1
  Cu+  Cu51  1  0.83169870  0.83366539  0.00036905  1
  Cu+  Cu52  1  0.83147066  0.83646677  0.33038852  1
  Cu+  Cu53  1  0.83426076  0.83534282  0.66637681  1
  Cu+  Cu54  1  0.17144401  -0.00017963  0.16621411  1
  Cu+  Cu55  1  0.16616855  -0.00047761  0.49760257  1
  Cu+  Cu56  1  0.16511826  0.00040728  0.83462390  1
  Cu+  Cu57  1  0.17468804  0.33073472  0.16515042  1
  Cu+  Cu58  1  0.16544236  0.33877647  0.50360919  1
  Cu+  Cu59  1  0.15956301  0.33174900  0.83313088  1
  Cu+  Cu60  1  0.16366123  0.66504775  0.16583226  1
  Cu+  Cu61  1  0.16390937  0.66720045  0.49815510  1
  Cu+  Cu62  1  0.16838449  0.67020579  0.83090132  1
  Cu+  Cu63  1  0.49710511  -0.00366759  0.17029692  1
  Cu+  Cu64  1  0.50007030  0.00100347  0.49624896  1
  Cu+  Cu65  1  0.49938753  0.00009712  0.83012985  1
  Cu+  Cu66  1  0.49980854  0.33086818  0.16978314  1
  Cu+  Cu67  1  0.50661360  0.33361543  0.50386961  1
  Cu+  Cu68  1  0.49844491  0.33327173  0.83501874  1
  Cu+  Cu69  1  0.49964449  0.66647903  0.16179404  1
  Cu+  Cu70  1  0.49769375  0.66650449  0.49580359  1
  Cu+  Cu71  1  0.50113407  0.66409287  0.83563422  1
  Cu+  Cu72  1  0.82868974  -0.00106965  0.16858788  1
  Cu+  Cu73  1  0.83495131  0.00246862  0.49860700  1
  Cu+  Cu74  1  0.83383610  0.00148052  0.83396324  1
  Cu+  Cu75  1  0.83566324  0.33455292  0.16595678  1
  Cu+  Cu76  1  0.82972415  0.33436156  0.49919217  1
  Cu+  Cu77  1  0.82830894  0.33278190  0.83595861  1
  Cu+  Cu78  1  0.83687228  0.67173513  0.16086543  1
  Cu+  Cu79  1  0.83356947  0.66595510  0.50054690  1
  Cu+  Cu80  1  0.83399816  0.66545190  0.83045472  1
  Cu+  Cu81  1  0.00262392  0.16692578  0.17292549  1
  Cu+  Cu82  1  -0.00550713  0.16496345  0.49956124  1
  Cu+  Cu83  1  -0.00159922  0.17093886  0.83082731  1
  Cu+  Cu84  1  0.00180524  0.50368026  0.16203545  1
  Cu+  Cu85  1  -0.00134720  0.50402559  0.49846999  1
  Cu+  Cu86  1  -0.00068105  0.49667579  0.83727926  1
  Cu+  Cu87  1  -0.00269677  0.83478859  0.16877864  1
  Cu+  Cu88  1  0.00451327  0.83506043  0.50239422  1
  Cu+  Cu89  1  -0.00057023  0.83769251  0.83325698  1
  Cu+  Cu90  1  0.33349818  0.16410148  0.17216675  1
  Cu+  Cu91  1  0.33066314  0.16712912  0.49916688  1
  Cu+  Cu92  1  0.33336636  0.16767715  0.83356627  1
  Cu+  Cu93  1  0.33434830  0.49791113  0.16257147  1
  Cu+  Cu94  1  0.33781495  0.50528218  0.50135757  1
  Cu+  Cu95  1  0.33381008  0.49931670  0.83592546  1
  Cu+  Cu96  1  0.33382885  0.83349904  0.17059938  1
  Cu+  Cu97  1  0.33517166  0.82377750  0.50243759  1
  Cu+  Cu98  1  0.33167006  0.83445920  0.83176777  1
  Cu+  Cu99  1  0.66758791  0.16707622  0.16786295  1
  Cu+  Cu100  1  0.66205267  0.16832388  0.50122568  1
  Cu+  Cu101  1  0.66498347  0.16516567  0.83441786  1
  Cu+  Cu102  1  0.66990553  0.50125195  0.16571184  1
  Cu+  Cu103  1  0.66834216  0.49584395  0.49802286  1
  Cu+  Cu104  1  0.66684281  0.49386282  0.83619062  1
  Cu+  Cu105  1  0.66309202  0.83065420  0.16571941  1
  Cu+  Cu106  1  0.66808061  0.83459997  0.49652178  1
  Cu+  Cu107  1  0.66866917  0.83415458  0.83173039  1
  Cu+  Cu108  1  0.07629543  0.92562900  0.40713789  1
  Cu+  Cu109  1  0.59265813  0.74010960  0.06865011  1
  Cu+  Cu110  1  0.59344863  0.25881092  0.59965503  1
  Cu+  Cu111  1  0.26259587  0.06908426  0.07054742  1
  Cu+  Cu112  1  0.26172292  0.07066379  0.41190536  1
  Cu+  Cu113  1  0.92564390  0.59593788  0.91569602  1
  Cu+  Cu114  1  0.92875932  0.75328632  0.07204197  1
  Cu+  Cu115  1  0.07270465  0.25064566  0.08139218  1
  Cu+  Cu116  1  0.59927542  0.73884945  0.40955032  1
  Cu+  Cu117  1  0.06795618  0.26119648  0.73541191  1
  Cu+  Cu118  1  0.26470811  0.40581817  0.06949225  1
  Cu+  Cu119  1  0.92308036  0.07761194  0.40497765  1
  Cu+  Cu120  1  0.06726812  0.59064119  0.40512837  1
  Cu+  Cu121  1  0.26362623  0.73867638  0.74699461  1
  Cu+  Cu122  1  0.07948612  0.59378938  0.07063051  1
  Cu+  Cu123  1  0.07134486  0.40264061  0.92736738  1
  Cu+  Cu124  1  0.40484640  0.59617575  0.07099079  1
  Cu+  Cu125  1  0.25436669  0.73961528  0.40187764  1
  Cu+  Cu126  1  0.26211077  0.26482317  0.26509081  1
  Cu+  Cu127  1  0.59390649  0.40508805  0.40435375  1
  Cu+  Cu128  1  0.41170471  0.58775579  0.40329325  1
  Cu+  Cu129  1  0.59354173  0.07336235  0.40575139  1
  Cu+  Cu130  1  0.41745336  0.73691323  0.59577483  1
  Cu+  Cu131  1  0.73441199  0.40236255  0.92796859  1
  Cu+  Cu132  1  0.07003006  0.74149494  0.59779108  1
  Te2-  Te133  1  0.26184837  0.25111614  0.07929467  1
  Te2-  Te134  1  0.25211013  0.25943821  0.41847602  1
  Te2-  Te135  1  0.25045832  0.25347551  0.74910906  1
  Te2-  Te136  1  0.25078024  0.58613376  0.07770988  1
  Te2-  Te137  1  0.25694965  0.58783548  0.41092526  1
  Te2-  Te138  1  0.25373543  0.58351590  0.74921642  1
  Te2-  Te139  1  0.25469169  0.91566859  0.07991368  1
  Te2-  Te140  1  0.25788854  0.91640694  0.41649563  1
  Te2-  Te141  1  0.24963092  0.92067820  0.74729884  1
  Te2-  Te142  1  0.58380607  0.25000196  0.08329116  1
  Te2-  Te143  1  0.58637050  0.25329011  0.40944122  1
  Te2-  Te144  1  0.58651424  0.25442042  0.75055147  1
  Te2-  Te145  1  0.58923633  0.58454689  0.07905605  1
  Te2-  Te146  1  0.59085954  0.58716536  0.41341958  1
  Te2-  Te147  1  0.58863084  0.58370964  0.75253243  1
  Te2-  Te148  1  0.58155168  0.91799381  0.08216771  1
  Te2-  Te149  1  0.58735224  0.92009320  0.41133677  1
  Te2-  Te150  1  0.58514406  0.91748144  0.74533580  1
  Te2-  Te151  1  0.92037067  0.25202405  0.08217804  1
  Te2-  Te152  1  0.91596792  0.25363359  0.41485547  1
  Te2-  Te153  1  0.91500697  0.25682836  0.74600763  1
  Te2-  Te154  1  0.92315257  0.59014683  0.07271360  1
  Te2-  Te155  1  0.91660498  0.58877483  0.41008698  1
  Te2-  Te156  1  0.92031585  0.58175441  0.74715199  1
  Te2-  Te157  1  0.91646245  0.92079278  0.08213129  1
  Te2-  Te158  1  0.92184336  0.92032605  0.41121061  1
  Te2-  Te159  1  0.91807878  0.92115166  0.74763402  1
  Te2-  Te160  1  0.25726282  0.07280241  0.25692293  1
  Te2-  Te161  1  0.24716974  0.08399264  0.58705941  1
  Te2-  Te162  1  0.25259127  0.08095665  0.91813631  1
  Te2-  Te163  1  0.25404593  0.41798669  0.25631978  1
  Te2-  Te164  1  0.25463389  0.41904230  0.58465352  1
  Te2-  Te165  1  0.25364599  0.40982069  0.91690779  1
  Te2-  Te166  1  0.25120810  0.74488330  0.24992045  1
  Te2-  Te167  1  0.25547513  0.73954170  0.59038587  1
  Te2-  Te168  1  0.25179201  0.74933878  0.91990904  1
  Te2-  Te169  1  0.58681283  0.07844992  0.25113869  1
  Te2-  Te170  1  0.58149658  0.08098633  0.58638307  1
  Te2-  Te171  1  0.58323090  0.07980143  0.91880767  1
  Te2-  Te172  1  0.58839043  0.41433856  0.25000212  1
  Te2-  Te173  1  0.58925339  0.41645360  0.59181378  1
  Te2-  Te174  1  0.58179270  0.41233047  0.92471463  1
  Te2-  Te175  1  0.58714138  0.74154541  0.25270628  1
  Te2-  Te176  1  0.58509434  0.74835021  0.58259208  1
  Te2-  Te177  1  0.58814399  0.74677606  0.91631937  1
  Te2-  Te178  1  0.91928385  0.07833561  0.25228870  1
  Te2-  Te179  1  0.91584591  0.08248890  0.58883216  1
  Te2-  Te180  1  0.92009398  0.08315945  0.91763213  1
  Te2-  Te181  1  0.92108472  0.41782879  0.24799753  1
  Te2-  Te182  1  0.91833634  0.41576719  0.58217903  1
  Te2-  Te183  1  0.91973682  0.40681465  0.92135764  1
  Te2-  Te184  1  0.91749370  0.74898139  0.25365038  1
  Te2-  Te185  1  0.91841742  0.74793366  0.58587713  1
  Te2-  Te186  1  0.92212130  0.74821253  0.91892475  1
  Te2-  Te187  1  0.08775521  0.25283061  0.25570063  1
  Te2-  Te188  1  0.07588663  0.25489999  0.58160838  1
  Te2-  Te189  1  0.07770698  0.25039966  0.92599898  1
  Te2-  Te190  1  0.07968351  0.58619929  0.25212664  1
  Te2-  Te191  1  0.07936209  0.58717679  0.58859989  1
  Te2-  Te192  1  0.08228521  0.59072552  0.91899446  1
  Te2-  Te193  1  0.08100630  0.92123853  0.25094178  1
  Te2-  Te194  1  0.08659409  0.91869385  0.58962301  1
  Te2-  Te195  1  0.07925406  0.92136140  0.91970503  1
  Te2-  Te196  1  0.41477467  0.25273472  0.25713294  1
  Te2-  Te197  1  0.41189251  0.25445347  0.58287854  1
  Te2-  Te198  1  0.41377997  0.25181348  0.92007351  1
  Te2-  Te199  1  0.41352910  0.58495251  0.25092749  1
  Te2-  Te200  1  0.41832489  0.58505079  0.59199421  1
  Te2-  Te201  1  0.41054569  0.58839004  0.91944737  1
  Te2-  Te202  1  0.41501007  0.91533984  0.25681889  1
  Te2-  Te203  1  0.41330303  0.92035674  0.58015474  1
  Te2-  Te204  1  0.41534098  0.91713182  0.91702357  1
  Te2-  Te205  1  0.74901543  0.25371723  0.25162112  1
  Te2-  Te206  1  0.74570036  0.25455413  0.58695250  1
  Te2-  Te207  1  0.74454663  0.24949442  0.92312470  1
  Te2-  Te208  1  0.75204050  0.58837270  0.24635778  1
  Te2-  Te209  1  0.74724816  0.58446749  0.58414181  1
  Te2-  Te210  1  0.74694796  0.58575413  0.91598682  1
  Te2-  Te211  1  0.74221276  0.91818924  0.25172448  1
  Te2-  Te212  1  0.74899336  0.91905399  0.58282020  1
  Te2-  Te213  1  0.74865006  0.91940639  0.91816124  1
  Te2-  Te214  1  0.08179253  0.08037648  0.08543959  1
  Te2-  Te215  1  0.07814365  0.08144526  0.40972889  1
  Te2-  Te216  1  0.08033032  0.08201653  0.74919865  1
  Te2-  Te217  1  0.07686959  0.40684181  0.08293510  1
  Te2-  Te218  1  0.08126218  0.41687538  0.41615259  1
  Te2-  Te219  1  0.07928898  0.41698022  0.74357260  1
  Te2-  Te220  1  0.08061003  0.74916199  0.07759912  1
  Te2-  Te221  1  0.07852202  0.74733882  0.41023749  1
  Te2-  Te222  1  0.07432311  0.74617648  0.75031865  1
  Te2-  Te223  1  0.41435352  0.07833536  0.08221995  1
  Te2-  Te224  1  0.41200059  0.08000670  0.41339823  1
  Te2-  Te225  1  0.41318909  0.08278085  0.74591548  1
  Te2-  Te226  1  0.41716809  0.40906757  0.08003019  1
  Te2-  Te227  1  0.41749366  0.41443750  0.41849513  1
  Te2-  Te228  1  0.41397559  0.41486232  0.75003332  1
  Te2-  Te229  1  0.40848450  0.74838245  0.07960489  1
  Te2-  Te230  1  0.41062645  0.74468941  0.40544128  1
  Te2-  Te231  1  0.41500050  0.74393948  0.74724676  1
  Te2-  Te232  1  0.74793189  0.08236103  0.08140700  1
  Te2-  Te233  1  0.74443108  0.08075232  0.41379277  1
  Te2-  Te234  1  0.74693345  0.08137583  0.74948421  1
  Te2-  Te235  1  0.74869473  0.41382016  0.07997094  1
  Te2-  Te236  1  0.74910788  0.41400785  0.40787215  1
  Te2-  Te237  1  0.74708972  0.41282998  0.74564246  1
  Te2-  Te238  1  0.74492323  0.74682803  0.07772711  1
  Te2-  Te239  1  0.75100147  0.74729909  0.41251027  1
  Te2-  Te240  1  0.74965449  0.74792091  0.74642073  1
