# generated using pymatgen
data_Ti27(Cu53Te54)2
_symmetry_space_group_name_H-M   'P 1'
_cell_length_a   17.87877632
_cell_length_b   17.87592719
_cell_length_c   17.87819398
_cell_angle_alpha   89.97672389
_cell_angle_beta   89.99548467
_cell_angle_gamma   90.00442434
_symmetry_Int_Tables_number   1
_chemical_formula_structural   Ti27(Cu53Te54)2
_chemical_formula_sum   'Ti27 Cu106 Te108'
_cell_volume   5713.86499201
_cell_formula_units_Z   1
loop_
 _symmetry_equiv_pos_site_id
 _symmetry_equiv_pos_as_xyz
  1  'x, y, z'
loop_
 _atom_type_symbol
 _atom_type_oxidation_number
  Ti4+  4.0
  Cu+  1.0
  Te2-  -2.0
loop_
 _atom_site_type_symbol
 _atom_site_label
 _atom_site_symmetry_multiplicity
 _atom_site_fract_x
 _atom_site_fract_y
 _atom_site_fract_z
 _atom_site_occupancy
  Ti4+  Ti0  1  0.16640719  0.16298394  0.16882112  1
  Ti4+  Ti1  1  0.16521185  0.16684033  0.50050388  1
  Ti4+  Ti2  1  0.16545221  0.16814348  0.83548112  1
  Ti4+  Ti3  1  0.16747034  0.50125558  0.16609843  1
  Ti4+  Ti4  1  0.17163262  0.49978892  0.49929420  1
  Ti4+  Ti5  1  0.16681125  0.50024941  0.83673624  1
  Ti4+  Ti6  1  0.17224704  0.83088545  0.16414831  1
  Ti4+  Ti7  1  0.16624083  0.83417147  0.50212026  1
  Ti4+  Ti8  1  0.16163990  0.83333501  0.83312224  1
  Ti4+  Ti9  1  0.50266330  0.16353208  0.16799960  1
  Ti4+  Ti10  1  0.49968811  0.16646454  0.50156991  1
  Ti4+  Ti11  1  0.49844872  0.16896570  0.83425841  1
  Ti4+  Ti12  1  0.49869140  0.49906904  0.16421661  1
  Ti4+  Ti13  1  0.49888589  0.49886109  0.49417386  1
  Ti4+  Ti14  1  0.49670986  0.49825847  0.83377581  1
  Ti4+  Ti15  1  0.49915054  0.83661904  0.16657930  1
  Ti4+  Ti16  1  0.50408254  0.83074736  0.50153935  1
  Ti4+  Ti17  1  0.49617650  0.83410122  0.83376569  1
  Ti4+  Ti18  1  0.83642581  0.16681119  0.16609929  1
  Ti4+  Ti19  1  0.83164200  0.16842201  0.49815630  1
  Ti4+  Ti20  1  0.83141014  0.16685672  0.83294883  1
  Ti4+  Ti21  1  0.83259916  0.50080052  0.16589724  1
  Ti4+  Ti22  1  0.83410241  0.50291576  0.49869025  1
  Ti4+  Ti23  1  0.83336057  0.49939476  0.83359343  1
  Ti4+  Ti24  1  0.83635383  0.83168261  0.16554629  1
  Ti4+  Ti25  1  0.83301917  0.83488935  0.49561889  1
  Ti4+  Ti26  1  0.82909017  0.83429778  0.83433294  1
  Cu+  Cu27  1  0.16552263  0.16503392  0.00599487  1
  Cu+  Cu28  1  0.16459429  0.16535179  0.33456399  1
  Cu+  Cu29  1  0.16285437  0.16981658  0.66606812  1
  Cu+  Cu30  1  0.16151933  0.50314746  0.00290180  1
  Cu+  Cu31  1  0.17387918  0.49898424  0.33247485  1
  Cu+  Cu32  1  0.17146991  0.50012091  0.67012583  1
  Cu+  Cu33  1  0.16539708  0.83840787  -0.00382024  1
  Cu+  Cu34  1  0.17352857  0.82783856  0.33843871  1
  Cu+  Cu35  1  0.16207858  0.83344307  0.66792039  1
  Cu+  Cu36  1  0.50128640  0.16899140  0.00146747  1
  Cu+  Cu37  1  0.50292360  0.16094173  0.33672012  1
  Cu+  Cu38  1  0.49981934  0.16908767  0.66958395  1
  Cu+  Cu39  1  0.49173954  0.49934854  0.00059714  1
  Cu+  Cu40  1  0.50039190  0.49821712  0.32877893  1
  Cu+  Cu41  1  0.49678420  0.49848059  0.66078104  1
  Cu+  Cu42  1  0.50066019  0.83918482  -0.00263808  1
  Cu+  Cu43  1  0.50294811  0.83199646  0.33374291  1
  Cu+  Cu44  1  0.50130789  0.82838978  0.67016296  1
  Cu+  Cu45  1  0.83819454  0.16982373  -0.00383262  1
  Cu+  Cu46  1  0.83714446  0.16441754  0.33272340  1
  Cu+  Cu47  1  0.82929783  0.16926970  0.66574885  1
  Cu+  Cu48  1  0.82911080  0.49489732  -0.00316623  1
  Cu+  Cu49  1  0.83292082  0.50757778  0.33284138  1
  Cu+  Cu50  1  0.83661733  0.49906155  0.66903019  1
  Cu+  Cu51  1  0.82880091  0.83526007  0.00301713  1
  Cu+  Cu52  1  0.83770017  0.83290547  0.32896492  1
  Cu+  Cu53  1  0.83052450  0.83508395  0.66420065  1
  Cu+  Cu54  1  0.17313331  -0.00262781  0.16137108  1
  Cu+  Cu55  1  0.16484941  0.00022168  0.50324530  1
  Cu+  Cu56  1  0.16278568  0.00031221  0.83675720  1
  Cu+  Cu57  1  0.16520164  0.33080548  0.16791676  1
  Cu+  Cu58  1  0.16821490  0.33178773  0.49666326  1
  Cu+  Cu59  1  0.16899923  0.33600281  0.83537645  1
  Cu+  Cu60  1  0.16860891  0.66194635  0.16748585  1
  Cu+  Cu61  1  0.17056681  0.67010535  0.49975994  1
  Cu+  Cu62  1  0.16384068  0.66794734  0.83348653  1
  Cu+  Cu63  1  0.49598600  0.00359649  0.17365464  1
  Cu+  Cu64  1  0.50530287  -0.00242426  0.50015647  1
  Cu+  Cu65  1  0.49879808  0.00281398  0.83494120  1
  Cu+  Cu66  1  0.50115724  0.32880128  0.16752010  1
  Cu+  Cu67  1  0.49546771  0.33369081  0.49993241  1
  Cu+  Cu68  1  0.49530010  0.33316024  0.83805056  1
  Cu+  Cu69  1  0.49756653  0.66963774  0.16103957  1
  Cu+  Cu70  1  0.50403435  0.66032228  0.50328104  1
  Cu+  Cu71  1  0.49739445  0.66887642  0.82902409  1
  Cu+  Cu72  1  0.83578176  -0.00079744  0.16426047  1
  Cu+  Cu73  1  0.83733664  0.00278793  0.49487037  1
  Cu+  Cu74  1  0.82925574  0.00170156  0.83124456  1
  Cu+  Cu75  1  0.83454364  0.33514840  0.16709433  1
  Cu+  Cu76  1  0.83194320  0.33553754  0.50062186  1
  Cu+  Cu77  1  0.83235035  0.33377479  0.83714715  1
  Cu+  Cu78  1  0.83942728  0.66577153  0.17038996  1
  Cu+  Cu79  1  0.82721858  0.66776957  0.49368056  1
  Cu+  Cu80  1  0.83209817  0.66466741  0.83397432  1
  Cu+  Cu81  1  0.00212217  0.16755610  0.16558487  1
  Cu+  Cu82  1  -0.00207097  0.16735555  0.49743102  1
  Cu+  Cu83  1  -0.00277894  0.16863606  0.83595382  1
  Cu+  Cu84  1  -0.00281999  0.50496368  0.16717076  1
  Cu+  Cu85  1  0.00496849  0.50214126  0.50201989  1
  Cu+  Cu86  1  0.00055383  0.50057771  0.83277727  1
  Cu+  Cu87  1  0.00648147  0.83139597  0.16232702  1
  Cu+  Cu88  1  -0.00048970  0.83565951  0.49949967  1
  Cu+  Cu89  1  -0.00552213  0.83085277  0.83272926  1
  Cu+  Cu90  1  0.33647279  0.15893450  0.16887093  1
  Cu+  Cu91  1  0.33103017  0.16693523  0.50279311  1
  Cu+  Cu92  1  0.33406244  0.16799980  0.83386582  1
  Cu+  Cu93  1  0.33647975  0.50403411  0.16277824  1
  Cu+  Cu94  1  0.33454629  0.49033077  0.49416346  1
  Cu+  Cu95  1  0.32980786  0.49365957  0.83680126  1
  Cu+  Cu96  1  0.33319623  0.83665438  0.17230543  1
  Cu+  Cu97  1  0.33713417  0.83164563  0.50155576  1
  Cu+  Cu98  1  0.32865866  0.83536953  0.83326299  1
  Cu+  Cu99  1  0.67049773  0.16601396  0.16798791  1
  Cu+  Cu100  1  0.66404341  0.16529008  0.49832428  1
  Cu+  Cu101  1  0.66483622  0.16894340  0.83020100  1
  Cu+  Cu102  1  0.66274499  0.49971857  0.16344837  1
  Cu+  Cu103  1  0.66756667  0.50739583  0.49382449  1
  Cu+  Cu104  1  0.66904436  0.49671688  0.83353910  1
  Cu+  Cu105  1  0.66851232  0.83427241  0.16264110  1
  Cu+  Cu106  1  0.67299199  0.82890235  0.50345194  1
  Cu+  Cu107  1  0.66012781  0.83448007  0.83674214  1
  Cu+  Cu108  1  0.07449825  0.92565937  0.07172472  1
  Cu+  Cu109  1  0.07631320  0.26101951  0.07779062  1
  Cu+  Cu110  1  0.06704531  0.59293287  0.07234615  1
  Cu+  Cu111  1  0.26804316  0.74107223  0.41390122  1
  Cu+  Cu112  1  0.40562354  0.07745529  0.26943354  1
  Cu+  Cu113  1  0.59434984  0.58065836  0.59477529  1
  Cu+  Cu114  1  0.40750581  0.40511800  0.59088041  1
  Cu+  Cu115  1  0.59107421  0.93234015  0.92289067  1
  Cu+  Cu116  1  0.73587772  0.59759681  0.39820704  1
  Cu+  Cu117  1  0.73629582  0.40327798  0.92723385  1
  Cu+  Cu118  1  0.40914739  0.60231060  0.06752890  1
  Cu+  Cu119  1  0.25679125  0.40486198  0.74157276  1
  Cu+  Cu120  1  0.25813379  0.39836396  0.39992689  1
  Cu+  Cu121  1  0.40098006  0.40331944  0.93202646  1
  Cu+  Cu122  1  0.75192406  0.73826601  0.59555140  1
  Cu+  Cu123  1  0.25881029  0.92805146  0.91853336  1
  Cu+  Cu124  1  0.25175316  0.92594804  0.26678035  1
  Cu+  Cu125  1  0.59315157  0.74117018  0.74733771  1
  Cu+  Cu126  1  0.92834791  0.26327459  0.92213857  1
  Cu+  Cu127  1  0.92980279  0.59442129  0.26513236  1
  Cu+  Cu128  1  0.26643515  0.07703093  0.07165830  1
  Cu+  Cu129  1  0.73915017  0.93044919  0.07883476  1
  Cu+  Cu130  1  0.59533887  0.06821475  0.40763559  1
  Cu+  Cu131  1  0.26676659  0.58747643  0.25967959  1
  Cu+  Cu132  1  0.93080125  0.07505380  0.40372953  1
  Te2-  Te133  1  0.25534378  0.24932327  0.08617126  1
  Te2-  Te134  1  0.25451493  0.24874044  0.41131154  1
  Te2-  Te135  1  0.25188485  0.25150030  0.74796688  1
  Te2-  Te136  1  0.25455014  0.58765001  0.07647138  1
  Te2-  Te137  1  0.25939216  0.58820217  0.41374476  1
  Te2-  Te138  1  0.25346009  0.58684911  0.75290253  1
  Te2-  Te139  1  0.26045796  0.91873503  0.07510480  1
  Te2-  Te140  1  0.25573583  0.92206186  0.41909380  1
  Te2-  Te141  1  0.24702491  0.92063095  0.74752508  1
  Te2-  Te142  1  0.58803465  0.25009914  0.08330042  1
  Te2-  Te143  1  0.58294000  0.25394029  0.41522634  1
  Te2-  Te144  1  0.58271374  0.25669038  0.74966937  1
  Te2-  Te145  1  0.58269756  0.58527844  0.07714648  1
  Te2-  Te146  1  0.58331941  0.58836403  0.40562777  1
  Te2-  Te147  1  0.58548206  0.58244555  0.74735565  1
  Te2-  Te148  1  0.58452411  0.92607526  0.08171826  1
  Te2-  Te149  1  0.59120277  0.91413316  0.41493688  1
  Te2-  Te150  1  0.58292832  0.92117308  0.74783955  1
  Te2-  Te151  1  0.92181001  0.25679350  0.07986671  1
  Te2-  Te152  1  0.91732824  0.25570858  0.41365522  1
  Te2-  Te153  1  0.91649733  0.25351460  0.74749298  1
  Te2-  Te154  1  0.91533512  0.58569717  0.07427677  1
  Te2-  Te155  1  0.92412475  0.58972473  0.41712293  1
  Te2-  Te156  1  0.91947080  0.58637352  0.74892188  1
  Te2-  Te157  1  0.92233720  0.91850706  0.07891670  1
  Te2-  Te158  1  0.92196727  0.91924837  0.40966714  1
  Te2-  Te159  1  0.91426649  0.91787384  0.74794163  1
  Te2-  Te160  1  0.25259451  0.07702098  0.25926593  1
  Te2-  Te161  1  0.24947178  0.08236742  0.58793450  1
  Te2-  Te162  1  0.25373712  0.08166895  0.92051278  1
  Te2-  Te163  1  0.25617136  0.41116835  0.24706050  1
  Te2-  Te164  1  0.25353974  0.40892150  0.58787228  1
  Te2-  Te165  1  0.24880087  0.41289850  0.92926439  1
  Te2-  Te166  1  0.25750184  0.74207991  0.25367520  1
  Te2-  Te167  1  0.25273342  0.75047408  0.58956010  1
  Te2-  Te168  1  0.24920854  0.74792887  0.91854159  1
  Te2-  Te169  1  0.59239833  0.07790806  0.25333432  1
  Te2-  Te170  1  0.58474523  0.08240292  0.58887415  1
  Te2-  Te171  1  0.58698119  0.08468958  0.92003845  1
  Te2-  Te172  1  0.58519237  0.41326593  0.24946737  1
  Te2-  Te173  1  0.58866204  0.41585195  0.57965851  1
  Te2-  Te174  1  0.58287455  0.41512018  0.92142835  1
  Te2-  Te175  1  0.58510747  0.74905204  0.24662798  1
  Te2-  Te176  1  0.59076964  0.74166879  0.58988461  1
  Te2-  Te177  1  0.58116660  0.74499418  0.92072016  1
  Te2-  Te178  1  0.92293429  0.07864410  0.24945365  1
  Te2-  Te179  1  0.91674686  0.08431162  0.58620776  1
  Te2-  Te180  1  0.91737702  0.07820022  0.91713890  1
  Te2-  Te181  1  0.91800251  0.41756369  0.25356370  1
  Te2-  Te182  1  0.91960748  0.41701908  0.58321126  1
  Te2-  Te183  1  0.92363172  0.41519322  0.92055245  1
  Te2-  Te184  1  0.92723782  0.74856136  0.25226871  1
  Te2-  Te185  1  0.91608485  0.74743880  0.58203711  1
  Te2-  Te186  1  0.91292952  0.74915843  0.92007727  1
  Te2-  Te187  1  0.08090020  0.25077881  0.25463034  1
  Te2-  Te188  1  0.07904627  0.25405147  0.58236581  1
  Te2-  Te189  1  0.08193460  0.25591289  0.92295801  1
  Te2-  Te190  1  0.08242049  0.58567713  0.25685409  1
  Te2-  Te191  1  0.08887182  0.58546524  0.58612537  1
  Te2-  Te192  1  0.07759545  0.58814240  0.91877793  1
  Te2-  Te193  1  0.08876278  0.91495148  0.25256321  1
  Te2-  Te194  1  0.07887739  0.91928697  0.58664671  1
  Te2-  Te195  1  0.07186161  0.92021546  0.91780401  1
  Te2-  Te196  1  0.41593728  0.24732227  0.25420680  1
  Te2-  Te197  1  0.41204870  0.25153389  0.58827987  1
  Te2-  Te198  1  0.41037130  0.25137871  0.92411350  1
  Te2-  Te199  1  0.41715637  0.58882886  0.25306843  1
  Te2-  Te200  1  0.40916714  0.58279378  0.58063565  1
  Te2-  Te201  1  0.41076600  0.58869421  0.91491836  1
  Te2-  Te202  1  0.41343745  0.92005674  0.26007073  1
  Te2-  Te203  1  0.41981960  0.91587855  0.58615479  1
  Te2-  Te204  1  0.41094769  0.92311597  0.91897785  1
  Te2-  Te205  1  0.75230086  0.25103404  0.25224084  1
  Te2-  Te206  1  0.74469531  0.25331530  0.58272195  1
  Te2-  Te207  1  0.74269799  0.25148275  0.92125825  1
  Te2-  Te208  1  0.74257457  0.58813127  0.24728865  1
  Te2-  Te209  1  0.74767886  0.58629823  0.59154291  1
  Te2-  Te210  1  0.74592578  0.58563501  0.91886927  1
  Te2-  Te211  1  0.75015728  0.91836597  0.25038141  1
  Te2-  Te212  1  0.75029794  0.92382216  0.58144605  1
  Te2-  Te213  1  0.74379535  0.92303685  0.92102584  1
  Te2-  Te214  1  0.07810151  0.07664720  0.08170259  1
  Te2-  Te215  1  0.08124203  0.07827252  0.41388279  1
  Te2-  Te216  1  0.08001482  0.08439177  0.75085289  1
  Te2-  Te217  1  0.07812483  0.41459667  0.08357873  1
  Te2-  Te218  1  0.08369788  0.41717212  0.41345166  1
  Te2-  Te219  1  0.08196791  0.41525919  0.74877187  1
  Te2-  Te220  1  0.08600229  0.74449098  0.07801967  1
  Te2-  Te221  1  0.08015883  0.74831101  0.41589074  1
  Te2-  Te222  1  0.07716957  0.74704416  0.74785304  1
  Te2-  Te223  1  0.41775749  0.07790929  0.07664703  1
  Te2-  Te224  1  0.41143694  0.07709115  0.42001847  1
  Te2-  Te225  1  0.41405780  0.08244137  0.74862538  1
  Te2-  Te226  1  0.41148048  0.40723438  0.08404566  1
  Te2-  Te227  1  0.41527734  0.40941281  0.40463071  1
  Te2-  Te228  1  0.41250926  0.41092760  0.74504812  1
  Te2-  Te229  1  0.41151556  0.75485538  0.07812632  1
  Te2-  Te230  1  0.42020502  0.74418724  0.41536972  1
  Te2-  Te231  1  0.40766423  0.74918951  0.74798802  1
  Te2-  Te232  1  0.75054485  0.08373559  0.07800223  1
  Te2-  Te233  1  0.74661172  0.08022061  0.41110249  1
  Te2-  Te234  1  0.74504673  0.08299698  0.74620162  1
  Te2-  Te235  1  0.74512450  0.41215566  0.08243406  1
  Te2-  Te236  1  0.74906019  0.41777319  0.41291455  1
  Te2-  Te237  1  0.74933084  0.41245540  0.74625392  1
  Te2-  Te238  1  0.75013306  0.74332023  0.08336961  1
  Te2-  Te239  1  0.74563127  0.75011957  0.40468204  1
  Te2-  Te240  1  0.74448143  0.74577012  0.74870886  1
