# generated using pymatgen
data_Ti27(Cu53Te54)2
_symmetry_space_group_name_H-M   'P 1'
_cell_length_a   17.88944681
_cell_length_b   17.89629663
_cell_length_c   17.89332395
_cell_angle_alpha   89.92163440
_cell_angle_beta   89.94533152
_cell_angle_gamma   89.98343302
_symmetry_Int_Tables_number   1
_chemical_formula_structural   Ti27(Cu53Te54)2
_chemical_formula_sum   'Ti27 Cu106 Te108'
_cell_volume   5728.62618366
_cell_formula_units_Z   1
loop_
 _symmetry_equiv_pos_site_id
 _symmetry_equiv_pos_as_xyz
  1  'x, y, z'
loop_
 _atom_type_symbol
 _atom_type_oxidation_number
  Ti4+  4.0
  Cu+  1.0
  Te2-  -2.0
loop_
 _atom_site_type_symbol
 _atom_site_label
 _atom_site_symmetry_multiplicity
 _atom_site_fract_x
 _atom_site_fract_y
 _atom_site_fract_z
 _atom_site_occupancy
  Ti4+  Ti0  1  0.16567912  0.16647282  0.16820272  1
  Ti4+  Ti1  1  0.16572712  0.16339260  0.50137267  1
  Ti4+  Ti2  1  0.17062237  0.17059335  0.83439600  1
  Ti4+  Ti3  1  0.16001360  0.49687378  0.16497521  1
  Ti4+  Ti4  1  0.17224008  0.49765586  0.49680848  1
  Ti4+  Ti5  1  0.16915609  0.50013556  0.83170690  1
  Ti4+  Ti6  1  0.16651473  0.83137127  0.16401826  1
  Ti4+  Ti7  1  0.16687596  0.82954562  0.49919775  1
  Ti4+  Ti8  1  0.16534182  0.83634917  0.83140621  1
  Ti4+  Ti9  1  0.50202761  0.16815458  0.16519987  1
  Ti4+  Ti10  1  0.50143997  0.16582263  0.49859784  1
  Ti4+  Ti11  1  0.49821073  0.16848165  0.83464224  1
  Ti4+  Ti12  1  0.49988635  0.50051192  0.16560372  1
  Ti4+  Ti13  1  0.49834005  0.49645700  0.50275855  1
  Ti4+  Ti14  1  0.50205101  0.50082754  0.83386756  1
  Ti4+  Ti15  1  0.49916263  0.83340600  0.16763290  1
  Ti4+  Ti16  1  0.49823175  0.83243568  0.50119827  1
  Ti4+  Ti17  1  0.49938724  0.83581928  0.83371813  1
  Ti4+  Ti18  1  0.83315324  0.16809385  0.16700535  1
  Ti4+  Ti19  1  0.83111632  0.16335713  0.49957639  1
  Ti4+  Ti20  1  0.83515341  0.16838107  0.83275371  1
  Ti4+  Ti21  1  0.83566413  0.50342685  0.16919939  1
  Ti4+  Ti22  1  0.83402100  0.49826288  0.50346492  1
  Ti4+  Ti23  1  0.83275229  0.49993367  0.83610909  1
  Ti4+  Ti24  1  0.83427965  0.83452163  0.16960848  1
  Ti4+  Ti25  1  0.83058534  0.83125923  0.50122484  1
  Ti4+  Ti26  1  0.83147542  0.83517973  0.83294625  1
  Cu+  Cu27  1  0.16587414  0.17245575  0.00274929  1
  Cu+  Cu28  1  0.16526132  0.16006067  0.33747631  1
  Cu+  Cu29  1  0.17213939  0.16915121  0.66514055  1
  Cu+  Cu30  1  0.16099210  0.50113247  -0.00069543  1
  Cu+  Cu31  1  0.16622366  0.49606905  0.32627005  1
  Cu+  Cu32  1  0.17334829  0.49662617  0.66570615  1
  Cu+  Cu33  1  0.16743100  0.83855065  -0.00713696  1
  Cu+  Cu34  1  0.16567032  0.82873889  0.32991738  1
  Cu+  Cu35  1  0.16980856  0.83084828  0.66774899  1
  Cu+  Cu36  1  0.50189325  0.17091056  -0.00045358  1
  Cu+  Cu37  1  0.50178443  0.16523579  0.33093709  1
  Cu+  Cu38  1  0.49943173  0.16510058  0.66799289  1
  Cu+  Cu39  1  0.50033412  0.50095471  0.00074254  1
  Cu+  Cu40  1  0.49706045  0.49567602  0.33365012  1
  Cu+  Cu41  1  0.50502607  0.49932253  0.66612707  1
  Cu+  Cu42  1  0.49930833  0.83407506  0.00251616  1
  Cu+  Cu43  1  0.49741047  0.83267030  0.33322065  1
  Cu+  Cu44  1  0.50023313  0.83795060  0.66560669  1
  Cu+  Cu45  1  0.83461215  0.16623565  -0.00065438  1
  Cu+  Cu46  1  0.82990949  0.16831770  0.33410868  1
  Cu+  Cu47  1  0.83484016  0.16736037  0.66472231  1
  Cu+  Cu48  1  0.83428392  0.50187326  0.00078848  1
  Cu+  Cu49  1  0.83564259  0.50194824  0.33720714  1
  Cu+  Cu50  1  0.83191457  0.49734175  0.67308798  1
  Cu+  Cu51  1  0.83453286  0.83707074  -0.00039097  1
  Cu+  Cu52  1  0.82703854  0.83163475  0.33565907  1
  Cu+  Cu53  1  0.83218966  0.83248140  0.66714704  1
  Cu+  Cu54  1  0.16824840  -0.00050908  0.16738261  1
  Cu+  Cu55  1  0.16457388  -0.00487885  0.50282067  1
  Cu+  Cu56  1  0.17134599  0.00381748  0.83490276  1
  Cu+  Cu57  1  0.15442741  0.32941963  0.16366962  1
  Cu+  Cu58  1  0.16868156  0.32779696  0.50111136  1
  Cu+  Cu59  1  0.17419600  0.33725755  0.83462417  1
  Cu+  Cu60  1  0.15597908  0.66519436  0.16760979  1
  Cu+  Cu61  1  0.17410961  0.66401542  0.49421220  1
  Cu+  Cu62  1  0.16488703  0.67075352  0.82820329  1
  Cu+  Cu63  1  0.50109226  0.00154031  0.16514692  1
  Cu+  Cu64  1  0.50091857  0.00025906  0.50199219  1
  Cu+  Cu65  1  0.49739691  0.00250161  0.83303520  1
  Cu+  Cu66  1  0.50029842  0.33524279  0.16602789  1
  Cu+  Cu67  1  0.49932075  0.33269921  0.49847543  1
  Cu+  Cu68  1  0.50311874  0.33235854  0.83808280  1
  Cu+  Cu69  1  0.49825970  0.66767897  0.16554994  1
  Cu+  Cu70  1  0.49711211  0.66162850  0.50323671  1
  Cu+  Cu71  1  0.49840610  0.66907440  0.83359702  1
  Cu+  Cu72  1  0.83493811  0.00160710  0.16776972  1
  Cu+  Cu73  1  0.83040051  -0.00221424  0.49847806  1
  Cu+  Cu74  1  0.83246249  0.00211435  0.83388500  1
  Cu+  Cu75  1  0.83556473  0.33690287  0.16870515  1
  Cu+  Cu76  1  0.83153683  0.32873885  0.50099671  1
  Cu+  Cu77  1  0.83680858  0.33604916  0.83238475  1
  Cu+  Cu78  1  0.83465278  0.67136309  0.16961715  1
  Cu+  Cu79  1  0.83173458  0.66657531  0.50148054  1
  Cu+  Cu80  1  0.83110565  0.66626414  0.83405483  1
  Cu+  Cu81  1  -0.00140708  0.16813559  0.16579225  1
  Cu+  Cu82  1  -0.00234574  0.16274834  0.50311151  1
  Cu+  Cu83  1  0.00324360  0.16771906  0.83311188  1
  Cu+  Cu84  1  0.00144459  0.49914226  0.16601793  1
  Cu+  Cu85  1  0.00393819  0.49622676  0.50150240  1
  Cu+  Cu86  1  -0.00161573  0.49717392  0.83284930  1
  Cu+  Cu87  1  -0.00170851  0.82479534  0.16387077  1
  Cu+  Cu88  1  -0.00343996  0.82985419  0.49880858  1
  Cu+  Cu89  1  -0.00110563  0.83733210  0.83175089  1
  Cu+  Cu90  1  0.33673459  0.16554411  0.16733611  1
  Cu+  Cu91  1  0.33677461  0.16354578  0.49990565  1
  Cu+  Cu92  1  0.33086074  0.16854437  0.83491708  1
  Cu+  Cu93  1  0.32914340  0.49538338  0.16446895  1
  Cu+  Cu94  1  0.33698078  0.50579849  0.49817619  1
  Cu+  Cu95  1  0.33710121  0.49777027  0.83167357  1
  Cu+  Cu96  1  0.33427726  0.83707666  0.16748156  1
  Cu+  Cu97  1  0.32953321  0.83166274  0.49851194  1
  Cu+  Cu98  1  0.33363008  0.83701033  0.83439395  1
  Cu+  Cu99  1  0.66827846  0.16780593  0.16478973  1
  Cu+  Cu100  1  0.66798386  0.16657477  0.49514992  1
  Cu+  Cu101  1  0.66707861  0.16937170  0.83509452  1
  Cu+  Cu102  1  0.66626042  0.50479531  0.16883718  1
  Cu+  Cu103  1  0.66408266  0.49674945  0.50448355  1
  Cu+  Cu104  1  0.67012167  0.50329446  0.83325360  1
  Cu+  Cu105  1  0.66722152  0.83252129  0.17127534  1
  Cu+  Cu106  1  0.66325183  0.83354765  0.50284880  1
  Cu+  Cu107  1  0.66571009  0.83473950  0.83456016  1
  Cu+  Cu108  1  0.06948925  0.74085606  0.26311222  1
  Cu+  Cu109  1  0.59493607  0.93086873  0.59352826  1
  Cu+  Cu110  1  0.07176973  0.39894320  0.26416501  1
  Cu+  Cu111  1  0.92849077  0.40868132  0.74217919  1
  Cu+  Cu112  1  0.25924502  0.07589948  0.73993411  1
  Cu+  Cu113  1  0.25788313  0.59168735  0.59299565  1
  Cu+  Cu114  1  0.06587376  0.25541911  0.06931005  1
  Cu+  Cu115  1  0.07411719  0.59462679  0.06651578  1
  Cu+  Cu116  1  0.73870428  0.26165462  0.40414855  1
  Cu+  Cu117  1  0.59440161  0.59195929  0.59067315  1
  Cu+  Cu118  1  0.74264165  0.59660564  0.74301517  1
  Cu+  Cu119  1  0.26877591  0.40965124  0.73877670  1
  Cu+  Cu120  1  0.25896439  0.59112300  0.24333289  1
  Cu+  Cu121  1  0.26023326  0.92861087  0.25897188  1
  Cu+  Cu122  1  0.25626924  0.92331187  0.59169083  1
  Cu+  Cu123  1  0.26113158  0.74332026  0.40129107  1
  Cu+  Cu124  1  0.73480584  0.74052185  0.26317664  1
  Cu+  Cu125  1  0.26676502  0.25776420  0.58414621  1
  Cu+  Cu126  1  0.41871293  0.59343115  0.40179949  1
  Cu+  Cu127  1  0.91751318  0.74166165  0.06723615  1
  Cu+  Cu128  1  0.92565032  0.25676378  0.58944027  1
  Cu+  Cu129  1  0.26455183  0.74204331  0.74830263  1
  Cu+  Cu130  1  0.59911775  0.26089398  0.92762069  1
  Cu+  Cu131  1  0.25910882  0.26702191  0.93481938  1
  Cu+  Cu132  1  0.26339928  0.92998787  0.92642848  1
  Te2-  Te133  1  0.25474148  0.25499913  0.08636920  1
  Te2-  Te134  1  0.25281641  0.24683803  0.41413759  1
  Te2-  Te135  1  0.25862516  0.25788674  0.74330248  1
  Te2-  Te136  1  0.24765463  0.58604447  0.08124380  1
  Te2-  Te137  1  0.25680569  0.58455078  0.40288238  1
  Te2-  Te138  1  0.25751362  0.58835551  0.74732305  1
  Te2-  Te139  1  0.25282892  0.91995232  0.07903765  1
  Te2-  Te140  1  0.25046315  0.91897901  0.41089084  1
  Te2-  Te141  1  0.25640591  0.92326338  0.74423567  1
  Te2-  Te142  1  0.58882143  0.25669910  0.08087045  1
  Te2-  Te143  1  0.58455959  0.25357262  0.41140874  1
  Te2-  Te144  1  0.58466412  0.25196465  0.74748119  1
  Te2-  Te145  1  0.58490557  0.58744679  0.08150876  1
  Te2-  Te146  1  0.58427103  0.58217354  0.41494216  1
  Te2-  Te147  1  0.58682628  0.59023826  0.74758327  1
  Te2-  Te148  1  0.58673909  0.91699015  0.08366460  1
  Te2-  Te149  1  0.58286806  0.91701232  0.41437791  1
  Te2-  Te150  1  0.58606920  0.92283425  0.74878724  1
  Te2-  Te151  1  0.91671240  0.25564309  0.07946148  1
  Te2-  Te152  1  0.92004042  0.24993606  0.41506876  1
  Te2-  Te153  1  0.92412487  0.25386425  0.74556527  1
  Te2-  Te154  1  0.92087437  0.58899553  0.07895245  1
  Te2-  Te155  1  0.92034079  0.58408245  0.42086055  1
  Te2-  Te156  1  0.91949894  0.58649380  0.74854895  1
  Te2-  Te157  1  0.92098695  0.91997345  0.08353243  1
  Te2-  Te158  1  0.91571339  0.91574200  0.41470456  1
  Te2-  Te159  1  0.91589645  0.92044349  0.74707671  1
  Te2-  Te160  1  0.25409572  0.08138339  0.25379483  1
  Te2-  Te161  1  0.25641112  0.07599929  0.58563799  1
  Te2-  Te162  1  0.25358086  0.08407684  0.92587979  1
  Te2-  Te163  1  0.24766382  0.40666997  0.24658156  1
  Te2-  Te164  1  0.25996080  0.41054328  0.58314929  1
  Te2-  Te165  1  0.25530459  0.41981980  0.92479138  1
  Te2-  Te166  1  0.25636810  0.74283559  0.24873656  1
  Te2-  Te167  1  0.25661629  0.74285224  0.58889749  1
  Te2-  Te168  1  0.25147391  0.74738299  0.91662098  1
  Te2-  Te169  1  0.58753804  0.08182371  0.24962629  1
  Te2-  Te170  1  0.58819106  0.08313894  0.58672489  1
  Te2-  Te171  1  0.58454854  0.08179600  0.91834489  1
  Te2-  Te172  1  0.58546694  0.41637079  0.25185982  1
  Te2-  Te173  1  0.58503839  0.40823315  0.58692761  1
  Te2-  Te174  1  0.58903510  0.41764212  0.92063519  1
  Te2-  Te175  1  0.58268721  0.74513245  0.25497478  1
  Te2-  Te176  1  0.58355399  0.74534341  0.58782037  1
  Te2-  Te177  1  0.58333817  0.74999666  0.91898766  1
  Te2-  Te178  1  0.91799654  0.08388868  0.25338980  1
  Te2-  Te179  1  0.91607319  0.07569881  0.58600631  1
  Te2-  Te180  1  0.92063086  0.08287603  0.91723618  1
  Te2-  Te181  1  0.91980872  0.41541327  0.25586778  1
  Te2-  Te182  1  0.92164983  0.41179115  0.58825832  1
  Te2-  Te183  1  0.91976789  0.41434837  0.92279016  1
  Te2-  Te184  1  0.91930495  0.74680627  0.26025061  1
  Te2-  Te185  1  0.91685088  0.74660429  0.58673762  1
  Te2-  Te186  1  0.91967366  0.74815048  0.91574055  1
  Te2-  Te187  1  0.07796349  0.24687586  0.25943230  1
  Te2-  Te188  1  0.07980542  0.25121529  0.58740102  1
  Te2-  Te189  1  0.08069125  0.25756881  0.91662477  1
  Te2-  Te190  1  0.07396191  0.58518124  0.25785299  1
  Te2-  Te191  1  0.08781728  0.58285682  0.58299914  1
  Te2-  Te192  1  0.07944514  0.58764013  0.91246016  1
  Te2-  Te193  1  0.07908363  0.91539592  0.24853781  1
  Te2-  Te194  1  0.07935078  0.91214248  0.58568811  1
  Te2-  Te195  1  0.07918214  0.92395029  0.91553033  1
  Te2-  Te196  1  0.41662357  0.25253476  0.25178387  1
  Te2-  Te197  1  0.41718820  0.25189308  0.58654375  1
  Te2-  Te198  1  0.41125425  0.25538990  0.92152299  1
  Te2-  Te199  1  0.41146613  0.58686617  0.25104547  1
  Te2-  Te200  1  0.41226119  0.58525085  0.59344651  1
  Te2-  Te201  1  0.41523551  0.58517030  0.91774718  1
  Te2-  Te202  1  0.41509017  0.92254396  0.25408223  1
  Te2-  Te203  1  0.41040398  0.91987718  0.58459244  1
  Te2-  Te204  1  0.41523911  0.92207251  0.92177913  1
  Te2-  Te205  1  0.74645161  0.25623056  0.25082268  1
  Te2-  Te206  1  0.74431826  0.24987441  0.58679192  1
  Te2-  Te207  1  0.75152914  0.25539010  0.91973047  1
  Te2-  Te208  1  0.74874406  0.58708833  0.25586442  1
  Te2-  Te209  1  0.74725699  0.58590042  0.58865494  1
  Te2-  Te210  1  0.74745276  0.58726466  0.92296895  1
  Te2-  Te211  1  0.74797927  0.92176607  0.25322990  1
  Te2-  Te212  1  0.74661407  0.91935479  0.58770010  1
  Te2-  Te213  1  0.74747929  0.92043564  0.91928302  1
  Te2-  Te214  1  0.08165029  0.08109140  0.08182754  1
  Te2-  Te215  1  0.07905215  0.07656134  0.41862943  1
  Te2-  Te216  1  0.08591843  0.08448196  0.74802017  1
  Te2-  Te217  1  0.07378810  0.41173674  0.07397388  1
  Te2-  Te218  1  0.08368735  0.41015436  0.41608035  1
  Te2-  Te219  1  0.08373414  0.41318931  0.74627096  1
  Te2-  Te220  1  0.08104206  0.74820995  0.07043188  1
  Te2-  Te221  1  0.07853682  0.74287265  0.41558853  1
  Te2-  Te222  1  0.07746259  0.75112005  0.74582913  1
  Te2-  Te223  1  0.41672973  0.08295297  0.07950835  1
  Te2-  Te224  1  0.41721028  0.08006904  0.41354063  1
  Te2-  Te225  1  0.41213733  0.08148166  0.74742640  1
  Te2-  Te226  1  0.41421572  0.41514841  0.08037589  1
  Te2-  Te227  1  0.41154297  0.41149795  0.41531829  1
  Te2-  Te228  1  0.42058511  0.41173236  0.74698829  1
  Te2-  Te229  1  0.41267045  0.74933556  0.08183844  1
  Te2-  Te230  1  0.41278871  0.74490038  0.41237505  1
  Te2-  Te231  1  0.41548523  0.74981257  0.74593100  1
  Te2-  Te232  1  0.74993883  0.08168589  0.08110955  1
  Te2-  Te233  1  0.74645340  0.07744009  0.41190613  1
  Te2-  Te234  1  0.74833437  0.08488338  0.74881228  1
  Te2-  Te235  1  0.74963711  0.41944755  0.08507854  1
  Te2-  Te236  1  0.74744608  0.41585141  0.41601422  1
  Te2-  Te237  1  0.74494411  0.41158916  0.75049725  1
  Te2-  Te238  1  0.74842718  0.75009305  0.08118876  1
  Te2-  Te239  1  0.74190793  0.74454485  0.41778928  1
  Te2-  Te240  1  0.74462681  0.74928685  0.74732702  1
