# generated using pymatgen
data_Ti27(Cu53Te54)2
_symmetry_space_group_name_H-M   'P 1'
_cell_length_a   17.88112679
_cell_length_b   17.88521047
_cell_length_c   17.88746165
_cell_angle_alpha   90.05811874
_cell_angle_beta   89.97676684
_cell_angle_gamma   89.96948395
_symmetry_Int_Tables_number   1
_chemical_formula_structural   Ti27(Cu53Te54)2
_chemical_formula_sum   'Ti27 Cu106 Te108'
_cell_volume   5720.54402954
_cell_formula_units_Z   1
loop_
 _symmetry_equiv_pos_site_id
 _symmetry_equiv_pos_as_xyz
  1  'x, y, z'
loop_
 _atom_type_symbol
 _atom_type_oxidation_number
  Ti4+  4.0
  Cu+  1.0
  Te2-  -2.0
loop_
 _atom_site_type_symbol
 _atom_site_label
 _atom_site_symmetry_multiplicity
 _atom_site_fract_x
 _atom_site_fract_y
 _atom_site_fract_z
 _atom_site_occupancy
  Ti4+  Ti0  1  0.16882098  0.16801211  0.16582589  1
  Ti4+  Ti1  1  0.16805515  0.17015829  0.50155767  1
  Ti4+  Ti2  1  0.16474874  0.16465730  0.83125569  1
  Ti4+  Ti3  1  0.16614897  0.50067929  0.16580163  1
  Ti4+  Ti4  1  0.16172875  0.50235348  0.49756082  1
  Ti4+  Ti5  1  0.16759049  0.49995207  0.83462449  1
  Ti4+  Ti6  1  0.16750322  0.83356596  0.16629821  1
  Ti4+  Ti7  1  0.16580693  0.83322469  0.49714572  1
  Ti4+  Ti8  1  0.16522678  0.83173755  0.83336156  1
  Ti4+  Ti9  1  0.50348060  0.16554374  0.16819213  1
  Ti4+  Ti10  1  0.49952089  0.16481611  0.50028475  1
  Ti4+  Ti11  1  0.49985038  0.16871633  0.83448460  1
  Ti4+  Ti12  1  0.49941439  0.49967467  0.16785985  1
  Ti4+  Ti13  1  0.49845681  0.49683996  0.49842231  1
  Ti4+  Ti14  1  0.50233080  0.50104669  0.83105815  1
  Ti4+  Ti15  1  0.49802079  0.83406242  0.16808460  1
  Ti4+  Ti16  1  0.49989088  0.83223167  0.50014928  1
  Ti4+  Ti17  1  0.49888293  0.83428237  0.83362529  1
  Ti4+  Ti18  1  0.83672378  0.16434145  0.16530929  1
  Ti4+  Ti19  1  0.83490174  0.16715748  0.50075493  1
  Ti4+  Ti20  1  0.83527585  0.16579055  0.83422626  1
  Ti4+  Ti21  1  0.83568190  0.49953205  0.16795611  1
  Ti4+  Ti22  1  0.83548948  0.50056349  0.50326651  1
  Ti4+  Ti23  1  0.83147116  0.50094592  0.83434922  1
  Ti4+  Ti24  1  0.83086073  0.83246059  0.16634614  1
  Ti4+  Ti25  1  0.83496650  0.83360938  0.49857117  1
  Ti4+  Ti26  1  0.83027606  0.83524361  0.83410439  1
  Cu+  Cu27  1  0.16881745  0.16743241  -0.00383644  1
  Cu+  Cu28  1  0.16949280  0.17321821  0.33680637  1
  Cu+  Cu29  1  0.16337968  0.16181848  0.66481838  1
  Cu+  Cu30  1  0.16545310  0.50075657  0.00138006  1
  Cu+  Cu31  1  0.16318857  0.50540161  0.32933445  1
  Cu+  Cu32  1  0.16427909  0.50208063  0.66981123  1
  Cu+  Cu33  1  0.16824229  0.83145404  -0.00005650  1
  Cu+  Cu34  1  0.16802574  0.83511912  0.33218989  1
  Cu+  Cu35  1  0.16552753  0.83036395  0.66524440  1
  Cu+  Cu36  1  0.50041788  0.17237405  0.00514465  1
  Cu+  Cu37  1  0.49844966  0.16192176  0.33364871  1
  Cu+  Cu38  1  0.49953680  0.16514806  0.66615051  1
  Cu+  Cu39  1  0.50145093  0.49934889  -0.00337985  1
  Cu+  Cu40  1  0.49794629  0.49738392  0.33451258  1
  Cu+  Cu41  1  0.50310676  0.50066727  0.66157873  1
  Cu+  Cu42  1  0.49814032  0.83640927  0.00189176  1
  Cu+  Cu43  1  0.49928522  0.83315166  0.33518028  1
  Cu+  Cu44  1  0.50144306  0.83292040  0.66779616  1
  Cu+  Cu45  1  0.83539051  0.16540526  -0.00384265  1
  Cu+  Cu46  1  0.83326151  0.16278046  0.33004541  1
  Cu+  Cu47  1  0.83864598  0.17137868  0.66778153  1
  Cu+  Cu48  1  0.83451611  0.50020148  0.00639640  1
  Cu+  Cu49  1  0.83590513  0.49761275  0.33626696  1
  Cu+  Cu50  1  0.83144092  0.50261208  0.67180565  1
  Cu+  Cu51  1  0.82688456  0.83184132  -0.00170379  1
  Cu+  Cu52  1  0.83724847  0.83572998  0.33232251  1
  Cu+  Cu53  1  0.83325732  0.83585911  0.66395240  1
  Cu+  Cu54  1  0.17036951  -0.00014387  0.16610380  1
  Cu+  Cu55  1  0.16898515  0.00194928  0.50006947  1
  Cu+  Cu56  1  0.16194974  -0.00359332  0.83302679  1
  Cu+  Cu57  1  0.16674540  0.33598398  0.16994915  1
  Cu+  Cu58  1  0.16071587  0.33370957  0.49730523  1
  Cu+  Cu59  1  0.17132820  0.33071777  0.83395371  1
  Cu+  Cu60  1  0.16749367  0.66558984  0.16698030  1
  Cu+  Cu61  1  0.15957083  0.67018688  0.49644507  1
  Cu+  Cu62  1  0.16663468  0.66480300  0.83125246  1
  Cu+  Cu63  1  0.49790994  0.00093143  0.17215862  1
  Cu+  Cu64  1  0.49979221  -0.00204728  0.50082402  1
  Cu+  Cu65  1  0.49974373  0.00006603  0.83467096  1
  Cu+  Cu66  1  0.50302800  0.33315240  0.16420650  1
  Cu+  Cu67  1  0.49816653  0.33046155  0.49675706  1
  Cu+  Cu68  1  0.50235777  0.33784679  0.83250504  1
  Cu+  Cu69  1  0.49846928  0.66965093  0.16701428  1
  Cu+  Cu70  1  0.49992403  0.66460895  0.49980098  1
  Cu+  Cu71  1  0.49981721  0.66817528  0.83185412  1
  Cu+  Cu72  1  0.83458471  -0.00300775  0.17075371  1
  Cu+  Cu73  1  0.83360795  -0.00340433  0.49653347  1
  Cu+  Cu74  1  0.83161705  0.00371501  0.83321915  1
  Cu+  Cu75  1  0.83996650  0.33474165  0.16216010  1
  Cu+  Cu76  1  0.83795773  0.33411379  0.50473163  1
  Cu+  Cu77  1  0.83375271  0.32793465  0.83339853  1
  Cu+  Cu78  1  0.82908840  0.66371200  0.16433041  1
  Cu+  Cu79  1  0.83568603  0.66918513  0.49924736  1
  Cu+  Cu80  1  0.82727258  0.67031847  0.83534079  1
  Cu+  Cu81  1  0.00248751  0.16472376  0.16352916  1
  Cu+  Cu82  1  0.00038564  0.17231205  0.50427707  1
  Cu+  Cu83  1  -0.00008713  0.15869366  0.83541454  1
  Cu+  Cu84  1  0.00179473  0.49510194  0.16282836  1
  Cu+  Cu85  1  0.00248939  0.49958660  0.50100209  1
  Cu+  Cu86  1  0.00187300  0.50171127  0.83350570  1
  Cu+  Cu87  1  -0.00328599  0.83386971  0.16866836  1
  Cu+  Cu88  1  0.00068755  0.83090490  0.50004191  1
  Cu+  Cu89  1  -0.00373122  0.83500568  0.83371230  1
  Cu+  Cu90  1  0.33783754  0.16625584  0.16728145  1
  Cu+  Cu91  1  0.33370243  0.16826911  0.49980094  1
  Cu+  Cu92  1  0.33142374  0.16946914  0.83462733  1
  Cu+  Cu93  1  0.33219819  0.50170032  0.16823608  1
  Cu+  Cu94  1  0.33148544  0.49905348  0.49657421  1
  Cu+  Cu95  1  0.33635049  0.49716851  0.83294588  1
  Cu+  Cu96  1  0.33349907  0.83356896  0.16596138  1
  Cu+  Cu97  1  0.33318659  0.83361482  0.49904975  1
  Cu+  Cu98  1  0.33206247  0.83320080  0.83278949  1
  Cu+  Cu99  1  0.67210364  0.16273430  0.16986957  1
  Cu+  Cu100  1  0.66346639  0.16510478  0.50007788  1
  Cu+  Cu101  1  0.66714608  0.16676372  0.83337064  1
  Cu+  Cu102  1  0.66564438  0.50052025  0.16979516  1
  Cu+  Cu103  1  0.66451818  0.50006468  0.50399051  1
  Cu+  Cu104  1  0.66816536  0.50241167  0.82868293  1
  Cu+  Cu105  1  0.66032611  0.83424995  0.16639864  1
  Cu+  Cu106  1  0.66889488  0.83162736  0.49732754  1
  Cu+  Cu107  1  0.66400739  0.83303549  0.83617371  1
  Cu+  Cu108  1  0.26320378  0.59498667  0.25900992  1
  Cu+  Cu109  1  0.92167241  0.07012504  0.73835459  1
  Cu+  Cu110  1  0.26071050  0.25913052  0.92395071  1
  Cu+  Cu111  1  0.08168929  0.40921905  0.59860814  1
  Cu+  Cu112  1  0.40367765  0.07266819  0.26206074  1
  Cu+  Cu113  1  0.93049114  0.92573564  0.26097816  1
  Cu+  Cu114  1  0.07465453  0.07027134  0.58223810  1
  Cu+  Cu115  1  0.07956976  0.06761727  0.93074625  1
  Cu+  Cu116  1  0.73395521  0.74053401  0.92633006  1
  Cu+  Cu117  1  0.74170181  0.59894872  0.74024655  1
  Cu+  Cu118  1  0.07216777  0.74328436  0.59367347  1
  Cu+  Cu119  1  0.92736594  0.25870860  0.92432688  1
  Cu+  Cu120  1  0.73641529  0.25374866  0.73832595  1
  Cu+  Cu121  1  0.92635353  0.26432683  0.59604074  1
  Cu+  Cu122  1  0.07385195  0.59298923  0.74301543  1
  Cu+  Cu123  1  0.74191042  0.06923723  0.26253410  1
  Cu+  Cu124  1  0.06878251  0.25280092  0.40471081  1
  Cu+  Cu125  1  0.40937903  0.26241701  0.07981686  1
  Cu+  Cu126  1  0.73565800  0.07806971  0.92558297  1
  Cu+  Cu127  1  0.58987509  0.59595670  0.58811083  1
  Cu+  Cu128  1  0.92933445  0.40658224  0.07113080  1
  Cu+  Cu129  1  0.73379802  0.58927625  0.08092915  1
  Cu+  Cu130  1  0.07796450  0.59799077  0.07217158  1
  Cu+  Cu131  1  0.07316125  0.40775042  0.25739204  1
  Cu+  Cu132  1  0.07114525  0.59855887  0.40233378  1
  Te2-  Te133  1  0.25394564  0.25577300  0.08097692  1
  Te2-  Te134  1  0.25479078  0.25695999  0.41764320  1
  Te2-  Te135  1  0.25041548  0.24899739  0.74373569  1
  Te2-  Te136  1  0.25357029  0.58573453  0.07914822  1
  Te2-  Te137  1  0.25051206  0.58830006  0.41448578  1
  Te2-  Te138  1  0.25445904  0.58299643  0.74872409  1
  Te2-  Te139  1  0.25263762  0.91769530  0.08063590  1
  Te2-  Te140  1  0.25187642  0.92006994  0.41444706  1
  Te2-  Te141  1  0.24887210  0.91661573  0.74744713  1
  Te2-  Te142  1  0.59305673  0.25079522  0.08455849  1
  Te2-  Te143  1  0.58438819  0.24936877  0.41280496  1
  Te2-  Te144  1  0.58445803  0.25283596  0.74649825  1
  Te2-  Te145  1  0.58266237  0.58662523  0.08123124  1
  Te2-  Te146  1  0.58552106  0.58304549  0.41334742  1
  Te2-  Te147  1  0.58755918  0.59085135  0.74381451  1
  Te2-  Te148  1  0.58214092  0.92211049  0.08288333  1
  Te2-  Te149  1  0.58559573  0.91781855  0.41531916  1
  Te2-  Te150  1  0.58559595  0.91962538  0.74904029  1
  Te2-  Te151  1  0.92469727  0.25106178  0.07725490  1
  Te2-  Te152  1  0.91668819  0.25271341  0.41070627  1
  Te2-  Te153  1  0.92765365  0.25456014  0.74980368  1
  Te2-  Te154  1  0.92279063  0.58849233  0.08110656  1
  Te2-  Te155  1  0.91963386  0.58615329  0.41500137  1
  Te2-  Te156  1  0.91772782  0.58967342  0.75110585  1
  Te2-  Te157  1  0.91515295  0.91624583  0.07885992  1
  Te2-  Te158  1  0.92420634  0.92043027  0.41409625  1
  Te2-  Te159  1  0.91750767  0.91898122  0.74660471  1
  Te2-  Te160  1  0.25088021  0.08343361  0.25458102  1
  Te2-  Te161  1  0.25439596  0.08259859  0.58515139  1
  Te2-  Te162  1  0.25161458  0.07786834  0.91544276  1
  Te2-  Te163  1  0.25256467  0.41624550  0.25463057  1
  Te2-  Te164  1  0.24699880  0.41739461  0.58310225  1
  Te2-  Te165  1  0.25415681  0.41513647  0.92157180  1
  Te2-  Te166  1  0.25373912  0.74818789  0.25316098  1
  Te2-  Te167  1  0.25103925  0.74630780  0.58182649  1
  Te2-  Te168  1  0.25118141  0.74638454  0.91683425  1
  Te2-  Te169  1  0.58899362  0.07819761  0.25568542  1
  Te2-  Te170  1  0.58477652  0.07927755  0.58624065  1
  Te2-  Te171  1  0.58319703  0.08294115  0.92181336  1
  Te2-  Te172  1  0.58457385  0.41448297  0.25244560  1
  Te2-  Te173  1  0.58437390  0.40901682  0.58322226  1
  Te2-  Te174  1  0.58929148  0.41660733  0.91687753  1
  Te2-  Te175  1  0.58373873  0.74797474  0.25359963  1
  Te2-  Te176  1  0.58822940  0.74819596  0.58595456  1
  Te2-  Te177  1  0.58234321  0.74690534  0.92249657  1
  Te2-  Te178  1  0.92511840  0.08021630  0.25252153  1
  Te2-  Te179  1  0.92014953  0.07587227  0.58495777  1
  Te2-  Te180  1  0.92182467  0.07393389  0.92354537  1
  Te2-  Te181  1  0.92026472  0.41173299  0.25560100  1
  Te2-  Te182  1  0.92251441  0.41695658  0.59366781  1
  Te2-  Te183  1  0.92022077  0.41471376  0.91868133  1
  Te2-  Te184  1  0.91534191  0.74425505  0.24985373  1
  Te2-  Te185  1  0.91887489  0.74698418  0.58813762  1
  Te2-  Te186  1  0.91655858  0.74912818  0.91872796  1
  Te2-  Te187  1  0.07813703  0.25226129  0.25177555  1
  Te2-  Te188  1  0.07993886  0.25760515  0.59386345  1
  Te2-  Te189  1  0.07971475  0.25374041  0.91776243  1
  Te2-  Te190  1  0.07343162  0.58896764  0.24927474  1
  Te2-  Te191  1  0.07667718  0.58990962  0.58923155  1
  Te2-  Te192  1  0.08026037  0.58789162  0.92043245  1
  Te2-  Te193  1  0.08271990  0.92138713  0.25208037  1
  Te2-  Te194  1  0.08027496  0.91878135  0.58537602  1
  Te2-  Te195  1  0.07810381  0.91531417  0.92226100  1
  Te2-  Te196  1  0.41763873  0.25377340  0.25303462  1
  Te2-  Te197  1  0.41506376  0.25150732  0.58582923  1
  Te2-  Te198  1  0.41465216  0.25813226  0.92045600  1
  Te2-  Te199  1  0.41553559  0.58753264  0.25441871  1
  Te2-  Te200  1  0.41150119  0.58358106  0.58346102  1
  Te2-  Te201  1  0.41593244  0.58516975  0.91672869  1
  Te2-  Te202  1  0.41073881  0.91811789  0.25631015  1
  Te2-  Te203  1  0.41464074  0.91691685  0.58637871  1
  Te2-  Te204  1  0.41267034  0.91915932  0.91852839  1
  Te2-  Te205  1  0.75457251  0.25410033  0.24859018  1
  Te2-  Te206  1  0.74585319  0.25216033  0.58461911  1
  Te2-  Te207  1  0.74660725  0.25228735  0.92147036  1
  Te2-  Te208  1  0.74954747  0.58283962  0.25593894  1
  Te2-  Te209  1  0.74835349  0.58971003  0.58632697  1
  Te2-  Te210  1  0.74486762  0.58500274  0.92414325  1
  Te2-  Te211  1  0.74322571  0.91646034  0.25396812  1
  Te2-  Te212  1  0.74766376  0.91878147  0.58281455  1
  Te2-  Te213  1  0.74398897  0.92322900  0.91922590  1
  Te2-  Te214  1  0.08454413  0.07979150  0.08102641  1
  Te2-  Te215  1  0.08133131  0.08477196  0.41562486  1
  Te2-  Te216  1  0.07798182  0.07474290  0.74302243  1
  Te2-  Te217  1  0.08327695  0.40829107  0.07603807  1
  Te2-  Te218  1  0.07637720  0.41244128  0.40897963  1
  Te2-  Te219  1  0.08070011  0.41022485  0.75186333  1
  Te2-  Te220  1  0.07915336  0.74969400  0.08134770  1
  Te2-  Te221  1  0.07713292  0.75064006  0.40619174  1
  Te2-  Te222  1  0.07508016  0.74660463  0.74761506  1
  Te2-  Te223  1  0.41681310  0.08002453  0.08060679  1
  Te2-  Te224  1  0.41128122  0.07763276  0.41613715  1
  Te2-  Te225  1  0.41415369  0.08341967  0.75105519  1
  Te2-  Te226  1  0.41318085  0.41644839  0.07986801  1
  Te2-  Te227  1  0.41163239  0.41190472  0.41317072  1
  Te2-  Te228  1  0.41766983  0.41597600  0.74465807  1
  Te2-  Te229  1  0.41365618  0.74870506  0.08079877  1
  Te2-  Te230  1  0.41439966  0.74624551  0.41542501  1
  Te2-  Te231  1  0.41412210  0.74885837  0.74738230  1
  Te2-  Te232  1  0.75076989  0.07801082  0.07984998  1
  Te2-  Te233  1  0.74801341  0.08108403  0.41612638  1
  Te2-  Te234  1  0.74837801  0.08333397  0.74295776  1
  Te2-  Te235  1  0.74645275  0.41377051  0.08385967  1
  Te2-  Te236  1  0.75033361  0.41526462  0.42029401  1
  Te2-  Te237  1  0.74875711  0.41069100  0.74806889  1
  Te2-  Te238  1  0.74012621  0.74644332  0.08106730  1
  Te2-  Te239  1  0.75132732  0.74843587  0.41208007  1
  Te2-  Te240  1  0.74475439  0.75204254  0.74394492  1
