# generated using pymatgen
data_Ti27(Cu53Te54)2
_symmetry_space_group_name_H-M   'P 1'
_cell_length_a   17.89894442
_cell_length_b   17.90472641
_cell_length_c   17.89640442
_cell_angle_alpha   90.00975230
_cell_angle_beta   90.01757218
_cell_angle_gamma   90.00564497
_symmetry_Int_Tables_number   1
_chemical_formula_structural   Ti27(Cu53Te54)2
_chemical_formula_sum   'Ti27 Cu106 Te108'
_cell_volume   5735.36240339
_cell_formula_units_Z   1
loop_
 _symmetry_equiv_pos_site_id
 _symmetry_equiv_pos_as_xyz
  1  'x, y, z'
loop_
 _atom_type_symbol
 _atom_type_oxidation_number
  Ti4+  4.0
  Cu+  1.0
  Te2-  -2.0
loop_
 _atom_site_type_symbol
 _atom_site_label
 _atom_site_symmetry_multiplicity
 _atom_site_fract_x
 _atom_site_fract_y
 _atom_site_fract_z
 _atom_site_occupancy
  Ti4+  Ti0  1  0.16357199  0.16936768  0.16724121  1
  Ti4+  Ti1  1  0.16911920  0.16754166  0.50149844  1
  Ti4+  Ti2  1  0.16823953  0.16563873  0.83143868  1
  Ti4+  Ti3  1  0.16659558  0.50245761  0.16409657  1
  Ti4+  Ti4  1  0.16694695  0.49953259  0.49942198  1
  Ti4+  Ti5  1  0.16608781  0.49849025  0.83204262  1
  Ti4+  Ti6  1  0.16703105  0.83642322  0.16347574  1
  Ti4+  Ti7  1  0.16614389  0.83170248  0.49850767  1
  Ti4+  Ti8  1  0.16586370  0.83373378  0.83415746  1
  Ti4+  Ti9  1  0.49781579  0.16535229  0.16855224  1
  Ti4+  Ti10  1  0.49931023  0.16967668  0.50112758  1
  Ti4+  Ti11  1  0.49823990  0.16616570  0.83275065  1
  Ti4+  Ti12  1  0.50104670  0.49628766  0.16767141  1
  Ti4+  Ti13  1  0.50100862  0.50295288  0.49452724  1
  Ti4+  Ti14  1  0.49900005  0.50106908  0.83210733  1
  Ti4+  Ti15  1  0.50021753  0.83290859  0.17022567  1
  Ti4+  Ti16  1  0.49826069  0.83582615  0.50337996  1
  Ti4+  Ti17  1  0.50007202  0.83345490  0.83567109  1
  Ti4+  Ti18  1  0.83491969  0.16541205  0.17170526  1
  Ti4+  Ti19  1  0.83778669  0.16333759  0.50057351  1
  Ti4+  Ti20  1  0.83343310  0.16703955  0.83579122  1
  Ti4+  Ti21  1  0.83185257  0.49972162  0.16397095  1
  Ti4+  Ti22  1  0.83285014  0.49506019  0.49975842  1
  Ti4+  Ti23  1  0.83203271  0.50131930  0.83353447  1
  Ti4+  Ti24  1  0.83235207  0.83327973  0.16525649  1
  Ti4+  Ti25  1  0.83398458  0.83193974  0.50023887  1
  Ti4+  Ti26  1  0.83450767  0.83385835  0.83360100  1
  Cu+  Cu27  1  0.16632495  0.16548431  -0.00083882  1
  Cu+  Cu28  1  0.16280760  0.16893375  0.33422261  1
  Cu+  Cu29  1  0.17517707  0.16772880  0.66572399  1
  Cu+  Cu30  1  0.16988610  0.50320344  -0.00205112  1
  Cu+  Cu31  1  0.16521264  0.50110733  0.33111161  1
  Cu+  Cu32  1  0.16235357  0.49456326  0.66489682  1
  Cu+  Cu33  1  0.16900654  0.83961008  -0.00432403  1
  Cu+  Cu34  1  0.16619422  0.83314669  0.33231833  1
  Cu+  Cu35  1  0.16493051  0.83139708  0.66456438  1
  Cu+  Cu36  1  0.49715034  0.16511285  -0.00292179  1
  Cu+  Cu37  1  0.49560433  0.17065585  0.33494734  1
  Cu+  Cu38  1  0.49695196  0.16495313  0.66542408  1
  Cu+  Cu39  1  0.49948756  0.49856101  0.00205404  1
  Cu+  Cu40  1  0.50887660  0.49951641  0.32987470  1
  Cu+  Cu41  1  0.49990235  0.50310416  0.66359772  1
  Cu+  Cu42  1  0.50020523  0.83165501  0.00530277  1
  Cu+  Cu43  1  0.50049596  0.83358663  0.33874116  1
  Cu+  Cu44  1  0.49892158  0.83571260  0.67054363  1
  Cu+  Cu45  1  0.83421512  0.17286054  0.00730747  1
  Cu+  Cu46  1  0.83689529  0.16661129  0.33346479  1
  Cu+  Cu47  1  0.83906361  0.16155685  0.67051079  1
  Cu+  Cu48  1  0.82849857  0.49697444  -0.00519380  1
  Cu+  Cu49  1  0.82944596  0.49910433  0.33250948  1
  Cu+  Cu50  1  0.83399486  0.49792256  0.66849483  1
  Cu+  Cu51  1  0.83374211  0.82944303  -0.00065106  1
  Cu+  Cu52  1  0.83425785  0.83217375  0.33223159  1
  Cu+  Cu53  1  0.83447275  0.83309738  0.66500565  1
  Cu+  Cu54  1  0.16402968  0.00502612  0.16527772  1
  Cu+  Cu55  1  0.16690188  -0.00652067  0.49904939  1
  Cu+  Cu56  1  0.16561697  0.00142573  0.83437605  1
  Cu+  Cu57  1  0.16414845  0.33936711  0.16280350  1
  Cu+  Cu58  1  0.16793276  0.33537474  0.50580261  1
  Cu+  Cu59  1  0.16568098  0.33166149  0.83474561  1
  Cu+  Cu60  1  0.16715604  0.66833994  0.16362038  1
  Cu+  Cu61  1  0.16532733  0.66611470  0.49917595  1
  Cu+  Cu62  1  0.16902674  0.66383132  0.83324022  1
  Cu+  Cu63  1  0.49780385  -0.00208962  0.16971914  1
  Cu+  Cu64  1  0.49760207  0.00239158  0.50448544  1
  Cu+  Cu65  1  0.50057541  -0.00029145  0.83418816  1
  Cu+  Cu66  1  0.49841157  0.32983979  0.16592337  1
  Cu+  Cu67  1  0.49644011  0.33640108  0.49318232  1
  Cu+  Cu68  1  0.49656995  0.33392036  0.82976253  1
  Cu+  Cu69  1  0.50125967  0.66308795  0.17044766  1
  Cu+  Cu70  1  0.50367223  0.67413123  0.49751760  1
  Cu+  Cu71  1  0.49931385  0.66668637  0.83362053  1
  Cu+  Cu72  1  0.83102734  -0.00048973  0.17092856  1
  Cu+  Cu73  1  0.83637875  -0.00393954  0.49938082  1
  Cu+  Cu74  1  0.83731663  0.00095883  0.83347309  1
  Cu+  Cu75  1  0.83192628  0.33199807  0.16880072  1
  Cu+  Cu76  1  0.83484530  0.32421556  0.49927845  1
  Cu+  Cu77  1  0.83246283  0.33525128  0.83649686  1
  Cu+  Cu78  1  0.83809340  0.67120104  0.15893631  1
  Cu+  Cu79  1  0.83358221  0.66231851  0.50177186  1
  Cu+  Cu80  1  0.83079428  0.66842756  0.83569175  1
  Cu+  Cu81  1  0.00063810  0.16664062  0.17893947  1
  Cu+  Cu82  1  0.00248752  0.16437793  0.50144498  1
  Cu+  Cu83  1  -0.00193234  0.15995525  0.83097648  1
  Cu+  Cu84  1  0.00263172  0.50384603  0.16235512  1
  Cu+  Cu85  1  0.00103938  0.49281287  0.50273242  1
  Cu+  Cu86  1  -0.00197676  0.50169269  0.83002765  1
  Cu+  Cu87  1  -0.00193270  0.83437094  0.16090417  1
  Cu+  Cu88  1  0.00048868  0.82949779  0.49918783  1
  Cu+  Cu89  1  0.00194214  0.83452003  0.83159057  1
  Cu+  Cu90  1  0.32820458  0.16639501  0.16494396  1
  Cu+  Cu91  1  0.33485148  0.17353752  0.50530328  1
  Cu+  Cu92  1  0.33092711  0.16748535  0.82986172  1
  Cu+  Cu93  1  0.33408621  0.49840562  0.16509276  1
  Cu+  Cu94  1  0.33467563  0.50428788  0.49616767  1
  Cu+  Cu95  1  0.33186774  0.50186830  0.83323573  1
  Cu+  Cu96  1  0.33811513  0.83719092  0.16483980  1
  Cu+  Cu97  1  0.32999934  0.83548681  0.50258407  1
  Cu+  Cu98  1  0.33361708  0.83387623  0.83587927  1
  Cu+  Cu99  1  0.66485144  0.16279242  0.16971291  1
  Cu+  Cu100  1  0.67043771  0.16615423  0.50102126  1
  Cu+  Cu101  1  0.66440587  0.16833659  0.83402041  1
  Cu+  Cu102  1  0.66767270  0.49686093  0.17155308  1
  Cu+  Cu103  1  0.66739080  0.49927836  0.49208233  1
  Cu+  Cu104  1  0.66421889  0.50115730  0.83316952  1
  Cu+  Cu105  1  0.66532773  0.83380303  0.16781187  1
  Cu+  Cu106  1  0.66568915  0.83497724  0.50257638  1
  Cu+  Cu107  1  0.66820344  0.83237923  0.83696584  1
  Cu+  Cu108  1  0.59140826  0.40394554  0.40790800  1
  Cu+  Cu109  1  0.40187034  0.26254738  0.40439626  1
  Cu+  Cu110  1  0.93243234  0.74189563  0.06823954  1
  Cu+  Cu111  1  0.41583618  0.92713812  0.07338340  1
  Cu+  Cu112  1  0.40658228  0.07195460  0.59137882  1
  Cu+  Cu113  1  0.74231650  0.40593589  0.25829074  1
  Cu+  Cu114  1  0.73762770  0.74168765  0.92752790  1
  Cu+  Cu115  1  0.74232880  0.24901350  0.41003218  1
  Cu+  Cu116  1  0.73492579  0.06781969  0.26007275  1
  Cu+  Cu117  1  0.92997144  0.26754387  0.26113082  1
  Cu+  Cu118  1  0.92663540  0.06861963  0.73809293  1
  Cu+  Cu119  1  0.74904644  0.59549206  0.40753097  1
  Cu+  Cu120  1  0.26232553  0.92783123  0.91831381  1
  Cu+  Cu121  1  0.26428869  0.26824387  0.59412452  1
  Cu+  Cu122  1  0.73305549  0.40457015  0.91583045  1
  Cu+  Cu123  1  0.59552439  0.75183351  0.40957233  1
  Cu+  Cu124  1  0.25890635  0.26059518  0.92742994  1
  Cu+  Cu125  1  0.26127345  0.59465163  0.92609319  1
  Cu+  Cu126  1  0.06927264  0.40250453  0.59603271  1
  Cu+  Cu127  1  0.06922764  0.07595872  0.92806590  1
  Cu+  Cu128  1  0.59739561  0.59597298  0.25144537  1
  Cu+  Cu129  1  0.07792145  0.07056577  0.26575107  1
  Cu+  Cu130  1  0.73551904  0.25396767  0.07755640  1
  Cu+  Cu131  1  0.25803696  0.06846708  0.73909237  1
  Cu+  Cu132  1  0.25717838  0.07784299  0.07628270  1
  Te2-  Te133  1  0.25046197  0.25668589  0.08052120  1
  Te2-  Te134  1  0.25024303  0.25543739  0.41342853  1
  Te2-  Te135  1  0.25442640  0.25797888  0.74657869  1
  Te2-  Te136  1  0.25613870  0.58828119  0.08067490  1
  Te2-  Te137  1  0.24994613  0.58625527  0.41271496  1
  Te2-  Te138  1  0.24979953  0.58247310  0.74361882  1
  Te2-  Te139  1  0.25584339  0.92479034  0.07817635  1
  Te2-  Te140  1  0.25245145  0.91740719  0.41222823  1
  Te2-  Te141  1  0.25258364  0.91664402  0.74532212  1
  Te2-  Te142  1  0.58294228  0.24896649  0.08058231  1
  Te2-  Te143  1  0.58895763  0.25208774  0.41183314  1
  Te2-  Te144  1  0.58270440  0.25112090  0.74705704  1
  Te2-  Te145  1  0.58735138  0.58258347  0.08290058  1
  Te2-  Te146  1  0.59100718  0.59339213  0.40861067  1
  Te2-  Te147  1  0.58445373  0.58652836  0.74745989  1
  Te2-  Te148  1  0.58584873  0.91989833  0.08375236  1
  Te2-  Te149  1  0.58421091  0.92321304  0.41837278  1
  Te2-  Te150  1  0.58678830  0.91791814  0.75162248  1
  Te2-  Te151  1  0.92395713  0.25264393  0.08835548  1
  Te2-  Te152  1  0.92626477  0.25139505  0.41438698  1
  Te2-  Te153  1  0.91837104  0.25366423  0.75164709  1
  Te2-  Te154  1  0.91714307  0.58313841  0.07554351  1
  Te2-  Te155  1  0.91995295  0.57972219  0.41600259  1
  Te2-  Te156  1  0.91595254  0.58767748  0.74742485  1
  Te2-  Te157  1  0.91466088  0.92183055  0.08003162  1
  Te2-  Te158  1  0.92011038  0.91513340  0.41366725  1
  Te2-  Te159  1  0.92134751  0.91815718  0.74555803  1
  Te2-  Te160  1  0.24950520  0.08320339  0.25468848  1
  Te2-  Te161  1  0.25403573  0.07465761  0.58421516  1
  Te2-  Te162  1  0.25840040  0.07908988  0.92152383  1
  Te2-  Te163  1  0.25063171  0.41609315  0.25004060  1
  Te2-  Te164  1  0.25929849  0.41837788  0.58661696  1
  Te2-  Te165  1  0.25359576  0.41288264  0.91924932  1
  Te2-  Te166  1  0.25239835  0.75182523  0.24740706  1
  Te2-  Te167  1  0.25087484  0.74624698  0.58522682  1
  Te2-  Te168  1  0.25306862  0.74716135  0.92033330  1
  Te2-  Te169  1  0.58061169  0.07980212  0.25725042  1
  Te2-  Te170  1  0.58728143  0.08388268  0.58538343  1
  Te2-  Te171  1  0.58446019  0.08168197  0.91827621  1
  Te2-  Te172  1  0.58833055  0.40384289  0.25327375  1
  Te2-  Te173  1  0.58385974  0.41678746  0.58064858  1
  Te2-  Te174  1  0.58189335  0.41239735  0.91887662  1
  Te2-  Te175  1  0.58908765  0.74736447  0.25622180  1
  Te2-  Te176  1  0.58501892  0.75097922  0.58995607  1
  Te2-  Te177  1  0.58360300  0.74640817  0.92202842  1
  Te2-  Te178  1  0.92074358  0.07441000  0.25757345  1
  Te2-  Te179  1  0.92337074  0.07584826  0.58510308  1
  Te2-  Te180  1  0.91629056  0.08169651  0.92663483  1
  Te2-  Te181  1  0.92156743  0.41939398  0.25116432  1
  Te2-  Te182  1  0.91605494  0.40837131  0.58766020  1
  Te2-  Te183  1  0.92087494  0.41618411  0.91819299  1
  Te2-  Te184  1  0.92012955  0.74871927  0.25028302  1
  Te2-  Te185  1  0.91816471  0.74511349  0.58483380  1
  Te2-  Te186  1  0.92405396  0.74631691  0.91687063  1
  Te2-  Te187  1  0.08296877  0.26118326  0.25471304  1
  Te2-  Te188  1  0.08041773  0.24969637  0.58918400  1
  Te2-  Te189  1  0.07849491  0.24866597  0.91640952  1
  Te2-  Te190  1  0.08171051  0.58833058  0.24961870  1
  Te2-  Te191  1  0.08004383  0.58443468  0.58452207  1
  Te2-  Te192  1  0.08014298  0.58443610  0.91651487  1
  Te2-  Te193  1  0.07956010  0.91791662  0.25022283  1
  Te2-  Te194  1  0.07965237  0.91641278  0.58484271  1
  Te2-  Te195  1  0.07691241  0.92180355  0.91963994  1
  Te2-  Te196  1  0.40918820  0.25271379  0.25042947  1
  Te2-  Te197  1  0.41748695  0.26075920  0.59000637  1
  Te2-  Te198  1  0.41262986  0.25350199  0.91826799  1
  Te2-  Te199  1  0.41462804  0.58119197  0.25326820  1
  Te2-  Te200  1  0.41801480  0.58910956  0.57968357  1
  Te2-  Te201  1  0.41504156  0.58623725  0.92112077  1
  Te2-  Te202  1  0.41502908  0.91778094  0.25799578  1
  Te2-  Te203  1  0.41073440  0.91931789  0.59040151  1
  Te2-  Te204  1  0.41451592  0.92229579  0.92226495  1
  Te2-  Te205  1  0.74242815  0.25255682  0.25698465  1
  Te2-  Te206  1  0.75264565  0.24649415  0.58983977  1
  Te2-  Te207  1  0.74410079  0.25307861  0.92246856  1
  Te2-  Te208  1  0.75038811  0.59276941  0.25021931  1
  Te2-  Te209  1  0.74682517  0.57943469  0.58529196  1
  Te2-  Te210  1  0.74349475  0.58785658  0.92006818  1
  Te2-  Te211  1  0.74511519  0.91670533  0.25510476  1
  Te2-  Te212  1  0.74913208  0.91862577  0.58525866  1
  Te2-  Te213  1  0.75067357  0.92028393  0.91943062  1
  Te2-  Te214  1  0.07441725  0.08347394  0.08139298  1
  Te2-  Te215  1  0.08283527  0.07903468  0.41741006  1
  Te2-  Te216  1  0.08308642  0.07972054  0.74154487  1
  Te2-  Te217  1  0.08119040  0.41843799  0.07607182  1
  Te2-  Te218  1  0.08333049  0.41244553  0.41337526  1
  Te2-  Te219  1  0.07732362  0.41040560  0.74902132  1
  Te2-  Te220  1  0.08425297  0.74999107  0.07582460  1
  Te2-  Te221  1  0.08132740  0.74631618  0.41222458  1
  Te2-  Te222  1  0.08286395  0.74650680  0.74895965  1
  Te2-  Te223  1  0.41257793  0.08038219  0.07980272  1
  Te2-  Te224  1  0.41212689  0.08361283  0.41676565  1
  Te2-  Te225  1  0.41210046  0.07663552  0.74670860  1
  Te2-  Te226  1  0.41480945  0.41220076  0.08144726  1
  Te2-  Te227  1  0.41173253  0.41895467  0.40738709  1
  Te2-  Te228  1  0.41376614  0.41821538  0.74544315  1
  Te2-  Te229  1  0.41658532  0.74373459  0.08548683  1
  Te2-  Te230  1  0.41101027  0.75104598  0.41712260  1
  Te2-  Te231  1  0.41385860  0.74912656  0.75047982  1
  Te2-  Te232  1  0.74869120  0.08110343  0.08281710  1
  Te2-  Te233  1  0.74921685  0.07720481  0.41481809  1
  Te2-  Te234  1  0.74727222  0.08175823  0.75151109  1
  Te2-  Te235  1  0.74386194  0.41164765  0.07852345  1
  Te2-  Te236  1  0.74658621  0.40427561  0.41095177  1
  Te2-  Te237  1  0.74610062  0.41402100  0.74842271  1
  Te2-  Te238  1  0.74214701  0.74718263  0.08082966  1
  Te2-  Te239  1  0.74736272  0.74638161  0.41225189  1
  Te2-  Te240  1  0.74873449  0.74970950  0.74715057  1
