# generated using pymatgen
data_Ti27(Cu53Te54)2
_symmetry_space_group_name_H-M   'P 1'
_cell_length_a   17.88123235
_cell_length_b   17.87818516
_cell_length_c   17.88020803
_cell_angle_alpha   90.02228287
_cell_angle_beta   89.97919782
_cell_angle_gamma   90.01560046
_symmetry_Int_Tables_number   1
_chemical_formula_structural   Ti27(Cu53Te54)2
_chemical_formula_sum   'Ti27 Cu106 Te108'
_cell_volume   5716.01509746
_cell_formula_units_Z   1
loop_
 _symmetry_equiv_pos_site_id
 _symmetry_equiv_pos_as_xyz
  1  'x, y, z'
loop_
 _atom_type_symbol
 _atom_type_oxidation_number
  Ti4+  4.0
  Cu+  1.0
  Te2-  -2.0
loop_
 _atom_site_type_symbol
 _atom_site_label
 _atom_site_symmetry_multiplicity
 _atom_site_fract_x
 _atom_site_fract_y
 _atom_site_fract_z
 _atom_site_occupancy
  Ti4+  Ti0  1  0.16961683  0.16641812  0.16728772  1
  Ti4+  Ti1  1  0.16562505  0.16497236  0.49920659  1
  Ti4+  Ti2  1  0.16469511  0.16875989  0.83526850  1
  Ti4+  Ti3  1  0.16470291  0.50150374  0.16671756  1
  Ti4+  Ti4  1  0.16750515  0.50033766  0.50077190  1
  Ti4+  Ti5  1  0.16543117  0.50016007  0.83448007  1
  Ti4+  Ti6  1  0.16506737  0.83515822  0.16446704  1
  Ti4+  Ti7  1  0.16544016  0.83593600  0.50175621  1
  Ti4+  Ti8  1  0.16736915  0.83260671  0.83426721  1
  Ti4+  Ti9  1  0.50397093  0.16887397  0.17070889  1
  Ti4+  Ti10  1  0.50652760  0.16634493  0.50126251  1
  Ti4+  Ti11  1  0.49898059  0.16754743  0.82623590  1
  Ti4+  Ti12  1  0.50336825  0.49851796  0.17260059  1
  Ti4+  Ti13  1  0.49790657  0.49996437  0.49902253  1
  Ti4+  Ti14  1  0.50073147  0.49862743  0.83491514  1
  Ti4+  Ti15  1  0.49609221  0.83074708  0.16393941  1
  Ti4+  Ti16  1  0.49891034  0.83630634  0.49865856  1
  Ti4+  Ti17  1  0.50219812  0.83639510  0.83666792  1
  Ti4+  Ti18  1  0.83494475  0.16831770  0.16648310  1
  Ti4+  Ti19  1  0.83607645  0.16440244  0.50001398  1
  Ti4+  Ti20  1  0.83092135  0.16602161  0.83427079  1
  Ti4+  Ti21  1  0.83402442  0.50207754  0.16637257  1
  Ti4+  Ti22  1  0.83562019  0.50137069  0.49957939  1
  Ti4+  Ti23  1  0.82987283  0.49900142  0.83125457  1
  Ti4+  Ti24  1  0.83290908  0.83154751  0.16595548  1
  Ti4+  Ti25  1  0.83245361  0.83257246  0.49653926  1
  Ti4+  Ti26  1  0.83370609  0.83184048  0.83363175  1
  Cu+  Cu27  1  0.16505369  0.16976190  0.00351697  1
  Cu+  Cu28  1  0.17044671  0.16483205  0.33083991  1
  Cu+  Cu29  1  0.16487422  0.16502827  0.66840559  1
  Cu+  Cu30  1  0.16108598  0.50258848  -0.00050403  1
  Cu+  Cu31  1  0.16770241  0.50046400  0.33703164  1
  Cu+  Cu32  1  0.16729466  0.50004169  0.66744706  1
  Cu+  Cu33  1  0.17019246  0.83206328  -0.00027254  1
  Cu+  Cu34  1  0.16333982  0.83737819  0.33379058  1
  Cu+  Cu35  1  0.16836223  0.83236849  0.66942101  1
  Cu+  Cu36  1  0.50028538  0.16905014  -0.00609610  1
  Cu+  Cu37  1  0.50967722  0.17255229  0.33680459  1
  Cu+  Cu38  1  0.50288865  0.15495144  0.66412900  1
  Cu+  Cu39  1  0.50358103  0.49667929  0.00720912  1
  Cu+  Cu40  1  0.49764964  0.49380923  0.33419912  1
  Cu+  Cu41  1  0.49846788  0.50046157  0.66593696  1
  Cu+  Cu42  1  0.49141671  0.83316738  -0.00035492  1
  Cu+  Cu43  1  0.49886905  0.83509080  0.32906597  1
  Cu+  Cu44  1  0.50040498  0.83931958  0.66785320  1
  Cu+  Cu45  1  0.83457729  0.16960762  0.00001343  1
  Cu+  Cu46  1  0.83780055  0.16419399  0.33398599  1
  Cu+  Cu47  1  0.83062042  0.16696236  0.66807102  1
  Cu+  Cu48  1  0.82980164  0.49932872  -0.00246360  1
  Cu+  Cu49  1  0.83416306  0.50741355  0.33422547  1
  Cu+  Cu50  1  0.83366727  0.50031551  0.66335212  1
  Cu+  Cu51  1  0.83228542  0.82937378  -0.00004328  1
  Cu+  Cu52  1  0.83006967  0.83092359  0.33080357  1
  Cu+  Cu53  1  0.83550083  0.83227850  0.66549978  1
  Cu+  Cu54  1  0.16808500  0.00306796  0.16896565  1
  Cu+  Cu55  1  0.15796823  0.00067839  0.49981262  1
  Cu+  Cu56  1  0.16728977  0.00119463  0.83715503  1
  Cu+  Cu57  1  0.16691975  0.33080359  0.16449075  1
  Cu+  Cu58  1  0.16840113  0.33403687  0.50087297  1
  Cu+  Cu59  1  0.16468789  0.33661776  0.83425485  1
  Cu+  Cu60  1  0.16331809  0.66890225  0.16329120  1
  Cu+  Cu61  1  0.16683776  0.66793917  0.50181111  1
  Cu+  Cu62  1  0.16723737  0.66437975  0.83261721  1
  Cu+  Cu63  1  0.50041056  -0.00498925  0.16820270  1
  Cu+  Cu64  1  0.50282731  0.00515543  0.50039449  1
  Cu+  Cu65  1  0.49855990  -0.00086306  0.82236076  1
  Cu+  Cu66  1  0.50779080  0.33598051  0.17666001  1
  Cu+  Cu67  1  0.49834940  0.32952160  0.49804282  1
  Cu+  Cu68  1  0.50565405  0.33386492  0.83038316  1
  Cu+  Cu69  1  0.49581302  0.66056392  0.16563242  1
  Cu+  Cu70  1  0.49783362  0.66968647  0.49895757  1
  Cu+  Cu71  1  0.50314760  0.66732566  0.83967324  1
  Cu+  Cu72  1  0.83139242  0.00197723  0.16408774  1
  Cu+  Cu73  1  0.83734354  -0.00472039  0.50289968  1
  Cu+  Cu74  1  0.83390223  -0.00194787  0.83405107  1
  Cu+  Cu75  1  0.83554864  0.33748753  0.16947948  1
  Cu+  Cu76  1  0.83792215  0.33387313  0.49923621  1
  Cu+  Cu77  1  0.82781929  0.33033414  0.83263050  1
  Cu+  Cu78  1  0.83827104  0.66457067  0.17004884  1
  Cu+  Cu79  1  0.82980788  0.66618900  0.49446661  1
  Cu+  Cu80  1  0.83015653  0.66670131  0.83446318  1
  Cu+  Cu81  1  0.00311775  0.16845513  0.16517215  1
  Cu+  Cu82  1  0.00195459  0.16202887  0.50267618  1
  Cu+  Cu83  1  -0.00427849  0.16779171  0.83786664  1
  Cu+  Cu84  1  -0.00102804  0.50829403  0.16608343  1
  Cu+  Cu85  1  0.00361714  0.49903606  0.50107762  1
  Cu+  Cu86  1  -0.00257249  0.49958533  0.83221009  1
  Cu+  Cu87  1  -0.00241451  0.83391963  0.16565848  1
  Cu+  Cu88  1  -0.00161366  0.83971686  0.49846151  1
  Cu+  Cu89  1  0.00195233  0.83170007  0.83408250  1
  Cu+  Cu90  1  0.33407016  0.16587281  0.16683532  1
  Cu+  Cu91  1  0.33402210  0.16780903  0.50156170  1
  Cu+  Cu92  1  0.32918514  0.16903195  0.83202489  1
  Cu+  Cu93  1  0.33538339  0.50023986  0.17104160  1
  Cu+  Cu94  1  0.33041179  0.50112169  0.50125357  1
  Cu+  Cu95  1  0.33090805  0.49825025  0.83736990  1
  Cu+  Cu96  1  0.32806622  0.83128495  0.15892645  1
  Cu+  Cu97  1  0.33064830  0.83618769  0.49923642  1
  Cu+  Cu98  1  0.33601843  0.83691154  0.83667117  1
  Cu+  Cu99  1  0.67035850  0.17186133  0.17128077  1
  Cu+  Cu100  1  0.67126403  0.16172444  0.49807020  1
  Cu+  Cu101  1  0.66572454  0.17032062  0.82566109  1
  Cu+  Cu102  1  0.66759754  0.49626789  0.16674970  1
  Cu+  Cu103  1  0.66878424  0.50150885  0.49629463  1
  Cu+  Cu104  1  0.66285955  0.49663546  0.82897362  1
  Cu+  Cu105  1  0.66401993  0.82932250  0.16481939  1
  Cu+  Cu106  1  0.66529037  0.83272810  0.49891464  1
  Cu+  Cu107  1  0.67247516  0.82928557  0.83801434  1
  Cu+  Cu108  1  0.40380437  0.07665852  0.58713406  1
  Cu+  Cu109  1  0.06963737  0.92838982  0.40083877  1
  Cu+  Cu110  1  0.93124060  0.59474424  0.26571577  1
  Cu+  Cu111  1  0.74409578  0.73537933  0.93123859  1
  Cu+  Cu112  1  0.40183392  0.40755198  0.25928817  1
  Cu+  Cu113  1  0.59485374  0.91793824  0.25540868  1
  Cu+  Cu114  1  0.40279336  0.93226781  0.07836630  1
  Cu+  Cu115  1  0.07460598  0.26060147  0.07609496  1
  Cu+  Cu116  1  0.92502892  0.92171353  0.59818327  1
  Cu+  Cu117  1  0.40537633  0.73743016  0.91682351  1
  Cu+  Cu118  1  0.06842720  0.59796559  0.06905908  1
  Cu+  Cu119  1  0.07230510  0.07695800  0.60062016  1
  Cu+  Cu120  1  0.74211815  0.26059098  0.73370080  1
  Cu+  Cu121  1  0.58933612  0.41150273  0.73196936  1
  Cu+  Cu122  1  0.59826834  0.07370318  0.40554893  1
  Cu+  Cu123  1  0.59076561  0.25568054  0.92317878  1
  Cu+  Cu124  1  0.40241673  0.92019698  0.73766717  1
  Cu+  Cu125  1  0.25311398  0.73643926  0.07238425  1
  Cu+  Cu126  1  0.59901453  0.06774137  0.74246576  1
  Cu+  Cu127  1  0.59633896  0.40553684  0.07741333  1
  Cu+  Cu128  1  0.40517853  0.25321949  0.40992231  1
  Cu+  Cu129  1  0.73424120  0.59392495  0.40411617  1
  Cu+  Cu130  1  0.60427115  0.26387989  0.26623695  1
  Cu+  Cu131  1  0.40830624  0.58016937  0.07516016  1
  Cu+  Cu132  1  0.92401435  0.26254883  0.92379246  1
  Te2-  Te133  1  0.25652496  0.25277855  0.08086846  1
  Te2-  Te134  1  0.25179910  0.25223023  0.41411932  1
  Te2-  Te135  1  0.24778963  0.25379609  0.74781067  1
  Te2-  Te136  1  0.25443539  0.58420446  0.07911555  1
  Te2-  Te137  1  0.25231342  0.58806862  0.41535186  1
  Te2-  Te138  1  0.25363126  0.58364560  0.74919256  1
  Te2-  Te139  1  0.24995151  0.92532396  0.07768830  1
  Te2-  Te140  1  0.24970355  0.92248271  0.41556488  1
  Te2-  Te141  1  0.25164250  0.92134856  0.74871286  1
  Te2-  Te142  1  0.58804451  0.25319289  0.08005240  1
  Te2-  Te143  1  0.59657585  0.25730204  0.41843549  1
  Te2-  Te144  1  0.58576395  0.25510069  0.73515508  1
  Te2-  Te145  1  0.58920630  0.58572941  0.08410320  1
  Te2-  Te146  1  0.58118124  0.58650304  0.41223004  1
  Te2-  Te147  1  0.58266902  0.58778543  0.74841404  1
  Te2-  Te148  1  0.58397627  0.91535445  0.07847330  1
  Te2-  Te149  1  0.58770279  0.92075409  0.41126819  1
  Te2-  Te150  1  0.59421909  0.91537667  0.74834659  1
  Te2-  Te151  1  0.92030567  0.25824637  0.08077628  1
  Te2-  Te152  1  0.92239222  0.24911226  0.41657900  1
  Te2-  Te153  1  0.91804034  0.25206008  0.74761032  1
  Te2-  Te154  1  0.91600232  0.58776942  0.07398518  1
  Te2-  Te155  1  0.92576003  0.58874193  0.41693989  1
  Te2-  Te156  1  0.91509247  0.58538426  0.74848899  1
  Te2-  Te157  1  0.91562639  0.91760043  0.08008901  1
  Te2-  Te158  1  0.91648492  0.92038544  0.40677624  1
  Te2-  Te159  1  0.92159719  0.91891484  0.74991154  1
  Te2-  Te160  1  0.25653351  0.07972399  0.25280506  1
  Te2-  Te161  1  0.25081612  0.07854276  0.58557156  1
  Te2-  Te162  1  0.25084691  0.08537418  0.92097973  1
  Te2-  Te163  1  0.24868232  0.41367503  0.25247440  1
  Te2-  Te164  1  0.25250702  0.41413851  0.58712121  1
  Te2-  Te165  1  0.24923042  0.41466205  0.92289386  1
  Te2-  Te166  1  0.24835337  0.75044223  0.25221632  1
  Te2-  Te167  1  0.25226831  0.75029253  0.58556889  1
  Te2-  Te168  1  0.25444439  0.74313041  0.91881027  1
  Te2-  Te169  1  0.58983576  0.07772922  0.25259330  1
  Te2-  Te170  1  0.59615733  0.07542857  0.58691918  1
  Te2-  Te171  1  0.58431840  0.08110323  0.91163001  1
  Te2-  Te172  1  0.59554946  0.41537032  0.26232678  1
  Te2-  Te173  1  0.58631647  0.41427770  0.58061961  1
  Te2-  Te174  1  0.58933702  0.41212978  0.92320117  1
  Te2-  Te175  1  0.58075044  0.74410658  0.24959613  1
  Te2-  Te176  1  0.58193312  0.75109310  0.58517115  1
  Te2-  Te177  1  0.58740115  0.74882799  0.92490479  1
  Te2-  Te178  1  0.92058513  0.08133518  0.24830622  1
  Te2-  Te179  1  0.91915004  0.07888908  0.59156809  1
  Te2-  Te180  1  0.91621657  0.07925318  0.92076331  1
  Te2-  Te181  1  0.92077062  0.42005563  0.25341272  1
  Te2-  Te182  1  0.92078177  0.41515739  0.58537736  1
  Te2-  Te183  1  0.91599314  0.41433945  0.91764589  1
  Te2-  Te184  1  0.92156734  0.74844427  0.25439055  1
  Te2-  Te185  1  0.91849918  0.74671287  0.58043555  1
  Te2-  Te186  1  0.92004586  0.74583007  0.91835240  1
  Te2-  Te187  1  0.08310527  0.25206355  0.25406204  1
  Te2-  Te188  1  0.08213781  0.25190173  0.58490241  1
  Te2-  Te189  1  0.07850368  0.25736237  0.92146258  1
  Te2-  Te190  1  0.08418266  0.58920392  0.25615909  1
  Te2-  Te191  1  0.08239311  0.58595337  0.58669550  1
  Te2-  Te192  1  0.07627149  0.58850141  0.91699988  1
  Te2-  Te193  1  0.07798987  0.92198168  0.24864838  1
  Te2-  Te194  1  0.07874379  0.92082143  0.59463382  1
  Te2-  Te195  1  0.08240383  0.91709484  0.92017420  1
  Te2-  Te196  1  0.41270992  0.25276412  0.25541707  1
  Te2-  Te197  1  0.41813994  0.24962956  0.58979075  1
  Te2-  Te198  1  0.41429354  0.25399105  0.91298218  1
  Te2-  Te199  1  0.41435584  0.58540895  0.25852042  1
  Te2-  Te200  1  0.41441397  0.58585563  0.58437755  1
  Te2-  Te201  1  0.41363377  0.58263754  0.92285497  1
  Te2-  Te202  1  0.40759074  0.91573322  0.24858629  1
  Te2-  Te203  1  0.41129107  0.92337592  0.58476304  1
  Te2-  Te204  1  0.41455502  0.92815399  0.92024810  1
  Te2-  Te205  1  0.75439804  0.25553331  0.25766301  1
  Te2-  Te206  1  0.74874027  0.25308379  0.58153036  1
  Te2-  Te207  1  0.74273922  0.25207377  0.92175397  1
  Te2-  Te208  1  0.74377132  0.58784161  0.25043866  1
  Te2-  Te209  1  0.74766087  0.58658018  0.58489336  1
  Te2-  Te210  1  0.74199238  0.58262093  0.91773736  1
  Te2-  Te211  1  0.74680803  0.91905953  0.25007626  1
  Te2-  Te212  1  0.74681514  0.91633918  0.58490394  1
  Te2-  Te213  1  0.74974569  0.91960990  0.92088323  1
  Te2-  Te214  1  0.08220848  0.08007454  0.08171625  1
  Te2-  Te215  1  0.07863257  0.08237099  0.40802177  1
  Te2-  Te216  1  0.07734266  0.08036386  0.75328838  1
  Te2-  Te217  1  0.07767462  0.41571646  0.08254651  1
  Te2-  Te218  1  0.08230152  0.41324246  0.41498402  1
  Te2-  Te219  1  0.07995636  0.41606270  0.74772090  1
  Te2-  Te220  1  0.07648210  0.75030115  0.07682421  1
  Te2-  Te221  1  0.08084444  0.74969809  0.41691105  1
  Te2-  Te222  1  0.08266450  0.74696845  0.74887941  1
  Te2-  Te223  1  0.41959516  0.08508400  0.08129812  1
  Te2-  Te224  1  0.41737766  0.08473765  0.41181474  1
  Te2-  Te225  1  0.40498917  0.08014429  0.74431642  1
  Te2-  Te226  1  0.41594534  0.40991171  0.08701263  1
  Te2-  Te227  1  0.40829898  0.41098340  0.41531611  1
  Te2-  Te228  1  0.41367682  0.41491171  0.75001722  1
  Te2-  Te229  1  0.40878560  0.73849354  0.07627683  1
  Te2-  Te230  1  0.41334939  0.75240078  0.41351399  1
  Te2-  Te231  1  0.41795632  0.74875840  0.75029132  1
  Te2-  Te232  1  0.74688106  0.08587547  0.08137152  1
  Te2-  Te233  1  0.75347697  0.07579107  0.41285341  1
  Te2-  Te234  1  0.74912881  0.07574000  0.74631505  1
  Te2-  Te235  1  0.74960703  0.41206568  0.08035210  1
  Te2-  Te236  1  0.75247124  0.41434832  0.41274548  1
  Te2-  Te237  1  0.74516566  0.41295546  0.74097239  1
  Te2-  Te238  1  0.74713447  0.74199355  0.08368084  1
  Te2-  Te239  1  0.74276800  0.74789342  0.41039366  1
  Te2-  Te240  1  0.74875894  0.74755359  0.74466547  1
