# generated using pymatgen
data_Ti27(Cu53Te54)2
_symmetry_space_group_name_H-M   'P 1'
_cell_length_a   17.88011091
_cell_length_b   17.88294863
_cell_length_c   17.88203006
_cell_angle_alpha   89.97215051
_cell_angle_beta   89.95338295
_cell_angle_gamma   90.01562140
_symmetry_Int_Tables_number   1
_chemical_formula_structural   Ti27(Cu53Te54)2
_chemical_formula_sum   'Ti27 Cu106 Te108'
_cell_volume   5717.76032545
_cell_formula_units_Z   1
loop_
 _symmetry_equiv_pos_site_id
 _symmetry_equiv_pos_as_xyz
  1  'x, y, z'
loop_
 _atom_type_symbol
 _atom_type_oxidation_number
  Ti4+  4.0
  Cu+  1.0
  Te2-  -2.0
loop_
 _atom_site_type_symbol
 _atom_site_label
 _atom_site_symmetry_multiplicity
 _atom_site_fract_x
 _atom_site_fract_y
 _atom_site_fract_z
 _atom_site_occupancy
  Ti4+  Ti0  1  0.16715333  0.16576477  0.16654345  1
  Ti4+  Ti1  1  0.16609600  0.16759680  0.49896729  1
  Ti4+  Ti2  1  0.16832649  0.16870489  0.83575581  1
  Ti4+  Ti3  1  0.16721698  0.50126184  0.16513364  1
  Ti4+  Ti4  1  0.16621436  0.49918625  0.49673837  1
  Ti4+  Ti5  1  0.16823731  0.49967264  0.83459222  1
  Ti4+  Ti6  1  0.16613104  0.83488409  0.16603047  1
  Ti4+  Ti7  1  0.16665879  0.82902906  0.50195567  1
  Ti4+  Ti8  1  0.16599555  0.83808876  0.83106548  1
  Ti4+  Ti9  1  0.50242021  0.16613137  0.16894852  1
  Ti4+  Ti10  1  0.50287385  0.16660186  0.49970316  1
  Ti4+  Ti11  1  0.49908389  0.16696183  0.83545817  1
  Ti4+  Ti12  1  0.50092869  0.50127666  0.16667052  1
  Ti4+  Ti13  1  0.49645027  0.49865272  0.50027395  1
  Ti4+  Ti14  1  0.49911611  0.49795067  0.83248385  1
  Ti4+  Ti15  1  0.49837225  0.83108270  0.16361988  1
  Ti4+  Ti16  1  0.49507707  0.83714556  0.49820437  1
  Ti4+  Ti17  1  0.49762883  0.83546638  0.82915837  1
  Ti4+  Ti18  1  0.83279757  0.17115224  0.16699451  1
  Ti4+  Ti19  1  0.83573964  0.16407549  0.50000405  1
  Ti4+  Ti20  1  0.83285594  0.16569449  0.83543324  1
  Ti4+  Ti21  1  0.83470545  0.49792516  0.16700634  1
  Ti4+  Ti22  1  0.83106195  0.50097829  0.50248123  1
  Ti4+  Ti23  1  0.83777334  0.49862403  0.83289916  1
  Ti4+  Ti24  1  0.83353813  0.83256112  0.16730978  1
  Ti4+  Ti25  1  0.83213998  0.83191830  0.50356057  1
  Ti4+  Ti26  1  0.83245264  0.82943757  0.83472838  1
  Cu+  Cu27  1  0.16898167  0.17090082  0.00087374  1
  Cu+  Cu28  1  0.16637566  0.16529639  0.33325102  1
  Cu+  Cu29  1  0.16431133  0.16633568  0.66747572  1
  Cu+  Cu30  1  0.16658160  0.50216164  0.00150355  1
  Cu+  Cu31  1  0.16296916  0.49669355  0.32571637  1
  Cu+  Cu32  1  0.16726143  0.49678651  0.66667660  1
  Cu+  Cu33  1  0.16632437  0.83798953  -0.00184211  1
  Cu+  Cu34  1  0.16538618  0.83123796  0.33424233  1
  Cu+  Cu35  1  0.17516944  0.83296289  0.66641924  1
  Cu+  Cu36  1  0.49953393  0.16294426  0.00151774  1
  Cu+  Cu37  1  0.50624616  0.16840648  0.33496379  1
  Cu+  Cu38  1  0.50230855  0.16700233  0.66802245  1
  Cu+  Cu39  1  0.49953971  0.50138672  -0.00021659  1
  Cu+  Cu40  1  0.49761350  0.50145409  0.33542198  1
  Cu+  Cu41  1  0.49916460  0.49657661  0.66659932  1
  Cu+  Cu42  1  0.49989370  0.83163464  -0.00264896  1
  Cu+  Cu43  1  0.50131180  0.83476719  0.32444498  1
  Cu+  Cu44  1  0.49047633  0.84141995  0.66386434  1
  Cu+  Cu45  1  0.83574203  0.17055421  0.00158737  1
  Cu+  Cu46  1  0.82981303  0.17118232  0.33716958  1
  Cu+  Cu47  1  0.83358128  0.16249561  0.66582717  1
  Cu+  Cu48  1  0.83910771  0.49944791  -0.00019123  1
  Cu+  Cu49  1  0.83680679  0.49612824  0.33630975  1
  Cu+  Cu50  1  0.83314608  0.50571630  0.66665679  1
  Cu+  Cu51  1  0.83338746  0.83067573  0.00093922  1
  Cu+  Cu52  1  0.83128121  0.83198349  0.33726238  1
  Cu+  Cu53  1  0.82991367  0.83123498  0.67145724  1
  Cu+  Cu54  1  0.16475580  0.00015908  0.16679592  1
  Cu+  Cu55  1  0.16468923  0.00003783  0.50074191  1
  Cu+  Cu56  1  0.16698792  0.00280861  0.83948063  1
  Cu+  Cu57  1  0.16667161  0.33428033  0.16623226  1
  Cu+  Cu58  1  0.16661317  0.33155950  0.49939667  1
  Cu+  Cu59  1  0.17323924  0.33534624  0.83505317  1
  Cu+  Cu60  1  0.16520006  0.66856270  0.16427659  1
  Cu+  Cu61  1  0.16828841  0.66549168  0.49518068  1
  Cu+  Cu62  1  0.16478913  0.66973229  0.83057375  1
  Cu+  Cu63  1  0.50253174  -0.00448907  0.16818331  1
  Cu+  Cu64  1  0.50839284  0.00416417  0.49827054  1
  Cu+  Cu65  1  0.49504708  0.00269293  0.82944495  1
  Cu+  Cu66  1  0.50301540  0.33510962  0.17137673  1
  Cu+  Cu67  1  0.49465948  0.33238723  0.49756190  1
  Cu+  Cu68  1  0.49989785  0.33257088  0.83598623  1
  Cu+  Cu69  1  0.49677936  0.66539106  0.16071590  1
  Cu+  Cu70  1  0.49079057  0.66531280  0.49841654  1
  Cu+  Cu71  1  0.50056245  0.66524115  0.83239171  1
  Cu+  Cu72  1  0.83311988  0.00397364  0.16591446  1
  Cu+  Cu73  1  0.83572481  -0.00225298  0.50319214  1
  Cu+  Cu74  1  0.83139731  -0.00245020  0.83654866  1
  Cu+  Cu75  1  0.82917893  0.33300219  0.16127781  1
  Cu+  Cu76  1  0.83397269  0.33397288  0.49931060  1
  Cu+  Cu77  1  0.83678479  0.33084544  0.83549454  1
  Cu+  Cu78  1  0.83545816  0.66652111  0.16890814  1
  Cu+  Cu79  1  0.83112148  0.66711742  0.50715651  1
  Cu+  Cu80  1  0.83679090  0.66139892  0.83325006  1
  Cu+  Cu81  1  -0.00171679  0.16364846  0.16421734  1
  Cu+  Cu82  1  0.00236805  0.16548195  0.50198027  1
  Cu+  Cu83  1  -0.00045130  0.16840742  0.83764268  1
  Cu+  Cu84  1  0.00366092  0.49638500  0.16929560  1
  Cu+  Cu85  1  -0.00376642  0.49999494  0.49938426  1
  Cu+  Cu86  1  0.00303399  0.50125288  0.83747009  1
  Cu+  Cu87  1  0.00051300  0.83490148  0.16848215  1
  Cu+  Cu88  1  0.00090061  0.83084301  0.50382568  1
  Cu+  Cu89  1  0.00018613  0.83076698  0.83296424  1
  Cu+  Cu90  1  0.33442564  0.16350429  0.16902016  1
  Cu+  Cu91  1  0.33527002  0.16750861  0.49704824  1
  Cu+  Cu92  1  0.33215553  0.17178646  0.83785925  1
  Cu+  Cu93  1  0.33439265  0.50255205  0.16227628  1
  Cu+  Cu94  1  0.33411588  0.50381608  0.49564676  1
  Cu+  Cu95  1  0.33228881  0.49543928  0.83009465  1
  Cu+  Cu96  1  0.33328871  0.83136443  0.16333493  1
  Cu+  Cu97  1  0.33039544  0.82734924  0.50583164  1
  Cu+  Cu98  1  0.33040517  0.84072371  0.82684285  1
  Cu+  Cu99  1  0.66681086  0.17586596  0.16959757  1
  Cu+  Cu100  1  0.67125613  0.16258577  0.49505849  1
  Cu+  Cu101  1  0.66288973  0.16283986  0.83546858  1
  Cu+  Cu102  1  0.66895040  0.50026643  0.16760774  1
  Cu+  Cu103  1  0.66033637  0.49816059  0.50315625  1
  Cu+  Cu104  1  0.66813702  0.49763935  0.83084819  1
  Cu+  Cu105  1  0.66665827  0.83040207  0.16558668  1
  Cu+  Cu106  1  0.66396432  0.83533051  0.50233663  1
  Cu+  Cu107  1  0.66879941  0.83389877  0.82799809  1
  Cu+  Cu108  1  0.25434339  0.93245395  0.58633930  1
  Cu+  Cu109  1  0.59258126  0.26771715  0.26215022  1
  Cu+  Cu110  1  0.73494087  0.25896956  0.06746158  1
  Cu+  Cu111  1  0.41118617  0.73556606  0.59519673  1
  Cu+  Cu112  1  0.92652373  0.40515442  0.41054232  1
  Cu+  Cu113  1  0.26375694  0.26535879  0.93269390  1
  Cu+  Cu114  1  0.40725919  0.59517808  0.40217487  1
  Cu+  Cu115  1  0.26078998  0.92692874  0.93025019  1
  Cu+  Cu116  1  0.74573746  0.92940250  0.74337875  1
  Cu+  Cu117  1  0.73628965  0.58974191  0.74211825  1
  Cu+  Cu118  1  0.07445451  0.40093239  0.25435994  1
  Cu+  Cu119  1  0.40582883  0.59278766  0.06627478  1
  Cu+  Cu120  1  0.93043839  0.59533055  0.59090653  1
  Cu+  Cu121  1  0.92567469  0.07177325  0.07397341  1
  Cu+  Cu122  1  0.25975830  0.40379227  0.73393352  1
  Cu+  Cu123  1  0.59936381  0.07249623  0.40354221  1
  Cu+  Cu124  1  0.59811918  0.92253806  0.24981560  1
  Cu+  Cu125  1  0.59218272  0.92635509  0.59289903  1
  Cu+  Cu126  1  0.25925639  0.73734449  0.74736884  1
  Cu+  Cu127  1  0.40305894  0.93698228  0.73753074  1
  Cu+  Cu128  1  0.40340516  0.25696339  0.40586087  1
  Cu+  Cu129  1  0.92880793  0.59468854  0.93194381  1
  Cu+  Cu130  1  0.25681673  0.74238887  0.40109978  1
  Cu+  Cu131  1  0.74248778  0.26495448  0.41428314  1
  Cu+  Cu132  1  0.92961977  0.26013871  0.92776509  1
  Te2-  Te133  1  0.25617971  0.25375723  0.08521264  1
  Te2-  Te134  1  0.25133534  0.25370285  0.41078297  1
  Te2-  Te135  1  0.25358575  0.25173551  0.74432703  1
  Te2-  Te136  1  0.25194627  0.58991202  0.07834065  1
  Te2-  Te137  1  0.25101631  0.58430095  0.40602146  1
  Te2-  Te138  1  0.25300447  0.58502723  0.74647258  1
  Te2-  Te139  1  0.25391017  0.92200098  0.08173229  1
  Te2-  Te140  1  0.25221139  0.91608053  0.41695028  1
  Te2-  Te141  1  0.25146019  0.93172842  0.74247312  1
  Te2-  Te142  1  0.58257259  0.25492034  0.07843652  1
  Te2-  Te143  1  0.59075150  0.25886368  0.41502104  1
  Te2-  Te144  1  0.58561332  0.25189108  0.75062790  1
  Te2-  Te145  1  0.58823466  0.58492584  0.08081980  1
  Te2-  Te146  1  0.58341879  0.58709264  0.41733614  1
  Te2-  Te147  1  0.58360517  0.58431110  0.74538614  1
  Te2-  Te148  1  0.58587084  0.91638806  0.07811711  1
  Te2-  Te149  1  0.58774621  0.91768559  0.40886045  1
  Te2-  Te150  1  0.58640249  0.92314726  0.74482747  1
  Te2-  Te151  1  0.92376942  0.25729524  0.08189516  1
  Te2-  Te152  1  0.92370993  0.25112345  0.41466152  1
  Te2-  Te153  1  0.91776400  0.24863301  0.74684725  1
  Te2-  Te154  1  0.92305257  0.58485409  0.08515577  1
  Te2-  Te155  1  0.91546740  0.58937219  0.41629421  1
  Te2-  Te156  1  0.92686933  0.58557069  0.74623094  1
  Te2-  Te157  1  0.91923328  0.91877896  0.08056872  1
  Te2-  Te158  1  0.91908676  0.91508993  0.41849765  1
  Te2-  Te159  1  0.91808853  0.91725930  0.75019616  1
  Te2-  Te160  1  0.25074754  0.08006050  0.25233140  1
  Te2-  Te161  1  0.25378482  0.08471421  0.58547281  1
  Te2-  Te162  1  0.25534881  0.08218122  0.92333643  1
  Te2-  Te163  1  0.25557238  0.41524827  0.24882985  1
  Te2-  Te164  1  0.25416147  0.41432289  0.58071197  1
  Te2-  Te165  1  0.25537680  0.41710789  0.92538212  1
  Te2-  Te166  1  0.25277551  0.74656396  0.24948324  1
  Te2-  Te167  1  0.25423763  0.73606426  0.59048501  1
  Te2-  Te168  1  0.25237784  0.75166145  0.91552320  1
  Te2-  Te169  1  0.59241136  0.07818766  0.25200643  1
  Te2-  Te170  1  0.59080893  0.08365606  0.58905086  1
  Te2-  Te171  1  0.58221430  0.07734768  0.91926208  1
  Te2-  Te172  1  0.58796953  0.41914777  0.25667738  1
  Te2-  Te173  1  0.58092992  0.41044792  0.58489270  1
  Te2-  Te174  1  0.58597575  0.41580487  0.91878101  1
  Te2-  Te175  1  0.58376995  0.74281376  0.24860128  1
  Te2-  Te176  1  0.57681419  0.74904901  0.58483459  1
  Te2-  Te177  1  0.58442329  0.75063102  0.91275478  1
  Te2-  Te178  1  0.91562061  0.08521654  0.25514628  1
  Te2-  Te179  1  0.92108723  0.07955639  0.58622611  1
  Te2-  Te180  1  0.91865140  0.07781596  0.92065039  1
  Te2-  Te181  1  0.91958727  0.40793267  0.25292496  1
  Te2-  Te182  1  0.91659157  0.41377968  0.58825132  1
  Te2-  Te183  1  0.92385447  0.41214402  0.92075425  1
  Te2-  Te184  1  0.91871047  0.74965650  0.25407146  1
  Te2-  Te185  1  0.91952588  0.74835313  0.59152739  1
  Te2-  Te186  1  0.92133096  0.74598024  0.92079577  1
  Te2-  Te187  1  0.07899408  0.24931588  0.25218939  1
  Te2-  Te188  1  0.08147267  0.25279044  0.58594218  1
  Te2-  Te189  1  0.08268900  0.25687320  0.92091195  1
  Te2-  Te190  1  0.08070467  0.58890161  0.25026046  1
  Te2-  Te191  1  0.08348130  0.58441797  0.58456677  1
  Te2-  Te192  1  0.08406362  0.58970710  0.92059385  1
  Te2-  Te193  1  0.08218571  0.91886783  0.25396597  1
  Te2-  Te194  1  0.08268506  0.91593132  0.58814269  1
  Te2-  Te195  1  0.07732463  0.91970018  0.91747388  1
  Te2-  Te196  1  0.41403150  0.25206482  0.25341636  1
  Te2-  Te197  1  0.41578006  0.24985147  0.58632315  1
  Te2-  Te198  1  0.41607493  0.25412936  0.92470434  1
  Te2-  Te199  1  0.41264687  0.58765108  0.25138446  1
  Te2-  Te200  1  0.41024671  0.58245622  0.59068536  1
  Te2-  Te201  1  0.41152675  0.58544645  0.91491142  1
  Te2-  Te202  1  0.41071789  0.91773055  0.24913828  1
  Te2-  Te203  1  0.40876333  0.93093867  0.58111936  1
  Te2-  Te204  1  0.41420251  0.92016682  0.91946678  1
  Te2-  Te205  1  0.74695656  0.26066107  0.25772033  1
  Te2-  Te206  1  0.74888799  0.24977894  0.58499057  1
  Te2-  Te207  1  0.74337321  0.25296119  0.91727498  1
  Te2-  Te208  1  0.75206153  0.58284920  0.25408137  1
  Te2-  Te209  1  0.73969071  0.58615528  0.58669311  1
  Te2-  Te210  1  0.74936776  0.58190167  0.91933021  1
  Te2-  Te211  1  0.74917489  0.92005869  0.25308509  1
  Te2-  Te212  1  0.74592963  0.92168101  0.58950556  1
  Te2-  Te213  1  0.74638957  0.91515710  0.92091496  1
  Te2-  Te214  1  0.08226596  0.08052014  0.07792109  1
  Te2-  Te215  1  0.08144415  0.08031540  0.41488402  1
  Te2-  Te216  1  0.08137865  0.08318150  0.75274026  1
  Te2-  Te217  1  0.08194396  0.41409082  0.07855105  1
  Te2-  Te218  1  0.07963396  0.41152096  0.41256089  1
  Te2-  Te219  1  0.08204019  0.41354375  0.75095878  1
  Te2-  Te220  1  0.08123821  0.75146851  0.07936020  1
  Te2-  Te221  1  0.07855552  0.74651423  0.41544548  1
  Te2-  Te222  1  0.08164542  0.75117609  0.74426740  1
  Te2-  Te223  1  0.41761708  0.07931042  0.08589300  1
  Te2-  Te224  1  0.41749734  0.08091494  0.41252220  1
  Te2-  Te225  1  0.40970027  0.08739831  0.74579933  1
  Te2-  Te226  1  0.41703522  0.41263650  0.08259533  1
  Te2-  Te227  1  0.41041836  0.41267334  0.41085609  1
  Te2-  Te228  1  0.41461761  0.40951402  0.74630322  1
  Te2-  Te229  1  0.41129169  0.74711120  0.07476073  1
  Te2-  Te230  1  0.41166264  0.75040484  0.40675522  1
  Te2-  Te231  1  0.41179447  0.74412340  0.74617368  1
  Te2-  Te232  1  0.74499198  0.08652506  0.08199583  1
  Te2-  Te233  1  0.75227304  0.07351365  0.41201624  1
  Te2-  Te234  1  0.74607926  0.08101093  0.74870191  1
  Te2-  Te235  1  0.74655005  0.41687294  0.07710189  1
  Te2-  Te236  1  0.74282341  0.41709028  0.41512497  1
  Te2-  Te237  1  0.75282292  0.41219424  0.74758235  1
  Te2-  Te238  1  0.74932420  0.74554753  0.08274688  1
  Te2-  Te239  1  0.74545012  0.74741765  0.41966608  1
  Te2-  Te240  1  0.74673030  0.74106190  0.74826972  1
