# generated using pymatgen
data_Ti27(Cu53Te54)2
_symmetry_space_group_name_H-M   'P 1'
_cell_length_a   17.87453996
_cell_length_b   17.87643751
_cell_length_c   17.87339579
_cell_angle_alpha   89.99169019
_cell_angle_beta   90.01318253
_cell_angle_gamma   90.01260622
_symmetry_Int_Tables_number   1
_chemical_formula_structural   Ti27(Cu53Te54)2
_chemical_formula_sum   'Ti27 Cu106 Te108'
_cell_volume   5711.14115723
_cell_formula_units_Z   1
loop_
 _symmetry_equiv_pos_site_id
 _symmetry_equiv_pos_as_xyz
  1  'x, y, z'
loop_
 _atom_type_symbol
 _atom_type_oxidation_number
  Ti4+  4.0
  Cu+  1.0
  Te2-  -2.0
loop_
 _atom_site_type_symbol
 _atom_site_label
 _atom_site_symmetry_multiplicity
 _atom_site_fract_x
 _atom_site_fract_y
 _atom_site_fract_z
 _atom_site_occupancy
  Ti4+  Ti0  1  0.16274423  0.16664178  0.16530410  1
  Ti4+  Ti1  1  0.16673703  0.16926150  0.49956472  1
  Ti4+  Ti2  1  0.16773707  0.16574081  0.83170221  1
  Ti4+  Ti3  1  0.17054813  0.49590594  0.16791240  1
  Ti4+  Ti4  1  0.16596142  0.49787277  0.50145330  1
  Ti4+  Ti5  1  0.16504514  0.50015715  0.83370759  1
  Ti4+  Ti6  1  0.16508418  0.83046742  0.16565095  1
  Ti4+  Ti7  1  0.16704086  0.83478744  0.49858393  1
  Ti4+  Ti8  1  0.16464766  0.83423545  0.83375432  1
  Ti4+  Ti9  1  0.49984385  0.16698461  0.16570629  1
  Ti4+  Ti10  1  0.50312539  0.16490817  0.49917190  1
  Ti4+  Ti11  1  0.50131020  0.16533025  0.83455711  1
  Ti4+  Ti12  1  0.50404074  0.50204106  0.16608490  1
  Ti4+  Ti13  1  0.50095843  0.49954014  0.50124623  1
  Ti4+  Ti14  1  0.50135717  0.49962595  0.83243528  1
  Ti4+  Ti15  1  0.49902045  0.83405367  0.16742172  1
  Ti4+  Ti16  1  0.50202567  0.83064567  0.50002644  1
  Ti4+  Ti17  1  0.49919071  0.83190656  0.83052022  1
  Ti4+  Ti18  1  0.83282550  0.16735811  0.16713692  1
  Ti4+  Ti19  1  0.83238160  0.16800821  0.50333938  1
  Ti4+  Ti20  1  0.83536700  0.16888719  0.83063436  1
  Ti4+  Ti21  1  0.83354088  0.49913757  0.16561167  1
  Ti4+  Ti22  1  0.83140671  0.49990075  0.49910524  1
  Ti4+  Ti23  1  0.83273394  0.50374162  0.83337888  1
  Ti4+  Ti24  1  0.83361054  0.83482049  0.16701949  1
  Ti4+  Ti25  1  0.83301018  0.83330807  0.50009223  1
  Ti4+  Ti26  1  0.83191016  0.83518284  0.83337745  1
  Cu+  Cu27  1  0.16518972  0.16410569  -0.00321331  1
  Cu+  Cu28  1  0.16268111  0.17223184  0.33275480  1
  Cu+  Cu29  1  0.16515403  0.17076352  0.66648878  1
  Cu+  Cu30  1  0.16538454  0.50164341  0.00286678  1
  Cu+  Cu31  1  0.17044799  0.49451778  0.33633378  1
  Cu+  Cu32  1  0.17078692  0.49791121  0.66764188  1
  Cu+  Cu33  1  0.15986008  0.83396344  -0.00013722  1
  Cu+  Cu34  1  0.16854606  0.82960435  0.33196820  1
  Cu+  Cu35  1  0.16625353  0.83742200  0.66550701  1
  Cu+  Cu36  1  0.49850425  0.16684464  0.00154682  1
  Cu+  Cu37  1  0.49946580  0.16534243  0.33272256  1
  Cu+  Cu38  1  0.50370240  0.16415489  0.66877928  1
  Cu+  Cu39  1  0.50934691  0.50233788  -0.00127875  1
  Cu+  Cu40  1  0.50417293  0.49814565  0.33505452  1
  Cu+  Cu41  1  0.49205038  0.50592549  0.67090237  1
  Cu+  Cu42  1  0.49841130  0.83487713  0.00148371  1
  Cu+  Cu43  1  0.49931761  0.83407883  0.33441807  1
  Cu+  Cu44  1  0.50452530  0.82513648  0.66395342  1
  Cu+  Cu45  1  0.83236172  0.16798012  -0.00096401  1
  Cu+  Cu46  1  0.83064198  0.16741396  0.33460795  1
  Cu+  Cu47  1  0.83920392  0.16483700  0.66815979  1
  Cu+  Cu48  1  0.83151443  0.50391408  -0.00082950  1
  Cu+  Cu49  1  0.83349347  0.50173433  0.33052911  1
  Cu+  Cu50  1  0.83145029  0.49941784  0.66550511  1
  Cu+  Cu51  1  0.83091097  0.83636212  0.00167570  1
  Cu+  Cu52  1  0.83419971  0.83441219  0.33249027  1
  Cu+  Cu53  1  0.83442388  0.83127045  0.66676546  1
  Cu+  Cu54  1  0.16174419  -0.00138060  0.16377625  1
  Cu+  Cu55  1  0.16891909  0.00284912  0.50020536  1
  Cu+  Cu56  1  0.16721108  -0.00063613  0.83404077  1
  Cu+  Cu57  1  0.17057602  0.32827241  0.17145909  1
  Cu+  Cu58  1  0.16451796  0.33336946  0.49420919  1
  Cu+  Cu59  1  0.16770758  0.33231444  0.82931935  1
  Cu+  Cu60  1  0.16757376  0.65930380  0.16384093  1
  Cu+  Cu61  1  0.16519464  0.66548220  0.50148077  1
  Cu+  Cu62  1  0.16075655  0.67142704  0.83922838  1
  Cu+  Cu63  1  0.49844726  0.00193563  0.16768223  1
  Cu+  Cu64  1  0.49925209  -0.00511467  0.49929831  1
  Cu+  Cu65  1  0.50174740  -0.00103380  0.83445608  1
  Cu+  Cu66  1  0.50155744  0.33674048  0.16429901  1
  Cu+  Cu67  1  0.50878062  0.33041783  0.49938319  1
  Cu+  Cu68  1  0.49964145  0.33089662  0.83393655  1
  Cu+  Cu69  1  0.49971751  0.66854463  0.16747936  1
  Cu+  Cu70  1  0.49856139  0.66916669  0.50144366  1
  Cu+  Cu71  1  0.50235810  0.66334044  0.82861282  1
  Cu+  Cu72  1  0.83380607  0.00095172  0.16779231  1
  Cu+  Cu73  1  0.83252273  0.00089540  0.50096752  1
  Cu+  Cu74  1  0.83268156  0.00449797  0.83321422  1
  Cu+  Cu75  1  0.83269730  0.33212919  0.16583794  1
  Cu+  Cu76  1  0.82669235  0.33672684  0.50488205  1
  Cu+  Cu77  1  0.83718240  0.33781326  0.83123980  1
  Cu+  Cu78  1  0.83427609  0.66921813  0.16723482  1
  Cu+  Cu79  1  0.83223530  0.66421762  0.50026402  1
  Cu+  Cu80  1  0.83408743  0.67056405  0.82974545  1
  Cu+  Cu81  1  -0.00463545  0.16358114  0.16614949  1
  Cu+  Cu82  1  0.00001838  0.17090901  0.49880129  1
  Cu+  Cu83  1  0.00265603  0.16775034  0.82567389  1
  Cu+  Cu84  1  0.00130546  0.49663016  0.16667133  1
  Cu+  Cu85  1  -0.00019102  0.50332423  0.50133965  1
  Cu+  Cu86  1  -0.00489513  0.50047620  0.83160411  1
  Cu+  Cu87  1  -0.00061383  0.83574218  0.16349283  1
  Cu+  Cu88  1  0.00081340  0.83413410  0.49992010  1
  Cu+  Cu89  1  -0.00150940  0.82957276  0.83354029  1
  Cu+  Cu90  1  0.33026613  0.16669284  0.16481318  1
  Cu+  Cu91  1  0.33768867  0.16494566  0.50174638  1
  Cu+  Cu92  1  0.33613711  0.16401425  0.83475012  1
  Cu+  Cu93  1  0.34131464  0.49739361  0.17165258  1
  Cu+  Cu94  1  0.32963817  0.49732076  0.50018166  1
  Cu+  Cu95  1  0.33063795  0.49733250  0.83050795  1
  Cu+  Cu96  1  0.33076889  0.83101717  0.16698452  1
  Cu+  Cu97  1  0.33375551  0.83520991  0.49788543  1
  Cu+  Cu98  1  0.33027377  0.83290655  0.83299431  1
  Cu+  Cu99  1  0.66642402  0.16803637  0.16708758  1
  Cu+  Cu100  1  0.66561075  0.17105195  0.50521797  1
  Cu+  Cu101  1  0.67186699  0.16420443  0.83616750  1
  Cu+  Cu102  1  0.66808345  0.49925993  0.16073382  1
  Cu+  Cu103  1  0.66675444  0.49323593  0.50054776  1
  Cu+  Cu104  1  0.66625921  0.50559323  0.83850270  1
  Cu+  Cu105  1  0.66893163  0.83552161  0.16751736  1
  Cu+  Cu106  1  0.66751020  0.83172220  0.50097039  1
  Cu+  Cu107  1  0.66174484  0.83585034  0.83325058  1
  Cu+  Cu108  1  0.74513996  0.07624321  0.92985670  1
  Cu+  Cu109  1  0.92327253  0.41119602  0.73579466  1
  Cu+  Cu110  1  0.93074726  0.07036166  0.74074130  1
  Cu+  Cu111  1  0.59608738  0.73544425  0.74031930  1
  Cu+  Cu112  1  0.59604630  0.40360146  0.06917025  1
  Cu+  Cu113  1  0.06477971  0.26077667  0.40130825  1
  Cu+  Cu114  1  0.92943249  0.74098202  0.73627532  1
  Cu+  Cu115  1  0.26089081  0.40582414  0.40997557  1
  Cu+  Cu116  1  0.73648857  0.40997082  0.59977148  1
  Cu+  Cu117  1  0.06776169  0.74216709  0.92957400  1
  Cu+  Cu118  1  0.07542153  0.26284832  0.73883306  1
  Cu+  Cu119  1  0.41803640  0.40706452  0.26216386  1
  Cu+  Cu120  1  0.58962974  0.25996887  0.60055908  1
  Cu+  Cu121  1  0.39918436  0.59417707  0.74961018  1
  Cu+  Cu122  1  0.59679633  0.74467376  0.40263464  1
  Cu+  Cu123  1  0.59755103  0.40308836  0.40429632  1
  Cu+  Cu124  1  0.26296919  0.40211538  0.74137450  1
  Cu+  Cu125  1  0.07006840  0.92987525  0.07159108  1
  Cu+  Cu126  1  0.59656942  0.92584089  0.58961572  1
  Cu+  Cu127  1  0.40095125  0.74460117  0.58996488  1
  Cu+  Cu128  1  0.40545616  0.92443697  0.40424005  1
  Cu+  Cu129  1  0.26268812  0.24873332  0.26086447  1
  Cu+  Cu130  1  0.59490054  0.59776130  0.92824874  1
  Cu+  Cu131  1  0.58467726  0.92756128  0.93145976  1
  Cu+  Cu132  1  0.07069355  0.58550186  0.07780418  1
  Te2-  Te133  1  0.24915466  0.25029959  0.07740781  1
  Te2-  Te134  1  0.26001139  0.25227624  0.41392514  1
  Te2-  Te135  1  0.25845415  0.24977135  0.74630249  1
  Te2-  Te136  1  0.25918355  0.57966894  0.08342580  1
  Te2-  Te137  1  0.25086329  0.58556430  0.41615181  1
  Te2-  Te138  1  0.24728669  0.59158986  0.75035421  1
  Te2-  Te139  1  0.25003429  0.91674731  0.08041075  1
  Te2-  Te140  1  0.25187083  0.92105628  0.41142610  1
  Te2-  Te141  1  0.25151697  0.91924699  0.74810000  1
  Te2-  Te142  1  0.58688402  0.25165216  0.07974663  1
  Te2-  Te143  1  0.58969610  0.24960784  0.40873005  1
  Te2-  Te144  1  0.58991624  0.25147473  0.75200077  1
  Te2-  Te145  1  0.58928463  0.59317191  0.08182832  1
  Te2-  Te146  1  0.58663423  0.58621327  0.41711610  1
  Te2-  Te147  1  0.59109053  0.58338041  0.74216401  1
  Te2-  Te148  1  0.58585134  0.92074515  0.08332448  1
  Te2-  Te149  1  0.58900863  0.91859720  0.41323870  1
  Te2-  Te150  1  0.58415891  0.92034512  0.74334564  1
  Te2-  Te151  1  0.91829523  0.25172147  0.07987653  1
  Te2-  Te152  1  0.91318305  0.25660076  0.41567198  1
  Te2-  Te153  1  0.92150449  0.25837439  0.74177659  1
  Te2-  Te154  1  0.91877558  0.58659875  0.08116806  1
  Te2-  Te155  1  0.91775071  0.58506069  0.41404578  1
  Te2-  Te156  1  0.91844495  0.58833287  0.74331809  1
  Te2-  Te157  1  0.91756424  0.92318354  0.07829806  1
  Te2-  Te158  1  0.91768057  0.91885035  0.41632520  1
  Te2-  Te159  1  0.91936435  0.91953660  0.74810036  1
  Te2-  Te160  1  0.24689796  0.08091335  0.25170520  1
  Te2-  Te161  1  0.25186097  0.08489263  0.58653996  1
  Te2-  Te162  1  0.25248454  0.08020810  0.91802332  1
  Te2-  Te163  1  0.25976541  0.40822304  0.25630394  1
  Te2-  Te164  1  0.25335200  0.40849008  0.58693728  1
  Te2-  Te165  1  0.24939748  0.41489183  0.91945318  1
  Te2-  Te166  1  0.25051972  0.74300597  0.24958279  1
  Te2-  Te167  1  0.25057753  0.74829097  0.58608426  1
  Te2-  Te168  1  0.25097362  0.75033582  0.92131620  1
  Te2-  Te169  1  0.58547536  0.08184011  0.25112401  1
  Te2-  Te170  1  0.58704212  0.07731592  0.58574470  1
  Te2-  Te171  1  0.58792718  0.08013224  0.92394921  1
  Te2-  Te172  1  0.59127778  0.41330940  0.25207129  1
  Te2-  Te173  1  0.58284808  0.41518779  0.59523771  1
  Te2-  Te174  1  0.58872617  0.41010470  0.91605981  1
  Te2-  Te175  1  0.58716270  0.74865268  0.25193176  1
  Te2-  Te176  1  0.59259727  0.73970869  0.58560632  1
  Te2-  Te177  1  0.58372525  0.74734464  0.92047790  1
  Te2-  Te178  1  0.91643819  0.08165492  0.25512466  1
  Te2-  Te179  1  0.92304741  0.08025087  0.58372543  1
  Te2-  Te180  1  0.92243063  0.08488046  0.91690993  1
  Te2-  Te181  1  0.91823185  0.41366675  0.25115516  1
  Te2-  Te182  1  0.92138015  0.41435231  0.58408993  1
  Te2-  Te183  1  0.91714470  0.41808121  0.92130992  1
  Te2-  Te184  1  0.92045002  0.74984394  0.25164196  1
  Te2-  Te185  1  0.92027151  0.74582256  0.58362250  1
  Te2-  Te186  1  0.91449554  0.74811686  0.92261652  1
  Te2-  Te187  1  0.07271422  0.25427094  0.24963569  1
  Te2-  Te188  1  0.07992253  0.25714669  0.58534690  1
  Te2-  Te189  1  0.08146269  0.25169647  0.91600972  1
  Te2-  Te190  1  0.08473510  0.57972713  0.25453134  1
  Te2-  Te191  1  0.08273317  0.58405326  0.58837748  1
  Te2-  Te192  1  0.07490413  0.58479136  0.92048600  1
  Te2-  Te193  1  0.08197467  0.91614149  0.25339976  1
  Te2-  Te194  1  0.08158869  0.92115072  0.58307612  1
  Te2-  Te195  1  0.07568619  0.92248976  0.91693508  1
  Te2-  Te196  1  0.41446655  0.25387454  0.25369281  1
  Te2-  Te197  1  0.41934776  0.25156050  0.58544960  1
  Te2-  Te198  1  0.41480494  0.25114031  0.91901649  1
  Te2-  Te199  1  0.41936846  0.58647452  0.25559787  1
  Te2-  Te200  1  0.40872683  0.58620106  0.58426838  1
  Te2-  Te201  1  0.41455291  0.58392898  0.91755090  1
  Te2-  Te202  1  0.41154756  0.91964149  0.25157156  1
  Te2-  Te203  1  0.41551832  0.91550776  0.58988855  1
  Te2-  Te204  1  0.41361236  0.91707036  0.91677010  1
  Te2-  Te205  1  0.74721421  0.25292992  0.25238494  1
  Te2-  Te206  1  0.74646865  0.25386260  0.59471821  1
  Te2-  Te207  1  0.75125195  0.25672815  0.91607562  1
  Te2-  Te208  1  0.74716008  0.58542152  0.24900293  1
  Te2-  Te209  1  0.74523252  0.58460933  0.58508188  1
  Te2-  Te210  1  0.74953122  0.59306222  0.92020020  1
  Te2-  Te211  1  0.74853285  0.92061233  0.25324971  1
  Te2-  Te212  1  0.74894115  0.91953258  0.58805130  1
  Te2-  Te213  1  0.74468218  0.92140630  0.92007295  1
  Te2-  Te214  1  0.07657340  0.08226452  0.07753348  1
  Te2-  Te215  1  0.08177496  0.08307396  0.41446999  1
  Te2-  Te216  1  0.08384254  0.07658628  0.74345622  1
  Te2-  Te217  1  0.08487052  0.40947433  0.08357706  1
  Te2-  Te218  1  0.07493214  0.41547199  0.41272693  1
  Te2-  Te219  1  0.07773864  0.41588310  0.74473723  1
  Te2-  Te220  1  0.07654329  0.74081683  0.08096581  1
  Te2-  Te221  1  0.08165387  0.74775084  0.41541704  1
  Te2-  Te222  1  0.08145264  0.74752624  0.74258969  1
  Te2-  Te223  1  0.41275687  0.08148211  0.08211620  1
  Te2-  Te224  1  0.41485389  0.07951136  0.41384877  1
  Te2-  Te225  1  0.41703406  0.07967455  0.74884669  1
  Te2-  Te226  1  0.41855093  0.41889423  0.07618445  1
  Te2-  Te227  1  0.41546881  0.40972355  0.41684825  1
  Te2-  Te228  1  0.41512262  0.40950298  0.74671410  1
  Te2-  Te229  1  0.41444511  0.74857712  0.08142988  1
  Te2-  Te230  1  0.41251135  0.74594879  0.41243935  1
  Te2-  Te231  1  0.40857285  0.74553366  0.74575482  1
  Te2-  Te232  1  0.74638393  0.08022365  0.08174998  1
  Te2-  Te233  1  0.74655780  0.08450845  0.41920421  1
  Te2-  Te234  1  0.74792762  0.08205296  0.74422204  1
  Te2-  Te235  1  0.74950265  0.41217508  0.07667179  1
  Te2-  Te236  1  0.74879761  0.41271989  0.40829596  1
  Te2-  Te237  1  0.74299729  0.41592191  0.75174708  1
  Te2-  Te238  1  0.74750930  0.74905005  0.08175302  1
  Te2-  Te239  1  0.74913315  0.74621032  0.41279505  1
  Te2-  Te240  1  0.74523940  0.74936821  0.74739182  1
