# generated using pymatgen
data_Ti27(Cu53Te54)2
_symmetry_space_group_name_H-M   'P 1'
_cell_length_a   17.86722386
_cell_length_b   17.86958435
_cell_length_c   17.86832800
_cell_angle_alpha   90.00642097
_cell_angle_beta   89.99923113
_cell_angle_gamma   90.01123086
_symmetry_Int_Tables_number   1
_chemical_formula_structural   Ti27(Cu53Te54)2
_chemical_formula_sum   'Ti27 Cu106 Te108'
_cell_volume   5704.99718224
_cell_formula_units_Z   1
loop_
 _symmetry_equiv_pos_site_id
 _symmetry_equiv_pos_as_xyz
  1  'x, y, z'
loop_
 _atom_type_symbol
 _atom_type_oxidation_number
  Ti4+  4.0
  Cu+  1.0
  Te2-  -2.0
loop_
 _atom_site_type_symbol
 _atom_site_label
 _atom_site_symmetry_multiplicity
 _atom_site_fract_x
 _atom_site_fract_y
 _atom_site_fract_z
 _atom_site_occupancy
  Ti4+  Ti0  1  0.16637454  0.16628334  0.16783515  1
  Ti4+  Ti1  1  0.16443417  0.16904296  0.50073615  1
  Ti4+  Ti2  1  0.16648028  0.16891349  0.83373456  1
  Ti4+  Ti3  1  0.16759916  0.50006687  0.16634509  1
  Ti4+  Ti4  1  0.16789534  0.49766909  0.50013714  1
  Ti4+  Ti5  1  0.16748296  0.49961909  0.83326812  1
  Ti4+  Ti6  1  0.16629214  0.83450815  0.16662066  1
  Ti4+  Ti7  1  0.16858435  0.83331289  0.50020261  1
  Ti4+  Ti8  1  0.16538732  0.83341946  0.83264000  1
  Ti4+  Ti9  1  0.49916270  0.16381215  0.16681464  1
  Ti4+  Ti10  1  0.49815593  0.16890712  0.49984034  1
  Ti4+  Ti11  1  0.50056448  0.16850022  0.83430467  1
  Ti4+  Ti12  1  0.50005436  0.49956955  0.16392231  1
  Ti4+  Ti13  1  0.49841184  0.50042821  0.50127211  1
  Ti4+  Ti14  1  0.49789050  0.50242740  0.83270377  1
  Ti4+  Ti15  1  0.50318675  0.83424122  0.16370629  1
  Ti4+  Ti16  1  0.50254327  0.83544766  0.49956434  1
  Ti4+  Ti17  1  0.49944095  0.83480988  0.83554123  1
  Ti4+  Ti18  1  0.83312505  0.16706798  0.16690032  1
  Ti4+  Ti19  1  0.82952225  0.16571760  0.49967239  1
  Ti4+  Ti20  1  0.83431082  0.16616096  0.83343185  1
  Ti4+  Ti21  1  0.83326754  0.50023453  0.16682936  1
  Ti4+  Ti22  1  0.83108567  0.49908756  0.50004189  1
  Ti4+  Ti23  1  0.83548978  0.50035128  0.83195584  1
  Ti4+  Ti24  1  0.83456106  0.83151131  0.16859716  1
  Ti4+  Ti25  1  0.83451992  0.82921933  0.49705720  1
  Ti4+  Ti26  1  0.83442355  0.83085956  0.83396196  1
  Cu+  Cu27  1  0.16524980  0.17024124  0.00158407  1
  Cu+  Cu28  1  0.16571455  0.16677408  0.33424915  1
  Cu+  Cu29  1  0.16516206  0.17011515  0.66661705  1
  Cu+  Cu30  1  0.16719870  0.50117081  0.00121313  1
  Cu+  Cu31  1  0.16902952  0.49602546  0.33336713  1
  Cu+  Cu32  1  0.17032496  0.49646342  0.66708202  1
  Cu+  Cu33  1  0.16227803  0.83093139  -0.00198347  1
  Cu+  Cu34  1  0.16865451  0.83281271  0.33502635  1
  Cu+  Cu35  1  0.16773391  0.83615611  0.66541751  1
  Cu+  Cu36  1  0.50172341  0.16576605  -0.00013257  1
  Cu+  Cu37  1  0.49703233  0.15965530  0.33266427  1
  Cu+  Cu38  1  0.49973087  0.17151621  0.66908287  1
  Cu+  Cu39  1  0.49319008  0.50110917  -0.00189565  1
  Cu+  Cu40  1  0.49741051  0.49845907  0.33138053  1
  Cu+  Cu41  1  0.50234374  0.50468536  0.66332188  1
  Cu+  Cu42  1  0.50051546  0.83505421  0.00163902  1
  Cu+  Cu43  1  0.50665640  0.83079580  0.33462290  1
  Cu+  Cu44  1  0.49934895  0.83678001  0.66897412  1
  Cu+  Cu45  1  0.83595434  0.16728216  -0.00290550  1
  Cu+  Cu46  1  0.82895957  0.16940414  0.33460602  1
  Cu+  Cu47  1  0.83255321  0.16375304  0.66767871  1
  Cu+  Cu48  1  0.83621114  0.50176003  -0.00111478  1
  Cu+  Cu49  1  0.83293724  0.49888606  0.33027658  1
  Cu+  Cu50  1  0.82836470  0.50290181  0.66965360  1
  Cu+  Cu51  1  0.83190011  0.83261775  0.00180858  1
  Cu+  Cu52  1  0.83152364  0.83440702  0.33173304  1
  Cu+  Cu53  1  0.83827243  0.82634993  0.66618444  1
  Cu+  Cu54  1  0.16609776  0.00068608  0.16584618  1
  Cu+  Cu55  1  0.16706974  0.00098789  0.49930568  1
  Cu+  Cu56  1  0.16553219  0.00139824  0.83313286  1
  Cu+  Cu57  1  0.16501646  0.33057888  0.16470522  1
  Cu+  Cu58  1  0.16381614  0.33542454  0.50025958  1
  Cu+  Cu59  1  0.17098815  0.33461024  0.83100218  1
  Cu+  Cu60  1  0.16790968  0.66966867  0.16759353  1
  Cu+  Cu61  1  0.17059541  0.66550541  0.50289605  1
  Cu+  Cu62  1  0.16261976  0.66862038  0.83622052  1
  Cu+  Cu63  1  0.49610869  0.00112098  0.16398349  1
  Cu+  Cu64  1  0.50282507  0.00451860  0.49796629  1
  Cu+  Cu65  1  0.49950476  0.00080101  0.83515396  1
  Cu+  Cu66  1  0.50066471  0.32921630  0.16720547  1
  Cu+  Cu67  1  0.50058312  0.33132391  0.50354045  1
  Cu+  Cu68  1  0.49684692  0.33726493  0.83569845  1
  Cu+  Cu69  1  0.50224691  0.66277082  0.15897320  1
  Cu+  Cu70  1  0.50146748  0.66831527  0.50159108  1
  Cu+  Cu71  1  0.49780214  0.67032144  0.83447745  1
  Cu+  Cu72  1  0.83526992  -0.00163315  0.16906039  1
  Cu+  Cu73  1  0.83076416  -0.00428642  0.49847658  1
  Cu+  Cu74  1  0.83530348  0.00037076  0.83486586  1
  Cu+  Cu75  1  0.83016949  0.33599694  0.16775059  1
  Cu+  Cu76  1  0.82839095  0.33183300  0.49802162  1
  Cu+  Cu77  1  0.83621531  0.33280889  0.83401380  1
  Cu+  Cu78  1  0.83658134  0.66341597  0.17465935  1
  Cu+  Cu79  1  0.83577500  0.66361943  0.49890961  1
  Cu+  Cu80  1  0.83756080  0.66700874  0.82697172  1
  Cu+  Cu81  1  0.00150120  0.16918805  0.16513759  1
  Cu+  Cu82  1  -0.00355725  0.16576413  0.50095226  1
  Cu+  Cu83  1  -0.00038110  0.16836089  0.83361035  1
  Cu+  Cu84  1  -0.00025508  0.50227315  0.16889910  1
  Cu+  Cu85  1  0.00076911  0.49453393  0.50345643  1
  Cu+  Cu86  1  0.00008654  0.50140460  0.83400195  1
  Cu+  Cu87  1  -0.00106895  0.83586560  0.17113641  1
  Cu+  Cu88  1  0.00419262  0.83134564  0.49871078  1
  Cu+  Cu89  1  0.00065962  0.82647439  0.83317382  1
  Cu+  Cu90  1  0.33317112  0.16168458  0.17214374  1
  Cu+  Cu91  1  0.33030709  0.16990026  0.50173931  1
  Cu+  Cu92  1  0.33328460  0.16723355  0.83473632  1
  Cu+  Cu93  1  0.33484623  0.50261919  0.16286987  1
  Cu+  Cu94  1  0.33042043  0.49988528  0.49912112  1
  Cu+  Cu95  1  0.33307034  0.49355798  0.83312331  1
  Cu+  Cu96  1  0.33315166  0.83873700  0.16412806  1
  Cu+  Cu97  1  0.33672236  0.83615372  0.50115292  1
  Cu+  Cu98  1  0.33163158  0.83485212  0.83384288  1
  Cu+  Cu99  1  0.66342896  0.16249491  0.16478713  1
  Cu+  Cu100  1  0.66315838  0.17190012  0.49682912  1
  Cu+  Cu101  1  0.67037452  0.16786582  0.83323155  1
  Cu+  Cu102  1  0.66746360  0.49561670  0.16594629  1
  Cu+  Cu103  1  0.66255626  0.50343157  0.50313491  1
  Cu+  Cu104  1  0.66849370  0.50340832  0.82993904  1
  Cu+  Cu105  1  0.67037238  0.82823944  0.16154794  1
  Cu+  Cu106  1  0.66861970  0.83059196  0.49371749  1
  Cu+  Cu107  1  0.66450739  0.83392910  0.83665777  1
  Cu+  Cu108  1  0.40220551  0.92901177  0.07108705  1
  Cu+  Cu109  1  0.07207686  0.26124737  0.07128485  1
  Cu+  Cu110  1  0.59344266  0.07802728  0.40693998  1
  Cu+  Cu111  1  0.73782856  0.40599677  0.25820121  1
  Cu+  Cu112  1  0.74081056  0.73821543  0.25833673  1
  Cu+  Cu113  1  0.93025547  0.93208694  0.26008758  1
  Cu+  Cu114  1  0.93302085  0.73773868  0.73552889  1
  Cu+  Cu115  1  0.40455643  0.40426512  0.92993037  1
  Cu+  Cu116  1  0.74921745  0.92808772  0.07136276  1
  Cu+  Cu117  1  0.40212553  0.59467170  0.06950609  1
  Cu+  Cu118  1  0.59219589  0.73431628  0.40868045  1
  Cu+  Cu119  1  0.26119483  0.40564255  0.40178491  1
  Cu+  Cu120  1  0.74183468  0.92468914  0.40663309  1
  Cu+  Cu121  1  0.25603355  0.59644278  0.59834789  1
  Cu+  Cu122  1  0.93277536  0.59007011  0.26386895  1
  Cu+  Cu123  1  0.07026642  0.73837697  0.93173223  1
  Cu+  Cu124  1  0.59341020  0.25781980  0.59968260  1
  Cu+  Cu125  1  0.26407627  0.40320237  0.73827594  1
  Cu+  Cu126  1  0.73883034  0.59796679  0.74461893  1
  Cu+  Cu127  1  0.59294987  0.59983222  0.59240203  1
  Cu+  Cu128  1  0.59385868  0.07730991  0.06766460  1
  Cu+  Cu129  1  0.59593157  0.73458217  0.07007752  1
  Cu+  Cu130  1  0.73614139  0.26323420  0.40638384  1
  Cu+  Cu131  1  0.07048176  0.40587412  0.59648992  1
  Cu+  Cu132  1  0.40211878  0.06847395  0.26452516  1
  Te2-  Te133  1  0.25647035  0.24966168  0.08417714  1
  Te2-  Te134  1  0.25166133  0.25406821  0.41346154  1
  Te2-  Te135  1  0.25574625  0.25173520  0.74555571  1
  Te2-  Te136  1  0.25058860  0.58911483  0.07955222  1
  Te2-  Te137  1  0.25214602  0.58574408  0.41194838  1
  Te2-  Te138  1  0.25339263  0.58852332  0.75081189  1
  Te2-  Te139  1  0.24829338  0.92033053  0.07624740  1
  Te2-  Te140  1  0.25370021  0.91943591  0.41555386  1
  Te2-  Te141  1  0.25133315  0.92041807  0.74872534  1
  Te2-  Te142  1  0.58559110  0.25145016  0.08098163  1
  Te2-  Te143  1  0.58090167  0.25529299  0.40672440  1
  Te2-  Te144  1  0.58720312  0.25707769  0.75209897  1
  Te2-  Te145  1  0.59055197  0.58042978  0.07525516  1
  Te2-  Te146  1  0.58408048  0.58361555  0.41065521  1
  Te2-  Te147  1  0.58471840  0.59196091  0.74696790  1
  Te2-  Te148  1  0.59161489  0.92288217  0.07900886  1
  Te2-  Te149  1  0.58852170  0.92338571  0.41042292  1
  Te2-  Te150  1  0.58562400  0.91990526  0.75054588  1
  Te2-  Te151  1  0.91607118  0.25481979  0.08171903  1
  Te2-  Te152  1  0.91694908  0.25149858  0.41570025  1
  Te2-  Te153  1  0.91854987  0.25166471  0.74607857  1
  Te2-  Te154  1  0.91920186  0.58740958  0.08174402  1
  Te2-  Te155  1  0.92163544  0.58120601  0.41615078  1
  Te2-  Te156  1  0.92521171  0.58436626  0.74254812  1
  Te2-  Te157  1  0.91998062  0.91802229  0.08073307  1
  Te2-  Te158  1  0.92214215  0.91797086  0.41337724  1
  Te2-  Te159  1  0.91933215  0.91619655  0.74909175  1
  Te2-  Te160  1  0.24958820  0.07692951  0.25658367  1
  Te2-  Te161  1  0.24978756  0.08364924  0.58580554  1
  Te2-  Te162  1  0.24982524  0.08313514  0.91983617  1
  Te2-  Te163  1  0.25544992  0.41243837  0.24762613  1
  Te2-  Te164  1  0.25691226  0.40900483  0.58611755  1
  Te2-  Te165  1  0.25106362  0.41270260  0.92388752  1
  Te2-  Te166  1  0.25478746  0.75133677  0.25065549  1
  Te2-  Te167  1  0.25687845  0.74979136  0.58834451  1
  Te2-  Te168  1  0.25232543  0.74807867  0.91866013  1
  Te2-  Te169  1  0.58755782  0.07525869  0.25263518  1
  Te2-  Te170  1  0.58575949  0.08522841  0.58700694  1
  Te2-  Te171  1  0.58861865  0.08070137  0.91691612  1
  Te2-  Te172  1  0.58335619  0.41193352  0.25259541  1
  Te2-  Te173  1  0.58661050  0.41326610  0.58733313  1
  Te2-  Te174  1  0.58631392  0.42024547  0.91731416  1
  Te2-  Te175  1  0.58699694  0.74249296  0.25099499  1
  Te2-  Te176  1  0.58861369  0.75177611  0.58919169  1
  Te2-  Te177  1  0.58637985  0.74635071  0.92063602  1
  Te2-  Te178  1  0.91928180  0.08475576  0.25400304  1
  Te2-  Te179  1  0.91477262  0.07864518  0.58330309  1
  Te2-  Te180  1  0.92149143  0.08077030  0.91905798  1
  Te2-  Te181  1  0.92040199  0.41233133  0.25225968  1
  Te2-  Te182  1  0.91230025  0.41270442  0.58794084  1
  Te2-  Te183  1  0.92061475  0.41525292  0.91865925  1
  Te2-  Te184  1  0.92332757  0.74624248  0.25816520  1
  Te2-  Te185  1  0.92365770  0.74347380  0.58139493  1
  Te2-  Te186  1  0.91697612  0.74378984  0.92380314  1
  Te2-  Te187  1  0.08080711  0.25236502  0.25450860  1
  Te2-  Te188  1  0.07618990  0.25347150  0.58697546  1
  Te2-  Te189  1  0.08025620  0.25753384  0.91761431  1
  Te2-  Te190  1  0.08532300  0.58651572  0.25517438  1
  Te2-  Te191  1  0.08218506  0.58374128  0.58736510  1
  Te2-  Te192  1  0.07984952  0.58416667  0.92135439  1
  Te2-  Te193  1  0.08307268  0.92089120  0.25560238  1
  Te2-  Te194  1  0.08164204  0.91954337  0.58377644  1
  Te2-  Te195  1  0.07813196  0.91906858  0.91645049  1
  Te2-  Te196  1  0.41512163  0.25073368  0.25343267  1
  Te2-  Te197  1  0.41164206  0.25299703  0.58696731  1
  Te2-  Te198  1  0.41343719  0.25176159  0.92207956  1
  Te2-  Te199  1  0.41640543  0.58677681  0.25012595  1
  Te2-  Te200  1  0.41141091  0.58854896  0.58497730  1
  Te2-  Te201  1  0.40841708  0.58964589  0.91590652  1
  Te2-  Te202  1  0.41697427  0.91608600  0.25546497  1
  Te2-  Te203  1  0.41872109  0.92268928  0.58432478  1
  Te2-  Te204  1  0.41200636  0.92124084  0.91985124  1
  Te2-  Te205  1  0.74123907  0.25181246  0.25087019  1
  Te2-  Te206  1  0.74594913  0.25246945  0.58935995  1
  Te2-  Te207  1  0.74937101  0.25357834  0.91931155  1
  Te2-  Te208  1  0.74185084  0.58435777  0.25434971  1
  Te2-  Te209  1  0.74630549  0.59015834  0.58624641  1
  Te2-  Te210  1  0.75109430  0.58787842  0.91714658  1
  Te2-  Te211  1  0.74257841  0.92011103  0.25192167  1
  Te2-  Te212  1  0.75011622  0.91121221  0.58626277  1
  Te2-  Te213  1  0.74795724  0.91945621  0.91849835  1
  Te2-  Te214  1  0.08054470  0.08092225  0.08074417  1
  Te2-  Te215  1  0.08005458  0.08246492  0.41608287  1
  Te2-  Te216  1  0.08141743  0.08395651  0.74809398  1
  Te2-  Te217  1  0.07899466  0.41651029  0.08082170  1
  Te2-  Te218  1  0.07901384  0.41371455  0.41192066  1
  Te2-  Te219  1  0.07863795  0.41362244  0.74882305  1
  Te2-  Te220  1  0.07688862  0.74739793  0.08479753  1
  Te2-  Te221  1  0.08528434  0.74448127  0.41540616  1
  Te2-  Te222  1  0.08358113  0.74513369  0.74122825  1
  Te2-  Te223  1  0.40936646  0.08160495  0.07644527  1
  Te2-  Te224  1  0.40750752  0.07986823  0.41765502  1
  Te2-  Te225  1  0.41591843  0.08317535  0.74860863  1
  Te2-  Te226  1  0.41322172  0.40878176  0.08225990  1
  Te2-  Te227  1  0.41522056  0.41221173  0.41495321  1
  Te2-  Te228  1  0.41696180  0.41516508  0.74128973  1
  Te2-  Te229  1  0.41240355  0.74838085  0.08055810  1
  Te2-  Te230  1  0.41620321  0.74942014  0.41524483  1
  Te2-  Te231  1  0.41382956  0.75097800  0.74848688  1
  Te2-  Te232  1  0.74970739  0.07996917  0.07815350  1
  Te2-  Te233  1  0.74463633  0.07761307  0.41077681  1
  Te2-  Te234  1  0.74813980  0.07875222  0.74896515  1
  Te2-  Te235  1  0.74939773  0.41547185  0.07676105  1
  Te2-  Te236  1  0.74106421  0.41638181  0.41318550  1
  Te2-  Te237  1  0.74838708  0.41207522  0.74949339  1
  Te2-  Te238  1  0.75232774  0.73858130  0.07991109  1
  Te2-  Te239  1  0.74786594  0.73853978  0.41088250  1
  Te2-  Te240  1  0.74342636  0.74975075  0.74683696  1
