# generated using pymatgen
data_Ti27(Cu53Te54)2
_symmetry_space_group_name_H-M   'P 1'
_cell_length_a   17.89631260
_cell_length_b   17.89202938
_cell_length_c   17.89711266
_cell_angle_alpha   90.01753130
_cell_angle_beta   90.03137308
_cell_angle_gamma   89.98758809
_symmetry_Int_Tables_number   1
_chemical_formula_structural   Ti27(Cu53Te54)2
_chemical_formula_sum   'Ti27 Cu106 Te108'
_cell_volume   5730.67838696
_cell_formula_units_Z   1
loop_
 _symmetry_equiv_pos_site_id
 _symmetry_equiv_pos_as_xyz
  1  'x, y, z'
loop_
 _atom_type_symbol
 _atom_type_oxidation_number
  Ti4+  4.0
  Cu+  1.0
  Te2-  -2.0
loop_
 _atom_site_type_symbol
 _atom_site_label
 _atom_site_symmetry_multiplicity
 _atom_site_fract_x
 _atom_site_fract_y
 _atom_site_fract_z
 _atom_site_occupancy
  Ti4+  Ti0  1  0.16807138  0.17094622  0.16687673  1
  Ti4+  Ti1  1  0.16563516  0.16712074  0.49830245  1
  Ti4+  Ti2  1  0.16465397  0.16806895  0.83257149  1
  Ti4+  Ti3  1  0.17048643  0.49953874  0.16904239  1
  Ti4+  Ti4  1  0.16294654  0.49986183  0.49996930  1
  Ti4+  Ti5  1  0.16882843  0.49718677  0.83211532  1
  Ti4+  Ti6  1  0.16739360  0.83279154  0.16654811  1
  Ti4+  Ti7  1  0.16489266  0.83351069  0.50138245  1
  Ti4+  Ti8  1  0.16605374  0.83582406  0.83424772  1
  Ti4+  Ti9  1  0.49964142  0.16606446  0.17036843  1
  Ti4+  Ti10  1  0.50027740  0.16412681  0.50041522  1
  Ti4+  Ti11  1  0.49997827  0.16461218  0.83284795  1
  Ti4+  Ti12  1  0.50231908  0.50297522  0.16468141  1
  Ti4+  Ti13  1  0.50037449  0.49875224  0.50002119  1
  Ti4+  Ti14  1  0.50187455  0.49873053  0.83161760  1
  Ti4+  Ti15  1  0.50186127  0.83756300  0.16411025  1
  Ti4+  Ti16  1  0.49710184  0.83275448  0.49973295  1
  Ti4+  Ti17  1  0.49626056  0.82931489  0.83092213  1
  Ti4+  Ti18  1  0.82959414  0.16999717  0.16596428  1
  Ti4+  Ti19  1  0.83040819  0.16511716  0.50249719  1
  Ti4+  Ti20  1  0.83563256  0.16666413  0.83585753  1
  Ti4+  Ti21  1  0.83540820  0.50113394  0.16425458  1
  Ti4+  Ti22  1  0.82960385  0.49779821  0.50089498  1
  Ti4+  Ti23  1  0.83512326  0.49910328  0.83135010  1
  Ti4+  Ti24  1  0.83598314  0.83354722  0.16847371  1
  Ti4+  Ti25  1  0.83040088  0.83207652  0.50211659  1
  Ti4+  Ti26  1  0.83622059  0.83449537  0.83397755  1
  Cu+  Cu27  1  0.16833260  0.17094349  -0.00020581  1
  Cu+  Cu28  1  0.16553067  0.16974094  0.33362890  1
  Cu+  Cu29  1  0.16461614  0.16754209  0.66319320  1
  Cu+  Cu30  1  0.17175349  0.50032532  0.00032296  1
  Cu+  Cu31  1  0.16721065  0.49436764  0.33768240  1
  Cu+  Cu32  1  0.16450334  0.49938758  0.66354857  1
  Cu+  Cu33  1  0.16924695  0.83136354  0.00223825  1
  Cu+  Cu34  1  0.16483524  0.83258305  0.33310351  1
  Cu+  Cu35  1  0.16625329  0.83365306  0.67113440  1
  Cu+  Cu36  1  0.50031312  0.16640366  0.00346970  1
  Cu+  Cu37  1  0.49746630  0.16215796  0.33420590  1
  Cu+  Cu38  1  0.50073992  0.16583852  0.66662627  1
  Cu+  Cu39  1  0.50414778  0.50204798  -0.00203968  1
  Cu+  Cu40  1  0.49950910  0.50244461  0.33186144  1
  Cu+  Cu41  1  0.50045173  0.49910254  0.66593808  1
  Cu+  Cu42  1  0.50211807  0.83579051  -0.00602836  1
  Cu+  Cu43  1  0.49948625  0.83360446  0.33304508  1
  Cu+  Cu44  1  0.49322149  0.83289104  0.66608590  1
  Cu+  Cu45  1  0.83632398  0.17482894  -0.00117212  1
  Cu+  Cu46  1  0.82628247  0.16864273  0.33437415  1
  Cu+  Cu47  1  0.83181184  0.16074197  0.66906120  1
  Cu+  Cu48  1  0.83432120  0.49962060  -0.00321081  1
  Cu+  Cu49  1  0.83184182  0.49916120  0.33103468  1
  Cu+  Cu50  1  0.83016320  0.49702285  0.66775146  1
  Cu+  Cu51  1  0.83950469  0.83255698  0.00310874  1
  Cu+  Cu52  1  0.83352655  0.83230297  0.33776739  1
  Cu+  Cu53  1  0.83678597  0.83585907  0.66256730  1
  Cu+  Cu54  1  0.16517336  -0.00214709  0.16565754  1
  Cu+  Cu55  1  0.16642976  0.00299804  0.49787336  1
  Cu+  Cu56  1  0.15636810  0.00365627  0.83378195  1
  Cu+  Cu57  1  0.16991638  0.33860396  0.16682478  1
  Cu+  Cu58  1  0.16561624  0.33285185  0.49699852  1
  Cu+  Cu59  1  0.17042770  0.33035723  0.83478487  1
  Cu+  Cu60  1  0.16985871  0.66496713  0.16982612  1
  Cu+  Cu61  1  0.16127091  0.66585578  0.50285270  1
  Cu+  Cu62  1  0.16928657  0.66530211  0.83209439  1
  Cu+  Cu63  1  0.50070398  0.00477306  0.16657023  1
  Cu+  Cu64  1  0.50051625  -0.00254439  0.50073647  1
  Cu+  Cu65  1  0.49470926  -0.00399562  0.83172566  1
  Cu+  Cu66  1  0.49924490  0.33420024  0.16961955  1
  Cu+  Cu67  1  0.50140277  0.32920545  0.49871948  1
  Cu+  Cu68  1  0.50207782  0.33257535  0.83215330  1
  Cu+  Cu69  1  0.50326438  0.67044658  0.16334794  1
  Cu+  Cu70  1  0.49764162  0.66592381  0.49856804  1
  Cu+  Cu71  1  0.49987891  0.66356670  0.83144902  1
  Cu+  Cu72  1  0.82697575  0.00229018  0.16614488  1
  Cu+  Cu73  1  0.82972447  -0.00180404  0.50773555  1
  Cu+  Cu74  1  0.83894325  -0.00256071  0.83980883  1
  Cu+  Cu75  1  0.82895013  0.33888141  0.16833956  1
  Cu+  Cu76  1  0.82557630  0.33095704  0.50227701  1
  Cu+  Cu77  1  0.83936397  0.33438107  0.83491570  1
  Cu+  Cu78  1  0.84177277  0.66802752  0.16421925  1
  Cu+  Cu79  1  0.83028271  0.66652000  0.49979897  1
  Cu+  Cu80  1  0.83449323  0.66598748  0.82849151  1
  Cu+  Cu81  1  -0.00270592  0.17236349  0.16642758  1
  Cu+  Cu82  1  0.00028935  0.16699578  0.49700504  1
  Cu+  Cu83  1  0.00047035  0.16721792  0.83941260  1
  Cu+  Cu84  1  0.00450816  0.50068476  0.16895859  1
  Cu+  Cu85  1  -0.00412935  0.50068193  0.50014211  1
  Cu+  Cu86  1  0.00375591  0.49754243  0.82746808  1
  Cu+  Cu87  1  0.00130858  0.82806174  0.16424386  1
  Cu+  Cu88  1  -0.00299868  0.83248657  0.50310706  1
  Cu+  Cu89  1  0.00146348  0.84096423  0.83549762  1
  Cu+  Cu90  1  0.33497577  0.16717465  0.17153284  1
  Cu+  Cu91  1  0.33304490  0.16717131  0.50041355  1
  Cu+  Cu92  1  0.33157225  0.16648351  0.83349979  1
  Cu+  Cu93  1  0.33847412  0.49781509  0.16746810  1
  Cu+  Cu94  1  0.33050614  0.50044668  0.49763958  1
  Cu+  Cu95  1  0.33759983  0.49917569  0.83085341  1
  Cu+  Cu96  1  0.33322700  0.83462074  0.16565112  1
  Cu+  Cu97  1  0.33102704  0.83136773  0.50021359  1
  Cu+  Cu98  1  0.33106280  0.83162225  0.82367591  1
  Cu+  Cu99  1  0.66567162  0.16175316  0.16912445  1
  Cu+  Cu100  1  0.66771539  0.16465421  0.50167641  1
  Cu+  Cu101  1  0.66688538  0.16423532  0.83284007  1
  Cu+  Cu102  1  0.66857836  0.50380333  0.16404853  1
  Cu+  Cu103  1  0.66428656  0.49642576  0.50319069  1
  Cu+  Cu104  1  0.67013088  0.50091059  0.83228063  1
  Cu+  Cu105  1  0.67040079  0.83854639  0.16365709  1
  Cu+  Cu106  1  0.66248049  0.83081438  0.50035347  1
  Cu+  Cu107  1  0.66334979  0.82984340  0.83291581  1
  Cu+  Cu108  1  0.73616309  0.25902721  0.40837503  1
  Cu+  Cu109  1  0.07200995  0.40867473  0.26253442  1
  Cu+  Cu110  1  0.74196502  0.07033685  0.26380678  1
  Cu+  Cu111  1  0.59062994  0.92518147  0.91435425  1
  Cu+  Cu112  1  0.26648545  0.41416782  0.07101076  1
  Cu+  Cu113  1  0.25654252  0.73453458  0.73840379  1
  Cu+  Cu114  1  0.40560911  0.92830427  0.73655347  1
  Cu+  Cu115  1  0.74569318  0.92408923  0.07139831  1
  Cu+  Cu116  1  0.92885937  0.92394054  0.93342059  1
  Cu+  Cu117  1  0.93170189  0.40659428  0.73600123  1
  Cu+  Cu118  1  0.07321456  0.92858683  0.73784816  1
  Cu+  Cu119  1  0.26186859  0.40317607  0.41568601  1
  Cu+  Cu120  1  0.26495965  0.25609822  0.92439463  1
  Cu+  Cu121  1  0.07732956  0.07745623  0.93431128  1
  Cu+  Cu122  1  0.73966908  0.59654291  0.73893850  1
  Cu+  Cu123  1  0.93258356  0.73610025  0.07056477  1
  Cu+  Cu124  1  0.73769359  0.41729523  0.25774560  1
  Cu+  Cu125  1  0.40117229  0.07007052  0.26267449  1
  Cu+  Cu126  1  0.73659990  0.06831944  0.60119369  1
  Cu+  Cu127  1  0.92940157  0.92932438  0.58616360  1
  Cu+  Cu128  1  0.41157963  0.40972415  0.26062315  1
  Cu+  Cu129  1  0.59232528  0.07991357  0.07249554  1
  Cu+  Cu130  1  0.92896396  0.26576234  0.93009884  1
  Cu+  Cu131  1  0.73542056  0.40425391  0.59628557  1
  Cu+  Cu132  1  0.73964559  0.40720932  0.92509598  1
  Te2-  Te133  1  0.25842696  0.25516952  0.08185193  1
  Te2-  Te134  1  0.25463440  0.25169261  0.41248861  1
  Te2-  Te135  1  0.25165257  0.25041056  0.74474495  1
  Te2-  Te136  1  0.25635993  0.58557601  0.08346456  1
  Te2-  Te137  1  0.24795102  0.58781774  0.41568716  1
  Te2-  Te138  1  0.25360364  0.58148847  0.74457912  1
  Te2-  Te139  1  0.25234298  0.91950176  0.08104496  1
  Te2-  Te140  1  0.24967731  0.91740648  0.41534608  1
  Te2-  Te141  1  0.24897523  0.92723713  0.74794519  1
  Te2-  Te142  1  0.58575674  0.25245837  0.08474416  1
  Te2-  Te143  1  0.58510106  0.24940683  0.41233925  1
  Te2-  Te144  1  0.58601768  0.24917293  0.74848035  1
  Te2-  Te145  1  0.58766127  0.58804246  0.07910664  1
  Te2-  Te146  1  0.58547105  0.58428705  0.41576027  1
  Te2-  Te147  1  0.58694755  0.58567430  0.74481825  1
  Te2-  Te148  1  0.58908044  0.92496127  0.07517886  1
  Te2-  Te149  1  0.58432215  0.91738055  0.41497133  1
  Te2-  Te150  1  0.58382830  0.91634311  0.74580354  1
  Te2-  Te151  1  0.91743164  0.25952257  0.08385671  1
  Te2-  Te152  1  0.91430706  0.25166103  0.41614699  1
  Te2-  Te153  1  0.92069364  0.24895716  0.74580645  1
  Te2-  Te154  1  0.92471633  0.58308595  0.07780475  1
  Te2-  Te155  1  0.91359943  0.58358602  0.41511385  1
  Te2-  Te156  1  0.92127608  0.58448945  0.74420139  1
  Te2-  Te157  1  0.92308614  0.92447954  0.08554367  1
  Te2-  Te158  1  0.91630671  0.92027198  0.41806929  1
  Te2-  Te159  1  0.92013306  0.92337578  0.74431002  1
  Te2-  Te160  1  0.24853384  0.08095124  0.25287270  1
  Te2-  Te161  1  0.25111247  0.08236017  0.58460706  1
  Te2-  Te162  1  0.24982392  0.08010932  0.91843479  1
  Te2-  Te163  1  0.25875486  0.41109520  0.25798306  1
  Te2-  Te164  1  0.25089972  0.41348699  0.58404395  1
  Te2-  Te165  1  0.25890909  0.41263468  0.91827361  1
  Te2-  Te166  1  0.25341757  0.74932205  0.25275372  1
  Te2-  Te167  1  0.25017822  0.74601891  0.58666973  1
  Te2-  Te168  1  0.25304619  0.74926314  0.91711353  1
  Te2-  Te169  1  0.58770017  0.07741346  0.25805886  1
  Te2-  Te170  1  0.58482040  0.07786593  0.58781466  1
  Te2-  Te171  1  0.58644886  0.07789364  0.91885596  1
  Te2-  Te172  1  0.58748309  0.41610077  0.25243643  1
  Te2-  Te173  1  0.58356903  0.40933954  0.58747453  1
  Te2-  Te174  1  0.58727482  0.41300093  0.91890197  1
  Te2-  Te175  1  0.58728011  0.75302355  0.24860732  1
  Te2-  Te176  1  0.58073877  0.74712805  0.58626885  1
  Te2-  Te177  1  0.58403989  0.74374128  0.91727444  1
  Te2-  Te178  1  0.91509799  0.08571410  0.25092162  1
  Te2-  Te179  1  0.92254152  0.08215053  0.58669573  1
  Te2-  Te180  1  0.92149523  0.07962235  0.92679436  1
  Te2-  Te181  1  0.92015359  0.41430877  0.25272633  1
  Te2-  Te182  1  0.91828426  0.41072483  0.58410841  1
  Te2-  Te183  1  0.92605569  0.41685830  0.92066197  1
  Te2-  Te184  1  0.92034608  0.74888334  0.25623721  1
  Te2-  Te185  1  0.91724827  0.74367799  0.58581131  1
  Te2-  Te186  1  0.92256082  0.74513118  0.91586835  1
  Te2-  Te187  1  0.08091300  0.25535448  0.25222164  1
  Te2-  Te188  1  0.07970964  0.25336878  0.58273008  1
  Te2-  Te189  1  0.08010771  0.25759347  0.92214729  1
  Te2-  Te190  1  0.08505716  0.58470296  0.25570367  1
  Te2-  Te191  1  0.07649622  0.58409593  0.58652567  1
  Te2-  Te192  1  0.08443495  0.58239615  0.91645096  1
  Te2-  Te193  1  0.07967755  0.91674320  0.25068058  1
  Te2-  Te194  1  0.08063432  0.92366434  0.58672157  1
  Te2-  Te195  1  0.08104936  0.92135740  0.92898772  1
  Te2-  Te196  1  0.41407877  0.25414579  0.25725307  1
  Te2-  Te197  1  0.41575106  0.25063141  0.58495200  1
  Te2-  Te198  1  0.41739268  0.25177329  0.91987910  1
  Te2-  Te199  1  0.41742311  0.59001875  0.24931596  1
  Te2-  Te200  1  0.41371623  0.58273975  0.58359800  1
  Te2-  Te201  1  0.41612995  0.58383327  0.91758809  1
  Te2-  Te202  1  0.41443719  0.91962810  0.25158398  1
  Te2-  Te203  1  0.40929208  0.92055877  0.58447275  1
  Te2-  Te204  1  0.40821289  0.91523292  0.91651177  1
  Te2-  Te205  1  0.74116119  0.25697134  0.25176998  1
  Te2-  Te206  1  0.74391421  0.24976399  0.59328747  1
  Te2-  Te207  1  0.74519377  0.25275989  0.91779933  1
  Te2-  Te208  1  0.75149102  0.58916946  0.24857457  1
  Te2-  Te209  1  0.74445188  0.58669482  0.58563682  1
  Te2-  Te210  1  0.75074160  0.58808314  0.91779613  1
  Te2-  Te211  1  0.74792401  0.91837884  0.25713568  1
  Te2-  Te212  1  0.73988840  0.91598961  0.58953622  1
  Te2-  Te213  1  0.74584860  0.91851778  0.91983477  1
  Te2-  Te214  1  0.08031363  0.08473181  0.08485665  1
  Te2-  Te215  1  0.08025105  0.08204525  0.41166056  1
  Te2-  Te216  1  0.07559953  0.08528616  0.74354525  1
  Te2-  Te217  1  0.08338086  0.41642004  0.08010497  1
  Te2-  Te218  1  0.07381155  0.41180818  0.41564897  1
  Te2-  Te219  1  0.08535779  0.40891812  0.74501544  1
  Te2-  Te220  1  0.08465322  0.74207874  0.07949498  1
  Te2-  Te221  1  0.07902516  0.74943263  0.41675152  1
  Te2-  Te222  1  0.07871646  0.74828135  0.75170046  1
  Te2-  Te223  1  0.41162596  0.08248656  0.08194735  1
  Te2-  Te224  1  0.41194974  0.07760416  0.41668633  1
  Te2-  Te225  1  0.41190342  0.08215235  0.74628322  1
  Te2-  Te226  1  0.41942588  0.41314733  0.07648014  1
  Te2-  Te227  1  0.41487215  0.41109415  0.41334681  1
  Te2-  Te228  1  0.41680878  0.41245978  0.74650643  1
  Te2-  Te229  1  0.41745957  0.75257602  0.07941575  1
  Te2-  Te230  1  0.41290621  0.74779698  0.41321136  1
  Te2-  Te231  1  0.41233703  0.73991141  0.74353204  1
  Te2-  Te232  1  0.74724238  0.08363891  0.07283469  1
  Te2-  Te233  1  0.74578549  0.07571669  0.41614660  1
  Te2-  Te234  1  0.74953040  0.07563385  0.75392130  1
  Te2-  Te235  1  0.74632651  0.41600042  0.07735425  1
  Te2-  Te236  1  0.74177867  0.41285283  0.41115683  1
  Te2-  Te237  1  0.74570364  0.40785802  0.74887861  1
  Te2-  Te238  1  0.75023226  0.74726870  0.08190740  1
  Te2-  Te239  1  0.74515983  0.74745759  0.41523645  1
  Te2-  Te240  1  0.74940793  0.75163861  0.74592518  1
