# generated using pymatgen
data_Ti27(Cu53Te54)2
_symmetry_space_group_name_H-M   'P 1'
_cell_length_a   17.89202725
_cell_length_b   17.89319758
_cell_length_c   17.89058718
_cell_angle_alpha   89.96157175
_cell_angle_beta   89.98456100
_cell_angle_gamma   89.98560708
_symmetry_Int_Tables_number   1
_chemical_formula_structural   Ti27(Cu53Te54)2
_chemical_formula_sum   'Ti27 Cu106 Te108'
_cell_volume   5727.59070789
_cell_formula_units_Z   1
loop_
 _symmetry_equiv_pos_site_id
 _symmetry_equiv_pos_as_xyz
  1  'x, y, z'
loop_
 _atom_type_symbol
 _atom_type_oxidation_number
  Ti4+  4.0
  Cu+  1.0
  Te2-  -2.0
loop_
 _atom_site_type_symbol
 _atom_site_label
 _atom_site_symmetry_multiplicity
 _atom_site_fract_x
 _atom_site_fract_y
 _atom_site_fract_z
 _atom_site_occupancy
  Ti4+  Ti0  1  0.16612728  0.16814967  0.16749803  1
  Ti4+  Ti1  1  0.16496545  0.16744575  0.50582735  1
  Ti4+  Ti2  1  0.16550502  0.16803106  0.83148824  1
  Ti4+  Ti3  1  0.16821645  0.49705001  0.16855416  1
  Ti4+  Ti4  1  0.16992281  0.50117924  0.49917014  1
  Ti4+  Ti5  1  0.16492882  0.49909279  0.83257334  1
  Ti4+  Ti6  1  0.17132951  0.83688048  0.16477110  1
  Ti4+  Ti7  1  0.16677687  0.83692235  0.50146584  1
  Ti4+  Ti8  1  0.16681290  0.82960134  0.83394023  1
  Ti4+  Ti9  1  0.50223668  0.16486393  0.16547101  1
  Ti4+  Ti10  1  0.49875874  0.16763031  0.50022268  1
  Ti4+  Ti11  1  0.50165911  0.16676777  0.83284768  1
  Ti4+  Ti12  1  0.50207330  0.50237474  0.16469522  1
  Ti4+  Ti13  1  0.50087748  0.49644724  0.49795247  1
  Ti4+  Ti14  1  0.49985875  0.49896363  0.83093363  1
  Ti4+  Ti15  1  0.49356375  0.82919887  0.17018210  1
  Ti4+  Ti16  1  0.49682330  0.83279867  0.50036130  1
  Ti4+  Ti17  1  0.49898465  0.83261273  0.83268898  1
  Ti4+  Ti18  1  0.83467585  0.16539095  0.16769998  1
  Ti4+  Ti19  1  0.83156959  0.16508364  0.50134233  1
  Ti4+  Ti20  1  0.83428225  0.16666962  0.83359498  1
  Ti4+  Ti21  1  0.83432207  0.50200532  0.16824843  1
  Ti4+  Ti22  1  0.83357276  0.50129783  0.50020449  1
  Ti4+  Ti23  1  0.83294234  0.50025131  0.83370941  1
  Ti4+  Ti24  1  0.82883233  0.83421526  0.16681851  1
  Ti4+  Ti25  1  0.83528486  0.83462047  0.49670323  1
  Ti4+  Ti26  1  0.83495134  0.83329938  0.83496389  1
  Cu+  Cu27  1  0.16521598  0.16572693  0.00050172  1
  Cu+  Cu28  1  0.16454480  0.16951176  0.33455945  1
  Cu+  Cu29  1  0.16053782  0.17244648  0.66793560  1
  Cu+  Cu30  1  0.16621721  0.49534319  0.00023848  1
  Cu+  Cu31  1  0.17073407  0.49676527  0.33366531  1
  Cu+  Cu32  1  0.16518480  0.50127603  0.66532065  1
  Cu+  Cu33  1  0.17437779  0.83417357  -0.00344047  1
  Cu+  Cu34  1  0.17163903  0.83856420  0.33373215  1
  Cu+  Cu35  1  0.16636952  0.83253722  0.66921040  1
  Cu+  Cu36  1  0.50322475  0.16813091  -0.00231844  1
  Cu+  Cu37  1  0.49836060  0.16480347  0.33328608  1
  Cu+  Cu38  1  0.49989596  0.16726427  0.66546494  1
  Cu+  Cu39  1  0.50099483  0.49947712  -0.00290411  1
  Cu+  Cu40  1  0.49756797  0.49978258  0.32909461  1
  Cu+  Cu41  1  0.50147440  0.50035274  0.66454790  1
  Cu+  Cu42  1  0.48719995  0.82301325  -0.00349668  1
  Cu+  Cu43  1  0.49258641  0.83818511  0.33851967  1
  Cu+  Cu44  1  0.50046701  0.83151633  0.66783158  1
  Cu+  Cu45  1  0.83638386  0.16590855  0.00008037  1
  Cu+  Cu46  1  0.83308616  0.16202211  0.33616805  1
  Cu+  Cu47  1  0.83137242  0.16654073  0.66876828  1
  Cu+  Cu48  1  0.83561819  0.50488157  0.00009219  1
  Cu+  Cu49  1  0.83377444  0.49973225  0.33654351  1
  Cu+  Cu50  1  0.83218993  0.49994186  0.66682866  1
  Cu+  Cu51  1  0.83045352  0.83416334  0.00052196  1
  Cu+  Cu52  1  0.83507629  0.83621014  0.32959509  1
  Cu+  Cu53  1  0.83547192  0.83396748  0.66573109  1
  Cu+  Cu54  1  0.17274270  0.00689461  0.16523255  1
  Cu+  Cu55  1  0.16091385  0.00483586  0.50941314  1
  Cu+  Cu56  1  0.16644526  -0.00384634  0.83332589  1
  Cu+  Cu57  1  0.16712613  0.33066916  0.16758468  1
  Cu+  Cu58  1  0.17070894  0.33355105  0.50506985  1
  Cu+  Cu59  1  0.16137061  0.33405622  0.82924471  1
  Cu+  Cu60  1  0.16810835  0.66404572  0.16768118  1
  Cu+  Cu61  1  0.17059047  0.67134326  0.49835991  1
  Cu+  Cu62  1  0.16307657  0.66204277  0.83161739  1
  Cu+  Cu63  1  0.49737267  -0.00547402  0.17022222  1
  Cu+  Cu64  1  0.49350181  0.00176761  0.50079945  1
  Cu+  Cu65  1  0.50473898  0.00160511  0.83092841  1
  Cu+  Cu66  1  0.50340892  0.33324172  0.16536013  1
  Cu+  Cu67  1  0.50505042  0.32932145  0.49971984  1
  Cu+  Cu68  1  0.49939739  0.33425618  0.83080942  1
  Cu+  Cu69  1  0.50990501  0.66648420  0.16792260  1
  Cu+  Cu70  1  0.49939283  0.66137985  0.50027491  1
  Cu+  Cu71  1  0.49748933  0.66526850  0.83324098  1
  Cu+  Cu72  1  0.82951887  0.00122414  0.17357698  1
  Cu+  Cu73  1  0.83568125  0.00021767  0.49432024  1
  Cu+  Cu74  1  0.83678094  -0.00016897  0.83364949  1
  Cu+  Cu75  1  0.83477100  0.33408876  0.16784385  1
  Cu+  Cu76  1  0.83233148  0.33524253  0.50093389  1
  Cu+  Cu77  1  0.83148822  0.33444813  0.83466856  1
  Cu+  Cu78  1  0.82740472  0.66565394  0.16185146  1
  Cu+  Cu79  1  0.83391267  0.66863482  0.49774568  1
  Cu+  Cu80  1  0.83724614  0.66746069  0.83639116  1
  Cu+  Cu81  1  0.00271818  0.16850944  0.16753860  1
  Cu+  Cu82  1  -0.00293238  0.16295574  0.50401849  1
  Cu+  Cu83  1  -0.00005457  0.17015197  0.83000122  1
  Cu+  Cu84  1  0.00246973  0.49908996  0.16944974  1
  Cu+  Cu85  1  0.00124433  0.50150788  0.50086357  1
  Cu+  Cu86  1  -0.00384712  0.50138854  0.83657255  1
  Cu+  Cu87  1  0.00030753  0.83443936  0.16560494  1
  Cu+  Cu88  1  0.00193314  0.83542080  0.49864749  1
  Cu+  Cu89  1  0.00115502  0.83005674  0.83385353  1
  Cu+  Cu90  1  0.33231220  0.16568212  0.16400635  1
  Cu+  Cu91  1  0.33357010  0.16562977  0.51017058  1
  Cu+  Cu92  1  0.33682224  0.16831033  0.83105289  1
  Cu+  Cu93  1  0.33776317  0.49758543  0.16964332  1
  Cu+  Cu94  1  0.33453438  0.49448391  0.48923526  1
  Cu+  Cu95  1  0.33043893  0.49696126  0.83001178  1
  Cu+  Cu96  1  0.33096533  0.83575626  0.16031956  1
  Cu+  Cu97  1  0.33000580  0.83612927  0.49548511  1
  Cu+  Cu98  1  0.33423729  0.82929022  0.83868131  1
  Cu+  Cu99  1  0.67000162  0.16329554  0.16832644  1
  Cu+  Cu100  1  0.66319451  0.16958427  0.50127874  1
  Cu+  Cu101  1  0.66942312  0.16645634  0.83324992  1
  Cu+  Cu102  1  0.66986957  0.50783865  0.16440586  1
  Cu+  Cu103  1  0.66842717  0.50089369  0.50330064  1
  Cu+  Cu104  1  0.66559764  0.49935283  0.83193219  1
  Cu+  Cu105  1  0.65717818  0.82964568  0.17074248  1
  Cu+  Cu106  1  0.66969488  0.83171028  0.49893831  1
  Cu+  Cu107  1  0.67023372  0.83422583  0.83297250  1
  Cu+  Cu108  1  0.25379699  0.39919538  0.40541374  1
  Cu+  Cu109  1  0.73762712  0.07781523  0.26520052  1
  Cu+  Cu110  1  0.59898327  0.58663163  0.26291790  1
  Cu+  Cu111  1  0.74070755  0.59127888  0.06714397  1
  Cu+  Cu112  1  0.25563453  0.74294713  0.40456234  1
  Cu+  Cu113  1  0.26144097  0.26361494  0.59727214  1
  Cu+  Cu114  1  0.25285020  0.93590045  0.26324097  1
  Cu+  Cu115  1  0.58941849  0.74927925  0.06868363  1
  Cu+  Cu116  1  0.06643312  0.26634865  0.73982463  1
  Cu+  Cu117  1  0.06633307  0.07290189  0.59952791  1
  Cu+  Cu118  1  0.59633217  0.25675795  0.59707536  1
  Cu+  Cu119  1  0.26245305  0.08534135  0.06787143  1
  Cu+  Cu120  1  0.41221977  0.40190645  0.25329801  1
  Cu+  Cu121  1  0.59473803  0.59365507  0.59465883  1
  Cu+  Cu122  1  0.40370415  0.93302033  0.41216565  1
  Cu+  Cu123  1  0.58719665  0.92155917  0.26455121  1
  Cu+  Cu124  1  0.24841381  0.73157024  0.07076614  1
  Cu+  Cu125  1  0.41685724  0.92740467  0.06980649  1
  Cu+  Cu126  1  0.26287333  0.92978771  0.91498384  1
  Cu+  Cu127  1  0.92920394  0.92469442  0.25245645  1
  Cu+  Cu128  1  0.40993009  0.59100665  0.40481119  1
  Cu+  Cu129  1  0.40884136  0.07042894  0.59842997  1
  Cu+  Cu130  1  0.93020822  0.07623828  0.40689742  1
  Cu+  Cu131  1  0.40328146  0.72905229  0.92097964  1
  Cu+  Cu132  1  0.92948469  0.59645216  0.92866936  1
  Te2-  Te133  1  0.25223932  0.25292472  0.07916096  1
  Te2-  Te134  1  0.25419826  0.24839628  0.41680825  1
  Te2-  Te135  1  0.25435034  0.25496405  0.74831942  1
  Te2-  Te136  1  0.25459618  0.57954539  0.08038902  1
  Te2-  Te137  1  0.25513290  0.58940034  0.40879561  1
  Te2-  Te138  1  0.25052980  0.58447559  0.74700681  1
  Te2-  Te139  1  0.25802331  0.92804735  0.07281073  1
  Te2-  Te140  1  0.25036614  0.93210160  0.41756790  1
  Te2-  Te141  1  0.25451099  0.91544812  0.74939027  1
  Te2-  Te142  1  0.58856193  0.24948619  0.08296254  1
  Te2-  Te143  1  0.58528918  0.25018799  0.40968596  1
  Te2-  Te144  1  0.58811298  0.25310156  0.74832006  1
  Te2-  Te145  1  0.58718734  0.58921169  0.07212324  1
  Te2-  Te146  1  0.58839866  0.58406085  0.41329701  1
  Te2-  Te147  1  0.58605426  0.58773346  0.74729315  1
  Te2-  Te148  1  0.57778686  0.91228041  0.07742726  1
  Te2-  Te149  1  0.58552591  0.92094780  0.41868246  1
  Te2-  Te150  1  0.58625702  0.91651798  0.74760742  1
  Te2-  Te151  1  0.91939155  0.25169873  0.08302810  1
  Te2-  Te152  1  0.91717841  0.25107393  0.41715763  1
  Te2-  Te153  1  0.91619347  0.25616504  0.74541253  1
  Te2-  Te154  1  0.92405525  0.58843486  0.08407655  1
  Te2-  Te155  1  0.92003886  0.58591791  0.41512685  1
  Te2-  Te156  1  0.91814500  0.58584494  0.74686750  1
  Te2-  Te157  1  0.91471899  0.92037229  0.08295837  1
  Te2-  Te158  1  0.92484107  0.92110012  0.40906678  1
  Te2-  Te159  1  0.92099976  0.91693219  0.74925946  1
  Te2-  Te160  1  0.25508279  0.08600077  0.25817672  1
  Te2-  Te161  1  0.25087680  0.08036564  0.59462106  1
  Te2-  Te162  1  0.25523959  0.08227181  0.91640507  1
  Te2-  Te163  1  0.25674803  0.40782199  0.25333906  1
  Te2-  Te164  1  0.25691469  0.41762499  0.58888775  1
  Te2-  Te165  1  0.24954259  0.41163450  0.91583973  1
  Te2-  Te166  1  0.25479547  0.74756669  0.25146889  1
  Te2-  Te167  1  0.25335855  0.75166820  0.58657866  1
  Te2-  Te168  1  0.25266211  0.73636227  0.91951255  1
  Te2-  Te169  1  0.58463944  0.07690674  0.25537001  1
  Te2-  Te170  1  0.58443137  0.07918850  0.58476162  1
  Te2-  Te171  1  0.58782326  0.08161271  0.91797512  1
  Te2-  Te172  1  0.59010704  0.41700156  0.24883730  1
  Te2-  Te173  1  0.58776686  0.41202037  0.58625890  1
  Te2-  Te174  1  0.58528506  0.41408215  0.91691117  1
  Te2-  Te175  1  0.58170455  0.74758606  0.26383513  1
  Te2-  Te176  1  0.58518361  0.74755846  0.58398458  1
  Te2-  Te177  1  0.58751220  0.74632930  0.91640662  1
  Te2-  Te178  1  0.92594658  0.07927880  0.25413215  1
  Te2-  Te179  1  0.91477306  0.07715743  0.59054499  1
  Te2-  Te180  1  0.92208871  0.08270025  0.91741391  1
  Te2-  Te181  1  0.91839475  0.41593723  0.25365123  1
  Te2-  Te182  1  0.91900663  0.41609213  0.58539380  1
  Te2-  Te183  1  0.91684709  0.41347934  0.92091688  1
  Te2-  Te184  1  0.91625085  0.74646121  0.24732409  1
  Te2-  Te185  1  0.92007962  0.74964792  0.58228867  1
  Te2-  Te186  1  0.92126146  0.74906722  0.92470318  1
  Te2-  Te187  1  0.08058167  0.25388639  0.25413925  1
  Te2-  Te188  1  0.07426085  0.25772220  0.58480775  1
  Te2-  Te189  1  0.08132697  0.25157927  0.91947386  1
  Te2-  Te190  1  0.08464740  0.58367580  0.25424153  1
  Te2-  Te191  1  0.08472542  0.58853675  0.58175805  1
  Te2-  Te192  1  0.08148014  0.58442003  0.92248295  1
  Te2-  Te193  1  0.08464071  0.92255463  0.25005274  1
  Te2-  Te194  1  0.07804731  0.91805893  0.59079957  1
  Te2-  Te195  1  0.08124668  0.91576039  0.91972222  1
  Te2-  Te196  1  0.41471052  0.24932796  0.24989122  1
  Te2-  Te197  1  0.41466884  0.25807791  0.58860653  1
  Te2-  Te198  1  0.41622742  0.25278250  0.91782482  1
  Te2-  Te199  1  0.41351072  0.59147223  0.24987161  1
  Te2-  Te200  1  0.41103947  0.57954554  0.58221204  1
  Te2-  Te201  1  0.41070155  0.58051571  0.91837136  1
  Te2-  Te202  1  0.40514770  0.92162712  0.25662426  1
  Te2-  Te203  1  0.41101733  0.91635772  0.58942676  1
  Te2-  Te204  1  0.41459612  0.92563037  0.91807686  1
  Te2-  Te205  1  0.75001874  0.25135061  0.25378781  1
  Te2-  Te206  1  0.74817375  0.25348567  0.58726096  1
  Te2-  Te207  1  0.74935868  0.25100303  0.92019168  1
  Te2-  Te208  1  0.75001420  0.58935509  0.25804126  1
  Te2-  Te209  1  0.74910806  0.58972629  0.58709665  1
  Te2-  Te210  1  0.74416132  0.58830433  0.91677410  1
  Te2-  Te211  1  0.73957198  0.91923044  0.25575746  1
  Te2-  Te212  1  0.75042982  0.91891612  0.58288976  1
  Te2-  Te213  1  0.74896285  0.92058271  0.91850197  1
  Te2-  Te214  1  0.07989536  0.08099498  0.08184798  1
  Te2-  Te215  1  0.08225577  0.08172210  0.41454821  1
  Te2-  Te216  1  0.07947206  0.07744943  0.74989485  1
  Te2-  Te217  1  0.08188100  0.41274678  0.08400788  1
  Te2-  Te218  1  0.08358388  0.41382311  0.41716481  1
  Te2-  Te219  1  0.07559168  0.41835782  0.74497682  1
  Te2-  Te220  1  0.08498413  0.75081071  0.08152810  1
  Te2-  Te221  1  0.08382876  0.75207764  0.41220597  1
  Te2-  Te222  1  0.08095270  0.74557804  0.74761168  1
  Te2-  Te223  1  0.41624658  0.08030737  0.07698815  1
  Te2-  Te224  1  0.40842950  0.08429448  0.41305707  1
  Te2-  Te225  1  0.41460324  0.07935387  0.74776979  1
  Te2-  Te226  1  0.41743914  0.41458265  0.07967999  1
  Te2-  Te227  1  0.41702517  0.40457059  0.40966953  1
  Te2-  Te228  1  0.41477572  0.41491236  0.74495080  1
  Te2-  Te229  1  0.40777234  0.73625896  0.08309085  1
  Te2-  Te230  1  0.41090142  0.74407826  0.41355658  1
  Te2-  Te231  1  0.41304786  0.74703031  0.74704889  1
  Te2-  Te232  1  0.75039105  0.08011092  0.08018648  1
  Te2-  Te233  1  0.74118687  0.07943857  0.41746381  1
  Te2-  Te234  1  0.74906396  0.07962705  0.74936889  1
  Te2-  Te235  1  0.74982988  0.41672167  0.08209386  1
  Te2-  Te236  1  0.74696058  0.41528326  0.41584101  1
  Te2-  Te237  1  0.74734144  0.41484662  0.74791631  1
  Te2-  Te238  1  0.74159962  0.74848804  0.07828060  1
  Te2-  Te239  1  0.74999634  0.74942785  0.41109341  1
  Te2-  Te240  1  0.75148479  0.74792328  0.74859117  1
