# generated using pymatgen
data_Ti27(Cu53Te54)2
_symmetry_space_group_name_H-M   'P 1'
_cell_length_a   17.88892283
_cell_length_b   17.88650740
_cell_length_c   17.89326998
_cell_angle_alpha   90.01324473
_cell_angle_beta   89.99923303
_cell_angle_gamma   89.98839396
_symmetry_Int_Tables_number   1
_chemical_formula_structural   Ti27(Cu53Te54)2
_chemical_formula_sum   'Ti27 Cu106 Te108'
_cell_volume   5725.31559805
_cell_formula_units_Z   1
loop_
 _symmetry_equiv_pos_site_id
 _symmetry_equiv_pos_as_xyz
  1  'x, y, z'
loop_
 _atom_type_symbol
 _atom_type_oxidation_number
  Ti4+  4.0
  Cu+  1.0
  Te2-  -2.0
loop_
 _atom_site_type_symbol
 _atom_site_label
 _atom_site_symmetry_multiplicity
 _atom_site_fract_x
 _atom_site_fract_y
 _atom_site_fract_z
 _atom_site_occupancy
  Ti4+  Ti0  1  0.16545151  0.16564465  0.16662051  1
  Ti4+  Ti1  1  0.16835341  0.16666661  0.50074159  1
  Ti4+  Ti2  1  0.16880448  0.16580535  0.83449587  1
  Ti4+  Ti3  1  0.16629633  0.49940599  0.16799309  1
  Ti4+  Ti4  1  0.16492250  0.50084789  0.50068592  1
  Ti4+  Ti5  1  0.16730909  0.50486438  0.83268651  1
  Ti4+  Ti6  1  0.16603850  0.82822501  0.16473426  1
  Ti4+  Ti7  1  0.17212999  0.82984892  0.49720022  1
  Ti4+  Ti8  1  0.16524091  0.83215264  0.83055854  1
  Ti4+  Ti9  1  0.50222050  0.16830510  0.16898234  1
  Ti4+  Ti10  1  0.49910379  0.16976369  0.49956326  1
  Ti4+  Ti11  1  0.50177644  0.16494486  0.83111165  1
  Ti4+  Ti12  1  0.50126440  0.50094680  0.17018949  1
  Ti4+  Ti13  1  0.49987855  0.49761240  0.50239544  1
  Ti4+  Ti14  1  0.49836674  0.49897596  0.83502756  1
  Ti4+  Ti15  1  0.49805295  0.83721556  0.16627700  1
  Ti4+  Ti16  1  0.50030061  0.83201824  0.49657438  1
  Ti4+  Ti17  1  0.49686694  0.83575846  0.83428592  1
  Ti4+  Ti18  1  0.83393783  0.16700171  0.17071245  1
  Ti4+  Ti19  1  0.83567404  0.16760254  0.50249973  1
  Ti4+  Ti20  1  0.83501597  0.16718923  0.83344009  1
  Ti4+  Ti21  1  0.83131012  0.49582227  0.16402114  1
  Ti4+  Ti22  1  0.83443200  0.50102698  0.49809262  1
  Ti4+  Ti23  1  0.83475344  0.50247692  0.83140334  1
  Ti4+  Ti24  1  0.83223042  0.83296365  0.16849276  1
  Ti4+  Ti25  1  0.83304931  0.83459880  0.50020371  1
  Ti4+  Ti26  1  0.83179563  0.83516760  0.83446236  1
  Cu+  Cu27  1  0.16294984  0.16502539  0.00195400  1
  Cu+  Cu28  1  0.16630530  0.16473766  0.33415506  1
  Cu+  Cu29  1  0.17316085  0.16531228  0.66827518  1
  Cu+  Cu30  1  0.16548221  0.50384861  0.00375994  1
  Cu+  Cu31  1  0.16276447  0.50236984  0.33467063  1
  Cu+  Cu32  1  0.16773950  0.51012586  0.66587835  1
  Cu+  Cu33  1  0.16306843  0.82930785  -0.00542834  1
  Cu+  Cu34  1  0.17601735  0.82654444  0.33039820  1
  Cu+  Cu35  1  0.16964405  0.82430339  0.66376176  1
  Cu+  Cu36  1  0.50135016  0.16387547  -0.00150378  1
  Cu+  Cu37  1  0.50073772  0.17517440  0.33287656  1
  Cu+  Cu38  1  0.50459054  0.16932254  0.66361805  1
  Cu+  Cu39  1  0.50230175  0.50071991  0.00526344  1
  Cu+  Cu40  1  0.49921365  0.50053512  0.33630716  1
  Cu+  Cu41  1  0.49642672  0.49381877  0.66933857  1
  Cu+  Cu42  1  0.49754885  0.83547100  -0.00221937  1
  Cu+  Cu43  1  0.49687683  0.83997895  0.33327121  1
  Cu+  Cu44  1  0.49861795  0.83592856  0.66252597  1
  Cu+  Cu45  1  0.83429391  0.16671766  0.00358340  1
  Cu+  Cu46  1  0.83447928  0.16558709  0.33800386  1
  Cu+  Cu47  1  0.83649518  0.16837051  0.66831129  1
  Cu+  Cu48  1  0.83084513  0.49613620  -0.00781435  1
  Cu+  Cu49  1  0.83588169  0.49594498  0.33088693  1
  Cu+  Cu50  1  0.83495869  0.50205448  0.66390601  1
  Cu+  Cu51  1  0.83108280  0.83444627  0.00467545  1
  Cu+  Cu52  1  0.83437079  0.83376453  0.33560865  1
  Cu+  Cu53  1  0.83301462  0.83470528  0.66868067  1
  Cu+  Cu54  1  0.16547380  -0.00247752  0.16537398  1
  Cu+  Cu55  1  0.16939437  0.00095154  0.50053153  1
  Cu+  Cu56  1  0.17094269  0.00298525  0.83226748  1
  Cu+  Cu57  1  0.16699359  0.33274422  0.16880718  1
  Cu+  Cu58  1  0.16605105  0.33134082  0.50270458  1
  Cu+  Cu59  1  0.16914603  0.33602899  0.83329913  1
  Cu+  Cu60  1  0.16169280  0.66011590  0.16091054  1
  Cu+  Cu61  1  0.16906066  0.66619711  0.49974495  1
  Cu+  Cu62  1  0.16177228  0.66882935  0.82478364  1
  Cu+  Cu63  1  0.50570802  -0.00027006  0.17082951  1
  Cu+  Cu64  1  0.49776732  0.00111937  0.49556938  1
  Cu+  Cu65  1  0.49808591  0.00174602  0.83745792  1
  Cu+  Cu66  1  0.50616113  0.33470669  0.17168539  1
  Cu+  Cu67  1  0.49528181  0.33301235  0.50474966  1
  Cu+  Cu68  1  0.50029730  0.32966322  0.83267592  1
  Cu+  Cu69  1  0.49684776  0.66797652  0.16786678  1
  Cu+  Cu70  1  0.50191141  0.66598548  0.50075953  1
  Cu+  Cu71  1  0.49528107  0.66572896  0.83417791  1
  Cu+  Cu72  1  0.83345245  0.00152364  0.16881203  1
  Cu+  Cu73  1  0.83443906  0.00022380  0.50264545  1
  Cu+  Cu74  1  0.83306972  0.00006754  0.83416094  1
  Cu+  Cu75  1  0.82859034  0.32781220  0.16294247  1
  Cu+  Cu76  1  0.83771897  0.33573771  0.49826960  1
  Cu+  Cu77  1  0.83686125  0.33631963  0.83308962  1
  Cu+  Cu78  1  0.83172743  0.66627012  0.16739039  1
  Cu+  Cu79  1  0.83272170  0.66817137  0.49931104  1
  Cu+  Cu80  1  0.83222940  0.66963884  0.83265510  1
  Cu+  Cu81  1  -0.00091173  0.16502761  0.17044143  1
  Cu+  Cu82  1  0.00403955  0.16578110  0.50390847  1
  Cu+  Cu83  1  0.00198143  0.16572024  0.83646321  1
  Cu+  Cu84  1  -0.00168416  0.49831243  0.16562722  1
  Cu+  Cu85  1  -0.00382719  0.50035568  0.49011638  1
  Cu+  Cu86  1  0.00036336  0.50508367  0.82854519  1
  Cu+  Cu87  1  -0.00268854  0.83115296  0.16729683  1
  Cu+  Cu88  1  -0.00021467  0.83349885  0.49999985  1
  Cu+  Cu89  1  -0.00351752  0.83335082  0.83571605  1
  Cu+  Cu90  1  0.33085552  0.16516605  0.16453300  1
  Cu+  Cu91  1  0.33366755  0.17085642  0.49551810  1
  Cu+  Cu92  1  0.33596487  0.15905352  0.83032008  1
  Cu+  Cu93  1  0.33413438  0.49795415  0.17193882  1
  Cu+  Cu94  1  0.33535555  0.49596920  0.50868008  1
  Cu+  Cu95  1  0.33343201  0.50133200  0.83666592  1
  Cu+  Cu96  1  0.32851620  0.83440894  0.16884875  1
  Cu+  Cu97  1  0.33805371  0.82976224  0.48766395  1
  Cu+  Cu98  1  0.33100581  0.83293304  0.83517899  1
  Cu+  Cu99  1  0.66817122  0.17231874  0.17241845  1
  Cu+  Cu100  1  0.66830472  0.17043377  0.50406029  1
  Cu+  Cu101  1  0.66957298  0.16625914  0.83012054  1
  Cu+  Cu102  1  0.66386857  0.49611827  0.16348239  1
  Cu+  Cu103  1  0.66891953  0.49818277  0.50077212  1
  Cu+  Cu104  1  0.66680767  0.50060499  0.83192035  1
  Cu+  Cu105  1  0.66616816  0.83606298  0.16766746  1
  Cu+  Cu106  1  0.66816069  0.83342970  0.50087146  1
  Cu+  Cu107  1  0.66381452  0.83773993  0.83454760  1
  Cu+  Cu108  1  0.40785449  0.07871132  0.93167741  1
  Cu+  Cu109  1  0.73845375  0.24882045  0.07011462  1
  Cu+  Cu110  1  0.59879497  0.26211656  0.59526208  1
  Cu+  Cu111  1  0.40214586  0.40175203  0.60124651  1
  Cu+  Cu112  1  0.59799462  0.92258049  0.26338259  1
  Cu+  Cu113  1  0.26569954  0.59349265  0.59015090  1
  Cu+  Cu114  1  0.25092331  0.92951034  0.25852651  1
  Cu+  Cu115  1  0.06899219  0.74259144  0.58551359  1
  Cu+  Cu116  1  0.06768355  0.74126327  0.92349068  1
  Cu+  Cu117  1  0.06607178  0.58479853  0.07295759  1
  Cu+  Cu118  1  0.41041850  0.73645586  0.93053586  1
  Cu+  Cu119  1  0.06781667  0.59166305  0.73668733  1
  Cu+  Cu120  1  0.26665029  0.73234770  0.39970128  1
  Cu+  Cu121  1  0.40743217  0.93227427  0.40710398  1
  Cu+  Cu122  1  0.59535434  0.92872279  0.92542254  1
  Cu+  Cu123  1  0.06888075  0.07779318  0.93061334  1
  Cu+  Cu124  1  0.25213906  0.92539724  0.92622802  1
  Cu+  Cu125  1  0.73790534  0.40486979  0.91364257  1
  Cu+  Cu126  1  0.92497794  0.40111609  0.39980742  1
  Cu+  Cu127  1  0.58612435  0.40565206  0.07264898  1
  Cu+  Cu128  1  0.40248879  0.26394921  0.40219638  1
  Cu+  Cu129  1  0.59849018  0.26528126  0.26469587  1
  Cu+  Cu130  1  0.26430011  0.07326028  0.73428534  1
  Cu+  Cu131  1  0.26409203  0.74108649  0.74331286  1
  Cu+  Cu132  1  0.07014321  0.59597865  0.40462050  1
  Te2-  Te133  1  0.24989212  0.25143770  0.08078905  1
  Te2-  Te134  1  0.25003121  0.25556935  0.41159961  1
  Te2-  Te135  1  0.25546266  0.25270936  0.75124482  1
  Te2-  Te136  1  0.25676496  0.58307479  0.08343666  1
  Te2-  Te137  1  0.25736378  0.58087071  0.41451863  1
  Te2-  Te138  1  0.26034203  0.58958167  0.74643236  1
  Te2-  Te139  1  0.24953774  0.91623204  0.07764808  1
  Te2-  Te140  1  0.25447793  0.92328739  0.41102789  1
  Te2-  Te141  1  0.25284840  0.91793515  0.74265286  1
  Te2-  Te142  1  0.58635953  0.25241866  0.07679592  1
  Te2-  Te143  1  0.58845916  0.25778448  0.41730158  1
  Te2-  Te144  1  0.58899332  0.25355391  0.74745744  1
  Te2-  Te145  1  0.58548467  0.58950102  0.08436383  1
  Te2-  Te146  1  0.58598303  0.58269244  0.41756271  1
  Te2-  Te147  1  0.58135044  0.58376192  0.74879548  1
  Te2-  Te148  1  0.58614870  0.92064387  0.07864066  1
  Te2-  Te149  1  0.58941857  0.92111624  0.41496929  1
  Te2-  Te150  1  0.58123858  0.92076392  0.74709080  1
  Te2-  Te151  1  0.92163379  0.25063309  0.08311215  1
  Te2-  Te152  1  0.92423561  0.25014269  0.41520944  1
  Te2-  Te153  1  0.92204822  0.25225816  0.75073492  1
  Te2-  Te154  1  0.91370246  0.58360018  0.07802287  1
  Te2-  Te155  1  0.91605151  0.59108821  0.40833492  1
  Te2-  Te156  1  0.91687582  0.59165718  0.74355453  1
  Te2-  Te157  1  0.91801142  0.91950574  0.08386151  1
  Te2-  Te158  1  0.91985866  0.91996072  0.41596951  1
  Te2-  Te159  1  0.91867251  0.91961206  0.74935355  1
  Te2-  Te160  1  0.25252440  0.08069266  0.25287696  1
  Te2-  Te161  1  0.25849354  0.08003785  0.58283608  1
  Te2-  Te162  1  0.25585138  0.07931333  0.92661762  1
  Te2-  Te163  1  0.25004446  0.41468122  0.25563835  1
  Te2-  Te164  1  0.24759490  0.41271188  0.59055875  1
  Te2-  Te165  1  0.24926658  0.41918501  0.92067287  1
  Te2-  Te166  1  0.25362826  0.73655623  0.24625908  1
  Te2-  Te167  1  0.26398465  0.74559750  0.58426407  1
  Te2-  Te168  1  0.25136276  0.74128242  0.91790707  1
  Te2-  Te169  1  0.58791889  0.08351334  0.25697923  1
  Te2-  Te170  1  0.58425645  0.08006063  0.58168220  1
  Te2-  Te171  1  0.59126661  0.08181970  0.91875815  1
  Te2-  Te172  1  0.58929153  0.41646995  0.25985405  1
  Te2-  Te173  1  0.58869897  0.41398906  0.58855229  1
  Te2-  Te174  1  0.58530165  0.41102231  0.91933329  1
  Te2-  Te175  1  0.58181805  0.75135816  0.25189925  1
  Te2-  Te176  1  0.58525963  0.74941887  0.58503244  1
  Te2-  Te177  1  0.58315648  0.74762221  0.91782225  1
  Te2-  Te178  1  0.91851989  0.08033700  0.25594158  1
  Te2-  Te179  1  0.92029424  0.08174451  0.58721360  1
  Te2-  Te180  1  0.91714005  0.08015137  0.92207613  1
  Te2-  Te181  1  0.91891232  0.40873745  0.24704288  1
  Te2-  Te182  1  0.92190280  0.41737931  0.58508372  1
  Te2-  Te183  1  0.92497279  0.41738287  0.91513924  1
  Te2-  Te184  1  0.91721027  0.74657586  0.25345308  1
  Te2-  Te185  1  0.91711173  0.74699338  0.58742580  1
  Te2-  Te186  1  0.91518087  0.74748240  0.92279782  1
  Te2-  Te187  1  0.08162676  0.25058607  0.25307581  1
  Te2-  Te188  1  0.08472308  0.24986289  0.58989935  1
  Te2-  Te189  1  0.08383647  0.25432926  0.91836160  1
  Te2-  Te190  1  0.07591044  0.58638306  0.25292568  1
  Te2-  Te191  1  0.07281112  0.58821628  0.58383037  1
  Te2-  Te192  1  0.07759050  0.58935796  0.92040747  1
  Te2-  Te193  1  0.08308361  0.91263852  0.25302112  1
  Te2-  Te194  1  0.08756523  0.91563693  0.58389160  1
  Te2-  Te195  1  0.07956253  0.92163150  0.91708363  1
  Te2-  Te196  1  0.41044610  0.25503457  0.24844299  1
  Te2-  Te197  1  0.40887642  0.25081264  0.59067774  1
  Te2-  Te198  1  0.41442062  0.24849200  0.91742634  1
  Te2-  Te199  1  0.41456817  0.58570137  0.25496563  1
  Te2-  Te200  1  0.41778752  0.58782456  0.58966994  1
  Te2-  Te201  1  0.41398017  0.58356696  0.92442135  1
  Te2-  Te202  1  0.40830770  0.92501152  0.25208670  1
  Te2-  Te203  1  0.41213869  0.91804864  0.58011136  1
  Te2-  Te204  1  0.40734445  0.92367785  0.92269750  1
  Te2-  Te205  1  0.75013369  0.25529411  0.26102344  1
  Te2-  Te206  1  0.75273300  0.25697712  0.58827656  1
  Te2-  Te207  1  0.74614145  0.25334302  0.91864121  1
  Te2-  Te208  1  0.74803907  0.58007141  0.24945801  1
  Te2-  Te209  1  0.74827414  0.58607971  0.58405962  1
  Te2-  Te210  1  0.74693180  0.58781153  0.91672584  1
  Te2-  Te211  1  0.74882444  0.92125227  0.25558814  1
  Te2-  Te212  1  0.74805629  0.91917684  0.58668602  1
  Te2-  Te213  1  0.74786366  0.92134804  0.92236841  1
  Te2-  Te214  1  0.07705263  0.07792036  0.08348047  1
  Te2-  Te215  1  0.08263057  0.08025540  0.41673531  1
  Te2-  Te216  1  0.08233269  0.08165935  0.74704513  1
  Te2-  Te217  1  0.08164293  0.41289346  0.08150758  1
  Te2-  Te218  1  0.08200822  0.41067673  0.41396531  1
  Te2-  Te219  1  0.08480297  0.41804019  0.74652076  1
  Te2-  Te220  1  0.07494894  0.74454542  0.07849541  1
  Te2-  Te221  1  0.08105625  0.74838311  0.41055604  1
  Te2-  Te222  1  0.07175325  0.74827051  0.74178183  1
  Te2-  Te223  1  0.41711069  0.07976807  0.08502707  1
  Te2-  Te224  1  0.41368135  0.08513858  0.40927229  1
  Te2-  Te225  1  0.41924252  0.07811250  0.74061374  1
  Te2-  Te226  1  0.41586286  0.41335836  0.08543766  1
  Te2-  Te227  1  0.41164386  0.41482150  0.41372064  1
  Te2-  Te228  1  0.41015933  0.41063043  0.75270135  1
  Te2-  Te229  1  0.41154252  0.74932429  0.08254794  1
  Te2-  Te230  1  0.41936408  0.74013481  0.40730816  1
  Te2-  Te231  1  0.41494365  0.74868618  0.74409564  1
  Te2-  Te232  1  0.74591559  0.08245261  0.08500460  1
  Te2-  Te233  1  0.74801422  0.08290031  0.41935200  1
  Te2-  Te234  1  0.75107392  0.08161371  0.74708189  1
  Te2-  Te235  1  0.74380177  0.40925327  0.07495617  1
  Te2-  Te236  1  0.74837331  0.41377478  0.41384741  1
  Te2-  Te237  1  0.74979340  0.41579626  0.74537737  1
  Te2-  Te238  1  0.74530754  0.74816994  0.08369313  1
  Te2-  Te239  1  0.74758239  0.74887099  0.41453382  1
  Te2-  Te240  1  0.74498780  0.75135731  0.74973664  1
