# generated using pymatgen
data_Ti27(Cu53Te54)2
_symmetry_space_group_name_H-M   'P 1'
_cell_length_a   17.90252485
_cell_length_b   17.89808782
_cell_length_c   17.90543154
_cell_angle_alpha   89.94823466
_cell_angle_beta   89.99066189
_cell_angle_gamma   89.98785364
_symmetry_Int_Tables_number   1
_chemical_formula_structural   Ti27(Cu53Te54)2
_chemical_formula_sum   'Ti27 Cu106 Te108'
_cell_volume   5737.27305355
_cell_formula_units_Z   1
loop_
 _symmetry_equiv_pos_site_id
 _symmetry_equiv_pos_as_xyz
  1  'x, y, z'
loop_
 _atom_type_symbol
 _atom_type_oxidation_number
  Ti4+  4.0
  Cu+  1.0
  Te2-  -2.0
loop_
 _atom_site_type_symbol
 _atom_site_label
 _atom_site_symmetry_multiplicity
 _atom_site_fract_x
 _atom_site_fract_y
 _atom_site_fract_z
 _atom_site_occupancy
  Ti4+  Ti0  1  0.16859668  0.16560162  0.16465636  1
  Ti4+  Ti1  1  0.16810095  0.16222349  0.49910564  1
  Ti4+  Ti2  1  0.16648161  0.16485563  0.83114900  1
  Ti4+  Ti3  1  0.16491502  0.49735366  0.16236723  1
  Ti4+  Ti4  1  0.16668517  0.49786957  0.49660143  1
  Ti4+  Ti5  1  0.16721135  0.50019417  0.83149565  1
  Ti4+  Ti6  1  0.16397237  0.83236492  0.16513940  1
  Ti4+  Ti7  1  0.16638895  0.83296186  0.49976892  1
  Ti4+  Ti8  1  0.16917949  0.82765379  0.83547955  1
  Ti4+  Ti9  1  0.50083226  0.16654361  0.16790490  1
  Ti4+  Ti10  1  0.49792584  0.17090217  0.50181235  1
  Ti4+  Ti11  1  0.49856986  0.16700613  0.83557221  1
  Ti4+  Ti12  1  0.49731968  0.50086675  0.16705419  1
  Ti4+  Ti13  1  0.49925852  0.50605500  0.49962155  1
  Ti4+  Ti14  1  0.50186879  0.50013826  0.83636376  1
  Ti4+  Ti15  1  0.50117960  0.83335043  0.16965311  1
  Ti4+  Ti16  1  0.49641435  0.83414527  0.49856464  1
  Ti4+  Ti17  1  0.50352897  0.83572790  0.83088042  1
  Ti4+  Ti18  1  0.83528315  0.16495591  0.16803943  1
  Ti4+  Ti19  1  0.83553416  0.16816767  0.49638780  1
  Ti4+  Ti20  1  0.83309574  0.16543779  0.83011284  1
  Ti4+  Ti21  1  0.83254844  0.49907233  0.16706019  1
  Ti4+  Ti22  1  0.83285719  0.50152017  0.50208487  1
  Ti4+  Ti23  1  0.83389602  0.50085112  0.83250637  1
  Ti4+  Ti24  1  0.82910798  0.83584229  0.17091535  1
  Ti4+  Ti25  1  0.83479669  0.83411094  0.50135737  1
  Ti4+  Ti26  1  0.83348757  0.83425673  0.83693768  1
  Cu+  Cu27  1  0.16852571  0.16667971  -0.00387909  1
  Cu+  Cu28  1  0.16793036  0.16537053  0.33277364  1
  Cu+  Cu29  1  0.16835555  0.16661279  0.66431981  1
  Cu+  Cu30  1  0.16469644  0.49579057  -0.00678163  1
  Cu+  Cu31  1  0.16471030  0.49695129  0.32721844  1
  Cu+  Cu32  1  0.17060957  0.50060051  0.66194265  1
  Cu+  Cu33  1  0.16536029  0.82406743  0.00038947  1
  Cu+  Cu34  1  0.16537260  0.83624328  0.33217514  1
  Cu+  Cu35  1  0.16781943  0.83119417  0.66899773  1
  Cu+  Cu36  1  0.49767150  0.16953231  0.00497635  1
  Cu+  Cu37  1  0.50008369  0.17110876  0.33630033  1
  Cu+  Cu38  1  0.49476173  0.16575313  0.66795717  1
  Cu+  Cu39  1  0.50354184  0.49362736  0.00513382  1
  Cu+  Cu40  1  0.49820005  0.50899445  0.33303340  1
  Cu+  Cu41  1  0.49797867  0.50480133  0.67037777  1
  Cu+  Cu42  1  0.50520080  0.83607229  -0.00126962  1
  Cu+  Cu43  1  0.50166639  0.83063181  0.33776273  1
  Cu+  Cu44  1  0.50275365  0.83418161  0.66218930  1
  Cu+  Cu45  1  0.83462178  0.16510764  -0.00214933  1
  Cu+  Cu46  1  0.83643726  0.15969659  0.33331574  1
  Cu+  Cu47  1  0.83422308  0.16726713  0.66215493  1
  Cu+  Cu48  1  0.83216895  0.49991866  -0.00229268  1
  Cu+  Cu49  1  0.83330885  0.49960295  0.33552390  1
  Cu+  Cu50  1  0.83261010  0.50104251  0.66722877  1
  Cu+  Cu51  1  0.83317941  0.83373964  0.00810176  1
  Cu+  Cu52  1  0.83230190  0.83572612  0.33442352  1
  Cu+  Cu53  1  0.83410787  0.83526517  0.66946977  1
  Cu+  Cu54  1  0.16842247  -0.00158966  0.16747952  1
  Cu+  Cu55  1  0.16634685  -0.00370581  0.50151244  1
  Cu+  Cu56  1  0.16603024  -0.00446995  0.83070827  1
  Cu+  Cu57  1  0.16459723  0.33318844  0.16159444  1
  Cu+  Cu58  1  0.16653316  0.32702646  0.49692795  1
  Cu+  Cu59  1  0.16576494  0.33287523  0.83443683  1
  Cu+  Cu60  1  0.16670565  0.66636325  0.16146068  1
  Cu+  Cu61  1  0.16487486  0.66800768  0.49953289  1
  Cu+  Cu62  1  0.16779458  0.66456175  0.83909157  1
  Cu+  Cu63  1  0.49993265  0.00034568  0.17047577  1
  Cu+  Cu64  1  0.49572761  0.00443041  0.50338296  1
  Cu+  Cu65  1  0.50551637  0.00027751  0.83422187  1
  Cu+  Cu66  1  0.50074536  0.33466613  0.16267795  1
  Cu+  Cu67  1  0.49711670  0.34002563  0.50165799  1
  Cu+  Cu68  1  0.50023520  0.33385633  0.83565122  1
  Cu+  Cu69  1  0.50207893  0.66463157  0.17097232  1
  Cu+  Cu70  1  0.49592370  0.66948587  0.49134308  1
  Cu+  Cu71  1  0.49954935  0.66796591  0.83320653  1
  Cu+  Cu72  1  0.82638699  0.00266272  0.17492425  1
  Cu+  Cu73  1  0.83631313  0.00201040  0.49662948  1
  Cu+  Cu74  1  0.82934791  -0.00081647  0.83076770  1
  Cu+  Cu75  1  0.83494570  0.32928477  0.16694473  1
  Cu+  Cu76  1  0.83696980  0.33723172  0.49718395  1
  Cu+  Cu77  1  0.83269568  0.33087678  0.83061189  1
  Cu+  Cu78  1  0.82985613  0.66698421  0.16834498  1
  Cu+  Cu79  1  0.83370539  0.66584280  0.50343780  1
  Cu+  Cu80  1  0.83641283  0.66815146  0.83098682  1
  Cu+  Cu81  1  0.00254240  0.16408984  0.16478202  1
  Cu+  Cu82  1  0.00211061  0.16468905  0.49023383  1
  Cu+  Cu83  1  -0.00198999  0.16345920  0.82786075  1
  Cu+  Cu84  1  0.00038356  0.49954329  0.16285659  1
  Cu+  Cu85  1  -0.00285534  0.49501508  0.49628300  1
  Cu+  Cu86  1  0.00034789  0.49587371  0.83033707  1
  Cu+  Cu87  1  -0.00726730  0.83304269  0.16476675  1
  Cu+  Cu88  1  0.00346314  0.83305241  0.50245695  1
  Cu+  Cu89  1  0.00152183  0.82588851  0.83508647  1
  Cu+  Cu90  1  0.33677650  0.16793340  0.16458684  1
  Cu+  Cu91  1  0.33489309  0.16439898  0.50885135  1
  Cu+  Cu92  1  0.32987635  0.16772428  0.83517501  1
  Cu+  Cu93  1  0.32698501  0.50098721  0.16914922  1
  Cu+  Cu94  1  0.33243857  0.50604213  0.49972729  1
  Cu+  Cu95  1  0.33809291  0.50687550  0.83123325  1
  Cu+  Cu96  1  0.33158804  0.83657139  0.16825894  1
  Cu+  Cu97  1  0.33091342  0.83425985  0.50001102  1
  Cu+  Cu98  1  0.34063027  0.82847678  0.83635909  1
  Cu+  Cu99  1  0.66989309  0.16467854  0.17181479  1
  Cu+  Cu100  1  0.66377686  0.17290674  0.49972468  1
  Cu+  Cu101  1  0.66630297  0.16494507  0.83156404  1
  Cu+  Cu102  1  0.66571750  0.49610091  0.16683883  1
  Cu+  Cu103  1  0.66841005  0.50320509  0.50377263  1
  Cu+  Cu104  1  0.66891827  0.50033056  0.83582471  1
  Cu+  Cu105  1  0.66714484  0.83542770  0.17041102  1
  Cu+  Cu106  1  0.66567000  0.83643025  0.49972451  1
  Cu+  Cu107  1  0.66708057  0.84403321  0.83459944  1
  Cu+  Cu108  1  0.07755631  0.25677565  0.40191394  1
  Cu+  Cu109  1  0.41220792  0.59798644  0.74057427  1
  Cu+  Cu110  1  0.26232819  0.58604747  0.92498435  1
  Cu+  Cu111  1  0.59929081  0.74342260  0.41214154  1
  Cu+  Cu112  1  0.91894098  0.73743226  0.08116881  1
  Cu+  Cu113  1  0.26427068  0.74299831  0.08074590  1
  Cu+  Cu114  1  0.40183032  0.59560779  0.40358339  1
  Cu+  Cu115  1  0.06860838  0.40094188  0.92105364  1
  Cu+  Cu116  1  0.07062185  0.73692819  0.92704811  1
  Cu+  Cu117  1  0.92682316  0.74132802  0.73816405  1
  Cu+  Cu118  1  0.40724561  0.06957358  0.59988554  1
  Cu+  Cu119  1  0.25863464  0.92924947  0.26121545  1
  Cu+  Cu120  1  0.25407043  0.59730490  0.58969019  1
  Cu+  Cu121  1  0.93177042  0.06740520  0.40441781  1
  Cu+  Cu122  1  0.73508141  0.07399540  0.26573022  1
  Cu+  Cu123  1  0.59450309  0.93164140  0.93186255  1
  Cu+  Cu124  1  0.59845740  0.40290701  0.07504078  1
  Cu+  Cu125  1  0.74203940  0.92882314  0.73583210  1
  Cu+  Cu126  1  0.40623126  0.26376397  0.07755642  1
  Cu+  Cu127  1  0.25939196  0.25908924  0.59114466  1
  Cu+  Cu128  1  0.59789183  0.58719739  0.25674568  1
  Cu+  Cu129  1  0.25705516  0.25973530  0.92530095  1
  Cu+  Cu130  1  0.92391711  0.40993652  0.40311251  1
  Cu+  Cu131  1  0.24773589  0.59408545  0.25756244  1
  Cu+  Cu132  1  0.42275056  0.74115060  0.93018369  1
  Te2-  Te133  1  0.25337148  0.25486084  0.07800451  1
  Te2-  Te134  1  0.25671999  0.24707943  0.41450505  1
  Te2-  Te135  1  0.25267439  0.25403539  0.74599341  1
  Te2-  Te136  1  0.25310110  0.58502207  0.07516246  1
  Te2-  Te137  1  0.24884060  0.58861621  0.40888042  1
  Te2-  Te138  1  0.25377195  0.59030689  0.74450178  1
  Te2-  Te139  1  0.24948797  0.91637060  0.07727273  1
  Te2-  Te140  1  0.25303117  0.92047426  0.41379922  1
  Te2-  Te141  1  0.25490580  0.91250645  0.75173435  1
  Te2-  Te142  1  0.59156121  0.25025732  0.08250570  1
  Te2-  Te143  1  0.58233844  0.25871146  0.41659950  1
  Te2-  Te144  1  0.58216606  0.25077233  0.74896203  1
  Te2-  Te145  1  0.58559844  0.58617201  0.08200026  1
  Te2-  Te146  1  0.59229527  0.58924732  0.41322900  1
  Te2-  Te147  1  0.58757745  0.58619009  0.75156883  1
  Te2-  Te148  1  0.58648988  0.92063930  0.08535591  1
  Te2-  Te149  1  0.58179014  0.92331492  0.41707892  1
  Te2-  Te150  1  0.58654507  0.92301755  0.74065979  1
  Te2-  Te151  1  0.92013523  0.24903501  0.08049394  1
  Te2-  Te152  1  0.92107193  0.25565735  0.40688374  1
  Te2-  Te153  1  0.91842865  0.25133132  0.74476405  1
  Te2-  Te154  1  0.91693530  0.58460718  0.08033415  1
  Te2-  Te155  1  0.91871108  0.58728973  0.41478081  1
  Te2-  Te156  1  0.92149307  0.58517829  0.74567111  1
  Te2-  Te157  1  0.91314371  0.92524032  0.08654985  1
  Te2-  Te158  1  0.92226911  0.91650552  0.41407008  1
  Te2-  Te159  1  0.92242625  0.91762468  0.75243450  1
  Te2-  Te160  1  0.25591658  0.08230589  0.25127439  1
  Te2-  Te161  1  0.25173561  0.07446157  0.58905549  1
  Te2-  Te162  1  0.25039921  0.07718128  0.91650154  1
  Te2-  Te163  1  0.24940882  0.40981743  0.24933159  1
  Te2-  Te164  1  0.25370522  0.41239970  0.58134172  1
  Te2-  Te165  1  0.25812452  0.41513691  0.91577511  1
  Te2-  Te166  1  0.25103851  0.74669427  0.25319624  1
  Te2-  Te167  1  0.25304657  0.74789082  0.58648527  1
  Te2-  Te168  1  0.26180670  0.74118612  0.92397215  1
  Te2-  Te169  1  0.58358317  0.08140468  0.25760456  1
  Te2-  Te170  1  0.58504732  0.08535772  0.58589742  1
  Te2-  Te171  1  0.58622770  0.08435507  0.92246949  1
  Te2-  Te172  1  0.58056859  0.41528052  0.25512597  1
  Te2-  Te173  1  0.58221415  0.42132314  0.58679449  1
  Te2-  Te174  1  0.58872334  0.41224110  0.92039492  1
  Te2-  Te175  1  0.58882800  0.74625167  0.25575406  1
  Te2-  Te176  1  0.58390804  0.74654450  0.58105917  1
  Te2-  Te177  1  0.58963813  0.74876776  0.91617004  1
  Te2-  Te178  1  0.92531476  0.07704577  0.25190398  1
  Te2-  Te179  1  0.92128241  0.08317827  0.58164852  1
  Te2-  Te180  1  0.91780766  0.07922445  0.91507327  1
  Te2-  Te181  1  0.92024438  0.41388366  0.25037424  1
  Te2-  Te182  1  0.91872422  0.41503518  0.58837542  1
  Te2-  Te183  1  0.91696063  0.41155421  0.91782819  1
  Te2-  Te184  1  0.91575286  0.74768194  0.25453861  1
  Te2-  Te185  1  0.92037866  0.74804333  0.58646421  1
  Te2-  Te186  1  0.91752441  0.74442776  0.92607969  1
  Te2-  Te187  1  0.08194768  0.25155165  0.24919914  1
  Te2-  Te188  1  0.07932640  0.24780453  0.58288478  1
  Te2-  Te189  1  0.07656513  0.24875758  0.91700842  1
  Te2-  Te190  1  0.08026353  0.58529781  0.24802979  1
  Te2-  Te191  1  0.07924115  0.58178266  0.58096060  1
  Te2-  Te192  1  0.07628375  0.58397899  0.91839165  1
  Te2-  Te193  1  0.07734095  0.91738566  0.24882350  1
  Te2-  Te194  1  0.08281629  0.91702803  0.58883454  1
  Te2-  Te195  1  0.08335065  0.91407263  0.91848064  1
  Te2-  Te196  1  0.41585073  0.25442118  0.25179241  1
  Te2-  Te197  1  0.41351563  0.25930215  0.58973231  1
  Te2-  Te198  1  0.41228940  0.25555951  0.92158983  1
  Te2-  Te199  1  0.40643898  0.59043206  0.25151597  1
  Te2-  Te200  1  0.41242042  0.59303475  0.58732370  1
  Te2-  Te201  1  0.41787373  0.58654775  0.92806158  1
  Te2-  Te202  1  0.41559952  0.91817500  0.25563424  1
  Te2-  Te203  1  0.41092419  0.91836398  0.58751130  1
  Te2-  Te204  1  0.41687061  0.92055698  0.91828361  1
  Te2-  Te205  1  0.75122039  0.25088064  0.25553411  1
  Te2-  Te206  1  0.75122777  0.25466987  0.58114351  1
  Te2-  Te207  1  0.74833554  0.24970486  0.91663365  1
  Te2-  Te208  1  0.74830064  0.58425761  0.25405368  1
  Te2-  Te209  1  0.74784991  0.58787736  0.58902208  1
  Te2-  Te210  1  0.74968763  0.58793292  0.91779105  1
  Te2-  Te211  1  0.74209942  0.92039247  0.26011465  1
  Te2-  Te212  1  0.74896517  0.92183325  0.58335044  1
  Te2-  Te213  1  0.74989194  0.92203254  0.92621374  1
  Te2-  Te214  1  0.08536971  0.08052334  0.07973688  1
  Te2-  Te215  1  0.08489093  0.07374462  0.40993347  1
  Te2-  Te216  1  0.08262006  0.07918959  0.74515107  1
  Te2-  Te217  1  0.07805098  0.41197793  0.07602118  1
  Te2-  Te218  1  0.08077535  0.41100078  0.40935017  1
  Te2-  Te219  1  0.08484557  0.41475497  0.74335861  1
  Te2-  Te220  1  0.07344593  0.74314968  0.08081152  1
  Te2-  Te221  1  0.08105509  0.74880448  0.41334157  1
  Te2-  Te222  1  0.08397456  0.74211300  0.74689301  1
  Te2-  Te223  1  0.41606157  0.07838035  0.08285706  1
  Te2-  Te224  1  0.41342358  0.08533610  0.41478262  1
  Te2-  Te225  1  0.41215073  0.07926693  0.75288055  1
  Te2-  Te226  1  0.40779237  0.41623310  0.08149347  1
  Te2-  Te227  1  0.41421254  0.42091126  0.41418505  1
  Te2-  Te228  1  0.41572530  0.41541249  0.75049917  1
  Te2-  Te229  1  0.41721357  0.74652732  0.08287291  1
  Te2-  Te230  1  0.40590468  0.74995623  0.41049771  1
  Te2-  Te231  1  0.41667595  0.74921942  0.74244756  1
  Te2-  Te232  1  0.74843412  0.08223067  0.08112291  1
  Te2-  Te233  1  0.74302789  0.08175273  0.41714394  1
  Te2-  Te234  1  0.74591747  0.08175018  0.74203533  1
  Te2-  Te235  1  0.74986364  0.41163609  0.08078022  1
  Te2-  Te236  1  0.74535472  0.41660141  0.41616875  1
  Te2-  Te237  1  0.74796385  0.41549466  0.74831293  1
  Te2-  Te238  1  0.74367654  0.74855684  0.08430481  1
  Te2-  Te239  1  0.75060907  0.74753905  0.41560192  1
  Te2-  Te240  1  0.74579266  0.75110891  0.75141395  1
