# generated using pymatgen
data_Ti27(Cu53Te54)2
_symmetry_space_group_name_H-M   'P 1'
_cell_length_a   17.87414940
_cell_length_b   17.87418205
_cell_length_c   17.87365700
_cell_angle_alpha   89.98980177
_cell_angle_beta   90.02555376
_cell_angle_gamma   90.02362995
_symmetry_Int_Tables_number   1
_chemical_formula_structural   Ti27(Cu53Te54)2
_chemical_formula_sum   'Ti27 Cu106 Te108'
_cell_volume   5710.37846906
_cell_formula_units_Z   1
loop_
 _symmetry_equiv_pos_site_id
 _symmetry_equiv_pos_as_xyz
  1  'x, y, z'
loop_
 _atom_type_symbol
 _atom_type_oxidation_number
  Ti4+  4.0
  Cu+  1.0
  Te2-  -2.0
loop_
 _atom_site_type_symbol
 _atom_site_label
 _atom_site_symmetry_multiplicity
 _atom_site_fract_x
 _atom_site_fract_y
 _atom_site_fract_z
 _atom_site_occupancy
  Ti4+  Ti0  1  0.16616282  0.16522470  0.16583809  1
  Ti4+  Ti1  1  0.16439678  0.16573051  0.49961958  1
  Ti4+  Ti2  1  0.16516983  0.16776465  0.83381184  1
  Ti4+  Ti3  1  0.16870691  0.49842312  0.16545437  1
  Ti4+  Ti4  1  0.16290562  0.49918719  0.49947815  1
  Ti4+  Ti5  1  0.16825897  0.50050821  0.83052453  1
  Ti4+  Ti6  1  0.16932330  0.83325053  0.16521066  1
  Ti4+  Ti7  1  0.16875766  0.82795914  0.50036442  1
  Ti4+  Ti8  1  0.16614987  0.83142670  0.83235398  1
  Ti4+  Ti9  1  0.49931936  0.16585650  0.16765258  1
  Ti4+  Ti10  1  0.49736634  0.16558905  0.49529635  1
  Ti4+  Ti11  1  0.49631284  0.16630840  0.83263685  1
  Ti4+  Ti12  1  0.50262418  0.50067683  0.16795798  1
  Ti4+  Ti13  1  0.50208078  0.49728729  0.50315737  1
  Ti4+  Ti14  1  0.50153445  0.50562783  0.83581364  1
  Ti4+  Ti15  1  0.49909273  0.83250240  0.16799660  1
  Ti4+  Ti16  1  0.50208620  0.83396801  0.50135886  1
  Ti4+  Ti17  1  0.49880634  0.83559632  0.83455912  1
  Ti4+  Ti18  1  0.83459469  0.16855891  0.16821905  1
  Ti4+  Ti19  1  0.83226221  0.16531731  0.50173798  1
  Ti4+  Ti20  1  0.83235202  0.16842623  0.83250757  1
  Ti4+  Ti21  1  0.83424948  0.50043268  0.16303917  1
  Ti4+  Ti22  1  0.83040318  0.49981548  0.49914215  1
  Ti4+  Ti23  1  0.83099294  0.50100001  0.83106015  1
  Ti4+  Ti24  1  0.83493384  0.83453188  0.16798324  1
  Ti4+  Ti25  1  0.83701290  0.83402411  0.50074489  1
  Ti4+  Ti26  1  0.83334853  0.83652852  0.83560181  1
  Cu+  Cu27  1  0.16388357  0.16977157  0.00101853  1
  Cu+  Cu28  1  0.16604365  0.16409218  0.33315864  1
  Cu+  Cu29  1  0.16514413  0.16787809  0.66487412  1
  Cu+  Cu30  1  0.16885676  0.50001526  -0.00329291  1
  Cu+  Cu31  1  0.16586082  0.49889365  0.33353990  1
  Cu+  Cu32  1  0.16758921  0.50492836  0.66223565  1
  Cu+  Cu33  1  0.16438609  0.83705217  0.00136152  1
  Cu+  Cu34  1  0.17042286  0.83056847  0.33150005  1
  Cu+  Cu35  1  0.16785471  0.82340842  0.66594353  1
  Cu+  Cu36  1  0.49909729  0.16881246  -0.00310518  1
  Cu+  Cu37  1  0.49818998  0.15788240  0.33061553  1
  Cu+  Cu38  1  0.49555106  0.16616153  0.66407841  1
  Cu+  Cu39  1  0.50797074  0.50511615  0.00269354  1
  Cu+  Cu40  1  0.49820957  0.49658518  0.33617102  1
  Cu+  Cu41  1  0.50872301  0.50489875  0.66867237  1
  Cu+  Cu42  1  0.49404479  0.83278380  0.00242920  1
  Cu+  Cu43  1  0.50258768  0.83179580  0.33572335  1
  Cu+  Cu44  1  0.49687824  0.83674870  0.66794865  1
  Cu+  Cu45  1  0.83194435  0.16926286  -0.00058353  1
  Cu+  Cu46  1  0.83354876  0.16795990  0.33673402  1
  Cu+  Cu47  1  0.83641119  0.16252726  0.67160209  1
  Cu+  Cu48  1  0.83309387  0.50255030  -0.00214972  1
  Cu+  Cu49  1  0.83014006  0.49868857  0.32752789  1
  Cu+  Cu50  1  0.83247357  0.49679179  0.66682862  1
  Cu+  Cu51  1  0.83353781  0.83611974  0.00064972  1
  Cu+  Cu52  1  0.83774454  0.83159843  0.33378920  1
  Cu+  Cu53  1  0.83364738  0.83664980  0.67130974  1
  Cu+  Cu54  1  0.16438087  -0.00340080  0.16289634  1
  Cu+  Cu55  1  0.16657827  -0.00413507  0.50089129  1
  Cu+  Cu56  1  0.16647813  0.00036499  0.83545895  1
  Cu+  Cu57  1  0.16684298  0.33071077  0.16366135  1
  Cu+  Cu58  1  0.16274767  0.33279655  0.49773478  1
  Cu+  Cu59  1  0.16549800  0.33438012  0.83263788  1
  Cu+  Cu60  1  0.17086441  0.66616338  0.16639784  1
  Cu+  Cu61  1  0.16463709  0.66310191  0.50733579  1
  Cu+  Cu62  1  0.17146491  0.66617441  0.82956893  1
  Cu+  Cu63  1  0.49397965  -0.00143338  0.16851177  1
  Cu+  Cu64  1  0.50124596  0.00114668  0.49348471  1
  Cu+  Cu65  1  0.49638827  0.00191429  0.82883138  1
  Cu+  Cu66  1  0.50067639  0.33565686  0.16749408  1
  Cu+  Cu67  1  0.50237524  0.32634475  0.50164299  1
  Cu+  Cu68  1  0.49669961  0.33450521  0.83285381  1
  Cu+  Cu69  1  0.50127284  0.66637719  0.17023708  1
  Cu+  Cu70  1  0.50480923  0.66662758  0.50380764  1
  Cu+  Cu71  1  0.49961753  0.67090424  0.84587074  1
  Cu+  Cu72  1  0.83387186  0.00173142  0.17066230  1
  Cu+  Cu73  1  0.83917947  0.00120239  0.49948445  1
  Cu+  Cu74  1  0.83154131  0.00191965  0.82986218  1
  Cu+  Cu75  1  0.83274291  0.33693316  0.16842851  1
  Cu+  Cu76  1  0.82414990  0.33134577  0.50051050  1
  Cu+  Cu77  1  0.83381738  0.33495945  0.83066810  1
  Cu+  Cu78  1  0.83451199  0.66637395  0.16331435  1
  Cu+  Cu79  1  0.83648014  0.66804989  0.49599323  1
  Cu+  Cu80  1  0.83201776  0.66952476  0.83395923  1
  Cu+  Cu81  1  0.00149824  0.16998150  0.16503546  1
  Cu+  Cu82  1  -0.00015019  0.16408639  0.49985789  1
  Cu+  Cu83  1  -0.00077031  0.16622629  0.83284027  1
  Cu+  Cu84  1  0.00070313  0.50124533  0.16383651  1
  Cu+  Cu85  1  -0.00327343  0.49919891  0.49608894  1
  Cu+  Cu86  1  0.00216099  0.50067834  0.82967567  1
  Cu+  Cu87  1  0.00319890  0.83435140  0.16478630  1
  Cu+  Cu88  1  0.00275485  0.82631251  0.49833399  1
  Cu+  Cu89  1  -0.00290657  0.82993725  0.83405192  1
  Cu+  Cu90  1  0.33265857  0.16219002  0.17101658  1
  Cu+  Cu91  1  0.32826824  0.16545931  0.49794060  1
  Cu+  Cu92  1  0.32978147  0.16755544  0.83364370  1
  Cu+  Cu93  1  0.33524578  0.49866678  0.16891964  1
  Cu+  Cu94  1  0.33162632  0.49833550  0.49995149  1
  Cu+  Cu95  1  0.33593036  0.50180537  0.83442653  1
  Cu+  Cu96  1  0.33526882  0.83664843  0.16283871  1
  Cu+  Cu97  1  0.33747781  0.83270074  0.49941845  1
  Cu+  Cu98  1  0.33357571  0.83167535  0.83227983  1
  Cu+  Cu99  1  0.66693198  0.16814294  0.16667730  1
  Cu+  Cu100  1  0.66373474  0.16889231  0.49379057  1
  Cu+  Cu101  1  0.66506942  0.16775360  0.83700953  1
  Cu+  Cu102  1  0.66908770  0.49525494  0.16281200  1
  Cu+  Cu103  1  0.66730023  0.49914459  0.50831787  1
  Cu+  Cu104  1  0.66092655  0.50445411  0.83422331  1
  Cu+  Cu105  1  0.66677235  0.83476607  0.16851157  1
  Cu+  Cu106  1  0.66993410  0.83559948  0.50389531  1
  Cu+  Cu107  1  0.66957879  0.84099684  0.83382818  1
  Cu+  Cu108  1  0.40871044  0.93136627  0.07071978  1
  Cu+  Cu109  1  0.06899610  0.92580408  0.07146249  1
  Cu+  Cu110  1  0.40028126  0.74120948  0.93193100  1
  Cu+  Cu111  1  0.40380497  0.40841736  0.26165727  1
  Cu+  Cu112  1  0.58573734  0.40529807  0.74483871  1
  Cu+  Cu113  1  0.59436529  0.40259512  0.07326305  1
  Cu+  Cu114  1  0.93074142  0.73769732  0.40100415  1
  Cu+  Cu115  1  0.73810893  0.25906963  0.40477671  1
  Cu+  Cu116  1  0.59257762  0.24519572  0.59512378  1
  Cu+  Cu117  1  0.59503712  0.06978511  0.40170562  1
  Cu+  Cu118  1  0.07187768  0.26387822  0.07252619  1
  Cu+  Cu119  1  0.74050072  0.40881959  0.25674335  1
  Cu+  Cu120  1  0.73879512  0.93039248  0.73820058  1
  Cu+  Cu121  1  0.40049264  0.06616862  0.26051743  1
  Cu+  Cu122  1  0.93205675  0.07066874  0.74629125  1
  Cu+  Cu123  1  0.26434214  0.58918060  0.58863461  1
  Cu+  Cu124  1  0.93009058  0.07670992  0.40480664  1
  Cu+  Cu125  1  0.59903302  0.59990707  0.59309641  1
  Cu+  Cu126  1  0.40188204  0.92933657  0.73696262  1
  Cu+  Cu127  1  0.74440144  0.40460362  0.59703025  1
  Cu+  Cu128  1  0.07045158  0.73695622  0.59443924  1
  Cu+  Cu129  1  0.93143896  0.40656163  0.74162547  1
  Cu+  Cu130  1  0.59649510  0.60247342  0.93309897  1
  Cu+  Cu131  1  0.26580823  0.74045245  0.74037769  1
  Cu+  Cu132  1  0.92015028  0.73844940  0.74454517  1
  Te2-  Te133  1  0.25591838  0.24910031  0.08234725  1
  Te2-  Te134  1  0.24899199  0.25183033  0.41339838  1
  Te2-  Te135  1  0.24974540  0.25252429  0.74708637  1
  Te2-  Te136  1  0.25492220  0.58301540  0.08099420  1
  Te2-  Te137  1  0.25002091  0.58577370  0.41539621  1
  Te2-  Te138  1  0.25911338  0.58639236  0.74434685  1
  Te2-  Te139  1  0.25502797  0.92216168  0.07684027  1
  Te2-  Te140  1  0.25253690  0.91539739  0.41585216  1
  Te2-  Te141  1  0.24975885  0.91866311  0.74531990  1
  Te2-  Te142  1  0.58524746  0.25104123  0.08029904  1
  Te2-  Te143  1  0.58255071  0.25358754  0.40484676  1
  Te2-  Te144  1  0.58583103  0.25176339  0.74755222  1
  Te2-  Te145  1  0.59143051  0.59162259  0.08562990  1
  Te2-  Te146  1  0.58667108  0.58169887  0.41647902  1
  Te2-  Te147  1  0.58627011  0.59774232  0.75004197  1
  Te2-  Te148  1  0.58276604  0.91937085  0.08222936  1
  Te2-  Te149  1  0.59000250  0.91706384  0.41345805  1
  Te2-  Te150  1  0.58520015  0.92171496  0.74651176  1
  Te2-  Te151  1  0.91699062  0.25568295  0.08042958  1
  Te2-  Te152  1  0.91788608  0.25470779  0.41910557  1
  Te2-  Te153  1  0.92100257  0.25461337  0.74550954  1
  Te2-  Te154  1  0.92033845  0.58613783  0.07795518  1
  Te2-  Te155  1  0.91652665  0.58263897  0.40934331  1
  Te2-  Te156  1  0.91768007  0.58604174  0.74516212  1
  Te2-  Te157  1  0.91833013  0.92256831  0.08118828  1
  Te2-  Te158  1  0.92444687  0.91876959  0.41423632  1
  Te2-  Te159  1  0.92416199  0.92075950  0.74777741  1
  Te2-  Te160  1  0.24829749  0.07531200  0.25317650  1
  Te2-  Te161  1  0.24967934  0.07997258  0.58517064  1
  Te2-  Te162  1  0.25000787  0.08281994  0.92066845  1
  Te2-  Te163  1  0.25146304  0.41072882  0.25330704  1
  Te2-  Te164  1  0.24906540  0.41212031  0.58405292  1
  Te2-  Te165  1  0.25348940  0.41475360  0.91578750  1
  Te2-  Te166  1  0.25681031  0.74821061  0.24951170  1
  Te2-  Te167  1  0.26200860  0.74322006  0.58633878  1
  Te2-  Te168  1  0.24982126  0.74788781  0.92284092  1
  Te2-  Te169  1  0.58908297  0.07640097  0.24827554  1
  Te2-  Te170  1  0.58496640  0.08199408  0.58319926  1
  Te2-  Te171  1  0.58187211  0.08039503  0.91762228  1
  Te2-  Te172  1  0.58796484  0.41326993  0.25613564  1
  Te2-  Te173  1  0.58865267  0.40559935  0.59004280  1
  Te2-  Te174  1  0.58560516  0.41196421  0.91969909  1
  Te2-  Te175  1  0.58666715  0.74843387  0.25319007  1
  Te2-  Te176  1  0.58850198  0.75173852  0.59073980  1
  Te2-  Te177  1  0.59083822  0.75645210  0.92308291  1
  Te2-  Te178  1  0.92149966  0.08340274  0.25324787  1
  Te2-  Te179  1  0.92179749  0.07998178  0.58872155  1
  Te2-  Te180  1  0.91613364  0.08187654  0.91873535  1
  Te2-  Te181  1  0.92171089  0.41636231  0.25057988  1
  Te2-  Te182  1  0.91754174  0.41108065  0.58283387  1
  Te2-  Te183  1  0.91834503  0.41761824  0.91638000  1
  Te2-  Te184  1  0.92310640  0.74587411  0.24918591  1
  Te2-  Te185  1  0.91820291  0.74471611  0.59080112  1
  Te2-  Te186  1  0.91723082  0.74786646  0.92230649  1
  Te2-  Te187  1  0.08276458  0.25181944  0.25331537  1
  Te2-  Te188  1  0.07857462  0.25189734  0.58412204  1
  Te2-  Te189  1  0.07748371  0.25493195  0.91787223  1
  Te2-  Te190  1  0.08343097  0.58472686  0.24964759  1
  Te2-  Te191  1  0.07126694  0.58343878  0.58733144  1
  Te2-  Te192  1  0.08348416  0.58611243  0.91542722  1
  Te2-  Te193  1  0.08358641  0.91663525  0.25388921  1
  Te2-  Te194  1  0.08303841  0.91287384  0.58622736  1
  Te2-  Te195  1  0.07823733  0.91841987  0.91608489  1
  Te2-  Te196  1  0.41463203  0.25305322  0.25362389  1
  Te2-  Te197  1  0.40950450  0.24969981  0.58233200  1
  Te2-  Te198  1  0.41227506  0.25344536  0.91729953  1
  Te2-  Te199  1  0.41595547  0.58507377  0.25486437  1
  Te2-  Te200  1  0.41671530  0.58437503  0.58736920  1
  Te2-  Te201  1  0.41150673  0.58556193  0.92595714  1
  Te2-  Te202  1  0.41218338  0.91511355  0.25866271  1
  Te2-  Te203  1  0.41433142  0.92329992  0.58309522  1
  Te2-  Te204  1  0.41041275  0.92279601  0.91795862  1
  Te2-  Te205  1  0.74500240  0.25416826  0.25390613  1
  Te2-  Te206  1  0.74484139  0.24870811  0.59311619  1
  Te2-  Te207  1  0.74797419  0.25519281  0.91772633  1
  Te2-  Te208  1  0.74658912  0.58655472  0.24744595  1
  Te2-  Te209  1  0.75115232  0.59126835  0.58749724  1
  Te2-  Te210  1  0.74768602  0.58857278  0.91851729  1
  Te2-  Te211  1  0.74992299  0.91819184  0.25493299  1
  Te2-  Te212  1  0.75116326  0.92262031  0.58549258  1
  Te2-  Te213  1  0.74959785  0.92412789  0.92196646  1
  Te2-  Te214  1  0.07809675  0.07976760  0.07868248  1
  Te2-  Te215  1  0.08133235  0.07623541  0.41328618  1
  Te2-  Te216  1  0.08276190  0.07951451  0.74601853  1
  Te2-  Te217  1  0.08126409  0.41554708  0.07756726  1
  Te2-  Te218  1  0.07830485  0.41387972  0.41239971  1
  Te2-  Te219  1  0.08388665  0.41495177  0.74243018  1
  Te2-  Te220  1  0.08370597  0.74553516  0.08094653  1
  Te2-  Te221  1  0.08505947  0.74132761  0.41052366  1
  Te2-  Te222  1  0.07672633  0.74204572  0.74858068  1
  Te2-  Te223  1  0.41321435  0.08357630  0.07777300  1
  Te2-  Te224  1  0.40664543  0.07801963  0.41321924  1
  Te2-  Te225  1  0.40892977  0.08310176  0.74458998  1
  Te2-  Te226  1  0.41768822  0.41766708  0.07850408  1
  Te2-  Te227  1  0.41396773  0.41040265  0.41882246  1
  Te2-  Te228  1  0.41738906  0.42028663  0.74654412  1
  Te2-  Te229  1  0.41242494  0.74172282  0.08405003  1
  Te2-  Te230  1  0.41907525  0.74546891  0.41709727  1
  Te2-  Te231  1  0.41785566  0.74323546  0.74773379  1
  Te2-  Te232  1  0.74999383  0.08322957  0.08340355  1
  Te2-  Te233  1  0.74715085  0.07731341  0.41400245  1
  Te2-  Te234  1  0.74119012  0.08350760  0.74700653  1
  Te2-  Te235  1  0.74950195  0.41109556  0.07372261  1
  Te2-  Te236  1  0.74118770  0.41481185  0.41151516  1
  Te2-  Te237  1  0.74019001  0.41286381  0.74865840  1
  Te2-  Te238  1  0.74841758  0.75116911  0.08184983  1
  Te2-  Te239  1  0.74824699  0.75081788  0.41608467  1
  Te2-  Te240  1  0.74557561  0.75026168  0.74918731  1
