# generated using pymatgen
data_Ti27(Cu53Te54)2
_symmetry_space_group_name_H-M   'P 1'
_cell_length_a   17.88968583
_cell_length_b   17.88478630
_cell_length_c   17.88251787
_cell_angle_alpha   90.01709330
_cell_angle_beta   89.98597319
_cell_angle_gamma   89.99344521
_symmetry_Int_Tables_number   1
_chemical_formula_structural   Ti27(Cu53Te54)2
_chemical_formula_sum   'Ti27 Cu106 Te108'
_cell_volume   5721.56849754
_cell_formula_units_Z   1
loop_
 _symmetry_equiv_pos_site_id
 _symmetry_equiv_pos_as_xyz
  1  'x, y, z'
loop_
 _atom_type_symbol
 _atom_type_oxidation_number
  Ti4+  4.0
  Cu+  1.0
  Te2-  -2.0
loop_
 _atom_site_type_symbol
 _atom_site_label
 _atom_site_symmetry_multiplicity
 _atom_site_fract_x
 _atom_site_fract_y
 _atom_site_fract_z
 _atom_site_occupancy
  Ti4+  Ti0  1  0.16657781  0.16794405  0.16889134  1
  Ti4+  Ti1  1  0.16523537  0.16801980  0.49700451  1
  Ti4+  Ti2  1  0.16735506  0.16740123  0.83370535  1
  Ti4+  Ti3  1  0.16829803  0.49880093  0.16688040  1
  Ti4+  Ti4  1  0.16456043  0.49906779  0.49996770  1
  Ti4+  Ti5  1  0.16354621  0.49822621  0.83284109  1
  Ti4+  Ti6  1  0.16646469  0.83037359  0.16488362  1
  Ti4+  Ti7  1  0.16882261  0.83308934  0.49804858  1
  Ti4+  Ti8  1  0.16680956  0.83326403  0.83277809  1
  Ti4+  Ti9  1  0.50191243  0.16588466  0.16978710  1
  Ti4+  Ti10  1  0.49705375  0.16884514  0.50269009  1
  Ti4+  Ti11  1  0.50277699  0.16536473  0.83472974  1
  Ti4+  Ti12  1  0.50219731  0.50158295  0.16603205  1
  Ti4+  Ti13  1  0.49929336  0.50485184  0.49795041  1
  Ti4+  Ti14  1  0.50071879  0.49831210  0.83337389  1
  Ti4+  Ti15  1  0.50090814  0.83215488  0.16445510  1
  Ti4+  Ti16  1  0.50147055  0.83391055  0.49978145  1
  Ti4+  Ti17  1  0.49869694  0.82921519  0.83258334  1
  Ti4+  Ti18  1  0.83354978  0.16707798  0.16763349  1
  Ti4+  Ti19  1  0.83091497  0.16429939  0.50025599  1
  Ti4+  Ti20  1  0.83638107  0.16655007  0.83566643  1
  Ti4+  Ti21  1  0.83080818  0.49834654  0.16554253  1
  Ti4+  Ti22  1  0.83067752  0.50138544  0.50249824  1
  Ti4+  Ti23  1  0.83668077  0.50268637  0.83422085  1
  Ti4+  Ti24  1  0.83494599  0.83330019  0.16306673  1
  Ti4+  Ti25  1  0.83520124  0.83291975  0.50044063  1
  Ti4+  Ti26  1  0.83062673  0.83664062  0.83400840  1
  Cu+  Cu27  1  0.16980027  0.16665021  0.00110784  1
  Cu+  Cu28  1  0.16885242  0.17009426  0.33055140  1
  Cu+  Cu29  1  0.16432827  0.16890674  0.66466943  1
  Cu+  Cu30  1  0.16343290  0.50075612  0.00015474  1
  Cu+  Cu31  1  0.16509705  0.49364010  0.33326309  1
  Cu+  Cu32  1  0.16677922  0.49994047  0.66871004  1
  Cu+  Cu33  1  0.16588436  0.83150061  -0.00006715  1
  Cu+  Cu34  1  0.17067787  0.83163471  0.33123427  1
  Cu+  Cu35  1  0.16689920  0.83343987  0.66595734  1
  Cu+  Cu36  1  0.50108983  0.16419457  0.00098969  1
  Cu+  Cu37  1  0.50170547  0.16460478  0.33994993  1
  Cu+  Cu38  1  0.49747294  0.17072275  0.67238445  1
  Cu+  Cu39  1  0.49930754  0.50059797  0.00249145  1
  Cu+  Cu40  1  0.50349111  0.50863171  0.33003603  1
  Cu+  Cu41  1  0.49994584  0.50173328  0.66203157  1
  Cu+  Cu42  1  0.50598975  0.82889923  -0.00143296  1
  Cu+  Cu43  1  0.50183896  0.83493079  0.33254800  1
  Cu+  Cu44  1  0.49646210  0.82901835  0.66598779  1
  Cu+  Cu45  1  0.83769685  0.16675351  0.00550119  1
  Cu+  Cu46  1  0.82958439  0.16266716  0.33191054  1
  Cu+  Cu47  1  0.83293866  0.16396456  0.66408335  1
  Cu+  Cu48  1  0.83073334  0.49733381  -0.00391278  1
  Cu+  Cu49  1  0.82867186  0.49845918  0.33548573  1
  Cu+  Cu50  1  0.83700866  0.50682545  0.66943216  1
  Cu+  Cu51  1  0.83130854  0.84163263  -0.00169516  1
  Cu+  Cu52  1  0.83703280  0.83143711  0.33443240  1
  Cu+  Cu53  1  0.83129611  0.83386928  0.66864462  1
  Cu+  Cu54  1  0.16661631  -0.00302555  0.16685775  1
  Cu+  Cu55  1  0.16766067  0.00032183  0.49425548  1
  Cu+  Cu56  1  0.16953931  0.00178389  0.83260785  1
  Cu+  Cu57  1  0.16789172  0.33379889  0.17566034  1
  Cu+  Cu58  1  0.16663413  0.33182963  0.50077660  1
  Cu+  Cu59  1  0.16073451  0.33151487  0.83065036  1
  Cu+  Cu60  1  0.16513194  0.66369640  0.16266824  1
  Cu+  Cu61  1  0.16429786  0.66820149  0.50119239  1
  Cu+  Cu62  1  0.16494203  0.66503200  0.83445644  1
  Cu+  Cu63  1  0.49844649  0.00135009  0.16990207  1
  Cu+  Cu64  1  0.50048252  0.00143203  0.49962877  1
  Cu+  Cu65  1  0.50028897  -0.00234206  0.83501576  1
  Cu+  Cu66  1  0.50217281  0.33408942  0.17054979  1
  Cu+  Cu67  1  0.49337663  0.34016498  0.49932837  1
  Cu+  Cu68  1  0.50387531  0.32901712  0.83279657  1
  Cu+  Cu69  1  0.50526656  0.66852066  0.16158348  1
  Cu+  Cu70  1  0.50004657  0.67083202  0.50330324  1
  Cu+  Cu71  1  0.49635452  0.66362324  0.83294230  1
  Cu+  Cu72  1  0.83282152  0.00005546  0.16154667  1
  Cu+  Cu73  1  0.83549374  -0.00369118  0.49962387  1
  Cu+  Cu74  1  0.83766091  0.00033089  0.83914649  1
  Cu+  Cu75  1  0.83099097  0.33055269  0.16467582  1
  Cu+  Cu76  1  0.82634183  0.33029286  0.49964808  1
  Cu+  Cu77  1  0.83964782  0.33701208  0.83532308  1
  Cu+  Cu78  1  0.83252480  0.66531153  0.16550382  1
  Cu+  Cu79  1  0.83820249  0.66660928  0.50236725  1
  Cu+  Cu80  1  0.83024677  0.67050471  0.83119367  1
  Cu+  Cu81  1  -0.00131174  0.16489020  0.16632226  1
  Cu+  Cu82  1  -0.00336475  0.16401423  0.49472096  1
  Cu+  Cu83  1  0.00540841  0.16971235  0.83296886  1
  Cu+  Cu84  1  0.00022306  0.49803836  0.16644559  1
  Cu+  Cu85  1  -0.00381867  0.50049153  0.50262029  1
  Cu+  Cu86  1  -0.00287308  0.49688058  0.82907212  1
  Cu+  Cu87  1  0.00311991  0.83018500  0.16746285  1
  Cu+  Cu88  1  0.00390942  0.83134680  0.50040566  1
  Cu+  Cu89  1  -0.00132107  0.83482519  0.83279914  1
  Cu+  Cu90  1  0.33331704  0.16918951  0.17093666  1
  Cu+  Cu91  1  0.32909164  0.17160596  0.50290319  1
  Cu+  Cu92  1  0.33742734  0.16604535  0.83372371  1
  Cu+  Cu93  1  0.33916307  0.50275748  0.16296185  1
  Cu+  Cu94  1  0.33284256  0.49957111  0.49722277  1
  Cu+  Cu95  1  0.32756547  0.49539671  0.83513786  1
  Cu+  Cu96  1  0.33102277  0.83135370  0.16606920  1
  Cu+  Cu97  1  0.33580324  0.83283019  0.49954401  1
  Cu+  Cu98  1  0.33191213  0.83077293  0.83182857  1
  Cu+  Cu99  1  0.67242476  0.16583370  0.17269617  1
  Cu+  Cu100  1  0.66220303  0.16488833  0.49915063  1
  Cu+  Cu101  1  0.66876863  0.16315885  0.83587717  1
  Cu+  Cu102  1  0.66140661  0.49917850  0.16712383  1
  Cu+  Cu103  1  0.66302816  0.50668513  0.50151401  1
  Cu+  Cu104  1  0.67277058  0.50211664  0.83325255  1
  Cu+  Cu105  1  0.66865329  0.83254615  0.15779972  1
  Cu+  Cu106  1  0.67164677  0.83333471  0.49749088  1
  Cu+  Cu107  1  0.66015057  0.83526437  0.83757093  1
  Cu+  Cu108  1  0.60075036  0.73734974  0.06790231  1
  Cu+  Cu109  1  0.26630333  0.26324944  0.25946510  1
  Cu+  Cu110  1  0.59092235  0.07135379  0.41112637  1
  Cu+  Cu111  1  0.07401377  0.74537707  0.59594813  1
  Cu+  Cu112  1  0.40627224  0.41409465  0.59232200  1
  Cu+  Cu113  1  0.93182899  0.07325223  0.07743253  1
  Cu+  Cu114  1  0.40796543  0.59804027  0.07284238  1
  Cu+  Cu115  1  0.06887946  0.59137244  0.07401566  1
  Cu+  Cu116  1  0.40417007  0.74246815  0.59302626  1
  Cu+  Cu117  1  0.58422501  0.92906835  0.92757951  1
  Cu+  Cu118  1  0.74692428  0.06550894  0.26023672  1
  Cu+  Cu119  1  0.58110956  0.40175687  0.07193658  1
  Cu+  Cu120  1  0.74271647  0.40639066  0.91657951  1
  Cu+  Cu121  1  0.73719583  0.92986425  0.07274794  1
  Cu+  Cu122  1  0.59531068  0.59932999  0.25830482  1
  Cu+  Cu123  1  0.74044091  0.59814233  0.74281542  1
  Cu+  Cu124  1  0.93262216  0.92443388  0.92379615  1
  Cu+  Cu125  1  0.92074906  0.40592356  0.73516975  1
  Cu+  Cu126  1  0.40803323  0.26129734  0.75014591  1
  Cu+  Cu127  1  0.25357899  0.25948630  0.59569959  1
  Cu+  Cu128  1  0.92957796  0.59487941  0.59427835  1
  Cu+  Cu129  1  0.07138162  0.25666150  0.73508119  1
  Cu+  Cu130  1  0.74154885  0.25551655  0.07430084  1
  Cu+  Cu131  1  0.06742156  0.40696511  0.26032126  1
  Cu+  Cu132  1  0.58973666  0.59787513  0.59361034  1
  Te2-  Te133  1  0.25203734  0.25424847  0.08417708  1
  Te2-  Te134  1  0.25363927  0.25658756  0.41195056  1
  Te2-  Te135  1  0.25510690  0.25574575  0.74768495  1
  Te2-  Te136  1  0.25378496  0.58512185  0.07775066  1
  Te2-  Te137  1  0.24777333  0.58381165  0.41478672  1
  Te2-  Te138  1  0.25114449  0.58421350  0.74973525  1
  Te2-  Te139  1  0.25157426  0.91729358  0.08028596  1
  Te2-  Te140  1  0.25537765  0.91736581  0.41284494  1
  Te2-  Te141  1  0.25269071  0.91828944  0.74731373  1
  Te2-  Te142  1  0.58864346  0.25011788  0.08107657  1
  Te2-  Te143  1  0.58183410  0.25685017  0.41905539  1
  Te2-  Te144  1  0.59214981  0.25003623  0.74925710  1
  Te2-  Te145  1  0.59159137  0.58624465  0.07467055  1
  Te2-  Te146  1  0.58675225  0.59394192  0.41382711  1
  Te2-  Te147  1  0.58565549  0.58625406  0.74773748  1
  Te2-  Te148  1  0.58451672  0.92591214  0.08020606  1
  Te2-  Te149  1  0.58832258  0.91842685  0.41337978  1
  Te2-  Te150  1  0.58180166  0.91588962  0.74524751  1
  Te2-  Te151  1  0.92246590  0.25531099  0.08268696  1
  Te2-  Te152  1  0.91309650  0.25042461  0.41314979  1
  Te2-  Te153  1  0.91850730  0.25155535  0.74462905  1
  Te2-  Te154  1  0.91613264  0.58279402  0.07942530  1
  Te2-  Te155  1  0.91676500  0.58281242  0.41325292  1
  Te2-  Te156  1  0.92406536  0.59426474  0.74963679  1
  Te2-  Te157  1  0.92673137  0.91981649  0.07951885  1
  Te2-  Te158  1  0.92219739  0.91638865  0.41502550  1
  Te2-  Te159  1  0.91737735  0.92035977  0.74742087  1
  Te2-  Te160  1  0.25156145  0.07933891  0.25158007  1
  Te2-  Te161  1  0.24861036  0.08146858  0.58415546  1
  Te2-  Te162  1  0.25442176  0.08296274  0.91839553  1
  Te2-  Te163  1  0.26117030  0.41784788  0.25313232  1
  Te2-  Te164  1  0.25261622  0.41447754  0.58837225  1
  Te2-  Te165  1  0.24609619  0.41121642  0.91892136  1
  Te2-  Te166  1  0.25154691  0.74331697  0.24923184  1
  Te2-  Te167  1  0.25338505  0.74609067  0.58674957  1
  Te2-  Te168  1  0.25096968  0.74673608  0.91839825  1
  Te2-  Te169  1  0.58801145  0.07773617  0.25560000  1
  Te2-  Te170  1  0.58114659  0.08365715  0.58943615  1
  Te2-  Te171  1  0.58819821  0.08021326  0.92234997  1
  Te2-  Te172  1  0.58571335  0.41458485  0.25674478  1
  Te2-  Te173  1  0.58502829  0.41540168  0.58273469  1
  Te2-  Te174  1  0.58774646  0.41236791  0.91827025  1
  Te2-  Te175  1  0.59029739  0.75123115  0.25179090  1
  Te2-  Te176  1  0.59143903  0.75052040  0.58703515  1
  Te2-  Te177  1  0.58720511  0.73879569  0.91642907  1
  Te2-  Te178  1  0.91829753  0.07739362  0.25263413  1
  Te2-  Te179  1  0.91910528  0.07983313  0.58371348  1
  Te2-  Te180  1  0.92589877  0.08271554  0.92162536  1
  Te2-  Te181  1  0.91419822  0.41338249  0.25276842  1
  Te2-  Te182  1  0.91520369  0.41042780  0.58443365  1
  Te2-  Te183  1  0.92362050  0.41527118  0.92279794  1
  Te2-  Te184  1  0.91802147  0.74647396  0.24923081  1
  Te2-  Te185  1  0.92129915  0.74824612  0.59192074  1
  Te2-  Te186  1  0.91508088  0.74983193  0.91893957  1
  Te2-  Te187  1  0.07469123  0.25154787  0.25478149  1
  Te2-  Te188  1  0.07439009  0.25276804  0.58160920  1
  Te2-  Te189  1  0.08309737  0.25161240  0.92309965  1
  Te2-  Te190  1  0.08190240  0.58376168  0.25308785  1
  Te2-  Te191  1  0.08078426  0.58614361  0.58946291  1
  Te2-  Te192  1  0.07630192  0.58463085  0.91689799  1
  Te2-  Te193  1  0.08268821  0.91617603  0.25232971  1
  Te2-  Te194  1  0.08412160  0.92079549  0.58311018  1
  Te2-  Te195  1  0.08369886  0.92109361  0.91940347  1
  Te2-  Te196  1  0.41924371  0.25254853  0.25710732  1
  Te2-  Te197  1  0.40996018  0.25866427  0.59070362  1
  Te2-  Te198  1  0.41684169  0.25199711  0.92136840  1
  Te2-  Te199  1  0.41612774  0.59148130  0.24910183  1
  Te2-  Te200  1  0.40910497  0.58834030  0.58603979  1
  Te2-  Te201  1  0.41156558  0.58154753  0.91756000  1
  Te2-  Te202  1  0.41442249  0.91584342  0.25028691  1
  Te2-  Te203  1  0.41587192  0.92021716  0.58496315  1
  Te2-  Te204  1  0.41433126  0.91391783  0.91993221  1
  Te2-  Te205  1  0.74856038  0.25552564  0.25623402  1
  Te2-  Te206  1  0.74418163  0.24789611  0.58607482  1
  Te2-  Te207  1  0.74879713  0.25290469  0.92042760  1
  Te2-  Te208  1  0.74754291  0.58535497  0.25155713  1
  Te2-  Te209  1  0.74514127  0.59156882  0.58913604  1
  Te2-  Te210  1  0.74913544  0.59006493  0.92060648  1
  Te2-  Te211  1  0.74828357  0.91471454  0.25188376  1
  Te2-  Te212  1  0.74876000  0.91841092  0.58537762  1
  Te2-  Te213  1  0.74092569  0.92570167  0.91922896  1
  Te2-  Te214  1  0.08429868  0.08006371  0.08103830  1
  Te2-  Te215  1  0.08242646  0.08279436  0.40991026  1
  Te2-  Te216  1  0.08286268  0.08111950  0.74688528  1
  Te2-  Te217  1  0.08346918  0.41020033  0.08319756  1
  Te2-  Te218  1  0.07652887  0.41181586  0.41768162  1
  Te2-  Te219  1  0.07752621  0.41183327  0.74089703  1
  Te2-  Te220  1  0.07816920  0.74519370  0.07710435  1
  Te2-  Te221  1  0.08326161  0.74782371  0.41141574  1
  Te2-  Te222  1  0.07904889  0.74692871  0.74921464  1
  Te2-  Te223  1  0.41410304  0.08370143  0.08524549  1
  Te2-  Te224  1  0.40989709  0.08316774  0.41897866  1
  Te2-  Te225  1  0.41631182  0.07814666  0.74972759  1
  Te2-  Te226  1  0.41654217  0.41018706  0.08141719  1
  Te2-  Te227  1  0.41578339  0.42165345  0.40729946  1
  Te2-  Te228  1  0.41301233  0.41506230  0.74751251  1
  Te2-  Te229  1  0.41289155  0.74916108  0.07777256  1
  Te2-  Te230  1  0.41709902  0.74839959  0.41227904  1
  Te2-  Te231  1  0.41063085  0.74280484  0.74781932  1
  Te2-  Te232  1  0.74339896  0.08171598  0.07709768  1
  Te2-  Te233  1  0.74500773  0.07453485  0.41442429  1
  Te2-  Te234  1  0.75282144  0.08027271  0.75155228  1
  Te2-  Te235  1  0.74206667  0.41231070  0.07798052  1
  Te2-  Te236  1  0.74292677  0.41723358  0.41840020  1
  Te2-  Te237  1  0.75145552  0.41392029  0.74608861  1
  Te2-  Te238  1  0.75230459  0.74429415  0.07464521  1
  Te2-  Te239  1  0.75184397  0.74573885  0.41473582  1
  Te2-  Te240  1  0.74189844  0.75256220  0.74813821  1
