# generated using pymatgen
data_Ti27(Cu53Te54)2
_symmetry_space_group_name_H-M   'P 1'
_cell_length_a   17.87639672
_cell_length_b   17.87551095
_cell_length_c   17.87957876
_cell_angle_alpha   89.99188389
_cell_angle_beta   90.01260523
_cell_angle_gamma   89.97854775
_symmetry_Int_Tables_number   1
_chemical_formula_structural   Ti27(Cu53Te54)2
_chemical_formula_sum   'Ti27 Cu106 Te108'
_cell_volume   5713.41388583
_cell_formula_units_Z   1
loop_
 _symmetry_equiv_pos_site_id
 _symmetry_equiv_pos_as_xyz
  1  'x, y, z'
loop_
 _atom_type_symbol
 _atom_type_oxidation_number
  Ti4+  4.0
  Cu+  1.0
  Te2-  -2.0
loop_
 _atom_site_type_symbol
 _atom_site_label
 _atom_site_symmetry_multiplicity
 _atom_site_fract_x
 _atom_site_fract_y
 _atom_site_fract_z
 _atom_site_occupancy
  Ti4+  Ti0  1  0.16980510  0.16445143  0.16683229  1
  Ti4+  Ti1  1  0.16613159  0.16357620  0.50037373  1
  Ti4+  Ti2  1  0.16851921  0.16681390  0.83306919  1
  Ti4+  Ti3  1  0.16400436  0.50107721  0.16456059  1
  Ti4+  Ti4  1  0.16686696  0.49867431  0.49974027  1
  Ti4+  Ti5  1  0.16492371  0.50094284  0.83680002  1
  Ti4+  Ti6  1  0.16298695  0.82983413  0.16750116  1
  Ti4+  Ti7  1  0.16378869  0.83710626  0.49759450  1
  Ti4+  Ti8  1  0.17042573  0.83272707  0.83360702  1
  Ti4+  Ti9  1  0.50394342  0.16450216  0.16824453  1
  Ti4+  Ti10  1  0.50011128  0.16460754  0.50084192  1
  Ti4+  Ti11  1  0.50052614  0.16784354  0.83253480  1
  Ti4+  Ti12  1  0.49782919  0.50011575  0.16615879  1
  Ti4+  Ti13  1  0.49977153  0.49869113  0.50024106  1
  Ti4+  Ti14  1  0.49895531  0.50137621  0.83213295  1
  Ti4+  Ti15  1  0.49928597  0.83439313  0.16419081  1
  Ti4+  Ti16  1  0.49770090  0.83116803  0.50041935  1
  Ti4+  Ti17  1  0.50210601  0.83518729  0.82921663  1
  Ti4+  Ti18  1  0.83461819  0.16767211  0.16576539  1
  Ti4+  Ti19  1  0.83334005  0.16998838  0.50025985  1
  Ti4+  Ti20  1  0.83308239  0.16766810  0.83084684  1
  Ti4+  Ti21  1  0.83246691  0.49999124  0.16837562  1
  Ti4+  Ti22  1  0.83565977  0.49884298  0.50178413  1
  Ti4+  Ti23  1  0.83298929  0.50022207  0.83721669  1
  Ti4+  Ti24  1  0.83184041  0.83334662  0.16955398  1
  Ti4+  Ti25  1  0.83298014  0.83298709  0.49821578  1
  Ti4+  Ti26  1  0.83301199  0.83562634  0.83136988  1
  Cu+  Cu27  1  0.17000480  0.16458713  0.00042987  1
  Cu+  Cu28  1  0.16990288  0.16242746  0.33448590  1
  Cu+  Cu29  1  0.16743111  0.16570856  0.66748497  1
  Cu+  Cu30  1  0.16065512  0.50732724  -0.00015191  1
  Cu+  Cu31  1  0.16623457  0.50043924  0.33308992  1
  Cu+  Cu32  1  0.16815397  0.49908964  0.66632841  1
  Cu+  Cu33  1  0.16554567  0.82603055  -0.00331611  1
  Cu+  Cu34  1  0.16170090  0.83649259  0.33056308  1
  Cu+  Cu35  1  0.16375351  0.83748323  0.66940462  1
  Cu+  Cu36  1  0.49885036  0.16961191  0.00524882  1
  Cu+  Cu37  1  0.50171016  0.16530843  0.33372179  1
  Cu+  Cu38  1  0.50301003  0.16370692  0.66541267  1
  Cu+  Cu39  1  0.49779277  0.49927021  -0.00099827  1
  Cu+  Cu40  1  0.49916252  0.49867034  0.33431846  1
  Cu+  Cu41  1  0.49882957  0.50259986  0.66504716  1
  Cu+  Cu42  1  0.50115484  0.83813363  -0.00505451  1
  Cu+  Cu43  1  0.49617003  0.83164466  0.33355915  1
  Cu+  Cu44  1  0.50420623  0.83092129  0.66606795  1
  Cu+  Cu45  1  0.83380345  0.17006851  -0.00374811  1
  Cu+  Cu46  1  0.83127574  0.16716621  0.33168033  1
  Cu+  Cu47  1  0.83373663  0.17224093  0.66371880  1
  Cu+  Cu48  1  0.83431975  0.49834844  0.00422118  1
  Cu+  Cu49  1  0.83595904  0.49868631  0.33575607  1
  Cu+  Cu50  1  0.83394466  0.50009035  0.67135837  1
  Cu+  Cu51  1  0.83077008  0.83620292  0.00446581  1
  Cu+  Cu52  1  0.83133536  0.83133259  0.33590460  1
  Cu+  Cu53  1  0.83555801  0.83368649  0.66257521  1
  Cu+  Cu54  1  0.17023526  -0.00316814  0.16641981  1
  Cu+  Cu55  1  0.16496758  0.00147766  0.48994324  1
  Cu+  Cu56  1  0.16888036  -0.00038218  0.83203966  1
  Cu+  Cu57  1  0.16957808  0.33100022  0.16685973  1
  Cu+  Cu58  1  0.16700522  0.33073990  0.50079232  1
  Cu+  Cu59  1  0.16826581  0.33470102  0.83314185  1
  Cu+  Cu60  1  0.15648245  0.66577742  0.16562221  1
  Cu+  Cu61  1  0.16615816  0.66545518  0.50039812  1
  Cu+  Cu62  1  0.16946947  0.66796550  0.84353217  1
  Cu+  Cu63  1  0.50692715  -0.00258021  0.17014435  1
  Cu+  Cu64  1  0.49396526  -0.00058027  0.50514101  1
  Cu+  Cu65  1  0.50802373  0.00194314  0.83071972  1
  Cu+  Cu66  1  0.50063144  0.33078049  0.16367375  1
  Cu+  Cu67  1  0.50070268  0.33232197  0.50230468  1
  Cu+  Cu68  1  0.49573203  0.33724066  0.83531389  1
  Cu+  Cu69  1  0.49470787  0.66743389  0.16463848  1
  Cu+  Cu70  1  0.50052372  0.66328237  0.49771184  1
  Cu+  Cu71  1  0.50194275  0.67035400  0.82704827  1
  Cu+  Cu72  1  0.83209326  0.00238056  0.16818445  1
  Cu+  Cu73  1  0.83336644  -0.00081226  0.50105483  1
  Cu+  Cu74  1  0.83139967  0.00297521  0.83094802  1
  Cu+  Cu75  1  0.83566110  0.33312537  0.16408643  1
  Cu+  Cu76  1  0.83924634  0.33488387  0.49973384  1
  Cu+  Cu77  1  0.83294802  0.33366922  0.83029911  1
  Cu+  Cu78  1  0.82811995  0.66745065  0.17097495  1
  Cu+  Cu79  1  0.83373274  0.66651147  0.50119768  1
  Cu+  Cu80  1  0.83230830  0.66541027  0.83681434  1
  Cu+  Cu81  1  0.00399438  0.16661313  0.16662120  1
  Cu+  Cu82  1  -0.00155531  0.16943798  0.50163879  1
  Cu+  Cu83  1  0.00068074  0.16621677  0.83435639  1
  Cu+  Cu84  1  -0.00269648  0.50070175  0.16013086  1
  Cu+  Cu85  1  0.00278517  0.49674960  0.49754071  1
  Cu+  Cu86  1  -0.00302775  0.49431294  0.83586349  1
  Cu+  Cu87  1  -0.00401046  0.82905564  0.17153562  1
  Cu+  Cu88  1  -0.00242333  0.84117229  0.49718972  1
  Cu+  Cu89  1  0.00292975  0.83481988  0.82959641  1
  Cu+  Cu90  1  0.33911011  0.16431195  0.16602900  1
  Cu+  Cu91  1  0.33429795  0.15871017  0.50269605  1
  Cu+  Cu92  1  0.33176055  0.16894809  0.83404372  1
  Cu+  Cu93  1  0.33015212  0.50206131  0.16530560  1
  Cu+  Cu94  1  0.33396185  0.49977447  0.49896936  1
  Cu+  Cu95  1  0.33238157  0.49928320  0.83563708  1
  Cu+  Cu96  1  0.33318751  0.82724380  0.16871849  1
  Cu+  Cu97  1  0.33196479  0.83288309  0.50008576  1
  Cu+  Cu98  1  0.33742794  0.83503375  0.83128996  1
  Cu+  Cu99  1  0.67197643  0.16248146  0.16923056  1
  Cu+  Cu100  1  0.66468389  0.17096161  0.50247703  1
  Cu+  Cu101  1  0.66702254  0.16579583  0.82798033  1
  Cu+  Cu102  1  0.66452384  0.50119205  0.16805423  1
  Cu+  Cu103  1  0.66852297  0.49937384  0.50214231  1
  Cu+  Cu104  1  0.66732985  0.50425837  0.83691359  1
  Cu+  Cu105  1  0.66427905  0.83695395  0.16732271  1
  Cu+  Cu106  1  0.66782341  0.83189509  0.49862288  1
  Cu+  Cu107  1  0.66577620  0.83403138  0.83143182  1
  Cu+  Cu108  1  0.92305445  0.40827434  0.74132537  1
  Cu+  Cu109  1  0.93044362  0.26174344  0.59275545  1
  Cu+  Cu110  1  0.40272229  0.07131540  0.59945390  1
  Cu+  Cu111  1  0.07676141  0.92979154  0.74510963  1
  Cu+  Cu112  1  0.40653871  0.40853555  0.92739509  1
  Cu+  Cu113  1  0.59064081  0.26326861  0.59547082  1
  Cu+  Cu114  1  0.59269343  0.91738669  0.26706483  1
  Cu+  Cu115  1  0.06714195  0.74516094  0.91949951  1
  Cu+  Cu116  1  0.26055395  0.40925742  0.73807391  1
  Cu+  Cu117  1  0.06653798  0.93076364  0.39952198  1
  Cu+  Cu118  1  0.07342341  0.40097967  0.92449103  1
  Cu+  Cu119  1  0.06827750  0.73585067  0.26534391  1
  Cu+  Cu120  1  0.59794607  0.73780731  0.73697762  1
  Cu+  Cu121  1  0.59763855  0.07357323  0.73566273  1
  Cu+  Cu122  1  0.06490850  0.59596786  0.07284687  1
  Cu+  Cu123  1  0.26540421  0.07614290  0.40511503  1
  Cu+  Cu124  1  0.93032242  0.40781084  0.40311073  1
  Cu+  Cu125  1  0.92441231  0.40286194  0.07548355  1
  Cu+  Cu126  1  0.40631355  0.25907817  0.07932006  1
  Cu+  Cu127  1  0.59559790  0.93006228  0.92487165  1
  Cu+  Cu128  1  0.40930221  0.73645416  0.26200028  1
  Cu+  Cu129  1  0.74624143  0.07335625  0.26388853  1
  Cu+  Cu130  1  0.92348383  0.92776207  0.59202428  1
  Cu+  Cu131  1  0.26558642  0.59367676  0.92905063  1
  Cu+  Cu132  1  0.26112330  0.92239610  0.25425951  1
  Te2-  Te133  1  0.25425594  0.25126112  0.08037449  1
  Te2-  Te134  1  0.25475479  0.24872437  0.41768998  1
  Te2-  Te135  1  0.25381091  0.25348110  0.74577081  1
  Te2-  Te136  1  0.25195659  0.59053979  0.08165016  1
  Te2-  Te137  1  0.25117058  0.58503226  0.41443748  1
  Te2-  Te138  1  0.25002490  0.58704737  0.75073900  1
  Te2-  Te139  1  0.25078129  0.91112634  0.07978782  1
  Te2-  Te140  1  0.25690929  0.91889235  0.40993200  1
  Te2-  Te141  1  0.25548024  0.91938377  0.74720793  1
  Te2-  Te142  1  0.59158050  0.24957609  0.08360126  1
  Te2-  Te143  1  0.58412162  0.25208565  0.41378343  1
  Te2-  Te144  1  0.58359230  0.25784835  0.74838094  1
  Te2-  Te145  1  0.58237227  0.58581261  0.08116669  1
  Te2-  Te146  1  0.58701501  0.58232213  0.41446428  1
  Te2-  Te147  1  0.58815138  0.58454232  0.74574037  1
  Te2-  Te148  1  0.58811671  0.92109697  0.07788466  1
  Te2-  Te149  1  0.58295692  0.91932678  0.41780553  1
  Te2-  Te150  1  0.59084270  0.92087493  0.74069204  1
  Te2-  Te151  1  0.92330675  0.25029353  0.07856776  1
  Te2-  Te152  1  0.92028982  0.25175326  0.40930728  1
  Te2-  Te153  1  0.92437855  0.25387415  0.74668323  1
  Te2-  Te154  1  0.91345736  0.59231755  0.08099383  1
  Te2-  Te155  1  0.92027603  0.58591164  0.41666995  1
  Te2-  Te156  1  0.91973619  0.58614279  0.75183779  1
  Te2-  Te157  1  0.91801342  0.91912472  0.08575058  1
  Te2-  Te158  1  0.91503423  0.92375636  0.40796462  1
  Te2-  Te159  1  0.92055377  0.92265171  0.74596707  1
  Te2-  Te160  1  0.25890358  0.07785853  0.25197407  1
  Te2-  Te161  1  0.24893665  0.07433144  0.58864796  1
  Te2-  Te162  1  0.25352380  0.07986473  0.91773329  1
  Te2-  Te163  1  0.25042235  0.41657435  0.25046171  1
  Te2-  Te164  1  0.25427115  0.41208135  0.58444497  1
  Te2-  Te165  1  0.25107510  0.41468859  0.92624963  1
  Te2-  Te166  1  0.24831772  0.74168871  0.25415064  1
  Te2-  Te167  1  0.24659680  0.75175503  0.58513024  1
  Te2-  Te168  1  0.26217968  0.74968513  0.92126238  1
  Te2-  Te169  1  0.59035547  0.07798478  0.25866610  1
  Te2-  Te170  1  0.59056411  0.07586618  0.58359044  1
  Te2-  Te171  1  0.58710308  0.08635820  0.92234544  1
  Te2-  Te172  1  0.58250597  0.41375467  0.25033519  1
  Te2-  Te173  1  0.58692533  0.41519325  0.58893146  1
  Te2-  Te174  1  0.58594907  0.41632510  0.91773511  1
  Te2-  Te175  1  0.58404187  0.74738229  0.25069118  1
  Te2-  Te176  1  0.58723766  0.74473160  0.58227685  1
  Te2-  Te177  1  0.58532720  0.74763881  0.91770549  1
  Te2-  Te178  1  0.92087425  0.08267162  0.25219857  1
  Te2-  Te179  1  0.91901001  0.08197762  0.58660938  1
  Te2-  Te180  1  0.91749658  0.08190419  0.91718378  1
  Te2-  Te181  1  0.92263306  0.41340917  0.25115079  1
  Te2-  Te182  1  0.92490766  0.41408604  0.59046738  1
  Te2-  Te183  1  0.91839427  0.40794688  0.92401264  1
  Te2-  Te184  1  0.91519893  0.74394695  0.25708051  1
  Te2-  Te185  1  0.92213916  0.74807297  0.58214173  1
  Te2-  Te186  1  0.91591190  0.75189318  0.91960045  1
  Te2-  Te187  1  0.08567358  0.24995406  0.25312867  1
  Te2-  Te188  1  0.08300647  0.25237613  0.58782622  1
  Te2-  Te189  1  0.08251889  0.25016099  0.92074059  1
  Te2-  Te190  1  0.07556967  0.58210792  0.25492963  1
  Te2-  Te191  1  0.08122310  0.58353514  0.58559905  1
  Te2-  Te192  1  0.07001332  0.59012027  0.91898257  1
  Te2-  Te193  1  0.07532190  0.92325056  0.24838993  1
  Te2-  Te194  1  0.08008582  0.92567521  0.58686598  1
  Te2-  Te195  1  0.08360563  0.91937215  0.91974723  1
  Te2-  Te196  1  0.41719494  0.25102991  0.25349634  1
  Te2-  Te197  1  0.41259120  0.24890350  0.58654975  1
  Te2-  Te198  1  0.41191889  0.25289297  0.92107727  1
  Te2-  Te199  1  0.41144296  0.58423347  0.25376117  1
  Te2-  Te200  1  0.41338624  0.58616452  0.58397619  1
  Te2-  Te201  1  0.41682714  0.59147779  0.91763029  1
  Te2-  Te202  1  0.41306510  0.92087880  0.25227743  1
  Te2-  Te203  1  0.41174218  0.91493626  0.58990665  1
  Te2-  Te204  1  0.41630249  0.92357700  0.91377314  1
  Te2-  Te205  1  0.74903180  0.25587486  0.25051746  1
  Te2-  Te206  1  0.74685123  0.25827614  0.58548756  1
  Te2-  Te207  1  0.74638729  0.25284665  0.91483481  1
  Te2-  Te208  1  0.74691456  0.58267285  0.25620177  1
  Te2-  Te209  1  0.75076146  0.58416405  0.58773499  1
  Te2-  Te210  1  0.74851803  0.58551508  0.92437614  1
  Te2-  Te211  1  0.74595230  0.92032840  0.25779806  1
  Te2-  Te212  1  0.74603483  0.91835123  0.58447861  1
  Te2-  Te213  1  0.74824248  0.92092102  0.91811022  1
  Te2-  Te214  1  0.08442096  0.07920106  0.08168214  1
  Te2-  Te215  1  0.07368125  0.08415570  0.41138788  1
  Te2-  Te216  1  0.08061014  0.08205725  0.74756489  1
  Te2-  Te217  1  0.08115622  0.40845659  0.07871987  1
  Te2-  Te218  1  0.08395191  0.40988970  0.41154806  1
  Te2-  Te219  1  0.08046303  0.41382626  0.74640060  1
  Te2-  Te220  1  0.07230665  0.74801295  0.07689524  1
  Te2-  Te221  1  0.07840969  0.74729136  0.41599409  1
  Te2-  Te222  1  0.08532029  0.74309930  0.74907699  1
  Te2-  Te223  1  0.41949562  0.07573506  0.08322606  1
  Te2-  Te224  1  0.41679461  0.07712075  0.41030948  1
  Te2-  Te225  1  0.41286493  0.08045094  0.74990908  1
  Te2-  Te226  1  0.40928332  0.41336406  0.08016208  1
  Te2-  Te227  1  0.41462860  0.41197117  0.41567329  1
  Te2-  Te228  1  0.41285330  0.41533658  0.74409424  1
  Te2-  Te229  1  0.41497195  0.75112097  0.07512914  1
  Te2-  Te230  1  0.41115665  0.74446325  0.41545799  1
  Te2-  Te231  1  0.41353347  0.74924216  0.74434741  1
  Te2-  Te232  1  0.75102837  0.08240317  0.07711566  1
  Te2-  Te233  1  0.74600597  0.08208596  0.41832156  1
  Te2-  Te234  1  0.74984580  0.08168323  0.74097452  1
  Te2-  Te235  1  0.74534758  0.41504298  0.08330951  1
  Te2-  Te236  1  0.74917265  0.41378147  0.41653012  1
  Te2-  Te237  1  0.74484300  0.41719732  0.75073339  1
  Te2-  Te238  1  0.74515097  0.74941179  0.08424868  1
  Te2-  Te239  1  0.74694913  0.74471463  0.41485812  1
  Te2-  Te240  1  0.75074739  0.74729927  0.74576925  1
