# generated using pymatgen
data_Ti27(Cu53Te54)2
_symmetry_space_group_name_H-M   'P 1'
_cell_length_a   17.93056963
_cell_length_b   17.93480855
_cell_length_c   17.92256133
_cell_angle_alpha   89.98157225
_cell_angle_beta   90.00115965
_cell_angle_gamma   90.00329444
_symmetry_Int_Tables_number   1
_chemical_formula_structural   Ti27(Cu53Te54)2
_chemical_formula_sum   'Ti27 Cu106 Te108'
_cell_volume   5763.56086430
_cell_formula_units_Z   1
loop_
 _symmetry_equiv_pos_site_id
 _symmetry_equiv_pos_as_xyz
  1  'x, y, z'
loop_
 _atom_type_symbol
 _atom_type_oxidation_number
  Ti4+  4.0
  Cu+  1.0
  Te2-  -2.0
loop_
 _atom_site_type_symbol
 _atom_site_label
 _atom_site_symmetry_multiplicity
 _atom_site_fract_x
 _atom_site_fract_y
 _atom_site_fract_z
 _atom_site_occupancy
  Ti4+  Ti0  1  0.16526234  0.16939468  0.16925379  1
  Ti4+  Ti1  1  0.16865731  0.16888443  0.50379663  1
  Ti4+  Ti2  1  0.16801830  0.16759921  0.83475380  1
  Ti4+  Ti3  1  0.16822948  0.50265197  0.16729605  1
  Ti4+  Ti4  1  0.16886124  0.49991439  0.50095629  1
  Ti4+  Ti5  1  0.16543733  0.49867195  0.83273371  1
  Ti4+  Ti6  1  0.16700524  0.83708613  0.17243105  1
  Ti4+  Ti7  1  0.16901547  0.82959608  0.50220657  1
  Ti4+  Ti8  1  0.16646061  0.83135533  0.83260915  1
  Ti4+  Ti9  1  0.49890123  0.16669610  0.16529602  1
  Ti4+  Ti10  1  0.49753157  0.16807547  0.49930546  1
  Ti4+  Ti11  1  0.49919399  0.16439278  0.83396506  1
  Ti4+  Ti12  1  0.49776024  0.50175260  0.16318239  1
  Ti4+  Ti13  1  0.49978403  0.49896383  0.49744172  1
  Ti4+  Ti14  1  0.50000038  0.49872352  0.83203139  1
  Ti4+  Ti15  1  0.49841127  0.83506917  0.16880556  1
  Ti4+  Ti16  1  0.50196955  0.83591262  0.50115301  1
  Ti4+  Ti17  1  0.49908475  0.82995564  0.83316214  1
  Ti4+  Ti18  1  0.83122120  0.16619402  0.16843202  1
  Ti4+  Ti19  1  0.83409743  0.17051236  0.49790815  1
  Ti4+  Ti20  1  0.83465662  0.16453712  0.83361282  1
  Ti4+  Ti21  1  0.83116509  0.49962809  0.16434461  1
  Ti4+  Ti22  1  0.83139448  0.49837879  0.49657261  1
  Ti4+  Ti23  1  0.83211274  0.50000991  0.83223378  1
  Ti4+  Ti24  1  0.84120861  0.83213462  0.16659485  1
  Ti4+  Ti25  1  0.83166066  0.83307431  0.49488606  1
  Ti4+  Ti26  1  0.83275818  0.83225571  0.83026050  1
  Cu+  Cu27  1  0.16628557  0.16853662  0.00110931  1
  Cu+  Cu28  1  0.16308130  0.17029967  0.33655524  1
  Cu+  Cu29  1  0.17197162  0.17066215  0.67085144  1
  Cu+  Cu30  1  0.16628969  0.50089102  -0.00086788  1
  Cu+  Cu31  1  0.17555112  0.50054435  0.33387806  1
  Cu+  Cu32  1  0.16137986  0.50321324  0.66979360  1
  Cu+  Cu33  1  0.16758043  0.83473812  0.00360855  1
  Cu+  Cu34  1  0.15891676  0.83718084  0.33944030  1
  Cu+  Cu35  1  0.17260240  0.82720462  0.66892132  1
  Cu+  Cu36  1  0.50098897  0.16387345  -0.00009831  1
  Cu+  Cu37  1  0.49433685  0.16320076  0.32935791  1
  Cu+  Cu38  1  0.49880069  0.16680678  0.66778121  1
  Cu+  Cu39  1  0.49820841  0.50066008  -0.00418450  1
  Cu+  Cu40  1  0.49822305  0.50007983  0.33019916  1
  Cu+  Cu41  1  0.50152906  0.49731703  0.66544375  1
  Cu+  Cu42  1  0.49921627  0.83362329  0.00081583  1
  Cu+  Cu43  1  0.50117719  0.83872427  0.33715280  1
  Cu+  Cu44  1  0.49844893  0.83045951  0.66574621  1
  Cu+  Cu45  1  0.83196039  0.16189239  0.00073090  1
  Cu+  Cu46  1  0.83106942  0.17581903  0.33379455  1
  Cu+  Cu47  1  0.83424804  0.16584805  0.66522623  1
  Cu+  Cu48  1  0.83111030  0.49886322  -0.00062157  1
  Cu+  Cu49  1  0.83154017  0.50140403  0.32935805  1
  Cu+  Cu50  1  0.83103912  0.49793127  0.66422129  1
  Cu+  Cu51  1  0.84025599  0.83677547  -0.00396205  1
  Cu+  Cu52  1  0.83873069  0.82706691  0.33195021  1
  Cu+  Cu53  1  0.82914231  0.83428932  0.66261191  1
  Cu+  Cu54  1  0.16565019  0.00357556  0.16947678  1
  Cu+  Cu55  1  0.16613023  -0.00274262  0.50461638  1
  Cu+  Cu56  1  0.16931871  0.00174431  0.83299569  1
  Cu+  Cu57  1  0.16569741  0.33483308  0.16647561  1
  Cu+  Cu58  1  0.17339079  0.33496889  0.50062958  1
  Cu+  Cu59  1  0.16268220  0.33196839  0.83266895  1
  Cu+  Cu60  1  0.17280054  0.66942195  0.17137780  1
  Cu+  Cu61  1  0.16931059  0.66392271  0.50491406  1
  Cu+  Cu62  1  0.16530597  0.66425780  0.82894633  1
  Cu+  Cu63  1  0.49762991  0.00052004  0.16826388  1
  Cu+  Cu64  1  0.49743080  0.00309636  0.49929676  1
  Cu+  Cu65  1  0.49822446  -0.00420866  0.83344842  1
  Cu+  Cu66  1  0.49916857  0.33341586  0.16100509  1
  Cu+  Cu67  1  0.49858064  0.33304937  0.49816148  1
  Cu+  Cu68  1  0.49780018  0.33088464  0.83521715  1
  Cu+  Cu69  1  0.49919839  0.66899444  0.16540869  1
  Cu+  Cu70  1  0.50285516  0.66492662  0.50151762  1
  Cu+  Cu71  1  0.50449330  0.66254446  0.83402287  1
  Cu+  Cu72  1  0.84294122  0.00304586  0.16253238  1
  Cu+  Cu73  1  0.83335444  0.00491840  0.49876951  1
  Cu+  Cu74  1  0.83479695  -0.00285357  0.83370701  1
  Cu+  Cu75  1  0.83111661  0.33324842  0.16749809  1
  Cu+  Cu76  1  0.82782084  0.33345844  0.49510909  1
  Cu+  Cu77  1  0.83253584  0.33340965  0.83460305  1
  Cu+  Cu78  1  0.83450800  0.66447025  0.16932230  1
  Cu+  Cu79  1  0.83071566  0.66488138  0.49505125  1
  Cu+  Cu80  1  0.83119440  0.66796580  0.82965183  1
  Cu+  Cu81  1  -0.00274198  0.16774772  0.16938145  1
  Cu+  Cu82  1  0.00263753  0.17140397  0.49919030  1
  Cu+  Cu83  1  0.00139650  0.16761105  0.83335573  1
  Cu+  Cu84  1  -0.00016438  0.50179521  0.16539003  1
  Cu+  Cu85  1  -0.00071047  0.49748493  0.50122390  1
  Cu+  Cu86  1  -0.00194914  0.50155631  0.83128024  1
  Cu+  Cu87  1  0.00326904  0.83694707  0.17800515  1
  Cu+  Cu88  1  0.00041802  0.83196963  0.49731870  1
  Cu+  Cu89  1  -0.00129707  0.83516976  0.83245520  1
  Cu+  Cu90  1  0.33261757  0.16583029  0.16788495  1
  Cu+  Cu91  1  0.33089575  0.17034057  0.50777147  1
  Cu+  Cu92  1  0.33311706  0.16222693  0.83286986  1
  Cu+  Cu93  1  0.33291784  0.50653312  0.16686045  1
  Cu+  Cu94  1  0.33365690  0.49542686  0.49732449  1
  Cu+  Cu95  1  0.33534678  0.49308478  0.83538754  1
  Cu+  Cu96  1  0.32965898  0.83357216  0.16680313  1
  Cu+  Cu97  1  0.33969734  0.83263536  0.50403420  1
  Cu+  Cu98  1  0.33239393  0.82755753  0.83194001  1
  Cu+  Cu99  1  0.66381528  0.16540394  0.16544212  1
  Cu+  Cu100  1  0.66522974  0.17067099  0.49720824  1
  Cu+  Cu101  1  0.66704127  0.16317155  0.83353441  1
  Cu+  Cu102  1  0.66437280  0.49891973  0.16105478  1
  Cu+  Cu103  1  0.66559566  0.49886646  0.49800350  1
  Cu+  Cu104  1  0.66579507  0.50135984  0.83399739  1
  Cu+  Cu105  1  0.67159080  0.83363358  0.16668853  1
  Cu+  Cu106  1  0.66411303  0.83273086  0.49354099  1
  Cu+  Cu107  1  0.66723089  0.83021519  0.83220110  1
  Cu+  Cu108  1  0.74026715  0.73880588  0.25140000  1
  Cu+  Cu109  1  0.40756084  0.92870777  0.41214602  1
  Cu+  Cu110  1  0.26377020  0.40525303  0.40304923  1
  Cu+  Cu111  1  0.25892059  0.74369248  0.07378238  1
  Cu+  Cu112  1  0.26516560  0.59718488  0.26328061  1
  Cu+  Cu113  1  0.92009261  0.93042305  0.26281722  1
  Cu+  Cu114  1  0.40754833  0.40153340  0.92595559  1
  Cu+  Cu115  1  0.06996978  0.25711364  0.74282749  1
  Cu+  Cu116  1  0.92689740  0.58626912  0.25762204  1
  Cu+  Cu117  1  0.40268348  0.07406186  0.25424353  1
  Cu+  Cu118  1  0.92400432  0.26172849  0.25669479  1
  Cu+  Cu119  1  0.26281840  0.26515221  0.60011190  1
  Cu+  Cu120  1  0.06689573  0.59510116  0.74146827  1
  Cu+  Cu121  1  0.07187615  0.92957820  0.41857057  1
  Cu+  Cu122  1  0.26242250  0.07136678  0.74262796  1
  Cu+  Cu123  1  0.92983928  0.73442995  0.41836830  1
  Cu+  Cu124  1  0.08398484  0.73719705  0.26255268  1
  Cu+  Cu125  1  0.73220706  0.26173385  0.40527104  1
  Cu+  Cu126  1  0.07896190  0.26488417  0.41053108  1
  Cu+  Cu127  1  0.92944938  0.08333856  0.07136357  1
  Cu+  Cu128  1  0.41526846  0.73556005  0.59218880  1
  Cu+  Cu129  1  0.92957323  0.92643172  0.91951225  1
  Cu+  Cu130  1  0.26100063  0.73317267  0.74275534  1
  Cu+  Cu131  1  0.58429440  0.73712192  0.40609341  1
  Cu+  Cu132  1  0.59552538  0.59147394  0.92606951  1
  Te2-  Te133  1  0.25131421  0.25180131  0.08364649  1
  Te2-  Te134  1  0.25624625  0.25181811  0.41249992  1
  Te2-  Te135  1  0.25820807  0.25757981  0.75214196  1
  Te2-  Te136  1  0.25179576  0.58857133  0.07775101  1
  Te2-  Te137  1  0.25636997  0.58926609  0.41732275  1
  Te2-  Te138  1  0.25697226  0.58086790  0.74792252  1
  Te2-  Te139  1  0.25003666  0.92305560  0.08459420  1
  Te2-  Te140  1  0.25401555  0.91756987  0.41810112  1
  Te2-  Te141  1  0.25400477  0.91782916  0.74807352  1
  Te2-  Te142  1  0.58514226  0.25069841  0.07891651  1
  Te2-  Te143  1  0.57970194  0.25222190  0.40929244  1
  Te2-  Te144  1  0.58451124  0.25009188  0.75060820  1
  Te2-  Te145  1  0.58441088  0.58804831  0.07907868  1
  Te2-  Te146  1  0.58586295  0.58382998  0.41098390  1
  Te2-  Te147  1  0.58618096  0.58333234  0.74442762  1
  Te2-  Te148  1  0.58461368  0.91720901  0.08487053  1
  Te2-  Te149  1  0.58620207  0.92572469  0.41506225  1
  Te2-  Te150  1  0.58359261  0.91468149  0.74814150  1
  Te2-  Te151  1  0.91604940  0.25206431  0.08068261  1
  Te2-  Te152  1  0.92398113  0.25969022  0.41240288  1
  Te2-  Te153  1  0.91724150  0.25298191  0.74713346  1
  Te2-  Te154  1  0.91699589  0.58525531  0.07942616  1
  Te2-  Te155  1  0.92217604  0.58344385  0.41163642  1
  Te2-  Te156  1  0.91556704  0.58625682  0.74359774  1
  Te2-  Te157  1  0.92864494  0.91880701  0.07920499  1
  Te2-  Te158  1  0.92006507  0.92470911  0.41331477  1
  Te2-  Te159  1  0.91755641  0.91786508  0.74292629  1
  Te2-  Te160  1  0.24886581  0.08317918  0.25680923  1
  Te2-  Te161  1  0.25243035  0.07781742  0.58827167  1
  Te2-  Te162  1  0.25135883  0.08151377  0.92251015  1
  Te2-  Te163  1  0.25587451  0.41258981  0.24886145  1
  Te2-  Te164  1  0.25310733  0.41810842  0.59221250  1
  Te2-  Te165  1  0.24905690  0.41122606  0.92028174  1
  Te2-  Te166  1  0.25362938  0.75292377  0.26255918  1
  Te2-  Te167  1  0.25799027  0.74241503  0.58712498  1
  Te2-  Te168  1  0.24962543  0.74493914  0.92008515  1
  Te2-  Te169  1  0.58500022  0.08062791  0.25179889  1
  Te2-  Te170  1  0.58412565  0.08474968  0.58277356  1
  Te2-  Te171  1  0.58393013  0.07795418  0.91727882  1
  Te2-  Te172  1  0.58242318  0.41578938  0.24734564  1
  Te2-  Te173  1  0.58481719  0.41318143  0.58205292  1
  Te2-  Te174  1  0.58585812  0.41266421  0.91850925  1
  Te2-  Te175  1  0.58614356  0.74798320  0.25315071  1
  Te2-  Te176  1  0.58888429  0.74831149  0.58576376  1
  Te2-  Te177  1  0.58651556  0.74776195  0.92108234  1
  Te2-  Te178  1  0.91878346  0.08394768  0.25965293  1
  Te2-  Te179  1  0.92040061  0.08499411  0.58200931  1
  Te2-  Te180  1  0.92445081  0.07870014  0.91942983  1
  Te2-  Te181  1  0.91953584  0.41481581  0.25137653  1
  Te2-  Te182  1  0.91468719  0.41253752  0.58192613  1
  Te2-  Te183  1  0.91803081  0.41650802  0.91759801  1
  Te2-  Te184  1  0.92807353  0.73944004  0.25726305  1
  Te2-  Te185  1  0.91533315  0.74827700  0.58168579  1
  Te2-  Te186  1  0.91927262  0.74543218  0.91533289  1
  Te2-  Te187  1  0.07867072  0.25775479  0.25404080  1
  Te2-  Te188  1  0.08233374  0.25640659  0.58814897  1
  Te2-  Te189  1  0.08067336  0.25210224  0.92102095  1
  Te2-  Te190  1  0.08140231  0.58491018  0.25730945  1
  Te2-  Te191  1  0.07842779  0.58593533  0.58470516  1
  Te2-  Te192  1  0.08113912  0.58507115  0.91760336  1
  Te2-  Te193  1  0.07944334  0.92983105  0.25929910  1
  Te2-  Te194  1  0.08270005  0.91152480  0.58856287  1
  Te2-  Te195  1  0.08411897  0.91984501  0.91885514  1
  Te2-  Te196  1  0.41410446  0.25510170  0.24934364  1
  Te2-  Te197  1  0.41588221  0.25567523  0.58864807  1
  Te2-  Te198  1  0.41159714  0.24811174  0.92134324  1
  Te2-  Te199  1  0.41592861  0.58966033  0.25291449  1
  Te2-  Te200  1  0.41412583  0.58194663  0.58528861  1
  Te2-  Te201  1  0.41204190  0.58631693  0.91590592  1
  Te2-  Te202  1  0.40917976  0.91972936  0.25507136  1
  Te2-  Te203  1  0.41608926  0.92224587  0.58853690  1
  Te2-  Te204  1  0.41266600  0.91408861  0.91723956  1
  Te2-  Te205  1  0.74098129  0.25477702  0.24982723  1
  Te2-  Te206  1  0.74784074  0.25202197  0.58560661  1
  Te2-  Te207  1  0.74948521  0.24799391  0.91866660  1
  Te2-  Te208  1  0.74130618  0.58436546  0.25021516  1
  Te2-  Te209  1  0.74769243  0.58393980  0.58147398  1
  Te2-  Te210  1  0.74863846  0.58780201  0.91925941  1
  Te2-  Te211  1  0.75660317  0.92009195  0.25019376  1
  Te2-  Te212  1  0.74700532  0.91894286  0.57818262  1
  Te2-  Te213  1  0.74696550  0.91657832  0.91781632  1
  Te2-  Te214  1  0.08132242  0.08311408  0.08249993  1
  Te2-  Te215  1  0.08246997  0.08120095  0.41830544  1
  Te2-  Te216  1  0.08277784  0.08229578  0.74697133  1
  Te2-  Te217  1  0.08257682  0.41779551  0.08250635  1
  Te2-  Te218  1  0.08280936  0.41657752  0.41333312  1
  Te2-  Te219  1  0.07750060  0.41288021  0.74683585  1
  Te2-  Te220  1  0.08148353  0.75073360  0.08749723  1
  Te2-  Te221  1  0.08219726  0.73879649  0.41665523  1
  Te2-  Te222  1  0.07719529  0.74852793  0.74576460  1
  Te2-  Te223  1  0.41290726  0.08009895  0.08024609  1
  Te2-  Te224  1  0.40621897  0.08293807  0.41519014  1
  Te2-  Te225  1  0.41524255  0.07734186  0.74603656  1
  Te2-  Te226  1  0.41056763  0.41617224  0.07954250  1
  Te2-  Te227  1  0.41542014  0.41202003  0.41016267  1
  Te2-  Te228  1  0.41595319  0.41196647  0.74556111  1
  Te2-  Te229  1  0.41322010  0.74941684  0.08163594  1
  Te2-  Te230  1  0.41690624  0.74674347  0.41401851  1
  Te2-  Te231  1  0.41476889  0.73963947  0.74679357  1
  Te2-  Te232  1  0.74676757  0.07848655  0.08401195  1
  Te2-  Te233  1  0.74845939  0.08503254  0.41280391  1
  Te2-  Te234  1  0.75065877  0.07986755  0.74809072  1
  Te2-  Te235  1  0.74708210  0.41276129  0.07975427  1
  Te2-  Te236  1  0.74364596  0.41551192  0.40804315  1
  Te2-  Te237  1  0.74637295  0.41456281  0.74899050  1
  Te2-  Te238  1  0.75519574  0.75024047  0.07992214  1
  Te2-  Te239  1  0.74367431  0.74483300  0.40847013  1
  Te2-  Te240  1  0.74665970  0.74775580  0.74395974  1
