# generated using pymatgen
data_Ti27(Cu53Te54)2
_symmetry_space_group_name_H-M   'P 1'
_cell_length_a   17.87186585
_cell_length_b   17.87083864
_cell_length_c   17.87000085
_cell_angle_alpha   89.99629462
_cell_angle_beta   90.02256104
_cell_angle_gamma   90.02191789
_symmetry_Int_Tables_number   1
_chemical_formula_structural   Ti27(Cu53Te54)2
_chemical_formula_sum   'Ti27 Cu106 Te108'
_cell_volume   5707.41347313
_cell_formula_units_Z   1
loop_
 _symmetry_equiv_pos_site_id
 _symmetry_equiv_pos_as_xyz
  1  'x, y, z'
loop_
 _atom_type_symbol
 _atom_type_oxidation_number
  Ti4+  4.0
  Cu+  1.0
  Te2-  -2.0
loop_
 _atom_site_type_symbol
 _atom_site_label
 _atom_site_symmetry_multiplicity
 _atom_site_fract_x
 _atom_site_fract_y
 _atom_site_fract_z
 _atom_site_occupancy
  Ti4+  Ti0  1  0.16549279  0.16939764  0.16548145  1
  Ti4+  Ti1  1  0.16711070  0.16627646  0.50030330  1
  Ti4+  Ti2  1  0.16815327  0.16754327  0.83483551  1
  Ti4+  Ti3  1  0.16536384  0.50102382  0.17063267  1
  Ti4+  Ti4  1  0.16717177  0.49948592  0.50028882  1
  Ti4+  Ti5  1  0.16848473  0.50158307  0.83411110  1
  Ti4+  Ti6  1  0.16556300  0.83472623  0.16849698  1
  Ti4+  Ti7  1  0.16883343  0.83191339  0.50000524  1
  Ti4+  Ti8  1  0.16339127  0.83191736  0.83286810  1
  Ti4+  Ti9  1  0.49816746  0.16828172  0.16439429  1
  Ti4+  Ti10  1  0.50118965  0.16870884  0.50120231  1
  Ti4+  Ti11  1  0.50317369  0.16745582  0.83532956  1
  Ti4+  Ti12  1  0.49827217  0.49990642  0.16800851  1
  Ti4+  Ti13  1  0.49773970  0.49635904  0.49985566  1
  Ti4+  Ti14  1  0.50107308  0.49981771  0.83298374  1
  Ti4+  Ti15  1  0.49849761  0.83362557  0.16749671  1
  Ti4+  Ti16  1  0.50293270  0.83317934  0.50058169  1
  Ti4+  Ti17  1  0.50009625  0.83229096  0.83330973  1
  Ti4+  Ti18  1  0.83163431  0.16415696  0.16617204  1
  Ti4+  Ti19  1  0.83409811  0.16811165  0.49989011  1
  Ti4+  Ti20  1  0.83741096  0.16750720  0.83415437  1
  Ti4+  Ti21  1  0.83254109  0.49910507  0.16265626  1
  Ti4+  Ti22  1  0.83247647  0.50203695  0.49798373  1
  Ti4+  Ti23  1  0.83301478  0.49925385  0.83170915  1
  Ti4+  Ti24  1  0.83114936  0.83009433  0.16609932  1
  Ti4+  Ti25  1  0.83680649  0.83526814  0.49991527  1
  Ti4+  Ti26  1  0.83295941  0.83387364  0.83622775  1
  Cu+  Cu27  1  0.17054115  0.16469316  0.00114067  1
  Cu+  Cu28  1  0.16262246  0.17111647  0.33256422  1
  Cu+  Cu29  1  0.16936159  0.16747212  0.66766129  1
  Cu+  Cu30  1  0.16479350  0.49769572  -0.00038191  1
  Cu+  Cu31  1  0.17235211  0.50619752  0.33626501  1
  Cu+  Cu32  1  0.16800753  0.49941018  0.66798004  1
  Cu+  Cu33  1  0.16212907  0.83522153  -0.00060149  1
  Cu+  Cu34  1  0.16546907  0.83688795  0.33579792  1
  Cu+  Cu35  1  0.16616845  0.82675024  0.66581568  1
  Cu+  Cu36  1  0.50035869  0.16769898  0.00322890  1
  Cu+  Cu37  1  0.49877666  0.17077864  0.33400413  1
  Cu+  Cu38  1  0.50204797  0.16657140  0.66740513  1
  Cu+  Cu39  1  0.50287773  0.49743836  0.00245682  1
  Cu+  Cu40  1  0.49550911  0.49247330  0.33184771  1
  Cu+  Cu41  1  0.49941224  0.49919746  0.66556430  1
  Cu+  Cu42  1  0.49646422  0.83251624  -0.00032378  1
  Cu+  Cu43  1  0.50148306  0.83488261  0.33430321  1
  Cu+  Cu44  1  0.50367819  0.83328393  0.66571814  1
  Cu+  Cu45  1  0.83296194  0.16253757  -0.00152289  1
  Cu+  Cu46  1  0.83154990  0.16474816  0.33317157  1
  Cu+  Cu47  1  0.83620663  0.17053770  0.66615377  1
  Cu+  Cu48  1  0.83178642  0.49890765  -0.00348122  1
  Cu+  Cu49  1  0.83244658  0.50107518  0.32832751  1
  Cu+  Cu50  1  0.83457592  0.50216401  0.66293957  1
  Cu+  Cu51  1  0.82935162  0.82499752  0.00150992  1
  Cu+  Cu52  1  0.83735541  0.83682756  0.33203217  1
  Cu+  Cu53  1  0.83717086  0.83553450  0.66855854  1
  Cu+  Cu54  1  0.16832399  0.00404254  0.16602191  1
  Cu+  Cu55  1  0.16981819  -0.00057354  0.49897699  1
  Cu+  Cu56  1  0.16380958  -0.00177666  0.83457112  1
  Cu+  Cu57  1  0.16257410  0.33437369  0.16747577  1
  Cu+  Cu58  1  0.16568360  0.32945025  0.49595253  1
  Cu+  Cu59  1  0.16741099  0.33544680  0.83721048  1
  Cu+  Cu60  1  0.16879333  0.66703855  0.17251979  1
  Cu+  Cu61  1  0.16270558  0.66564325  0.50314751  1
  Cu+  Cu62  1  0.17103914  0.66920208  0.82996173  1
  Cu+  Cu63  1  0.49968146  -0.00033239  0.16667462  1
  Cu+  Cu64  1  0.50165371  0.00065657  0.50068702  1
  Cu+  Cu65  1  0.50168874  -0.00219452  0.83419412  1
  Cu+  Cu66  1  0.49568495  0.33444558  0.16259714  1
  Cu+  Cu67  1  0.49791729  0.33391088  0.50088526  1
  Cu+  Cu68  1  0.50561430  0.33442700  0.83362298  1
  Cu+  Cu69  1  0.49861414  0.66922546  0.16756110  1
  Cu+  Cu70  1  0.50276163  0.66516632  0.50241730  1
  Cu+  Cu71  1  0.49624587  0.66356775  0.83214039  1
  Cu+  Cu72  1  0.83303549  -0.00465694  0.16751682  1
  Cu+  Cu73  1  0.83608400  0.00321899  0.50137338  1
  Cu+  Cu74  1  0.83208592  0.00255006  0.83940820  1
  Cu+  Cu75  1  0.82958103  0.32955074  0.16446454  1
  Cu+  Cu76  1  0.83405393  0.33698493  0.49928841  1
  Cu+  Cu77  1  0.83328072  0.33062027  0.82841942  1
  Cu+  Cu78  1  0.83678588  0.66451577  0.16030397  1
  Cu+  Cu79  1  0.83295754  0.66930172  0.49804657  1
  Cu+  Cu80  1  0.83151760  0.66665074  0.83618436  1
  Cu+  Cu81  1  -0.00130421  0.16503361  0.16668393  1
  Cu+  Cu82  1  -0.00004699  0.16983851  0.49743410  1
  Cu+  Cu83  1  0.00214928  0.16765322  0.83413898  1
  Cu+  Cu84  1  -0.00513012  0.50267136  0.16955946  1
  Cu+  Cu85  1  0.00114928  0.50331989  0.49546945  1
  Cu+  Cu86  1  0.00377101  0.50089004  0.83757064  1
  Cu+  Cu87  1  -0.00245797  0.83299500  0.16795393  1
  Cu+  Cu88  1  0.00579166  0.83297763  0.50027347  1
  Cu+  Cu89  1  -0.00467241  0.83285635  0.83033340  1
  Cu+  Cu90  1  0.32924127  0.16962086  0.15900171  1
  Cu+  Cu91  1  0.33545319  0.16579668  0.50224165  1
  Cu+  Cu92  1  0.33512695  0.16761436  0.83549030  1
  Cu+  Cu93  1  0.33128303  0.50289711  0.17616180  1
  Cu+  Cu94  1  0.33028579  0.49052610  0.50135185  1
  Cu+  Cu95  1  0.33674720  0.50576160  0.83200609  1
  Cu+  Cu96  1  0.33475500  0.83590365  0.16758821  1
  Cu+  Cu97  1  0.33755114  0.83268841  0.50068174  1
  Cu+  Cu98  1  0.33079500  0.83118578  0.83236702  1
  Cu+  Cu99  1  0.66445441  0.16425370  0.16503418  1
  Cu+  Cu100  1  0.66677723  0.16844931  0.50098423  1
  Cu+  Cu101  1  0.67302063  0.16810398  0.83533440  1
  Cu+  Cu102  1  0.66686829  0.49838921  0.16235380  1
  Cu+  Cu103  1  0.66557169  0.50223251  0.49878101  1
  Cu+  Cu104  1  0.66502945  0.49581486  0.82813379  1
  Cu+  Cu105  1  0.66464385  0.83310209  0.16630179  1
  Cu+  Cu106  1  0.67029844  0.83462645  0.49957421  1
  Cu+  Cu107  1  0.66656764  0.83101656  0.83811377  1
  Cu+  Cu108  1  0.59550062  0.40725536  0.07294785  1
  Cu+  Cu109  1  0.25787254  0.06966107  0.07069048  1
  Cu+  Cu110  1  0.40401157  0.40153247  0.25501614  1
  Cu+  Cu111  1  0.59545039  0.40886089  0.40506695  1
  Cu+  Cu112  1  0.40333537  0.40326997  0.59831322  1
  Cu+  Cu113  1  0.74081991  0.07436370  0.92574210  1
  Cu+  Cu114  1  0.26304212  0.74457461  0.73750793  1
  Cu+  Cu115  1  0.59253707  0.06823057  0.07897257  1
  Cu+  Cu116  1  0.73444686  0.73429484  0.92712728  1
  Cu+  Cu117  1  0.91593331  0.73592424  0.73973332  1
  Cu+  Cu118  1  0.07254208  0.40471375  0.92780663  1
  Cu+  Cu119  1  0.40973795  0.59281737  0.73598198  1
  Cu+  Cu120  1  0.91936711  0.59339768  0.25894374  1
  Cu+  Cu121  1  0.07310722  0.73812539  0.59386309  1
  Cu+  Cu122  1  0.59194420  0.40601669  0.73663490  1
  Cu+  Cu123  1  0.92432523  0.92869174  0.25736223  1
  Cu+  Cu124  1  0.40162919  0.26417780  0.06938210  1
  Cu+  Cu125  1  0.26466011  0.60150885  0.26414602  1
  Cu+  Cu126  1  0.07421870  0.59505244  0.40795928  1
  Cu+  Cu127  1  0.59516589  0.59405031  0.59179059  1
  Cu+  Cu128  1  0.93191299  0.73915676  0.07358457  1
  Cu+  Cu129  1  0.06757441  0.26176562  0.40498458  1
  Cu+  Cu130  1  0.25402131  0.40064200  0.40725825  1
  Cu+  Cu131  1  0.74331710  0.25542557  0.73680662  1
  Cu+  Cu132  1  0.07841723  0.92957025  0.41020546  1
  Te2-  Te133  1  0.24860784  0.26088691  0.07731501  1
  Te2-  Te134  1  0.25692291  0.24860856  0.41241060  1
  Te2-  Te135  1  0.25309749  0.25382420  0.75075913  1
  Te2-  Te136  1  0.25057370  0.58334059  0.08363842  1
  Te2-  Te137  1  0.25791758  0.59063371  0.42048813  1
  Te2-  Te138  1  0.25490598  0.58779566  0.74222558  1
  Te2-  Te139  1  0.25134301  0.91732099  0.08036985  1
  Te2-  Te140  1  0.25640236  0.91790970  0.41540868  1
  Te2-  Te141  1  0.24868279  0.91727428  0.74660824  1
  Te2-  Te142  1  0.58840503  0.25534683  0.08018091  1
  Te2-  Te143  1  0.58702899  0.25494708  0.41370782  1
  Te2-  Te144  1  0.58999286  0.25224005  0.74568977  1
  Te2-  Te145  1  0.58307116  0.58721911  0.08331437  1
  Te2-  Te146  1  0.58073376  0.58197889  0.41047149  1
  Te2-  Te147  1  0.58752877  0.58817098  0.74573967  1
  Te2-  Te148  1  0.58531467  0.91719986  0.07820296  1
  Te2-  Te149  1  0.58735048  0.91964832  0.41587619  1
  Te2-  Te150  1  0.58821336  0.91676317  0.75009628  1
  Te2-  Te151  1  0.91671589  0.24884030  0.08054136  1
  Te2-  Te152  1  0.91627476  0.25532243  0.41036338  1
  Te2-  Te153  1  0.92433353  0.25295590  0.74725572  1
  Te2-  Te154  1  0.92165513  0.58317807  0.07293529  1
  Te2-  Te155  1  0.91858856  0.59000150  0.41132396  1
  Te2-  Te156  1  0.92050420  0.58402185  0.74860974  1
  Te2-  Te157  1  0.91632710  0.91536858  0.07790552  1
  Te2-  Te158  1  0.92395781  0.92292788  0.41443389  1
  Te2-  Te159  1  0.91601349  0.92442513  0.75146792  1
  Te2-  Te160  1  0.25206172  0.08672972  0.25285366  1
  Te2-  Te161  1  0.25262067  0.08087171  0.58567498  1
  Te2-  Te162  1  0.25460289  0.07756656  0.91755734  1
  Te2-  Te163  1  0.25017769  0.40869092  0.25560936  1
  Te2-  Te164  1  0.24781738  0.40806114  0.58966708  1
  Te2-  Te165  1  0.25722234  0.41822576  0.91829618  1
  Te2-  Te166  1  0.25381476  0.75279495  0.25600302  1
  Te2-  Te167  1  0.25717414  0.74358055  0.58353864  1
  Te2-  Te168  1  0.24995513  0.74949368  0.92174748  1
  Te2-  Te169  1  0.58193840  0.08341614  0.25303882  1
  Te2-  Te170  1  0.58644126  0.08232150  0.58563268  1
  Te2-  Te171  1  0.58779684  0.07914962  0.92169223  1
  Te2-  Te172  1  0.58748251  0.41112715  0.25077978  1
  Te2-  Te173  1  0.58891348  0.41160107  0.58609948  1
  Te2-  Te174  1  0.58902967  0.41346738  0.92040560  1
  Te2-  Te175  1  0.58493574  0.74838094  0.25276101  1
  Te2-  Te176  1  0.59132443  0.74751976  0.58672942  1
  Te2-  Te177  1  0.58166901  0.74328287  0.92048547  1
  Te2-  Te178  1  0.91883961  0.08050251  0.25310356  1
  Te2-  Te179  1  0.92148249  0.08490638  0.58577506  1
  Te2-  Te180  1  0.92396328  0.08102102  0.92007442  1
  Te2-  Te181  1  0.91512244  0.41070846  0.24913548  1
  Te2-  Te182  1  0.92080812  0.41854211  0.58174301  1
  Te2-  Te183  1  0.91733071  0.41198494  0.91707477  1
  Te2-  Te184  1  0.91935344  0.74486705  0.25440441  1
  Te2-  Te185  1  0.92114358  0.74495190  0.58622620  1
  Te2-  Te186  1  0.92213852  0.74498378  0.92069819  1
  Te2-  Te187  1  0.07517263  0.25488054  0.25082515  1
  Te2-  Te188  1  0.08247553  0.25240024  0.58612030  1
  Te2-  Te189  1  0.08173138  0.25160906  0.92324822  1
  Te2-  Te190  1  0.07702798  0.58863506  0.25580421  1
  Te2-  Te191  1  0.07877371  0.58248924  0.59020394  1
  Te2-  Te192  1  0.08531985  0.59031114  0.91886772  1
  Te2-  Te193  1  0.07952574  0.92415064  0.25256803  1
  Te2-  Te194  1  0.08518497  0.91937500  0.58737524  1
  Te2-  Te195  1  0.07663195  0.91746671  0.91739876  1
  Te2-  Te196  1  0.41003984  0.25106314  0.25212546  1
  Te2-  Te197  1  0.41332170  0.25180535  0.58975779  1
  Te2-  Te198  1  0.41629533  0.25524465  0.91826644  1
  Te2-  Te199  1  0.41677290  0.59033655  0.25734348  1
  Te2-  Te200  1  0.40921670  0.58476353  0.58339804  1
  Te2-  Te201  1  0.41749633  0.58333126  0.92364621  1
  Te2-  Te202  1  0.41511267  0.92065050  0.25373925  1
  Te2-  Te203  1  0.41732031  0.91882780  0.58611053  1
  Te2-  Te204  1  0.41267729  0.91714907  0.91635748  1
  Te2-  Te205  1  0.74565278  0.24897047  0.25115068  1
  Te2-  Te206  1  0.74756643  0.25615808  0.58401738  1
  Te2-  Te207  1  0.75118213  0.25492417  0.92167402  1
  Te2-  Te208  1  0.74621679  0.58644469  0.24650378  1
  Te2-  Te209  1  0.74842311  0.58899277  0.58488915  1
  Te2-  Te210  1  0.74316207  0.58196956  0.91687870  1
  Te2-  Te211  1  0.74556755  0.91665809  0.25238251  1
  Te2-  Te212  1  0.75214264  0.91887061  0.58569132  1
  Te2-  Te213  1  0.74600003  0.91861057  0.92408656  1
  Te2-  Te214  1  0.07987669  0.08211820  0.08058831  1
  Te2-  Te215  1  0.08070965  0.08087147  0.41317381  1
  Te2-  Te216  1  0.08305800  0.08276974  0.74847796  1
  Te2-  Te217  1  0.07712458  0.41687681  0.08457557  1
  Te2-  Te218  1  0.08069027  0.41507688  0.41041118  1
  Te2-  Te219  1  0.08238174  0.41538246  0.74869957  1
  Te2-  Te220  1  0.08317594  0.74581757  0.08323264  1
  Te2-  Te221  1  0.08059858  0.74601104  0.41053507  1
  Te2-  Te222  1  0.07456138  0.74244736  0.74695710  1
  Te2-  Te223  1  0.41226808  0.07816740  0.07905702  1
  Te2-  Te224  1  0.41687936  0.08265347  0.41554071  1
  Te2-  Te225  1  0.41819288  0.08309507  0.75125357  1
  Te2-  Te226  1  0.40627389  0.41903992  0.08003497  1
  Te2-  Te227  1  0.40870702  0.40723448  0.41124480  1
  Te2-  Te228  1  0.41252316  0.41089444  0.74969756  1
  Te2-  Te229  1  0.41217238  0.74778766  0.08220649  1
  Te2-  Te230  1  0.41798699  0.74653291  0.41570620  1
  Te2-  Te231  1  0.41453818  0.74677059  0.74274917  1
  Te2-  Te232  1  0.74621304  0.07427508  0.08035836  1
  Te2-  Te233  1  0.74753452  0.08155693  0.41651178  1
  Te2-  Te234  1  0.75082290  0.08138769  0.74665765  1
  Te2-  Te235  1  0.74805680  0.41097029  0.07655375  1
  Te2-  Te236  1  0.74817918  0.41606547  0.41127915  1
  Te2-  Te237  1  0.74865893  0.41321696  0.74101289  1
  Te2-  Te238  1  0.74055640  0.74215137  0.08242814  1
  Te2-  Te239  1  0.75127887  0.75193847  0.41257540  1
  Te2-  Te240  1  0.74837766  0.74913093  0.74723844  1
