# generated using pymatgen
data_Ti27(Cu53Te54)2
_symmetry_space_group_name_H-M   'P 1'
_cell_length_a   17.89590601
_cell_length_b   17.90373827
_cell_length_c   17.90284473
_cell_angle_alpha   90.02256772
_cell_angle_beta   89.99068807
_cell_angle_gamma   89.99661605
_symmetry_Int_Tables_number   1
_chemical_formula_structural   Ti27(Cu53Te54)2
_chemical_formula_sum   'Ti27 Cu106 Te108'
_cell_volume   5736.13567972
_cell_formula_units_Z   1
loop_
 _symmetry_equiv_pos_site_id
 _symmetry_equiv_pos_as_xyz
  1  'x, y, z'
loop_
 _atom_type_symbol
 _atom_type_oxidation_number
  Ti4+  4.0
  Cu+  1.0
  Te2-  -2.0
loop_
 _atom_site_type_symbol
 _atom_site_label
 _atom_site_symmetry_multiplicity
 _atom_site_fract_x
 _atom_site_fract_y
 _atom_site_fract_z
 _atom_site_occupancy
  Ti4+  Ti0  1  0.16603523  0.16890141  0.16434923  1
  Ti4+  Ti1  1  0.16761569  0.16578608  0.50301107  1
  Ti4+  Ti2  1  0.16348611  0.16529824  0.83151125  1
  Ti4+  Ti3  1  0.16499471  0.50105169  0.16960226  1
  Ti4+  Ti4  1  0.17004964  0.49542916  0.50078280  1
  Ti4+  Ti5  1  0.16590925  0.49954265  0.83366088  1
  Ti4+  Ti6  1  0.16144272  0.83539989  0.16564595  1
  Ti4+  Ti7  1  0.16907173  0.83691280  0.49554958  1
  Ti4+  Ti8  1  0.16559650  0.83265843  0.83201330  1
  Ti4+  Ti9  1  0.49715653  0.16543455  0.16170118  1
  Ti4+  Ti10  1  0.49868791  0.16519063  0.49897415  1
  Ti4+  Ti11  1  0.50017594  0.16602531  0.83436380  1
  Ti4+  Ti12  1  0.49690202  0.49931511  0.16420457  1
  Ti4+  Ti13  1  0.50230249  0.50005892  0.49766407  1
  Ti4+  Ti14  1  0.50075566  0.49888511  0.83180604  1
  Ti4+  Ti15  1  0.50076503  0.83179095  0.16678053  1
  Ti4+  Ti16  1  0.50127385  0.83303496  0.50338081  1
  Ti4+  Ti17  1  0.49910283  0.83358084  0.83630509  1
  Ti4+  Ti18  1  0.83109175  0.16661091  0.16658349  1
  Ti4+  Ti19  1  0.83341056  0.16486518  0.50195439  1
  Ti4+  Ti20  1  0.83418925  0.16992987  0.83576042  1
  Ti4+  Ti21  1  0.83069148  0.49922515  0.16967513  1
  Ti4+  Ti22  1  0.83571448  0.49975439  0.49775021  1
  Ti4+  Ti23  1  0.83345039  0.50303180  0.83157973  1
  Ti4+  Ti24  1  0.83749522  0.83437831  0.16787780  1
  Ti4+  Ti25  1  0.83610030  0.83440456  0.50169927  1
  Ti4+  Ti26  1  0.83526219  0.83304991  0.83604036  1
  Cu+  Cu27  1  0.16496811  0.16848437  -0.00255083  1
  Cu+  Cu28  1  0.17024060  0.16838120  0.33052454  1
  Cu+  Cu29  1  0.15892479  0.16670472  0.66865957  1
  Cu+  Cu30  1  0.16689469  0.49993387  0.00332879  1
  Cu+  Cu31  1  0.16628410  0.49976463  0.33889963  1
  Cu+  Cu32  1  0.16933148  0.49821364  0.66820307  1
  Cu+  Cu33  1  0.16183927  0.82962607  -0.00355529  1
  Cu+  Cu34  1  0.16071313  0.84137104  0.33146277  1
  Cu+  Cu35  1  0.16922508  0.83346722  0.66389077  1
  Cu+  Cu36  1  0.49537148  0.17020655  -0.00329566  1
  Cu+  Cu37  1  0.50060835  0.16644524  0.32792877  1
  Cu+  Cu38  1  0.49903739  0.16362098  0.66561186  1
  Cu+  Cu39  1  0.49917434  0.49827035  -0.00206971  1
  Cu+  Cu40  1  0.50247960  0.50141317  0.32884145  1
  Cu+  Cu41  1  0.50195241  0.49639874  0.66444774  1
  Cu+  Cu42  1  0.49834299  0.83301832  0.00304386  1
  Cu+  Cu43  1  0.50292141  0.83235410  0.33623100  1
  Cu+  Cu44  1  0.50225272  0.83415758  0.67219286  1
  Cu+  Cu45  1  0.82900891  0.16600921  0.00080459  1
  Cu+  Cu46  1  0.83025940  0.16626184  0.33462037  1
  Cu+  Cu47  1  0.83515675  0.16726227  0.66928414  1
  Cu+  Cu48  1  0.82732533  0.50151110  -0.00193439  1
  Cu+  Cu49  1  0.83548598  0.50099513  0.33581846  1
  Cu+  Cu50  1  0.83611045  0.50377113  0.66270461  1
  Cu+  Cu51  1  0.84336464  0.83592499  0.00174888  1
  Cu+  Cu52  1  0.83619871  0.83684795  0.33417536  1
  Cu+  Cu53  1  0.83667988  0.82989674  0.66891905  1
  Cu+  Cu54  1  0.16578567  0.00488110  0.16221544  1
  Cu+  Cu55  1  0.16943789  0.00496231  0.49601835  1
  Cu+  Cu56  1  0.16763394  -0.00309820  0.83096625  1
  Cu+  Cu57  1  0.16671752  0.33552198  0.16839558  1
  Cu+  Cu58  1  0.17138318  0.32994733  0.50281325  1
  Cu+  Cu59  1  0.16457431  0.33248552  0.83131189  1
  Cu+  Cu60  1  0.16260140  0.66960645  0.17010424  1
  Cu+  Cu61  1  0.17205636  0.66487501  0.49791182  1
  Cu+  Cu62  1  0.16333803  0.66513072  0.83260994  1
  Cu+  Cu63  1  0.49819863  -0.00496506  0.16106330  1
  Cu+  Cu64  1  0.49603534  -0.00187388  0.50128560  1
  Cu+  Cu65  1  0.49694567  0.00010582  0.83843564  1
  Cu+  Cu66  1  0.49387632  0.33222619  0.15860155  1
  Cu+  Cu67  1  0.49903654  0.33478792  0.49953680  1
  Cu+  Cu68  1  0.50627003  0.33121213  0.83312767  1
  Cu+  Cu69  1  0.50022132  0.66619556  0.16743816  1
  Cu+  Cu70  1  0.50294607  0.66834649  0.50215663  1
  Cu+  Cu71  1  0.50062452  0.66623207  0.83388551  1
  Cu+  Cu72  1  0.83521520  0.00096146  0.16753605  1
  Cu+  Cu73  1  0.83041787  0.00035157  0.50303542  1
  Cu+  Cu74  1  0.83578078  0.00230120  0.84081342  1
  Cu+  Cu75  1  0.82700438  0.33105592  0.16719967  1
  Cu+  Cu76  1  0.83689801  0.33150218  0.49935284  1
  Cu+  Cu77  1  0.83274695  0.34056657  0.83262256  1
  Cu+  Cu78  1  0.83621164  0.66461916  0.16967038  1
  Cu+  Cu79  1  0.83711975  0.66509810  0.50170761  1
  Cu+  Cu80  1  0.83312020  0.66765921  0.82832179  1
  Cu+  Cu81  1  -0.00060162  0.16948619  0.16564390  1
  Cu+  Cu82  1  0.00169175  0.16356558  0.50645576  1
  Cu+  Cu83  1  -0.00123117  0.16763531  0.82474790  1
  Cu+  Cu84  1  -0.00269963  0.49839413  0.17171949  1
  Cu+  Cu85  1  0.00274969  0.49695416  0.49573829  1
  Cu+  Cu86  1  -0.00101421  0.50074566  0.83412381  1
  Cu+  Cu87  1  -0.00299072  0.83133882  0.16989554  1
  Cu+  Cu88  1  0.00304950  0.83683290  0.49561786  1
  Cu+  Cu89  1  0.00099962  0.83063494  0.83683773  1
  Cu+  Cu90  1  0.33291056  0.17055770  0.15916707  1
  Cu+  Cu91  1  0.33426722  0.15858599  0.50355847  1
  Cu+  Cu92  1  0.32990997  0.16367498  0.83398958  1
  Cu+  Cu93  1  0.33030130  0.50040239  0.16724958  1
  Cu+  Cu94  1  0.33863481  0.49402950  0.50325942  1
  Cu+  Cu95  1  0.33238715  0.49712949  0.83250192  1
  Cu+  Cu96  1  0.33074426  0.83481456  0.16476305  1
  Cu+  Cu97  1  0.33779182  0.83871810  0.49649238  1
  Cu+  Cu98  1  0.33047847  0.83163352  0.83293700  1
  Cu+  Cu99  1  0.66500289  0.16373998  0.16431481  1
  Cu+  Cu100  1  0.66596436  0.16843074  0.49993565  1
  Cu+  Cu101  1  0.66740853  0.16874068  0.84033820  1
  Cu+  Cu102  1  0.66027717  0.50100068  0.16917449  1
  Cu+  Cu103  1  0.66973021  0.50036999  0.49307457  1
  Cu+  Cu104  1  0.66843432  0.50136681  0.82938107  1
  Cu+  Cu105  1  0.67085199  0.83006666  0.16671387  1
  Cu+  Cu106  1  0.66699401  0.83199712  0.50478777  1
  Cu+  Cu107  1  0.66415027  0.83547782  0.83828045  1
  Cu+  Cu108  1  0.41569794  0.92485343  0.40365659  1
  Cu+  Cu109  1  0.40084333  0.26576254  0.06728826  1
  Cu+  Cu110  1  0.07395696  0.06922965  0.59317319  1
  Cu+  Cu111  1  0.41101212  0.40519748  0.59566582  1
  Cu+  Cu112  1  0.74119827  0.59837624  0.41191046  1
  Cu+  Cu113  1  0.07101904  0.26650595  0.74076117  1
  Cu+  Cu114  1  0.93123892  0.93226944  0.92800176  1
  Cu+  Cu115  1  0.92034485  0.73209532  0.07406041  1
  Cu+  Cu116  1  0.40283947  0.91879486  0.07259799  1
  Cu+  Cu117  1  0.58753123  0.59538399  0.25679865  1
  Cu+  Cu118  1  0.26245037  0.08287667  0.39943374  1
  Cu+  Cu119  1  0.92885263  0.74151278  0.74065476  1
  Cu+  Cu120  1  0.92486980  0.58997698  0.25787472  1
  Cu+  Cu121  1  0.59596421  0.26448595  0.92768349  1
  Cu+  Cu122  1  0.07544970  0.74321753  0.26230795  1
  Cu+  Cu123  1  0.73862246  0.07256420  0.92804681  1
  Cu+  Cu124  1  0.07990727  0.59260607  0.41406110  1
  Cu+  Cu125  1  0.92896880  0.39856311  0.40631026  1
  Cu+  Cu126  1  0.07328205  0.93476199  0.40766446  1
  Cu+  Cu127  1  0.40997300  0.06897840  0.59645725  1
  Cu+  Cu128  1  0.91842839  0.07174401  0.74181194  1
  Cu+  Cu129  1  0.93374724  0.58622742  0.59226451  1
  Cu+  Cu130  1  0.92045317  0.93418300  0.26289827  1
  Cu+  Cu131  1  0.40012974  0.07421460  0.92487992  1
  Cu+  Cu132  1  0.07616081  0.73384917  0.92458295  1
  Te2-  Te133  1  0.24865498  0.25686755  0.07682407  1
  Te2-  Te134  1  0.25609592  0.24887344  0.41737998  1
  Te2-  Te135  1  0.25091622  0.24938808  0.74728112  1
  Te2-  Te136  1  0.24866604  0.58836399  0.08493206  1
  Te2-  Te137  1  0.25813710  0.58053305  0.41717959  1
  Te2-  Te138  1  0.25183137  0.58528346  0.74926115  1
  Te2-  Te139  1  0.24654316  0.91850857  0.07735242  1
  Te2-  Te140  1  0.25658440  0.92386025  0.40842317  1
  Te2-  Te141  1  0.25255860  0.91731334  0.74647559  1
  Te2-  Te142  1  0.58691458  0.25244014  0.07886680  1
  Te2-  Te143  1  0.58254642  0.25080916  0.41369498  1
  Te2-  Te144  1  0.58708048  0.24726045  0.74607492  1
  Te2-  Te145  1  0.58326170  0.58536830  0.07860532  1
  Te2-  Te146  1  0.58749218  0.59064943  0.41108849  1
  Te2-  Te147  1  0.58407218  0.58480517  0.74630418  1
  Te2-  Te148  1  0.58972432  0.91490819  0.08163055  1
  Te2-  Te149  1  0.58782471  0.91884206  0.41814474  1
  Te2-  Te150  1  0.58463257  0.92152189  0.75336433  1
  Te2-  Te151  1  0.91509963  0.25292937  0.08171178  1
  Te2-  Te152  1  0.92194513  0.24666232  0.41504989  1
  Te2-  Te153  1  0.91658474  0.25931113  0.74653094  1
  Te2-  Te154  1  0.91883808  0.58083100  0.08006602  1
  Te2-  Te155  1  0.92518899  0.59119252  0.41144122  1
  Te2-  Te156  1  0.92424449  0.58855567  0.74481961  1
  Te2-  Te157  1  0.92496686  0.92441754  0.08235096  1
  Te2-  Te158  1  0.92016586  0.92552917  0.41514863  1
  Te2-  Te159  1  0.92102977  0.91917050  0.74879781  1
  Te2-  Te160  1  0.25526723  0.08174618  0.24646616  1
  Te2-  Te161  1  0.25111149  0.07875033  0.59338151  1
  Te2-  Te162  1  0.24800380  0.07850733  0.91983937  1
  Te2-  Te163  1  0.25081938  0.41614728  0.25455219  1
  Te2-  Te164  1  0.25474186  0.41066061  0.58951937  1
  Te2-  Te165  1  0.24909981  0.41368446  0.91862615  1
  Te2-  Te166  1  0.24849760  0.75340543  0.25264604  1
  Te2-  Te167  1  0.25457585  0.75133460  0.57987840  1
  Te2-  Te168  1  0.25033874  0.74586259  0.91783249  1
  Te2-  Te169  1  0.58183030  0.07869286  0.24652239  1
  Te2-  Te170  1  0.58539823  0.08031549  0.58344622  1
  Te2-  Te171  1  0.58524057  0.07886393  0.92318573  1
  Te2-  Te172  1  0.58027811  0.40902782  0.24793057  1
  Te2-  Te173  1  0.59037027  0.41484088  0.58086908  1
  Te2-  Te174  1  0.58967090  0.41633987  0.91876071  1
  Te2-  Te175  1  0.58845892  0.74817203  0.25391448  1
  Te2-  Te176  1  0.58609649  0.74798272  0.59006433  1
  Te2-  Te177  1  0.58351553  0.74787662  0.92141357  1
  Te2-  Te178  1  0.91990722  0.08524315  0.25394221  1
  Te2-  Te179  1  0.91941520  0.07615111  0.58943722  1
  Te2-  Te180  1  0.92445935  0.08686163  0.92324901  1
  Te2-  Te181  1  0.91657821  0.40877998  0.25306851  1
  Te2-  Te182  1  0.92134450  0.41399231  0.58519721  1
  Te2-  Te183  1  0.91711941  0.41833978  0.91984765  1
  Te2-  Te184  1  0.92111965  0.74442451  0.26041541  1
  Te2-  Te185  1  0.92610334  0.74736328  0.58460554  1
  Te2-  Te186  1  0.92104979  0.73962680  0.92143226  1
  Te2-  Te187  1  0.08223637  0.25273363  0.25190229  1
  Te2-  Te188  1  0.07920054  0.25623160  0.58636769  1
  Te2-  Te189  1  0.07803711  0.25137698  0.91611804  1
  Te2-  Te190  1  0.07750934  0.58775508  0.25906647  1
  Te2-  Te191  1  0.08562811  0.58537913  0.58628993  1
  Te2-  Te192  1  0.07923647  0.58309741  0.92199965  1
  Te2-  Te193  1  0.07705666  0.92912647  0.25032507  1
  Te2-  Te194  1  0.08256657  0.91893958  0.58487742  1
  Te2-  Te195  1  0.08066641  0.92209083  0.91968419  1
  Te2-  Te196  1  0.41353014  0.25117675  0.24895892  1
  Te2-  Te197  1  0.41331989  0.25169597  0.58643673  1
  Te2-  Te198  1  0.40929238  0.25645790  0.91454843  1
  Te2-  Te199  1  0.41219375  0.58563503  0.25122174  1
  Te2-  Te200  1  0.41770098  0.58536746  0.58475802  1
  Te2-  Te201  1  0.41438214  0.58331293  0.91645304  1
  Te2-  Te202  1  0.41371967  0.91803687  0.25264146  1
  Te2-  Te203  1  0.41335768  0.91768333  0.59246590  1
  Te2-  Te204  1  0.40761574  0.91854269  0.92168110  1
  Te2-  Te205  1  0.74339864  0.24886146  0.25257512  1
  Te2-  Te206  1  0.74969324  0.25172465  0.58582711  1
  Te2-  Te207  1  0.74994184  0.25964231  0.92122625  1
  Te2-  Te208  1  0.74389818  0.58836760  0.25530382  1
  Te2-  Te209  1  0.74660356  0.58603937  0.58278234  1
  Te2-  Te210  1  0.74675722  0.58869766  0.91509774  1
  Te2-  Te211  1  0.74871035  0.91866367  0.25199041  1
  Te2-  Te212  1  0.75083071  0.91555617  0.58882154  1
  Te2-  Te213  1  0.74835914  0.91734607  0.92427612  1
  Te2-  Te214  1  0.07904875  0.08492151  0.07893245  1
  Te2-  Te215  1  0.07932403  0.08538340  0.41070552  1
  Te2-  Te216  1  0.07739984  0.07258194  0.74657329  1
  Te2-  Te217  1  0.07959211  0.41601882  0.08447591  1
  Te2-  Te218  1  0.08431450  0.40615545  0.41405528  1
  Te2-  Te219  1  0.07806710  0.41673325  0.74582673  1
  Te2-  Te220  1  0.07594501  0.74444062  0.07949843  1
  Te2-  Te221  1  0.08116947  0.74605713  0.41337273  1
  Te2-  Te222  1  0.08176688  0.74669806  0.74205743  1
  Te2-  Te223  1  0.40905864  0.07644099  0.07650264  1
  Te2-  Te224  1  0.41415573  0.07888104  0.40692138  1
  Te2-  Te225  1  0.41269150  0.07882924  0.74874932  1
  Te2-  Te226  1  0.40799981  0.41697486  0.07615094  1
  Te2-  Te227  1  0.41774605  0.41546857  0.40980621  1
  Te2-  Te228  1  0.41554901  0.41018901  0.74849915  1
  Te2-  Te229  1  0.41286175  0.74574864  0.08315612  1
  Te2-  Te230  1  0.41641228  0.74666785  0.41596557  1
  Te2-  Te231  1  0.41503970  0.74821212  0.75034537  1
  Te2-  Te232  1  0.74625383  0.07696405  0.08160158  1
  Te2-  Te233  1  0.74684995  0.08103803  0.41682263  1
  Te2-  Te234  1  0.74838732  0.08226967  0.75200432  1
  Te2-  Te235  1  0.74452319  0.41762793  0.08391826  1
  Te2-  Te236  1  0.75058645  0.41062525  0.41292876  1
  Te2-  Te237  1  0.75007096  0.41861551  0.74312012  1
  Te2-  Te238  1  0.75433109  0.74753795  0.08087068  1
  Te2-  Te239  1  0.74984140  0.75115175  0.41533751  1
  Te2-  Te240  1  0.74544530  0.75189719  0.75071399  1
