# generated using pymatgen
data_Ti27(Cu53Te54)2
_symmetry_space_group_name_H-M   'P 1'
_cell_length_a   17.86063210
_cell_length_b   17.85995052
_cell_length_c   17.85823078
_cell_angle_alpha   90.00229785
_cell_angle_beta   90.00376014
_cell_angle_gamma   90.01508394
_symmetry_Int_Tables_number   1
_chemical_formula_structural   Ti27(Cu53Te54)2
_chemical_formula_sum   'Ti27 Cu106 Te108'
_cell_volume   5696.59692079
_cell_formula_units_Z   1
loop_
 _symmetry_equiv_pos_site_id
 _symmetry_equiv_pos_as_xyz
  1  'x, y, z'
loop_
 _atom_type_symbol
 _atom_type_oxidation_number
  Ti4+  4.0
  Cu+  1.0
  Te2-  -2.0
loop_
 _atom_site_type_symbol
 _atom_site_label
 _atom_site_symmetry_multiplicity
 _atom_site_fract_x
 _atom_site_fract_y
 _atom_site_fract_z
 _atom_site_occupancy
  Ti4+  Ti0  1  0.16705163  0.16695640  0.16737193  1
  Ti4+  Ti1  1  0.16631363  0.16929401  0.50286126  1
  Ti4+  Ti2  1  0.16506761  0.16603642  0.83077073  1
  Ti4+  Ti3  1  0.16736701  0.50024924  0.16482045  1
  Ti4+  Ti4  1  0.16720755  0.49917928  0.49997576  1
  Ti4+  Ti5  1  0.16523953  0.50147857  0.83409714  1
  Ti4+  Ti6  1  0.16739832  0.83365546  0.16662946  1
  Ti4+  Ti7  1  0.16462148  0.83555243  0.49973211  1
  Ti4+  Ti8  1  0.16898638  0.83299258  0.82997663  1
  Ti4+  Ti9  1  0.50084374  0.16914492  0.16681771  1
  Ti4+  Ti10  1  0.50104546  0.16700101  0.50101525  1
  Ti4+  Ti11  1  0.50116503  0.16547620  0.83186044  1
  Ti4+  Ti12  1  0.49900665  0.50127778  0.16871385  1
  Ti4+  Ti13  1  0.50078118  0.49980350  0.49968180  1
  Ti4+  Ti14  1  0.50009935  0.49983738  0.83237911  1
  Ti4+  Ti15  1  0.49874350  0.83643254  0.16931859  1
  Ti4+  Ti16  1  0.49973925  0.83313399  0.49957163  1
  Ti4+  Ti17  1  0.50163196  0.83181889  0.83528671  1
  Ti4+  Ti18  1  0.83465083  0.16531440  0.16603421  1
  Ti4+  Ti19  1  0.83243903  0.16465517  0.49946635  1
  Ti4+  Ti20  1  0.83364479  0.16808981  0.83430012  1
  Ti4+  Ti21  1  0.83306346  0.49885159  0.16621138  1
  Ti4+  Ti22  1  0.83410635  0.50201222  0.50004111  1
  Ti4+  Ti23  1  0.83134658  0.49962093  0.83277779  1
  Ti4+  Ti24  1  0.83381302  0.83092564  0.16610635  1
  Ti4+  Ti25  1  0.83355118  0.82922522  0.50012543  1
  Ti4+  Ti26  1  0.83313672  0.83183353  0.83502709  1
  Cu+  Cu27  1  0.16593517  0.16705562  0.00093065  1
  Cu+  Cu28  1  0.16706631  0.16990074  0.33622645  1
  Cu+  Cu29  1  0.16519739  0.15936812  0.66629340  1
  Cu+  Cu30  1  0.16912544  0.50426624  -0.00100054  1
  Cu+  Cu31  1  0.16555105  0.49832120  0.33091574  1
  Cu+  Cu32  1  0.16651611  0.49579378  0.66828645  1
  Cu+  Cu33  1  0.16897931  0.83210686  -0.00128617  1
  Cu+  Cu34  1  0.16866564  0.83841397  0.33213412  1
  Cu+  Cu35  1  0.16178977  0.83700815  0.66706047  1
  Cu+  Cu36  1  0.49995482  0.16763966  -0.00352094  1
  Cu+  Cu37  1  0.50100238  0.16783715  0.33480893  1
  Cu+  Cu38  1  0.50112567  0.16535231  0.66447874  1
  Cu+  Cu39  1  0.50034428  0.49976880  0.00325748  1
  Cu+  Cu40  1  0.50071576  0.50084717  0.33351691  1
  Cu+  Cu41  1  0.50160148  0.49695577  0.66461587  1
  Cu+  Cu42  1  0.50226403  0.83486132  0.00363550  1
  Cu+  Cu43  1  0.49424772  0.83130414  0.33304358  1
  Cu+  Cu44  1  0.50091951  0.83389172  0.66694843  1
  Cu+  Cu45  1  0.83139775  0.16930960  0.00184882  1
  Cu+  Cu46  1  0.83394565  0.16267990  0.33232592  1
  Cu+  Cu47  1  0.83631680  0.17152023  0.66344562  1
  Cu+  Cu48  1  0.83594181  0.50145336  -0.00219252  1
  Cu+  Cu49  1  0.83263818  0.50267909  0.33436828  1
  Cu+  Cu50  1  0.82710932  0.50309903  0.66885467  1
  Cu+  Cu51  1  0.82884216  0.83030408  0.00068290  1
  Cu+  Cu52  1  0.83618417  0.82811024  0.33275634  1
  Cu+  Cu53  1  0.83885559  0.82961508  0.66757833  1
  Cu+  Cu54  1  0.17021235  -0.00048835  0.16972802  1
  Cu+  Cu55  1  0.16387795  0.00296067  0.50432350  1
  Cu+  Cu56  1  0.16729343  0.00013852  0.82571090  1
  Cu+  Cu57  1  0.16452769  0.33381715  0.16707503  1
  Cu+  Cu58  1  0.16395194  0.33717482  0.50409186  1
  Cu+  Cu59  1  0.16627982  0.33536518  0.82818245  1
  Cu+  Cu60  1  0.16598625  0.66747560  0.16361796  1
  Cu+  Cu61  1  0.16811504  0.66652836  0.49882716  1
  Cu+  Cu62  1  0.16917407  0.66555152  0.83815899  1
  Cu+  Cu63  1  0.49924288  0.00347775  0.16583274  1
  Cu+  Cu64  1  0.50359398  0.00137881  0.49788724  1
  Cu+  Cu65  1  0.50049316  -0.00460190  0.83140170  1
  Cu+  Cu66  1  0.50311807  0.33633480  0.16724798  1
  Cu+  Cu67  1  0.49742579  0.33186360  0.49907170  1
  Cu+  Cu68  1  0.50253083  0.33470298  0.83213406  1
  Cu+  Cu69  1  0.49550735  0.66920929  0.17146384  1
  Cu+  Cu70  1  0.49994306  0.66698204  0.50062163  1
  Cu+  Cu71  1  0.50116934  0.66663875  0.83489208  1
  Cu+  Cu72  1  0.83582844  -0.00351189  0.16622366  1
  Cu+  Cu73  1  0.82946012  -0.00531992  0.50017800  1
  Cu+  Cu74  1  0.83126507  0.00482791  0.83793170  1
  Cu+  Cu75  1  0.83151391  0.33258928  0.16386832  1
  Cu+  Cu76  1  0.83641657  0.33202730  0.50318979  1
  Cu+  Cu77  1  0.83234578  0.32828248  0.83262718  1
  Cu+  Cu78  1  0.83341342  0.66427374  0.16620120  1
  Cu+  Cu79  1  0.83430465  0.66576360  0.49355420  1
  Cu+  Cu80  1  0.83268272  0.66770844  0.83444597  1
  Cu+  Cu81  1  0.00166842  0.16273909  0.16671850  1
  Cu+  Cu82  1  -0.00172330  0.16815218  0.50483059  1
  Cu+  Cu83  1  -0.00137692  0.17042596  0.83663317  1
  Cu+  Cu84  1  0.00204082  0.49596611  0.16744613  1
  Cu+  Cu85  1  0.00227751  0.49810663  0.50336280  1
  Cu+  Cu86  1  -0.00413173  0.50354637  0.83918253  1
  Cu+  Cu87  1  0.00100789  0.83224680  0.16469555  1
  Cu+  Cu88  1  -0.00248684  0.82940459  0.49728799  1
  Cu+  Cu89  1  0.00105391  0.83111242  0.82784366  1
  Cu+  Cu90  1  0.33339548  0.16753854  0.16738146  1
  Cu+  Cu91  1  0.33614525  0.17412037  0.49898641  1
  Cu+  Cu92  1  0.33151947  0.16468971  0.83051437  1
  Cu+  Cu93  1  0.33368810  0.50183839  0.16580131  1
  Cu+  Cu94  1  0.33368154  0.50156105  0.49951438  1
  Cu+  Cu95  1  0.33165749  0.50074091  0.83469940  1
  Cu+  Cu96  1  0.33284434  0.83536187  0.17392185  1
  Cu+  Cu97  1  0.33080030  0.83524021  0.50075507  1
  Cu+  Cu98  1  0.33875442  0.83594895  0.83086026  1
  Cu+  Cu99  1  0.66925066  0.17076583  0.16454176  1
  Cu+  Cu100  1  0.66402378  0.15977607  0.49682483  1
  Cu+  Cu101  1  0.66865451  0.16403572  0.83297288  1
  Cu+  Cu102  1  0.66290146  0.49855551  0.16464538  1
  Cu+  Cu103  1  0.66920725  0.50236710  0.49782612  1
  Cu+  Cu104  1  0.66531054  0.49895327  0.82598045  1
  Cu+  Cu105  1  0.66613010  0.83453462  0.16652559  1
  Cu+  Cu106  1  0.66612471  0.83319916  0.50099656  1
  Cu+  Cu107  1  0.66675979  0.82901860  0.84051085  1
  Cu+  Cu108  1  0.93004368  0.73713645  0.73907579  1
  Cu+  Cu109  1  0.92865796  0.26240816  0.59188636  1
  Cu+  Cu110  1  0.59197483  0.07047952  0.40196924  1
  Cu+  Cu111  1  0.26237389  0.93193632  0.26172032  1
  Cu+  Cu112  1  0.73846525  0.07539199  0.93106800  1
  Cu+  Cu113  1  0.06812354  0.92760801  0.74313759  1
  Cu+  Cu114  1  0.58948550  0.40792115  0.07305528  1
  Cu+  Cu115  1  0.07353844  0.40419352  0.25974743  1
  Cu+  Cu116  1  0.73805736  0.25000111  0.73370388  1
  Cu+  Cu117  1  0.26186653  0.40889250  0.74040200  1
  Cu+  Cu118  1  0.73677848  0.59821920  0.74128760  1
  Cu+  Cu119  1  0.40258293  0.73767062  0.26304624  1
  Cu+  Cu120  1  0.41250063  0.92402099  0.73615918  1
  Cu+  Cu121  1  0.73735735  0.73582133  0.93128994  1
  Cu+  Cu122  1  0.07096459  0.41153097  0.59947463  1
  Cu+  Cu123  1  0.73682145  0.59403964  0.40232188  1
  Cu+  Cu124  1  0.26274688  0.07255249  0.73882499  1
  Cu+  Cu125  1  0.26446706  0.59483316  0.92814505  1
  Cu+  Cu126  1  0.92479624  0.59798846  0.92939982  1
  Cu+  Cu127  1  0.93141096  0.73751853  0.40029345  1
  Cu+  Cu128  1  0.40793208  0.26193412  0.40329976  1
  Cu+  Cu129  1  0.93051263  0.25704450  0.93290007  1
  Cu+  Cu130  1  0.73959234  0.26199642  0.07468933  1
  Cu+  Cu131  1  0.06689819  0.07127964  0.58920855  1
  Cu+  Cu132  1  0.59257555  0.40577797  0.73367190  1
  Te2-  Te133  1  0.25151831  0.25274288  0.08198226  1
  Te2-  Te134  1  0.25033058  0.25794978  0.41573881  1
  Te2-  Te135  1  0.25162839  0.25219595  0.74350346  1
  Te2-  Te136  1  0.25556058  0.58935272  0.08068356  1
  Te2-  Te137  1  0.25132248  0.58402518  0.41282710  1
  Te2-  Te138  1  0.25118262  0.58623310  0.74622006  1
  Te2-  Te139  1  0.25404651  0.91819857  0.08074216  1
  Te2-  Te140  1  0.25151088  0.92443119  0.41730595  1
  Te2-  Te141  1  0.25733894  0.91925032  0.74123520  1
  Te2-  Te142  1  0.58608662  0.25444733  0.07606707  1
  Te2-  Te143  1  0.58821811  0.25396740  0.41502288  1
  Te2-  Te144  1  0.58708298  0.25203804  0.74412625  1
  Te2-  Te145  1  0.58247907  0.59060421  0.08389083  1
  Te2-  Te146  1  0.58480463  0.58783738  0.41311666  1
  Te2-  Te147  1  0.58349775  0.58896474  0.74412115  1
  Te2-  Te148  1  0.58571944  0.92152932  0.08347429  1
  Te2-  Te149  1  0.58618107  0.91620954  0.41081525  1
  Te2-  Te150  1  0.59089999  0.91518993  0.74985820  1
  Te2-  Te151  1  0.92412314  0.25335319  0.08275997  1
  Te2-  Te152  1  0.91823505  0.24992291  0.41403255  1
  Te2-  Te153  1  0.92324598  0.25512631  0.74599415  1
  Te2-  Te154  1  0.92158667  0.58460493  0.08253575  1
  Te2-  Te155  1  0.92588256  0.58345899  0.41313958  1
  Te2-  Te156  1  0.91994681  0.58517548  0.74573739  1
  Te2-  Te157  1  0.91818795  0.91529265  0.07873916  1
  Te2-  Te158  1  0.91719402  0.91774891  0.41442777  1
  Te2-  Te159  1  0.91539653  0.92357400  0.74928816  1
  Te2-  Te160  1  0.25414880  0.08443732  0.25672966  1
  Te2-  Te161  1  0.25845711  0.08209500  0.58359231  1
  Te2-  Te162  1  0.24890103  0.08079698  0.91736954  1
  Te2-  Te163  1  0.25390077  0.41459628  0.25035934  1
  Te2-  Te164  1  0.25715680  0.41326946  0.58597637  1
  Te2-  Te165  1  0.25041816  0.41277037  0.91898087  1
  Te2-  Te166  1  0.24998452  0.74387393  0.25551345  1
  Te2-  Te167  1  0.24877985  0.75076548  0.58604669  1
  Te2-  Te168  1  0.25760536  0.75040478  0.91783549  1
  Te2-  Te169  1  0.58847668  0.08288494  0.25016327  1
  Te2-  Te170  1  0.58671478  0.07861756  0.58824239  1
  Te2-  Te171  1  0.58476883  0.07831588  0.91808624  1
  Te2-  Te172  1  0.58644118  0.41540155  0.25539257  1
  Te2-  Te173  1  0.58907782  0.41183463  0.58145824  1
  Te2-  Te174  1  0.58773514  0.41530993  0.91928211  1
  Te2-  Te175  1  0.58569304  0.74964292  0.25335415  1
  Te2-  Te176  1  0.58466123  0.74822210  0.58567299  1
  Te2-  Te177  1  0.58434216  0.74366084  0.92548381  1
  Te2-  Te178  1  0.91954748  0.07866237  0.25125911  1
  Te2-  Te179  1  0.91487346  0.07541444  0.58712221  1
  Te2-  Te180  1  0.92053784  0.08261280  0.92241886  1
  Te2-  Te181  1  0.91627375  0.41251600  0.25332771  1
  Te2-  Te182  1  0.91780466  0.41595940  0.59206750  1
  Te2-  Te183  1  0.91740102  0.41052725  0.91887610  1
  Te2-  Te184  1  0.92244059  0.74332679  0.24930311  1
  Te2-  Te185  1  0.92169480  0.74141261  0.58591357  1
  Te2-  Te186  1  0.92310457  0.74917322  0.92212042  1
  Te2-  Te187  1  0.07842625  0.25117349  0.25415782  1
  Te2-  Te188  1  0.08052784  0.25646778  0.59283252  1
  Te2-  Te189  1  0.08401662  0.25565542  0.91942717  1
  Te2-  Te190  1  0.08148079  0.58674784  0.25032627  1
  Te2-  Te191  1  0.08381449  0.58606144  0.58675839  1
  Te2-  Te192  1  0.07864143  0.58894214  0.92241130  1
  Te2-  Te193  1  0.07908918  0.91908005  0.25105943  1
  Te2-  Te194  1  0.07302585  0.91933317  0.58617828  1
  Te2-  Te195  1  0.08360960  0.91768338  0.91531575  1
  Te2-  Te196  1  0.41469337  0.25542483  0.25145929  1
  Te2-  Te197  1  0.41572750  0.25382340  0.58996749  1
  Te2-  Te198  1  0.41428243  0.25148419  0.91391338  1
  Te2-  Te199  1  0.41057326  0.58505562  0.25671276  1
  Te2-  Te200  1  0.41570398  0.58448436  0.58581149  1
  Te2-  Te201  1  0.41624093  0.58556474  0.92084107  1
  Te2-  Te202  1  0.41469984  0.92702443  0.25633653  1
  Te2-  Te203  1  0.41477521  0.92177527  0.58323567  1
  Te2-  Te204  1  0.41638029  0.91857585  0.92207419  1
  Te2-  Te205  1  0.75046856  0.25166101  0.25377953  1
  Te2-  Te206  1  0.74173198  0.25161726  0.58120376  1
  Te2-  Te207  1  0.74251135  0.25508943  0.92084486  1
  Te2-  Te208  1  0.74512019  0.58480079  0.24969450  1
  Te2-  Te209  1  0.74665687  0.58993024  0.58543644  1
  Te2-  Te210  1  0.74252855  0.58343086  0.92011742  1
  Te2-  Te211  1  0.75047454  0.91595908  0.25297165  1
  Te2-  Te212  1  0.74907217  0.91365987  0.58841261  1
  Te2-  Te213  1  0.74669897  0.92020839  0.92088982  1
  Te2-  Te214  1  0.08436355  0.07867229  0.08226686  1
  Te2-  Te215  1  0.08013820  0.08501671  0.41672552  1
  Te2-  Te216  1  0.07094474  0.08078091  0.74637773  1
  Te2-  Te217  1  0.08296117  0.41527755  0.07651364  1
  Te2-  Te218  1  0.07885271  0.41255217  0.41306081  1
  Te2-  Te219  1  0.07275954  0.41567696  0.75131057  1
  Te2-  Te220  1  0.08208279  0.74867970  0.07875847  1
  Te2-  Te221  1  0.08400047  0.74746565  0.41119222  1
  Te2-  Te222  1  0.08417033  0.74110073  0.74598264  1
  Te2-  Te223  1  0.41525919  0.08508978  0.08065542  1
  Te2-  Te224  1  0.41285571  0.08160544  0.41491018  1
  Te2-  Te225  1  0.41555987  0.07879805  0.74404006  1
  Te2-  Te226  1  0.41317268  0.41411007  0.08232168  1
  Te2-  Te227  1  0.41313022  0.41577522  0.41280409  1
  Te2-  Te228  1  0.41327022  0.41351626  0.74697182  1
  Te2-  Te229  1  0.41261587  0.75148451  0.08316033  1
  Te2-  Te230  1  0.41008334  0.74605183  0.41736586  1
  Te2-  Te231  1  0.41654549  0.74563734  0.74755136  1
  Te2-  Te232  1  0.74677370  0.07668593  0.08229487  1
  Te2-  Te233  1  0.74840537  0.07640891  0.41199292  1
  Te2-  Te234  1  0.75057053  0.08190804  0.74338944  1
  Te2-  Te235  1  0.74641209  0.41555393  0.07582958  1
  Te2-  Te236  1  0.75146132  0.41266973  0.41635568  1
  Te2-  Te237  1  0.74670704  0.40788456  0.74401873  1
  Te2-  Te238  1  0.74420486  0.74357230  0.08309166  1
  Te2-  Te239  1  0.74327789  0.74714255  0.41173941  1
  Te2-  Te240  1  0.74466186  0.74899966  0.74607120  1
