# generated using pymatgen
data_Ti27(Cu53Te54)2
_symmetry_space_group_name_H-M   'P 1'
_cell_length_a   17.87556236
_cell_length_b   17.87303803
_cell_length_c   17.87418893
_cell_angle_alpha   89.99032389
_cell_angle_beta   90.00405183
_cell_angle_gamma   89.99382142
_symmetry_Int_Tables_number   1
_chemical_formula_structural   Ti27(Cu53Te54)2
_chemical_formula_sum   'Ti27 Cu106 Te108'
_cell_volume   5710.63531886
_cell_formula_units_Z   1
loop_
 _symmetry_equiv_pos_site_id
 _symmetry_equiv_pos_as_xyz
  1  'x, y, z'
loop_
 _atom_type_symbol
 _atom_type_oxidation_number
  Ti4+  4.0
  Cu+  1.0
  Te2-  -2.0
loop_
 _atom_site_type_symbol
 _atom_site_label
 _atom_site_symmetry_multiplicity
 _atom_site_fract_x
 _atom_site_fract_y
 _atom_site_fract_z
 _atom_site_occupancy
  Ti4+  Ti0  1  0.16748630  0.16654975  0.16590662  1
  Ti4+  Ti1  1  0.16551184  0.16595336  0.49697152  1
  Ti4+  Ti2  1  0.16505533  0.16411388  0.82999527  1
  Ti4+  Ti3  1  0.16589488  0.49898638  0.16816561  1
  Ti4+  Ti4  1  0.16502473  0.50094531  0.50283412  1
  Ti4+  Ti5  1  0.16742642  0.49758140  0.83211668  1
  Ti4+  Ti6  1  0.16719374  0.83152219  0.16506760  1
  Ti4+  Ti7  1  0.17044797  0.83326254  0.49977972  1
  Ti4+  Ti8  1  0.16503310  0.82981040  0.83349152  1
  Ti4+  Ti9  1  0.49642912  0.16370433  0.16795225  1
  Ti4+  Ti10  1  0.49866340  0.16901051  0.49934740  1
  Ti4+  Ti11  1  0.49793937  0.16864448  0.83381856  1
  Ti4+  Ti12  1  0.50029585  0.49981342  0.17190766  1
  Ti4+  Ti13  1  0.50091447  0.50320586  0.50445156  1
  Ti4+  Ti14  1  0.49898557  0.50100989  0.83243158  1
  Ti4+  Ti15  1  0.50425758  0.83165154  0.16288438  1
  Ti4+  Ti16  1  0.50103077  0.83163332  0.49614031  1
  Ti4+  Ti17  1  0.49931386  0.83601871  0.83391266  1
  Ti4+  Ti18  1  0.83202059  0.16625652  0.16678250  1
  Ti4+  Ti19  1  0.83199374  0.16515334  0.50087518  1
  Ti4+  Ti20  1  0.83387322  0.16701927  0.83637612  1
  Ti4+  Ti21  1  0.83205799  0.50104773  0.16661000  1
  Ti4+  Ti22  1  0.83173145  0.50012759  0.50043649  1
  Ti4+  Ti23  1  0.83199948  0.49982457  0.83371960  1
  Ti4+  Ti24  1  0.83841879  0.83612225  0.16596592  1
  Ti4+  Ti25  1  0.83501781  0.83493173  0.49908309  1
  Ti4+  Ti26  1  0.83515386  0.83421158  0.83419694  1
  Cu+  Cu27  1  0.16761781  0.16660415  -0.00405777  1
  Cu+  Cu28  1  0.16978741  0.16421376  0.33253592  1
  Cu+  Cu29  1  0.16234602  0.16578029  0.66229436  1
  Cu+  Cu30  1  0.16884561  0.49681745  0.00189368  1
  Cu+  Cu31  1  0.16554702  0.49969628  0.33380816  1
  Cu+  Cu32  1  0.16548688  0.50447923  0.66811470  1
  Cu+  Cu33  1  0.16516016  0.83104864  0.00073850  1
  Cu+  Cu34  1  0.16920014  0.83491686  0.33285104  1
  Cu+  Cu35  1  0.16331000  0.82898333  0.66647412  1
  Cu+  Cu36  1  0.49557062  0.16679541  0.00237521  1
  Cu+  Cu37  1  0.50132960  0.16897130  0.33056509  1
  Cu+  Cu38  1  0.49763216  0.16978069  0.66553724  1
  Cu+  Cu39  1  0.49968604  0.49980773  0.00252574  1
  Cu+  Cu40  1  0.50519670  0.50564354  0.33705666  1
  Cu+  Cu41  1  0.50419169  0.49659819  0.66969883  1
  Cu+  Cu42  1  0.49610108  0.83642764  -0.00231893  1
  Cu+  Cu43  1  0.50226255  0.82854472  0.32921081  1
  Cu+  Cu44  1  0.50213837  0.83488831  0.66619237  1
  Cu+  Cu45  1  0.83305584  0.16986491  0.00184773  1
  Cu+  Cu46  1  0.83213069  0.16307719  0.33536925  1
  Cu+  Cu47  1  0.83479147  0.16383252  0.66998020  1
  Cu+  Cu48  1  0.83017616  0.50110151  -0.00097504  1
  Cu+  Cu49  1  0.83286230  0.49904389  0.33486533  1
  Cu+  Cu50  1  0.83253145  0.49893019  0.66541301  1
  Cu+  Cu51  1  0.84407454  0.83928718  -0.00134283  1
  Cu+  Cu52  1  0.83670569  0.83469736  0.33341060  1
  Cu+  Cu53  1  0.83116887  0.83507921  0.66550841  1
  Cu+  Cu54  1  0.16601510  -0.00074145  0.16618804  1
  Cu+  Cu55  1  0.17219990  0.00076394  0.49444101  1
  Cu+  Cu56  1  0.16520775  -0.00271289  0.83006554  1
  Cu+  Cu57  1  0.16524563  0.33474842  0.16740844  1
  Cu+  Cu58  1  0.16295916  0.33204998  0.49953814  1
  Cu+  Cu59  1  0.16785778  0.32966487  0.83190550  1
  Cu+  Cu60  1  0.16678320  0.66394550  0.16719555  1
  Cu+  Cu61  1  0.16676510  0.66822447  0.50743464  1
  Cu+  Cu62  1  0.16439844  0.66155502  0.83181487  1
  Cu+  Cu63  1  0.50256569  -0.00052229  0.15672331  1
  Cu+  Cu64  1  0.50222553  -0.00073761  0.49630549  1
  Cu+  Cu65  1  0.49825446  0.00236598  0.83281350  1
  Cu+  Cu66  1  0.49832306  0.32881767  0.17283335  1
  Cu+  Cu67  1  0.49823997  0.33855871  0.49988288  1
  Cu+  Cu68  1  0.50082289  0.33574291  0.83062040  1
  Cu+  Cu69  1  0.50047212  0.66630616  0.17448682  1
  Cu+  Cu70  1  0.49565724  0.66621578  0.50347546  1
  Cu+  Cu71  1  0.49679846  0.67002672  0.83597661  1
  Cu+  Cu72  1  0.83130222  -0.00145911  0.16404238  1
  Cu+  Cu73  1  0.83496222  0.00035892  0.49648858  1
  Cu+  Cu74  1  0.84120628  0.00223244  0.83551965  1
  Cu+  Cu75  1  0.82961466  0.33501364  0.16704436  1
  Cu+  Cu76  1  0.82985766  0.33120059  0.50288243  1
  Cu+  Cu77  1  0.83327520  0.33272906  0.83591531  1
  Cu+  Cu78  1  0.83567898  0.67052233  0.16621168  1
  Cu+  Cu79  1  0.83439710  0.66596128  0.49907534  1
  Cu+  Cu80  1  0.82958104  0.66653803  0.83304427  1
  Cu+  Cu81  1  0.00137355  0.16708050  0.16662473  1
  Cu+  Cu82  1  -0.00262204  0.16306617  0.49520353  1
  Cu+  Cu83  1  -0.00069020  0.16141294  0.82895845  1
  Cu+  Cu84  1  0.00011237  0.50078630  0.16750500  1
  Cu+  Cu85  1  -0.00376657  0.49907812  0.49987961  1
  Cu+  Cu86  1  -0.00075157  0.49694588  0.82989350  1
  Cu+  Cu87  1  0.00150749  0.82982078  0.16232887  1
  Cu+  Cu88  1  0.00348360  0.83397795  0.50093560  1
  Cu+  Cu89  1  -0.00211461  0.83595124  0.83714980  1
  Cu+  Cu90  1  0.33361194  0.16794950  0.16337958  1
  Cu+  Cu91  1  0.33101071  0.16745949  0.49576721  1
  Cu+  Cu92  1  0.33024851  0.16826123  0.83390013  1
  Cu+  Cu93  1  0.33134246  0.49564465  0.16900376  1
  Cu+  Cu94  1  0.33128427  0.50420956  0.50805107  1
  Cu+  Cu95  1  0.33111485  0.50214997  0.83703501  1
  Cu+  Cu96  1  0.33356611  0.83294926  0.16355963  1
  Cu+  Cu97  1  0.33775191  0.83095849  0.49897336  1
  Cu+  Cu98  1  0.33277893  0.83046175  0.83609841  1
  Cu+  Cu99  1  0.66321449  0.16076768  0.16944974  1
  Cu+  Cu100  1  0.66676383  0.16736992  0.50285035  1
  Cu+  Cu101  1  0.66861864  0.16872315  0.83660916  1
  Cu+  Cu102  1  0.66566287  0.50271566  0.16991683  1
  Cu+  Cu103  1  0.66594866  0.50136341  0.50227916  1
  Cu+  Cu104  1  0.66582899  0.49854128  0.82987219  1
  Cu+  Cu105  1  0.67742413  0.83504465  0.16484028  1
  Cu+  Cu106  1  0.66713244  0.83543346  0.49552024  1
  Cu+  Cu107  1  0.66472233  0.83567389  0.83264253  1
  Cu+  Cu108  1  0.92690342  0.07046200  0.73734576  1
  Cu+  Cu109  1  0.92741089  0.73672883  0.07056327  1
  Cu+  Cu110  1  0.59867530  0.40135949  0.74442239  1
  Cu+  Cu111  1  0.59699596  0.59547500  0.26154548  1
  Cu+  Cu112  1  0.25100673  0.59288415  0.93215474  1
  Cu+  Cu113  1  0.40763202  0.74068030  0.92860812  1
  Cu+  Cu114  1  0.06872997  0.74281845  0.59121933  1
  Cu+  Cu115  1  0.59360809  0.40980118  0.41023291  1
  Cu+  Cu116  1  0.41065761  0.74769893  0.59742600  1
  Cu+  Cu117  1  0.40214865  0.92506476  0.07245978  1
  Cu+  Cu118  1  0.40339094  0.40629383  0.59391850  1
  Cu+  Cu119  1  0.40350688  0.74620177  0.25639893  1
  Cu+  Cu120  1  0.59659688  0.59625260  0.59796819  1
  Cu+  Cu121  1  0.59565675  0.25372623  0.25731258  1
  Cu+  Cu122  1  0.06748301  0.58934132  0.74270193  1
  Cu+  Cu123  1  0.40859348  0.26368452  0.07667366  1
  Cu+  Cu124  1  0.74667038  0.92348233  0.06720496  1
  Cu+  Cu125  1  0.75186673  0.74230277  0.26290034  1
  Cu+  Cu126  1  0.26550074  0.07359320  0.40237582  1
  Cu+  Cu127  1  0.93316318  0.93428542  0.92924515  1
  Cu+  Cu128  1  0.59327371  0.07940259  0.06893750  1
  Cu+  Cu129  1  0.25869950  0.59580162  0.59714736  1
  Cu+  Cu130  1  0.25717518  0.25753123  0.92399769  1
  Cu+  Cu131  1  0.40138992  0.58556912  0.40838034  1
  Cu+  Cu132  1  0.92560512  0.07165064  0.40139946  1
  Te2-  Te133  1  0.25233859  0.25628514  0.07861861  1
  Te2-  Te134  1  0.25008713  0.25547326  0.41313383  1
  Te2-  Te135  1  0.25020601  0.24947751  0.74251423  1
  Te2-  Te136  1  0.25554646  0.58525793  0.08331492  1
  Te2-  Te137  1  0.24915901  0.58769451  0.41531631  1
  Te2-  Te138  1  0.25659927  0.58775702  0.74779042  1
  Te2-  Te139  1  0.25065810  0.91928511  0.07812071  1
  Te2-  Te140  1  0.25874615  0.91687152  0.41151692  1
  Te2-  Te141  1  0.25046417  0.91336445  0.74840097  1
  Te2-  Te142  1  0.58509252  0.25155100  0.08305021  1
  Te2-  Te143  1  0.58800158  0.25517971  0.41446624  1
  Te2-  Te144  1  0.58715732  0.25025631  0.74697604  1
  Te2-  Te145  1  0.58238455  0.58586151  0.08379548  1
  Te2-  Te146  1  0.59013701  0.59297586  0.41726531  1
  Te2-  Te147  1  0.58500562  0.59134384  0.75016523  1
  Te2-  Te148  1  0.59225767  0.91750128  0.07496994  1
  Te2-  Te149  1  0.58460955  0.91755948  0.40961293  1
  Te2-  Te150  1  0.58415962  0.92142139  0.74775905  1
  Te2-  Te151  1  0.91728879  0.25299074  0.08514603  1
  Te2-  Te152  1  0.91542798  0.25289946  0.41465599  1
  Te2-  Te153  1  0.91843160  0.25293635  0.74958636  1
  Te2-  Te154  1  0.91878082  0.58449364  0.07994414  1
  Te2-  Te155  1  0.91821918  0.58489766  0.41439614  1
  Te2-  Te156  1  0.91574570  0.58687609  0.74636529  1
  Te2-  Te157  1  0.92796375  0.92659464  0.08253208  1
  Te2-  Te158  1  0.92418582  0.91789727  0.41248998  1
  Te2-  Te159  1  0.92111476  0.91743773  0.74373602  1
  Te2-  Te160  1  0.25518352  0.07880729  0.24900140  1
  Te2-  Te161  1  0.25227696  0.08241343  0.58451870  1
  Te2-  Te162  1  0.25075219  0.07747450  0.91579862  1
  Te2-  Te163  1  0.25060377  0.41307255  0.25508415  1
  Te2-  Te164  1  0.24864495  0.41147883  0.58832837  1
  Te2-  Te165  1  0.25364377  0.41105645  0.91971593  1
  Te2-  Te166  1  0.25235849  0.74614760  0.25215109  1
  Te2-  Te167  1  0.25804621  0.74789624  0.59054030  1
  Te2-  Te168  1  0.25135235  0.74382509  0.92224773  1
  Te2-  Te169  1  0.58166233  0.07452577  0.25394272  1
  Te2-  Te170  1  0.58164609  0.08290376  0.58436202  1
  Te2-  Te171  1  0.58476413  0.08229504  0.91827311  1
  Te2-  Te172  1  0.58784538  0.41065940  0.25637881  1
  Te2-  Te173  1  0.58976792  0.41070317  0.58841143  1
  Te2-  Te174  1  0.58418316  0.41669384  0.91953263  1
  Te2-  Te175  1  0.59557596  0.74866277  0.25165611  1
  Te2-  Te176  1  0.58929381  0.74911364  0.58472847  1
  Te2-  Te177  1  0.58564180  0.75054041  0.91957848  1
  Te2-  Te178  1  0.91925416  0.07890730  0.24920540  1
  Te2-  Te179  1  0.92029842  0.07812038  0.58583999  1
  Te2-  Te180  1  0.92329536  0.08453443  0.92652492  1
  Te2-  Te181  1  0.91673484  0.41520647  0.25112526  1
  Te2-  Te182  1  0.91709373  0.41341153  0.58492920  1
  Te2-  Te183  1  0.91836436  0.41583473  0.91918729  1
  Te2-  Te184  1  0.92295285  0.74856868  0.25394002  1
  Te2-  Te185  1  0.91752121  0.74781726  0.58698092  1
  Te2-  Te186  1  0.92026740  0.74275076  0.91756738  1
  Te2-  Te187  1  0.08301486  0.25029973  0.25271393  1
  Te2-  Te188  1  0.07679222  0.24983603  0.58156186  1
  Te2-  Te189  1  0.07807310  0.24965505  0.91500390  1
  Te2-  Te190  1  0.08094649  0.58548334  0.25365276  1
  Te2-  Te191  1  0.07293031  0.58688125  0.58750736  1
  Te2-  Te192  1  0.08032984  0.58049515  0.91979519  1
  Te2-  Te193  1  0.08123694  0.91581161  0.24974833  1
  Te2-  Te194  1  0.08643117  0.92163468  0.58331011  1
  Te2-  Te195  1  0.08373169  0.91960906  0.92044236  1
  Te2-  Te196  1  0.40874740  0.25069300  0.25530527  1
  Te2-  Te197  1  0.41082522  0.25398181  0.58377092  1
  Te2-  Te198  1  0.41288542  0.25776115  0.91999712  1
  Te2-  Te199  1  0.40821870  0.58555117  0.25538933  1
  Te2-  Te200  1  0.41322722  0.58947114  0.59699912  1
  Te2-  Te201  1  0.41298818  0.58586108  0.92379545  1
  Te2-  Te202  1  0.41945747  0.91823698  0.24782393  1
  Te2-  Te203  1  0.41792071  0.91936269  0.58233512  1
  Te2-  Te204  1  0.40982120  0.92417297  0.91750900  1
  Te2-  Te205  1  0.74709812  0.25051939  0.25412549  1
  Te2-  Te206  1  0.74808903  0.24928191  0.58998273  1
  Te2-  Te207  1  0.74781138  0.25402237  0.92164613  1
  Te2-  Te208  1  0.74862907  0.58889965  0.25652250  1
  Te2-  Te209  1  0.74841493  0.58848280  0.58784089  1
  Te2-  Te210  1  0.74390671  0.58495229  0.91696331  1
  Te2-  Te211  1  0.75070999  0.92133848  0.25529802  1
  Te2-  Te212  1  0.74785074  0.91986124  0.58231290  1
  Te2-  Te213  1  0.74825963  0.92224368  0.91655258  1
  Te2-  Te214  1  0.08276151  0.08251364  0.07968513  1
  Te2-  Te215  1  0.08027523  0.07734727  0.40971416  1
  Te2-  Te216  1  0.08095284  0.07588467  0.74252480  1
  Te2-  Te217  1  0.08008181  0.41478325  0.08142909  1
  Te2-  Te218  1  0.08031559  0.41671430  0.41635153  1
  Te2-  Te219  1  0.08316703  0.41121465  0.74561206  1
  Te2-  Te220  1  0.08271610  0.74250812  0.07881337  1
  Te2-  Te221  1  0.08530534  0.74727071  0.41465808  1
  Te2-  Te222  1  0.07455338  0.74506862  0.74850096  1
  Te2-  Te223  1  0.40801750  0.07805852  0.07749987  1
  Te2-  Te224  1  0.41724882  0.08142810  0.41145827  1
  Te2-  Te225  1  0.41317030  0.08490486  0.74828806  1
  Te2-  Te226  1  0.41597697  0.41473386  0.08412735  1
  Te2-  Te227  1  0.41120796  0.42175350  0.41496474  1
  Te2-  Te228  1  0.40921745  0.41504448  0.74819636  1
  Te2-  Te229  1  0.41588905  0.74249136  0.08108660  1
  Te2-  Te230  1  0.41232866  0.74354467  0.40877580  1
  Te2-  Te231  1  0.41339994  0.74853346  0.74759189  1
  Te2-  Te232  1  0.74589450  0.08026797  0.07704741  1
  Te2-  Te233  1  0.74367791  0.08033112  0.41573987  1
  Te2-  Te234  1  0.74807892  0.07974060  0.75245460  1
  Te2-  Te235  1  0.74465946  0.41703590  0.08254011  1
  Te2-  Te236  1  0.74640476  0.41283049  0.41481356  1
  Te2-  Te237  1  0.74940964  0.41126812  0.74614227  1
  Te2-  Te238  1  0.75398156  0.75097141  0.07405461  1
  Te2-  Te239  1  0.74892512  0.74723487  0.41467929  1
  Te2-  Te240  1  0.74749711  0.75097847  0.74856000  1
