# generated using pymatgen
data_Ti27(Cu53Te54)2
_symmetry_space_group_name_H-M   'P 1'
_cell_length_a   17.86752187
_cell_length_b   17.86696242
_cell_length_c   17.86879974
_cell_angle_alpha   90.00310749
_cell_angle_beta   89.99776330
_cell_angle_gamma   89.99946169
_symmetry_Int_Tables_number   1
_chemical_formula_structural   Ti27(Cu53Te54)2
_chemical_formula_sum   'Ti27 Cu106 Te108'
_cell_volume   5704.40598612
_cell_formula_units_Z   1
loop_
 _symmetry_equiv_pos_site_id
 _symmetry_equiv_pos_as_xyz
  1  'x, y, z'
loop_
 _atom_type_symbol
 _atom_type_oxidation_number
  Ti4+  4.0
  Cu+  1.0
  Te2-  -2.0
loop_
 _atom_site_type_symbol
 _atom_site_label
 _atom_site_symmetry_multiplicity
 _atom_site_fract_x
 _atom_site_fract_y
 _atom_site_fract_z
 _atom_site_occupancy
  Ti4+  Ti0  1  0.16585683  0.16588479  0.16373979  1
  Ti4+  Ti1  1  0.16732550  0.16586075  0.50215521  1
  Ti4+  Ti2  1  0.16639132  0.16839720  0.83356785  1
  Ti4+  Ti3  1  0.16493220  0.49979780  0.16712653  1
  Ti4+  Ti4  1  0.16425028  0.50037464  0.50145251  1
  Ti4+  Ti5  1  0.16860349  0.50219409  0.83449157  1
  Ti4+  Ti6  1  0.16571007  0.83244197  0.16637861  1
  Ti4+  Ti7  1  0.16934691  0.83051002  0.49952810  1
  Ti4+  Ti8  1  0.16694464  0.83061677  0.83206956  1
  Ti4+  Ti9  1  0.50078901  0.16796231  0.16415378  1
  Ti4+  Ti10  1  0.49937288  0.16802885  0.49638642  1
  Ti4+  Ti11  1  0.50188956  0.16749580  0.83210117  1
  Ti4+  Ti12  1  0.49903457  0.50099128  0.16503699  1
  Ti4+  Ti13  1  0.50068673  0.50145597  0.49942753  1
  Ti4+  Ti14  1  0.50154558  0.50110553  0.83396746  1
  Ti4+  Ti15  1  0.49754475  0.83342226  0.16712791  1
  Ti4+  Ti16  1  0.49947829  0.83635431  0.50154671  1
  Ti4+  Ti17  1  0.50025642  0.83428387  0.83351513  1
  Ti4+  Ti18  1  0.83527136  0.16890261  0.16423656  1
  Ti4+  Ti19  1  0.83561132  0.16601045  0.49633512  1
  Ti4+  Ti20  1  0.83705765  0.16507314  0.83434384  1
  Ti4+  Ti21  1  0.82952158  0.50107382  0.16713176  1
  Ti4+  Ti22  1  0.83346286  0.49578461  0.50573702  1
  Ti4+  Ti23  1  0.82987713  0.50154832  0.83444588  1
  Ti4+  Ti24  1  0.83028186  0.83422807  0.16785705  1
  Ti4+  Ti25  1  0.83420789  0.83217982  0.49904954  1
  Ti4+  Ti26  1  0.83394241  0.83225036  0.83391496  1
  Cu+  Cu27  1  0.15976324  0.16808773  -0.00274405  1
  Cu+  Cu28  1  0.16802360  0.16566535  0.33746692  1
  Cu+  Cu29  1  0.16632020  0.16757505  0.67077992  1
  Cu+  Cu30  1  0.17020286  0.49573171  0.00263833  1
  Cu+  Cu31  1  0.16300452  0.50004118  0.33271555  1
  Cu+  Cu32  1  0.16757783  0.50788586  0.66619432  1
  Cu+  Cu33  1  0.16684120  0.83127257  0.00184439  1
  Cu+  Cu34  1  0.16664151  0.83114617  0.33289100  1
  Cu+  Cu35  1  0.16805389  0.82963780  0.66400320  1
  Cu+  Cu36  1  0.50160197  0.16666033  -0.00397396  1
  Cu+  Cu37  1  0.49729396  0.16607719  0.32859027  1
  Cu+  Cu38  1  0.49911099  0.16754188  0.66425322  1
  Cu+  Cu39  1  0.50300223  0.49735429  0.00095849  1
  Cu+  Cu40  1  0.50056248  0.50440490  0.33161162  1
  Cu+  Cu41  1  0.50373912  0.49951052  0.66703653  1
  Cu+  Cu42  1  0.49586942  0.83185272  -0.00029836  1
  Cu+  Cu43  1  0.49851763  0.83468401  0.33569967  1
  Cu+  Cu44  1  0.50183303  0.83499553  0.66874158  1
  Cu+  Cu45  1  0.83865581  0.16523022  0.00188917  1
  Cu+  Cu46  1  0.83574394  0.16619665  0.32588163  1
  Cu+  Cu47  1  0.83557197  0.16833227  0.66442205  1
  Cu+  Cu48  1  0.83025782  0.50905832  -0.00040108  1
  Cu+  Cu49  1  0.82949125  0.49539878  0.33856966  1
  Cu+  Cu50  1  0.83187127  0.49651981  0.67413955  1
  Cu+  Cu51  1  0.83221382  0.83272449  -0.00091266  1
  Cu+  Cu52  1  0.83025100  0.83565561  0.33532218  1
  Cu+  Cu53  1  0.83500030  0.83203127  0.66642549  1
  Cu+  Cu54  1  0.16799450  -0.00424008  0.16837211  1
  Cu+  Cu55  1  0.17047576  -0.00211228  0.50102599  1
  Cu+  Cu56  1  0.16676109  -0.00070074  0.83333727  1
  Cu+  Cu57  1  0.16617242  0.33435088  0.16135559  1
  Cu+  Cu58  1  0.16595047  0.33338794  0.50087306  1
  Cu+  Cu59  1  0.16938011  0.33474713  0.83413643  1
  Cu+  Cu60  1  0.16371136  0.66679446  0.16739293  1
  Cu+  Cu61  1  0.16691120  0.66477696  0.50675505  1
  Cu+  Cu62  1  0.16536415  0.66376124  0.82895607  1
  Cu+  Cu63  1  0.49644194  0.00016534  0.16673836  1
  Cu+  Cu64  1  0.49683191  0.00487692  0.50185455  1
  Cu+  Cu65  1  0.50159220  -0.00036182  0.83261346  1
  Cu+  Cu66  1  0.50444446  0.33602377  0.16268370  1
  Cu+  Cu67  1  0.50006789  0.33407523  0.49555626  1
  Cu+  Cu68  1  0.50317443  0.33253959  0.83089473  1
  Cu+  Cu69  1  0.49863451  0.66625415  0.17063626  1
  Cu+  Cu70  1  0.50022497  0.67152378  0.50081699  1
  Cu+  Cu71  1  0.49697842  0.67089406  0.83919734  1
  Cu+  Cu72  1  0.83331332  0.00235996  0.16939786  1
  Cu+  Cu73  1  0.83255677  -0.00317110  0.49418877  1
  Cu+  Cu74  1  0.83382963  -0.00209167  0.83219542  1
  Cu+  Cu75  1  0.83198639  0.32937564  0.16685252  1
  Cu+  Cu76  1  0.84256026  0.33015947  0.50236403  1
  Cu+  Cu77  1  0.83713100  0.33509372  0.83394716  1
  Cu+  Cu78  1  0.82748490  0.66886834  0.16618831  1
  Cu+  Cu79  1  0.83113303  0.66339238  0.50258227  1
  Cu+  Cu80  1  0.83062132  0.66544678  0.83810031  1
  Cu+  Cu81  1  0.00204436  0.17157064  0.15697443  1
  Cu+  Cu82  1  0.00212051  0.16609588  0.50247139  1
  Cu+  Cu83  1  0.00477756  0.16287275  0.83939617  1
  Cu+  Cu84  1  -0.00169243  0.50006042  0.16935643  1
  Cu+  Cu85  1  -0.00394023  0.49219258  0.50035263  1
  Cu+  Cu86  1  0.00184202  0.50487129  0.83493741  1
  Cu+  Cu87  1  -0.00066396  0.83252404  0.16893986  1
  Cu+  Cu88  1  0.00137780  0.82777823  0.49902719  1
  Cu+  Cu89  1  -0.00272303  0.83127855  0.83208546  1
  Cu+  Cu90  1  0.33546183  0.16584991  0.16816978  1
  Cu+  Cu91  1  0.33502154  0.16423136  0.50198678  1
  Cu+  Cu92  1  0.33212780  0.16949242  0.83308831  1
  Cu+  Cu93  1  0.32995786  0.49618445  0.16396852  1
  Cu+  Cu94  1  0.33351434  0.50228790  0.50097623  1
  Cu+  Cu95  1  0.33707156  0.50053600  0.83517828  1
  Cu+  Cu96  1  0.32984190  0.83376138  0.16640473  1
  Cu+  Cu97  1  0.33234061  0.83841076  0.50236504  1
  Cu+  Cu98  1  0.33539190  0.82978370  0.83469960  1
  Cu+  Cu99  1  0.66930027  0.16895959  0.16411998  1
  Cu+  Cu100  1  0.66496253  0.16847947  0.49259497  1
  Cu+  Cu101  1  0.66956855  0.16674713  0.83308554  1
  Cu+  Cu102  1  0.66371663  0.50493201  0.16309253  1
  Cu+  Cu103  1  0.66957575  0.50233066  0.50048951  1
  Cu+  Cu104  1  0.66293578  0.49951282  0.82650222  1
  Cu+  Cu105  1  0.66189847  0.83405396  0.16630758  1
  Cu+  Cu106  1  0.66612922  0.83583716  0.49848304  1
  Cu+  Cu107  1  0.66630595  0.83443729  0.83377242  1
  Cu+  Cu108  1  0.73520851  0.92649806  0.40861850  1
  Cu+  Cu109  1  0.59664355  0.40811534  0.07300279  1
  Cu+  Cu110  1  0.07090122  0.74139528  0.59142741  1
  Cu+  Cu111  1  0.07073400  0.59184389  0.73911112  1
  Cu+  Cu112  1  0.40865431  0.07753546  0.59830639  1
  Cu+  Cu113  1  0.25614509  0.92713765  0.59661896  1
  Cu+  Cu114  1  0.74082923  0.25388757  0.06796011  1
  Cu+  Cu115  1  0.26626515  0.59132600  0.59412579  1
  Cu+  Cu116  1  0.58865981  0.40117438  0.73342228  1
  Cu+  Cu117  1  0.93336060  0.40682630  0.75264432  1
  Cu+  Cu118  1  0.40354578  0.07062691  0.25678000  1
  Cu+  Cu119  1  0.73907586  0.07735537  0.25430283  1
  Cu+  Cu120  1  0.40311204  0.74034388  0.93080264  1
  Cu+  Cu121  1  0.58979904  0.59561886  0.26053009  1
  Cu+  Cu122  1  0.93338444  0.25596609  0.25478264  1
  Cu+  Cu123  1  0.74452002  0.59153524  0.41019374  1
  Cu+  Cu124  1  0.73423857  0.59855638  0.74333683  1
  Cu+  Cu125  1  0.92521319  0.40603089  0.40515826  1
  Cu+  Cu126  1  0.73614147  0.59981831  0.07250664  1
  Cu+  Cu127  1  0.26165846  0.40213461  0.07254207  1
  Cu+  Cu128  1  0.92577328  0.06828827  0.07783258  1
  Cu+  Cu129  1  0.07952127  0.06567208  0.92570233  1
  Cu+  Cu130  1  0.93032725  0.59288595  0.92920840  1
  Cu+  Cu131  1  0.93073361  0.25343955  0.59640344  1
  Cu+  Cu132  1  0.07528729  0.26658984  0.06774710  1
  Te2-  Te133  1  0.25479936  0.24864001  0.07782544  1
  Te2-  Te134  1  0.25314982  0.25159005  0.41790162  1
  Te2-  Te135  1  0.25245550  0.25453309  0.74753859  1
  Te2-  Te136  1  0.25035077  0.58703449  0.08255043  1
  Te2-  Te137  1  0.24882861  0.58499580  0.41469818  1
  Te2-  Te138  1  0.25929049  0.58688163  0.74924208  1
  Te2-  Te139  1  0.25183214  0.91865014  0.07954415  1
  Te2-  Te140  1  0.25197435  0.91788569  0.41149379  1
  Te2-  Te141  1  0.25339728  0.91746138  0.74970554  1
  Te2-  Te142  1  0.58830139  0.25334450  0.07457412  1
  Te2-  Te143  1  0.58330069  0.25313515  0.40816346  1
  Te2-  Te144  1  0.58931861  0.25000197  0.74338225  1
  Te2-  Te145  1  0.58298276  0.59230499  0.07697196  1
  Te2-  Te146  1  0.58763761  0.59087093  0.41492119  1
  Te2-  Te147  1  0.58166969  0.59375739  0.74770169  1
  Te2-  Te148  1  0.58095248  0.91914885  0.08034251  1
  Te2-  Te149  1  0.58249657  0.92382463  0.41409221  1
  Te2-  Te150  1  0.58735047  0.92013427  0.74790276  1
  Te2-  Te151  1  0.92088198  0.26097490  0.07438802  1
  Te2-  Te152  1  0.92525687  0.25066083  0.40857458  1
  Te2-  Te153  1  0.92580555  0.25135035  0.74981782  1
  Te2-  Te154  1  0.91898102  0.58814131  0.08546097  1
  Te2-  Te155  1  0.91721395  0.58276193  0.41676309  1
  Te2-  Te156  1  0.91751631  0.58959798  0.74702550  1
  Te2-  Te157  1  0.91799710  0.91680341  0.08189090  1
  Te2-  Te158  1  0.92351567  0.91561001  0.41419266  1
  Te2-  Te159  1  0.91898156  0.91780098  0.74715768  1
  Te2-  Te160  1  0.25016896  0.08106824  0.25247145  1
  Te2-  Te161  1  0.25347825  0.08025100  0.59181793  1
  Te2-  Te162  1  0.25187092  0.08302901  0.91983348  1
  Te2-  Te163  1  0.24926662  0.41291426  0.25315813  1
  Te2-  Te164  1  0.25068977  0.41591585  0.58679856  1
  Te2-  Te165  1  0.25607711  0.41378065  0.91799702  1
  Te2-  Te166  1  0.25142643  0.74619621  0.25176916  1
  Te2-  Te167  1  0.25914729  0.74489243  0.58793511  1
  Te2-  Te168  1  0.24971335  0.74372001  0.91915554  1
  Te2-  Te169  1  0.58678602  0.08102473  0.24958556  1
  Te2-  Te170  1  0.58787756  0.08444356  0.58261651  1
  Te2-  Te171  1  0.58760596  0.08110220  0.91689552  1
  Te2-  Te172  1  0.58697478  0.41661740  0.25177253  1
  Te2-  Te173  1  0.58775728  0.41329522  0.58177881  1
  Te2-  Te174  1  0.58903069  0.41286210  0.91854274  1
  Te2-  Te175  1  0.58486299  0.74953083  0.25565589  1
  Te2-  Te176  1  0.58672341  0.75136228  0.58554152  1
  Te2-  Te177  1  0.58735208  0.75010606  0.92077292  1
  Te2-  Te178  1  0.92742478  0.08280551  0.24845281  1
  Te2-  Te179  1  0.91700763  0.07786759  0.58222456  1
  Te2-  Te180  1  0.92119394  0.07486449  0.92106210  1
  Te2-  Te181  1  0.91761757  0.41350494  0.25248242  1
  Te2-  Te182  1  0.92247824  0.41060558  0.59611401  1
  Te2-  Te183  1  0.91891848  0.41926770  0.92201371  1
  Te2-  Te184  1  0.91405934  0.74830449  0.25277628  1
  Te2-  Te185  1  0.91735656  0.74384366  0.58665099  1
  Te2-  Te186  1  0.92026433  0.74616222  0.92197595  1
  Te2-  Te187  1  0.08464322  0.25270133  0.25306154  1
  Te2-  Te188  1  0.08275450  0.25360397  0.58880505  1
  Te2-  Te189  1  0.07817530  0.26068292  0.91694158  1
  Te2-  Te190  1  0.07869402  0.58590503  0.25268613  1
  Te2-  Te191  1  0.07047131  0.58539637  0.58618860  1
  Te2-  Te192  1  0.08459118  0.58678967  0.92505239  1
  Te2-  Te193  1  0.08069569  0.91764131  0.25404553  1
  Te2-  Te194  1  0.08114203  0.91707683  0.58450164  1
  Te2-  Te195  1  0.08041042  0.91372055  0.91875107  1
  Te2-  Te196  1  0.41690986  0.25703250  0.24766226  1
  Te2-  Te197  1  0.41510907  0.25511545  0.58307803  1
  Te2-  Te198  1  0.41633994  0.25362218  0.91690070  1
  Te2-  Te199  1  0.40900100  0.58327722  0.25014001  1
  Te2-  Te200  1  0.41840925  0.58747721  0.58773550  1
  Te2-  Te201  1  0.41470953  0.58427454  0.92357156  1
  Te2-  Te202  1  0.41097389  0.91798936  0.25396280  1
  Te2-  Te203  1  0.41320879  0.92235913  0.59141274  1
  Te2-  Te204  1  0.41348149  0.92099520  0.91815221  1
  Te2-  Te205  1  0.74500544  0.25397547  0.25406442  1
  Te2-  Te206  1  0.74827450  0.25016653  0.58038434  1
  Te2-  Te207  1  0.75149605  0.25277412  0.91773451  1
  Te2-  Te208  1  0.74534545  0.58677248  0.25688141  1
  Te2-  Te209  1  0.74743656  0.58467299  0.59210233  1
  Te2-  Te210  1  0.73713659  0.58723556  0.91889686  1
  Te2-  Te211  1  0.74231463  0.92135301  0.25321941  1
  Te2-  Te212  1  0.74967671  0.91840929  0.58547612  1
  Te2-  Te213  1  0.74840926  0.91889596  0.91828867  1
  Te2-  Te214  1  0.08060133  0.07342707  0.07970355  1
  Te2-  Te215  1  0.08278156  0.07908205  0.41753998  1
  Te2-  Te216  1  0.08100223  0.08016440  0.74753757  1
  Te2-  Te217  1  0.07454926  0.41676681  0.07865806  1
  Te2-  Te218  1  0.08082370  0.41130613  0.41318429  1
  Te2-  Te219  1  0.08446988  0.41547287  0.74711861  1
  Te2-  Te220  1  0.07871986  0.74723929  0.08144634  1
  Te2-  Te221  1  0.08416934  0.74319699  0.41409685  1
  Te2-  Te222  1  0.07725798  0.74575502  0.74529833  1
  Te2-  Te223  1  0.41528465  0.08309793  0.07806727  1
  Te2-  Te224  1  0.41158200  0.08010248  0.41016658  1
  Te2-  Te225  1  0.41313505  0.08097478  0.74993677  1
  Te2-  Te226  1  0.41362056  0.41204352  0.07794997  1
  Te2-  Te227  1  0.41473800  0.41915415  0.41321041  1
  Te2-  Te228  1  0.41600372  0.41545695  0.74803980  1
  Te2-  Te229  1  0.41114151  0.74516656  0.08387924  1
  Te2-  Te230  1  0.41260079  0.75110948  0.41728146  1
  Te2-  Te231  1  0.41566503  0.74749603  0.74558518  1
  Te2-  Te232  1  0.74755019  0.07978569  0.07850998  1
  Te2-  Te233  1  0.74672122  0.08095674  0.40861175  1
  Te2-  Te234  1  0.75216095  0.08315983  0.74720987  1
  Te2-  Te235  1  0.74846437  0.41282039  0.07747217  1
  Te2-  Te236  1  0.74780731  0.40765548  0.42099584  1
  Te2-  Te237  1  0.74455607  0.40808907  0.74854642  1
  Te2-  Te238  1  0.74310852  0.75108585  0.07947190  1
  Te2-  Te239  1  0.74550659  0.74545328  0.41436191  1
  Te2-  Te240  1  0.74655729  0.74876382  0.74730619  1
