# generated using pymatgen
data_Ti27(Cu53Te54)2
_symmetry_space_group_name_H-M   'P 1'
_cell_length_a   17.85713885
_cell_length_b   17.85610367
_cell_length_c   17.85760730
_cell_angle_alpha   89.97969555
_cell_angle_beta   89.99168874
_cell_angle_gamma   89.99465044
_symmetry_Int_Tables_number   1
_chemical_formula_structural   Ti27(Cu53Te54)2
_chemical_formula_sum   'Ti27 Cu106 Te108'
_cell_volume   5694.05697990
_cell_formula_units_Z   1
loop_
 _symmetry_equiv_pos_site_id
 _symmetry_equiv_pos_as_xyz
  1  'x, y, z'
loop_
 _atom_type_symbol
 _atom_type_oxidation_number
  Ti4+  4.0
  Cu+  1.0
  Te2-  -2.0
loop_
 _atom_site_type_symbol
 _atom_site_label
 _atom_site_symmetry_multiplicity
 _atom_site_fract_x
 _atom_site_fract_y
 _atom_site_fract_z
 _atom_site_occupancy
  Ti4+  Ti0  1  0.16783677  0.16496415  0.16819883  1
  Ti4+  Ti1  1  0.16481364  0.16823689  0.50189182  1
  Ti4+  Ti2  1  0.16490724  0.17000776  0.83356596  1
  Ti4+  Ti3  1  0.16677361  0.50053505  0.16701352  1
  Ti4+  Ti4  1  0.16742426  0.50012482  0.49787313  1
  Ti4+  Ti5  1  0.16507023  0.50046787  0.83313901  1
  Ti4+  Ti6  1  0.16636659  0.83658847  0.16582488  1
  Ti4+  Ti7  1  0.16994796  0.83413464  0.49988934  1
  Ti4+  Ti8  1  0.16462069  0.83232614  0.83161171  1
  Ti4+  Ti9  1  0.50079093  0.16520455  0.16569071  1
  Ti4+  Ti10  1  0.50119653  0.16692691  0.50066996  1
  Ti4+  Ti11  1  0.50031620  0.16654542  0.83297879  1
  Ti4+  Ti12  1  0.49982077  0.50019874  0.16729612  1
  Ti4+  Ti13  1  0.49980123  0.49993041  0.50118964  1
  Ti4+  Ti14  1  0.50068601  0.49820961  0.83323935  1
  Ti4+  Ti15  1  0.50117101  0.83384423  0.16639621  1
  Ti4+  Ti16  1  0.49987442  0.83304512  0.49762623  1
  Ti4+  Ti17  1  0.50016772  0.83195012  0.83243780  1
  Ti4+  Ti18  1  0.83145194  0.16545649  0.16741108  1
  Ti4+  Ti19  1  0.83228860  0.16543658  0.50035127  1
  Ti4+  Ti20  1  0.83185921  0.16943968  0.83008828  1
  Ti4+  Ti21  1  0.83176768  0.49974669  0.16961413  1
  Ti4+  Ti22  1  0.83494868  0.50117018  0.49984593  1
  Ti4+  Ti23  1  0.83334973  0.50078192  0.83742439  1
  Ti4+  Ti24  1  0.83552267  0.83140376  0.16633919  1
  Ti4+  Ti25  1  0.83538130  0.83093171  0.49937419  1
  Ti4+  Ti26  1  0.83142580  0.83469002  0.83172942  1
  Cu+  Cu27  1  0.17075706  0.16349810  0.00280331  1
  Cu+  Cu28  1  0.16419371  0.16655598  0.33616136  1
  Cu+  Cu29  1  0.16103027  0.17076842  0.66793469  1
  Cu+  Cu30  1  0.16345198  0.50093916  0.00227741  1
  Cu+  Cu31  1  0.16692956  0.49971708  0.33206914  1
  Cu+  Cu32  1  0.17065602  0.50004196  0.66444687  1
  Cu+  Cu33  1  0.16316022  0.83350432  -0.00266903  1
  Cu+  Cu34  1  0.17201778  0.83872541  0.33279268  1
  Cu+  Cu35  1  0.16415373  0.83118903  0.66455022  1
  Cu+  Cu36  1  0.50167546  0.16730413  -0.00141512  1
  Cu+  Cu37  1  0.50461833  0.16640811  0.33121449  1
  Cu+  Cu38  1  0.50329731  0.16790378  0.66731312  1
  Cu+  Cu39  1  0.50256527  0.50072083  -0.00053170  1
  Cu+  Cu40  1  0.49621444  0.50199571  0.33602604  1
  Cu+  Cu41  1  0.50137576  0.49689059  0.66639748  1
  Cu+  Cu42  1  0.49853250  0.83292725  -0.00020482  1
  Cu+  Cu43  1  0.50262431  0.83418323  0.33176850  1
  Cu+  Cu44  1  0.49741244  0.83151032  0.66408300  1
  Cu+  Cu45  1  0.83185312  0.16791455  0.00040783  1
  Cu+  Cu46  1  0.82835883  0.16389918  0.33372148  1
  Cu+  Cu47  1  0.83767836  0.16640455  0.66397047  1
  Cu+  Cu48  1  0.83161193  0.49921871  0.00425716  1
  Cu+  Cu49  1  0.84071868  0.50138232  0.33436292  1
  Cu+  Cu50  1  0.82861336  0.50360152  0.67119099  1
  Cu+  Cu51  1  0.82776074  0.83639866  -0.00015130  1
  Cu+  Cu52  1  0.83522017  0.83040635  0.33173339  1
  Cu+  Cu53  1  0.83801161  0.82882676  0.66795873  1
  Cu+  Cu54  1  0.17433343  0.00047403  0.16682199  1
  Cu+  Cu55  1  0.16797394  0.00253975  0.49974360  1
  Cu+  Cu56  1  0.16599537  -0.00276680  0.83441905  1
  Cu+  Cu57  1  0.16582501  0.33219321  0.16905211  1
  Cu+  Cu58  1  0.16766851  0.33432849  0.49934844  1
  Cu+  Cu59  1  0.16155544  0.33723304  0.83091656  1
  Cu+  Cu60  1  0.16454259  0.66876493  0.16309368  1
  Cu+  Cu61  1  0.16709535  0.66788332  0.50100913  1
  Cu+  Cu62  1  0.16719294  0.66529073  0.83410499  1
  Cu+  Cu63  1  0.50032278  -0.00133861  0.16427875  1
  Cu+  Cu64  1  0.50225565  0.00098968  0.49441002  1
  Cu+  Cu65  1  0.50039142  -0.00177513  0.83026388  1
  Cu+  Cu66  1  0.50064244  0.33366042  0.16892970  1
  Cu+  Cu67  1  0.50206979  0.33365851  0.50598084  1
  Cu+  Cu68  1  0.49788720  0.33035356  0.83436339  1
  Cu+  Cu69  1  0.49863761  0.66807212  0.16578026  1
  Cu+  Cu70  1  0.49309907  0.66608276  0.49894786  1
  Cu+  Cu71  1  0.50195632  0.66433056  0.83679660  1
  Cu+  Cu72  1  0.83443846  -0.00122151  0.16384468  1
  Cu+  Cu73  1  0.83078562  -0.00437926  0.49930065  1
  Cu+  Cu74  1  0.83311469  0.00434540  0.82939861  1
  Cu+  Cu75  1  0.83017316  0.33300854  0.16543528  1
  Cu+  Cu76  1  0.83646255  0.33549977  0.49851423  1
  Cu+  Cu77  1  0.83522010  0.33277432  0.84071083  1
  Cu+  Cu78  1  0.83273837  0.66496135  0.17554685  1
  Cu+  Cu79  1  0.83315419  0.66641113  0.49922871  1
  Cu+  Cu80  1  0.82931650  0.66617796  0.82909271  1
  Cu+  Cu81  1  0.00182166  0.16377891  0.16725614  1
  Cu+  Cu82  1  -0.00185690  0.16854901  0.50472749  1
  Cu+  Cu83  1  -0.00117650  0.17341212  0.82877245  1
  Cu+  Cu84  1  -0.00132558  0.50349101  0.16946416  1
  Cu+  Cu85  1  -0.00100151  0.49519259  0.49645402  1
  Cu+  Cu86  1  0.00249808  0.49592814  0.84053509  1
  Cu+  Cu87  1  0.00000980  0.83791920  0.16883622  1
  Cu+  Cu88  1  0.00393936  0.83090957  0.50018697  1
  Cu+  Cu89  1  -0.00286293  0.83053567  0.83077554  1
  Cu+  Cu90  1  0.33294663  0.16062637  0.16272387  1
  Cu+  Cu91  1  0.33086273  0.16509672  0.50158158  1
  Cu+  Cu92  1  0.33539039  0.16991010  0.83168802  1
  Cu+  Cu93  1  0.33251949  0.49862185  0.16531955  1
  Cu+  Cu94  1  0.33570437  0.50427334  0.49596193  1
  Cu+  Cu95  1  0.33051982  0.49553601  0.83013555  1
  Cu+  Cu96  1  0.33308424  0.83841098  0.16873555  1
  Cu+  Cu97  1  0.33717312  0.83085603  0.50184194  1
  Cu+  Cu98  1  0.33169840  0.83331717  0.83134061  1
  Cu+  Cu99  1  0.66569317  0.16903142  0.16931716  1
  Cu+  Cu100  1  0.66430894  0.16573226  0.49926173  1
  Cu+  Cu101  1  0.66324813  0.16426942  0.83282222  1
  Cu+  Cu102  1  0.66585516  0.49888112  0.16686526  1
  Cu+  Cu103  1  0.66792547  0.50013061  0.50017190  1
  Cu+  Cu104  1  0.66701363  0.50504867  0.83483023  1
  Cu+  Cu105  1  0.66997187  0.83157617  0.16480390  1
  Cu+  Cu106  1  0.66743198  0.83346878  0.49996660  1
  Cu+  Cu107  1  0.66584370  0.83410607  0.83545453  1
  Cu+  Cu108  1  0.73581297  0.59540982  0.73868160  1
  Cu+  Cu109  1  0.73949833  0.92829514  0.07364861  1
  Cu+  Cu110  1  0.92798860  0.40220355  0.40244919  1
  Cu+  Cu111  1  0.26543000  0.92903321  0.26422151  1
  Cu+  Cu112  1  0.93117068  0.59375929  0.26259182  1
  Cu+  Cu113  1  0.92961298  0.07332387  0.73886058  1
  Cu+  Cu114  1  0.59432426  0.59520718  0.93026145  1
  Cu+  Cu115  1  0.07434048  0.73813824  0.59044398  1
  Cu+  Cu116  1  0.92448909  0.92971943  0.26060135  1
  Cu+  Cu117  1  0.59159912  0.06776766  0.74101320  1
  Cu+  Cu118  1  0.07138074  0.26549435  0.73896391  1
  Cu+  Cu119  1  0.59191285  0.07180653  0.40127492  1
  Cu+  Cu120  1  0.40915137  0.73653281  0.59774930  1
  Cu+  Cu121  1  0.73773940  0.73855149  0.26027350  1
  Cu+  Cu122  1  0.40542513  0.59649908  0.40186379  1
  Cu+  Cu123  1  0.92736841  0.25329001  0.93193712  1
  Cu+  Cu124  1  0.26299434  0.06959226  0.06818094  1
  Cu+  Cu125  1  0.25865602  0.40942871  0.73535720  1
  Cu+  Cu126  1  0.07800147  0.40701425  0.93404989  1
  Cu+  Cu127  1  0.59262151  0.26447747  0.26077363  1
  Cu+  Cu128  1  0.92639838  0.73445804  0.74453390  1
  Cu+  Cu129  1  0.59575324  0.26150978  0.59525437  1
  Cu+  Cu130  1  0.40917514  0.25629739  0.73682409  1
  Cu+  Cu131  1  0.92624858  0.26567032  0.58828001  1
  Cu+  Cu132  1  0.59156713  0.25991882  0.92878375  1
  Te2-  Te133  1  0.25279495  0.25325081  0.08304954  1
  Te2-  Te134  1  0.25185233  0.25134715  0.41527362  1
  Te2-  Te135  1  0.25263750  0.25550756  0.74531727  1
  Te2-  Te136  1  0.25125821  0.58563981  0.08044013  1
  Te2-  Te137  1  0.25096794  0.58844062  0.41177875  1
  Te2-  Te138  1  0.25270153  0.58682531  0.74757727  1
  Te2-  Te139  1  0.25410433  0.91789519  0.07442757  1
  Te2-  Te140  1  0.25827673  0.92260401  0.41747318  1
  Te2-  Te141  1  0.24983548  0.91769731  0.74557107  1
  Te2-  Te142  1  0.58694695  0.25421527  0.08087247  1
  Te2-  Te143  1  0.58691866  0.25664432  0.41443745  1
  Te2-  Te144  1  0.58985496  0.25724268  0.74722075  1
  Te2-  Te145  1  0.58678749  0.58751380  0.08280249  1
  Te2-  Te146  1  0.58524725  0.58641642  0.41639633  1
  Te2-  Te147  1  0.58410097  0.58655276  0.74440610  1
  Te2-  Te148  1  0.58676457  0.91876687  0.07852119  1
  Te2-  Te149  1  0.58955096  0.91803693  0.41156145  1
  Te2-  Te150  1  0.58667515  0.91541180  0.74371720  1
  Te2-  Te151  1  0.91976167  0.25162489  0.08419576  1
  Te2-  Te152  1  0.91889986  0.24911431  0.41109518  1
  Te2-  Te153  1  0.91746265  0.26171494  0.74287705  1
  Te2-  Te154  1  0.91599435  0.58706199  0.08329064  1
  Te2-  Te155  1  0.92355844  0.59048587  0.41613692  1
  Te2-  Te156  1  0.92354069  0.58222476  0.75044805  1
  Te2-  Te157  1  0.92016402  0.91835717  0.07737845  1
  Te2-  Te158  1  0.92163288  0.91791854  0.41497973  1
  Te2-  Te159  1  0.91977289  0.92081026  0.74602849  1
  Te2-  Te160  1  0.25521481  0.08204730  0.25884364  1
  Te2-  Te161  1  0.24911622  0.08357311  0.58958178  1
  Te2-  Te162  1  0.25395076  0.08131357  0.91424613  1
  Te2-  Te163  1  0.25218147  0.41423347  0.25177760  1
  Te2-  Te164  1  0.25652450  0.41449540  0.58141688  1
  Te2-  Te165  1  0.24969593  0.41362730  0.92099675  1
  Te2-  Te166  1  0.25124079  0.74847348  0.24956888  1
  Te2-  Te167  1  0.25530557  0.74588080  0.58760151  1
  Te2-  Te168  1  0.25089236  0.74848105  0.91804925  1
  Te2-  Te169  1  0.58840824  0.07581038  0.24952203  1
  Te2-  Te170  1  0.58683809  0.07734117  0.58704906  1
  Te2-  Te171  1  0.58491933  0.07734592  0.91945083  1
  Te2-  Te172  1  0.58524430  0.41688256  0.25661543  1
  Te2-  Te173  1  0.59044744  0.41508325  0.58798462  1
  Te2-  Te174  1  0.58778543  0.41275955  0.91896014  1
  Te2-  Te175  1  0.58610940  0.74613510  0.25228774  1
  Te2-  Te176  1  0.58451406  0.74598760  0.58251468  1
  Te2-  Te177  1  0.58678285  0.74827465  0.92158896  1
  Te2-  Te178  1  0.91848836  0.08121950  0.25381214  1
  Te2-  Te179  1  0.91911016  0.07520258  0.58392804  1
  Te2-  Te180  1  0.91893508  0.08488089  0.91668698  1
  Te2-  Te181  1  0.92071538  0.40959731  0.25075069  1
  Te2-  Te182  1  0.91850817  0.41816937  0.59152710  1
  Te2-  Te183  1  0.91994317  0.41279520  0.92704907  1
  Te2-  Te184  1  0.92577824  0.74650243  0.25477202  1
  Te2-  Te185  1  0.92176490  0.74218089  0.58608539  1
  Te2-  Te186  1  0.91338450  0.74821307  0.91901145  1
  Te2-  Te187  1  0.08054006  0.25031962  0.25301451  1
  Te2-  Te188  1  0.07841263  0.26007320  0.58673203  1
  Te2-  Te189  1  0.08099089  0.25310543  0.92648876  1
  Te2-  Te190  1  0.08305149  0.58902185  0.25387617  1
  Te2-  Te191  1  0.08002433  0.58266479  0.58482596  1
  Te2-  Te192  1  0.08054732  0.58830598  0.92050420  1
  Te2-  Te193  1  0.08183626  0.92436060  0.25402670  1
  Te2-  Te194  1  0.08263915  0.92056429  0.58383465  1
  Te2-  Te195  1  0.07709046  0.91724049  0.91619353  1
  Te2-  Te196  1  0.41329107  0.24826832  0.25035442  1
  Te2-  Te197  1  0.41102288  0.25237936  0.58548741  1
  Te2-  Te198  1  0.41279197  0.25230800  0.92203048  1
  Te2-  Te199  1  0.41174352  0.58698832  0.25007348  1
  Te2-  Te200  1  0.41220938  0.58358700  0.59119421  1
  Te2-  Te201  1  0.41167589  0.58099813  0.91685034  1
  Te2-  Te202  1  0.41736275  0.92207117  0.25418860  1
  Te2-  Te203  1  0.41678789  0.92239411  0.58257251  1
  Te2-  Te204  1  0.41460832  0.91832027  0.91613616  1
  Te2-  Te205  1  0.74743417  0.25398646  0.25459652  1
  Te2-  Te206  1  0.74793117  0.25397895  0.58530305  1
  Te2-  Te207  1  0.74377652  0.25184268  0.91998453  1
  Te2-  Te208  1  0.74319115  0.58261599  0.25858479  1
  Te2-  Te209  1  0.74631740  0.58798828  0.58492646  1
  Te2-  Te210  1  0.74889886  0.58870488  0.92441690  1
  Te2-  Te211  1  0.74896387  0.91891628  0.25293097  1
  Te2-  Te212  1  0.75036327  0.91373143  0.58731413  1
  Te2-  Te213  1  0.74584909  0.92460255  0.91642546  1
  Te2-  Te214  1  0.08234644  0.07827658  0.08191714  1
  Te2-  Te215  1  0.07831407  0.08249551  0.41770513  1
  Te2-  Te216  1  0.08122729  0.07985397  0.74889962  1
  Te2-  Te217  1  0.07741318  0.41322321  0.08551164  1
  Te2-  Te218  1  0.08255914  0.41196560  0.41142893  1
  Te2-  Te219  1  0.07606496  0.41776888  0.74163089  1
  Te2-  Te220  1  0.07847682  0.75161638  0.08145400  1
  Te2-  Te221  1  0.08607914  0.74990686  0.41078436  1
  Te2-  Te222  1  0.07939999  0.74161825  0.74550802  1
  Te2-  Te223  1  0.41705254  0.07806796  0.07619818  1
  Te2-  Te224  1  0.41420258  0.08422672  0.41358770  1
  Te2-  Te225  1  0.41333190  0.08085202  0.74576493  1
  Te2-  Te226  1  0.41657950  0.41434831  0.08086642  1
  Te2-  Te227  1  0.41564953  0.41093837  0.41706147  1
  Te2-  Te228  1  0.41407047  0.41088622  0.74429219  1
  Te2-  Te229  1  0.41250103  0.75054280  0.08279341  1
  Te2-  Te230  1  0.41235164  0.74927093  0.40756579  1
  Te2-  Te231  1  0.41363578  0.74419659  0.74993725  1
  Te2-  Te232  1  0.74498726  0.08231208  0.07979109  1
  Te2-  Te233  1  0.74588239  0.07761409  0.41486088  1
  Te2-  Te234  1  0.74548290  0.08240018  0.74294261  1
  Te2-  Te235  1  0.74572990  0.41422105  0.08215775  1
  Te2-  Te236  1  0.74968414  0.41646853  0.41351089  1
  Te2-  Te237  1  0.74854694  0.41349322  0.75377506  1
  Te2-  Te238  1  0.75032408  0.74256576  0.08117157  1
  Te2-  Te239  1  0.74677179  0.74629375  0.41414143  1
  Te2-  Te240  1  0.74240007  0.74928190  0.74500444  1
