# generated using pymatgen
data_Ti27(Cu53Te54)2
_symmetry_space_group_name_H-M   'P 1'
_cell_length_a   17.91397880
_cell_length_b   17.90140646
_cell_length_c   17.89796272
_cell_angle_alpha   89.99987147
_cell_angle_beta   90.02652793
_cell_angle_gamma   90.00571033
_symmetry_Int_Tables_number   1
_chemical_formula_structural   Ti27(Cu53Te54)2
_chemical_formula_sum   'Ti27 Cu106 Te108'
_cell_volume   5739.61497249
_cell_formula_units_Z   1
loop_
 _symmetry_equiv_pos_site_id
 _symmetry_equiv_pos_as_xyz
  1  'x, y, z'
loop_
 _atom_type_symbol
 _atom_type_oxidation_number
  Ti4+  4.0
  Cu+  1.0
  Te2-  -2.0
loop_
 _atom_site_type_symbol
 _atom_site_label
 _atom_site_symmetry_multiplicity
 _atom_site_fract_x
 _atom_site_fract_y
 _atom_site_fract_z
 _atom_site_occupancy
  Ti4+  Ti0  1  0.16624679  0.16629829  0.16518601  1
  Ti4+  Ti1  1  0.16787036  0.16936501  0.49596480  1
  Ti4+  Ti2  1  0.16876406  0.16551088  0.83297562  1
  Ti4+  Ti3  1  0.16387394  0.50102771  0.16674336  1
  Ti4+  Ti4  1  0.16839997  0.49978845  0.50026897  1
  Ti4+  Ti5  1  0.16584149  0.49878458  0.83173945  1
  Ti4+  Ti6  1  0.16300222  0.83342280  0.16720067  1
  Ti4+  Ti7  1  0.16876719  0.83242958  0.49719947  1
  Ti4+  Ti8  1  0.16533802  0.83165645  0.83307185  1
  Ti4+  Ti9  1  0.49910072  0.16917286  0.16648504  1
  Ti4+  Ti10  1  0.49594726  0.16369537  0.49901232  1
  Ti4+  Ti11  1  0.49879215  0.16501184  0.83394485  1
  Ti4+  Ti12  1  0.50255571  0.50276060  0.16348865  1
  Ti4+  Ti13  1  0.50204497  0.49808216  0.50219184  1
  Ti4+  Ti14  1  0.50043346  0.50250979  0.83491363  1
  Ti4+  Ti15  1  0.49750239  0.83140058  0.17088111  1
  Ti4+  Ti16  1  0.50707367  0.83310875  0.50093136  1
  Ti4+  Ti17  1  0.49510723  0.83172617  0.83392404  1
  Ti4+  Ti18  1  0.83292857  0.16778546  0.16659276  1
  Ti4+  Ti19  1  0.83237617  0.16683238  0.50055309  1
  Ti4+  Ti20  1  0.83447468  0.16739794  0.83203627  1
  Ti4+  Ti21  1  0.83072038  0.49967408  0.16766342  1
  Ti4+  Ti22  1  0.83228948  0.49951107  0.50334883  1
  Ti4+  Ti23  1  0.83279200  0.50094155  0.83225978  1
  Ti4+  Ti24  1  0.83006182  0.83193003  0.16924867  1
  Ti4+  Ti25  1  0.83869406  0.83253341  0.49843055  1
  Ti4+  Ti26  1  0.83337237  0.83622957  0.83370736  1
  Cu+  Cu27  1  0.16834397  0.16400121  0.00002925  1
  Cu+  Cu28  1  0.17292785  0.16753626  0.32730644  1
  Cu+  Cu29  1  0.16781557  0.17024373  0.66562291  1
  Cu+  Cu30  1  0.16420360  0.49989442  -0.00069245  1
  Cu+  Cu31  1  0.16582763  0.49976630  0.33562642  1
  Cu+  Cu32  1  0.16794866  0.49948185  0.66529855  1
  Cu+  Cu33  1  0.16223616  0.83394979  0.00227270  1
  Cu+  Cu34  1  0.15958121  0.83481260  0.33036767  1
  Cu+  Cu35  1  0.17006183  0.82917581  0.66527036  1
  Cu+  Cu36  1  0.49898760  0.16610412  -0.00099788  1
  Cu+  Cu37  1  0.49239183  0.16826639  0.33406566  1
  Cu+  Cu38  1  0.49792105  0.16370629  0.66812442  1
  Cu+  Cu39  1  0.50413626  0.49905427  0.00080461  1
  Cu+  Cu40  1  0.50282524  0.50034105  0.33102086  1
  Cu+  Cu41  1  0.50211267  0.50409660  0.66792316  1
  Cu+  Cu42  1  0.49232443  0.82957759  0.00183218  1
  Cu+  Cu43  1  0.50658610  0.84123767  0.33344893  1
  Cu+  Cu44  1  0.50182120  0.82476416  0.66719420  1
  Cu+  Cu45  1  0.83508839  0.16841038  -0.00059653  1
  Cu+  Cu46  1  0.83254909  0.16850311  0.33262970  1
  Cu+  Cu47  1  0.83416766  0.16363549  0.66621325  1
  Cu+  Cu48  1  0.83096159  0.50392534  -0.00032029  1
  Cu+  Cu49  1  0.83228438  0.50007480  0.33718683  1
  Cu+  Cu50  1  0.83268809  0.49401341  0.66818421  1
  Cu+  Cu51  1  0.83095100  0.83664001  -0.00146497  1
  Cu+  Cu52  1  0.82892383  0.83245724  0.33277853  1
  Cu+  Cu53  1  0.84156857  0.83185012  0.66905686  1
  Cu+  Cu54  1  0.16404687  -0.00040142  0.16433114  1
  Cu+  Cu55  1  0.16887440  0.00222424  0.49168238  1
  Cu+  Cu56  1  0.16728434  -0.00123148  0.83358146  1
  Cu+  Cu57  1  0.16513429  0.33487229  0.16564149  1
  Cu+  Cu58  1  0.16964061  0.33536425  0.50302708  1
  Cu+  Cu59  1  0.16472953  0.33041320  0.83077840  1
  Cu+  Cu60  1  0.16261704  0.66704557  0.16844115  1
  Cu+  Cu61  1  0.16803443  0.66374387  0.50018093  1
  Cu+  Cu62  1  0.16720516  0.66410298  0.83075001  1
  Cu+  Cu63  1  0.49805363  0.00229383  0.17033935  1
  Cu+  Cu64  1  0.49777590  -0.00378269  0.49661972  1
  Cu+  Cu65  1  0.49700440  -0.00125386  0.83572997  1
  Cu+  Cu66  1  0.50298848  0.33825139  0.16235433  1
  Cu+  Cu67  1  0.49908729  0.32787688  0.50257241  1
  Cu+  Cu68  1  0.49890823  0.33322899  0.83276557  1
  Cu+  Cu69  1  0.50313459  0.66935341  0.16356948  1
  Cu+  Cu70  1  0.50634940  0.66402075  0.50417327  1
  Cu+  Cu71  1  0.49588729  0.67000306  0.83793959  1
  Cu+  Cu72  1  0.83401758  0.00428602  0.16506995  1
  Cu+  Cu73  1  0.83684060  0.00071362  0.49640037  1
  Cu+  Cu74  1  0.83307491  0.00232974  0.83459775  1
  Cu+  Cu75  1  0.83342007  0.33206760  0.16801042  1
  Cu+  Cu76  1  0.82915641  0.33364803  0.50404536  1
  Cu+  Cu77  1  0.83642631  0.33473457  0.83172245  1
  Cu+  Cu78  1  0.82474177  0.66478926  0.16978584  1
  Cu+  Cu79  1  0.83620026  0.66652345  0.50520549  1
  Cu+  Cu80  1  0.83658351  0.66919014  0.83314859  1
  Cu+  Cu81  1  -0.00048551  0.16609040  0.16658343  1
  Cu+  Cu82  1  -0.00301739  0.16722148  0.49769224  1
  Cu+  Cu83  1  0.00402087  0.16718779  0.83084809  1
  Cu+  Cu84  1  -0.00365369  0.49988070  0.16757565  1
  Cu+  Cu85  1  0.00126440  0.50056378  0.50068428  1
  Cu+  Cu86  1  -0.00195338  0.49757324  0.83010070  1
  Cu+  Cu87  1  -0.00222649  0.82982765  0.17100678  1
  Cu+  Cu88  1  0.00809370  0.83608138  0.49830071  1
  Cu+  Cu89  1  -0.00235403  0.83449892  0.83175292  1
  Cu+  Cu90  1  0.33243344  0.16973023  0.16856811  1
  Cu+  Cu91  1  0.32906158  0.16866769  0.49333036  1
  Cu+  Cu92  1  0.33519703  0.16490799  0.83480829  1
  Cu+  Cu93  1  0.33376748  0.50465005  0.16553590  1
  Cu+  Cu94  1  0.33378396  0.49877288  0.49739364  1
  Cu+  Cu95  1  0.33330427  0.50029265  0.83572338  1
  Cu+  Cu96  1  0.32666539  0.83443025  0.16967222  1
  Cu+  Cu97  1  0.34101076  0.83245890  0.49926393  1
  Cu+  Cu98  1  0.32937637  0.82672277  0.83551192  1
  Cu+  Cu99  1  0.66875539  0.16733080  0.16614639  1
  Cu+  Cu100  1  0.66217811  0.16372665  0.50187726  1
  Cu+  Cu101  1  0.66685748  0.16598390  0.83425278  1
  Cu+  Cu102  1  0.66789187  0.50222571  0.15774384  1
  Cu+  Cu103  1  0.66731225  0.49737146  0.50809485  1
  Cu+  Cu104  1  0.66680883  0.50320052  0.83492739  1
  Cu+  Cu105  1  0.66294228  0.82913572  0.17532494  1
  Cu+  Cu106  1  0.67813257  0.83535874  0.49867303  1
  Cu+  Cu107  1  0.66530605  0.83741354  0.83268063  1
  Cu+  Cu108  1  0.59091135  0.24861993  0.59691783  1
  Cu+  Cu109  1  0.75011181  0.74760814  0.59627986  1
  Cu+  Cu110  1  0.07391475  0.25637887  0.73815436  1
  Cu+  Cu111  1  0.07483287  0.93214017  0.40322223  1
  Cu+  Cu112  1  0.25780847  0.73585232  0.74092687  1
  Cu+  Cu113  1  0.59416210  0.93477927  0.25186348  1
  Cu+  Cu114  1  0.40689638  0.26478075  0.40751261  1
  Cu+  Cu115  1  0.41100362  0.73727390  0.58570582  1
  Cu+  Cu116  1  0.07986769  0.73783097  0.59114451  1
  Cu+  Cu117  1  0.25730966  0.26142120  0.59601763  1
  Cu+  Cu118  1  0.74414438  0.59571516  0.06805420  1
  Cu+  Cu119  1  0.73545972  0.73334188  0.26369682  1
  Cu+  Cu120  1  0.73931057  0.40216840  0.59765050  1
  Cu+  Cu121  1  0.39774604  0.73831964  0.93404683  1
  Cu+  Cu122  1  0.92757019  0.73993887  0.74625145  1
  Cu+  Cu123  1  0.59385412  0.74299020  0.74902640  1
  Cu+  Cu124  1  0.59735250  0.40327832  0.07064947  1
  Cu+  Cu125  1  0.40938993  0.91909121  0.40554788  1
  Cu+  Cu126  1  0.25980455  0.26783514  0.24902251  1
  Cu+  Cu127  1  0.59650704  0.59030994  0.59568285  1
  Cu+  Cu128  1  0.25762122  0.07274997  0.39954745  1
  Cu+  Cu129  1  0.92714618  0.40490142  0.73901866  1
  Cu+  Cu130  1  0.59213353  0.75193869  0.07247262  1
  Cu+  Cu131  1  0.74894292  0.93173228  0.40638043  1
  Cu+  Cu132  1  0.06998829  0.73480973  0.25739394  1
  Te2-  Te133  1  0.25167400  0.25298131  0.07988539  1
  Te2-  Te134  1  0.25285224  0.26108941  0.40771078  1
  Te2-  Te135  1  0.25752752  0.25333762  0.74873666  1
  Te2-  Te136  1  0.24787741  0.58675266  0.08157350  1
  Te2-  Te137  1  0.25308830  0.58513203  0.41391172  1
  Te2-  Te138  1  0.25454498  0.58328796  0.74591228  1
  Te2-  Te139  1  0.24935611  0.91820354  0.08098766  1
  Te2-  Te140  1  0.25647957  0.91667954  0.40849529  1
  Te2-  Te141  1  0.25206968  0.91638634  0.74875159  1
  Te2-  Te142  1  0.58650312  0.25088956  0.07911689  1
  Te2-  Te143  1  0.58356044  0.24945474  0.41351174  1
  Te2-  Te144  1  0.58558146  0.25185024  0.74873809  1
  Te2-  Te145  1  0.58832910  0.59287842  0.07449326  1
  Te2-  Te146  1  0.58847927  0.58153769  0.41640409  1
  Te2-  Te147  1  0.58810230  0.59036795  0.74940172  1
  Te2-  Te148  1  0.58174980  0.91659836  0.08368431  1
  Te2-  Te149  1  0.59501093  0.92314914  0.41509798  1
  Te2-  Te150  1  0.58033748  0.91817859  0.74802998  1
  Te2-  Te151  1  0.91946651  0.25284623  0.08202262  1
  Te2-  Te152  1  0.91465137  0.25461078  0.41588984  1
  Te2-  Te153  1  0.92115843  0.25291304  0.74243408  1
  Te2-  Te154  1  0.91545999  0.58765059  0.08416243  1
  Te2-  Te155  1  0.91776395  0.58453784  0.41794459  1
  Te2-  Te156  1  0.91937753  0.58596193  0.74463025  1
  Te2-  Te157  1  0.91646463  0.91593982  0.08475431  1
  Te2-  Te158  1  0.92244425  0.91877592  0.40999826  1
  Te2-  Te159  1  0.91914434  0.92360625  0.74879934  1
  Te2-  Te160  1  0.25474307  0.07558809  0.24818640  1
  Te2-  Te161  1  0.25084280  0.08204139  0.58233310  1
  Te2-  Te162  1  0.25321532  0.07929716  0.91860230  1
  Te2-  Te163  1  0.25349200  0.41884586  0.25207829  1
  Te2-  Te164  1  0.25672821  0.41518280  0.58769844  1
  Te2-  Te165  1  0.24910009  0.41406674  0.91743767  1
  Te2-  Te166  1  0.24859551  0.74771382  0.25450038  1
  Te2-  Te167  1  0.25784984  0.74421808  0.58311261  1
  Te2-  Te168  1  0.24637034  0.74354843  0.92447482  1
  Te2-  Te169  1  0.58535953  0.08621874  0.25509667  1
  Te2-  Te170  1  0.58090564  0.07684171  0.58512900  1
  Te2-  Te171  1  0.58453927  0.08000650  0.91879450  1
  Te2-  Te172  1  0.58886483  0.41737278  0.24889922  1
  Te2-  Te173  1  0.58430989  0.40853258  0.59230296  1
  Te2-  Te174  1  0.58742625  0.41385178  0.91715144  1
  Te2-  Te175  1  0.58279449  0.74206816  0.26040191  1
  Te2-  Te176  1  0.59707637  0.74542858  0.58838147  1
  Te2-  Te177  1  0.58731806  0.74888209  0.92033940  1
  Te2-  Te178  1  0.91835142  0.08270317  0.25311500  1
  Te2-  Te179  1  0.91959656  0.08049386  0.58370286  1
  Te2-  Te180  1  0.92052543  0.08396537  0.91703248  1
  Te2-  Te181  1  0.91572307  0.41532009  0.25377247  1
  Te2-  Te182  1  0.92226619  0.41185423  0.58575566  1
  Te2-  Te183  1  0.91712313  0.41746964  0.92036349  1
  Te2-  Te184  1  0.91478148  0.74382574  0.25503454  1
  Te2-  Te185  1  0.92766289  0.74649518  0.58625044  1
  Te2-  Te186  1  0.91865824  0.75023227  0.92114149  1
  Te2-  Te187  1  0.08060282  0.25177933  0.25110278  1
  Te2-  Te188  1  0.07873470  0.25350281  0.58204452  1
  Te2-  Te189  1  0.08333722  0.25040737  0.92005819  1
  Te2-  Te190  1  0.07718922  0.58326742  0.25542034  1
  Te2-  Te191  1  0.08098461  0.58471879  0.58747925  1
  Te2-  Te192  1  0.07946845  0.58359753  0.91528049  1
  Te2-  Te193  1  0.07565250  0.92411401  0.25092030  1
  Te2-  Te194  1  0.08881610  0.92157760  0.58443437  1
  Te2-  Te195  1  0.08025257  0.91770801  0.91691811  1
  Te2-  Te196  1  0.41417286  0.26005536  0.25130303  1
  Te2-  Te197  1  0.40991158  0.24947734  0.58798560  1
  Te2-  Te198  1  0.41474689  0.25249019  0.91869905  1
  Te2-  Te199  1  0.41793430  0.58716128  0.25080916  1
  Te2-  Te200  1  0.41230782  0.58427360  0.58609357  1
  Te2-  Te201  1  0.41351354  0.58485652  0.92294033  1
  Te2-  Te202  1  0.40954093  0.92033361  0.25316173  1
  Te2-  Te203  1  0.41954657  0.91627536  0.58880694  1
  Te2-  Te204  1  0.40994144  0.91715812  0.91931648  1
  Te2-  Te205  1  0.74683590  0.25330651  0.25257507  1
  Te2-  Te206  1  0.74424172  0.25008117  0.59022459  1
  Te2-  Te207  1  0.75015872  0.25299694  0.91680385  1
  Te2-  Te208  1  0.74180177  0.58140778  0.25737225  1
  Te2-  Te209  1  0.74888833  0.58853313  0.59315978  1
  Te2-  Te210  1  0.74757272  0.59081463  0.91610206  1
  Te2-  Te211  1  0.74640730  0.92573037  0.25272341  1
  Te2-  Te212  1  0.75650200  0.91923422  0.58779337  1
  Te2-  Te213  1  0.74598529  0.92165298  0.91795713  1
  Te2-  Te214  1  0.07988743  0.08144110  0.08010424  1
  Te2-  Te215  1  0.07936859  0.08565944  0.40885461  1
  Te2-  Te216  1  0.08458601  0.07992412  0.74538845  1
  Te2-  Te217  1  0.07886144  0.41575065  0.08177142  1
  Te2-  Te218  1  0.08193047  0.41403693  0.41682386  1
  Te2-  Te219  1  0.08060822  0.41202649  0.74264823  1
  Te2-  Te220  1  0.07721896  0.74727161  0.08144375  1
  Te2-  Te221  1  0.08132961  0.74269805  0.41290075  1
  Te2-  Te222  1  0.07832649  0.74393508  0.74552999  1
  Te2-  Te223  1  0.41447417  0.08349926  0.08365516  1
  Te2-  Te224  1  0.41017645  0.07504347  0.40975363  1
  Te2-  Te225  1  0.41341467  0.07886171  0.74863022  1
  Te2-  Te226  1  0.41341655  0.41803315  0.08015291  1
  Te2-  Te227  1  0.41724933  0.41550046  0.41316921  1
  Te2-  Te228  1  0.41632326  0.41816442  0.74900654  1
  Te2-  Te229  1  0.40668579  0.74583757  0.08653244  1
  Te2-  Te230  1  0.42403187  0.74642102  0.41358259  1
  Te2-  Te231  1  0.40932905  0.74134589  0.74430133  1
  Te2-  Te232  1  0.74821457  0.08284029  0.07902720  1
  Te2-  Te233  1  0.74603181  0.08367905  0.41335471  1
  Te2-  Te234  1  0.74809478  0.08152069  0.74836649  1
  Te2-  Te235  1  0.74984857  0.41038615  0.07764227  1
  Te2-  Te236  1  0.74607095  0.41518673  0.41755566  1
  Te2-  Te237  1  0.74296357  0.41254253  0.75025332  1
  Te2-  Te238  1  0.74457594  0.74911612  0.07716942  1
  Te2-  Te239  1  0.74993283  0.74139448  0.41495092  1
  Te2-  Te240  1  0.74633881  0.74684863  0.74760308  1
