# generated using pymatgen
data_Ti27(Cu53Te54)2
_symmetry_space_group_name_H-M   'P 1'
_cell_length_a   17.88156804
_cell_length_b   17.88475534
_cell_length_c   17.88272732
_cell_angle_alpha   89.99883283
_cell_angle_beta   89.97866528
_cell_angle_gamma   90.00455938
_symmetry_Int_Tables_number   1
_chemical_formula_structural   Ti27(Cu53Te54)2
_chemical_formula_sum   'Ti27 Cu106 Te108'
_cell_volume   5719.02935309
_cell_formula_units_Z   1
loop_
 _symmetry_equiv_pos_site_id
 _symmetry_equiv_pos_as_xyz
  1  'x, y, z'
loop_
 _atom_type_symbol
 _atom_type_oxidation_number
  Ti4+  4.0
  Cu+  1.0
  Te2-  -2.0
loop_
 _atom_site_type_symbol
 _atom_site_label
 _atom_site_symmetry_multiplicity
 _atom_site_fract_x
 _atom_site_fract_y
 _atom_site_fract_z
 _atom_site_occupancy
  Ti4+  Ti0  1  0.16660106  0.16809545  0.16893356  1
  Ti4+  Ti1  1  0.16561971  0.16817564  0.50445999  1
  Ti4+  Ti2  1  0.17084145  0.16833005  0.83551020  1
  Ti4+  Ti3  1  0.16510975  0.50139685  0.16624564  1
  Ti4+  Ti4  1  0.16518903  0.49925927  0.50148311  1
  Ti4+  Ti5  1  0.16512347  0.50062050  0.83528387  1
  Ti4+  Ti6  1  0.16637435  0.83512466  0.16719552  1
  Ti4+  Ti7  1  0.16873445  0.83014807  0.50308917  1
  Ti4+  Ti8  1  0.16767213  0.83363612  0.83432824  1
  Ti4+  Ti9  1  0.49657500  0.16692469  0.16804119  1
  Ti4+  Ti10  1  0.50229701  0.17138770  0.49986767  1
  Ti4+  Ti11  1  0.49904488  0.16323808  0.82919749  1
  Ti4+  Ti12  1  0.49963887  0.50268334  0.16589286  1
  Ti4+  Ti13  1  0.49852074  0.50085770  0.49561854  1
  Ti4+  Ti14  1  0.50429896  0.49640468  0.83347086  1
  Ti4+  Ti15  1  0.49944368  0.83540139  0.16849522  1
  Ti4+  Ti16  1  0.50118477  0.83211949  0.50327673  1
  Ti4+  Ti17  1  0.50158809  0.82820707  0.83394009  1
  Ti4+  Ti18  1  0.83268526  0.16563429  0.16767099  1
  Ti4+  Ti19  1  0.83178444  0.16818314  0.50085126  1
  Ti4+  Ti20  1  0.83458588  0.16756202  0.83254724  1
  Ti4+  Ti21  1  0.83136425  0.49686647  0.16671480  1
  Ti4+  Ti22  1  0.83304603  0.50163129  0.49848828  1
  Ti4+  Ti23  1  0.82960324  0.50024780  0.83282495  1
  Ti4+  Ti24  1  0.83557128  0.83248143  0.16487387  1
  Ti4+  Ti25  1  0.83568679  0.83245370  0.49579095  1
  Ti4+  Ti26  1  0.83508261  0.83515548  0.82839090  1
  Cu+  Cu27  1  0.17133934  0.16384742  0.00451589  1
  Cu+  Cu28  1  0.16322490  0.16580742  0.33261914  1
  Cu+  Cu29  1  0.17207262  0.17433088  0.66979561  1
  Cu+  Cu30  1  0.16536123  0.50100198  0.00056316  1
  Cu+  Cu31  1  0.16360214  0.49935172  0.33519171  1
  Cu+  Cu32  1  0.16528170  0.49962920  0.67068145  1
  Cu+  Cu33  1  0.16643846  0.83455545  0.00017619  1
  Cu+  Cu34  1  0.16878299  0.83378170  0.33622741  1
  Cu+  Cu35  1  0.16740411  0.83058837  0.66798761  1
  Cu+  Cu36  1  0.49795223  0.16466735  -0.00570804  1
  Cu+  Cu37  1  0.49765992  0.17149588  0.33459511  1
  Cu+  Cu38  1  0.49873673  0.16179780  0.65962476  1
  Cu+  Cu39  1  0.50903270  0.49790367  0.00157985  1
  Cu+  Cu40  1  0.49491036  0.49932756  0.32774545  1
  Cu+  Cu41  1  0.50475008  0.49978070  0.66417678  1
  Cu+  Cu42  1  0.50202418  0.83303374  0.00405472  1
  Cu+  Cu43  1  0.50023820  0.83473760  0.33524856  1
  Cu+  Cu44  1  0.49595461  0.82587019  0.66926113  1
  Cu+  Cu45  1  0.83500063  0.16413461  0.00304065  1
  Cu+  Cu46  1  0.83056621  0.16636533  0.33581524  1
  Cu+  Cu47  1  0.82997566  0.17296998  0.66901960  1
  Cu+  Cu48  1  0.82723458  0.49452654  -0.00099290  1
  Cu+  Cu49  1  0.83399081  0.50218976  0.33254135  1
  Cu+  Cu50  1  0.83290163  0.50396836  0.66613262  1
  Cu+  Cu51  1  0.83520633  0.83564166  -0.00453627  1
  Cu+  Cu52  1  0.83701343  0.83237504  0.32793022  1
  Cu+  Cu53  1  0.83714974  0.83446451  0.66231393  1
  Cu+  Cu54  1  0.16910240  0.00450107  0.16619523  1
  Cu+  Cu55  1  0.16571487  -0.00649316  0.50022712  1
  Cu+  Cu56  1  0.17014973  0.00144833  0.83478649  1
  Cu+  Cu57  1  0.16391886  0.33375831  0.16725964  1
  Cu+  Cu58  1  0.16757615  0.33387780  0.50655743  1
  Cu+  Cu59  1  0.16454188  0.33559874  0.83609179  1
  Cu+  Cu60  1  0.16537381  0.66904354  0.16692202  1
  Cu+  Cu61  1  0.16673375  0.66452829  0.50217976  1
  Cu+  Cu62  1  0.16597397  0.66659300  0.83562847  1
  Cu+  Cu63  1  0.49828166  -0.00093703  0.16885834  1
  Cu+  Cu64  1  0.50398236  0.00313979  0.50323475  1
  Cu+  Cu65  1  0.50123681  -0.00573824  0.82956471  1
  Cu+  Cu66  1  0.49677343  0.33545458  0.16791773  1
  Cu+  Cu67  1  0.49618342  0.33377009  0.49192485  1
  Cu+  Cu68  1  0.49845031  0.32933134  0.82952638  1
  Cu+  Cu69  1  0.49930621  0.67159142  0.16735201  1
  Cu+  Cu70  1  0.50147836  0.66634076  0.50476212  1
  Cu+  Cu71  1  0.50641552  0.66066672  0.83599052  1
  Cu+  Cu72  1  0.83341292  -0.00089617  0.16685857  1
  Cu+  Cu73  1  0.83671391  0.00318612  0.49769346  1
  Cu+  Cu74  1  0.84024725  -0.00036492  0.83322582  1
  Cu+  Cu75  1  0.83273169  0.32965708  0.16901195  1
  Cu+  Cu76  1  0.83490605  0.33467098  0.49611434  1
  Cu+  Cu77  1  0.82649695  0.33391805  0.82936309  1
  Cu+  Cu78  1  0.83496122  0.66198319  0.16585992  1
  Cu+  Cu79  1  0.83296889  0.66564369  0.49679562  1
  Cu+  Cu80  1  0.82873107  0.67227048  0.83190533  1
  Cu+  Cu81  1  0.00173291  0.16899177  0.16851482  1
  Cu+  Cu82  1  -0.00673981  0.16553487  0.50510147  1
  Cu+  Cu83  1  0.00753708  0.17022265  0.83357206  1
  Cu+  Cu84  1  -0.00112883  0.50100744  0.16865520  1
  Cu+  Cu85  1  -0.00157934  0.49806197  0.50142549  1
  Cu+  Cu86  1  -0.00321703  0.50177095  0.83421098  1
  Cu+  Cu87  1  0.00011490  0.83611351  0.16768212  1
  Cu+  Cu88  1  0.00636003  0.83304172  0.49710961  1
  Cu+  Cu89  1  0.00003128  0.83851752  0.83299900  1
  Cu+  Cu90  1  0.32905356  0.16494035  0.16470548  1
  Cu+  Cu91  1  0.33351031  0.17363696  0.50607354  1
  Cu+  Cu92  1  0.33158508  0.16078450  0.82712722  1
  Cu+  Cu93  1  0.33210566  0.50227047  0.16659715  1
  Cu+  Cu94  1  0.32996481  0.49902220  0.49854844  1
  Cu+  Cu95  1  0.33456942  0.49808126  0.83270236  1
  Cu+  Cu96  1  0.33472019  0.83559576  0.16937894  1
  Cu+  Cu97  1  0.33449836  0.82755138  0.50709890  1
  Cu+  Cu98  1  0.33621144  0.83091555  0.83303891  1
  Cu+  Cu99  1  0.66419490  0.16438533  0.16795819  1
  Cu+  Cu100  1  0.66962521  0.17391537  0.49639645  1
  Cu+  Cu101  1  0.66591375  0.16617687  0.82944547  1
  Cu+  Cu102  1  0.66236187  0.49659289  0.16157297  1
  Cu+  Cu103  1  0.66306750  0.50653590  0.49550341  1
  Cu+  Cu104  1  0.66734164  0.49704858  0.84131016  1
  Cu+  Cu105  1  0.66530354  0.83192347  0.16436251  1
  Cu+  Cu106  1  0.66895044  0.83227074  0.49802198  1
  Cu+  Cu107  1  0.67067471  0.82847276  0.83202797  1
  Cu+  Cu108  1  0.73341163  0.26197757  0.74102752  1
  Cu+  Cu109  1  0.92423215  0.07827294  0.40740180  1
  Cu+  Cu110  1  0.58818210  0.39913238  0.07625136  1
  Cu+  Cu111  1  0.40553313  0.07314798  0.58025765  1
  Cu+  Cu112  1  0.40871926  0.92037363  0.74230038  1
  Cu+  Cu113  1  0.40119169  0.40978668  0.25310875  1
  Cu+  Cu114  1  0.92919842  0.59209645  0.25762362  1
  Cu+  Cu115  1  0.74342538  0.39893227  0.92790810  1
  Cu+  Cu116  1  0.92517274  0.92811540  0.25481426  1
  Cu+  Cu117  1  0.40408169  0.73239614  0.59693774  1
  Cu+  Cu118  1  0.26509136  0.26676411  0.59864509  1
  Cu+  Cu119  1  0.74222283  0.26275760  0.40276874  1
  Cu+  Cu120  1  0.08098656  0.92331394  0.40633105  1
  Cu+  Cu121  1  0.92976023  0.92843156  0.92510917  1
  Cu+  Cu122  1  0.92763892  0.59590976  0.59441433  1
  Cu+  Cu123  1  0.39996310  0.25474609  0.40479295  1
  Cu+  Cu124  1  0.07866299  0.26461020  0.74418113  1
  Cu+  Cu125  1  0.59264639  0.59356960  0.59490630  1
  Cu+  Cu126  1  0.92023145  0.26157271  0.59556886  1
  Cu+  Cu127  1  0.59309133  0.59338587  0.93207785  1
  Cu+  Cu128  1  0.24829294  0.07011210  0.73671093  1
  Cu+  Cu129  1  0.26247947  0.07077439  0.07452057  1
  Cu+  Cu130  1  0.74463765  0.74676752  0.92838135  1
  Cu+  Cu131  1  0.73630304  0.59667440  0.40274765  1
  Cu+  Cu132  1  0.92882662  0.40964123  0.40468478  1
  Te2-  Te133  1  0.25140255  0.25594026  0.08247746  1
  Te2-  Te134  1  0.24793803  0.25262538  0.41421851  1
  Te2-  Te135  1  0.25790379  0.26067498  0.75117056  1
  Te2-  Te136  1  0.25037471  0.58687404  0.08185282  1
  Te2-  Te137  1  0.24941387  0.58414991  0.41519298  1
  Te2-  Te138  1  0.25176772  0.58536819  0.75046915  1
  Te2-  Te139  1  0.25433456  0.91902874  0.08062797  1
  Te2-  Te140  1  0.25750426  0.91540103  0.41857886  1
  Te2-  Te141  1  0.25482245  0.91790244  0.74492046  1
  Te2-  Te142  1  0.58283286  0.24861252  0.07996345  1
  Te2-  Te143  1  0.58744817  0.25717425  0.40997633  1
  Te2-  Te144  1  0.58280742  0.25043471  0.74187724  1
  Te2-  Te145  1  0.58786595  0.59258572  0.08331846  1
  Te2-  Te146  1  0.58028208  0.58911237  0.40675505  1
  Te2-  Te147  1  0.59177216  0.58295460  0.74791434  1
  Te2-  Te148  1  0.58569588  0.92107135  0.08254256  1
  Te2-  Te149  1  0.58458105  0.91910682  0.41770940  1
  Te2-  Te150  1  0.58751953  0.91154654  0.74625152  1
  Te2-  Te151  1  0.91856745  0.25133405  0.08301749  1
  Te2-  Te152  1  0.92242911  0.25339669  0.41097630  1
  Te2-  Te153  1  0.92286549  0.25754439  0.74919622  1
  Te2-  Te154  1  0.91562573  0.57910437  0.07765405  1
  Te2-  Te155  1  0.92330623  0.58752313  0.41247218  1
  Te2-  Te156  1  0.91661377  0.58921931  0.74988052  1
  Te2-  Te157  1  0.92044866  0.92109272  0.07844119  1
  Te2-  Te158  1  0.92408121  0.92118835  0.41029401  1
  Te2-  Te159  1  0.92184802  0.92072620  0.74215452  1
  Te2-  Te160  1  0.25247363  0.08169300  0.25669527  1
  Te2-  Te161  1  0.25170437  0.07694045  0.58539225  1
  Te2-  Te162  1  0.25671309  0.07909956  0.92115271  1
  Te2-  Te163  1  0.24930016  0.41439119  0.25313039  1
  Te2-  Te164  1  0.25338678  0.41694101  0.59016201  1
  Te2-  Te165  1  0.25187745  0.41582068  0.91991668  1
  Te2-  Te166  1  0.25137836  0.74996062  0.25200673  1
  Te2-  Te167  1  0.25173461  0.74144003  0.59150905  1
  Te2-  Te168  1  0.25226289  0.74869274  0.91949121  1
  Te2-  Te169  1  0.58064881  0.08288025  0.25431662  1
  Te2-  Te170  1  0.59322049  0.08540218  0.58210534  1
  Te2-  Te171  1  0.58467363  0.07897841  0.91400217  1
  Te2-  Te172  1  0.58555793  0.41456744  0.25283910  1
  Te2-  Te173  1  0.58473778  0.41377156  0.57756640  1
  Te2-  Te174  1  0.58767655  0.40243087  0.92014419  1
  Te2-  Te175  1  0.58567366  0.74960220  0.25375479  1
  Te2-  Te176  1  0.59082117  0.74787746  0.58842290  1
  Te2-  Te177  1  0.58922320  0.74646830  0.92401014  1
  Te2-  Te178  1  0.92182418  0.08152390  0.25412621  1
  Te2-  Te179  1  0.91411402  0.08147637  0.59189274  1
  Te2-  Te180  1  0.92389216  0.08463880  0.91890604  1
  Te2-  Te181  1  0.91910912  0.41077566  0.25227953  1
  Te2-  Te182  1  0.91718174  0.41440696  0.58901392  1
  Te2-  Te183  1  0.91499957  0.41309358  0.91602801  1
  Te2-  Te184  1  0.92215984  0.74428871  0.25055085  1
  Te2-  Te185  1  0.92199465  0.74825339  0.58171606  1
  Te2-  Te186  1  0.92077284  0.74812078  0.91568084  1
  Te2-  Te187  1  0.08004095  0.25425101  0.25469120  1
  Te2-  Te188  1  0.07643053  0.25450809  0.58908532  1
  Te2-  Te189  1  0.08609796  0.25108742  0.92495238  1
  Te2-  Te190  1  0.08110075  0.58800703  0.25444475  1
  Te2-  Te191  1  0.07993453  0.58513952  0.58869106  1
  Te2-  Te192  1  0.07890929  0.58595588  0.91989781  1
  Te2-  Te193  1  0.08198597  0.92457782  0.25375978  1
  Te2-  Te194  1  0.08151550  0.91630672  0.58951579  1
  Te2-  Te195  1  0.08332691  0.92301225  0.92003770  1
  Te2-  Te196  1  0.40710298  0.25400580  0.25171721  1
  Te2-  Te197  1  0.41749902  0.26061552  0.59006871  1
  Te2-  Te198  1  0.41260430  0.24780662  0.91272146  1
  Te2-  Te199  1  0.41291192  0.59013961  0.25004000  1
  Te2-  Te200  1  0.41161369  0.58148841  0.58643408  1
  Te2-  Te201  1  0.41830514  0.57975345  0.92032576  1
  Te2-  Te202  1  0.41395110  0.91997750  0.25580203  1
  Te2-  Te203  1  0.41330427  0.92059574  0.58837630  1
  Te2-  Te204  1  0.41744381  0.91556075  0.91949708  1
  Te2-  Te205  1  0.74408434  0.25189448  0.25243220  1
  Te2-  Te206  1  0.74560707  0.25940865  0.58609946  1
  Te2-  Te207  1  0.74627933  0.24736444  0.92165587  1
  Te2-  Te208  1  0.74249785  0.58376861  0.24929060  1
  Te2-  Te209  1  0.74594624  0.58851124  0.58560210  1
  Te2-  Te210  1  0.74689167  0.59002754  0.92302653  1
  Te2-  Te211  1  0.74745735  0.91618388  0.25002226  1
  Te2-  Te212  1  0.75216529  0.91859742  0.58030629  1
  Te2-  Te213  1  0.74763307  0.92106227  0.91488776  1
  Te2-  Te214  1  0.07966957  0.08255651  0.08246165  1
  Te2-  Te215  1  0.07977857  0.08168995  0.41729489  1
  Te2-  Te216  1  0.08569830  0.08228153  0.74667752  1
  Te2-  Te217  1  0.07944285  0.41605347  0.08237870  1
  Te2-  Te218  1  0.08116890  0.41056603  0.41558493  1
  Te2-  Te219  1  0.07687494  0.41591683  0.74855032  1
  Te2-  Te220  1  0.08075332  0.75078036  0.08189978  1
  Te2-  Te221  1  0.08454920  0.74434297  0.41416573  1
  Te2-  Te222  1  0.08087646  0.74917450  0.75119037  1
  Te2-  Te223  1  0.41515182  0.07957686  0.07988214  1
  Te2-  Te224  1  0.41327939  0.08366296  0.41812416  1
  Te2-  Te225  1  0.41193704  0.07508473  0.74039850  1
  Te2-  Te226  1  0.41369608  0.41728528  0.07846897  1
  Te2-  Te227  1  0.40774588  0.41439606  0.41008319  1
  Te2-  Te228  1  0.41778999  0.41598289  0.74582081  1
  Te2-  Te229  1  0.41313252  0.74994562  0.08222831  1
  Te2-  Te230  1  0.41658556  0.74719563  0.41678749  1
  Te2-  Te231  1  0.41407446  0.73676616  0.75217945  1
  Te2-  Te232  1  0.74736417  0.08030361  0.08287507  1
  Te2-  Te233  1  0.74541612  0.07998668  0.41563243  1
  Te2-  Te234  1  0.75153056  0.07954224  0.74879742  1
  Te2-  Te235  1  0.74448999  0.40648835  0.08157515  1
  Te2-  Te236  1  0.74437446  0.41620801  0.41229827  1
  Te2-  Te237  1  0.74269078  0.41763358  0.74256680  1
  Te2-  Te238  1  0.74925244  0.74637907  0.08066602  1
  Te2-  Te239  1  0.74849231  0.74874495  0.40918290  1
  Te2-  Te240  1  0.74949534  0.74955841  0.73959415  1
