# generated using pymatgen
data_Ti27(Cu53Te54)2
_symmetry_space_group_name_H-M   'P 1'
_cell_length_a   17.90696196
_cell_length_b   17.92059809
_cell_length_c   17.91853886
_cell_angle_alpha   90.03113965
_cell_angle_beta   90.00785823
_cell_angle_gamma   89.98929342
_symmetry_Int_Tables_number   1
_chemical_formula_structural   Ti27(Cu53Te54)2
_chemical_formula_sum   'Ti27 Cu106 Te108'
_cell_volume   5750.12026499
_cell_formula_units_Z   1
loop_
 _symmetry_equiv_pos_site_id
 _symmetry_equiv_pos_as_xyz
  1  'x, y, z'
loop_
 _atom_type_symbol
 _atom_type_oxidation_number
  Ti4+  4.0
  Cu+  1.0
  Te2-  -2.0
loop_
 _atom_site_type_symbol
 _atom_site_label
 _atom_site_symmetry_multiplicity
 _atom_site_fract_x
 _atom_site_fract_y
 _atom_site_fract_z
 _atom_site_occupancy
  Ti4+  Ti0  1  0.16382971  0.16167246  0.16743690  1
  Ti4+  Ti1  1  0.17503897  0.16998530  0.50263643  1
  Ti4+  Ti2  1  0.16135440  0.16341299  0.83508583  1
  Ti4+  Ti3  1  0.16575918  0.50162539  0.16448571  1
  Ti4+  Ti4  1  0.17027194  0.50245741  0.50172406  1
  Ti4+  Ti5  1  0.16727468  0.49760290  0.83596684  1
  Ti4+  Ti6  1  0.16871227  0.83524737  0.16415317  1
  Ti4+  Ti7  1  0.17026744  0.83481926  0.50012152  1
  Ti4+  Ti8  1  0.16264576  0.83570934  0.83499008  1
  Ti4+  Ti9  1  0.50085920  0.16961285  0.16471293  1
  Ti4+  Ti10  1  0.49630721  0.16398351  0.49827275  1
  Ti4+  Ti11  1  0.50275840  0.16558360  0.83607109  1
  Ti4+  Ti12  1  0.49668314  0.50291286  0.16599016  1
  Ti4+  Ti13  1  0.49758095  0.50007200  0.49965071  1
  Ti4+  Ti14  1  0.49763271  0.49833549  0.83331223  1
  Ti4+  Ti15  1  0.50245981  0.83392972  0.16385409  1
  Ti4+  Ti16  1  0.49779089  0.83304602  0.50339239  1
  Ti4+  Ti17  1  0.49943149  0.83178382  0.83270111  1
  Ti4+  Ti18  1  0.83206895  0.16753928  0.16954453  1
  Ti4+  Ti19  1  0.83424606  0.16644980  0.50077909  1
  Ti4+  Ti20  1  0.83410342  0.16950087  0.83192304  1
  Ti4+  Ti21  1  0.83263642  0.50000893  0.16761671  1
  Ti4+  Ti22  1  0.83495756  0.50020987  0.49925903  1
  Ti4+  Ti23  1  0.83378548  0.49958527  0.83326335  1
  Ti4+  Ti24  1  0.83296809  0.83039529  0.16881394  1
  Ti4+  Ti25  1  0.83317941  0.83321233  0.49975961  1
  Ti4+  Ti26  1  0.83277773  0.83177958  0.83143684  1
  Cu+  Cu27  1  0.16012945  0.15640015  0.00035683  1
  Cu+  Cu28  1  0.17744307  0.16992742  0.33150979  1
  Cu+  Cu29  1  0.15973913  0.16680229  0.66711831  1
  Cu+  Cu30  1  0.16498145  0.49564866  -0.00108567  1
  Cu+  Cu31  1  0.16732322  0.50187459  0.33186960  1
  Cu+  Cu32  1  0.16938727  0.50354976  0.66961490  1
  Cu+  Cu33  1  0.16441417  0.84207400  -0.00014533  1
  Cu+  Cu34  1  0.16947498  0.83214706  0.32963229  1
  Cu+  Cu35  1  0.16780769  0.83710754  0.66892596  1
  Cu+  Cu36  1  0.50692321  0.16509680  0.00293980  1
  Cu+  Cu37  1  0.49349387  0.16471988  0.32752283  1
  Cu+  Cu38  1  0.50063752  0.16578988  0.67061068  1
  Cu+  Cu39  1  0.49435997  0.50059055  -0.00036105  1
  Cu+  Cu40  1  0.49776386  0.50767301  0.33268497  1
  Cu+  Cu41  1  0.49850113  0.49452042  0.66616008  1
  Cu+  Cu42  1  0.50574246  0.83538122  -0.00429801  1
  Cu+  Cu43  1  0.50220644  0.83330362  0.33316457  1
  Cu+  Cu44  1  0.49802873  0.82657459  0.66866809  1
  Cu+  Cu45  1  0.83068334  0.17312513  0.00347722  1
  Cu+  Cu46  1  0.83240365  0.16695990  0.33650589  1
  Cu+  Cu47  1  0.83711772  0.16721263  0.66604511  1
  Cu+  Cu48  1  0.83200992  0.50043445  0.00023632  1
  Cu+  Cu49  1  0.83567654  0.50162561  0.33354454  1
  Cu+  Cu50  1  0.83509328  0.50000513  0.66605456  1
  Cu+  Cu51  1  0.83240134  0.82893216  0.00011459  1
  Cu+  Cu52  1  0.83223416  0.83182301  0.33553384  1
  Cu+  Cu53  1  0.83148071  0.83130617  0.66343911  1
  Cu+  Cu54  1  0.16403342  -0.00242181  0.15689160  1
  Cu+  Cu55  1  0.17738209  0.00023275  0.50676730  1
  Cu+  Cu56  1  0.16126199  -0.00076049  0.84342623  1
  Cu+  Cu57  1  0.16283917  0.32971851  0.16717732  1
  Cu+  Cu58  1  0.17737199  0.34114125  0.49638698  1
  Cu+  Cu59  1  0.15894613  0.33175819  0.83622723  1
  Cu+  Cu60  1  0.16833459  0.66981658  0.16404627  1
  Cu+  Cu61  1  0.16803158  0.66797814  0.50079505  1
  Cu+  Cu62  1  0.16610550  0.66738039  0.83314877  1
  Cu+  Cu63  1  0.50533445  0.00331914  0.16455304  1
  Cu+  Cu64  1  0.49266751  -0.00267202  0.49977692  1
  Cu+  Cu65  1  0.50575655  -0.00325955  0.83566322  1
  Cu+  Cu66  1  0.50153559  0.33891588  0.16760600  1
  Cu+  Cu67  1  0.49467510  0.33234428  0.50017827  1
  Cu+  Cu68  1  0.49994512  0.33169043  0.83743824  1
  Cu+  Cu69  1  0.49749044  0.66778412  0.16262548  1
  Cu+  Cu70  1  0.49424991  0.66737760  0.50220338  1
  Cu+  Cu71  1  0.49964157  0.66468570  0.83046539  1
  Cu+  Cu72  1  0.83186151  -0.00163212  0.17136027  1
  Cu+  Cu73  1  0.83361392  -0.00184299  0.49980338  1
  Cu+  Cu74  1  0.83349227  0.00030187  0.82989955  1
  Cu+  Cu75  1  0.82919308  0.33370985  0.16648325  1
  Cu+  Cu76  1  0.83459062  0.33329740  0.50041809  1
  Cu+  Cu77  1  0.83449722  0.33611616  0.83240860  1
  Cu+  Cu78  1  0.83614096  0.66424431  0.17114753  1
  Cu+  Cu79  1  0.83324382  0.66692333  0.49925529  1
  Cu+  Cu80  1  0.83302659  0.66462287  0.83162898  1
  Cu+  Cu81  1  -0.00485377  0.16480246  0.17297785  1
  Cu+  Cu82  1  0.00471175  0.17017479  0.50306397  1
  Cu+  Cu83  1  -0.00188085  0.16434564  0.82789418  1
  Cu+  Cu84  1  -0.00246097  0.50258974  0.16944862  1
  Cu+  Cu85  1  0.00333110  0.50143716  0.50158427  1
  Cu+  Cu86  1  -0.00041165  0.49796286  0.83653346  1
  Cu+  Cu87  1  -0.00047170  0.83250985  0.16732389  1
  Cu+  Cu88  1  -0.00058636  0.83344183  0.49806453  1
  Cu+  Cu89  1  -0.00352182  0.83055403  0.83026431  1
  Cu+  Cu90  1  0.32960949  0.16486256  0.16881472  1
  Cu+  Cu91  1  0.33726854  0.16320560  0.49661668  1
  Cu+  Cu92  1  0.33401460  0.16715848  0.83429957  1
  Cu+  Cu93  1  0.33357483  0.50658647  0.16142296  1
  Cu+  Cu94  1  0.33526717  0.49935999  0.49824300  1
  Cu+  Cu95  1  0.33369984  0.49335528  0.83737554  1
  Cu+  Cu96  1  0.33555358  0.83288364  0.16416809  1
  Cu+  Cu97  1  0.33497413  0.83600201  0.50552157  1
  Cu+  Cu98  1  0.33148150  0.83492032  0.83416162  1
  Cu+  Cu99  1  0.66989466  0.17344013  0.16114473  1
  Cu+  Cu100  1  0.66503768  0.16664648  0.50045852  1
  Cu+  Cu101  1  0.66833754  0.16842859  0.83439580  1
  Cu+  Cu102  1  0.66368920  0.50080511  0.16753634  1
  Cu+  Cu103  1  0.66729462  0.49983626  0.49895148  1
  Cu+  Cu104  1  0.66591627  0.49994221  0.83180357  1
  Cu+  Cu105  1  0.66860057  0.83004916  0.16692797  1
  Cu+  Cu106  1  0.66618031  0.83285315  0.50155383  1
  Cu+  Cu107  1  0.66774844  0.83173788  0.83179501  1
  Cu+  Cu108  1  0.40648669  0.07048412  0.24748910  1
  Cu+  Cu109  1  0.41814347  0.26199640  0.40084506  1
  Cu+  Cu110  1  0.40641180  0.73678779  0.59827609  1
  Cu+  Cu111  1  0.06780242  0.40873522  0.92974100  1
  Cu+  Cu112  1  0.06312304  0.07369159  0.92680477  1
  Cu+  Cu113  1  0.40856441  0.40378808  0.59479115  1
  Cu+  Cu114  1  0.74111052  0.26715997  0.07071887  1
  Cu+  Cu115  1  0.07411444  0.07210420  0.58184707  1
  Cu+  Cu116  1  0.25435046  0.07156962  0.40661817  1
  Cu+  Cu117  1  0.40993153  0.40124952  0.93029509  1
  Cu+  Cu118  1  0.40745565  0.59616787  0.40657974  1
  Cu+  Cu119  1  0.06455121  0.92037106  0.07489827  1
  Cu+  Cu120  1  0.92776917  0.59308284  0.26392441  1
  Cu+  Cu121  1  0.60035181  0.92271838  0.92129375  1
  Cu+  Cu122  1  0.26280919  0.92252941  0.92652701  1
  Cu+  Cu123  1  0.40684973  0.59923933  0.06756201  1
  Cu+  Cu124  1  0.26156176  0.41953566  0.40006331  1
  Cu+  Cu125  1  0.40944348  0.91836277  0.40385605  1
  Cu+  Cu126  1  0.25846547  0.26371681  0.24899671  1
  Cu+  Cu127  1  0.07311013  0.26437446  0.73704184  1
  Cu+  Cu128  1  0.91962332  0.06863664  0.73681239  1
  Cu+  Cu129  1  0.26056127  0.92436278  0.60005229  1
  Cu+  Cu130  1  0.60023228  0.07535458  0.07820234  1
  Cu+  Cu131  1  0.41847139  0.07186096  0.60147108  1
  Cu+  Cu132  1  0.26031220  0.07809935  0.07182421  1
  Te2-  Te133  1  0.24643804  0.24734969  0.07847948  1
  Te2-  Te134  1  0.26177040  0.25873428  0.41098776  1
  Te2-  Te135  1  0.24775553  0.24970130  0.75172019  1
  Te2-  Te136  1  0.24882952  0.58738271  0.07588661  1
  Te2-  Te137  1  0.25390044  0.58986746  0.41242905  1
  Te2-  Te138  1  0.25447720  0.58404523  0.75389415  1
  Te2-  Te139  1  0.26083027  0.92259055  0.07788921  1
  Te2-  Te140  1  0.25623567  0.91893209  0.40887501  1
  Te2-  Te141  1  0.25025743  0.92459683  0.75212139  1
  Te2-  Te142  1  0.58515719  0.26033427  0.07955960  1
  Te2-  Te143  1  0.58128411  0.24975781  0.41284443  1
  Te2-  Te144  1  0.58452271  0.25170753  0.75011413  1
  Te2-  Te145  1  0.58411103  0.58484895  0.07948919  1
  Te2-  Te146  1  0.58389407  0.58797974  0.41791903  1
  Te2-  Te147  1  0.58260574  0.58170665  0.74574923  1
  Te2-  Te148  1  0.59190390  0.91942402  0.07985862  1
  Te2-  Te149  1  0.58405612  0.91879257  0.41786980  1
  Te2-  Te150  1  0.58502316  0.91510011  0.74465078  1
  Te2-  Te151  1  0.92019794  0.25293385  0.08559910  1
  Te2-  Te152  1  0.92080362  0.25075244  0.41665932  1
  Te2-  Te153  1  0.92005980  0.25707632  0.74545102  1
  Te2-  Te154  1  0.91787419  0.58495081  0.08042970  1
  Te2-  Te155  1  0.92270300  0.58763459  0.41568727  1
  Te2-  Te156  1  0.92081263  0.58356082  0.74893715  1
  Te2-  Te157  1  0.91438016  0.91843158  0.08129833  1
  Te2-  Te158  1  0.91870660  0.91868325  0.41354629  1
  Te2-  Te159  1  0.91848110  0.91648636  0.74349379  1
  Te2-  Te160  1  0.25143175  0.07017717  0.25243562  1
  Te2-  Te161  1  0.26010175  0.08388952  0.59534810  1
  Te2-  Te162  1  0.25638012  0.07928879  0.91979452  1
  Te2-  Te163  1  0.25527453  0.41584618  0.24811941  1
  Te2-  Te164  1  0.25595029  0.41664096  0.59140478  1
  Te2-  Te165  1  0.25170382  0.40723503  0.92166339  1
  Te2-  Te166  1  0.25464028  0.74876757  0.24848304  1
  Te2-  Te167  1  0.25247053  0.74694423  0.58915855  1
  Te2-  Te168  1  0.24829172  0.75062120  0.92035787  1
  Te2-  Te169  1  0.58936707  0.08688773  0.25075132  1
  Te2-  Te170  1  0.58257075  0.07964839  0.58380459  1
  Te2-  Te171  1  0.59266715  0.07902792  0.92115468  1
  Te2-  Te172  1  0.58249508  0.41991864  0.25488729  1
  Te2-  Te173  1  0.58455548  0.41248045  0.58163322  1
  Te2-  Te174  1  0.58510989  0.41658447  0.92014322  1
  Te2-  Te175  1  0.58309746  0.74725564  0.25009473  1
  Te2-  Te176  1  0.58504193  0.74588708  0.58525486  1
  Te2-  Te177  1  0.58590919  0.74443998  0.91559928  1
  Te2-  Te178  1  0.91504188  0.07990972  0.25648261  1
  Te2-  Te179  1  0.92252695  0.07741227  0.58535119  1
  Te2-  Te180  1  0.91360638  0.08260858  0.92207589  1
  Te2-  Te181  1  0.91771519  0.41236770  0.25166864  1
  Te2-  Te182  1  0.92052369  0.41529675  0.58439978  1
  Te2-  Te183  1  0.91748400  0.41243691  0.92281964  1
  Te2-  Te184  1  0.92189681  0.74811187  0.25591483  1
  Te2-  Te185  1  0.91972847  0.74745467  0.58418480  1
  Te2-  Te186  1  0.91720613  0.74612227  0.91690514  1
  Te2-  Te187  1  0.08095614  0.24795175  0.25548207  1
  Te2-  Te188  1  0.08704204  0.26088702  0.58187612  1
  Te2-  Te189  1  0.07536831  0.24813617  0.92358318  1
  Te2-  Te190  1  0.08359877  0.58878252  0.25164473  1
  Te2-  Te191  1  0.08440523  0.58667301  0.58671273  1
  Te2-  Te192  1  0.08200902  0.58571184  0.91942791  1
  Te2-  Te193  1  0.08314556  0.91912123  0.25123766  1
  Te2-  Te194  1  0.08084684  0.91907325  0.58444182  1
  Te2-  Te195  1  0.06763833  0.91949954  0.92071749  1
  Te2-  Te196  1  0.41142368  0.25951008  0.24919978  1
  Te2-  Te197  1  0.41163073  0.24985846  0.58962336  1
  Te2-  Te198  1  0.41501341  0.24807207  0.92370007  1
  Te2-  Te199  1  0.41035840  0.59139551  0.25160922  1
  Te2-  Te200  1  0.41124987  0.58436543  0.59020760  1
  Te2-  Te201  1  0.41086462  0.58874672  0.91638341  1
  Te2-  Te202  1  0.41513618  0.91968949  0.24967459  1
  Te2-  Te203  1  0.41270877  0.92131200  0.59683272  1
  Te2-  Te204  1  0.41508179  0.92018578  0.91991322  1
  Te2-  Te205  1  0.74708350  0.25290940  0.25601924  1
  Te2-  Te206  1  0.74855663  0.25118711  0.58518548  1
  Te2-  Te207  1  0.74738117  0.25653499  0.91719523  1
  Te2-  Te208  1  0.74570359  0.58433896  0.25314805  1
  Te2-  Te209  1  0.74890335  0.58453893  0.58450304  1
  Te2-  Te210  1  0.74734906  0.58467622  0.91749766  1
  Te2-  Te211  1  0.74678971  0.91545372  0.25368599  1
  Te2-  Te212  1  0.74713325  0.91901809  0.58521878  1
  Te2-  Te213  1  0.75034539  0.91941776  0.91903960  1
  Te2-  Te214  1  0.06820645  0.07778576  0.08220980  1
  Te2-  Te215  1  0.09003153  0.08395167  0.41723129  1
  Te2-  Te216  1  0.07860619  0.07276724  0.74475310  1
  Te2-  Te217  1  0.07805988  0.41311883  0.08454382  1
  Te2-  Te218  1  0.08397633  0.41683745  0.41520556  1
  Te2-  Te219  1  0.08008914  0.41656485  0.74513752  1
  Te2-  Te220  1  0.08232909  0.75012435  0.07905301  1
  Te2-  Te221  1  0.08538009  0.75057573  0.41499326  1
  Te2-  Te222  1  0.08238645  0.74899459  0.74682055  1
  Te2-  Te223  1  0.41395211  0.08122439  0.07900639  1
  Te2-  Te224  1  0.40933446  0.07375495  0.40549167  1
  Te2-  Te225  1  0.41568485  0.07792108  0.75368010  1
  Te2-  Te226  1  0.41051283  0.41163435  0.08213723  1
  Te2-  Te227  1  0.41344198  0.41352677  0.40599863  1
  Te2-  Te228  1  0.41277827  0.40855658  0.74842156  1
  Te2-  Te229  1  0.41568553  0.75178944  0.07504550  1
  Te2-  Te230  1  0.41116913  0.74961487  0.41218463  1
  Te2-  Te231  1  0.40889357  0.74512120  0.75074518  1
  Te2-  Te232  1  0.75043549  0.07816718  0.08057651  1
  Te2-  Te233  1  0.74762072  0.08139566  0.41729812  1
  Te2-  Te234  1  0.74763953  0.08413518  0.74666685  1
  Te2-  Te235  1  0.74388463  0.41719302  0.08016939  1
  Te2-  Te236  1  0.74975315  0.41501439  0.41408646  1
  Te2-  Te237  1  0.74831308  0.41539147  0.74673446  1
  Te2-  Te238  1  0.74980852  0.74364571  0.08352016  1
  Te2-  Te239  1  0.74617108  0.74738515  0.41574522  1
  Te2-  Te240  1  0.74806487  0.74645087  0.74663250  1
