# generated using pymatgen
data_Ti27(Cu53Te54)2
_symmetry_space_group_name_H-M   'P 1'
_cell_length_a   17.88320231
_cell_length_b   17.88217331
_cell_length_c   17.88236642
_cell_angle_alpha   90.01451725
_cell_angle_beta   89.99981696
_cell_angle_gamma   90.04064411
_symmetry_Int_Tables_number   1
_chemical_formula_structural   Ti27(Cu53Te54)2
_chemical_formula_sum   'Ti27 Cu106 Te108'
_cell_volume   5718.60968842
_cell_formula_units_Z   1
loop_
 _symmetry_equiv_pos_site_id
 _symmetry_equiv_pos_as_xyz
  1  'x, y, z'
loop_
 _atom_type_symbol
 _atom_type_oxidation_number
  Ti4+  4.0
  Cu+  1.0
  Te2-  -2.0
loop_
 _atom_site_type_symbol
 _atom_site_label
 _atom_site_symmetry_multiplicity
 _atom_site_fract_x
 _atom_site_fract_y
 _atom_site_fract_z
 _atom_site_occupancy
  Ti4+  Ti0  1  0.16466945  0.16395714  0.16878517  1
  Ti4+  Ti1  1  0.16670809  0.16992535  0.50084203  1
  Ti4+  Ti2  1  0.16499348  0.16657832  0.83352882  1
  Ti4+  Ti3  1  0.16507344  0.50145946  0.16797814  1
  Ti4+  Ti4  1  0.16595683  0.50253382  0.50188653  1
  Ti4+  Ti5  1  0.16843667  0.50132464  0.83377937  1
  Ti4+  Ti6  1  0.17114588  0.83407271  0.16479241  1
  Ti4+  Ti7  1  0.16764470  0.83240798  0.49997160  1
  Ti4+  Ti8  1  0.16566330  0.83438852  0.83120414  1
  Ti4+  Ti9  1  0.49772622  0.16874514  0.16508496  1
  Ti4+  Ti10  1  0.49679740  0.16498018  0.49734278  1
  Ti4+  Ti11  1  0.49718425  0.16700363  0.83097714  1
  Ti4+  Ti12  1  0.49964016  0.50068304  0.16510126  1
  Ti4+  Ti13  1  0.50172816  0.50101396  0.50008419  1
  Ti4+  Ti14  1  0.50011059  0.50395279  0.83355171  1
  Ti4+  Ti15  1  0.50267645  0.83261592  0.17033970  1
  Ti4+  Ti16  1  0.50061289  0.82744620  0.50225175  1
  Ti4+  Ti17  1  0.50212451  0.83750065  0.83613202  1
  Ti4+  Ti18  1  0.83278205  0.16524736  0.16803464  1
  Ti4+  Ti19  1  0.83311908  0.16663192  0.50288247  1
  Ti4+  Ti20  1  0.83400440  0.16609755  0.83253089  1
  Ti4+  Ti21  1  0.83270613  0.49650089  0.16481862  1
  Ti4+  Ti22  1  0.83533045  0.50021743  0.50163562  1
  Ti4+  Ti23  1  0.82993011  0.49846176  0.83073109  1
  Ti4+  Ti24  1  0.83530228  0.83107657  0.16666529  1
  Ti4+  Ti25  1  0.83297237  0.83492382  0.49929942  1
  Ti4+  Ti26  1  0.83550762  0.83344587  0.83376664  1
  Cu+  Cu27  1  0.16296408  0.16342651  0.00075666  1
  Cu+  Cu28  1  0.17088340  0.17019589  0.33514837  1
  Cu+  Cu29  1  0.16642548  0.16685169  0.66872105  1
  Cu+  Cu30  1  0.16642065  0.49996682  0.00261983  1
  Cu+  Cu31  1  0.16544708  0.50018441  0.33645502  1
  Cu+  Cu32  1  0.16653416  0.50766574  0.66882981  1
  Cu+  Cu33  1  0.16748429  0.83908607  -0.00278959  1
  Cu+  Cu34  1  0.16896384  0.83092930  0.33098998  1
  Cu+  Cu35  1  0.16557098  0.83263941  0.66380449  1
  Cu+  Cu36  1  0.50036667  0.16906058  -0.00451643  1
  Cu+  Cu37  1  0.49469240  0.16531147  0.32912180  1
  Cu+  Cu38  1  0.49706615  0.16600643  0.65950863  1
  Cu+  Cu39  1  0.49554951  0.50262076  -0.00180048  1
  Cu+  Cu40  1  0.50059297  0.49823427  0.33218612  1
  Cu+  Cu41  1  0.50737515  0.50561879  0.66496106  1
  Cu+  Cu42  1  0.50364585  0.83773137  0.00285713  1
  Cu+  Cu43  1  0.49929687  0.82262226  0.33722450  1
  Cu+  Cu44  1  0.50316457  0.83193416  0.67426752  1
  Cu+  Cu45  1  0.83342385  0.16517021  0.00123347  1
  Cu+  Cu46  1  0.83126324  0.16674682  0.33429035  1
  Cu+  Cu47  1  0.83929639  0.17022956  0.66868623  1
  Cu+  Cu48  1  0.82830364  0.49897822  -0.00136042  1
  Cu+  Cu49  1  0.83596502  0.49912451  0.33409440  1
  Cu+  Cu50  1  0.82907069  0.49462010  0.66337339  1
  Cu+  Cu51  1  0.83621990  0.82941586  -0.00109526  1
  Cu+  Cu52  1  0.83526655  0.83426817  0.33347305  1
  Cu+  Cu53  1  0.83008562  0.83734020  0.66483457  1
  Cu+  Cu54  1  0.16821810  -0.00222548  0.15699648  1
  Cu+  Cu55  1  0.16535743  0.00058563  0.49884412  1
  Cu+  Cu56  1  0.16824618  0.00272167  0.83086369  1
  Cu+  Cu57  1  0.16505950  0.33332354  0.17148812  1
  Cu+  Cu58  1  0.16571829  0.33879158  0.50263210  1
  Cu+  Cu59  1  0.16567911  0.33262042  0.83746868  1
  Cu+  Cu60  1  0.16533641  0.66986302  0.17021736  1
  Cu+  Cu61  1  0.17020040  0.66519919  0.50272200  1
  Cu+  Cu62  1  0.16440530  0.66646783  0.83014067  1
  Cu+  Cu63  1  0.49769237  0.00205134  0.16783220  1
  Cu+  Cu64  1  0.49672669  -0.00500640  0.49955494  1
  Cu+  Cu65  1  0.49599169  0.00066296  0.83146840  1
  Cu+  Cu66  1  0.49923337  0.33500066  0.16301297  1
  Cu+  Cu67  1  0.49601679  0.32938729  0.49642404  1
  Cu+  Cu68  1  0.49651125  0.33638011  0.83380772  1
  Cu+  Cu69  1  0.50050797  0.66637111  0.17072883  1
  Cu+  Cu70  1  0.51016458  0.66407459  0.50054194  1
  Cu+  Cu71  1  0.50474108  0.67413344  0.83555872  1
  Cu+  Cu72  1  0.83502609  0.00088826  0.16698719  1
  Cu+  Cu73  1  0.83223388  -0.00008063  0.50076089  1
  Cu+  Cu74  1  0.83432690  -0.00180612  0.82893716  1
  Cu+  Cu75  1  0.83201968  0.33046763  0.16626198  1
  Cu+  Cu76  1  0.83677266  0.33289131  0.50670913  1
  Cu+  Cu77  1  0.82897567  0.33120427  0.83155519  1
  Cu+  Cu78  1  0.83448397  0.66005831  0.16474265  1
  Cu+  Cu79  1  0.83505453  0.67008660  0.49926206  1
  Cu+  Cu80  1  0.83363601  0.66486990  0.83475398  1
  Cu+  Cu81  1  -0.00318185  0.16473156  0.16977412  1
  Cu+  Cu82  1  -0.00005358  0.17106524  0.50616404  1
  Cu+  Cu83  1  -0.00120671  0.16279904  0.83326810  1
  Cu+  Cu84  1  -0.00272767  0.49981989  0.16970239  1
  Cu+  Cu85  1  0.00167868  0.50162330  0.50003696  1
  Cu+  Cu86  1  -0.00095408  0.50077369  0.83182260  1
  Cu+  Cu87  1  0.00433153  0.83256955  0.16549459  1
  Cu+  Cu88  1  -0.00083851  0.83411252  0.49751120  1
  Cu+  Cu89  1  0.00037181  0.83182594  0.83414429  1
  Cu+  Cu90  1  0.32962269  0.16522297  0.17080716  1
  Cu+  Cu91  1  0.32879204  0.16442123  0.49549824  1
  Cu+  Cu92  1  0.33027989  0.16575755  0.83076850  1
  Cu+  Cu93  1  0.33036785  0.50237176  0.16494607  1
  Cu+  Cu94  1  0.33219821  0.50333690  0.50274603  1
  Cu+  Cu95  1  0.33806708  0.49938854  0.83763820  1
  Cu+  Cu96  1  0.34044104  0.83346628  0.16683907  1
  Cu+  Cu97  1  0.33627413  0.83193112  0.49969080  1
  Cu+  Cu98  1  0.33119798  0.83855933  0.83662049  1
  Cu+  Cu99  1  0.66681660  0.16812151  0.16364551  1
  Cu+  Cu100  1  0.66079566  0.16498794  0.49754450  1
  Cu+  Cu101  1  0.66653210  0.16779312  0.83131498  1
  Cu+  Cu102  1  0.66727959  0.50037227  0.16125597  1
  Cu+  Cu103  1  0.67026401  0.50121972  0.50373846  1
  Cu+  Cu104  1  0.66108907  0.49612484  0.83017129  1
  Cu+  Cu105  1  0.66944945  0.83193248  0.16844865  1
  Cu+  Cu106  1  0.66659770  0.82790917  0.49930656  1
  Cu+  Cu107  1  0.67141368  0.83783285  0.83293511  1
  Cu+  Cu108  1  0.24944803  0.07080698  0.40683798  1
  Cu+  Cu109  1  0.73892658  0.59268314  0.07000789  1
  Cu+  Cu110  1  0.25903735  0.26543582  0.26121104  1
  Cu+  Cu111  1  0.60030955  0.74475373  0.74956843  1
  Cu+  Cu112  1  0.06743544  0.59386690  0.74093311  1
  Cu+  Cu113  1  0.92323944  0.59003731  0.26103810  1
  Cu+  Cu114  1  0.41146646  0.91809701  0.40833126  1
  Cu+  Cu115  1  0.26020636  0.08080530  0.06991409  1
  Cu+  Cu116  1  0.73880541  0.25568111  0.74099631  1
  Cu+  Cu117  1  0.40443880  0.92062162  0.74033510  1
  Cu+  Cu118  1  0.40739760  0.40594286  0.92856546  1
  Cu+  Cu119  1  0.07019136  0.92253826  0.06932547  1
  Cu+  Cu120  1  0.40822807  0.73325231  0.26244839  1
  Cu+  Cu121  1  0.40534553  0.07361572  0.25647944  1
  Cu+  Cu122  1  0.60224431  0.59416122  0.59396518  1
  Cu+  Cu123  1  0.25970515  0.07827010  0.73649377  1
  Cu+  Cu124  1  0.92747835  0.06896123  0.73925521  1
  Cu+  Cu125  1  0.07401671  0.74586752  0.26032878  1
  Cu+  Cu126  1  0.74056129  0.92852812  0.73631147  1
  Cu+  Cu127  1  0.26421850  0.59379094  0.59744465  1
  Cu+  Cu128  1  0.59936048  0.73539283  0.40488922  1
  Cu+  Cu129  1  0.57892586  0.40316547  0.73758886  1
  Cu+  Cu130  1  0.41602438  0.92735327  0.07317301  1
  Cu+  Cu131  1  0.73701667  0.40192082  0.58350651  1
  Cu+  Cu132  1  0.93248499  0.26489273  0.59812993  1
  Te2-  Te133  1  0.24868978  0.25067538  0.08228270  1
  Te2-  Te134  1  0.25317432  0.26022039  0.41674329  1
  Te2-  Te135  1  0.25028285  0.25474306  0.74886152  1
  Te2-  Te136  1  0.24889464  0.58849904  0.08282645  1
  Te2-  Te137  1  0.25242558  0.58594208  0.41353340  1
  Te2-  Te138  1  0.25945478  0.58799568  0.75129082  1
  Te2-  Te139  1  0.26119533  0.91966666  0.07645222  1
  Te2-  Te140  1  0.25422774  0.91757502  0.41179972  1
  Te2-  Te141  1  0.25191495  0.92110675  0.74262227  1
  Te2-  Te142  1  0.58374679  0.25231174  0.07939236  1
  Te2-  Te143  1  0.58133869  0.24983550  0.41085139  1
  Te2-  Te144  1  0.58224882  0.25186090  0.74293213  1
  Te2-  Te145  1  0.58322547  0.58848318  0.07847691  1
  Te2-  Te146  1  0.59151795  0.58115105  0.41053217  1
  Te2-  Te147  1  0.59115394  0.59260163  0.74800509  1
  Te2-  Te148  1  0.58843652  0.92095711  0.08660500  1
  Te2-  Te149  1  0.58412715  0.91434741  0.41479012  1
  Te2-  Te150  1  0.58832944  0.92508261  0.74737313  1
  Te2-  Te151  1  0.91907411  0.25037086  0.08187347  1
  Te2-  Te152  1  0.91720744  0.25180327  0.41637574  1
  Te2-  Te153  1  0.92441817  0.25746345  0.75086354  1
  Te2-  Te154  1  0.91993090  0.58123659  0.07678353  1
  Te2-  Te155  1  0.92063754  0.58769335  0.41610223  1
  Te2-  Te156  1  0.91425668  0.58434329  0.74453801  1
  Te2-  Te157  1  0.91888414  0.91813170  0.08036009  1
  Te2-  Te158  1  0.91846296  0.92075917  0.41435953  1
  Te2-  Te159  1  0.92342416  0.91648773  0.74445969  1
  Te2-  Te160  1  0.25081606  0.07194912  0.25519598  1
  Te2-  Te161  1  0.25177215  0.07999620  0.58550920  1
  Te2-  Te162  1  0.25301814  0.07985317  0.91934756  1
  Te2-  Te163  1  0.25274671  0.41760874  0.25459622  1
  Te2-  Te164  1  0.25144741  0.41791588  0.58918887  1
  Te2-  Te165  1  0.25232863  0.41422142  0.92170464  1
  Te2-  Te166  1  0.25760185  0.74716688  0.25222704  1
  Te2-  Te167  1  0.25534878  0.74857416  0.58745028  1
  Te2-  Te168  1  0.24958973  0.74965266  0.91687625  1
  Te2-  Te169  1  0.58525884  0.08380462  0.24940178  1
  Te2-  Te170  1  0.58190490  0.07815509  0.58214941  1
  Te2-  Te171  1  0.58370681  0.08232336  0.91455457  1
  Te2-  Te172  1  0.58564105  0.41527739  0.24854117  1
  Te2-  Te173  1  0.58506551  0.40725362  0.58406482  1
  Te2-  Te174  1  0.58318095  0.41538422  0.92120747  1
  Te2-  Te175  1  0.59133294  0.74433684  0.25299341  1
  Te2-  Te176  1  0.59068869  0.74671594  0.59300327  1
  Te2-  Te177  1  0.59021312  0.75428157  0.92247529  1
  Te2-  Te178  1  0.91751437  0.08019404  0.25588081  1
  Te2-  Te179  1  0.92036888  0.07791332  0.58610695  1
  Te2-  Te180  1  0.91674473  0.07905206  0.91917154  1
  Te2-  Te181  1  0.91750852  0.41037649  0.25249531  1
  Te2-  Te182  1  0.92529715  0.41666522  0.58913261  1
  Te2-  Te183  1  0.91508104  0.41486132  0.91579962  1
  Te2-  Te184  1  0.92121357  0.74518919  0.25391551  1
  Te2-  Te185  1  0.91831403  0.75120488  0.58585329  1
  Te2-  Te186  1  0.92061349  0.74511906  0.91771208  1
  Te2-  Te187  1  0.07933360  0.24940194  0.25429399  1
  Te2-  Te188  1  0.08435100  0.25644876  0.59027291  1
  Te2-  Te189  1  0.07882547  0.24983588  0.91998333  1
  Te2-  Te190  1  0.07918623  0.58778286  0.25699446  1
  Te2-  Te191  1  0.07676440  0.59055957  0.58637446  1
  Te2-  Te192  1  0.08150093  0.58475676  0.91943363  1
  Te2-  Te193  1  0.08537208  0.92006621  0.25132277  1
  Te2-  Te194  1  0.08145239  0.91848816  0.58254666  1
  Te2-  Te195  1  0.07967234  0.92284233  0.91526687  1
  Te2-  Te196  1  0.41244361  0.25722372  0.25124393  1
  Te2-  Te197  1  0.40983660  0.25034269  0.58152692  1
  Te2-  Te198  1  0.41031571  0.25184508  0.91706587  1
  Te2-  Te199  1  0.41252408  0.58297227  0.25402379  1
  Te2-  Te200  1  0.41759670  0.58895651  0.58679539  1
  Te2-  Te201  1  0.41633718  0.59353994  0.91743213  1
  Te2-  Te202  1  0.41416119  0.91948332  0.25821929  1
  Te2-  Te203  1  0.41524137  0.91525246  0.58910956  1
  Te2-  Te204  1  0.41380170  0.92274103  0.92190701  1
  Te2-  Te205  1  0.74624381  0.25125497  0.25252263  1
  Te2-  Te206  1  0.74047653  0.25037774  0.58774684  1
  Te2-  Te207  1  0.74754976  0.24991551  0.92009286  1
  Te2-  Te208  1  0.74714476  0.58222782  0.25306742  1
  Te2-  Te209  1  0.75191229  0.59134973  0.58778602  1
  Te2-  Te210  1  0.74310467  0.58439852  0.91505102  1
  Te2-  Te211  1  0.75113040  0.91768541  0.25084134  1
  Te2-  Te212  1  0.74257494  0.92086852  0.58269700  1
  Te2-  Te213  1  0.75212993  0.91977390  0.92108659  1
  Te2-  Te214  1  0.07501030  0.08011929  0.08109206  1
  Te2-  Te215  1  0.07968404  0.08599345  0.41574013  1
  Te2-  Te216  1  0.07950615  0.07917637  0.74500890  1
  Te2-  Te217  1  0.08063029  0.41449720  0.08451535  1
  Te2-  Te218  1  0.08021079  0.41561617  0.41594154  1
  Te2-  Te219  1  0.08397059  0.41508433  0.74860892  1
  Te2-  Te220  1  0.08554060  0.74892620  0.07752829  1
  Te2-  Te221  1  0.08202095  0.74578502  0.41552346  1
  Te2-  Te222  1  0.07905295  0.74889052  0.74477084  1
  Te2-  Te223  1  0.41234328  0.08178735  0.07506726  1
  Te2-  Te224  1  0.40870971  0.07546919  0.41085387  1
  Te2-  Te225  1  0.41215148  0.08014630  0.74204749  1
  Te2-  Te226  1  0.41055050  0.41536046  0.08085983  1
  Te2-  Te227  1  0.41370783  0.41799305  0.41673257  1
  Te2-  Te228  1  0.41645515  0.41953990  0.74262789  1
  Te2-  Te229  1  0.41971577  0.74725946  0.08044208  1
  Te2-  Te230  1  0.41224417  0.73704909  0.41877011  1
  Te2-  Te231  1  0.41232585  0.75070668  0.75338790  1
  Te2-  Te232  1  0.74776798  0.07989550  0.08131319  1
  Te2-  Te233  1  0.74765759  0.08225930  0.41679820  1
  Te2-  Te234  1  0.74638066  0.08161784  0.74333610  1
  Te2-  Te235  1  0.74670473  0.40966923  0.07951061  1
  Te2-  Te236  1  0.75070115  0.41331660  0.41683781  1
  Te2-  Te237  1  0.74062211  0.40997389  0.74286897  1
  Te2-  Te238  1  0.74833579  0.74616048  0.08056744  1
  Te2-  Te239  1  0.75012358  0.74585579  0.41122450  1
  Te2-  Te240  1  0.75096045  0.74570180  0.74678586  1
