# generated using pymatgen
data_Ti27(Cu53Te54)2
_symmetry_space_group_name_H-M   'P 1'
_cell_length_a   17.87922203
_cell_length_b   17.87462544
_cell_length_c   17.87723216
_cell_angle_alpha   89.98445044
_cell_angle_beta   90.02804397
_cell_angle_gamma   90.02447157
_symmetry_Int_Tables_number   1
_chemical_formula_structural   Ti27(Cu53Te54)2
_chemical_formula_sum   'Ti27 Cu106 Te108'
_cell_volume   5713.28304438
_cell_formula_units_Z   1
loop_
 _symmetry_equiv_pos_site_id
 _symmetry_equiv_pos_as_xyz
  1  'x, y, z'
loop_
 _atom_type_symbol
 _atom_type_oxidation_number
  Ti4+  4.0
  Cu+  1.0
  Te2-  -2.0
loop_
 _atom_site_type_symbol
 _atom_site_label
 _atom_site_symmetry_multiplicity
 _atom_site_fract_x
 _atom_site_fract_y
 _atom_site_fract_z
 _atom_site_occupancy
  Ti4+  Ti0  1  0.16635476  0.16661866  0.16881308  1
  Ti4+  Ti1  1  0.16211177  0.16633506  0.50146015  1
  Ti4+  Ti2  1  0.16661445  0.16731065  0.83342175  1
  Ti4+  Ti3  1  0.16509991  0.49913445  0.16250552  1
  Ti4+  Ti4  1  0.16782236  0.49750914  0.49999513  1
  Ti4+  Ti5  1  0.16746785  0.50289352  0.83538169  1
  Ti4+  Ti6  1  0.16685527  0.83424150  0.17065012  1
  Ti4+  Ti7  1  0.17054619  0.82921742  0.49926426  1
  Ti4+  Ti8  1  0.16465378  0.83619782  0.83555496  1
  Ti4+  Ti9  1  0.50398993  0.16938662  0.16793047  1
  Ti4+  Ti10  1  0.49711871  0.16603883  0.49917818  1
  Ti4+  Ti11  1  0.50025605  0.16540650  0.83196116  1
  Ti4+  Ti12  1  0.49845885  0.49928675  0.16452890  1
  Ti4+  Ti13  1  0.50097365  0.50411473  0.50022878  1
  Ti4+  Ti14  1  0.50284856  0.50052425  0.83415904  1
  Ti4+  Ti15  1  0.49777373  0.83538382  0.16634315  1
  Ti4+  Ti16  1  0.49993457  0.82820042  0.50001181  1
  Ti4+  Ti17  1  0.49930548  0.83401126  0.83513185  1
  Ti4+  Ti18  1  0.83486705  0.16574699  0.16702480  1
  Ti4+  Ti19  1  0.83081903  0.16836912  0.49895543  1
  Ti4+  Ti20  1  0.83188438  0.16679693  0.83258426  1
  Ti4+  Ti21  1  0.83310104  0.49959911  0.16508745  1
  Ti4+  Ti22  1  0.83499683  0.50389418  0.49912273  1
  Ti4+  Ti23  1  0.83619282  0.49762709  0.83463940  1
  Ti4+  Ti24  1  0.83413338  0.83427773  0.16690451  1
  Ti4+  Ti25  1  0.83069685  0.83154855  0.49929889  1
  Ti4+  Ti26  1  0.83322101  0.83295165  0.83379344  1
  Cu+  Cu27  1  0.16694603  0.16620295  -0.00036622  1
  Cu+  Cu28  1  0.15982616  0.16065406  0.33374092  1
  Cu+  Cu29  1  0.16491431  0.17109468  0.66753134  1
  Cu+  Cu30  1  0.16499314  0.49557472  -0.00256643  1
  Cu+  Cu31  1  0.16000405  0.49897273  0.33008517  1
  Cu+  Cu32  1  0.16995862  0.50074930  0.66781700  1
  Cu+  Cu33  1  0.16553729  0.83820495  0.00463115  1
  Cu+  Cu34  1  0.17300905  0.82934828  0.33774665  1
  Cu+  Cu35  1  0.16679156  0.83297211  0.66968267  1
  Cu+  Cu36  1  0.50512863  0.16790718  -0.00020201  1
  Cu+  Cu37  1  0.49902192  0.16561323  0.33174423  1
  Cu+  Cu38  1  0.49784824  0.16456878  0.66554909  1
  Cu+  Cu39  1  0.50182580  0.50098755  -0.00125775  1
  Cu+  Cu40  1  0.49674472  0.49938332  0.33065641  1
  Cu+  Cu41  1  0.50647594  0.50378085  0.66893222  1
  Cu+  Cu42  1  0.49855073  0.83652344  -0.00140640  1
  Cu+  Cu43  1  0.49476375  0.82952295  0.33155399  1
  Cu+  Cu44  1  0.49816460  0.83202233  0.66865130  1
  Cu+  Cu45  1  0.83441628  0.16606050  -0.00212659  1
  Cu+  Cu46  1  0.83485360  0.17021096  0.33347714  1
  Cu+  Cu47  1  0.83006751  0.16859686  0.66564734  1
  Cu+  Cu48  1  0.83736262  0.49613786  -0.00138749  1
  Cu+  Cu49  1  0.82964671  0.50343914  0.33301359  1
  Cu+  Cu50  1  0.83869054  0.50061255  0.66795540  1
  Cu+  Cu51  1  0.83251908  0.83396870  0.00042878  1
  Cu+  Cu52  1  0.83670577  0.83260607  0.33202296  1
  Cu+  Cu53  1  0.82942967  0.83265789  0.66635912  1
  Cu+  Cu54  1  0.15957002  -0.00201003  0.17118646  1
  Cu+  Cu55  1  0.16748576  0.00100781  0.49830079  1
  Cu+  Cu56  1  0.16491301  0.00330117  0.83441340  1
  Cu+  Cu57  1  0.16981437  0.33470953  0.16218997  1
  Cu+  Cu58  1  0.16802616  0.32915298  0.50435471  1
  Cu+  Cu59  1  0.16550573  0.33419569  0.83340557  1
  Cu+  Cu60  1  0.16823173  0.66679997  0.16466147  1
  Cu+  Cu61  1  0.17031280  0.65934580  0.49690850  1
  Cu+  Cu62  1  0.16758776  0.67206533  0.83268026  1
  Cu+  Cu63  1  0.50546791  0.00592413  0.16789637  1
  Cu+  Cu64  1  0.49754734  -0.00403670  0.49912397  1
  Cu+  Cu65  1  0.49764721  -0.00143623  0.83289875  1
  Cu+  Cu66  1  0.49792392  0.33223714  0.16374582  1
  Cu+  Cu67  1  0.49778703  0.33574162  0.49952543  1
  Cu+  Cu68  1  0.50320792  0.33312329  0.83132560  1
  Cu+  Cu69  1  0.49629481  0.66489266  0.16588181  1
  Cu+  Cu70  1  0.50908651  0.66619886  0.50607803  1
  Cu+  Cu71  1  0.50262468  0.66659499  0.83555670  1
  Cu+  Cu72  1  0.83370069  -0.00142155  0.16735405  1
  Cu+  Cu73  1  0.82881850  0.00011042  0.50004655  1
  Cu+  Cu74  1  0.83219614  0.00011127  0.83189627  1
  Cu+  Cu75  1  0.83782641  0.33067360  0.16768801  1
  Cu+  Cu76  1  0.83217861  0.33706503  0.50144274  1
  Cu+  Cu77  1  0.82806932  0.33164158  0.83468071  1
  Cu+  Cu78  1  0.83222975  0.66952988  0.16659928  1
  Cu+  Cu79  1  0.83260335  0.66791410  0.49303379  1
  Cu+  Cu80  1  0.83731512  0.66567018  0.83535107  1
  Cu+  Cu81  1  0.00003296  0.16750306  0.17537629  1
  Cu+  Cu82  1  -0.00422872  0.16737400  0.50075448  1
  Cu+  Cu83  1  -0.00261489  0.16935149  0.83129469  1
  Cu+  Cu84  1  -0.00452275  0.49647033  0.16159314  1
  Cu+  Cu85  1  0.00408861  0.50145186  0.49593858  1
  Cu+  Cu86  1  0.00316198  0.50238043  0.84242860  1
  Cu+  Cu87  1  0.00182653  0.83981727  0.16875283  1
  Cu+  Cu88  1  -0.00227648  0.82975284  0.50087611  1
  Cu+  Cu89  1  -0.00143108  0.83637682  0.83485716  1
  Cu+  Cu90  1  0.33929543  0.17109648  0.16824136  1
  Cu+  Cu91  1  0.32650801  0.16715655  0.50095177  1
  Cu+  Cu92  1  0.33360405  0.16546126  0.83391522  1
  Cu+  Cu93  1  0.32876539  0.49757101  0.16148191  1
  Cu+  Cu94  1  0.33174048  0.50245551  0.50419130  1
  Cu+  Cu95  1  0.33966124  0.50136975  0.83192152  1
  Cu+  Cu96  1  0.33215743  0.82927928  0.16897431  1
  Cu+  Cu97  1  0.33896164  0.82652832  0.49604778  1
  Cu+  Cu98  1  0.33082727  0.83552849  0.83347636  1
  Cu+  Cu99  1  0.66778054  0.16401389  0.16266767  1
  Cu+  Cu100  1  0.66459409  0.16671783  0.49859764  1
  Cu+  Cu101  1  0.66618196  0.16725318  0.83194804  1
  Cu+  Cu102  1  0.66341330  0.49889333  0.16638465  1
  Cu+  Cu103  1  0.66809851  0.50918843  0.50156085  1
  Cu+  Cu104  1  0.67115419  0.49527109  0.83486302  1
  Cu+  Cu105  1  0.66921531  0.83739019  0.16681984  1
  Cu+  Cu106  1  0.66391689  0.82881036  0.49771833  1
  Cu+  Cu107  1  0.66639335  0.83247027  0.83306185  1
  Cu+  Cu108  1  0.07612003  0.59002514  0.40170007  1
  Cu+  Cu109  1  0.41304362  0.73961888  0.59834164  1
  Cu+  Cu110  1  0.92106213  0.39962486  0.07154118  1
  Cu+  Cu111  1  0.07609311  0.40138345  0.92321380  1
  Cu+  Cu112  1  0.59658429  0.07401497  0.06878747  1
  Cu+  Cu113  1  0.26049817  0.40603205  0.06753903  1
  Cu+  Cu114  1  0.26056515  0.25599946  0.59708726  1
  Cu+  Cu115  1  0.25865470  0.74614920  0.74406783  1
  Cu+  Cu116  1  0.41304978  0.25665097  0.06802250  1
  Cu+  Cu117  1  0.59265850  0.74482653  0.39906445  1
  Cu+  Cu118  1  0.92839003  0.74488208  0.40348935  1
  Cu+  Cu119  1  0.25795665  0.74374670  0.07263695  1
  Cu+  Cu120  1  0.25693200  0.59016008  0.59581381  1
  Cu+  Cu121  1  0.92853324  0.59863855  0.92813855  1
  Cu+  Cu122  1  0.41037999  0.07713686  0.25332571  1
  Cu+  Cu123  1  0.06740419  0.06853742  0.26321502  1
  Cu+  Cu124  1  0.92798711  0.26388365  0.26491241  1
  Cu+  Cu125  1  0.25510860  0.07852305  0.40729483  1
  Cu+  Cu126  1  0.41147024  0.92388863  0.40705057  1
  Cu+  Cu127  1  0.07183713  0.92840833  0.07223063  1
  Cu+  Cu128  1  0.73773630  0.40412667  0.92948689  1
  Cu+  Cu129  1  0.26263292  0.73151397  0.40899724  1
  Cu+  Cu130  1  0.60265673  0.59281976  0.60225934  1
  Cu+  Cu131  1  0.40771545  0.73348446  0.25621591  1
  Cu+  Cu132  1  0.73709535  0.59187802  0.40150762  1
  Te2-  Te133  1  0.25460454  0.25051705  0.07852860  1
  Te2-  Te134  1  0.24698009  0.25032545  0.41054584  1
  Te2-  Te135  1  0.25415359  0.25517025  0.74998921  1
  Te2-  Te136  1  0.25115629  0.58609297  0.07561812  1
  Te2-  Te137  1  0.25547002  0.57960682  0.40707296  1
  Te2-  Te138  1  0.25697244  0.58848165  0.74943591  1
  Te2-  Te139  1  0.25309322  0.92245710  0.08729874  1
  Te2-  Te140  1  0.25642741  0.92019319  0.41402476  1
  Te2-  Te141  1  0.24986421  0.92205256  0.74896822  1
  Te2-  Te142  1  0.58985794  0.25574040  0.08074694  1
  Te2-  Te143  1  0.58144906  0.25208454  0.41509664  1
  Te2-  Te144  1  0.58471188  0.25009501  0.74493089  1
  Te2-  Te145  1  0.58445056  0.58633757  0.08155441  1
  Te2-  Te146  1  0.58485287  0.58865620  0.40618629  1
  Te2-  Te147  1  0.59302252  0.58788159  0.75306539  1
  Te2-  Te148  1  0.58547970  0.91960232  0.08085772  1
  Te2-  Te149  1  0.58353057  0.91592579  0.41197062  1
  Te2-  Te150  1  0.58403073  0.91760250  0.74777870  1
  Te2-  Te151  1  0.92366479  0.24780972  0.07894004  1
  Te2-  Te152  1  0.91932879  0.25739798  0.41586055  1
  Te2-  Te153  1  0.91523462  0.25424257  0.74704160  1
  Te2-  Te154  1  0.91818786  0.58945151  0.08062215  1
  Te2-  Te155  1  0.92317573  0.58806910  0.40809825  1
  Te2-  Te156  1  0.92372359  0.58396591  0.75074826  1
  Te2-  Te157  1  0.91871230  0.92145202  0.07939652  1
  Te2-  Te158  1  0.91776485  0.91892759  0.41725555  1
  Te2-  Te159  1  0.91674791  0.91822460  0.74643003  1
  Te2-  Te160  1  0.25510692  0.07876590  0.25196261  1
  Te2-  Te161  1  0.24840369  0.08055973  0.58913661  1
  Te2-  Te162  1  0.25217974  0.08141018  0.91963750  1
  Te2-  Te163  1  0.24927664  0.41583286  0.25228233  1
  Te2-  Te164  1  0.25457123  0.41195877  0.58874437  1
  Te2-  Te165  1  0.25737427  0.41400990  0.91545805  1
  Te2-  Te166  1  0.25382522  0.74073172  0.25613327  1
  Te2-  Te167  1  0.25611114  0.74346044  0.58957657  1
  Te2-  Te168  1  0.25191444  0.75069262  0.92259352  1
  Te2-  Te169  1  0.59088846  0.08313714  0.25613797  1
  Te2-  Te170  1  0.58198133  0.07973287  0.58201302  1
  Te2-  Te171  1  0.58712247  0.07857324  0.91693051  1
  Te2-  Te172  1  0.58253875  0.41320376  0.25064847  1
  Te2-  Te173  1  0.58722480  0.41737147  0.58245997  1
  Te2-  Te174  1  0.58596244  0.41184559  0.92098686  1
  Te2-  Te175  1  0.58637804  0.74779743  0.24729062  1
  Te2-  Te176  1  0.59090562  0.74828182  0.59422058  1
  Te2-  Te177  1  0.58531395  0.74989203  0.92089487  1
  Te2-  Te178  1  0.91678823  0.07690147  0.25615524  1
  Te2-  Te179  1  0.91447469  0.08158711  0.58510781  1
  Te2-  Te180  1  0.91894072  0.08105016  0.91645341  1
  Te2-  Te181  1  0.91857682  0.41700608  0.25689123  1
  Te2-  Te182  1  0.92155260  0.41849247  0.58241991  1
  Te2-  Te183  1  0.92312417  0.40480077  0.91946609  1
  Te2-  Te184  1  0.92312349  0.74679365  0.24987292  1
  Te2-  Te185  1  0.91503274  0.74602094  0.58627674  1
  Te2-  Te186  1  0.92142825  0.74994013  0.92242991  1
  Te2-  Te187  1  0.08441852  0.25775224  0.25394615  1
  Te2-  Te188  1  0.07577086  0.25281693  0.58651837  1
  Te2-  Te189  1  0.07911522  0.25067522  0.92071110  1
  Te2-  Te190  1  0.07699003  0.58589064  0.24590233  1
  Te2-  Te191  1  0.08292018  0.58505412  0.58665413  1
  Te2-  Te192  1  0.08526532  0.59285838  0.92303096  1
  Te2-  Te193  1  0.08102726  0.91579920  0.26451902  1
  Te2-  Te194  1  0.08427506  0.91425043  0.58177149  1
  Te2-  Te195  1  0.07891105  0.92330758  0.92015427  1
  Te2-  Te196  1  0.41599005  0.25631596  0.25583355  1
  Te2-  Te197  1  0.41346458  0.25287004  0.58540591  1
  Te2-  Te198  1  0.41541658  0.25324338  0.91701343  1
  Te2-  Te199  1  0.40871124  0.58168733  0.24987987  1
  Te2-  Te200  1  0.41342686  0.58785418  0.59086215  1
  Te2-  Te201  1  0.41636546  0.58634462  0.91950793  1
  Te2-  Te202  1  0.41139134  0.92338091  0.25210116  1
  Te2-  Te203  1  0.41281966  0.91548894  0.58604118  1
  Te2-  Te204  1  0.41185037  0.91959744  0.91865642  1
  Te2-  Te205  1  0.74657070  0.25140115  0.24914430  1
  Te2-  Te206  1  0.74521270  0.25406687  0.58363080  1
  Te2-  Te207  1  0.74412284  0.25066994  0.92226553  1
  Te2-  Te208  1  0.74513968  0.58711959  0.24791299  1
  Te2-  Te209  1  0.75403204  0.59047187  0.59041718  1
  Te2-  Te210  1  0.75029482  0.58351990  0.92065728  1
  Te2-  Te211  1  0.74949457  0.91935601  0.25446834  1
  Te2-  Te212  1  0.74348908  0.91600791  0.58277420  1
  Te2-  Te213  1  0.74761445  0.91881371  0.91808533  1
  Te2-  Te214  1  0.07852031  0.08371839  0.08196419  1
  Te2-  Te215  1  0.07319908  0.07694895  0.41734107  1
  Te2-  Te216  1  0.08049035  0.08408625  0.74764722  1
  Te2-  Te217  1  0.07670542  0.40859475  0.07786007  1
  Te2-  Te218  1  0.08330771  0.40938080  0.41577167  1
  Te2-  Te219  1  0.08115963  0.41918995  0.74885358  1
  Te2-  Te220  1  0.07984260  0.74983692  0.08431354  1
  Te2-  Te221  1  0.08107472  0.74390838  0.41311658  1
  Te2-  Te222  1  0.07822910  0.75047424  0.74951915  1
  Te2-  Te223  1  0.41566305  0.08226903  0.08088774  1
  Te2-  Te224  1  0.40900764  0.07825628  0.41139630  1
  Te2-  Te225  1  0.41329388  0.08035767  0.74754584  1
  Te2-  Te226  1  0.41325048  0.41281145  0.07487682  1
  Te2-  Te227  1  0.41297957  0.41902013  0.41740114  1
  Te2-  Te228  1  0.41902610  0.41592988  0.74595575  1
  Te2-  Te229  1  0.41441939  0.74813279  0.07782450  1
  Te2-  Te230  1  0.41474866  0.73415841  0.41089994  1
  Te2-  Te231  1  0.41237588  0.74352751  0.75032639  1
  Te2-  Te232  1  0.75112875  0.07846354  0.07866434  1
  Te2-  Te233  1  0.74707701  0.08299207  0.41222716  1
  Te2-  Te234  1  0.74672074  0.08146312  0.74697474  1
  Te2-  Te235  1  0.74691857  0.41116016  0.08225818  1
  Te2-  Te236  1  0.74573274  0.41855347  0.41684740  1
  Te2-  Te237  1  0.75087632  0.41498208  0.74439350  1
  Te2-  Te238  1  0.74696551  0.74993871  0.08155997  1
  Te2-  Te239  1  0.74402782  0.74610876  0.40633346  1
  Te2-  Te240  1  0.74888503  0.74475467  0.75052462  1
