# generated using pymatgen
data_Ti27(Cu53Te54)2
_symmetry_space_group_name_H-M   'P 1'
_cell_length_a   17.87008750
_cell_length_b   17.86674147
_cell_length_c   17.87304526
_cell_angle_alpha   89.99684253
_cell_angle_beta   90.01587545
_cell_angle_gamma   89.96891301
_symmetry_Int_Tables_number   1
_chemical_formula_structural   Ti27(Cu53Te54)2
_chemical_formula_sum   'Ti27 Cu106 Te108'
_cell_volume   5706.50899306
_cell_formula_units_Z   1
loop_
 _symmetry_equiv_pos_site_id
 _symmetry_equiv_pos_as_xyz
  1  'x, y, z'
loop_
 _atom_type_symbol
 _atom_type_oxidation_number
  Ti4+  4.0
  Cu+  1.0
  Te2-  -2.0
loop_
 _atom_site_type_symbol
 _atom_site_label
 _atom_site_symmetry_multiplicity
 _atom_site_fract_x
 _atom_site_fract_y
 _atom_site_fract_z
 _atom_site_occupancy
  Ti4+  Ti0  1  0.16762081  0.16674135  0.16981826  1
  Ti4+  Ti1  1  0.16687565  0.16506560  0.49910790  1
  Ti4+  Ti2  1  0.16580308  0.16796279  0.83363652  1
  Ti4+  Ti3  1  0.16697102  0.50209093  0.16550946  1
  Ti4+  Ti4  1  0.16758462  0.50336204  0.49912601  1
  Ti4+  Ti5  1  0.16675643  0.50060061  0.83286538  1
  Ti4+  Ti6  1  0.16984625  0.83516369  0.16599099  1
  Ti4+  Ti7  1  0.16752640  0.83300115  0.50101881  1
  Ti4+  Ti8  1  0.16558253  0.83251233  0.83356497  1
  Ti4+  Ti9  1  0.49661107  0.16747033  0.16558823  1
  Ti4+  Ti10  1  0.50122897  0.16420836  0.49870379  1
  Ti4+  Ti11  1  0.50137326  0.16633621  0.83219489  1
  Ti4+  Ti12  1  0.49910441  0.49946164  0.16832479  1
  Ti4+  Ti13  1  0.49906422  0.49852041  0.49971244  1
  Ti4+  Ti14  1  0.49894423  0.49840770  0.83279886  1
  Ti4+  Ti15  1  0.49809594  0.83171745  0.16805432  1
  Ti4+  Ti16  1  0.50171462  0.83506466  0.50190850  1
  Ti4+  Ti17  1  0.50290728  0.83211037  0.83545311  1
  Ti4+  Ti18  1  0.83272752  0.16620500  0.16553788  1
  Ti4+  Ti19  1  0.83120217  0.16940387  0.49479245  1
  Ti4+  Ti20  1  0.83720181  0.17020520  0.82920293  1
  Ti4+  Ti21  1  0.83030746  0.50042495  0.16724760  1
  Ti4+  Ti22  1  0.83550504  0.50207954  0.49936812  1
  Ti4+  Ti23  1  0.83281763  0.49678807  0.83331308  1
  Ti4+  Ti24  1  0.83198752  0.82938029  0.16859853  1
  Ti4+  Ti25  1  0.83001000  0.83246061  0.50211759  1
  Ti4+  Ti26  1  0.83114395  0.83354483  0.83394792  1
  Cu+  Cu27  1  0.16784798  0.16868149  0.00094935  1
  Cu+  Cu28  1  0.16277601  0.16503277  0.33354252  1
  Cu+  Cu29  1  0.16535745  0.16644307  0.66871036  1
  Cu+  Cu30  1  0.16433412  0.49941675  -0.00195011  1
  Cu+  Cu31  1  0.16964496  0.50532487  0.33178907  1
  Cu+  Cu32  1  0.16987977  0.50478916  0.66422757  1
  Cu+  Cu33  1  0.16950864  0.83145597  -0.00146327  1
  Cu+  Cu34  1  0.16793395  0.83611058  0.33343674  1
  Cu+  Cu35  1  0.16371309  0.83061546  0.66748977  1
  Cu+  Cu36  1  0.50124125  0.16849045  -0.00282612  1
  Cu+  Cu37  1  0.49662536  0.17059550  0.33152337  1
  Cu+  Cu38  1  0.49882591  0.16245925  0.66589886  1
  Cu+  Cu39  1  0.49740926  0.49861189  -0.00085458  1
  Cu+  Cu40  1  0.49866349  0.49901150  0.33567628  1
  Cu+  Cu41  1  0.50003843  0.49675185  0.66682737  1
  Cu+  Cu42  1  0.50252648  0.83270697  0.00364354  1
  Cu+  Cu43  1  0.49920078  0.83509051  0.33585168  1
  Cu+  Cu44  1  0.50436682  0.83615757  0.66978643  1
  Cu+  Cu45  1  0.83517939  0.16702959  -0.00085408  1
  Cu+  Cu46  1  0.83486177  0.16746302  0.33069531  1
  Cu+  Cu47  1  0.83132680  0.17780392  0.66070021  1
  Cu+  Cu48  1  0.83185567  0.49881144  0.00281992  1
  Cu+  Cu49  1  0.83561282  0.50412400  0.33216876  1
  Cu+  Cu50  1  0.83603829  0.49610073  0.66834864  1
  Cu+  Cu51  1  0.82939779  0.83036185  -0.00123973  1
  Cu+  Cu52  1  0.82928589  0.82833730  0.33548551  1
  Cu+  Cu53  1  0.83026494  0.83084807  0.66900298  1
  Cu+  Cu54  1  0.16891078  0.00534367  0.16836072  1
  Cu+  Cu55  1  0.16783226  -0.00232043  0.49948161  1
  Cu+  Cu56  1  0.16372815  -0.00178625  0.83398483  1
  Cu+  Cu57  1  0.16592868  0.33389335  0.16608764  1
  Cu+  Cu58  1  0.16608997  0.33655052  0.49679916  1
  Cu+  Cu59  1  0.16751422  0.33387846  0.83239245  1
  Cu+  Cu60  1  0.17382119  0.66741400  0.16718196  1
  Cu+  Cu61  1  0.16707699  0.66827959  0.50597247  1
  Cu+  Cu62  1  0.16477272  0.66562517  0.83318092  1
  Cu+  Cu63  1  0.49019527  -0.00214942  0.16612931  1
  Cu+  Cu64  1  0.50237498  -0.00097452  0.50781800  1
  Cu+  Cu65  1  0.50356202  0.00067610  0.83442208  1
  Cu+  Cu66  1  0.50089654  0.33343769  0.16993431  1
  Cu+  Cu67  1  0.49856916  0.33180470  0.49411009  1
  Cu+  Cu68  1  0.49981606  0.33357020  0.83202048  1
  Cu+  Cu69  1  0.50143910  0.66681746  0.16549112  1
  Cu+  Cu70  1  0.50130456  0.66619310  0.49915886  1
  Cu+  Cu71  1  0.50033403  0.66337258  0.83306948  1
  Cu+  Cu72  1  0.83272782  -0.00236671  0.16318813  1
  Cu+  Cu73  1  0.82520233  -0.00047200  0.49414401  1
  Cu+  Cu74  1  0.83167817  0.00185477  0.83356777  1
  Cu+  Cu75  1  0.83212499  0.33535657  0.16493009  1
  Cu+  Cu76  1  0.83719878  0.33401379  0.49946157  1
  Cu+  Cu77  1  0.83960045  0.33346642  0.82553272  1
  Cu+  Cu78  1  0.83122986  0.66313681  0.17626854  1
  Cu+  Cu79  1  0.83329180  0.66973424  0.50056187  1
  Cu+  Cu80  1  0.83129429  0.66453666  0.83540848  1
  Cu+  Cu81  1  0.00168149  0.16511112  0.17042731  1
  Cu+  Cu82  1  -0.00178577  0.16830878  0.49733679  1
  Cu+  Cu83  1  0.00159231  0.17132809  0.83601131  1
  Cu+  Cu84  1  -0.00167398  0.50191645  0.16535274  1
  Cu+  Cu85  1  0.00348425  0.50274008  0.49587609  1
  Cu+  Cu86  1  0.00083769  0.49660930  0.83218439  1
  Cu+  Cu87  1  0.00220397  0.83501880  0.16602144  1
  Cu+  Cu88  1  0.00231925  0.82901295  0.50268001  1
  Cu+  Cu89  1  -0.00320468  0.83567257  0.83246338  1
  Cu+  Cu90  1  0.33241822  0.15895469  0.16775774  1
  Cu+  Cu91  1  0.33414225  0.16466015  0.49809547  1
  Cu+  Cu92  1  0.33337442  0.16674523  0.83243609  1
  Cu+  Cu93  1  0.33382305  0.50336630  0.16845442  1
  Cu+  Cu94  1  0.33194950  0.50351454  0.50211424  1
  Cu+  Cu95  1  0.33422082  0.49838655  0.83276795  1
  Cu+  Cu96  1  0.33280004  0.83397671  0.15961408  1
  Cu+  Cu97  1  0.33489859  0.83400338  0.50013098  1
  Cu+  Cu98  1  0.33417652  0.83390083  0.83253597  1
  Cu+  Cu99  1  0.66336679  0.16911476  0.16648627  1
  Cu+  Cu100  1  0.67029457  0.16076314  0.49869401  1
  Cu+  Cu101  1  0.66883281  0.16841906  0.83071779  1
  Cu+  Cu102  1  0.66511643  0.49820505  0.16631631  1
  Cu+  Cu103  1  0.66694508  0.49826887  0.50038676  1
  Cu+  Cu104  1  0.66276371  0.49834718  0.83398678  1
  Cu+  Cu105  1  0.66402961  0.82547059  0.17023009  1
  Cu+  Cu106  1  0.66514893  0.83985481  0.50379160  1
  Cu+  Cu107  1  0.67015831  0.83032692  0.83856108  1
  Cu+  Cu108  1  0.40808129  0.92405869  0.06836967  1
  Cu+  Cu109  1  0.07241631  0.73821681  0.59869305  1
  Cu+  Cu110  1  0.59509954  0.26084813  0.25944926  1
  Cu+  Cu111  1  0.25633644  0.73481416  0.06694618  1
  Cu+  Cu112  1  0.06899785  0.07337661  0.26294445  1
  Cu+  Cu113  1  0.40280289  0.26171671  0.40653208  1
  Cu+  Cu114  1  0.74369442  0.73318034  0.92779378  1
  Cu+  Cu115  1  0.93089033  0.74674571  0.40799700  1
  Cu+  Cu116  1  0.59297917  0.73692213  0.07551246  1
  Cu+  Cu117  1  0.73534644  0.26314636  0.73848904  1
  Cu+  Cu118  1  0.40212328  0.07507606  0.59629285  1
  Cu+  Cu119  1  0.73672497  0.73537647  0.59545930  1
  Cu+  Cu120  1  0.73437687  0.73494394  0.26591216  1
  Cu+  Cu121  1  0.26552938  0.59472511  0.26191420  1
  Cu+  Cu122  1  0.40895778  0.06999179  0.26430546  1
  Cu+  Cu123  1  0.93062057  0.58877801  0.25870210  1
  Cu+  Cu124  1  0.73720083  0.92590777  0.40119652  1
  Cu+  Cu125  1  0.74325822  0.07866320  0.92719861  1
  Cu+  Cu126  1  0.93388042  0.41017293  0.73765250  1
  Cu+  Cu127  1  0.25755533  0.07957612  0.06812802  1
  Cu+  Cu128  1  0.93185316  0.26079503  0.58399778  1
  Cu+  Cu129  1  0.75028779  0.07604659  0.59406342  1
  Cu+  Cu130  1  0.26541139  0.59606319  0.59812820  1
  Cu+  Cu131  1  0.59340896  0.92743153  0.60164437  1
  Cu+  Cu132  1  0.92704967  0.26034236  0.93093977  1
  Te2-  Te133  1  0.25456682  0.25228030  0.08420042  1
  Te2-  Te134  1  0.25051673  0.25190147  0.41276315  1
  Te2-  Te135  1  0.25229102  0.25183683  0.74741096  1
  Te2-  Te136  1  0.25463896  0.58353969  0.07519280  1
  Te2-  Te137  1  0.25426031  0.59210102  0.41456834  1
  Te2-  Te138  1  0.25514896  0.58804137  0.74969946  1
  Te2-  Te139  1  0.25265922  0.92492915  0.07636986  1
  Te2-  Te140  1  0.25398340  0.91832233  0.41548396  1
  Te2-  Te141  1  0.24992347  0.91768016  0.74756571  1
  Te2-  Te142  1  0.58274151  0.25351412  0.07999165  1
  Te2-  Te143  1  0.58998721  0.25011705  0.41353449  1
  Te2-  Te144  1  0.58358324  0.25310996  0.74378038  1
  Te2-  Te145  1  0.58530994  0.58293386  0.07943202  1
  Te2-  Te146  1  0.58586372  0.58395813  0.41546957  1
  Te2-  Te147  1  0.58537582  0.58359960  0.74640028  1
  Te2-  Te148  1  0.58651193  0.91977510  0.08739787  1
  Te2-  Te149  1  0.58440759  0.92308972  0.41198066  1
  Te2-  Te150  1  0.59155899  0.91958186  0.75343973  1
  Te2-  Te151  1  0.92135187  0.25235699  0.08381380  1
  Te2-  Te152  1  0.91957880  0.25400633  0.40964584  1
  Te2-  Te153  1  0.92872167  0.25427541  0.73915427  1
  Te2-  Te154  1  0.91524356  0.58782367  0.08153864  1
  Te2-  Te155  1  0.92235040  0.59087223  0.41342611  1
  Te2-  Te156  1  0.91772973  0.58529779  0.75012490  1
  Te2-  Te157  1  0.91595360  0.91342206  0.08051778  1
  Te2-  Te158  1  0.91795184  0.91581015  0.41644550  1
  Te2-  Te159  1  0.91512670  0.91972089  0.74745274  1
  Te2-  Te160  1  0.25389495  0.07853194  0.26041773  1
  Te2-  Te161  1  0.25075052  0.07976753  0.58705582  1
  Te2-  Te162  1  0.25238703  0.07986256  0.91640190  1
  Te2-  Te163  1  0.25151921  0.41557576  0.25090135  1
  Te2-  Te164  1  0.25118889  0.41457688  0.58397937  1
  Te2-  Te165  1  0.25184809  0.41492453  0.91850934  1
  Te2-  Te166  1  0.25696200  0.75142667  0.25489124  1
  Te2-  Te167  1  0.25727180  0.74979486  0.58888169  1
  Te2-  Te168  1  0.25500283  0.74505513  0.91596375  1
  Te2-  Te169  1  0.58048927  0.07914956  0.24993773  1
  Te2-  Te170  1  0.59135914  0.08049456  0.59031187  1
  Te2-  Te171  1  0.58892789  0.08217966  0.91975615  1
  Te2-  Te172  1  0.58635491  0.41486698  0.25602727  1
  Te2-  Te173  1  0.58385754  0.41119001  0.58298583  1
  Te2-  Te174  1  0.58382766  0.41256890  0.91987915  1
  Te2-  Te175  1  0.58126639  0.74422201  0.25950803  1
  Te2-  Te176  1  0.58583933  0.74560212  0.58744179  1
  Te2-  Te177  1  0.58725207  0.74241905  0.92215148  1
  Te2-  Te178  1  0.91643294  0.07744117  0.25191089  1
  Te2-  Te179  1  0.91346860  0.08079276  0.58168303  1
  Te2-  Te180  1  0.92035105  0.08162965  0.91662445  1
  Te2-  Te181  1  0.91836186  0.41490008  0.25146623  1
  Te2-  Te182  1  0.92566324  0.41563204  0.58365737  1
  Te2-  Te183  1  0.91963902  0.41330377  0.92215951  1
  Te2-  Te184  1  0.92488655  0.74725601  0.25465419  1
  Te2-  Te185  1  0.91850950  0.74661204  0.59063303  1
  Te2-  Te186  1  0.91801621  0.74767121  0.91801234  1
  Te2-  Te187  1  0.08110379  0.25492703  0.25317894  1
  Te2-  Te188  1  0.08360462  0.25321826  0.58406236  1
  Te2-  Te189  1  0.08300127  0.25660727  0.92241434  1
  Te2-  Te190  1  0.08194027  0.59034534  0.25119797  1
  Te2-  Te191  1  0.07690545  0.58628251  0.58779930  1
  Te2-  Te192  1  0.07870751  0.58455855  0.91788467  1
  Te2-  Te193  1  0.08209628  0.92010945  0.25194634  1
  Te2-  Te194  1  0.08050045  0.91905940  0.58530017  1
  Te2-  Te195  1  0.08014146  0.91636660  0.92044572  1
  Te2-  Te196  1  0.40696229  0.25517625  0.25050290  1
  Te2-  Te197  1  0.41600976  0.25067791  0.58404704  1
  Te2-  Te198  1  0.41495791  0.25164900  0.91648542  1
  Te2-  Te199  1  0.41677258  0.58902196  0.25512796  1
  Te2-  Te200  1  0.41733858  0.58731416  0.58765741  1
  Te2-  Te201  1  0.41336278  0.58472313  0.91850413  1
  Te2-  Te202  1  0.40874416  0.91526190  0.25646775  1
  Te2-  Te203  1  0.41227139  0.91816660  0.58989847  1
  Te2-  Te204  1  0.41604755  0.91920712  0.91809724  1
  Te2-  Te205  1  0.74850655  0.25362346  0.25190121  1
  Te2-  Te206  1  0.74129164  0.25943049  0.57922845  1
  Te2-  Te207  1  0.75147506  0.25611201  0.91574070  1
  Te2-  Te208  1  0.73935182  0.58312838  0.25711730  1
  Te2-  Te209  1  0.74880086  0.58301442  0.58781503  1
  Te2-  Te210  1  0.74531542  0.58087203  0.92017967  1
  Te2-  Te211  1  0.74544770  0.91827340  0.25011701  1
  Te2-  Te212  1  0.74712868  0.92271829  0.59317748  1
  Te2-  Te213  1  0.74641774  0.92239368  0.92191727  1
  Te2-  Te214  1  0.08124032  0.08238290  0.08084085  1
  Te2-  Te215  1  0.07797241  0.07787586  0.41669728  1
  Te2-  Te216  1  0.07911631  0.08197698  0.74967831  1
  Te2-  Te217  1  0.08030080  0.41601245  0.08182967  1
  Te2-  Te218  1  0.08354727  0.41850301  0.41048051  1
  Te2-  Te219  1  0.08518392  0.41425593  0.74284333  1
  Te2-  Te220  1  0.08388279  0.74788143  0.08302420  1
  Te2-  Te221  1  0.08429387  0.74604770  0.41101489  1
  Te2-  Te222  1  0.07666384  0.74582564  0.75023996  1
  Te2-  Te223  1  0.41308422  0.08053482  0.07188421  1
  Te2-  Te224  1  0.41604406  0.07472986  0.41480357  1
  Te2-  Te225  1  0.41339837  0.07776833  0.74967412  1
  Te2-  Te226  1  0.41388174  0.41435759  0.08436911  1
  Te2-  Te227  1  0.40883876  0.41571753  0.41314099  1
  Te2-  Te228  1  0.41323602  0.41262109  0.74664400  1
  Te2-  Te229  1  0.41303215  0.74351422  0.07845975  1
  Te2-  Te230  1  0.41619693  0.74887932  0.41688508  1
  Te2-  Te231  1  0.41831468  0.74950082  0.74861758  1
  Te2-  Te232  1  0.74482202  0.08157022  0.08109983  1
  Te2-  Te233  1  0.74530915  0.08184117  0.40398186  1
  Te2-  Te234  1  0.74985118  0.08274825  0.74377510  1
  Te2-  Te235  1  0.74525622  0.41372204  0.08094449  1
  Te2-  Te236  1  0.75267229  0.41681434  0.41485766  1
  Te2-  Te237  1  0.74309419  0.41423356  0.74591980  1
  Te2-  Te238  1  0.74691414  0.74053926  0.08120082  1
  Te2-  Te239  1  0.73865043  0.74518369  0.41787067  1
  Te2-  Te240  1  0.74482245  0.74343070  0.74826493  1
