# generated using pymatgen
data_Ti27(Cu53Te54)2
_symmetry_space_group_name_H-M   'P 1'
_cell_length_a   17.88102152
_cell_length_b   17.88021363
_cell_length_c   17.87954192
_cell_angle_alpha   89.98302894
_cell_angle_beta   89.97698507
_cell_angle_gamma   89.99107940
_symmetry_Int_Tables_number   1
_chemical_formula_structural   Ti27(Cu53Te54)2
_chemical_formula_sum   'Ti27 Cu106 Te108'
_cell_volume   5716.38351123
_cell_formula_units_Z   1
loop_
 _symmetry_equiv_pos_site_id
 _symmetry_equiv_pos_as_xyz
  1  'x, y, z'
loop_
 _atom_type_symbol
 _atom_type_oxidation_number
  Ti4+  4.0
  Cu+  1.0
  Te2-  -2.0
loop_
 _atom_site_type_symbol
 _atom_site_label
 _atom_site_symmetry_multiplicity
 _atom_site_fract_x
 _atom_site_fract_y
 _atom_site_fract_z
 _atom_site_occupancy
  Ti4+  Ti0  1  0.16498477  0.16549035  0.16739357  1
  Ti4+  Ti1  1  0.16832725  0.16744671  0.49931936  1
  Ti4+  Ti2  1  0.16468700  0.16658946  0.83559841  1
  Ti4+  Ti3  1  0.16715656  0.49958686  0.16772809  1
  Ti4+  Ti4  1  0.16675668  0.49964063  0.49895475  1
  Ti4+  Ti5  1  0.16605179  0.50002741  0.83279230  1
  Ti4+  Ti6  1  0.16900542  0.83122052  0.16888137  1
  Ti4+  Ti7  1  0.16283952  0.83255882  0.50316344  1
  Ti4+  Ti8  1  0.17133799  0.83217208  0.83392180  1
  Ti4+  Ti9  1  0.49821935  0.16499429  0.16243913  1
  Ti4+  Ti10  1  0.50283846  0.16583065  0.49700793  1
  Ti4+  Ti11  1  0.50086919  0.16573432  0.83258110  1
  Ti4+  Ti12  1  0.50321939  0.50459909  0.17086664  1
  Ti4+  Ti13  1  0.50124414  0.49885957  0.49896234  1
  Ti4+  Ti14  1  0.49824390  0.49717085  0.83333527  1
  Ti4+  Ti15  1  0.49963764  0.83056029  0.16709804  1
  Ti4+  Ti16  1  0.49613493  0.83391707  0.50199957  1
  Ti4+  Ti17  1  0.49886757  0.82881215  0.83466221  1
  Ti4+  Ti18  1  0.83201706  0.16745725  0.16393591  1
  Ti4+  Ti19  1  0.83301377  0.16648354  0.49972069  1
  Ti4+  Ti20  1  0.83644601  0.16706174  0.82982919  1
  Ti4+  Ti21  1  0.83353201  0.50263562  0.16767363  1
  Ti4+  Ti22  1  0.83353539  0.49986074  0.49950659  1
  Ti4+  Ti23  1  0.83092019  0.50218920  0.83459251  1
  Ti4+  Ti24  1  0.83561178  0.83551766  0.16538355  1
  Ti4+  Ti25  1  0.82945980  0.83288402  0.49978670  1
  Ti4+  Ti26  1  0.83355908  0.83620653  0.83295057  1
  Cu+  Cu27  1  0.16201579  0.16861522  0.00310832  1
  Cu+  Cu28  1  0.16546690  0.16596533  0.33234498  1
  Cu+  Cu29  1  0.16654111  0.16685383  0.66962038  1
  Cu+  Cu30  1  0.16349389  0.49937621  -0.00390147  1
  Cu+  Cu31  1  0.16933135  0.50090111  0.33500375  1
  Cu+  Cu32  1  0.16691015  0.49949731  0.66303413  1
  Cu+  Cu33  1  0.17326720  0.82708416  0.00243891  1
  Cu+  Cu34  1  0.16325058  0.83237700  0.33771653  1
  Cu+  Cu35  1  0.17119630  0.83546677  0.66948735  1
  Cu+  Cu36  1  0.49866245  0.16427477  -0.00203749  1
  Cu+  Cu37  1  0.50255749  0.16690605  0.32777834  1
  Cu+  Cu38  1  0.50413910  0.16712908  0.66512669  1
  Cu+  Cu39  1  0.50171917  0.50186571  0.00063578  1
  Cu+  Cu40  1  0.50496645  0.50513430  0.33540503  1
  Cu+  Cu41  1  0.49747143  0.49738299  0.66690475  1
  Cu+  Cu42  1  0.49817592  0.82949711  0.00438304  1
  Cu+  Cu43  1  0.49527123  0.83218653  0.33586142  1
  Cu+  Cu44  1  0.49597527  0.83190962  0.66944881  1
  Cu+  Cu45  1  0.83678964  0.16207160  -0.00163880  1
  Cu+  Cu46  1  0.83058950  0.16581745  0.33419630  1
  Cu+  Cu47  1  0.83444287  0.16784001  0.65952980  1
  Cu+  Cu48  1  0.83075525  0.50395534  0.00239120  1
  Cu+  Cu49  1  0.83244584  0.49745143  0.33186032  1
  Cu+  Cu50  1  0.83229200  0.49893971  0.66876179  1
  Cu+  Cu51  1  0.83550476  0.83717434  -0.00286132  1
  Cu+  Cu52  1  0.83027209  0.83335179  0.33192057  1
  Cu+  Cu53  1  0.83440185  0.83691248  0.66579789  1
  Cu+  Cu54  1  0.16771136  -0.00136363  0.16980237  1
  Cu+  Cu55  1  0.16538749  0.00078303  0.50456178  1
  Cu+  Cu56  1  0.16464663  -0.00058853  0.83594798  1
  Cu+  Cu57  1  0.16238677  0.33029424  0.16623088  1
  Cu+  Cu58  1  0.17180316  0.33697504  0.49529217  1
  Cu+  Cu59  1  0.16387276  0.33303418  0.83492303  1
  Cu+  Cu60  1  0.17387143  0.66489147  0.16829367  1
  Cu+  Cu61  1  0.15973972  0.66430759  0.49626062  1
  Cu+  Cu62  1  0.17145757  0.66579063  0.83139569  1
  Cu+  Cu63  1  0.49497715  -0.00301316  0.16250686  1
  Cu+  Cu64  1  0.49403780  0.00302492  0.50085829  1
  Cu+  Cu65  1  0.49956408  -0.00380423  0.83498858  1
  Cu+  Cu66  1  0.50138592  0.33255156  0.16592835  1
  Cu+  Cu67  1  0.50596439  0.33153174  0.49754084  1
  Cu+  Cu68  1  0.49965861  0.33256883  0.83252047  1
  Cu+  Cu69  1  0.50599997  0.67052372  0.17419930  1
  Cu+  Cu70  1  0.49717857  0.66649003  0.50119670  1
  Cu+  Cu71  1  0.50045085  0.65941136  0.83856311  1
  Cu+  Cu72  1  0.83575215  0.00086867  0.16119437  1
  Cu+  Cu73  1  0.83007941  -0.00160974  0.50238202  1
  Cu+  Cu74  1  0.83184230  0.00453171  0.83559217  1
  Cu+  Cu75  1  0.82924601  0.33762317  0.16731999  1
  Cu+  Cu76  1  0.83617080  0.33208812  0.49860876  1
  Cu+  Cu77  1  0.83683208  0.33837424  0.82976701  1
  Cu+  Cu78  1  0.83590950  0.66939393  0.16601378  1
  Cu+  Cu79  1  0.82997486  0.66720958  0.49812601  1
  Cu+  Cu80  1  0.83147765  0.67040868  0.83342940  1
  Cu+  Cu81  1  -0.00185694  0.16737678  0.16096380  1
  Cu+  Cu82  1  0.00121429  0.16742728  0.49938192  1
  Cu+  Cu83  1  0.00428773  0.17183868  0.82790485  1
  Cu+  Cu84  1  -0.00227032  0.50051209  0.16644825  1
  Cu+  Cu85  1  0.00251570  0.50276256  0.49642136  1
  Cu+  Cu86  1  -0.00279095  0.50203989  0.83468174  1
  Cu+  Cu87  1  0.00302257  0.83342935  0.16682437  1
  Cu+  Cu88  1  -0.00733499  0.83408635  0.50318678  1
  Cu+  Cu89  1  0.00297847  0.83622645  0.83281509  1
  Cu+  Cu90  1  0.33154722  0.16342509  0.16575092  1
  Cu+  Cu91  1  0.33733765  0.16595206  0.49709048  1
  Cu+  Cu92  1  0.32969814  0.16391817  0.83606495  1
  Cu+  Cu93  1  0.33293484  0.50422183  0.17136766  1
  Cu+  Cu94  1  0.33489208  0.49466831  0.49520144  1
  Cu+  Cu95  1  0.33331138  0.49562309  0.83240751  1
  Cu+  Cu96  1  0.33409529  0.82573718  0.16362639  1
  Cu+  Cu97  1  0.32656935  0.83400206  0.50439772  1
  Cu+  Cu98  1  0.33627908  0.82908190  0.82720928  1
  Cu+  Cu99  1  0.66059142  0.16902010  0.16529089  1
  Cu+  Cu100  1  0.66729822  0.16674524  0.50372556  1
  Cu+  Cu101  1  0.66999769  0.16381741  0.83251765  1
  Cu+  Cu102  1  0.67057128  0.50376179  0.17546833  1
  Cu+  Cu103  1  0.66865320  0.49869059  0.50009310  1
  Cu+  Cu104  1  0.66376248  0.50142542  0.83587323  1
  Cu+  Cu105  1  0.67004110  0.83296978  0.16575345  1
  Cu+  Cu106  1  0.66073540  0.83297039  0.49815984  1
  Cu+  Cu107  1  0.66772658  0.83278493  0.83560663  1
  Cu+  Cu108  1  0.73812345  0.06831673  0.59042972  1
  Cu+  Cu109  1  0.92158016  0.92731246  0.59205382  1
  Cu+  Cu110  1  0.40517173  0.74407153  0.26607978  1
  Cu+  Cu111  1  0.93041868  0.07019865  0.07069504  1
  Cu+  Cu112  1  0.07429641  0.92542096  0.74420252  1
  Cu+  Cu113  1  0.40632585  0.08533471  0.59474442  1
  Cu+  Cu114  1  0.06836007  0.26373243  0.07473624  1
  Cu+  Cu115  1  0.60086726  0.60042813  0.26796238  1
  Cu+  Cu116  1  0.26183032  0.73348512  0.73568997  1
  Cu+  Cu117  1  0.41337656  0.92737148  0.74294933  1
  Cu+  Cu118  1  0.25911206  0.59262119  0.26493193  1
  Cu+  Cu119  1  0.06926002  0.59286603  0.40222103  1
  Cu+  Cu120  1  0.26520721  0.40430104  0.40289737  1
  Cu+  Cu121  1  0.59421149  0.58800287  0.92819516  1
  Cu+  Cu122  1  0.60098358  0.74549173  0.07415871  1
  Cu+  Cu123  1  0.40406185  0.92539836  0.07487274  1
  Cu+  Cu124  1  0.93159656  0.26325887  0.58192282  1
  Cu+  Cu125  1  0.74237432  0.40558393  0.26301245  1
  Cu+  Cu126  1  0.26133389  0.73227992  0.07058545  1
  Cu+  Cu127  1  0.08456200  0.26433532  0.73626873  1
  Cu+  Cu128  1  0.92722235  0.41686104  0.73999152  1
  Cu+  Cu129  1  0.25621221  0.92936261  0.59284554  1
  Cu+  Cu130  1  0.59240178  0.26252833  0.59657332  1
  Cu+  Cu131  1  0.58851147  0.25931617  0.25652264  1
  Cu+  Cu132  1  0.73847022  0.07706186  0.92882906  1
  Te2-  Te133  1  0.25201789  0.25136659  0.08237570  1
  Te2-  Te134  1  0.25519748  0.25000703  0.41126735  1
  Te2-  Te135  1  0.25223565  0.25247164  0.75044870  1
  Te2-  Te136  1  0.25334545  0.58107213  0.07635841  1
  Te2-  Te137  1  0.25658890  0.58938306  0.41640617  1
  Te2-  Te138  1  0.25492037  0.58126355  0.74472188  1
  Te2-  Te139  1  0.25270104  0.91940705  0.08213996  1
  Te2-  Te140  1  0.24787045  0.91889266  0.41689554  1
  Te2-  Te141  1  0.25778281  0.92612791  0.74869528  1
  Te2-  Te142  1  0.58293720  0.25261988  0.07577182  1
  Te2-  Te143  1  0.59066434  0.25073337  0.41072256  1
  Te2-  Te144  1  0.58902012  0.25252209  0.74962621  1
  Te2-  Te145  1  0.59102047  0.58875979  0.08295374  1
  Te2-  Te146  1  0.58949863  0.58962495  0.41889999  1
  Te2-  Te147  1  0.58347042  0.58352800  0.74598342  1
  Te2-  Te148  1  0.58618551  0.91719952  0.08119349  1
  Te2-  Te149  1  0.57881868  0.91977717  0.41570464  1
  Te2-  Te150  1  0.58484290  0.91509069  0.74962688  1
  Te2-  Te151  1  0.91415528  0.25794816  0.07840287  1
  Te2-  Te152  1  0.91958258  0.25063067  0.41154846  1
  Te2-  Te153  1  0.92261520  0.25664073  0.74040225  1
  Te2-  Te154  1  0.91943498  0.58733671  0.08113680  1
  Te2-  Te155  1  0.91598400  0.58683826  0.41170842  1
  Te2-  Te156  1  0.91669446  0.58827238  0.74844438  1
  Te2-  Te157  1  0.92428923  0.91820713  0.07775628  1
  Te2-  Te158  1  0.91483709  0.91945006  0.41379224  1
  Te2-  Te159  1  0.91988290  0.92525660  0.74771716  1
  Te2-  Te160  1  0.25176831  0.08057884  0.25328346  1
  Te2-  Te161  1  0.25361272  0.08324219  0.58933520  1
  Te2-  Te162  1  0.24822128  0.08120797  0.92241526  1
  Te2-  Te163  1  0.25261620  0.41006859  0.25085478  1
  Te2-  Te164  1  0.25411743  0.41429746  0.58561840  1
  Te2-  Te165  1  0.25002067  0.41343327  0.91806214  1
  Te2-  Te166  1  0.25345155  0.74648645  0.26198473  1
  Te2-  Te167  1  0.24891515  0.74132598  0.58462669  1
  Te2-  Te168  1  0.25864493  0.74395778  0.91795511  1
  Te2-  Te169  1  0.58287572  0.07580663  0.24686155  1
  Te2-  Te170  1  0.58616855  0.07594649  0.58652782  1
  Te2-  Te171  1  0.58512082  0.07829098  0.91868844  1
  Te2-  Te172  1  0.58703605  0.41299069  0.25648687  1
  Te2-  Te173  1  0.58757867  0.41507571  0.58700992  1
  Te2-  Te174  1  0.58467124  0.41200279  0.92026678  1
  Te2-  Te175  1  0.59164017  0.75291848  0.25983607  1
  Te2-  Te176  1  0.58124536  0.74879176  0.58643785  1
  Te2-  Te177  1  0.58818122  0.74487660  0.92127663  1
  Te2-  Te178  1  0.91695586  0.08387525  0.25056164  1
  Te2-  Te179  1  0.92291349  0.07986189  0.58499923  1
  Te2-  Te180  1  0.92660206  0.08204579  0.91436028  1
  Te2-  Te181  1  0.91998250  0.41388288  0.25179879  1
  Te2-  Te182  1  0.92360837  0.41575788  0.58480695  1
  Te2-  Te183  1  0.91667851  0.41775393  0.92236062  1
  Te2-  Te184  1  0.91969951  0.75066673  0.25193412  1
  Te2-  Te185  1  0.91432979  0.74523565  0.58612838  1
  Te2-  Te186  1  0.92026658  0.75070896  0.91629187  1
  Te2-  Te187  1  0.07724091  0.24999588  0.25301997  1
  Te2-  Te188  1  0.08403787  0.25758930  0.58369798  1
  Te2-  Te189  1  0.07739183  0.25505581  0.92145518  1
  Te2-  Te190  1  0.07983607  0.58717226  0.25104666  1
  Te2-  Te191  1  0.08001668  0.58498697  0.58686373  1
  Te2-  Te192  1  0.08142514  0.58787723  0.91601040  1
  Te2-  Te193  1  0.08277979  0.91717273  0.25322424  1
  Te2-  Te194  1  0.07658265  0.92100846  0.58983257  1
  Te2-  Te195  1  0.08640299  0.91404384  0.92392127  1
  Te2-  Te196  1  0.41291584  0.25103614  0.24875521  1
  Te2-  Te197  1  0.41681160  0.25287446  0.58353212  1
  Te2-  Te198  1  0.41457073  0.24989908  0.91666810  1
  Te2-  Te199  1  0.41385795  0.58956095  0.25871700  1
  Te2-  Te200  1  0.41320622  0.58116713  0.58311975  1
  Te2-  Te201  1  0.41014950  0.58125428  0.92030528  1
  Te2-  Te202  1  0.41099242  0.91630742  0.25137001  1
  Te2-  Te203  1  0.40905342  0.92266776  0.58991939  1
  Te2-  Te204  1  0.41219897  0.91519388  0.92078691  1
  Te2-  Te205  1  0.74477687  0.25194065  0.25381536  1
  Te2-  Te206  1  0.74678163  0.25769095  0.58611573  1
  Te2-  Te207  1  0.75324908  0.25213214  0.91562656  1
  Te2-  Te208  1  0.75206368  0.59371744  0.25700167  1
  Te2-  Te209  1  0.74899888  0.58397015  0.58569675  1
  Te2-  Te210  1  0.74674815  0.59009801  0.92091976  1
  Te2-  Te211  1  0.74929103  0.92148325  0.24890812  1
  Te2-  Te212  1  0.74014986  0.91658343  0.58747413  1
  Te2-  Te213  1  0.74613606  0.92144196  0.92014335  1
  Te2-  Te214  1  0.08188610  0.07516698  0.08061859  1
  Te2-  Te215  1  0.08243034  0.08132023  0.41660863  1
  Te2-  Te216  1  0.08016763  0.07873805  0.74591455  1
  Te2-  Te217  1  0.07933144  0.41665410  0.08062364  1
  Te2-  Te218  1  0.08056989  0.41373447  0.41150243  1
  Te2-  Te219  1  0.07929377  0.41534139  0.74412118  1
  Te2-  Te220  1  0.08403527  0.74491844  0.08388014  1
  Te2-  Te221  1  0.07402546  0.74995928  0.41557585  1
  Te2-  Te222  1  0.08361613  0.74818868  0.74826901  1
  Te2-  Te223  1  0.41009706  0.07975949  0.07623197  1
  Te2-  Te224  1  0.41616761  0.08267425  0.40833279  1
  Te2-  Te225  1  0.41201842  0.08092650  0.74749181  1
  Te2-  Te226  1  0.41764619  0.42002062  0.08666733  1
  Te2-  Te227  1  0.41971394  0.41102893  0.40945220  1
  Te2-  Te228  1  0.41365191  0.41096365  0.74683393  1
  Te2-  Te229  1  0.41503576  0.73687928  0.07997308  1
  Te2-  Te230  1  0.40846444  0.74707856  0.41952110  1
  Te2-  Te231  1  0.41710157  0.73756223  0.74721326  1
  Te2-  Te232  1  0.74280051  0.08154933  0.08097126  1
  Te2-  Te233  1  0.74627003  0.08021099  0.41522703  1
  Te2-  Te234  1  0.74972337  0.08135182  0.74297385  1
  Te2-  Te235  1  0.74451690  0.41910721  0.08175013  1
  Te2-  Te236  1  0.74751853  0.41144990  0.41562427  1
  Te2-  Te237  1  0.74363486  0.41620388  0.74965197  1
  Te2-  Te238  1  0.75222196  0.74807131  0.07732449  1
  Te2-  Te239  1  0.74417155  0.74883397  0.41373676  1
  Te2-  Te240  1  0.74845939  0.75157140  0.74700734  1
