# generated using pymatgen
data_Ti27(Cu53Te54)2
_symmetry_space_group_name_H-M   'P 1'
_cell_length_a   17.87409571
_cell_length_b   17.87448273
_cell_length_c   17.87235403
_cell_angle_alpha   89.97743624
_cell_angle_beta   90.00741009
_cell_angle_gamma   90.00706196
_symmetry_Int_Tables_number   1
_chemical_formula_structural   Ti27(Cu53Te54)2
_chemical_formula_sum   'Ti27 Cu106 Te108'
_cell_volume   5710.04169778
_cell_formula_units_Z   1
loop_
 _symmetry_equiv_pos_site_id
 _symmetry_equiv_pos_as_xyz
  1  'x, y, z'
loop_
 _atom_type_symbol
 _atom_type_oxidation_number
  Ti4+  4.0
  Cu+  1.0
  Te2-  -2.0
loop_
 _atom_site_type_symbol
 _atom_site_label
 _atom_site_symmetry_multiplicity
 _atom_site_fract_x
 _atom_site_fract_y
 _atom_site_fract_z
 _atom_site_occupancy
  Ti4+  Ti0  1  0.16631766  0.16822387  0.16696797  1
  Ti4+  Ti1  1  0.16766346  0.16688435  0.50106775  1
  Ti4+  Ti2  1  0.16664553  0.16433879  0.83396711  1
  Ti4+  Ti3  1  0.16528540  0.49981703  0.17007885  1
  Ti4+  Ti4  1  0.16733146  0.50171022  0.50285149  1
  Ti4+  Ti5  1  0.16613094  0.50181525  0.83468891  1
  Ti4+  Ti6  1  0.16776502  0.83424206  0.16658929  1
  Ti4+  Ti7  1  0.16594029  0.83209889  0.50120955  1
  Ti4+  Ti8  1  0.16454127  0.83181101  0.83292508  1
  Ti4+  Ti9  1  0.49918269  0.16855755  0.16633633  1
  Ti4+  Ti10  1  0.50086272  0.16980894  0.50233434  1
  Ti4+  Ti11  1  0.50056839  0.16649587  0.83483240  1
  Ti4+  Ti12  1  0.49322279  0.49706298  0.16367673  1
  Ti4+  Ti13  1  0.49981483  0.50120251  0.49994709  1
  Ti4+  Ti14  1  0.50219368  0.50107698  0.83289072  1
  Ti4+  Ti15  1  0.50083627  0.82904339  0.16756461  1
  Ti4+  Ti16  1  0.50196425  0.83349514  0.49493662  1
  Ti4+  Ti17  1  0.49917095  0.83410019  0.83286526  1
  Ti4+  Ti18  1  0.83374160  0.16824247  0.16776228  1
  Ti4+  Ti19  1  0.83502063  0.16326727  0.49986958  1
  Ti4+  Ti20  1  0.83197099  0.16492779  0.83208494  1
  Ti4+  Ti21  1  0.83325468  0.50211011  0.16325241  1
  Ti4+  Ti22  1  0.83573580  0.49643910  0.49928770  1
  Ti4+  Ti23  1  0.83259428  0.49820462  0.83249634  1
  Ti4+  Ti24  1  0.83518933  0.83918559  0.16590262  1
  Ti4+  Ti25  1  0.83186818  0.83253972  0.49901640  1
  Ti4+  Ti26  1  0.83088567  0.83485006  0.83247330  1
  Cu+  Cu27  1  0.16724206  0.16291373  0.00151901  1
  Cu+  Cu28  1  0.16640507  0.17040408  0.33383586  1
  Cu+  Cu29  1  0.16727882  0.16597495  0.66658423  1
  Cu+  Cu30  1  0.16464175  0.50035123  0.00219341  1
  Cu+  Cu31  1  0.16260487  0.50470156  0.33793461  1
  Cu+  Cu32  1  0.17074231  0.50298229  0.66949574  1
  Cu+  Cu33  1  0.16824328  0.83584968  -0.00284998  1
  Cu+  Cu34  1  0.16985857  0.83169545  0.33612347  1
  Cu+  Cu35  1  0.16016014  0.82856178  0.66625687  1
  Cu+  Cu36  1  0.49951336  0.16907096  -0.00059368  1
  Cu+  Cu37  1  0.50081001  0.16852019  0.33631489  1
  Cu+  Cu38  1  0.50073625  0.16978760  0.66981631  1
  Cu+  Cu39  1  0.50064574  0.49631692  -0.00151059  1
  Cu+  Cu40  1  0.49386957  0.49900525  0.32878915  1
  Cu+  Cu41  1  0.50021012  0.50177075  0.66669852  1
  Cu+  Cu42  1  0.49858704  0.83216721  0.00137448  1
  Cu+  Cu43  1  0.50419213  0.82893305  0.32854747  1
  Cu+  Cu44  1  0.50120112  0.83190675  0.66618820  1
  Cu+  Cu45  1  0.83065144  0.16535846  0.00008223  1
  Cu+  Cu46  1  0.83154369  0.17065363  0.33365411  1
  Cu+  Cu47  1  0.83612900  0.15739701  0.66676127  1
  Cu+  Cu48  1  0.83688897  0.50258979  -0.00516406  1
  Cu+  Cu49  1  0.83187030  0.50063198  0.33338737  1
  Cu+  Cu50  1  0.83575719  0.49443508  0.66567198  1
  Cu+  Cu51  1  0.83279100  0.83825261  0.00056470  1
  Cu+  Cu52  1  0.83459992  0.83946247  0.32952265  1
  Cu+  Cu53  1  0.83170051  0.83317386  0.66640848  1
  Cu+  Cu54  1  0.16925422  0.00396983  0.16514844  1
  Cu+  Cu55  1  0.16612264  0.00085302  0.50131399  1
  Cu+  Cu56  1  0.16822005  -0.00500852  0.83506418  1
  Cu+  Cu57  1  0.16954752  0.33469535  0.16744170  1
  Cu+  Cu58  1  0.16841238  0.33318861  0.50320959  1
  Cu+  Cu59  1  0.16402280  0.33172629  0.83445591  1
  Cu+  Cu60  1  0.16361670  0.66505925  0.16520536  1
  Cu+  Cu61  1  0.16549727  0.66668990  0.50375035  1
  Cu+  Cu62  1  0.16644577  0.66853662  0.83235849  1
  Cu+  Cu63  1  0.49931892  -0.00165819  0.16653800  1
  Cu+  Cu64  1  0.50158580  0.00379133  0.49807907  1
  Cu+  Cu65  1  0.49869812  0.00068878  0.83397259  1
  Cu+  Cu66  1  0.49486653  0.33479949  0.16357037  1
  Cu+  Cu67  1  0.49991196  0.33540803  0.50227034  1
  Cu+  Cu68  1  0.50052913  0.33233109  0.83371583  1
  Cu+  Cu69  1  0.49435629  0.66163318  0.17140707  1
  Cu+  Cu70  1  0.50228503  0.66869164  0.49644011  1
  Cu+  Cu71  1  0.50196123  0.66816159  0.83153988  1
  Cu+  Cu72  1  0.84149476  0.00286162  0.16848323  1
  Cu+  Cu73  1  0.82802865  -0.00123415  0.50390779  1
  Cu+  Cu74  1  0.83241218  0.00237447  0.83218243  1
  Cu+  Cu75  1  0.83360885  0.33541018  0.16562575  1
  Cu+  Cu76  1  0.83541345  0.32958577  0.49858552  1
  Cu+  Cu77  1  0.83261838  0.33139381  0.83053578  1
  Cu+  Cu78  1  0.83319646  0.67278802  0.16405584  1
  Cu+  Cu79  1  0.83441174  0.66100622  0.49921433  1
  Cu+  Cu80  1  0.83268470  0.66549814  0.83355380  1
  Cu+  Cu81  1  0.00064504  0.17030214  0.16698963  1
  Cu+  Cu82  1  0.00337955  0.16524835  0.50124109  1
  Cu+  Cu83  1  0.00022198  0.16422413  0.83054378  1
  Cu+  Cu84  1  0.00078240  0.50519724  0.16543352  1
  Cu+  Cu85  1  0.00114459  0.49938967  0.49891090  1
  Cu+  Cu86  1  -0.00227520  0.50084380  0.83586497  1
  Cu+  Cu87  1  0.00065883  0.84001970  0.16682795  1
  Cu+  Cu88  1  -0.00037752  0.82924931  0.50479701  1
  Cu+  Cu89  1  -0.00138030  0.83388376  0.83220395  1
  Cu+  Cu90  1  0.33189946  0.16709387  0.16499807  1
  Cu+  Cu91  1  0.33349321  0.17001540  0.50412089  1
  Cu+  Cu92  1  0.33492788  0.16687126  0.83301047  1
  Cu+  Cu93  1  0.32818918  0.48797956  0.16697656  1
  Cu+  Cu94  1  0.33315758  0.50432170  0.50519529  1
  Cu+  Cu95  1  0.33696578  0.49974610  0.83535581  1
  Cu+  Cu96  1  0.33646793  0.82958586  0.16697543  1
  Cu+  Cu97  1  0.33238216  0.83246218  0.49667722  1
  Cu+  Cu98  1  0.33177882  0.83456292  0.83384010  1
  Cu+  Cu99  1  0.66828164  0.16879456  0.16732242  1
  Cu+  Cu100  1  0.66767374  0.16513516  0.49941210  1
  Cu+  Cu101  1  0.66624914  0.16407065  0.83777280  1
  Cu+  Cu102  1  0.66316540  0.49825866  0.16016015  1
  Cu+  Cu103  1  0.66865776  0.49786726  0.49852284  1
  Cu+  Cu104  1  0.66906483  0.49996619  0.83118204  1
  Cu+  Cu105  1  0.66903224  0.83409187  0.17186950  1
  Cu+  Cu106  1  0.66723909  0.83505346  0.49126756  1
  Cu+  Cu107  1  0.66380652  0.83397104  0.83044275  1
  Cu+  Cu108  1  0.59428619  0.40511431  0.06984444  1
  Cu+  Cu109  1  0.40275868  0.40120653  0.26410951  1
  Cu+  Cu110  1  0.59187730  0.08051336  0.40636367  1
  Cu+  Cu111  1  0.26216945  0.07367998  0.07549113  1
  Cu+  Cu112  1  0.06825916  0.73592224  0.59682207  1
  Cu+  Cu113  1  0.59413015  0.73878206  0.40693297  1
  Cu+  Cu114  1  0.74116108  0.58863702  0.41286153  1
  Cu+  Cu115  1  0.26419089  0.59475871  0.59972073  1
  Cu+  Cu116  1  0.07636365  0.59367836  0.07331164  1
  Cu+  Cu117  1  0.75018062  0.74207240  0.25747639  1
  Cu+  Cu118  1  0.59133536  0.58051876  0.25305655  1
  Cu+  Cu119  1  0.25729573  0.73809671  0.40950345  1
  Cu+  Cu120  1  0.59141092  0.93034212  0.25141488  1
  Cu+  Cu121  1  0.59407002  0.73932838  0.74074934  1
  Cu+  Cu122  1  0.40327113  0.73733351  0.25793800  1
  Cu+  Cu123  1  0.73886992  0.07293845  0.93179663  1
  Cu+  Cu124  1  0.26183996  0.92392886  0.92445907  1
  Cu+  Cu125  1  0.93541677  0.93278134  0.26119927  1
  Cu+  Cu126  1  0.25205623  0.40603418  0.06832143  1
  Cu+  Cu127  1  0.74050806  0.26045885  0.40838612  1
  Cu+  Cu128  1  0.92534306  0.59756130  0.92068048  1
  Cu+  Cu129  1  0.07187510  0.59610777  0.41048324  1
  Cu+  Cu130  1  0.74568285  0.92784623  0.40535375  1
  Cu+  Cu131  1  0.73560529  0.07416398  0.59595117  1
  Cu+  Cu132  1  0.93205055  0.07083899  0.74049997  1
  Te2-  Te133  1  0.25326219  0.25384890  0.07784953  1
  Te2-  Te134  1  0.25318199  0.25361316  0.41646886  1
  Te2-  Te135  1  0.25085354  0.25125081  0.74969383  1
  Te2-  Te136  1  0.25366069  0.58395245  0.08375254  1
  Te2-  Te137  1  0.25490611  0.58735034  0.41390239  1
  Te2-  Te138  1  0.25636770  0.58788137  0.75228519  1
  Te2-  Te139  1  0.25746747  0.91855918  0.08170048  1
  Te2-  Te140  1  0.25093927  0.92069810  0.41630247  1
  Te2-  Te141  1  0.24939001  0.91488007  0.74339558  1
  Te2-  Te142  1  0.58624111  0.25299378  0.08077136  1
  Te2-  Te143  1  0.58700432  0.25734934  0.41488258  1
  Te2-  Te144  1  0.58826843  0.25153520  0.75095478  1
  Te2-  Te145  1  0.57980568  0.58734974  0.08008626  1
  Te2-  Te146  1  0.58741463  0.58490815  0.40849223  1
  Te2-  Te147  1  0.58859084  0.58608274  0.74518679  1
  Te2-  Te148  1  0.58628256  0.91626021  0.08208882  1
  Te2-  Te149  1  0.58762193  0.92515666  0.40692375  1
  Te2-  Te150  1  0.58336157  0.92155227  0.74650459  1
  Te2-  Te151  1  0.91677658  0.25183882  0.07999489  1
  Te2-  Te152  1  0.92248036  0.24895334  0.41535572  1
  Te2-  Te153  1  0.91783633  0.24981076  0.74519043  1
  Te2-  Te154  1  0.91934465  0.59217140  0.07888515  1
  Te2-  Te155  1  0.92072907  0.58557186  0.41134134  1
  Te2-  Te156  1  0.91795236  0.58447001  0.74594248  1
  Te2-  Te157  1  0.92144312  0.92297017  0.07736982  1
  Te2-  Te158  1  0.92156796  0.91969391  0.41766981  1
  Te2-  Te159  1  0.91823648  0.91865255  0.74571472  1
  Te2-  Te160  1  0.25237183  0.08383214  0.25441903  1
  Te2-  Te161  1  0.25324621  0.08055729  0.58627464  1
  Te2-  Te162  1  0.25674537  0.07839788  0.92007170  1
  Te2-  Te163  1  0.24764522  0.41286919  0.26265764  1
  Te2-  Te164  1  0.25297480  0.41505639  0.58782330  1
  Te2-  Te165  1  0.25161802  0.41399059  0.91770168  1
  Te2-  Te166  1  0.25108338  0.74324341  0.25190600  1
  Te2-  Te167  1  0.25577230  0.74790904  0.58911636  1
  Te2-  Te168  1  0.25224480  0.74639711  0.91901929  1
  Te2-  Te169  1  0.58741177  0.08296302  0.25221433  1
  Te2-  Te170  1  0.58449296  0.08083377  0.58981533  1
  Te2-  Te171  1  0.58431692  0.07793905  0.92353961  1
  Te2-  Te172  1  0.58365627  0.41315599  0.25061917  1
  Te2-  Te173  1  0.58558896  0.41737309  0.58498520  1
  Te2-  Te174  1  0.58892582  0.41255931  0.91688463  1
  Te2-  Te175  1  0.59237286  0.73777474  0.25362909  1
  Te2-  Te176  1  0.58908824  0.74900112  0.58225624  1
  Te2-  Te177  1  0.58531129  0.74948505  0.92016926  1
  Te2-  Te178  1  0.92241977  0.08589494  0.25688284  1
  Te2-  Te179  1  0.92432027  0.07473352  0.58329456  1
  Te2-  Te180  1  0.91897865  0.08113524  0.91959509  1
  Te2-  Te181  1  0.91825452  0.41889265  0.24902227  1
  Te2-  Te182  1  0.92144402  0.41100782  0.58339496  1
  Te2-  Te183  1  0.91835228  0.40996200  0.91739805  1
  Te2-  Te184  1  0.92112718  0.75055313  0.25175014  1
  Te2-  Te185  1  0.91402915  0.74402566  0.58712387  1
  Te2-  Te186  1  0.91728478  0.75107736  0.91964391  1
  Te2-  Te187  1  0.08174882  0.25550701  0.25192791  1
  Te2-  Te188  1  0.08169238  0.25224234  0.58715182  1
  Te2-  Te189  1  0.08025014  0.24803310  0.91923488  1
  Te2-  Te190  1  0.07783530  0.58959073  0.25513152  1
  Te2-  Te191  1  0.07714410  0.58462243  0.59079625  1
  Te2-  Te192  1  0.07976671  0.59033703  0.92112390  1
  Te2-  Te193  1  0.08695508  0.92171007  0.25467276  1
  Te2-  Te194  1  0.08028533  0.91944673  0.58519077  1
  Te2-  Te195  1  0.07782716  0.91815668  0.91881926  1
  Te2-  Te196  1  0.41258068  0.25091878  0.25399672  1
  Te2-  Te197  1  0.41570966  0.25463128  0.58832655  1
  Te2-  Te198  1  0.41382171  0.25298287  0.91869295  1
  Te2-  Te199  1  0.40248501  0.58230440  0.25206455  1
  Te2-  Te200  1  0.41860790  0.59092216  0.58675691  1
  Te2-  Te201  1  0.41784832  0.58657583  0.91901229  1
  Te2-  Te202  1  0.41449284  0.91748512  0.25324804  1
  Te2-  Te203  1  0.41722181  0.91681235  0.58093681  1
  Te2-  Te204  1  0.41478335  0.92015124  0.92161928  1
  Te2-  Te205  1  0.74642524  0.25668328  0.25180079  1
  Te2-  Te206  1  0.75092939  0.24836324  0.58743044  1
  Te2-  Te207  1  0.74824412  0.25268537  0.91835785  1
  Te2-  Te208  1  0.74515061  0.58694733  0.25148132  1
  Te2-  Te209  1  0.74958036  0.58158166  0.58616295  1
  Te2-  Te210  1  0.74582488  0.58576688  0.91827507  1
  Te2-  Te211  1  0.74566527  0.92928238  0.25260146  1
  Te2-  Te212  1  0.74244466  0.91535046  0.58786513  1
  Te2-  Te213  1  0.74453052  0.91985436  0.91812364  1
  Te2-  Te214  1  0.07849255  0.08176994  0.08283215  1
  Te2-  Te215  1  0.08293393  0.08141500  0.41389439  1
  Te2-  Te216  1  0.08445665  0.07645806  0.74676837  1
  Te2-  Te217  1  0.07933598  0.41345919  0.08368812  1
  Te2-  Te218  1  0.08375914  0.41290188  0.41757159  1
  Te2-  Te219  1  0.08210615  0.41807224  0.74959968  1
  Te2-  Te220  1  0.08045877  0.75217497  0.08016969  1
  Te2-  Te221  1  0.07730441  0.74752960  0.41221470  1
  Te2-  Te222  1  0.07509354  0.74354977  0.74921022  1
  Te2-  Te223  1  0.41666526  0.08030134  0.08054679  1
  Te2-  Te224  1  0.41286955  0.08534812  0.41720357  1
  Te2-  Te225  1  0.41528762  0.08176899  0.74764473  1
  Te2-  Te226  1  0.40878818  0.41028669  0.07304151  1
  Te2-  Te227  1  0.41127351  0.41516155  0.41782884  1
  Te2-  Te228  1  0.41664643  0.41510294  0.74825451  1
  Te2-  Te229  1  0.41513170  0.74372345  0.08000468  1
  Te2-  Te230  1  0.41222377  0.74460394  0.41014423  1
  Te2-  Te231  1  0.41226961  0.74901663  0.74772692  1
  Te2-  Te232  1  0.74741122  0.07857834  0.08491271  1
  Te2-  Te233  1  0.74674886  0.07850559  0.40827417  1
  Te2-  Te234  1  0.74147341  0.07789168  0.74689775  1
  Te2-  Te235  1  0.75001281  0.41564909  0.07671452  1
  Te2-  Te236  1  0.74771234  0.41138293  0.41198643  1
  Te2-  Te237  1  0.74732969  0.41227099  0.74588461  1
  Te2-  Te238  1  0.74699688  0.75335601  0.07969560  1
  Te2-  Te239  1  0.74838188  0.74191233  0.40943471  1
  Te2-  Te240  1  0.74781925  0.74580958  0.74675480  1
