# generated using pymatgen
data_Ti27(Cu53Te54)2
_symmetry_space_group_name_H-M   'P 1'
_cell_length_a   17.87503661
_cell_length_b   17.86942223
_cell_length_c   17.87215371
_cell_angle_alpha   90.02115031
_cell_angle_beta   89.98161514
_cell_angle_gamma   89.99743470
_symmetry_Int_Tables_number   1
_chemical_formula_structural   Ti27(Cu53Te54)2
_chemical_formula_sum   'Ti27 Cu106 Te108'
_cell_volume   5708.66146491
_cell_formula_units_Z   1
loop_
 _symmetry_equiv_pos_site_id
 _symmetry_equiv_pos_as_xyz
  1  'x, y, z'
loop_
 _atom_type_symbol
 _atom_type_oxidation_number
  Ti4+  4.0
  Cu+  1.0
  Te2-  -2.0
loop_
 _atom_site_type_symbol
 _atom_site_label
 _atom_site_symmetry_multiplicity
 _atom_site_fract_x
 _atom_site_fract_y
 _atom_site_fract_z
 _atom_site_occupancy
  Ti4+  Ti0  1  0.17077178  0.16767284  0.16841345  1
  Ti4+  Ti1  1  0.16367966  0.16815943  0.49514885  1
  Ti4+  Ti2  1  0.16519707  0.16840004  0.83254770  1
  Ti4+  Ti3  1  0.16609158  0.49947136  0.16569785  1
  Ti4+  Ti4  1  0.16879192  0.49802809  0.49868370  1
  Ti4+  Ti5  1  0.16809442  0.50004711  0.83299990  1
  Ti4+  Ti6  1  0.16800476  0.83436810  0.16362485  1
  Ti4+  Ti7  1  0.16658820  0.83177142  0.50043296  1
  Ti4+  Ti8  1  0.16542566  0.83499495  0.83328026  1
  Ti4+  Ti9  1  0.49971403  0.16611550  0.16704841  1
  Ti4+  Ti10  1  0.49723976  0.16694807  0.50457663  1
  Ti4+  Ti11  1  0.50433710  0.16915668  0.83313145  1
  Ti4+  Ti12  1  0.49892086  0.50172546  0.16794323  1
  Ti4+  Ti13  1  0.50045492  0.49843818  0.50052591  1
  Ti4+  Ti14  1  0.49959457  0.49979717  0.83359634  1
  Ti4+  Ti15  1  0.49847908  0.83517890  0.16766473  1
  Ti4+  Ti16  1  0.49895848  0.83104991  0.50069608  1
  Ti4+  Ti17  1  0.49917909  0.83374590  0.83272930  1
  Ti4+  Ti18  1  0.83382977  0.16148760  0.16750358  1
  Ti4+  Ti19  1  0.83424213  0.16667873  0.49918827  1
  Ti4+  Ti20  1  0.83209079  0.16542015  0.83459382  1
  Ti4+  Ti21  1  0.83188037  0.49994365  0.16682470  1
  Ti4+  Ti22  1  0.83564260  0.49852112  0.50031490  1
  Ti4+  Ti23  1  0.83491061  0.50030954  0.83398935  1
  Ti4+  Ti24  1  0.83228766  0.83502704  0.16590349  1
  Ti4+  Ti25  1  0.83323874  0.83166093  0.49888768  1
  Ti4+  Ti26  1  0.83251223  0.83535608  0.83267476  1
  Cu+  Cu27  1  0.17261485  0.16999382  -0.00279371  1
  Cu+  Cu28  1  0.15739498  0.16668050  0.33102542  1
  Cu+  Cu29  1  0.16416897  0.16801154  0.66356069  1
  Cu+  Cu30  1  0.16405498  0.49736389  -0.00026986  1
  Cu+  Cu31  1  0.16818258  0.49995644  0.32997043  1
  Cu+  Cu32  1  0.16953262  0.49879983  0.66636473  1
  Cu+  Cu33  1  0.16506241  0.83324996  -0.00165082  1
  Cu+  Cu34  1  0.16915758  0.83274325  0.33432192  1
  Cu+  Cu35  1  0.16509647  0.83287766  0.66739315  1
  Cu+  Cu36  1  0.49997069  0.17248152  0.00193970  1
  Cu+  Cu37  1  0.49653735  0.16396016  0.33640669  1
  Cu+  Cu38  1  0.50804662  0.16764263  0.66928200  1
  Cu+  Cu39  1  0.50093573  0.50285620  0.00158568  1
  Cu+  Cu40  1  0.49788454  0.50271120  0.33293183  1
  Cu+  Cu41  1  0.49808523  0.49650034  0.67005884  1
  Cu+  Cu42  1  0.49764615  0.83569193  -0.00089035  1
  Cu+  Cu43  1  0.50153760  0.83054994  0.33628807  1
  Cu+  Cu44  1  0.50042720  0.83125989  0.66380007  1
  Cu+  Cu45  1  0.82733651  0.16524556  0.00154732  1
  Cu+  Cu46  1  0.83463930  0.15692868  0.33427320  1
  Cu+  Cu47  1  0.83919926  0.16658575  0.66891846  1
  Cu+  Cu48  1  0.83125022  0.49896246  0.00017737  1
  Cu+  Cu49  1  0.83077796  0.49906569  0.33380577  1
  Cu+  Cu50  1  0.83838129  0.50143925  0.66678855  1
  Cu+  Cu51  1  0.83488094  0.83849930  -0.00011171  1
  Cu+  Cu52  1  0.83334557  0.83228544  0.33131045  1
  Cu+  Cu53  1  0.83182364  0.83204934  0.66366964  1
  Cu+  Cu54  1  0.17436401  -0.00153413  0.17149414  1
  Cu+  Cu55  1  0.16518513  -0.00120700  0.50027295  1
  Cu+  Cu56  1  0.16472150  0.00147830  0.83088295  1
  Cu+  Cu57  1  0.16977629  0.33575824  0.16442555  1
  Cu+  Cu58  1  0.16640592  0.32963608  0.49581600  1
  Cu+  Cu59  1  0.16577460  0.33515310  0.83860568  1
  Cu+  Cu60  1  0.16426124  0.66642680  0.16448208  1
  Cu+  Cu61  1  0.16926824  0.66628397  0.49993242  1
  Cu+  Cu62  1  0.16732565  0.66874147  0.83245554  1
  Cu+  Cu63  1  0.49343213  -0.00111622  0.16590379  1
  Cu+  Cu64  1  0.49826544  -0.00407393  0.50184336  1
  Cu+  Cu65  1  0.50290942  0.00285912  0.83127598  1
  Cu+  Cu66  1  0.50007544  0.33614841  0.16597862  1
  Cu+  Cu67  1  0.49486375  0.33178699  0.50772319  1
  Cu+  Cu68  1  0.50824356  0.33803279  0.82790424  1
  Cu+  Cu69  1  0.49879635  0.66938745  0.16781766  1
  Cu+  Cu70  1  0.49982109  0.66482371  0.49682477  1
  Cu+  Cu71  1  0.49706201  0.66736241  0.83290184  1
  Cu+  Cu72  1  0.82976071  -0.00095041  0.17076837  1
  Cu+  Cu73  1  0.83324929  -0.00228484  0.49681429  1
  Cu+  Cu74  1  0.83691528  -0.00084516  0.83756934  1
  Cu+  Cu75  1  0.83520808  0.32904837  0.16529883  1
  Cu+  Cu76  1  0.83710345  0.33266371  0.50543103  1
  Cu+  Cu77  1  0.82716885  0.33693966  0.83949490  1
  Cu+  Cu78  1  0.83124740  0.66884593  0.16459880  1
  Cu+  Cu79  1  0.83332385  0.66519851  0.49767567  1
  Cu+  Cu80  1  0.83450997  0.66722099  0.83083216  1
  Cu+  Cu81  1  0.00398910  0.16291250  0.16820334  1
  Cu+  Cu82  1  -0.00345771  0.16970845  0.49238692  1
  Cu+  Cu83  1  -0.00209615  0.16595558  0.82859037  1
  Cu+  Cu84  1  -0.00207480  0.50034698  0.16571606  1
  Cu+  Cu85  1  0.00201535  0.49901186  0.49953584  1
  Cu+  Cu86  1  0.00275863  0.49743732  0.83497831  1
  Cu+  Cu87  1  -0.00111509  0.83336122  0.16417432  1
  Cu+  Cu88  1  0.00202198  0.83108350  0.49945003  1
  Cu+  Cu89  1  -0.00095908  0.83735132  0.83581652  1
  Cu+  Cu90  1  0.33903626  0.16541174  0.16698779  1
  Cu+  Cu91  1  0.33106960  0.17366207  0.49735707  1
  Cu+  Cu92  1  0.33326136  0.17294130  0.83486532  1
  Cu+  Cu93  1  0.33030752  0.50141098  0.16648422  1
  Cu+  Cu94  1  0.33622842  0.49817425  0.49961371  1
  Cu+  Cu95  1  0.33504554  0.50398012  0.83042926  1
  Cu+  Cu96  1  0.33220879  0.84039096  0.16592645  1
  Cu+  Cu97  1  0.33295586  0.83065377  0.50147331  1
  Cu+  Cu98  1  0.33001733  0.83434749  0.83257237  1
  Cu+  Cu99  1  0.66873654  0.16370334  0.16844200  1
  Cu+  Cu100  1  0.66391283  0.16804940  0.50480376  1
  Cu+  Cu101  1  0.66761846  0.15805446  0.83336069  1
  Cu+  Cu102  1  0.66200245  0.50038680  0.16867882  1
  Cu+  Cu103  1  0.67426957  0.50208859  0.49710979  1
  Cu+  Cu104  1  0.66725612  0.49774288  0.83393236  1
  Cu+  Cu105  1  0.66486724  0.83438104  0.16545161  1
  Cu+  Cu106  1  0.66477773  0.83119683  0.50033578  1
  Cu+  Cu107  1  0.66527080  0.83196313  0.83205464  1
  Cu+  Cu108  1  0.73569188  0.07119203  0.26483550  1
  Cu+  Cu109  1  0.73489367  0.41536126  0.93159872  1
  Cu+  Cu110  1  0.60045273  0.41623297  0.73606557  1
  Cu+  Cu111  1  0.40985706  0.26610800  0.07425883  1
  Cu+  Cu112  1  0.25557985  0.25559858  0.59318160  1
  Cu+  Cu113  1  0.07124323  0.40631692  0.92901870  1
  Cu+  Cu114  1  0.59574569  0.26161080  0.59203636  1
  Cu+  Cu115  1  0.92624106  0.06622253  0.40812929  1
  Cu+  Cu116  1  0.40959010  0.07226687  0.26477610  1
  Cu+  Cu117  1  0.26197330  0.26460587  0.92575153  1
  Cu+  Cu118  1  0.74612681  0.59609742  0.40312721  1
  Cu+  Cu119  1  0.40549659  0.59846740  0.74214846  1
  Cu+  Cu120  1  0.26073755  0.92161360  0.26702742  1
  Cu+  Cu121  1  0.06694335  0.26526705  0.40124650  1
  Cu+  Cu122  1  0.40599741  0.59451521  0.40439351  1
  Cu+  Cu123  1  0.73901044  0.06853155  0.92798518  1
  Cu+  Cu124  1  0.92739390  0.06914402  0.74021086  1
  Cu+  Cu125  1  0.74205030  0.25847729  0.07864088  1
  Cu+  Cu126  1  0.40432374  0.40958388  0.59762865  1
  Cu+  Cu127  1  0.93065340  0.92656681  0.93170881  1
  Cu+  Cu128  1  0.59371730  0.06765314  0.73754013  1
  Cu+  Cu129  1  0.40414051  0.92437061  0.06612564  1
  Cu+  Cu130  1  0.92673617  0.26186093  0.59907423  1
  Cu+  Cu131  1  0.07605370  0.06682788  0.25277293  1
  Cu+  Cu132  1  0.40907469  0.26054977  0.40501361  1
  Te2-  Te133  1  0.25734968  0.25528679  0.08129438  1
  Te2-  Te134  1  0.25116658  0.25299149  0.40497432  1
  Te2-  Te135  1  0.24989182  0.25588001  0.74665067  1
  Te2-  Te136  1  0.24982989  0.58527610  0.07902123  1
  Te2-  Te137  1  0.25356509  0.58466907  0.41327767  1
  Te2-  Te138  1  0.25162256  0.58859007  0.74509622  1
  Te2-  Te139  1  0.25126144  0.92312673  0.07440493  1
  Te2-  Te140  1  0.25476297  0.92046449  0.41731997  1
  Te2-  Te141  1  0.25044840  0.92017332  0.74657490  1
  Te2-  Te142  1  0.58839210  0.25360557  0.08390877  1
  Te2-  Te143  1  0.58216165  0.25227312  0.41709491  1
  Te2-  Te144  1  0.59621157  0.25555654  0.74745440  1
  Te2-  Te145  1  0.58417426  0.58823631  0.08288113  1
  Te2-  Te146  1  0.58766051  0.58402496  0.41369333  1
  Te2-  Te147  1  0.58668926  0.58463150  0.74801403  1
  Te2-  Te148  1  0.58393852  0.92080437  0.08181019  1
  Te2-  Te149  1  0.58465796  0.91804867  0.41595857  1
  Te2-  Te150  1  0.58629403  0.91707422  0.74481909  1
  Te2-  Te151  1  0.92110956  0.24509669  0.08130436  1
  Te2-  Te152  1  0.91400080  0.25593511  0.40693104  1
  Te2-  Te153  1  0.91654205  0.25937138  0.75265671  1
  Te2-  Te154  1  0.91550855  0.58513428  0.08063177  1
  Te2-  Te155  1  0.92087283  0.58357634  0.41338437  1
  Te2-  Te156  1  0.92268697  0.58457089  0.75037879  1
  Te2-  Te157  1  0.92032023  0.92423351  0.08351273  1
  Te2-  Te158  1  0.92124327  0.91527728  0.41189436  1
  Te2-  Te159  1  0.91914281  0.91851647  0.74325956  1
  Te2-  Te160  1  0.25702015  0.08273045  0.25879279  1
  Te2-  Te161  1  0.25068927  0.08393554  0.58145143  1
  Te2-  Te162  1  0.25279037  0.08117300  0.91459368  1
  Te2-  Te163  1  0.25349608  0.41413631  0.25157493  1
  Te2-  Te164  1  0.25310172  0.40969987  0.58666333  1
  Te2-  Te165  1  0.25830504  0.41712762  0.92016429  1
  Te2-  Te166  1  0.25267547  0.74787716  0.24836595  1
  Te2-  Te167  1  0.25141650  0.74721283  0.58741994  1
  Te2-  Te168  1  0.25152903  0.74890578  0.91873084  1
  Te2-  Te169  1  0.58330529  0.07859806  0.25427826  1
  Te2-  Te170  1  0.58599049  0.07547510  0.58519244  1
  Te2-  Te171  1  0.58345958  0.08095520  0.92482164  1
  Te2-  Te172  1  0.58306752  0.41491267  0.25463897  1
  Te2-  Te173  1  0.59268298  0.41410901  0.58491180  1
  Te2-  Te174  1  0.58451786  0.41389974  0.92484417  1
  Te2-  Te175  1  0.58530685  0.74903370  0.25160177  1
  Te2-  Te176  1  0.58497001  0.74392654  0.58458951  1
  Te2-  Te177  1  0.58250670  0.74849163  0.91856459  1
  Te2-  Te178  1  0.92377722  0.07371011  0.25322267  1
  Te2-  Te179  1  0.92172145  0.07900973  0.58348210  1
  Te2-  Te180  1  0.92169997  0.08396589  0.92373470  1
  Te2-  Te181  1  0.91645883  0.41393135  0.25130341  1
  Te2-  Te182  1  0.92451177  0.41506330  0.58871591  1
  Te2-  Te183  1  0.91938895  0.41279741  0.92202946  1
  Te2-  Te184  1  0.91846604  0.74807217  0.24964141  1
  Te2-  Te185  1  0.91839527  0.74620314  0.58340917  1
  Te2-  Te186  1  0.91692247  0.74909854  0.91833632  1
  Te2-  Te187  1  0.07998195  0.25792639  0.24742294  1
  Te2-  Te188  1  0.07686638  0.25300117  0.58425827  1
  Te2-  Te189  1  0.07605483  0.25026429  0.92070694  1
  Te2-  Te190  1  0.08052439  0.58510076  0.25104621  1
  Te2-  Te191  1  0.08484967  0.58305632  0.58364310  1
  Te2-  Te192  1  0.08286187  0.58676398  0.91768243  1
  Te2-  Te193  1  0.07993077  0.91629116  0.25285208  1
  Te2-  Te194  1  0.08062290  0.91782871  0.58547515  1
  Te2-  Te195  1  0.08158415  0.92396443  0.92132700  1
  Te2-  Te196  1  0.41489077  0.25566590  0.25304052  1
  Te2-  Te197  1  0.41021140  0.25114762  0.59667684  1
  Te2-  Te198  1  0.41831634  0.26025746  0.91747878  1
  Te2-  Te199  1  0.41089224  0.58877319  0.25120514  1
  Te2-  Te200  1  0.41514329  0.58584431  0.58779800  1
  Te2-  Te201  1  0.41458862  0.58573157  0.92064890  1
  Te2-  Te202  1  0.41338495  0.92002827  0.26170126  1
  Te2-  Te203  1  0.41274219  0.91672747  0.58658872  1
  Te2-  Te204  1  0.41254506  0.92316197  0.91419898  1
  Te2-  Te205  1  0.75069497  0.24798776  0.25525138  1
  Te2-  Te206  1  0.74937590  0.25142768  0.58935443  1
  Te2-  Te207  1  0.74146493  0.25310765  0.92049598  1
  Te2-  Te208  1  0.74569112  0.58709182  0.25041259  1
  Te2-  Te209  1  0.75116979  0.58519863  0.58775276  1
  Te2-  Te210  1  0.74751743  0.58672218  0.91703628  1
  Te2-  Te211  1  0.74355467  0.91771525  0.25544813  1
  Te2-  Te212  1  0.74729134  0.91819578  0.58320567  1
  Te2-  Te213  1  0.74262663  0.91861222  0.91933653  1
  Te2-  Te214  1  0.08945940  0.08145625  0.08101131  1
  Te2-  Te215  1  0.07843289  0.07405758  0.41217994  1
  Te2-  Te216  1  0.08110473  0.08110411  0.74371185  1
  Te2-  Te217  1  0.07766323  0.41129028  0.08157754  1
  Te2-  Te218  1  0.08137299  0.41560463  0.41119461  1
  Te2-  Te219  1  0.08353823  0.41360014  0.74677320  1
  Te2-  Te220  1  0.08056042  0.74911292  0.08001170  1
  Te2-  Te221  1  0.08349689  0.74598241  0.41303390  1
  Te2-  Te222  1  0.07853980  0.74947787  0.74971633  1
  Te2-  Te223  1  0.41375294  0.08117781  0.07544618  1
  Te2-  Te224  1  0.41078551  0.07783946  0.42026760  1
  Te2-  Te225  1  0.41476473  0.08700832  0.74918391  1
  Te2-  Te226  1  0.41270982  0.41769203  0.07958350  1
  Te2-  Te227  1  0.41498651  0.41169880  0.41231727  1
  Te2-  Te228  1  0.40976578  0.40908418  0.74987216  1
  Te2-  Te229  1  0.41206719  0.75015323  0.08253468  1
  Te2-  Te230  1  0.41125755  0.74637193  0.41267396  1
  Te2-  Te231  1  0.41190749  0.75001983  0.74575955  1
  Te2-  Te232  1  0.74417637  0.07455307  0.08122114  1
  Te2-  Te233  1  0.74128484  0.08028795  0.41835106  1
  Te2-  Te234  1  0.75041797  0.07697641  0.74386081  1
  Te2-  Te235  1  0.74297898  0.41193789  0.08259485  1
  Te2-  Te236  1  0.75056521  0.40878685  0.41665466  1
  Te2-  Te237  1  0.75118093  0.41425927  0.74328329  1
  Te2-  Te238  1  0.74742720  0.75168598  0.07873115  1
  Te2-  Te239  1  0.74591116  0.74796730  0.41189505  1
  Te2-  Te240  1  0.74818436  0.74824172  0.74749260  1
