# generated using pymatgen
data_Ti27(Cu53Te54)2
_symmetry_space_group_name_H-M   'P 1'
_cell_length_a   17.87861918
_cell_length_b   17.87597334
_cell_length_c   17.87807329
_cell_angle_alpha   89.97696268
_cell_angle_beta   90.00124526
_cell_angle_gamma   90.02420317
_symmetry_Int_Tables_number   1
_chemical_formula_structural   Ti27(Cu53Te54)2
_chemical_formula_sum   'Ti27 Cu106 Te108'
_cell_volume   5713.79048435
_cell_formula_units_Z   1
loop_
 _symmetry_equiv_pos_site_id
 _symmetry_equiv_pos_as_xyz
  1  'x, y, z'
loop_
 _atom_type_symbol
 _atom_type_oxidation_number
  Ti4+  4.0
  Cu+  1.0
  Te2-  -2.0
loop_
 _atom_site_type_symbol
 _atom_site_label
 _atom_site_symmetry_multiplicity
 _atom_site_fract_x
 _atom_site_fract_y
 _atom_site_fract_z
 _atom_site_occupancy
  Ti4+  Ti0  1  0.16730431  0.16821049  0.16700206  1
  Ti4+  Ti1  1  0.16794946  0.16890053  0.50103644  1
  Ti4+  Ti2  1  0.16627279  0.16507664  0.83435198  1
  Ti4+  Ti3  1  0.16678416  0.50080927  0.16838670  1
  Ti4+  Ti4  1  0.16901487  0.50290234  0.50173081  1
  Ti4+  Ti5  1  0.16260616  0.49907715  0.83394378  1
  Ti4+  Ti6  1  0.16711723  0.83534564  0.16587008  1
  Ti4+  Ti7  1  0.16269208  0.83497544  0.49891542  1
  Ti4+  Ti8  1  0.16945584  0.83317740  0.83328008  1
  Ti4+  Ti9  1  0.50310915  0.16803407  0.16457622  1
  Ti4+  Ti10  1  0.50015190  0.16212507  0.50041014  1
  Ti4+  Ti11  1  0.50187104  0.16906032  0.82998343  1
  Ti4+  Ti12  1  0.50055038  0.50112914  0.16627352  1
  Ti4+  Ti13  1  0.49957874  0.49877727  0.50079917  1
  Ti4+  Ti14  1  0.49558060  0.49891021  0.83283121  1
  Ti4+  Ti15  1  0.50077288  0.82880728  0.16839261  1
  Ti4+  Ti16  1  0.49869455  0.83534737  0.50248514  1
  Ti4+  Ti17  1  0.50289873  0.83568584  0.83573159  1
  Ti4+  Ti18  1  0.83404298  0.16735906  0.16761906  1
  Ti4+  Ti19  1  0.83123121  0.16587317  0.49764259  1
  Ti4+  Ti20  1  0.83299137  0.16626073  0.83494373  1
  Ti4+  Ti21  1  0.83549005  0.50130805  0.16611876  1
  Ti4+  Ti22  1  0.83591470  0.49726395  0.49981706  1
  Ti4+  Ti23  1  0.83159962  0.50039429  0.83348669  1
  Ti4+  Ti24  1  0.83079726  0.83498683  0.16627322  1
  Ti4+  Ti25  1  0.83132125  0.83167761  0.49720145  1
  Ti4+  Ti26  1  0.83541904  0.83290610  0.83420695  1
  Cu+  Cu27  1  0.16897497  0.16556615  0.00139596  1
  Cu+  Cu28  1  0.16863390  0.16998553  0.33475611  1
  Cu+  Cu29  1  0.16415835  0.16653928  0.66896279  1
  Cu+  Cu30  1  0.16269450  0.49987670  0.00081428  1
  Cu+  Cu31  1  0.17000768  0.50458544  0.33527317  1
  Cu+  Cu32  1  0.16242010  0.49819173  0.66589562  1
  Cu+  Cu33  1  0.17477928  0.83154766  0.00107818  1
  Cu+  Cu34  1  0.16238311  0.83224532  0.32955104  1
  Cu+  Cu35  1  0.16468768  0.83819087  0.66410494  1
  Cu+  Cu36  1  0.50403912  0.17197510  -0.00328368  1
  Cu+  Cu37  1  0.49620551  0.16037889  0.32790449  1
  Cu+  Cu38  1  0.50429363  0.16815612  0.66616541  1
  Cu+  Cu39  1  0.49477576  0.50132654  0.00014012  1
  Cu+  Cu40  1  0.50083005  0.50116445  0.33123748  1
  Cu+  Cu41  1  0.49878992  0.49626619  0.66669282  1
  Cu+  Cu42  1  0.50391466  0.83023893  0.00235887  1
  Cu+  Cu43  1  0.50013327  0.82949821  0.33908798  1
  Cu+  Cu44  1  0.50061781  0.83943400  0.67018940  1
  Cu+  Cu45  1  0.83429828  0.16659730  0.00225850  1
  Cu+  Cu46  1  0.82885853  0.16953521  0.33388716  1
  Cu+  Cu47  1  0.83251793  0.16508936  0.66503955  1
  Cu+  Cu48  1  0.83452023  0.50556507  -0.00113517  1
  Cu+  Cu49  1  0.83651723  0.49894117  0.33216373  1
  Cu+  Cu50  1  0.83715228  0.49476116  0.66819631  1
  Cu+  Cu51  1  0.83484047  0.83406338  -0.00048942  1
  Cu+  Cu52  1  0.82723350  0.83634857  0.32985754  1
  Cu+  Cu53  1  0.83502675  0.83016800  0.66840221  1
  Cu+  Cu54  1  0.16574658  0.00191458  0.16581935  1
  Cu+  Cu55  1  0.16734922  0.00220854  0.50340897  1
  Cu+  Cu56  1  0.16747399  -0.00119718  0.83419306  1
  Cu+  Cu57  1  0.16843078  0.33297866  0.16922864  1
  Cu+  Cu58  1  0.17003779  0.33710240  0.50225458  1
  Cu+  Cu59  1  0.16398660  0.33143999  0.83594932  1
  Cu+  Cu60  1  0.16760866  0.66970375  0.16466988  1
  Cu+  Cu61  1  0.16245505  0.66656700  0.49465374  1
  Cu+  Cu62  1  0.16535134  0.66587504  0.83265624  1
  Cu+  Cu63  1  0.50031641  0.00059682  0.16760205  1
  Cu+  Cu64  1  0.49966550  -0.00512077  0.50315210  1
  Cu+  Cu65  1  0.50005517  0.00062878  0.82804496  1
  Cu+  Cu66  1  0.50252641  0.33600888  0.16418185  1
  Cu+  Cu67  1  0.49957252  0.32843030  0.50225590  1
  Cu+  Cu68  1  0.50135196  0.33451746  0.82787064  1
  Cu+  Cu69  1  0.50293576  0.66529272  0.16328893  1
  Cu+  Cu70  1  0.49984571  0.66689381  0.50251724  1
  Cu+  Cu71  1  0.49708116  0.66596912  0.83597839  1
  Cu+  Cu72  1  0.83556822  0.00080496  0.17065338  1
  Cu+  Cu73  1  0.82817393  -0.00028497  0.49580495  1
  Cu+  Cu74  1  0.83439413  -0.00042227  0.83494439  1
  Cu+  Cu75  1  0.83572605  0.33576240  0.16531822  1
  Cu+  Cu76  1  0.83115698  0.33022473  0.49532533  1
  Cu+  Cu77  1  0.83145660  0.33279204  0.83126793  1
  Cu+  Cu78  1  0.83017367  0.66752472  0.16612881  1
  Cu+  Cu79  1  0.83570599  0.66273291  0.50163153  1
  Cu+  Cu80  1  0.83539860  0.66590665  0.83811560  1
  Cu+  Cu81  1  0.00113831  0.16672109  0.16872214  1
  Cu+  Cu82  1  -0.00203439  0.16725010  0.50261646  1
  Cu+  Cu83  1  -0.00039139  0.16538359  0.83569312  1
  Cu+  Cu84  1  0.00117585  0.50097945  0.16679774  1
  Cu+  Cu85  1  0.00430771  0.50103682  0.50287865  1
  Cu+  Cu86  1  -0.00494629  0.50096687  0.83432638  1
  Cu+  Cu87  1  -0.00126697  0.83796599  0.16718362  1
  Cu+  Cu88  1  -0.00344992  0.83195576  0.49773987  1
  Cu+  Cu89  1  0.00341818  0.83421418  0.83090146  1
  Cu+  Cu90  1  0.33749081  0.16817105  0.16504089  1
  Cu+  Cu91  1  0.32956780  0.15890868  0.49498386  1
  Cu+  Cu92  1  0.33450746  0.16793109  0.82951507  1
  Cu+  Cu93  1  0.33582753  0.50331723  0.16868960  1
  Cu+  Cu94  1  0.33487901  0.49814512  0.49887182  1
  Cu+  Cu95  1  0.32792263  0.49861030  0.83476132  1
  Cu+  Cu96  1  0.33049926  0.83003412  0.16323211  1
  Cu+  Cu97  1  0.32769149  0.83868952  0.50460287  1
  Cu+  Cu98  1  0.33606504  0.83904568  0.84037705  1
  Cu+  Cu99  1  0.66836349  0.16704427  0.16462903  1
  Cu+  Cu100  1  0.66658491  0.16969050  0.49828883  1
  Cu+  Cu101  1  0.66708376  0.16786533  0.83457910  1
  Cu+  Cu102  1  0.66772181  0.50100153  0.16490727  1
  Cu+  Cu103  1  0.66991548  0.49939464  0.50142549  1
  Cu+  Cu104  1  0.66351121  0.49956160  0.83188882  1
  Cu+  Cu105  1  0.66607783  0.82382012  0.16973693  1
  Cu+  Cu106  1  0.66689133  0.83545005  0.49524252  1
  Cu+  Cu107  1  0.67242425  0.83040773  0.83677009  1
  Cu+  Cu108  1  0.25942821  0.93138847  0.93159938  1
  Cu+  Cu109  1  0.60082801  0.91573153  0.59667450  1
  Cu+  Cu110  1  0.39985385  0.91166159  0.40218929  1
  Cu+  Cu111  1  0.59832037  0.07273443  0.74428853  1
  Cu+  Cu112  1  0.59252606  0.73545671  0.41664942  1
  Cu+  Cu113  1  0.24610238  0.07019966  0.40257797  1
  Cu+  Cu114  1  0.92591693  0.40245390  0.74634889  1
  Cu+  Cu115  1  0.74368919  0.73478940  0.26148205  1
  Cu+  Cu116  1  0.59429598  0.41333292  0.73772436  1
  Cu+  Cu117  1  0.25992239  0.73427048  0.07158120  1
  Cu+  Cu118  1  0.07177282  0.59103901  0.40389233  1
  Cu+  Cu119  1  0.07627106  0.40515287  0.59123634  1
  Cu+  Cu120  1  0.59509707  0.26450759  0.92625880  1
  Cu+  Cu121  1  0.25511744  0.93115760  0.59437127  1
  Cu+  Cu122  1  0.07048362  0.92603425  0.73837109  1
  Cu+  Cu123  1  0.40665748  0.92582265  0.74467199  1
  Cu+  Cu124  1  0.92850743  0.92878958  0.25973433  1
  Cu+  Cu125  1  0.59557471  0.25893824  0.58856879  1
  Cu+  Cu126  1  0.59684593  0.73640192  0.07017343  1
  Cu+  Cu127  1  0.26249128  0.41104632  0.40513034  1
  Cu+  Cu128  1  0.40590753  0.07189775  0.24941904  1
  Cu+  Cu129  1  0.73789668  0.93042267  0.40075184  1
  Cu+  Cu130  1  0.40138486  0.26366748  0.74026478  1
  Cu+  Cu131  1  0.92782437  0.59546569  0.92896690  1
  Cu+  Cu132  1  0.73678118  0.26493746  0.40086242  1
  Te2-  Te133  1  0.25366461  0.25237717  0.08217391  1
  Te2-  Te134  1  0.25514539  0.25595543  0.41515321  1
  Te2-  Te135  1  0.24894749  0.25428785  0.74693538  1
  Te2-  Te136  1  0.25237327  0.58383919  0.07947156  1
  Te2-  Te137  1  0.25702504  0.58937855  0.41597328  1
  Te2-  Te138  1  0.24835973  0.58273116  0.74740830  1
  Te2-  Te139  1  0.25601801  0.92511639  0.08277058  1
  Te2-  Te140  1  0.24906547  0.91974892  0.40784342  1
  Te2-  Te141  1  0.25584158  0.92245525  0.74605574  1
  Te2-  Te142  1  0.59008897  0.25593631  0.08027706  1
  Te2-  Te143  1  0.58051519  0.24899220  0.40935484  1
  Te2-  Te144  1  0.59332174  0.25688660  0.74270289  1
  Te2-  Te145  1  0.58793127  0.58407680  0.07624815  1
  Te2-  Te146  1  0.58692434  0.58347258  0.41604519  1
  Te2-  Te147  1  0.58099808  0.58610765  0.74807564  1
  Te2-  Te148  1  0.58660317  0.91639846  0.08616133  1
  Te2-  Te149  1  0.58517852  0.92316137  0.41060811  1
  Te2-  Te150  1  0.59610505  0.91914590  0.74957863  1
  Te2-  Te151  1  0.92014824  0.25192697  0.08258976  1
  Te2-  Te152  1  0.92025332  0.25032264  0.41359907  1
  Te2-  Te153  1  0.91976334  0.24910762  0.74650564  1
  Te2-  Te154  1  0.92162637  0.59054454  0.08279954  1
  Te2-  Te155  1  0.92029458  0.58461376  0.41370939  1
  Te2-  Te156  1  0.91723485  0.58710819  0.74670738  1
  Te2-  Te157  1  0.91717946  0.92072980  0.08047991  1
  Te2-  Te158  1  0.91787011  0.91922222  0.41254497  1
  Te2-  Te159  1  0.91840197  0.92053118  0.74627135  1
  Te2-  Te160  1  0.25500103  0.07915380  0.25256323  1
  Te2-  Te161  1  0.25294095  0.08294157  0.59165523  1
  Te2-  Te162  1  0.25684525  0.08250260  0.91901440  1
  Te2-  Te163  1  0.25489675  0.41578259  0.25307487  1
  Te2-  Te164  1  0.25511818  0.41629783  0.58959209  1
  Te2-  Te165  1  0.24741443  0.41425466  0.92017132  1
  Te2-  Te166  1  0.25155997  0.74876865  0.25356917  1
  Te2-  Te167  1  0.24669172  0.74734744  0.58315142  1
  Te2-  Te168  1  0.25665086  0.74293692  0.91667216  1
  Te2-  Te169  1  0.58914790  0.08099664  0.25023307  1
  Te2-  Te170  1  0.58997327  0.07604827  0.58661090  1
  Te2-  Te171  1  0.58427828  0.07976514  0.91718230  1
  Te2-  Te172  1  0.58711237  0.41595597  0.25101150  1
  Te2-  Te173  1  0.58914368  0.41180641  0.58503749  1
  Te2-  Te174  1  0.58345630  0.41570950  0.92118401  1
  Te2-  Te175  1  0.58462106  0.74098131  0.25931526  1
  Te2-  Te176  1  0.58596279  0.75075584  0.58841524  1
  Te2-  Te177  1  0.58764336  0.74491764  0.91742680  1
  Te2-  Te178  1  0.91959934  0.08373122  0.25714398  1
  Te2-  Te179  1  0.91548912  0.07868133  0.58288415  1
  Te2-  Te180  1  0.91791480  0.08136427  0.92013279  1
  Te2-  Te181  1  0.92104868  0.41492002  0.25133062  1
  Te2-  Te182  1  0.92113058  0.40768608  0.58484397  1
  Te2-  Te183  1  0.91624942  0.41279327  0.92012668  1
  Te2-  Te184  1  0.91699817  0.74930476  0.25195572  1
  Te2-  Te185  1  0.91778717  0.74796626  0.58387661  1
  Te2-  Te186  1  0.92410233  0.74994693  0.92090289  1
  Te2-  Te187  1  0.08226325  0.25231342  0.25377204  1
  Te2-  Te188  1  0.08049654  0.25247113  0.58677453  1
  Te2-  Te189  1  0.08142901  0.24898665  0.92066477  1
  Te2-  Te190  1  0.08119865  0.58955416  0.25151993  1
  Te2-  Te191  1  0.08169837  0.59000730  0.58794686  1
  Te2-  Te192  1  0.07944230  0.58709781  0.92013340  1
  Te2-  Te193  1  0.08143618  0.92320826  0.25310635  1
  Te2-  Te194  1  0.07423472  0.92237568  0.58246771  1
  Te2-  Te195  1  0.08460107  0.91593484  0.92211611  1
  Te2-  Te196  1  0.41775360  0.25492257  0.25023660  1
  Te2-  Te197  1  0.40996178  0.24653808  0.58372764  1
  Te2-  Te198  1  0.41487487  0.25430760  0.91590871  1
  Te2-  Te199  1  0.41663313  0.58876700  0.25235125  1
  Te2-  Te200  1  0.41528618  0.58353582  0.58587357  1
  Te2-  Te201  1  0.40992947  0.58471667  0.91767065  1
  Te2-  Te202  1  0.41168064  0.91593791  0.25171477  1
  Te2-  Te203  1  0.40962251  0.92399322  0.59102410  1
  Te2-  Te204  1  0.42057592  0.92349633  0.92542472  1
  Te2-  Te205  1  0.74603921  0.25663361  0.24926172  1
  Te2-  Te206  1  0.74845810  0.25358687  0.58769371  1
  Te2-  Te207  1  0.74879758  0.25402105  0.92125746  1
  Te2-  Te208  1  0.74716409  0.58369158  0.25435103  1
  Te2-  Te209  1  0.75175633  0.58164006  0.58732056  1
  Te2-  Te210  1  0.74327385  0.58531345  0.91766644  1
  Te2-  Te211  1  0.73929628  0.92288196  0.24885453  1
  Te2-  Te212  1  0.75042283  0.91728076  0.58810108  1
  Te2-  Te213  1  0.74970922  0.91914832  0.91992046  1
  Te2-  Te214  1  0.08140336  0.08291248  0.08190875  1
  Te2-  Te215  1  0.08152542  0.08310119  0.41655910  1
  Te2-  Te216  1  0.07886297  0.07971823  0.74827659  1
  Te2-  Te217  1  0.08237914  0.41387341  0.08433038  1
  Te2-  Te218  1  0.08305046  0.41550555  0.41386641  1
  Te2-  Te219  1  0.07694926  0.40995227  0.74788153  1
  Te2-  Te220  1  0.07951551  0.75210221  0.08066333  1
  Te2-  Te221  1  0.07695379  0.74944027  0.41078366  1
  Te2-  Te222  1  0.08406344  0.74852550  0.74567661  1
  Te2-  Te223  1  0.41859148  0.08326292  0.07652246  1
  Te2-  Te224  1  0.41292673  0.07318927  0.41193996  1
  Te2-  Te225  1  0.41302282  0.08161695  0.74265315  1
  Te2-  Te226  1  0.41295657  0.41543585  0.08251367  1
  Te2-  Te227  1  0.41793413  0.41128072  0.41295377  1
  Te2-  Te228  1  0.40703794  0.41445269  0.74578342  1
  Te2-  Te229  1  0.41422841  0.74550164  0.07949245  1
  Te2-  Te230  1  0.40854315  0.74883248  0.42075729  1
  Te2-  Te231  1  0.41574260  0.75152344  0.75091037  1
  Te2-  Te232  1  0.74995165  0.07984183  0.08259073  1
  Te2-  Te233  1  0.74162566  0.08151303  0.41079951  1
  Te2-  Te234  1  0.74907176  0.07966631  0.74748005  1
  Te2-  Te235  1  0.75080017  0.41717444  0.07946436  1
  Te2-  Te236  1  0.74688184  0.41606965  0.41146888  1
  Te2-  Te237  1  0.74556204  0.41272971  0.74562695  1
  Te2-  Te238  1  0.74852471  0.74628485  0.07582039  1
  Te2-  Te239  1  0.74614682  0.73967254  0.41403679  1
  Te2-  Te240  1  0.75068762  0.74520224  0.74983399  1
