# generated using pymatgen
data_Ti27(Cu53Te54)2
_symmetry_space_group_name_H-M   'P 1'
_cell_length_a   17.89698792
_cell_length_b   17.89102446
_cell_length_c   17.89994337
_cell_angle_alpha   90.01950857
_cell_angle_beta   89.98276920
_cell_angle_gamma   89.98835058
_symmetry_Int_Tables_number   1
_chemical_formula_structural   Ti27(Cu53Te54)2
_chemical_formula_sum   'Ti27 Cu106 Te108'
_cell_volume   5731.47968615
_cell_formula_units_Z   1
loop_
 _symmetry_equiv_pos_site_id
 _symmetry_equiv_pos_as_xyz
  1  'x, y, z'
loop_
 _atom_type_symbol
 _atom_type_oxidation_number
  Ti4+  4.0
  Cu+  1.0
  Te2-  -2.0
loop_
 _atom_site_type_symbol
 _atom_site_label
 _atom_site_symmetry_multiplicity
 _atom_site_fract_x
 _atom_site_fract_y
 _atom_site_fract_z
 _atom_site_occupancy
  Ti4+  Ti0  1  0.16800643  0.16395726  0.16890100  1
  Ti4+  Ti1  1  0.16047604  0.16514463  0.50027687  1
  Ti4+  Ti2  1  0.16296657  0.16456333  0.83144725  1
  Ti4+  Ti3  1  0.16760290  0.49911786  0.16661624  1
  Ti4+  Ti4  1  0.16703759  0.49598135  0.50303952  1
  Ti4+  Ti5  1  0.16443639  0.49976781  0.83447677  1
  Ti4+  Ti6  1  0.16754527  0.83531800  0.16427701  1
  Ti4+  Ti7  1  0.16692666  0.83008432  0.49944509  1
  Ti4+  Ti8  1  0.16996157  0.83148411  0.83062369  1
  Ti4+  Ti9  1  0.50221801  0.16696145  0.16738477  1
  Ti4+  Ti10  1  0.50130106  0.16779668  0.50141254  1
  Ti4+  Ti11  1  0.49834742  0.16891122  0.83449658  1
  Ti4+  Ti12  1  0.49945626  0.49719858  0.16508267  1
  Ti4+  Ti13  1  0.49949173  0.50108471  0.49643477  1
  Ti4+  Ti14  1  0.50021678  0.49944524  0.83251544  1
  Ti4+  Ti15  1  0.49918691  0.83266470  0.17133394  1
  Ti4+  Ti16  1  0.50156460  0.83417684  0.49974175  1
  Ti4+  Ti17  1  0.49916840  0.83516738  0.83628267  1
  Ti4+  Ti18  1  0.83384484  0.16725111  0.16525295  1
  Ti4+  Ti19  1  0.83510305  0.16617980  0.49551564  1
  Ti4+  Ti20  1  0.83451932  0.16920614  0.83231139  1
  Ti4+  Ti21  1  0.83485731  0.50101402  0.16741491  1
  Ti4+  Ti22  1  0.83166712  0.49796576  0.50034963  1
  Ti4+  Ti23  1  0.83105776  0.50666465  0.83483048  1
  Ti4+  Ti24  1  0.83379578  0.83417265  0.16631709  1
  Ti4+  Ti25  1  0.83415337  0.83091404  0.50025549  1
  Ti4+  Ti26  1  0.83286966  0.83605340  0.83359057  1
  Cu+  Cu27  1  0.16339593  0.16631442  0.00303696  1
  Cu+  Cu28  1  0.15763935  0.15849617  0.33272366  1
  Cu+  Cu29  1  0.16170549  0.16907859  0.66683983  1
  Cu+  Cu30  1  0.16629256  0.50109862  0.00164755  1
  Cu+  Cu31  1  0.16836452  0.49901267  0.33309363  1
  Cu+  Cu32  1  0.16847247  0.49620217  0.67067355  1
  Cu+  Cu33  1  0.17134232  0.83016572  -0.00550931  1
  Cu+  Cu34  1  0.16636155  0.83311702  0.33483874  1
  Cu+  Cu35  1  0.16889460  0.83203748  0.66374598  1
  Cu+  Cu36  1  0.50372644  0.17459306  -0.00171146  1
  Cu+  Cu37  1  0.50187364  0.16434922  0.33616694  1
  Cu+  Cu38  1  0.49972973  0.16807293  0.66818153  1
  Cu+  Cu39  1  0.50030554  0.49627103  -0.00188301  1
  Cu+  Cu40  1  0.49879300  0.49776419  0.33115721  1
  Cu+  Cu41  1  0.49967288  0.50277827  0.66388116  1
  Cu+  Cu42  1  0.49563100  0.83270034  0.00576794  1
  Cu+  Cu43  1  0.50666336  0.83539672  0.33525191  1
  Cu+  Cu44  1  0.50001982  0.83441505  0.66729024  1
  Cu+  Cu45  1  0.83526250  0.16965037  -0.00027249  1
  Cu+  Cu46  1  0.83177874  0.16496198  0.33082797  1
  Cu+  Cu47  1  0.83575140  0.16476446  0.66376260  1
  Cu+  Cu48  1  0.83136780  0.50750880  0.00137639  1
  Cu+  Cu49  1  0.82912597  0.49329754  0.33069767  1
  Cu+  Cu50  1  0.83536495  0.50644285  0.66764723  1
  Cu+  Cu51  1  0.83145327  0.83654813  0.00108443  1
  Cu+  Cu52  1  0.83352762  0.82980734  0.33404065  1
  Cu+  Cu53  1  0.83294941  0.83127477  0.66573796  1
  Cu+  Cu54  1  0.17029246  -0.00165086  0.17427133  1
  Cu+  Cu55  1  0.16381096  0.00033947  0.50048589  1
  Cu+  Cu56  1  0.16672688  -0.00638982  0.82924631  1
  Cu+  Cu57  1  0.16808673  0.33133572  0.16173012  1
  Cu+  Cu58  1  0.16596690  0.32680584  0.50265134  1
  Cu+  Cu59  1  0.16500266  0.33281825  0.83061983  1
  Cu+  Cu60  1  0.16817868  0.66605082  0.16424074  1
  Cu+  Cu61  1  0.16733579  0.66448415  0.50033934  1
  Cu+  Cu62  1  0.16420858  0.66781412  0.83825889  1
  Cu+  Cu63  1  0.49965170  -0.00139810  0.17265498  1
  Cu+  Cu64  1  0.50356290  0.00201543  0.50209240  1
  Cu+  Cu65  1  0.49709376  0.00196459  0.83208968  1
  Cu+  Cu66  1  0.49575046  0.33268517  0.16597017  1
  Cu+  Cu67  1  0.49988506  0.33320893  0.49714604  1
  Cu+  Cu68  1  0.49859225  0.33426454  0.84138206  1
  Cu+  Cu69  1  0.50119058  0.66414992  0.16580711  1
  Cu+  Cu70  1  0.50208692  0.66779960  0.49629039  1
  Cu+  Cu71  1  0.50103615  0.66802850  0.83585202  1
  Cu+  Cu72  1  0.83168641  -0.00000501  0.16381538  1
  Cu+  Cu73  1  0.83319906  -0.00347371  0.49774181  1
  Cu+  Cu74  1  0.83547904  0.00425284  0.83240892  1
  Cu+  Cu75  1  0.83325440  0.33546735  0.17014441  1
  Cu+  Cu76  1  0.83919464  0.33359767  0.49414677  1
  Cu+  Cu77  1  0.83187839  0.34294358  0.83297011  1
  Cu+  Cu78  1  0.83254563  0.66819608  0.16669467  1
  Cu+  Cu79  1  0.83484260  0.66363865  0.50277155  1
  Cu+  Cu80  1  0.83019321  0.67125398  0.83417444  1
  Cu+  Cu81  1  0.00079385  0.16607271  0.16701189  1
  Cu+  Cu82  1  -0.00286214  0.17282090  0.49682767  1
  Cu+  Cu83  1  -0.00055222  0.16524055  0.82607830  1
  Cu+  Cu84  1  0.00263893  0.50321825  0.16659827  1
  Cu+  Cu85  1  -0.00229095  0.49996099  0.50195463  1
  Cu+  Cu86  1  -0.00500987  0.50317085  0.83379969  1
  Cu+  Cu87  1  -0.00199721  0.83311198  0.16217865  1
  Cu+  Cu88  1  0.00047951  0.82890587  0.49748901  1
  Cu+  Cu89  1  0.00238518  0.83027769  0.83148840  1
  Cu+  Cu90  1  0.34015267  0.16303163  0.16877680  1
  Cu+  Cu91  1  0.32870644  0.16687858  0.49910157  1
  Cu+  Cu92  1  0.33073407  0.16194885  0.83514541  1
  Cu+  Cu93  1  0.33118232  0.49657532  0.16733794  1
  Cu+  Cu94  1  0.33688349  0.49513084  0.50471154  1
  Cu+  Cu95  1  0.33159715  0.49826860  0.83406389  1
  Cu+  Cu96  1  0.33309579  0.83994272  0.16668696  1
  Cu+  Cu97  1  0.33448012  0.83199187  0.49942943  1
  Cu+  Cu98  1  0.33589633  0.83960193  0.83162127  1
  Cu+  Cu99  1  0.66840269  0.16576651  0.16356574  1
  Cu+  Cu100  1  0.66836847  0.16546190  0.49872856  1
  Cu+  Cu101  1  0.66571643  0.17213928  0.83538665  1
  Cu+  Cu102  1  0.66806810  0.49799213  0.16720576  1
  Cu+  Cu103  1  0.66418449  0.50101369  0.49613723  1
  Cu+  Cu104  1  0.66769059  0.50662071  0.83186138  1
  Cu+  Cu105  1  0.66644116  0.83318969  0.17177814  1
  Cu+  Cu106  1  0.66944991  0.83104363  0.50082306  1
  Cu+  Cu107  1  0.66512894  0.83536299  0.83804840  1
  Cu+  Cu108  1  0.42110287  0.40511787  0.59413046  1
  Cu+  Cu109  1  0.41281440  0.92912480  0.73460350  1
  Cu+  Cu110  1  0.40772540  0.25791599  0.07472042  1
  Cu+  Cu111  1  0.59987390  0.26438540  0.92717156  1
  Cu+  Cu112  1  0.07133315  0.91295186  0.73436393  1
  Cu+  Cu113  1  0.07798780  0.26049764  0.40274503  1
  Cu+  Cu114  1  0.41121215  0.92799073  0.07719135  1
  Cu+  Cu115  1  0.26060744  0.24846892  0.59431342  1
  Cu+  Cu116  1  0.73658454  0.40379446  0.25786184  1
  Cu+  Cu117  1  0.25790524  0.92068227  0.26708346  1
  Cu+  Cu118  1  0.06671451  0.06753467  0.25561544  1
  Cu+  Cu119  1  0.25915056  0.92690134  0.92294354  1
  Cu+  Cu120  1  0.41406057  0.07321725  0.26668446  1
  Cu+  Cu121  1  0.07362236  0.26214404  0.74218450  1
  Cu+  Cu122  1  0.92816305  0.59590033  0.59378651  1
  Cu+  Cu123  1  0.40218749  0.41218015  0.92645401  1
  Cu+  Cu124  1  0.59979778  0.92607706  0.26301082  1
  Cu+  Cu125  1  0.07146924  0.25908552  0.07428872  1
  Cu+  Cu126  1  0.07066243  0.74182581  0.92679327  1
  Cu+  Cu127  1  0.91753656  0.26011713  0.59187398  1
  Cu+  Cu128  1  0.92123208  0.07079207  0.73471008  1
  Cu+  Cu129  1  0.40137486  0.41179628  0.26190755  1
  Cu+  Cu130  1  0.92890002  0.41591751  0.40158812  1
  Cu+  Cu131  1  0.92081627  0.41604910  0.74315250  1
  Cu+  Cu132  1  0.26192012  0.40792436  0.74579980  1
  Te2-  Te133  1  0.25572303  0.24823162  0.08129652  1
  Te2-  Te134  1  0.24639679  0.24791154  0.40997797  1
  Te2-  Te135  1  0.25536024  0.25121872  0.74770811  1
  Te2-  Te136  1  0.25377979  0.58372823  0.08129060  1
  Te2-  Te137  1  0.25307587  0.57951702  0.41904499  1
  Te2-  Te138  1  0.24998798  0.58649403  0.75093178  1
  Te2-  Te139  1  0.25312277  0.92435861  0.07687953  1
  Te2-  Te140  1  0.25261226  0.92076591  0.41759184  1
  Te2-  Te141  1  0.25591304  0.92034411  0.74067280  1
  Te2-  Te142  1  0.58955348  0.25633261  0.08266623  1
  Te2-  Te143  1  0.58636857  0.25156810  0.41498888  1
  Te2-  Te144  1  0.58254097  0.25564491  0.74932800  1
  Te2-  Te145  1  0.58527167  0.58185563  0.08065440  1
  Te2-  Te146  1  0.58473072  0.58514941  0.40959872  1
  Te2-  Te147  1  0.58259148  0.58711693  0.74713204  1
  Te2-  Te148  1  0.58502717  0.91807025  0.08444601  1
  Te2-  Te149  1  0.59091582  0.92174507  0.41734673  1
  Te2-  Te150  1  0.58538458  0.92001381  0.75027842  1
  Te2-  Te151  1  0.91944083  0.25545084  0.08155547  1
  Te2-  Te152  1  0.92106468  0.25443824  0.40309149  1
  Te2-  Te153  1  0.91963416  0.26034242  0.74490390  1
  Te2-  Te154  1  0.91969736  0.58801603  0.08299928  1
  Te2-  Te155  1  0.91641615  0.58193881  0.41148902  1
  Te2-  Te156  1  0.91985564  0.59460142  0.74900877  1
  Te2-  Te157  1  0.91829277  0.92049442  0.07987756  1
  Te2-  Te158  1  0.91950957  0.91527816  0.41380259  1
  Te2-  Te159  1  0.92010811  0.91927935  0.74362528  1
  Te2-  Te160  1  0.25781601  0.07959878  0.25841706  1
  Te2-  Te161  1  0.24808215  0.08149893  0.58673295  1
  Te2-  Te162  1  0.24755864  0.08026091  0.91968106  1
  Te2-  Te163  1  0.25029014  0.40912298  0.25338664  1
  Te2-  Te164  1  0.25469510  0.40744479  0.58968924  1
  Te2-  Te165  1  0.24828635  0.41133777  0.92188169  1
  Te2-  Te166  1  0.25184224  0.74982941  0.24957991  1
  Te2-  Te167  1  0.25363813  0.74609212  0.58410851  1
  Te2-  Te168  1  0.25953582  0.74628456  0.91520481  1
  Te2-  Te169  1  0.59040652  0.08170396  0.25390649  1
  Te2-  Te170  1  0.58668687  0.08444517  0.58743698  1
  Te2-  Te171  1  0.58441371  0.08256624  0.91768260  1
  Te2-  Te172  1  0.58535221  0.41054892  0.25201635  1
  Te2-  Te173  1  0.58552839  0.41496137  0.58343315  1
  Te2-  Te174  1  0.59198317  0.41669768  0.91845288  1
  Te2-  Te175  1  0.58511760  0.74408943  0.25337120  1
  Te2-  Te176  1  0.58458013  0.74856645  0.58552095  1
  Te2-  Te177  1  0.58301716  0.75033410  0.92343474  1
  Te2-  Te178  1  0.91695105  0.07901971  0.25156596  1
  Te2-  Te179  1  0.92129073  0.07788864  0.58083118  1
  Te2-  Te180  1  0.92079770  0.08516988  0.91862991  1
  Te2-  Te181  1  0.92537826  0.41380456  0.25080384  1
  Te2-  Te182  1  0.92072820  0.41252302  0.58975616  1
  Te2-  Te183  1  0.91604274  0.42003191  0.92233009  1
  Te2-  Te184  1  0.91966770  0.74809292  0.25055192  1
  Te2-  Te185  1  0.92196727  0.74645675  0.58761115  1
  Te2-  Te186  1  0.91767223  0.74937225  0.92050100  1
  Te2-  Te187  1  0.08120263  0.25490122  0.25127949  1
  Te2-  Te188  1  0.07319510  0.25615915  0.58959542  1
  Te2-  Te189  1  0.07855577  0.25144582  0.91823719  1
  Te2-  Te190  1  0.08486486  0.58602238  0.25246080  1
  Te2-  Te191  1  0.08311831  0.58335733  0.58808774  1
  Te2-  Te192  1  0.07802916  0.58497232  0.92163452  1
  Te2-  Te193  1  0.07707601  0.91591311  0.25284133  1
  Te2-  Te194  1  0.07868590  0.91718695  0.58331091  1
  Te2-  Te195  1  0.08171744  0.91696861  0.91863169  1
  Te2-  Te196  1  0.41511606  0.25215690  0.25715573  1
  Te2-  Te197  1  0.41248841  0.25342114  0.58778892  1
  Te2-  Te198  1  0.40550616  0.25357419  0.92071154  1
  Te2-  Te199  1  0.41409566  0.58367162  0.24985859  1
  Te2-  Te200  1  0.41538214  0.58883461  0.58271508  1
  Te2-  Te201  1  0.41468153  0.58422305  0.91848281  1
  Te2-  Te202  1  0.41127540  0.92060279  0.26240018  1
  Te2-  Te203  1  0.41408354  0.92103534  0.58367835  1
  Te2-  Te204  1  0.41313858  0.92476064  0.92449319  1
  Te2-  Te205  1  0.74587329  0.25118245  0.25247506  1
  Te2-  Te206  1  0.75138340  0.25240123  0.58177797  1
  Te2-  Te207  1  0.75128581  0.25752898  0.91916506  1
  Te2-  Te208  1  0.74787011  0.58609297  0.25241226  1
  Te2-  Te209  1  0.74456961  0.58363043  0.58425616  1
  Te2-  Te210  1  0.74510042  0.59151949  0.92029732  1
  Te2-  Te211  1  0.75036864  0.92050354  0.25540889  1
  Te2-  Te212  1  0.74924545  0.91770555  0.58542272  1
  Te2-  Te213  1  0.74939424  0.92310202  0.91779614  1
  Te2-  Te214  1  0.08281052  0.07619153  0.08460909  1
  Te2-  Te215  1  0.07317972  0.07545688  0.41595658  1
  Te2-  Te216  1  0.07965194  0.07485462  0.74293902  1
  Te2-  Te217  1  0.07974427  0.41422999  0.07953328  1
  Te2-  Te218  1  0.08117606  0.41280475  0.41361324  1
  Te2-  Te219  1  0.07485780  0.41476957  0.74665344  1
  Te2-  Te220  1  0.08259007  0.74786838  0.07915785  1
  Te2-  Te221  1  0.08302253  0.74454912  0.41332974  1
  Te2-  Te222  1  0.08355896  0.74482977  0.74412507  1
  Te2-  Te223  1  0.41895514  0.08126418  0.07730198  1
  Te2-  Te224  1  0.41295794  0.08029358  0.41860526  1
  Te2-  Te225  1  0.41193537  0.08295923  0.74623289  1
  Te2-  Te226  1  0.40945950  0.41151809  0.07706271  1
  Te2-  Te227  1  0.41180411  0.41146675  0.41201457  1
  Te2-  Te228  1  0.41436119  0.41052194  0.74554020  1
  Te2-  Te229  1  0.41204327  0.74649107  0.08666199  1
  Te2-  Te230  1  0.41711663  0.75025123  0.41276872  1
  Te2-  Te231  1  0.41550313  0.74820449  0.75002515  1
  Te2-  Te232  1  0.74961749  0.08290831  0.07813600  1
  Te2-  Te233  1  0.74884401  0.07982220  0.41356692  1
  Te2-  Te234  1  0.74650679  0.08567815  0.74834287  1
  Te2-  Te235  1  0.75041097  0.41541983  0.07993254  1
  Te2-  Te236  1  0.74318795  0.41011866  0.41516516  1
  Te2-  Te237  1  0.74648776  0.42086834  0.74599785  1
  Te2-  Te238  1  0.74620479  0.75020216  0.08250655  1
  Te2-  Te239  1  0.74962411  0.74405023  0.41600750  1
  Te2-  Te240  1  0.74565286  0.75208575  0.74983341  1
