# generated using pymatgen
data_Ti27(Cu53Te54)2
_symmetry_space_group_name_H-M   'P 1'
_cell_length_a   17.91421528
_cell_length_b   17.91972593
_cell_length_c   17.91066190
_cell_angle_alpha   89.87641465
_cell_angle_beta   90.07953192
_cell_angle_gamma   90.03387226
_symmetry_Int_Tables_number   1
_chemical_formula_structural   Ti27(Cu53Te54)2
_chemical_formula_sum   'Ti27 Cu106 Te108'
_cell_volume   5749.62187040
_cell_formula_units_Z   1
loop_
 _symmetry_equiv_pos_site_id
 _symmetry_equiv_pos_as_xyz
  1  'x, y, z'
loop_
 _atom_type_symbol
 _atom_type_oxidation_number
  Ti4+  4.0
  Cu+  1.0
  Te2-  -2.0
loop_
 _atom_site_type_symbol
 _atom_site_label
 _atom_site_symmetry_multiplicity
 _atom_site_fract_x
 _atom_site_fract_y
 _atom_site_fract_z
 _atom_site_occupancy
  Ti4+  Ti0  1  0.16405069  0.16275886  0.16889360  1
  Ti4+  Ti1  1  0.16630013  0.16707056  0.50183082  1
  Ti4+  Ti2  1  0.16832698  0.16558463  0.83206562  1
  Ti4+  Ti3  1  0.16829777  0.49608452  0.16914682  1
  Ti4+  Ti4  1  0.16379461  0.50476296  0.50143667  1
  Ti4+  Ti5  1  0.16598161  0.49909775  0.83310699  1
  Ti4+  Ti6  1  0.16612194  0.83789342  0.16263784  1
  Ti4+  Ti7  1  0.16628085  0.83321079  0.49786307  1
  Ti4+  Ti8  1  0.16966750  0.83134944  0.83435023  1
  Ti4+  Ti9  1  0.49897019  0.16505677  0.16826449  1
  Ti4+  Ti10  1  0.49820900  0.17176302  0.49962343  1
  Ti4+  Ti11  1  0.49949340  0.16736241  0.83003053  1
  Ti4+  Ti12  1  0.49744335  0.49980658  0.16343267  1
  Ti4+  Ti13  1  0.50092145  0.50220386  0.49830939  1
  Ti4+  Ti14  1  0.49967822  0.49823660  0.83147711  1
  Ti4+  Ti15  1  0.49840841  0.83007689  0.16849626  1
  Ti4+  Ti16  1  0.50134041  0.83569512  0.49911289  1
  Ti4+  Ti17  1  0.50155143  0.83369590  0.83279036  1
  Ti4+  Ti18  1  0.83258163  0.16796042  0.16894507  1
  Ti4+  Ti19  1  0.83260498  0.16830866  0.50169185  1
  Ti4+  Ti20  1  0.83353493  0.16830944  0.83503761  1
  Ti4+  Ti21  1  0.83405592  0.50115757  0.16260061  1
  Ti4+  Ti22  1  0.83507583  0.50099204  0.49767635  1
  Ti4+  Ti23  1  0.83311916  0.49495222  0.83396386  1
  Ti4+  Ti24  1  0.83231505  0.83612026  0.16791599  1
  Ti4+  Ti25  1  0.83511604  0.83240344  0.50044262  1
  Ti4+  Ti26  1  0.83347306  0.83244336  0.83576064  1
  Cu+  Cu27  1  0.16517422  0.16238787  -0.00096196  1
  Cu+  Cu28  1  0.16367639  0.16815495  0.33483743  1
  Cu+  Cu29  1  0.16934017  0.16190718  0.66718435  1
  Cu+  Cu30  1  0.16646951  0.49703652  0.00033399  1
  Cu+  Cu31  1  0.17015643  0.49813132  0.33855629  1
  Cu+  Cu32  1  0.16311816  0.50429509  0.66722008  1
  Cu+  Cu33  1  0.17018788  0.82980157  0.00056761  1
  Cu+  Cu34  1  0.16579741  0.83886043  0.32910138  1
  Cu+  Cu35  1  0.16642822  0.83133984  0.66527044  1
  Cu+  Cu36  1  0.49862762  0.16759846  -0.00289918  1
  Cu+  Cu37  1  0.50284644  0.16302455  0.33720869  1
  Cu+  Cu38  1  0.49434603  0.17460297  0.66562068  1
  Cu+  Cu39  1  0.49731815  0.49845475  -0.00088006  1
  Cu+  Cu40  1  0.49928953  0.50287233  0.32887209  1
  Cu+  Cu41  1  0.50393513  0.49929515  0.66564651  1
  Cu+  Cu42  1  0.49310101  0.82815808  -0.00327679  1
  Cu+  Cu43  1  0.50619225  0.83057252  0.33622927  1
  Cu+  Cu44  1  0.50189835  0.83680425  0.66567761  1
  Cu+  Cu45  1  0.83372936  0.16617635  0.00107554  1
  Cu+  Cu46  1  0.82715979  0.17376804  0.33782768  1
  Cu+  Cu47  1  0.83287583  0.16853287  0.66750512  1
  Cu+  Cu48  1  0.83665921  0.49548303  -0.00168610  1
  Cu+  Cu49  1  0.83306841  0.50256381  0.32842763  1
  Cu+  Cu50  1  0.83533222  0.49736591  0.66497719  1
  Cu+  Cu51  1  0.83137694  0.83183409  0.00109284  1
  Cu+  Cu52  1  0.83861541  0.83522389  0.33436940  1
  Cu+  Cu53  1  0.83284750  0.83191786  0.67093883  1
  Cu+  Cu54  1  0.17256375  0.00131666  0.16560860  1
  Cu+  Cu55  1  0.16463839  -0.00054669  0.49961239  1
  Cu+  Cu56  1  0.17159276  -0.00139947  0.83066080  1
  Cu+  Cu57  1  0.16651943  0.32581284  0.17282332  1
  Cu+  Cu58  1  0.16444565  0.33570099  0.50300498  1
  Cu+  Cu59  1  0.16567676  0.33310494  0.83477288  1
  Cu+  Cu60  1  0.16500998  0.66442824  0.16468732  1
  Cu+  Cu61  1  0.16029842  0.67166271  0.50395926  1
  Cu+  Cu62  1  0.16625367  0.66379344  0.83445203  1
  Cu+  Cu63  1  0.49745848  -0.00505086  0.16901650  1
  Cu+  Cu64  1  0.50110272  0.00538413  0.49948609  1
  Cu+  Cu65  1  0.50340459  0.00071225  0.83158127  1
  Cu+  Cu66  1  0.49678065  0.33304762  0.16644379  1
  Cu+  Cu67  1  0.49856710  0.33704533  0.49998924  1
  Cu+  Cu68  1  0.49869568  0.33265065  0.82496755  1
  Cu+  Cu69  1  0.50165346  0.66046896  0.16875870  1
  Cu+  Cu70  1  0.50133304  0.66926081  0.49789794  1
  Cu+  Cu71  1  0.50056653  0.66576426  0.83367640  1
  Cu+  Cu72  1  0.83612455  0.00250039  0.17053354  1
  Cu+  Cu73  1  0.83251505  0.00022828  0.50420522  1
  Cu+  Cu74  1  0.83348988  -0.00070979  0.83500114  1
  Cu+  Cu75  1  0.83455806  0.33582193  0.16474240  1
  Cu+  Cu76  1  0.83047558  0.33336537  0.49780982  1
  Cu+  Cu77  1  0.83149483  0.33456629  0.83514675  1
  Cu+  Cu78  1  0.83280003  0.67117560  0.16038419  1
  Cu+  Cu79  1  0.83831198  0.66667526  0.49643004  1
  Cu+  Cu80  1  0.83171132  0.66208135  0.83889574  1
  Cu+  Cu81  1  -0.00357236  0.16005798  0.16566161  1
  Cu+  Cu82  1  -0.00028882  0.16736970  0.50360650  1
  Cu+  Cu83  1  0.00249237  0.16773623  0.83412106  1
  Cu+  Cu84  1  0.00244880  0.49907519  0.16234624  1
  Cu+  Cu85  1  -0.00013798  0.50355572  0.50046319  1
  Cu+  Cu86  1  -0.00112480  0.49751096  0.83287845  1
  Cu+  Cu87  1  -0.00374347  0.83788815  0.16718891  1
  Cu+  Cu88  1  0.00083480  0.82680634  0.49855850  1
  Cu+  Cu89  1  0.00133342  0.83398320  0.83511620  1
  Cu+  Cu90  1  0.33034932  0.16294933  0.17078827  1
  Cu+  Cu91  1  0.33262464  0.16942721  0.50251637  1
  Cu+  Cu92  1  0.33379180  0.16628586  0.82468800  1
  Cu+  Cu93  1  0.33542139  0.49312832  0.16818671  1
  Cu+  Cu94  1  0.33078931  0.50610039  0.49968699  1
  Cu+  Cu95  1  0.32996616  0.49955524  0.83176968  1
  Cu+  Cu96  1  0.33411733  0.83878790  0.15968483  1
  Cu+  Cu97  1  0.33523215  0.83708960  0.49854819  1
  Cu+  Cu98  1  0.33746648  0.82880488  0.83614200  1
  Cu+  Cu99  1  0.66676502  0.16756363  0.16785246  1
  Cu+  Cu100  1  0.66676014  0.17300283  0.49743184  1
  Cu+  Cu101  1  0.66786234  0.16789816  0.83446810  1
  Cu+  Cu102  1  0.66486946  0.50461581  0.16229011  1
  Cu+  Cu103  1  0.67064492  0.50286118  0.49903117  1
  Cu+  Cu104  1  0.66341357  0.49047873  0.83179183  1
  Cu+  Cu105  1  0.66411828  0.83603076  0.17188152  1
  Cu+  Cu106  1  0.66905535  0.83266757  0.49815465  1
  Cu+  Cu107  1  0.66764876  0.83345623  0.83486233  1
  Cu+  Cu108  1  0.41557146  0.40415733  0.26086565  1
  Cu+  Cu109  1  0.59771215  0.58491175  0.25889544  1
  Cu+  Cu110  1  0.92111480  0.07358928  0.07096749  1
  Cu+  Cu111  1  0.26161217  0.92222465  0.26094751  1
  Cu+  Cu112  1  0.26151984  0.08209658  0.06967316  1
  Cu+  Cu113  1  0.41579099  0.92731740  0.06768580  1
  Cu+  Cu114  1  0.59741412  0.73804096  0.41446932  1
  Cu+  Cu115  1  0.25870972  0.25261804  0.26218219  1
  Cu+  Cu116  1  0.73438957  0.40654762  0.92948510  1
  Cu+  Cu117  1  0.26272128  0.06755589  0.73547385  1
  Cu+  Cu118  1  0.40926214  0.73253374  0.92148284  1
  Cu+  Cu119  1  0.92876302  0.40611678  0.73572964  1
  Cu+  Cu120  1  0.07130389  0.74324144  0.59894846  1
  Cu+  Cu121  1  0.93209167  0.40417357  0.07689125  1
  Cu+  Cu122  1  0.25984350  0.40663509  0.42251756  1
  Cu+  Cu123  1  0.59701100  0.07707578  0.41561564  1
  Cu+  Cu124  1  0.40088617  0.26515937  0.73733532  1
  Cu+  Cu125  1  0.93070526  0.73713049  0.40467436  1
  Cu+  Cu126  1  0.59288494  0.40376415  0.73354963  1
  Cu+  Cu127  1  0.25984263  0.73398540  0.08140441  1
  Cu+  Cu128  1  0.73701915  0.26669224  0.40674635  1
  Cu+  Cu129  1  0.59198026  0.92576033  0.26032400  1
  Cu+  Cu130  1  0.92867278  0.59074550  0.92054921  1
  Cu+  Cu131  1  0.92584303  0.74653636  0.07281980  1
  Cu+  Cu132  1  0.92615717  0.93216249  0.26520943  1
  Te2-  Te133  1  0.25077266  0.24831407  0.08184859  1
  Te2-  Te134  1  0.25323147  0.25461179  0.41507597  1
  Te2-  Te135  1  0.24953349  0.25623216  0.74457589  1
  Te2-  Te136  1  0.25373082  0.58021279  0.08181293  1
  Te2-  Te137  1  0.24805193  0.59298282  0.41695178  1
  Te2-  Te138  1  0.25065325  0.58591159  0.74762563  1
  Te2-  Te139  1  0.25457496  0.92511942  0.07232282  1
  Te2-  Te140  1  0.25270013  0.92161547  0.41405152  1
  Te2-  Te141  1  0.25627962  0.91328422  0.74625573  1
  Te2-  Te142  1  0.58166045  0.25036366  0.08345342  1
  Te2-  Te143  1  0.58353772  0.25932686  0.41129573  1
  Te2-  Te144  1  0.58997771  0.25149077  0.74407165  1
  Te2-  Te145  1  0.58270366  0.58594386  0.07529716  1
  Te2-  Te146  1  0.58941464  0.58650957  0.41168000  1
  Te2-  Te147  1  0.58680637  0.58500814  0.74966471  1
  Te2-  Te148  1  0.58137593  0.91460527  0.07934401  1
  Te2-  Te149  1  0.59062787  0.92421497  0.41387239  1
  Te2-  Te150  1  0.58825333  0.91854230  0.74828882  1
  Te2-  Te151  1  0.92027136  0.25206916  0.08129871  1
  Te2-  Te152  1  0.92022420  0.25287063  0.41669070  1
  Te2-  Te153  1  0.91996541  0.25294313  0.74838379  1
  Te2-  Te154  1  0.92220363  0.58907237  0.07745763  1
  Te2-  Te155  1  0.92181087  0.58478890  0.40919664  1
  Te2-  Te156  1  0.91686787  0.58477358  0.74888399  1
  Te2-  Te157  1  0.91740095  0.92170978  0.07772156  1
  Te2-  Te158  1  0.92184000  0.92256984  0.41829192  1
  Te2-  Te159  1  0.91856211  0.91757165  0.75059358  1
  Te2-  Te160  1  0.25204018  0.07840743  0.25998228  1
  Te2-  Te161  1  0.25407417  0.07790933  0.58356849  1
  Te2-  Te162  1  0.25703011  0.08034534  0.91696165  1
  Te2-  Te163  1  0.25504201  0.40889526  0.25787882  1
  Te2-  Te164  1  0.25071467  0.41951905  0.58707769  1
  Te2-  Te165  1  0.25169535  0.41365530  0.91826010  1
  Te2-  Te166  1  0.25107346  0.75092541  0.24770026  1
  Te2-  Te167  1  0.25455561  0.75009985  0.58280678  1
  Te2-  Te168  1  0.25490358  0.74153692  0.92159615  1
  Te2-  Te169  1  0.58750972  0.07903988  0.25322157  1
  Te2-  Te170  1  0.58401016  0.08890445  0.58651079  1
  Te2-  Te171  1  0.58468628  0.08354366  0.91750582  1
  Te2-  Te172  1  0.58664252  0.41520706  0.24959852  1
  Te2-  Te173  1  0.58879880  0.41563955  0.58127778  1
  Te2-  Te174  1  0.57998540  0.40867728  0.92097863  1
  Te2-  Te175  1  0.58811634  0.74196319  0.25411196  1
  Te2-  Te176  1  0.58653123  0.74955181  0.58529198  1
  Te2-  Te177  1  0.58627690  0.74751418  0.91932888  1
  Te2-  Te178  1  0.91651986  0.08523870  0.26159836  1
  Te2-  Te179  1  0.91744699  0.08259773  0.58754727  1
  Te2-  Te180  1  0.92072868  0.08092634  0.91828224  1
  Te2-  Te181  1  0.91928782  0.41708669  0.24987844  1
  Te2-  Te182  1  0.92045514  0.41240009  0.58177956  1
  Te2-  Te183  1  0.92386004  0.40804218  0.92116295  1
  Te2-  Te184  1  0.92013731  0.74568809  0.25126707  1
  Te2-  Te185  1  0.91792948  0.74586158  0.58983107  1
  Te2-  Te186  1  0.92242018  0.74532960  0.92164351  1
  Te2-  Te187  1  0.07464754  0.24725864  0.25214779  1
  Te2-  Te188  1  0.08319819  0.25107554  0.58832370  1
  Te2-  Te189  1  0.08368630  0.25022260  0.91944594  1
  Te2-  Te190  1  0.08372712  0.58160683  0.25168385  1
  Te2-  Te191  1  0.07577848  0.58891842  0.58887774  1
  Te2-  Te192  1  0.08106811  0.58417010  0.92116534  1
  Te2-  Te193  1  0.07904197  0.92439671  0.24972505  1
  Te2-  Te194  1  0.07999529  0.91664977  0.58405386  1
  Te2-  Te195  1  0.08635373  0.91755257  0.91816783  1
  Te2-  Te196  1  0.41401247  0.24957502  0.25722762  1
  Te2-  Te197  1  0.41009334  0.25966519  0.58400823  1
  Te2-  Te198  1  0.41312823  0.25198299  0.91432093  1
  Te2-  Te199  1  0.40929065  0.58596975  0.25071885  1
  Te2-  Te200  1  0.41840011  0.58632715  0.58377901  1
  Te2-  Te201  1  0.41221536  0.58207889  0.91779963  1
  Te2-  Te202  1  0.41379179  0.91540884  0.25801742  1
  Te2-  Te203  1  0.41708259  0.92182093  0.58366766  1
  Te2-  Te204  1  0.41367967  0.92360193  0.91620519  1
  Te2-  Te205  1  0.74558540  0.25733357  0.25066161  1
  Te2-  Te206  1  0.74720794  0.25409970  0.58716299  1
  Te2-  Te207  1  0.74654528  0.25231209  0.92237430  1
  Te2-  Te208  1  0.74988496  0.58945288  0.24805755  1
  Te2-  Te209  1  0.75272603  0.58663767  0.58400328  1
  Te2-  Te210  1  0.74356516  0.57789883  0.91905420  1
  Te2-  Te211  1  0.74759905  0.92181547  0.25647072  1
  Te2-  Te212  1  0.74892264  0.91545000  0.58632507  1
  Te2-  Te213  1  0.74837782  0.91818713  0.92006580  1
  Te2-  Te214  1  0.07862871  0.07625840  0.07993310  1
  Te2-  Te215  1  0.08006653  0.08323831  0.41719438  1
  Te2-  Te216  1  0.08119990  0.07954181  0.74905261  1
  Te2-  Te217  1  0.08546733  0.40845854  0.08225508  1
  Te2-  Te218  1  0.07901486  0.41634262  0.41658673  1
  Te2-  Te219  1  0.08111412  0.41278380  0.74588743  1
  Te2-  Te220  1  0.07869272  0.74857178  0.08055414  1
  Te2-  Te221  1  0.08303425  0.74787052  0.40574321  1
  Te2-  Te222  1  0.08108884  0.74675974  0.75085113  1
  Te2-  Te223  1  0.41390893  0.08030572  0.07980565  1
  Te2-  Te224  1  0.41138870  0.08399149  0.41654594  1
  Te2-  Te225  1  0.41662519  0.07741175  0.74242203  1
  Te2-  Te226  1  0.41251889  0.41131699  0.07750424  1
  Te2-  Te227  1  0.41268590  0.41604125  0.41307110  1
  Te2-  Te228  1  0.41040249  0.41747821  0.74303755  1
  Te2-  Te229  1  0.41293127  0.73941491  0.08193096  1
  Te2-  Te230  1  0.41386498  0.74998493  0.41439607  1
  Te2-  Te231  1  0.41761486  0.74811237  0.74525728  1
  Te2-  Te232  1  0.74770273  0.08144532  0.08391945  1
  Te2-  Te233  1  0.74784826  0.07892495  0.41525036  1
  Te2-  Te234  1  0.74966970  0.08294011  0.75027501  1
  Te2-  Te235  1  0.74353023  0.41437026  0.08153779  1
  Te2-  Te236  1  0.74753482  0.41800156  0.41027739  1
  Te2-  Te237  1  0.74708017  0.41028762  0.74249723  1
  Te2-  Te238  1  0.74231131  0.75281422  0.08318156  1
  Te2-  Te239  1  0.75017122  0.74698979  0.41121230  1
  Te2-  Te240  1  0.74880791  0.74510042  0.75270621  1
