# generated using pymatgen
data_Ti27(Cu53Te54)2
_symmetry_space_group_name_H-M   'P 1'
_cell_length_a   17.88485930
_cell_length_b   17.88011670
_cell_length_c   17.88192647
_cell_angle_alpha   90.03295343
_cell_angle_beta   89.99001686
_cell_angle_gamma   90.03387021
_symmetry_Int_Tables_number   1
_chemical_formula_structural   Ti27(Cu53Te54)2
_chemical_formula_sum   'Ti27 Cu106 Te108'
_cell_volume   5718.34070283
_cell_formula_units_Z   1
loop_
 _symmetry_equiv_pos_site_id
 _symmetry_equiv_pos_as_xyz
  1  'x, y, z'
loop_
 _atom_type_symbol
 _atom_type_oxidation_number
  Ti4+  4.0
  Cu+  1.0
  Te2-  -2.0
loop_
 _atom_site_type_symbol
 _atom_site_label
 _atom_site_symmetry_multiplicity
 _atom_site_fract_x
 _atom_site_fract_y
 _atom_site_fract_z
 _atom_site_occupancy
  Ti4+  Ti0  1  0.16175438  0.16568842  0.16583905  1
  Ti4+  Ti1  1  0.16463122  0.16599490  0.50031280  1
  Ti4+  Ti2  1  0.16890609  0.16762997  0.83213801  1
  Ti4+  Ti3  1  0.16732094  0.50530572  0.16919397  1
  Ti4+  Ti4  1  0.16572393  0.49737460  0.49731651  1
  Ti4+  Ti5  1  0.16933435  0.49972492  0.83346011  1
  Ti4+  Ti6  1  0.17210200  0.83444367  0.16684552  1
  Ti4+  Ti7  1  0.16699114  0.83197582  0.49967973  1
  Ti4+  Ti8  1  0.16665619  0.83384068  0.83608794  1
  Ti4+  Ti9  1  0.49930602  0.16475029  0.17056230  1
  Ti4+  Ti10  1  0.50130713  0.17104345  0.50144526  1
  Ti4+  Ti11  1  0.50071852  0.16734499  0.83847470  1
  Ti4+  Ti12  1  0.50098549  0.49812970  0.16665706  1
  Ti4+  Ti13  1  0.49943480  0.49883301  0.49724348  1
  Ti4+  Ti14  1  0.49667766  0.49939076  0.83315725  1
  Ti4+  Ti15  1  0.50289587  0.83079993  0.16355869  1
  Ti4+  Ti16  1  0.50146589  0.83502846  0.49806994  1
  Ti4+  Ti17  1  0.49863192  0.83367985  0.82931139  1
  Ti4+  Ti18  1  0.83382284  0.16509832  0.16753014  1
  Ti4+  Ti19  1  0.83299452  0.16492894  0.49875694  1
  Ti4+  Ti20  1  0.83249855  0.16724114  0.83246726  1
  Ti4+  Ti21  1  0.83311643  0.49962557  0.16571499  1
  Ti4+  Ti22  1  0.83370757  0.49958477  0.50194215  1
  Ti4+  Ti23  1  0.83250420  0.50037024  0.83400779  1
  Ti4+  Ti24  1  0.83168945  0.83211246  0.16717321  1
  Ti4+  Ti25  1  0.83537628  0.83357654  0.50351939  1
  Ti4+  Ti26  1  0.83462310  0.83207821  0.83463958  1
  Cu+  Cu27  1  0.16452722  0.16349442  -0.00409530  1
  Cu+  Cu28  1  0.15996134  0.17004485  0.33475781  1
  Cu+  Cu29  1  0.16927783  0.16565840  0.66529102  1
  Cu+  Cu30  1  0.17242901  0.50784950  0.00053264  1
  Cu+  Cu31  1  0.16401766  0.50595100  0.33118842  1
  Cu+  Cu32  1  0.16740678  0.49338353  0.66504925  1
  Cu+  Cu33  1  0.16367496  0.83756905  0.00538804  1
  Cu+  Cu34  1  0.16769866  0.82916216  0.33102943  1
  Cu+  Cu35  1  0.16941832  0.83063393  0.66830169  1
  Cu+  Cu36  1  0.50440366  0.16253144  0.00595544  1
  Cu+  Cu37  1  0.50307618  0.17557666  0.33542719  1
  Cu+  Cu38  1  0.50021913  0.17045217  0.67053044  1
  Cu+  Cu39  1  0.49417568  0.49636064  -0.00180516  1
  Cu+  Cu40  1  0.50073773  0.49483164  0.33173394  1
  Cu+  Cu41  1  0.49950543  0.50040822  0.66123920  1
  Cu+  Cu42  1  0.49901979  0.83314012  -0.00517440  1
  Cu+  Cu43  1  0.50392627  0.83201365  0.33001189  1
  Cu+  Cu44  1  0.49976307  0.83467993  0.66158538  1
  Cu+  Cu45  1  0.83224228  0.16703591  -0.00090195  1
  Cu+  Cu46  1  0.83722383  0.16079635  0.33434054  1
  Cu+  Cu47  1  0.83344509  0.16545237  0.66531971  1
  Cu+  Cu48  1  0.83076706  0.50133448  0.00026312  1
  Cu+  Cu49  1  0.83526524  0.50043281  0.33451086  1
  Cu+  Cu50  1  0.83335438  0.50069665  0.66929702  1
  Cu+  Cu51  1  0.83282794  0.83026710  -0.00193675  1
  Cu+  Cu52  1  0.83299244  0.83276717  0.33644108  1
  Cu+  Cu53  1  0.83272745  0.83617801  0.67152296  1
  Cu+  Cu54  1  0.16801778  0.00157760  0.15962530  1
  Cu+  Cu55  1  0.16856618  -0.00315907  0.50113492  1
  Cu+  Cu56  1  0.16428069  0.00230455  0.83886676  1
  Cu+  Cu57  1  0.16291158  0.33558443  0.16674246  1
  Cu+  Cu58  1  0.15786208  0.33149736  0.50143483  1
  Cu+  Cu59  1  0.17231942  0.33449970  0.82965872  1
  Cu+  Cu60  1  0.17288037  0.67093574  0.17743927  1
  Cu+  Cu61  1  0.16569384  0.66359023  0.49643281  1
  Cu+  Cu62  1  0.17394094  0.66777192  0.83342309  1
  Cu+  Cu63  1  0.50407644  -0.00510433  0.16147844  1
  Cu+  Cu64  1  0.50137528  0.00558974  0.50066324  1
  Cu+  Cu65  1  0.50243898  0.00115421  0.83496818  1
  Cu+  Cu66  1  0.49681838  0.33399980  0.17658946  1
  Cu+  Cu67  1  0.49772208  0.33285041  0.49635800  1
  Cu+  Cu68  1  0.49283870  0.33255396  0.83747978  1
  Cu+  Cu69  1  0.50298006  0.66648552  0.16265617  1
  Cu+  Cu70  1  0.50263392  0.66657037  0.49667495  1
  Cu+  Cu71  1  0.49664642  0.66719562  0.82971636  1
  Cu+  Cu72  1  0.83227325  -0.00020725  0.16760490  1
  Cu+  Cu73  1  0.83518450  -0.00127218  0.49634817  1
  Cu+  Cu74  1  0.83222779  -0.00272806  0.83058802  1
  Cu+  Cu75  1  0.83338079  0.33200427  0.16718464  1
  Cu+  Cu76  1  0.83240779  0.33368646  0.50208746  1
  Cu+  Cu77  1  0.83395390  0.33456001  0.83361407  1
  Cu+  Cu78  1  0.83100413  0.66376566  0.16394885  1
  Cu+  Cu79  1  0.83542259  0.66733823  0.50658023  1
  Cu+  Cu80  1  0.83359667  0.66663592  0.83498585  1
  Cu+  Cu81  1  -0.00472242  0.16621572  0.16621789  1
  Cu+  Cu82  1  -0.00187763  0.16513801  0.49573439  1
  Cu+  Cu83  1  0.00028508  0.16772113  0.83201364  1
  Cu+  Cu84  1  -0.00122848  0.50018649  0.16726364  1
  Cu+  Cu85  1  0.00046597  0.49774044  0.50107994  1
  Cu+  Cu86  1  -0.00104962  0.50165022  0.83503646  1
  Cu+  Cu87  1  -0.00132365  0.83193774  0.16716253  1
  Cu+  Cu88  1  0.00091824  0.83218889  0.50524286  1
  Cu+  Cu89  1  -0.00021530  0.83101361  0.83662364  1
  Cu+  Cu90  1  0.32346102  0.16240144  0.16670465  1
  Cu+  Cu91  1  0.33245611  0.17035237  0.50077633  1
  Cu+  Cu92  1  0.33917053  0.17308176  0.83387272  1
  Cu+  Cu93  1  0.33372325  0.50307228  0.17117840  1
  Cu+  Cu94  1  0.33397913  0.49882391  0.49920971  1
  Cu+  Cu95  1  0.33104035  0.49614878  0.83729553  1
  Cu+  Cu96  1  0.34249997  0.83586641  0.16077114  1
  Cu+  Cu97  1  0.33511527  0.83278127  0.49800613  1
  Cu+  Cu98  1  0.33021789  0.83024262  0.83035614  1
  Cu+  Cu99  1  0.66700696  0.16557463  0.16929964  1
  Cu+  Cu100  1  0.66495990  0.16423156  0.49995573  1
  Cu+  Cu101  1  0.66690677  0.16641057  0.83617043  1
  Cu+  Cu102  1  0.67057472  0.50215045  0.16126391  1
  Cu+  Cu103  1  0.66644378  0.49933514  0.49980151  1
  Cu+  Cu104  1  0.66357819  0.49945070  0.83221497  1
  Cu+  Cu105  1  0.66416422  0.83327026  0.16867609  1
  Cu+  Cu106  1  0.67077391  0.83631785  0.50066915  1
  Cu+  Cu107  1  0.66685828  0.83516958  0.83081247  1
  Cu+  Cu108  1  0.06976494  0.74819852  0.25752601  1
  Cu+  Cu109  1  0.26087893  0.40702400  0.73514396  1
  Cu+  Cu110  1  0.26894864  0.59907618  0.26395096  1
  Cu+  Cu111  1  0.40233164  0.40935474  0.26037222  1
  Cu+  Cu112  1  0.58799216  0.07855691  0.40910587  1
  Cu+  Cu113  1  0.41332921  0.92532753  0.06527632  1
  Cu+  Cu114  1  0.40327265  0.40244224  0.93154874  1
  Cu+  Cu115  1  0.41234824  0.26029214  0.73948491  1
  Cu+  Cu116  1  0.26153893  0.59852994  0.92785726  1
  Cu+  Cu117  1  0.06666799  0.25802645  0.40682093  1
  Cu+  Cu118  1  0.74434933  0.92377897  0.40619662  1
  Cu+  Cu119  1  0.40153525  0.25608382  0.40711492  1
  Cu+  Cu120  1  0.06857671  0.59349825  0.41116539  1
  Cu+  Cu121  1  0.59074255  0.92329049  0.25790978  1
  Cu+  Cu122  1  0.25785146  0.07792812  0.06710617  1
  Cu+  Cu123  1  0.06891258  0.40506623  0.59763277  1
  Cu+  Cu124  1  0.06757347  0.92523278  0.08201157  1
  Cu+  Cu125  1  0.06705339  0.07692240  0.92089124  1
  Cu+  Cu126  1  0.93110749  0.06766461  0.40593839  1
  Cu+  Cu127  1  0.06884844  0.40719734  0.25213150  1
  Cu+  Cu128  1  0.59827742  0.07144180  0.07480880  1
  Cu+  Cu129  1  0.59903357  0.26335536  0.25785363  1
  Cu+  Cu130  1  0.25977795  0.73986510  0.73574337  1
  Cu+  Cu131  1  0.73734493  0.92805397  0.74223453  1
  Cu+  Cu132  1  0.73969258  0.59497409  0.06880253  1
  Te2-  Te133  1  0.24643989  0.25255351  0.08097486  1
  Te2-  Te134  1  0.24843569  0.25492666  0.41380233  1
  Te2-  Te135  1  0.25658902  0.25318878  0.74262014  1
  Te2-  Te136  1  0.25640053  0.59167123  0.08500824  1
  Te2-  Te137  1  0.25577146  0.58532842  0.41420008  1
  Te2-  Te138  1  0.25535373  0.58326742  0.74300360  1
  Te2-  Te139  1  0.25888214  0.92188811  0.07642743  1
  Te2-  Te140  1  0.25136367  0.91623998  0.41325970  1
  Te2-  Te141  1  0.24910554  0.92185876  0.75062466  1
  Te2-  Te142  1  0.58301666  0.25463840  0.08767599  1
  Te2-  Te143  1  0.59278953  0.25851858  0.41511892  1
  Te2-  Te144  1  0.58532277  0.25470711  0.75366489  1
  Te2-  Te145  1  0.58330421  0.58315266  0.07605094  1
  Te2-  Te146  1  0.58596297  0.58270003  0.41222877  1
  Te2-  Te147  1  0.58166403  0.58363206  0.74687735  1
  Te2-  Te148  1  0.59118020  0.91639385  0.07303009  1
  Te2-  Te149  1  0.58980350  0.92351252  0.41179938  1
  Te2-  Te150  1  0.58378484  0.92116608  0.74435044  1
  Te2-  Te151  1  0.91683534  0.25143334  0.08069498  1
  Te2-  Te152  1  0.91587584  0.25552320  0.41276232  1
  Te2-  Te153  1  0.91798900  0.25185072  0.74731455  1
  Te2-  Te154  1  0.92020083  0.58511876  0.08010675  1
  Te2-  Te155  1  0.91808080  0.58779441  0.41618602  1
  Te2-  Te156  1  0.91885698  0.58622595  0.74924256  1
  Te2-  Te157  1  0.91588846  0.91784814  0.08043176  1
  Te2-  Te158  1  0.92473581  0.91574806  0.41348083  1
  Te2-  Te159  1  0.92339947  0.91792942  0.74997713  1
  Te2-  Te160  1  0.24386031  0.08091623  0.25598085  1
  Te2-  Te161  1  0.25340583  0.08152231  0.58285777  1
  Te2-  Te162  1  0.25897455  0.08205702  0.91598891  1
  Te2-  Te163  1  0.24992162  0.41354569  0.25434763  1
  Te2-  Te164  1  0.25396937  0.40949281  0.58063833  1
  Te2-  Te165  1  0.25094940  0.41030528  0.92580310  1
  Te2-  Te166  1  0.26510182  0.75366394  0.25367551  1
  Te2-  Te167  1  0.25396773  0.74419308  0.58226376  1
  Te2-  Te168  1  0.25331120  0.75131976  0.92639267  1
  Te2-  Te169  1  0.58678951  0.07762690  0.25587460  1
  Te2-  Te170  1  0.58423642  0.08479309  0.59033212  1
  Te2-  Te171  1  0.58888778  0.07876172  0.92145679  1
  Te2-  Te172  1  0.59314785  0.41631974  0.25161817  1
  Te2-  Te173  1  0.58403797  0.41305285  0.58259361  1
  Te2-  Te174  1  0.58314780  0.41399417  0.91784509  1
  Te2-  Te175  1  0.58729965  0.74330973  0.25120547  1
  Te2-  Te176  1  0.58680677  0.74951135  0.58219025  1
  Te2-  Te177  1  0.58420969  0.74824905  0.91360573  1
  Te2-  Te178  1  0.92158641  0.07595411  0.25187450  1
  Te2-  Te179  1  0.91892939  0.08016632  0.58435395  1
  Te2-  Te180  1  0.91610460  0.07919537  0.91830183  1
  Te2-  Te181  1  0.91774571  0.41279142  0.25387530  1
  Te2-  Te182  1  0.91815801  0.41241126  0.58917953  1
  Te2-  Te183  1  0.91812964  0.41608840  0.92021111  1
  Te2-  Te184  1  0.91504911  0.74553252  0.25318055  1
  Te2-  Te185  1  0.91912544  0.74946453  0.59141588  1
  Te2-  Te186  1  0.91973190  0.74509183  0.92086055  1
  Te2-  Te187  1  0.07380454  0.25352366  0.25133066  1
  Te2-  Te188  1  0.07591223  0.24841314  0.58973736  1
  Te2-  Te189  1  0.08369485  0.25491508  0.91578299  1
  Te2-  Te190  1  0.07407026  0.59255470  0.25380155  1
  Te2-  Te191  1  0.08361883  0.58354457  0.58661551  1
  Te2-  Te192  1  0.08382292  0.58718858  0.91692432  1
  Te2-  Te193  1  0.08412638  0.92017900  0.25044383  1
  Te2-  Te194  1  0.08447425  0.91657302  0.58784117  1
  Te2-  Te195  1  0.07652255  0.92017142  0.92304711  1
  Te2-  Te196  1  0.40426613  0.24955789  0.25292192  1
  Te2-  Te197  1  0.41314552  0.25594045  0.58720340  1
  Te2-  Te198  1  0.41430238  0.25010428  0.93092305  1
  Te2-  Te199  1  0.42025788  0.58928759  0.25402058  1
  Te2-  Te200  1  0.41486843  0.58636904  0.58132229  1
  Te2-  Te201  1  0.41264275  0.58900449  0.91929770  1
  Te2-  Te202  1  0.41852165  0.91905863  0.25180712  1
  Te2-  Te203  1  0.41507904  0.92123056  0.58142269  1
  Te2-  Te204  1  0.41165646  0.92010802  0.91383059  1
  Te2-  Te205  1  0.75093600  0.25103560  0.25615672  1
  Te2-  Te206  1  0.74730715  0.24971683  0.58416036  1
  Te2-  Te207  1  0.74850891  0.25292506  0.91844940  1
  Te2-  Te208  1  0.74817586  0.58435550  0.25383294  1
  Te2-  Te209  1  0.74749042  0.58394870  0.58659653  1
  Te2-  Te210  1  0.74354743  0.58705444  0.91738805  1
  Te2-  Te211  1  0.74648410  0.92079033  0.25339307  1
  Te2-  Te212  1  0.74917558  0.92283775  0.58801655  1
  Te2-  Te213  1  0.74759906  0.91831619  0.91995740  1
  Te2-  Te214  1  0.07287757  0.07995632  0.07759315  1
  Te2-  Te215  1  0.08232807  0.07537940  0.41385730  1
  Te2-  Te216  1  0.08311786  0.08173849  0.74694542  1
  Te2-  Te217  1  0.08421151  0.42146821  0.07903542  1
  Te2-  Te218  1  0.07653036  0.41200007  0.40770044  1
  Te2-  Te219  1  0.07823632  0.41304863  0.75066882  1
  Te2-  Te220  1  0.08513437  0.74447103  0.08527565  1
  Te2-  Te221  1  0.07667836  0.74680795  0.41303881  1
  Te2-  Te222  1  0.08263831  0.74664397  0.75117636  1
  Te2-  Te223  1  0.41148042  0.07927125  0.08161412  1
  Te2-  Te224  1  0.41492249  0.08596218  0.41372531  1
  Te2-  Te225  1  0.41650887  0.08177885  0.75025734  1
  Te2-  Te226  1  0.41040895  0.41180079  0.08505819  1
  Te2-  Te227  1  0.40909527  0.41110984  0.41087235  1
  Te2-  Te228  1  0.41202479  0.41384262  0.74150698  1
  Te2-  Te229  1  0.41730118  0.74461683  0.07668731  1
  Te2-  Te230  1  0.41794309  0.74921855  0.41230624  1
  Te2-  Te231  1  0.41346580  0.74762318  0.74192955  1
  Te2-  Te232  1  0.74831660  0.07968337  0.08034927  1
  Te2-  Te233  1  0.74408462  0.07834786  0.41069489  1
  Te2-  Te234  1  0.74523554  0.08190171  0.74627340  1
  Te2-  Te235  1  0.74901467  0.41096771  0.08034851  1
  Te2-  Te236  1  0.74952084  0.41524032  0.41535188  1
  Te2-  Te237  1  0.74710345  0.41479844  0.74873918  1
  Te2-  Te238  1  0.74473911  0.74888329  0.08034196  1
  Te2-  Te239  1  0.75014134  0.74593220  0.41851988  1
  Te2-  Te240  1  0.74816197  0.74632156  0.74867080  1
