# generated using pymatgen
data_Ti27(Cu53Te54)2
_symmetry_space_group_name_H-M   'P 1'
_cell_length_a   17.87597750
_cell_length_b   17.87489456
_cell_length_c   17.87785408
_cell_angle_alpha   90.02911724
_cell_angle_beta   90.05198228
_cell_angle_gamma   89.97719021
_symmetry_Int_Tables_number   1
_chemical_formula_structural   Ti27(Cu53Te54)2
_chemical_formula_sum   'Ti27 Cu106 Te108'
_cell_volume   5712.52885579
_cell_formula_units_Z   1
loop_
 _symmetry_equiv_pos_site_id
 _symmetry_equiv_pos_as_xyz
  1  'x, y, z'
loop_
 _atom_type_symbol
 _atom_type_oxidation_number
  Ti4+  4.0
  Cu+  1.0
  Te2-  -2.0
loop_
 _atom_site_type_symbol
 _atom_site_label
 _atom_site_symmetry_multiplicity
 _atom_site_fract_x
 _atom_site_fract_y
 _atom_site_fract_z
 _atom_site_occupancy
  Ti4+  Ti0  1  0.16423473  0.16737984  0.16295827  1
  Ti4+  Ti1  1  0.16743680  0.16653007  0.49677942  1
  Ti4+  Ti2  1  0.16693732  0.16823288  0.83245184  1
  Ti4+  Ti3  1  0.16624055  0.49686785  0.16449160  1
  Ti4+  Ti4  1  0.16713052  0.49730739  0.50039093  1
  Ti4+  Ti5  1  0.16959753  0.50129354  0.83480703  1
  Ti4+  Ti6  1  0.16644606  0.83103430  0.16601079  1
  Ti4+  Ti7  1  0.16579835  0.83305659  0.50148891  1
  Ti4+  Ti8  1  0.16772049  0.83746946  0.83618049  1
  Ti4+  Ti9  1  0.49752067  0.16690322  0.16672920  1
  Ti4+  Ti10  1  0.50131397  0.16707660  0.50203612  1
  Ti4+  Ti11  1  0.50298281  0.16888633  0.83514562  1
  Ti4+  Ti12  1  0.50252892  0.50268394  0.16416862  1
  Ti4+  Ti13  1  0.49957369  0.50087151  0.49919032  1
  Ti4+  Ti14  1  0.49952321  0.50115087  0.83243100  1
  Ti4+  Ti15  1  0.50096788  0.83377284  0.16797423  1
  Ti4+  Ti16  1  0.49838643  0.83804728  0.50038475  1
  Ti4+  Ti17  1  0.49922825  0.83442999  0.83209822  1
  Ti4+  Ti18  1  0.83267351  0.16494912  0.16700715  1
  Ti4+  Ti19  1  0.83513065  0.16524418  0.50039788  1
  Ti4+  Ti20  1  0.82935181  0.16629752  0.83719339  1
  Ti4+  Ti21  1  0.83369004  0.49913982  0.16631557  1
  Ti4+  Ti22  1  0.83549852  0.50055416  0.49899231  1
  Ti4+  Ti23  1  0.83398381  0.49772720  0.83118959  1
  Ti4+  Ti24  1  0.83666898  0.83368287  0.16980552  1
  Ti4+  Ti25  1  0.83069731  0.83122266  0.50025121  1
  Ti4+  Ti26  1  0.83209686  0.83253283  0.83509811  1
  Cu+  Cu27  1  0.16566970  0.16822410  -0.00307680  1
  Cu+  Cu28  1  0.16772507  0.16732653  0.32815553  1
  Cu+  Cu29  1  0.16675427  0.16671576  0.66055587  1
  Cu+  Cu30  1  0.16754061  0.50104628  -0.00224701  1
  Cu+  Cu31  1  0.16387463  0.49456749  0.33404351  1
  Cu+  Cu32  1  0.17005359  0.49728163  0.66825403  1
  Cu+  Cu33  1  0.16165677  0.83264973  -0.00020152  1
  Cu+  Cu34  1  0.16569099  0.83283484  0.33235469  1
  Cu+  Cu35  1  0.16995877  0.83684890  0.67037991  1
  Cu+  Cu36  1  0.49679772  0.16448659  -0.00141592  1
  Cu+  Cu37  1  0.49884038  0.16931574  0.33589597  1
  Cu+  Cu38  1  0.50291612  0.16703297  0.66893038  1
  Cu+  Cu39  1  0.50040590  0.50473060  0.00053339  1
  Cu+  Cu40  1  0.50075112  0.50105579  0.32970563  1
  Cu+  Cu41  1  0.50066444  0.49999326  0.66584382  1
  Cu+  Cu42  1  0.50271224  0.83439227  0.00114477  1
  Cu+  Cu43  1  0.50253008  0.83504609  0.33572491  1
  Cu+  Cu44  1  0.49468352  0.83510519  0.66349109  1
  Cu+  Cu45  1  0.82550386  0.16411065  0.00417011  1
  Cu+  Cu46  1  0.83457010  0.16542371  0.33357286  1
  Cu+  Cu47  1  0.83572787  0.16703703  0.66752119  1
  Cu+  Cu48  1  0.83272354  0.49764279  -0.00254979  1
  Cu+  Cu49  1  0.83559336  0.50055668  0.33410264  1
  Cu+  Cu50  1  0.83683424  0.50249206  0.66250984  1
  Cu+  Cu51  1  0.83899100  0.83265038  0.00518138  1
  Cu+  Cu52  1  0.83307738  0.82637089  0.33445822  1
  Cu+  Cu53  1  0.82957735  0.83610641  0.66890677  1
  Cu+  Cu54  1  0.16392883  -0.00324984  0.16200441  1
  Cu+  Cu55  1  0.16416201  -0.00032810  0.50002286  1
  Cu+  Cu56  1  0.16221244  0.00437676  0.83455975  1
  Cu+  Cu57  1  0.16282225  0.33375101  0.16790088  1
  Cu+  Cu58  1  0.17131420  0.32987158  0.50185696  1
  Cu+  Cu59  1  0.17200059  0.33370731  0.83641758  1
  Cu+  Cu60  1  0.16844098  0.66410866  0.16729737  1
  Cu+  Cu61  1  0.16580657  0.66215737  0.50125394  1
  Cu+  Cu62  1  0.17162635  0.67046454  0.83806800  1
  Cu+  Cu63  1  0.49930292  -0.00068006  0.16725816  1
  Cu+  Cu64  1  0.50011818  0.00311110  0.50259664  1
  Cu+  Cu65  1  0.50054737  0.00197849  0.83648586  1
  Cu+  Cu66  1  0.49935230  0.33911191  0.16803195  1
  Cu+  Cu67  1  0.49889041  0.33110189  0.49825933  1
  Cu+  Cu68  1  0.50435013  0.33760884  0.82815905  1
  Cu+  Cu69  1  0.50177688  0.66631463  0.16460435  1
  Cu+  Cu70  1  0.49947079  0.66764565  0.50017697  1
  Cu+  Cu71  1  0.49948766  0.66772213  0.83171374  1
  Cu+  Cu72  1  0.83454522  -0.00108132  0.17016658  1
  Cu+  Cu73  1  0.83151238  -0.00140565  0.50117611  1
  Cu+  Cu74  1  0.82765088  -0.00423290  0.83564218  1
  Cu+  Cu75  1  0.83278303  0.32837884  0.16358921  1
  Cu+  Cu76  1  0.83584360  0.33432084  0.49900889  1
  Cu+  Cu77  1  0.82566355  0.33457720  0.83653828  1
  Cu+  Cu78  1  0.83586457  0.66619794  0.16840884  1
  Cu+  Cu79  1  0.83749001  0.66663950  0.49719695  1
  Cu+  Cu80  1  0.83472582  0.66307532  0.83173639  1
  Cu+  Cu81  1  -0.00294778  0.16513303  0.16357941  1
  Cu+  Cu82  1  0.00096950  0.16178773  0.49842592  1
  Cu+  Cu83  1  -0.00350042  0.16327665  0.83399315  1
  Cu+  Cu84  1  0.00052398  0.49575677  0.16668664  1
  Cu+  Cu85  1  0.00200491  0.49949223  0.50038497  1
  Cu+  Cu86  1  0.00156076  0.49831611  0.83402948  1
  Cu+  Cu87  1  -0.00033741  0.83089180  0.16312921  1
  Cu+  Cu88  1  -0.00201619  0.83173991  0.50049827  1
  Cu+  Cu89  1  0.00025991  0.83361984  0.83917622  1
  Cu+  Cu90  1  0.32827457  0.16871322  0.16457422  1
  Cu+  Cu91  1  0.33627353  0.17157723  0.49875227  1
  Cu+  Cu92  1  0.33779478  0.16997928  0.83825790  1
  Cu+  Cu93  1  0.33779685  0.49857077  0.16516447  1
  Cu+  Cu94  1  0.33196432  0.50079228  0.49785569  1
  Cu+  Cu95  1  0.33194255  0.50379548  0.83358477  1
  Cu+  Cu96  1  0.33333664  0.83229958  0.16710344  1
  Cu+  Cu97  1  0.33393561  0.83474533  0.50497722  1
  Cu+  Cu98  1  0.33114497  0.83632984  0.82869766  1
  Cu+  Cu99  1  0.66385407  0.16807832  0.16708563  1
  Cu+  Cu100  1  0.66715674  0.16447807  0.50216005  1
  Cu+  Cu101  1  0.67071236  0.16670279  0.83378173  1
  Cu+  Cu102  1  0.66489233  0.50381872  0.16433065  1
  Cu+  Cu103  1  0.67112423  0.50161225  0.49969001  1
  Cu+  Cu104  1  0.66520188  0.49481145  0.83024001  1
  Cu+  Cu105  1  0.66980316  0.83486624  0.17191932  1
  Cu+  Cu106  1  0.66074123  0.83323066  0.49553406  1
  Cu+  Cu107  1  0.66607026  0.83601148  0.83018165  1
  Cu+  Cu108  1  0.73409067  0.41417754  0.92966716  1
  Cu+  Cu109  1  0.07327099  0.73898835  0.92372363  1
  Cu+  Cu110  1  0.74014929  0.06537584  0.93384440  1
  Cu+  Cu111  1  0.26312568  0.59927390  0.93108418  1
  Cu+  Cu112  1  0.26485300  0.25953095  0.92880591  1
  Cu+  Cu113  1  0.58475155  0.73735601  0.40802297  1
  Cu+  Cu114  1  0.93148272  0.73923327  0.40904791  1
  Cu+  Cu115  1  0.25564418  0.74269893  0.74069551  1
  Cu+  Cu116  1  0.59429479  0.41108706  0.73226535  1
  Cu+  Cu117  1  0.74800752  0.26087644  0.73476187  1
  Cu+  Cu118  1  0.73292506  0.26014599  0.08104231  1
  Cu+  Cu119  1  0.92437922  0.73477212  0.07511627  1
  Cu+  Cu120  1  0.07342830  0.40533948  0.92308897  1
  Cu+  Cu121  1  0.25464773  0.25968971  0.25591425  1
  Cu+  Cu122  1  0.06775464  0.40708717  0.26447906  1
  Cu+  Cu123  1  0.07180439  0.07052203  0.58881159  1
  Cu+  Cu124  1  0.74087208  0.73711540  0.25643029  1
  Cu+  Cu125  1  0.40979073  0.25957107  0.40713630  1
  Cu+  Cu126  1  0.40842610  0.73828251  0.58866613  1
  Cu+  Cu127  1  0.26399708  0.25491191  0.59286696  1
  Cu+  Cu128  1  0.40628645  0.06979465  0.92705337  1
  Cu+  Cu129  1  0.25949717  0.40571207  0.74204579  1
  Cu+  Cu130  1  0.41027964  0.41405867  0.25908775  1
  Cu+  Cu131  1  0.73452661  0.92541467  0.73633149  1
  Cu+  Cu132  1  0.06975100  0.07616971  0.92709181  1
  Te2-  Te133  1  0.25085952  0.25632080  0.07831298  1
  Te2-  Te134  1  0.25426957  0.25587333  0.40873832  1
  Te2-  Te135  1  0.25645147  0.25171147  0.74509638  1
  Te2-  Te136  1  0.25484769  0.58457401  0.08249708  1
  Te2-  Te137  1  0.24931763  0.58321157  0.41224169  1
  Te2-  Te138  1  0.25297905  0.58934031  0.74534968  1
  Te2-  Te139  1  0.25137219  0.91562706  0.07994164  1
  Te2-  Te140  1  0.25081067  0.91689907  0.41663772  1
  Te2-  Te141  1  0.25045538  0.92731032  0.75011619  1
  Te2-  Te142  1  0.58026316  0.25433272  0.08019842  1
  Te2-  Te143  1  0.58866398  0.25148713  0.41604464  1
  Te2-  Te144  1  0.59051967  0.25373722  0.74494397  1
  Te2-  Te145  1  0.58805958  0.58955572  0.07780871  1
  Te2-  Te146  1  0.58591739  0.58411799  0.41327488  1
  Te2-  Te147  1  0.58634490  0.58609614  0.74766342  1
  Te2-  Te148  1  0.58801215  0.91836282  0.08430708  1
  Te2-  Te149  1  0.58404764  0.92558500  0.41460507  1
  Te2-  Te150  1  0.58156193  0.92191831  0.74509914  1
  Te2-  Te151  1  0.91815052  0.24895758  0.07750234  1
  Te2-  Te152  1  0.92031082  0.25006686  0.41497435  1
  Te2-  Te153  1  0.91616621  0.25318387  0.75315155  1
  Te2-  Te154  1  0.91992517  0.58174325  0.07933054  1
  Te2-  Te155  1  0.92453992  0.58495478  0.41164549  1
  Te2-  Te156  1  0.92170826  0.58329867  0.74798151  1
  Te2-  Te157  1  0.92046823  0.92241133  0.08329270  1
  Te2-  Te158  1  0.91576860  0.91706344  0.41473743  1
  Te2-  Te159  1  0.91938315  0.91778614  0.75194850  1
  Te2-  Te160  1  0.24870643  0.07854128  0.24662727  1
  Te2-  Te161  1  0.25568690  0.08170435  0.58202137  1
  Te2-  Te162  1  0.25341816  0.08101093  0.91903962  1
  Te2-  Te163  1  0.25525478  0.41345551  0.25323230  1
  Te2-  Te164  1  0.25848122  0.41222021  0.58682736  1
  Te2-  Te165  1  0.25853592  0.41443889  0.92263986  1
  Te2-  Te166  1  0.25186711  0.74703788  0.25242870  1
  Te2-  Te167  1  0.25208293  0.74405861  0.58747223  1
  Te2-  Te168  1  0.25787439  0.75311763  0.92426426  1
  Te2-  Te169  1  0.58227844  0.08402671  0.25274967  1
  Te2-  Te170  1  0.58668381  0.08121519  0.58831439  1
  Te2-  Te171  1  0.58899627  0.08112922  0.92098234  1
  Te2-  Te172  1  0.58939351  0.41646503  0.25142321  1
  Te2-  Te173  1  0.58645579  0.41346347  0.58105610  1
  Te2-  Te174  1  0.58273726  0.41480645  0.92296255  1
  Te2-  Te175  1  0.58708688  0.74381144  0.25460539  1
  Te2-  Te176  1  0.58466704  0.74974674  0.58697223  1
  Te2-  Te177  1  0.58557654  0.74977489  0.91603094  1
  Te2-  Te178  1  0.92001859  0.08098871  0.25290369  1
  Te2-  Te179  1  0.91863923  0.07741501  0.58804991  1
  Te2-  Te180  1  0.91522731  0.07824877  0.92207619  1
  Te2-  Te181  1  0.91583080  0.41001763  0.25181806  1
  Te2-  Te182  1  0.92077385  0.41410827  0.58468156  1
  Te2-  Te183  1  0.92003437  0.41110691  0.91896024  1
  Te2-  Te184  1  0.92532203  0.74425600  0.25452841  1
  Te2-  Te185  1  0.91603398  0.74955106  0.58961226  1
  Te2-  Te186  1  0.91872293  0.74208790  0.92087451  1
  Te2-  Te187  1  0.07553617  0.25089124  0.25135510  1
  Te2-  Te188  1  0.07900175  0.25207350  0.58245787  1
  Te2-  Te189  1  0.07712752  0.25304675  0.91681582  1
  Te2-  Te190  1  0.08218206  0.58254687  0.25099974  1
  Te2-  Te191  1  0.08314211  0.58176262  0.58826115  1
  Te2-  Te192  1  0.07932291  0.58759445  0.91914545  1
  Te2-  Te193  1  0.08016891  0.91657232  0.24981003  1
  Te2-  Te194  1  0.07857306  0.91668417  0.58843530  1
  Te2-  Te195  1  0.07806558  0.92343971  0.92222940  1
  Te2-  Te196  1  0.41061228  0.25609416  0.25280068  1
  Te2-  Te197  1  0.41697404  0.25515267  0.59174954  1
  Te2-  Te198  1  0.41928502  0.26070138  0.91958599  1
  Te2-  Te199  1  0.41485738  0.58814989  0.25056447  1
  Te2-  Te200  1  0.41304681  0.58455530  0.58590225  1
  Te2-  Te201  1  0.41537689  0.58904329  0.91934442  1
  Te2-  Te202  1  0.41477114  0.91736557  0.25333621  1
  Te2-  Te203  1  0.41220427  0.92555312  0.58639080  1
  Te2-  Te204  1  0.41326788  0.91751258  0.92033419  1
  Te2-  Te205  1  0.74782125  0.25089191  0.25367708  1
  Te2-  Te206  1  0.74859917  0.25301633  0.58356864  1
  Te2-  Te207  1  0.74137106  0.25588166  0.92555553  1
  Te2-  Te208  1  0.74816388  0.58372858  0.25292520  1
  Te2-  Te209  1  0.75057497  0.58831459  0.58402941  1
  Te2-  Te210  1  0.74641095  0.58291409  0.91490824  1
  Te2-  Te211  1  0.75125649  0.91950741  0.25711086  1
  Te2-  Te212  1  0.74235230  0.91849162  0.58347007  1
  Te2-  Te213  1  0.74560928  0.91363407  0.92697376  1
  Te2-  Te214  1  0.07875483  0.08036169  0.07844477  1
  Te2-  Te215  1  0.08329737  0.08091231  0.40897003  1
  Te2-  Te216  1  0.08014220  0.08348545  0.74442873  1
  Te2-  Te217  1  0.07992211  0.41226044  0.07623534  1
  Te2-  Te218  1  0.08027293  0.40844681  0.41749976  1
  Te2-  Te219  1  0.08398685  0.41273175  0.74956654  1
  Te2-  Te220  1  0.07941636  0.74021630  0.07940252  1
  Te2-  Te221  1  0.08306941  0.74547232  0.41500194  1
  Te2-  Te222  1  0.08265415  0.74929558  0.75109604  1
  Te2-  Te223  1  0.41086169  0.07972604  0.08226924  1
  Te2-  Te224  1  0.41428110  0.08169769  0.41613612  1
  Te2-  Te225  1  0.41586739  0.08429261  0.74983133  1
  Te2-  Te226  1  0.41652963  0.41574857  0.07682986  1
  Te2-  Te227  1  0.41205133  0.41437917  0.41246898  1
  Te2-  Te228  1  0.41191990  0.41558434  0.74616059  1
  Te2-  Te229  1  0.41646679  0.74931462  0.08151447  1
  Te2-  Te230  1  0.41238158  0.75005444  0.41438849  1
  Te2-  Te231  1  0.41194363  0.74568526  0.74538932  1
  Te2-  Te232  1  0.74291696  0.07416295  0.08632570  1
  Te2-  Te233  1  0.74827398  0.08131042  0.41499532  1
  Te2-  Te234  1  0.74749937  0.07877325  0.74493021  1
  Te2-  Te235  1  0.74395907  0.41378111  0.08145225  1
  Te2-  Te236  1  0.74968425  0.41462865  0.41366733  1
  Te2-  Te237  1  0.74822992  0.41423766  0.73807223  1
  Te2-  Te238  1  0.74871567  0.74836076  0.08327534  1
  Te2-  Te239  1  0.74234877  0.74236344  0.41403544  1
  Te2-  Te240  1  0.74803528  0.74565285  0.74952548  1
