# generated using pymatgen
data_Ti27(Cu53Te54)2
_symmetry_space_group_name_H-M   'P 1'
_cell_length_a   17.89650493
_cell_length_b   17.90081235
_cell_length_c   17.89960903
_cell_angle_alpha   90.00284597
_cell_angle_beta   89.99915830
_cell_angle_gamma   90.00976924
_symmetry_Int_Tables_number   1
_chemical_formula_structural   Ti27(Cu53Te54)2
_chemical_formula_sum   'Ti27 Cu106 Te108'
_cell_volume   5734.35403380
_cell_formula_units_Z   1
loop_
 _symmetry_equiv_pos_site_id
 _symmetry_equiv_pos_as_xyz
  1  'x, y, z'
loop_
 _atom_type_symbol
 _atom_type_oxidation_number
  Ti4+  4.0
  Cu+  1.0
  Te2-  -2.0
loop_
 _atom_site_type_symbol
 _atom_site_label
 _atom_site_symmetry_multiplicity
 _atom_site_fract_x
 _atom_site_fract_y
 _atom_site_fract_z
 _atom_site_occupancy
  Ti4+  Ti0  1  0.16732617  0.16937652  0.16740774  1
  Ti4+  Ti1  1  0.16806450  0.16604656  0.50189779  1
  Ti4+  Ti2  1  0.16299496  0.17006667  0.83551524  1
  Ti4+  Ti3  1  0.16702730  0.50212771  0.16727686  1
  Ti4+  Ti4  1  0.16840074  0.49839076  0.50017858  1
  Ti4+  Ti5  1  0.16788886  0.50227559  0.83326797  1
  Ti4+  Ti6  1  0.16819942  0.83597628  0.16528577  1
  Ti4+  Ti7  1  0.16466956  0.82819198  0.49840634  1
  Ti4+  Ti8  1  0.16605518  0.83469358  0.83140757  1
  Ti4+  Ti9  1  0.49968377  0.16657266  0.16261672  1
  Ti4+  Ti10  1  0.49686404  0.16602498  0.50061917  1
  Ti4+  Ti11  1  0.49924351  0.16793325  0.83197997  1
  Ti4+  Ti12  1  0.50191376  0.49627536  0.17274237  1
  Ti4+  Ti13  1  0.50335766  0.50268417  0.50404824  1
  Ti4+  Ti14  1  0.50147089  0.50057929  0.83365985  1
  Ti4+  Ti15  1  0.49864887  0.83181834  0.16653011  1
  Ti4+  Ti16  1  0.49966312  0.83281285  0.50000097  1
  Ti4+  Ti17  1  0.49825495  0.83594085  0.83635146  1
  Ti4+  Ti18  1  0.83217007  0.16582413  0.16821038  1
  Ti4+  Ti19  1  0.83092134  0.16677919  0.50093596  1
  Ti4+  Ti20  1  0.83461208  0.16449993  0.83332917  1
  Ti4+  Ti21  1  0.82959606  0.50051554  0.16590062  1
  Ti4+  Ti22  1  0.83322937  0.49864110  0.50244337  1
  Ti4+  Ti23  1  0.83361066  0.49570166  0.83350818  1
  Ti4+  Ti24  1  0.83299676  0.83264450  0.16128558  1
  Ti4+  Ti25  1  0.83634865  0.83615305  0.49377444  1
  Ti4+  Ti26  1  0.83254333  0.83158598  0.82835349  1
  Cu+  Cu27  1  0.16600245  0.16981780  0.00286260  1
  Cu+  Cu28  1  0.16768142  0.16744970  0.33170143  1
  Cu+  Cu29  1  0.16705243  0.16397764  0.67280117  1
  Cu+  Cu30  1  0.16662298  0.50300622  -0.00025980  1
  Cu+  Cu31  1  0.16639678  0.50113685  0.33441089  1
  Cu+  Cu32  1  0.17169606  0.50124585  0.66769806  1
  Cu+  Cu33  1  0.16624203  0.83755750  -0.00308869  1
  Cu+  Cu34  1  0.16153077  0.82874445  0.32919719  1
  Cu+  Cu35  1  0.16917162  0.83151957  0.66360749  1
  Cu+  Cu36  1  0.49913923  0.16731665  -0.00558532  1
  Cu+  Cu37  1  0.49606172  0.16525814  0.33096652  1
  Cu+  Cu38  1  0.49706247  0.16739362  0.66445888  1
  Cu+  Cu39  1  0.49961449  0.49785734  0.00418078  1
  Cu+  Cu40  1  0.50801885  0.50531265  0.34055238  1
  Cu+  Cu41  1  0.50141543  0.49586567  0.66848069  1
  Cu+  Cu42  1  0.49416876  0.83592966  0.00297308  1
  Cu+  Cu43  1  0.49976463  0.83201954  0.33426069  1
  Cu+  Cu44  1  0.49834788  0.83451741  0.66992025  1
  Cu+  Cu45  1  0.83560880  0.16391056  0.00190773  1
  Cu+  Cu46  1  0.83228905  0.16472219  0.33790892  1
  Cu+  Cu47  1  0.83475190  0.17048960  0.66517704  1
  Cu+  Cu48  1  0.83090012  0.49861187  -0.00102453  1
  Cu+  Cu49  1  0.83071165  0.49852381  0.33444013  1
  Cu+  Cu50  1  0.83130621  0.50083361  0.66985048  1
  Cu+  Cu51  1  0.83479528  0.83296745  -0.00554193  1
  Cu+  Cu52  1  0.83660975  0.83676447  0.32385373  1
  Cu+  Cu53  1  0.83334763  0.83295088  0.65916168  1
  Cu+  Cu54  1  0.16967474  0.00671955  0.16546642  1
  Cu+  Cu55  1  0.16848334  -0.00484928  0.50447602  1
  Cu+  Cu56  1  0.16525990  0.00339317  0.83113903  1
  Cu+  Cu57  1  0.16642683  0.33472637  0.16707426  1
  Cu+  Cu58  1  0.16874376  0.33349833  0.50102699  1
  Cu+  Cu59  1  0.16318920  0.33875581  0.83749608  1
  Cu+  Cu60  1  0.16878599  0.67103052  0.16752290  1
  Cu+  Cu61  1  0.16335087  0.66042435  0.49509882  1
  Cu+  Cu62  1  0.16636270  0.66807310  0.83190197  1
  Cu+  Cu63  1  0.49730740  -0.00082923  0.16239141  1
  Cu+  Cu64  1  0.49717427  -0.00051912  0.49842512  1
  Cu+  Cu65  1  0.49826172  0.00138040  0.83486187  1
  Cu+  Cu66  1  0.50900370  0.32892083  0.16799562  1
  Cu+  Cu67  1  0.49784851  0.33580594  0.50559669  1
  Cu+  Cu68  1  0.50178101  0.33416372  0.83196387  1
  Cu+  Cu69  1  0.49890240  0.66056860  0.16869063  1
  Cu+  Cu70  1  0.49798944  0.66668674  0.50091320  1
  Cu+  Cu71  1  0.50238158  0.67142297  0.83625071  1
  Cu+  Cu72  1  0.83511284  -0.00179460  0.16407868  1
  Cu+  Cu73  1  0.83686784  0.00488108  0.49220564  1
  Cu+  Cu74  1  0.83283975  -0.00196809  0.82937625  1
  Cu+  Cu75  1  0.82888219  0.33456922  0.16685719  1
  Cu+  Cu76  1  0.83736145  0.32954465  0.50727956  1
  Cu+  Cu77  1  0.83373036  0.32568578  0.83423734  1
  Cu+  Cu78  1  0.82672399  0.66878899  0.16447486  1
  Cu+  Cu79  1  0.83325106  0.67006371  0.49965709  1
  Cu+  Cu80  1  0.83365540  0.66292981  0.83053789  1
  Cu+  Cu81  1  0.00391699  0.16908267  0.16879065  1
  Cu+  Cu82  1  -0.00060024  0.16732136  0.50524505  1
  Cu+  Cu83  1  -0.00255772  0.16939714  0.84040407  1
  Cu+  Cu84  1  -0.00589762  0.50431202  0.16457283  1
  Cu+  Cu85  1  0.00089889  0.49784190  0.50077286  1
  Cu+  Cu86  1  0.00363873  0.49460871  0.83728128  1
  Cu+  Cu87  1  0.00049352  0.83360408  0.16640744  1
  Cu+  Cu88  1  0.00357611  0.83717733  0.48862974  1
  Cu+  Cu89  1  -0.00027162  0.83376806  0.82891609  1
  Cu+  Cu90  1  0.33221263  0.16804401  0.16365628  1
  Cu+  Cu91  1  0.33336061  0.16555872  0.49997072  1
  Cu+  Cu92  1  0.33144696  0.16989553  0.83215975  1
  Cu+  Cu93  1  0.33348740  0.50103699  0.16750334  1
  Cu+  Cu94  1  0.33850507  0.50109753  0.50415243  1
  Cu+  Cu95  1  0.33191080  0.50426815  0.83589332  1
  Cu+  Cu96  1  0.33467117  0.83700737  0.16304194  1
  Cu+  Cu97  1  0.32962428  0.83020866  0.50283415  1
  Cu+  Cu98  1  0.33240033  0.83550642  0.83505108  1
  Cu+  Cu99  1  0.66615254  0.16663559  0.16518607  1
  Cu+  Cu100  1  0.66318759  0.16497117  0.50246895  1
  Cu+  Cu101  1  0.66884013  0.16673488  0.83041452  1
  Cu+  Cu102  1  0.66658877  0.49282909  0.17463577  1
  Cu+  Cu103  1  0.66697312  0.49865270  0.49918257  1
  Cu+  Cu104  1  0.66681238  0.49674265  0.82934852  1
  Cu+  Cu105  1  0.66695848  0.82853933  0.16309042  1
  Cu+  Cu106  1  0.66849527  0.83392608  0.49849743  1
  Cu+  Cu107  1  0.66260914  0.83090196  0.83191645  1
  Cu+  Cu108  1  0.07705689  0.41052184  0.93257641  1
  Cu+  Cu109  1  0.92224742  0.25668010  0.93401410  1
  Cu+  Cu110  1  0.73935820  0.74735591  0.25711556  1
  Cu+  Cu111  1  0.07118340  0.73871545  0.25164528  1
  Cu+  Cu112  1  0.06791360  0.58266511  0.40579366  1
  Cu+  Cu113  1  0.73950082  0.25147774  0.73742088  1
  Cu+  Cu114  1  0.59181690  0.40611252  0.07282437  1
  Cu+  Cu115  1  0.93188488  0.08528199  0.40760496  1
  Cu+  Cu116  1  0.93194329  0.25994833  0.59531997  1
  Cu+  Cu117  1  0.74063131  0.59201848  0.74464788  1
  Cu+  Cu118  1  0.26142240  0.07515958  0.74796737  1
  Cu+  Cu119  1  0.26103062  0.92084924  0.59205806  1
  Cu+  Cu120  1  0.40386968  0.93180030  0.07267344  1
  Cu+  Cu121  1  0.09026312  0.93051751  0.40323373  1
  Cu+  Cu122  1  0.59441330  0.24352783  0.26471025  1
  Cu+  Cu123  1  0.59352573  0.59431401  0.26060458  1
  Cu+  Cu124  1  0.40735366  0.58806561  0.07369546  1
  Cu+  Cu125  1  0.93008273  0.92952519  0.24801179  1
  Cu+  Cu126  1  0.58602579  0.74487905  0.73990045  1
  Cu+  Cu127  1  0.40502931  0.40705650  0.59725721  1
  Cu+  Cu128  1  0.40660796  0.59384749  0.41242448  1
  Cu+  Cu129  1  0.74192872  0.74452295  0.58767271  1
  Cu+  Cu130  1  0.59255840  0.40452762  0.74099529  1
  Cu+  Cu131  1  0.74822658  0.40219247  0.26595883  1
  Cu+  Cu132  1  0.58995412  0.40334477  0.41601219  1
  Te2-  Te133  1  0.25195574  0.25565503  0.08098481  1
  Te2-  Te134  1  0.25168309  0.25064048  0.41615245  1
  Te2-  Te135  1  0.24784402  0.25728915  0.75092726  1
  Te2-  Te136  1  0.25236882  0.58832138  0.08108568  1
  Te2-  Te137  1  0.25610150  0.58431845  0.41381553  1
  Te2-  Te138  1  0.25402013  0.58843683  0.74816581  1
  Te2-  Te139  1  0.25110453  0.92344123  0.07844243  1
  Te2-  Te140  1  0.25042806  0.91440183  0.41156882  1
  Te2-  Te141  1  0.25494680  0.92113868  0.74533813  1
  Te2-  Te142  1  0.58860303  0.25016867  0.07397943  1
  Te2-  Te143  1  0.58557020  0.25181402  0.41576588  1
  Te2-  Te144  1  0.58578070  0.25272437  0.74260212  1
  Te2-  Te145  1  0.58898578  0.58091380  0.08572697  1
  Te2-  Te146  1  0.59317032  0.59330310  0.41884076  1
  Te2-  Te147  1  0.58588437  0.58914113  0.74528176  1
  Te2-  Te148  1  0.58605696  0.91654860  0.08191007  1
  Te2-  Te149  1  0.58403608  0.91782023  0.41520299  1
  Te2-  Te150  1  0.58402544  0.92146515  0.74913732  1
  Te2-  Te151  1  0.91874215  0.25340079  0.08595447  1
  Te2-  Te152  1  0.91997885  0.25265548  0.41500139  1
  Te2-  Te153  1  0.92419802  0.25317557  0.74670154  1
  Te2-  Te154  1  0.91245195  0.58736349  0.07936590  1
  Te2-  Te155  1  0.91566787  0.58427983  0.41497055  1
  Te2-  Te156  1  0.92251933  0.57997242  0.75060163  1
  Te2-  Te157  1  0.92056636  0.91809223  0.07678339  1
  Te2-  Te158  1  0.92335981  0.92451325  0.40460667  1
  Te2-  Te159  1  0.91692361  0.91690626  0.74329530  1
  Te2-  Te160  1  0.25491369  0.08373965  0.25225798  1
  Te2-  Te161  1  0.25452485  0.07927528  0.58834691  1
  Te2-  Te162  1  0.24988984  0.08464306  0.91947310  1
  Te2-  Te163  1  0.25088278  0.41658635  0.25218248  1
  Te2-  Te164  1  0.25443364  0.41317816  0.58750992  1
  Te2-  Te165  1  0.25390092  0.41693924  0.92112203  1
  Te2-  Te166  1  0.25565057  0.75179674  0.25054430  1
  Te2-  Te167  1  0.24888109  0.74015741  0.58298805  1
  Te2-  Te168  1  0.25049436  0.74974263  0.91807419  1
  Te2-  Te169  1  0.58341755  0.07950673  0.24906320  1
  Te2-  Te170  1  0.58156601  0.07985524  0.58564197  1
  Te2-  Te171  1  0.58654287  0.08301302  0.91539437  1
  Te2-  Te172  1  0.59018720  0.40543622  0.26378040  1
  Te2-  Te173  1  0.59157147  0.41222561  0.58874856  1
  Te2-  Te174  1  0.58665689  0.41367777  0.91970672  1
  Te2-  Te175  1  0.58588114  0.74554495  0.25482556  1
  Te2-  Te176  1  0.58640806  0.74649923  0.58625388  1
  Te2-  Te177  1  0.58370266  0.75148625  0.92470876  1
  Te2-  Te178  1  0.92197242  0.08200028  0.25295650  1
  Te2-  Te179  1  0.91709699  0.07965206  0.58722126  1
  Te2-  Te180  1  0.91767152  0.07623971  0.91901850  1
  Te2-  Te181  1  0.91713436  0.41563969  0.25131680  1
  Te2-  Te182  1  0.92043513  0.41607363  0.58959545  1
  Te2-  Te183  1  0.91864230  0.41051547  0.92315808  1
  Te2-  Te184  1  0.91913529  0.74312922  0.24952877  1
  Te2-  Te185  1  0.92377985  0.75174505  0.57838598  1
  Te2-  Te186  1  0.91843509  0.74705310  0.91289319  1
  Te2-  Te187  1  0.08219686  0.25501071  0.25435693  1
  Te2-  Te188  1  0.08456743  0.25253695  0.58886038  1
  Te2-  Te189  1  0.07800272  0.25673161  0.92630865  1
  Te2-  Te190  1  0.07730949  0.58715136  0.25203521  1
  Te2-  Te191  1  0.08229595  0.58279603  0.58716726  1
  Te2-  Te192  1  0.08082174  0.58829632  0.91839190  1
  Te2-  Te193  1  0.08194316  0.92723404  0.25097341  1
  Te2-  Te194  1  0.07869027  0.91445898  0.58527534  1
  Te2-  Te195  1  0.07973577  0.92033927  0.91479057  1
  Te2-  Te196  1  0.41417952  0.25255121  0.24835072  1
  Te2-  Te197  1  0.41036895  0.25309666  0.58715526  1
  Te2-  Te198  1  0.41436037  0.25453662  0.91605182  1
  Te2-  Te199  1  0.41364560  0.58323353  0.25806342  1
  Te2-  Te200  1  0.41699618  0.58751993  0.59196596  1
  Te2-  Te201  1  0.41690130  0.58682258  0.92026452  1
  Te2-  Te202  1  0.41558340  0.91867589  0.25314445  1
  Te2-  Te203  1  0.41414849  0.91829064  0.58616547  1
  Te2-  Te204  1  0.41031243  0.92337875  0.92013321  1
  Te2-  Te205  1  0.74645850  0.25080726  0.25714203  1
  Te2-  Te206  1  0.74190445  0.25348983  0.58572636  1
  Te2-  Te207  1  0.74777095  0.24849257  0.92193600  1
  Te2-  Te208  1  0.74560261  0.58891821  0.25687536  1
  Te2-  Te209  1  0.74605398  0.58652681  0.58615431  1
  Te2-  Te210  1  0.74642369  0.58278348  0.91643738  1
  Te2-  Te211  1  0.74500142  0.91912912  0.24687027  1
  Te2-  Te212  1  0.75169997  0.92269691  0.57851202  1
  Te2-  Te213  1  0.74765529  0.91642482  0.91365776  1
  Te2-  Te214  1  0.08072105  0.08354217  0.08134875  1
  Te2-  Te215  1  0.08269954  0.08116069  0.41387352  1
  Te2-  Te216  1  0.07501008  0.08444955  0.75139838  1
  Te2-  Te217  1  0.07882053  0.41708734  0.08397524  1
  Te2-  Te218  1  0.08199612  0.41217155  0.41462911  1
  Te2-  Te219  1  0.08331720  0.41634115  0.74490983  1
  Te2-  Te220  1  0.08306032  0.75084265  0.07942536  1
  Te2-  Te221  1  0.07629797  0.73993635  0.40875660  1
  Te2-  Te222  1  0.08237641  0.74874911  0.74559230  1
  Te2-  Te223  1  0.41210151  0.08339841  0.07596121  1
  Te2-  Te224  1  0.41299575  0.08116011  0.41349959  1
  Te2-  Te225  1  0.41374164  0.08102986  0.74655135  1
  Te2-  Te226  1  0.41596728  0.41086478  0.08696750  1
  Te2-  Te227  1  0.41791126  0.41698032  0.41486211  1
  Te2-  Te228  1  0.41076986  0.41505295  0.75112069  1
  Te2-  Te229  1  0.41291006  0.74296724  0.08196067  1
  Te2-  Te230  1  0.41175141  0.74812565  0.41445311  1
  Te2-  Te231  1  0.41252407  0.74852422  0.75068017  1
  Te2-  Te232  1  0.74880013  0.08080468  0.08230045  1
  Te2-  Te233  1  0.74211672  0.08176875  0.41482077  1
  Te2-  Te234  1  0.74958268  0.08090641  0.74419583  1
  Te2-  Te235  1  0.74502268  0.41269557  0.07810558  1
  Te2-  Te236  1  0.74890076  0.40785066  0.41833194  1
  Te2-  Te237  1  0.74813150  0.40669043  0.74527636  1
  Te2-  Te238  1  0.74732394  0.74797046  0.07334737  1
  Te2-  Te239  1  0.74941057  0.74976746  0.40929098  1
  Te2-  Te240  1  0.74367901  0.74412732  0.74109574  1
