# generated using pymatgen
data_Ti27(Cu53Te54)2
_symmetry_space_group_name_H-M   'P 1'
_cell_length_a   17.90459904
_cell_length_b   17.90032573
_cell_length_c   17.91182424
_cell_angle_alpha   90.04037739
_cell_angle_beta   89.98199108
_cell_angle_gamma   90.00761891
_symmetry_Int_Tables_number   1
_chemical_formula_structural   Ti27(Cu53Te54)2
_chemical_formula_sum   'Ti27 Cu106 Te108'
_cell_volume   5740.70486028
_cell_formula_units_Z   1
loop_
 _symmetry_equiv_pos_site_id
 _symmetry_equiv_pos_as_xyz
  1  'x, y, z'
loop_
 _atom_type_symbol
 _atom_type_oxidation_number
  Ti4+  4.0
  Cu+  1.0
  Te2-  -2.0
loop_
 _atom_site_type_symbol
 _atom_site_label
 _atom_site_symmetry_multiplicity
 _atom_site_fract_x
 _atom_site_fract_y
 _atom_site_fract_z
 _atom_site_occupancy
  Ti4+  Ti0  1  0.16376885  0.16420919  0.16528439  1
  Ti4+  Ti1  1  0.16613841  0.16520204  0.50153613  1
  Ti4+  Ti2  1  0.17104612  0.16887783  0.83417755  1
  Ti4+  Ti3  1  0.16725864  0.50065132  0.16517192  1
  Ti4+  Ti4  1  0.16537598  0.50131766  0.50434782  1
  Ti4+  Ti5  1  0.16693716  0.50244868  0.83279649  1
  Ti4+  Ti6  1  0.16655201  0.82995489  0.16443120  1
  Ti4+  Ti7  1  0.16704175  0.83152052  0.50067068  1
  Ti4+  Ti8  1  0.16946483  0.83274475  0.83441983  1
  Ti4+  Ti9  1  0.49506866  0.16872419  0.17427833  1
  Ti4+  Ti10  1  0.50079197  0.16531697  0.50214758  1
  Ti4+  Ti11  1  0.50073770  0.16797823  0.83261055  1
  Ti4+  Ti12  1  0.50187828  0.49940967  0.16630669  1
  Ti4+  Ti13  1  0.49994554  0.50037720  0.50041776  1
  Ti4+  Ti14  1  0.50197332  0.49907765  0.83279761  1
  Ti4+  Ti15  1  0.49948766  0.83280062  0.16588570  1
  Ti4+  Ti16  1  0.49877873  0.83055283  0.49842551  1
  Ti4+  Ti17  1  0.50249681  0.83413400  0.83249976  1
  Ti4+  Ti18  1  0.82616498  0.16417335  0.16475489  1
  Ti4+  Ti19  1  0.83422319  0.16612868  0.49989256  1
  Ti4+  Ti20  1  0.83649744  0.16809836  0.83354857  1
  Ti4+  Ti21  1  0.83330708  0.49783848  0.16172138  1
  Ti4+  Ti22  1  0.83602341  0.50167970  0.49404818  1
  Ti4+  Ti23  1  0.83464258  0.49948305  0.82899910  1
  Ti4+  Ti24  1  0.83209882  0.83461520  0.17036667  1
  Ti4+  Ti25  1  0.83189356  0.83517628  0.50295446  1
  Ti4+  Ti26  1  0.83302727  0.83371873  0.83539299  1
  Cu+  Cu27  1  0.16396222  0.16410777  -0.00237741  1
  Cu+  Cu28  1  0.16433909  0.16454397  0.33134262  1
  Cu+  Cu29  1  0.17052611  0.16763442  0.67003201  1
  Cu+  Cu30  1  0.16490329  0.50175906  0.00153207  1
  Cu+  Cu31  1  0.16432836  0.49802338  0.33766908  1
  Cu+  Cu32  1  0.16846443  0.50825934  0.66908086  1
  Cu+  Cu33  1  0.16850076  0.82390253  -0.00086137  1
  Cu+  Cu34  1  0.16856480  0.82999232  0.33022337  1
  Cu+  Cu35  1  0.16771885  0.83408377  0.66605356  1
  Cu+  Cu36  1  0.49679743  0.17077621  0.00436450  1
  Cu+  Cu37  1  0.49361172  0.17196261  0.34342045  1
  Cu+  Cu38  1  0.50247484  0.16565333  0.66573838  1
  Cu+  Cu39  1  0.50382106  0.49988427  0.00013338  1
  Cu+  Cu40  1  0.49963226  0.49941036  0.33352390  1
  Cu+  Cu41  1  0.50133880  0.49780042  0.66765852  1
  Cu+  Cu42  1  0.50210079  0.83327823  -0.00398583  1
  Cu+  Cu43  1  0.49748250  0.83188162  0.33195495  1
  Cu+  Cu44  1  0.50248342  0.83345685  0.66337134  1
  Cu+  Cu45  1  0.83347807  0.15774894  -0.00077621  1
  Cu+  Cu46  1  0.82765683  0.16431565  0.33176537  1
  Cu+  Cu47  1  0.83486621  0.17275406  0.66652641  1
  Cu+  Cu48  1  0.83414968  0.49473014  -0.00792364  1
  Cu+  Cu49  1  0.83573463  0.49844150  0.32392120  1
  Cu+  Cu50  1  0.83682852  0.50078703  0.65893436  1
  Cu+  Cu51  1  0.83208918  0.83529631  0.00529055  1
  Cu+  Cu52  1  0.83347478  0.83371111  0.33962380  1
  Cu+  Cu53  1  0.83058847  0.83628812  0.67332344  1
  Cu+  Cu54  1  0.16514638  -0.00416125  0.16297763  1
  Cu+  Cu55  1  0.16703300  -0.00221845  0.49936287  1
  Cu+  Cu56  1  0.17368475  0.00199123  0.83351599  1
  Cu+  Cu57  1  0.16653832  0.32941997  0.16810775  1
  Cu+  Cu58  1  0.16543890  0.33612486  0.50423584  1
  Cu+  Cu59  1  0.16822020  0.33478038  0.83156669  1
  Cu+  Cu60  1  0.16828939  0.66610895  0.15685823  1
  Cu+  Cu61  1  0.16843629  0.66459317  0.50401915  1
  Cu+  Cu62  1  0.16394225  0.66915847  0.83515343  1
  Cu+  Cu63  1  0.49757545  0.00156364  0.17029014  1
  Cu+  Cu64  1  0.50202898  -0.00275839  0.50165116  1
  Cu+  Cu65  1  0.50084411  0.00031714  0.83391302  1
  Cu+  Cu66  1  0.49398326  0.33750487  0.17397585  1
  Cu+  Cu67  1  0.50151251  0.33284249  0.50134796  1
  Cu+  Cu68  1  0.50021090  0.33306140  0.83242305  1
  Cu+  Cu69  1  0.50351174  0.66482395  0.16554038  1
  Cu+  Cu70  1  0.49748826  0.66620638  0.49734669  1
  Cu+  Cu71  1  0.50369689  0.66612155  0.83195243  1
  Cu+  Cu72  1  0.82402715  -0.00054279  0.16529826  1
  Cu+  Cu73  1  0.83409817  0.00144974  0.50475846  1
  Cu+  Cu74  1  0.83463079  -0.00074005  0.83508837  1
  Cu+  Cu75  1  0.82664499  0.33210567  0.16578039  1
  Cu+  Cu76  1  0.83601753  0.33223580  0.49361463  1
  Cu+  Cu77  1  0.83175899  0.33554219  0.82966257  1
  Cu+  Cu78  1  0.83805529  0.66444974  0.16590652  1
  Cu+  Cu79  1  0.83804759  0.67213410  0.49686944  1
  Cu+  Cu80  1  0.83471856  0.66700640  0.83450257  1
  Cu+  Cu81  1  -0.00481183  0.16602140  0.16175493  1
  Cu+  Cu82  1  -0.00121305  0.16543710  0.50002086  1
  Cu+  Cu83  1  0.00856086  0.17015911  0.83482490  1
  Cu+  Cu84  1  -0.00048093  0.50147880  0.16255463  1
  Cu+  Cu85  1  -0.00025364  0.50804558  0.49936197  1
  Cu+  Cu86  1  0.00132333  0.50250486  0.82566338  1
  Cu+  Cu87  1  0.00027583  0.83411255  0.17042110  1
  Cu+  Cu88  1  0.00012841  0.83190017  0.50183329  1
  Cu+  Cu89  1  -0.00025917  0.83225414  0.83992675  1
  Cu+  Cu90  1  0.32627353  0.17088663  0.17266458  1
  Cu+  Cu91  1  0.33493207  0.16572753  0.50223463  1
  Cu+  Cu92  1  0.33412421  0.16474593  0.83117295  1
  Cu+  Cu93  1  0.33697492  0.49838588  0.16689839  1
  Cu+  Cu94  1  0.32983294  0.50171452  0.50642971  1
  Cu+  Cu95  1  0.33645071  0.50012912  0.83575126  1
  Cu+  Cu96  1  0.33295650  0.82845032  0.16206738  1
  Cu+  Cu97  1  0.33376680  0.83022405  0.49799955  1
  Cu+  Cu98  1  0.33888969  0.83431646  0.83176041  1
  Cu+  Cu99  1  0.65763676  0.15956904  0.17060730  1
  Cu+  Cu100  1  0.66761310  0.16546861  0.50178978  1
  Cu+  Cu101  1  0.66976967  0.17158833  0.83232247  1
  Cu+  Cu102  1  0.66784355  0.49590374  0.16508439  1
  Cu+  Cu103  1  0.66701015  0.49976509  0.49527974  1
  Cu+  Cu104  1  0.66799960  0.49545687  0.83113725  1
  Cu+  Cu105  1  0.66691797  0.83588675  0.16867843  1
  Cu+  Cu106  1  0.66240055  0.83551480  0.50471824  1
  Cu+  Cu107  1  0.66803114  0.83553387  0.83077652  1
  Cu+  Cu108  1  0.06910379  0.73982994  0.92612963  1
  Cu+  Cu109  1  0.57536068  0.07380227  0.07256745  1
  Cu+  Cu110  1  0.26350359  0.07256541  0.73788321  1
  Cu+  Cu111  1  0.08014605  0.26228114  0.73845860  1
  Cu+  Cu112  1  0.26863430  0.73707196  0.06836025  1
  Cu+  Cu113  1  0.92967912  0.74987855  0.40774288  1
  Cu+  Cu114  1  0.92776830  0.59057589  0.25206041  1
  Cu+  Cu115  1  0.74015425  0.40684779  0.25851605  1
  Cu+  Cu116  1  0.73531977  0.91980977  0.07455552  1
  Cu+  Cu117  1  0.92560912  0.06972460  0.08080134  1
  Cu+  Cu118  1  0.08347215  0.59452700  0.40657505  1
  Cu+  Cu119  1  0.40305401  0.41791579  0.26472589  1
  Cu+  Cu120  1  0.58834528  0.92756562  0.59278765  1
  Cu+  Cu121  1  0.08052476  0.07178753  0.92062261  1
  Cu+  Cu122  1  0.07475789  0.59996595  0.74263785  1
  Cu+  Cu123  1  0.26513070  0.59607647  0.59914091  1
  Cu+  Cu124  1  0.24860290  0.25977778  0.26400960  1
  Cu+  Cu125  1  0.07052423  0.59076237  0.07292310  1
  Cu+  Cu126  1  0.74187720  0.92903591  0.74219355  1
  Cu+  Cu127  1  0.73777573  0.40713139  0.92242809  1
  Cu+  Cu128  1  0.40260313  0.26431201  0.42336897  1
  Cu+  Cu129  1  0.73360258  0.07154335  0.26635682  1
  Cu+  Cu130  1  0.73992426  0.26289308  0.73583622  1
  Cu+  Cu131  1  0.91813704  0.59952758  0.59253902  1
  Cu+  Cu132  1  0.73729250  0.07320379  0.91435351  1
  Te2-  Te133  1  0.24897625  0.24993933  0.07856790  1
  Te2-  Te134  1  0.25027351  0.25512787  0.41628455  1
  Te2-  Te135  1  0.25718607  0.25589475  0.74779719  1
  Te2-  Te136  1  0.25824888  0.58231590  0.07850630  1
  Te2-  Te137  1  0.25241389  0.58497682  0.41499981  1
  Te2-  Te138  1  0.25733514  0.59012430  0.75248813  1
  Te2-  Te139  1  0.25133718  0.91544340  0.07820987  1
  Te2-  Te140  1  0.25115364  0.91516277  0.41408979  1
  Te2-  Te141  1  0.25532456  0.91750378  0.74700698  1
  Te2-  Te142  1  0.58011530  0.25437800  0.08975887  1
  Te2-  Te143  1  0.58840901  0.25194176  0.41755596  1
  Te2-  Te144  1  0.58637369  0.25393026  0.74575347  1
  Te2-  Te145  1  0.58900004  0.58397452  0.08128663  1
  Te2-  Te146  1  0.58371102  0.58498707  0.41345853  1
  Te2-  Te147  1  0.58790430  0.58315312  0.74739306  1
  Te2-  Te148  1  0.58417870  0.92142699  0.07879420  1
  Te2-  Te149  1  0.58424903  0.91666346  0.41208727  1
  Te2-  Te150  1  0.58777275  0.92367320  0.74564132  1
  Te2-  Te151  1  0.91142787  0.25123525  0.07979321  1
  Te2-  Te152  1  0.91836489  0.24752249  0.41027442  1
  Te2-  Te153  1  0.92363310  0.25403917  0.74869105  1
  Te2-  Te154  1  0.91720104  0.58519388  0.07235979  1
  Te2-  Te155  1  0.92257042  0.59071751  0.40498715  1
  Te2-  Te156  1  0.91945605  0.59091074  0.74403617  1
  Te2-  Te157  1  0.92070831  0.91876438  0.08361817  1
  Te2-  Te158  1  0.91900410  0.92087715  0.41864611  1
  Te2-  Te159  1  0.92223098  0.91836605  0.75186675  1
  Te2-  Te160  1  0.24811040  0.07660712  0.25043985  1
  Te2-  Te161  1  0.25315230  0.07899990  0.58501133  1
  Te2-  Te162  1  0.25701538  0.08204576  0.92209994  1
  Te2-  Te163  1  0.25046570  0.41447043  0.25551505  1
  Te2-  Te164  1  0.25016325  0.41522680  0.59080135  1
  Te2-  Te165  1  0.25059266  0.41735523  0.91870205  1
  Te2-  Te166  1  0.25214622  0.74340124  0.24894376  1
  Te2-  Te167  1  0.25442952  0.74756975  0.58785873  1
  Te2-  Te168  1  0.25946706  0.74515824  0.91565627  1
  Te2-  Te169  1  0.57759757  0.08053719  0.26351112  1
  Te2-  Te170  1  0.58892893  0.08007669  0.58801372  1
  Te2-  Te171  1  0.58555508  0.08155635  0.92023212  1
  Te2-  Te172  1  0.58778939  0.41310507  0.25546829  1
  Te2-  Te173  1  0.58700297  0.41584579  0.58346284  1
  Te2-  Te174  1  0.58614458  0.41077392  0.91956835  1
  Te2-  Te175  1  0.58542183  0.74884906  0.25097871  1
  Te2-  Te176  1  0.58430904  0.74329965  0.58441234  1
  Te2-  Te177  1  0.58879535  0.74860834  0.91627432  1
  Te2-  Te178  1  0.91457651  0.08040814  0.24913243  1
  Te2-  Te179  1  0.91884325  0.08322211  0.58850596  1
  Te2-  Te180  1  0.92521427  0.07847961  0.91834795  1
  Te2-  Te181  1  0.92101816  0.41009774  0.24537569  1
  Te2-  Te182  1  0.92057998  0.41414862  0.57830594  1
  Te2-  Te183  1  0.92395155  0.41457744  0.91132953  1
  Te2-  Te184  1  0.92090285  0.74744986  0.25490146  1
  Te2-  Te185  1  0.91853214  0.75203354  0.59235349  1
  Te2-  Te186  1  0.91593185  0.74679258  0.92441139  1
  Te2-  Te187  1  0.07598906  0.24913705  0.25018288  1
  Te2-  Te188  1  0.08035536  0.25163085  0.58610416  1
  Te2-  Te189  1  0.08462202  0.25749004  0.92105959  1
  Te2-  Te190  1  0.08227114  0.58872146  0.25208544  1
  Te2-  Te191  1  0.07625607  0.59243973  0.59087941  1
  Te2-  Te192  1  0.07616923  0.58671545  0.92030273  1
  Te2-  Te193  1  0.08358444  0.91705325  0.25226747  1
  Te2-  Te194  1  0.08193599  0.91773426  0.58507734  1
  Te2-  Te195  1  0.08486572  0.91844249  0.92126671  1
  Te2-  Te196  1  0.40688968  0.25741655  0.26116088  1
  Te2-  Te197  1  0.41511764  0.25231929  0.58838112  1
  Te2-  Te198  1  0.41454983  0.25161396  0.91728922  1
  Te2-  Te199  1  0.41601690  0.58680849  0.25175691  1
  Te2-  Te200  1  0.41647308  0.58631577  0.58830450  1
  Te2-  Te201  1  0.41920634  0.58558877  0.91907073  1
  Te2-  Te202  1  0.41147658  0.91534469  0.24960948  1
  Te2-  Te203  1  0.41263284  0.91680682  0.58440401  1
  Te2-  Te204  1  0.41647260  0.91976167  0.91836872  1
  Te2-  Te205  1  0.74100010  0.25056350  0.25211888  1
  Te2-  Te206  1  0.74805815  0.25602251  0.58264975  1
  Te2-  Te207  1  0.75060506  0.25324366  0.92203030  1
  Te2-  Te208  1  0.74742992  0.58552681  0.24757900  1
  Te2-  Te209  1  0.74964549  0.58675898  0.57881957  1
  Te2-  Te210  1  0.74859019  0.58385685  0.91534802  1
  Te2-  Te211  1  0.74521336  0.91805698  0.25963011  1
  Te2-  Te212  1  0.74541012  0.92279835  0.58954026  1
  Te2-  Te213  1  0.74445787  0.92057804  0.92267142  1
  Te2-  Te214  1  0.07812277  0.07585822  0.07747937  1
  Te2-  Te215  1  0.08201464  0.08081325  0.41604999  1
  Te2-  Te216  1  0.08353900  0.07971490  0.74850402  1
  Te2-  Te217  1  0.08310259  0.41231068  0.08237622  1
  Te2-  Te218  1  0.07874348  0.41455412  0.41872829  1
  Te2-  Te219  1  0.08313848  0.41575430  0.74377579  1
  Te2-  Te220  1  0.07253518  0.74523437  0.07915146  1
  Te2-  Te221  1  0.08156227  0.74560024  0.41165894  1
  Te2-  Te222  1  0.07927842  0.75164281  0.74664459  1
  Te2-  Te223  1  0.41032347  0.08514228  0.08706786  1
  Te2-  Te224  1  0.41407405  0.07701570  0.41869293  1
  Te2-  Te225  1  0.41717492  0.07987932  0.74600679  1
  Te2-  Te226  1  0.41618175  0.41415690  0.07868899  1
  Te2-  Te227  1  0.40865757  0.41535165  0.41696340  1
  Te2-  Te228  1  0.41462033  0.41442899  0.74849182  1
  Te2-  Te229  1  0.41953737  0.74457898  0.07714533  1
  Te2-  Te230  1  0.41283220  0.74580153  0.41179580  1
  Te2-  Te231  1  0.41920929  0.74822709  0.74657959  1
  Te2-  Te232  1  0.73570446  0.07704345  0.07500201  1
  Te2-  Te233  1  0.74606816  0.07768161  0.41762105  1
  Te2-  Te234  1  0.74957718  0.08238426  0.74615413  1
  Te2-  Te235  1  0.74599231  0.41205458  0.07504034  1
  Te2-  Te236  1  0.74962696  0.41470195  0.41012910  1
  Te2-  Te237  1  0.74874195  0.41613713  0.73865308  1
  Te2-  Te238  1  0.74842282  0.74691818  0.08524148  1
  Te2-  Te239  1  0.74421321  0.75071194  0.41863330  1
  Te2-  Te240  1  0.74829731  0.74583983  0.75042667  1
