# generated using pymatgen
data_Ti27(Cu53Te54)2
_symmetry_space_group_name_H-M   'P 1'
_cell_length_a   17.87449098
_cell_length_b   17.87186440
_cell_length_c   17.87146565
_cell_angle_alpha   90.01150079
_cell_angle_beta   90.02625796
_cell_angle_gamma   89.99791054
_symmetry_Int_Tables_number   1
_chemical_formula_structural   Ti27(Cu53Te54)2
_chemical_formula_sum   'Ti27 Cu106 Te108'
_cell_volume   5709.04754571
_cell_formula_units_Z   1
loop_
 _symmetry_equiv_pos_site_id
 _symmetry_equiv_pos_as_xyz
  1  'x, y, z'
loop_
 _atom_type_symbol
 _atom_type_oxidation_number
  Ti4+  4.0
  Cu+  1.0
  Te2-  -2.0
loop_
 _atom_site_type_symbol
 _atom_site_label
 _atom_site_symmetry_multiplicity
 _atom_site_fract_x
 _atom_site_fract_y
 _atom_site_fract_z
 _atom_site_occupancy
  Ti4+  Ti0  1  0.16648502  0.16917017  0.17077306  1
  Ti4+  Ti1  1  0.16629027  0.16528725  0.50290426  1
  Ti4+  Ti2  1  0.16881567  0.16733724  0.83402465  1
  Ti4+  Ti3  1  0.16508472  0.50359673  0.16522703  1
  Ti4+  Ti4  1  0.16725088  0.50105522  0.50142479  1
  Ti4+  Ti5  1  0.16950343  0.49749652  0.83158781  1
  Ti4+  Ti6  1  0.16671646  0.83480361  0.16507801  1
  Ti4+  Ti7  1  0.16723887  0.82776069  0.49956916  1
  Ti4+  Ti8  1  0.16289180  0.83337962  0.83163586  1
  Ti4+  Ti9  1  0.50065245  0.16641357  0.16668303  1
  Ti4+  Ti10  1  0.49923543  0.16519107  0.49918029  1
  Ti4+  Ti11  1  0.50105498  0.16689586  0.83600021  1
  Ti4+  Ti12  1  0.49808797  0.50229413  0.16560352  1
  Ti4+  Ti13  1  0.50025870  0.49935704  0.50166293  1
  Ti4+  Ti14  1  0.50076074  0.50092887  0.83417301  1
  Ti4+  Ti15  1  0.49977262  0.83566153  0.16207770  1
  Ti4+  Ti16  1  0.50146880  0.83380321  0.49727707  1
  Ti4+  Ti17  1  0.49743571  0.83326803  0.83609871  1
  Ti4+  Ti18  1  0.83364379  0.16656923  0.16589254  1
  Ti4+  Ti19  1  0.83398510  0.16815233  0.49822621  1
  Ti4+  Ti20  1  0.83458011  0.16620336  0.83113150  1
  Ti4+  Ti21  1  0.83153657  0.49792872  0.16671117  1
  Ti4+  Ti22  1  0.83236680  0.50024881  0.50438663  1
  Ti4+  Ti23  1  0.83354912  0.49665156  0.83418767  1
  Ti4+  Ti24  1  0.83288412  0.83161307  0.16574270  1
  Ti4+  Ti25  1  0.83402165  0.83409954  0.49995986  1
  Ti4+  Ti26  1  0.83281830  0.83363594  0.83329813  1
  Cu+  Cu27  1  0.16802378  0.16960672  0.00682247  1
  Cu+  Cu28  1  0.16313921  0.16741108  0.33898156  1
  Cu+  Cu29  1  0.16956450  0.16615818  0.66870855  1
  Cu+  Cu30  1  0.16418299  0.50003024  -0.00318344  1
  Cu+  Cu31  1  0.16567168  0.50752613  0.33334585  1
  Cu+  Cu32  1  0.17153178  0.49259451  0.66592862  1
  Cu+  Cu33  1  0.16526709  0.83684478  -0.00117229  1
  Cu+  Cu34  1  0.16714508  0.82910494  0.32920758  1
  Cu+  Cu35  1  0.16553927  0.82484508  0.66732476  1
  Cu+  Cu36  1  0.50019669  0.16172079  0.00003808  1
  Cu+  Cu37  1  0.49953594  0.16069494  0.33418114  1
  Cu+  Cu38  1  0.50082451  0.16718820  0.66806992  1
  Cu+  Cu39  1  0.49592327  0.49884243  0.00120425  1
  Cu+  Cu40  1  0.49625038  0.50401044  0.33597126  1
  Cu+  Cu41  1  0.50860451  0.50467672  0.66409376  1
  Cu+  Cu42  1  0.50682073  0.83387416  -0.00052828  1
  Cu+  Cu43  1  0.50200373  0.83678594  0.32837005  1
  Cu+  Cu44  1  0.49425438  0.83260345  0.66516354  1
  Cu+  Cu45  1  0.83302852  0.16543965  -0.00443309  1
  Cu+  Cu46  1  0.83473864  0.17054178  0.32927542  1
  Cu+  Cu47  1  0.83485983  0.16632264  0.66578243  1
  Cu+  Cu48  1  0.83669073  0.49425001  0.00211214  1
  Cu+  Cu49  1  0.83046272  0.50019907  0.33510848  1
  Cu+  Cu50  1  0.82689639  0.49740537  0.66960621  1
  Cu+  Cu51  1  0.83221616  0.83231125  -0.00026959  1
  Cu+  Cu52  1  0.83477451  0.83364098  0.33467738  1
  Cu+  Cu53  1  0.83250014  0.83580862  0.66653936  1
  Cu+  Cu54  1  0.16516719  0.00211834  0.16741785  1
  Cu+  Cu55  1  0.17065497  -0.00387636  0.50033763  1
  Cu+  Cu56  1  0.16716125  -0.00132805  0.83546698  1
  Cu+  Cu57  1  0.16916398  0.33683407  0.17051494  1
  Cu+  Cu58  1  0.16317123  0.33229231  0.50310550  1
  Cu+  Cu59  1  0.17111513  0.33383962  0.83181077  1
  Cu+  Cu60  1  0.16421628  0.67179318  0.16739398  1
  Cu+  Cu61  1  0.16017992  0.66478180  0.50147150  1
  Cu+  Cu62  1  0.16866778  0.66557680  0.82641169  1
  Cu+  Cu63  1  0.50019728  0.00546821  0.16587233  1
  Cu+  Cu64  1  0.50506383  0.00138827  0.49418189  1
  Cu+  Cu65  1  0.49927055  -0.00118700  0.84031842  1
  Cu+  Cu66  1  0.50261131  0.33510179  0.16572599  1
  Cu+  Cu67  1  0.49771856  0.32993439  0.49919660  1
  Cu+  Cu68  1  0.49963572  0.33507238  0.83741975  1
  Cu+  Cu69  1  0.49641892  0.66874767  0.15906401  1
  Cu+  Cu70  1  0.49808230  0.66688268  0.50034602  1
  Cu+  Cu71  1  0.49724289  0.66630495  0.83407503  1
  Cu+  Cu72  1  0.83228689  -0.00262863  0.16676028  1
  Cu+  Cu73  1  0.83528089  -0.00029377  0.49842664  1
  Cu+  Cu74  1  0.83206533  0.00208330  0.83183147  1
  Cu+  Cu75  1  0.83644398  0.33162707  0.16551112  1
  Cu+  Cu76  1  0.83109270  0.33647792  0.50352174  1
  Cu+  Cu77  1  0.83631984  0.32847594  0.83180995  1
  Cu+  Cu78  1  0.83084562  0.66284051  0.16830706  1
  Cu+  Cu79  1  0.83475776  0.66897350  0.49948896  1
  Cu+  Cu80  1  0.83285474  0.66585838  0.83398330  1
  Cu+  Cu81  1  -0.00171793  0.17020034  0.17247629  1
  Cu+  Cu82  1  0.00235222  0.17015034  0.49715964  1
  Cu+  Cu83  1  0.00066296  0.16745030  0.83297639  1
  Cu+  Cu84  1  -0.00431057  0.49659637  0.16364152  1
  Cu+  Cu85  1  0.00181730  0.50075533  0.50321092  1
  Cu+  Cu86  1  0.00226483  0.49702818  0.83524925  1
  Cu+  Cu87  1  -0.00070902  0.83305722  0.16702024  1
  Cu+  Cu88  1  -0.00115580  0.82984297  0.50125888  1
  Cu+  Cu89  1  -0.00328762  0.83412735  0.83255833  1
  Cu+  Cu90  1  0.33291762  0.16704123  0.17338110  1
  Cu+  Cu91  1  0.33075835  0.16606227  0.50303587  1
  Cu+  Cu92  1  0.33711845  0.16558421  0.83765391  1
  Cu+  Cu93  1  0.33130544  0.50844053  0.16328186  1
  Cu+  Cu94  1  0.33591011  0.50364480  0.49663216  1
  Cu+  Cu95  1  0.33515050  0.49254747  0.83162927  1
  Cu+  Cu96  1  0.33321423  0.83788392  0.16261623  1
  Cu+  Cu97  1  0.33705731  0.82961011  0.50125114  1
  Cu+  Cu98  1  0.32558547  0.83545075  0.83285203  1
  Cu+  Cu99  1  0.66852238  0.16730954  0.16127359  1
  Cu+  Cu100  1  0.66488167  0.16511637  0.49660245  1
  Cu+  Cu101  1  0.67040161  0.16875863  0.83010475  1
  Cu+  Cu102  1  0.66436726  0.49691765  0.16618319  1
  Cu+  Cu103  1  0.66614997  0.49807962  0.51052610  1
  Cu+  Cu104  1  0.67074305  0.50436693  0.83017539  1
  Cu+  Cu105  1  0.66795755  0.83118379  0.16303168  1
  Cu+  Cu106  1  0.67005780  0.83537013  0.49849764  1
  Cu+  Cu107  1  0.66435895  0.83385239  0.83551419  1
  Cu+  Cu108  1  0.92469781  0.26318184  0.26058426  1
  Cu+  Cu109  1  0.74580258  0.59866662  0.74268564  1
  Cu+  Cu110  1  0.40205002  0.07469225  0.26430431  1
  Cu+  Cu111  1  0.26723027  0.40099631  0.73493315  1
  Cu+  Cu112  1  0.40712557  0.40534853  0.93086204  1
  Cu+  Cu113  1  0.25958417  0.73959812  0.74132662  1
  Cu+  Cu114  1  0.40717930  0.59672192  0.40578472  1
  Cu+  Cu115  1  0.06643086  0.74186964  0.59723977  1
  Cu+  Cu116  1  0.92802741  0.40145278  0.07384022  1
  Cu+  Cu117  1  0.07645978  0.40332898  0.92489719  1
  Cu+  Cu118  1  0.59485763  0.60143836  0.58595669  1
  Cu+  Cu119  1  0.40093813  0.59857056  0.06816379  1
  Cu+  Cu120  1  0.25308383  0.92651422  0.92818172  1
  Cu+  Cu121  1  0.40488508  0.07048654  0.92666632  1
  Cu+  Cu122  1  0.40923973  0.73775792  0.59311032  1
  Cu+  Cu123  1  0.06921080  0.74422557  0.25582668  1
  Cu+  Cu124  1  0.06872485  0.59101772  0.40646137  1
  Cu+  Cu125  1  0.59809503  0.92684285  0.92397713  1
  Cu+  Cu126  1  0.07553958  0.26147904  0.40870671  1
  Cu+  Cu127  1  0.59949982  0.07277862  0.40476842  1
  Cu+  Cu128  1  0.73601109  0.40043560  0.59808809  1
  Cu+  Cu129  1  0.07176680  0.40380423  0.59343251  1
  Cu+  Cu130  1  0.59750305  0.73687275  0.07427541  1
  Cu+  Cu131  1  0.59776086  0.07588557  0.07202879  1
  Cu+  Cu132  1  0.59265282  0.40629609  0.07179132  1
  Te2-  Te133  1  0.25445094  0.25403578  0.08717333  1
  Te2-  Te134  1  0.25148578  0.25323240  0.41784550  1
  Te2-  Te135  1  0.25845568  0.25004701  0.74813126  1
  Te2-  Te136  1  0.24670544  0.59090067  0.07690978  1
  Te2-  Te137  1  0.25260871  0.59068033  0.41471334  1
  Te2-  Te138  1  0.25727678  0.58256366  0.74469376  1
  Te2-  Te139  1  0.25174446  0.92452203  0.08052970  1
  Te2-  Te140  1  0.25239130  0.91174663  0.41442357  1
  Te2-  Te141  1  0.24763692  0.91917079  0.74288023  1
  Te2-  Te142  1  0.58563613  0.25289273  0.07724687  1
  Te2-  Te143  1  0.58311216  0.25173501  0.41192364  1
  Te2-  Te144  1  0.58395426  0.25344257  0.75025743  1
  Te2-  Te145  1  0.58727453  0.58483919  0.07726516  1
  Te2-  Te146  1  0.58884232  0.58471254  0.41831938  1
  Te2-  Te147  1  0.58748651  0.59187865  0.74828128  1
  Te2-  Te148  1  0.59003408  0.92440969  0.07966399  1
  Te2-  Te149  1  0.58978275  0.91768592  0.41010999  1
  Te2-  Te150  1  0.58033553  0.91763677  0.74802648  1
  Te2-  Te151  1  0.92130423  0.24938802  0.07630947  1
  Te2-  Te152  1  0.91928536  0.25966119  0.41400636  1
  Te2-  Te153  1  0.92166188  0.25120017  0.74500285  1
  Te2-  Te154  1  0.91664326  0.58558875  0.08141693  1
  Te2-  Te155  1  0.91729527  0.58473110  0.41553895  1
  Te2-  Te156  1  0.91897210  0.58138370  0.74880131  1
  Te2-  Te157  1  0.91838856  0.91741212  0.08110425  1
  Te2-  Te158  1  0.92164956  0.91798390  0.41482542  1
  Te2-  Te159  1  0.91739174  0.92029927  0.74785985  1
  Te2-  Te160  1  0.24856955  0.08074268  0.25787680  1
  Te2-  Te161  1  0.25215033  0.07862461  0.58743827  1
  Te2-  Te162  1  0.25207599  0.08126380  0.92472019  1
  Te2-  Te163  1  0.25241262  0.42312320  0.25235432  1
  Te2-  Te164  1  0.25915660  0.41195589  0.58065335  1
  Te2-  Te165  1  0.25426080  0.41182434  0.92338319  1
  Te2-  Te166  1  0.25698634  0.74937021  0.24813216  1
  Te2-  Te167  1  0.25588431  0.74007956  0.58602301  1
  Te2-  Te168  1  0.24804149  0.74607164  0.91867312  1
  Te2-  Te169  1  0.59164149  0.08085684  0.25128387  1
  Te2-  Te170  1  0.58533319  0.08123973  0.58642988  1
  Te2-  Te171  1  0.59400867  0.08100754  0.91902051  1
  Te2-  Te172  1  0.58111782  0.41810672  0.25564927  1
  Te2-  Te173  1  0.58294556  0.40630072  0.58835333  1
  Te2-  Te174  1  0.59019884  0.41758163  0.91837606  1
  Te2-  Te175  1  0.58290311  0.74763091  0.24730376  1
  Te2-  Te176  1  0.58825048  0.75145137  0.58655083  1
  Te2-  Te177  1  0.58635415  0.74298506  0.91796468  1
  Te2-  Te178  1  0.91748123  0.07888562  0.25174596  1
  Te2-  Te179  1  0.92003172  0.08407982  0.58139986  1
  Te2-  Te180  1  0.92015730  0.08050907  0.91719971  1
  Te2-  Te181  1  0.91883386  0.41536407  0.25724228  1
  Te2-  Te182  1  0.91955787  0.41467287  0.59016769  1
  Te2-  Te183  1  0.92163564  0.40745409  0.91928070  1
  Te2-  Te184  1  0.91656535  0.74484221  0.25302434  1
  Te2-  Te185  1  0.91675147  0.74557359  0.58985660  1
  Te2-  Te186  1  0.91795989  0.74718753  0.91820670  1
  Te2-  Te187  1  0.08006723  0.25901032  0.25638902  1
  Te2-  Te188  1  0.07898493  0.25083415  0.59228559  1
  Te2-  Te189  1  0.08321413  0.25184491  0.92016740  1
  Te2-  Te190  1  0.07413176  0.58733176  0.25026117  1
  Te2-  Te191  1  0.08148907  0.58453366  0.59384481  1
  Te2-  Te192  1  0.08360306  0.58736806  0.91381247  1
  Te2-  Te193  1  0.08122939  0.91934194  0.25283051  1
  Te2-  Te194  1  0.08423821  0.91435174  0.58500078  1
  Te2-  Te195  1  0.07705599  0.91946335  0.91785598  1
  Te2-  Te196  1  0.41876115  0.25373079  0.25362091  1
  Te2-  Te197  1  0.41417734  0.24999363  0.58643893  1
  Te2-  Te198  1  0.41485850  0.25343487  0.92444410  1
  Te2-  Te199  1  0.41340839  0.59113574  0.25150441  1
  Te2-  Te200  1  0.41223086  0.58490187  0.59069627  1
  Te2-  Te201  1  0.40993613  0.58642175  0.91701332  1
  Te2-  Te202  1  0.41421681  0.92115577  0.24976942  1
  Te2-  Te203  1  0.41717155  0.92242943  0.58056497  1
  Te2-  Te204  1  0.40826279  0.91697323  0.92415443  1
  Te2-  Te205  1  0.74562845  0.25361458  0.24871172  1
  Te2-  Te206  1  0.74516276  0.24913126  0.58550250  1
  Te2-  Te207  1  0.74850574  0.25257992  0.91797378  1
  Te2-  Te208  1  0.74480376  0.58268468  0.25230601  1
  Te2-  Te209  1  0.74772542  0.59291900  0.58893549  1
  Te2-  Te210  1  0.75136505  0.58219245  0.92271549  1
  Te2-  Te211  1  0.74707952  0.91597071  0.25157701  1
  Te2-  Te212  1  0.74854629  0.92116440  0.58469198  1
  Te2-  Te213  1  0.74906890  0.92110137  0.92003445  1
  Te2-  Te214  1  0.07937006  0.08573007  0.08552836  1
  Te2-  Te215  1  0.08173237  0.07660839  0.41828637  1
  Te2-  Te216  1  0.08420626  0.08180685  0.75054353  1
  Te2-  Te217  1  0.08173596  0.41084101  0.08030180  1
  Te2-  Te218  1  0.08117181  0.41628075  0.41236477  1
  Te2-  Te219  1  0.07976777  0.41083329  0.74658208  1
  Te2-  Te220  1  0.08034127  0.75041268  0.07754197  1
  Te2-  Te221  1  0.07679210  0.74480514  0.41006513  1
  Te2-  Te222  1  0.07352787  0.74370920  0.74920904  1
  Te2-  Te223  1  0.40886395  0.08142899  0.08144492  1
  Te2-  Te224  1  0.40823228  0.07826914  0.41611738  1
  Te2-  Te225  1  0.41742469  0.08010589  0.75009596  1
  Te2-  Te226  1  0.40883780  0.41217103  0.08429080  1
  Te2-  Te227  1  0.41476942  0.41324891  0.41499551  1
  Te2-  Te228  1  0.42108720  0.41451733  0.74199473  1
  Te2-  Te229  1  0.41008940  0.75232243  0.07455952  1
  Te2-  Te230  1  0.41638322  0.74883480  0.40802628  1
  Te2-  Te231  1  0.41079616  0.74572931  0.74903469  1
  Te2-  Te232  1  0.75081357  0.07855383  0.07793017  1
  Te2-  Te233  1  0.75160604  0.08129570  0.41027843  1
  Te2-  Te234  1  0.74782349  0.08123051  0.74481667  1
  Te2-  Te235  1  0.74615388  0.40982887  0.08034200  1
  Te2-  Te236  1  0.74514255  0.41761606  0.41778981  1
  Te2-  Te237  1  0.74489824  0.40692329  0.75080929  1
  Te2-  Te238  1  0.74899127  0.74322328  0.07818978  1
  Te2-  Te239  1  0.74864306  0.74771147  0.41404325  1
  Te2-  Te240  1  0.74478154  0.75025545  0.74720877  1
