# generated using pymatgen
data_Ti27(Cu53Te54)2
_symmetry_space_group_name_H-M   'P 1'
_cell_length_a   17.88183116
_cell_length_b   17.88614559
_cell_length_c   17.88063217
_cell_angle_alpha   89.98472808
_cell_angle_beta   90.01715534
_cell_angle_gamma   90.03408013
_symmetry_Int_Tables_number   1
_chemical_formula_structural   Ti27(Cu53Te54)2
_chemical_formula_sum   'Ti27 Cu106 Te108'
_cell_volume   5718.88691353
_cell_formula_units_Z   1
loop_
 _symmetry_equiv_pos_site_id
 _symmetry_equiv_pos_as_xyz
  1  'x, y, z'
loop_
 _atom_type_symbol
 _atom_type_oxidation_number
  Ti4+  4.0
  Cu+  1.0
  Te2-  -2.0
loop_
 _atom_site_type_symbol
 _atom_site_label
 _atom_site_symmetry_multiplicity
 _atom_site_fract_x
 _atom_site_fract_y
 _atom_site_fract_z
 _atom_site_occupancy
  Ti4+  Ti0  1  0.16412891  0.16444624  0.16635147  1
  Ti4+  Ti1  1  0.16616339  0.16899276  0.50146918  1
  Ti4+  Ti2  1  0.16650202  0.16704610  0.83264657  1
  Ti4+  Ti3  1  0.16370770  0.49453026  0.16426001  1
  Ti4+  Ti4  1  0.16788140  0.50026025  0.49997065  1
  Ti4+  Ti5  1  0.16908985  0.50339392  0.83484596  1
  Ti4+  Ti6  1  0.16880386  0.83289724  0.16438956  1
  Ti4+  Ti7  1  0.16717438  0.83288845  0.49736762  1
  Ti4+  Ti8  1  0.16530829  0.83492868  0.83279518  1
  Ti4+  Ti9  1  0.50217384  0.16607544  0.16453810  1
  Ti4+  Ti10  1  0.49832355  0.16345422  0.50051278  1
  Ti4+  Ti11  1  0.49855688  0.16770413  0.83756226  1
  Ti4+  Ti12  1  0.49857934  0.50020194  0.16707790  1
  Ti4+  Ti13  1  0.49969919  0.49821007  0.49616275  1
  Ti4+  Ti14  1  0.50265168  0.49920732  0.83148102  1
  Ti4+  Ti15  1  0.50222698  0.83300475  0.16626517  1
  Ti4+  Ti16  1  0.50010390  0.82857003  0.50153939  1
  Ti4+  Ti17  1  0.49706267  0.83260853  0.83430719  1
  Ti4+  Ti18  1  0.83345375  0.16912653  0.16946871  1
  Ti4+  Ti19  1  0.83378734  0.16610991  0.50168392  1
  Ti4+  Ti20  1  0.83417697  0.16841439  0.83281954  1
  Ti4+  Ti21  1  0.83360374  0.50281157  0.17146403  1
  Ti4+  Ti22  1  0.83425909  0.50008358  0.49883789  1
  Ti4+  Ti23  1  0.83259674  0.50074774  0.83352510  1
  Ti4+  Ti24  1  0.83552144  0.83456080  0.16730319  1
  Ti4+  Ti25  1  0.83458030  0.83266517  0.50095354  1
  Ti4+  Ti26  1  0.83189884  0.83572474  0.83399590  1
  Cu+  Cu27  1  0.16769875  0.16506985  0.00168128  1
  Cu+  Cu28  1  0.16820679  0.16384122  0.33621261  1
  Cu+  Cu29  1  0.16451983  0.17091349  0.66593232  1
  Cu+  Cu30  1  0.15818080  0.49947449  -0.00327086  1
  Cu+  Cu31  1  0.16892255  0.49335798  0.33237712  1
  Cu+  Cu32  1  0.17294460  0.50167645  0.67038543  1
  Cu+  Cu33  1  0.16467051  0.83691819  -0.00119132  1
  Cu+  Cu34  1  0.16936146  0.83244247  0.32800843  1
  Cu+  Cu35  1  0.16522400  0.83217575  0.66443332  1
  Cu+  Cu36  1  0.50129844  0.17590376  0.00133676  1
  Cu+  Cu37  1  0.50049708  0.16402320  0.33076511  1
  Cu+  Cu38  1  0.49712937  0.16456106  0.66845129  1
  Cu+  Cu39  1  0.49946886  0.49771434  -0.00134478  1
  Cu+  Cu40  1  0.49737493  0.50625469  0.33089059  1
  Cu+  Cu41  1  0.50247408  0.50019522  0.66115991  1
  Cu+  Cu42  1  0.50165069  0.83562529  -0.00057202  1
  Cu+  Cu43  1  0.49918021  0.83164652  0.33449519  1
  Cu+  Cu44  1  0.50089568  0.82590178  0.67025231  1
  Cu+  Cu45  1  0.83387973  0.16672382  0.00157897  1
  Cu+  Cu46  1  0.83226920  0.16844755  0.33670677  1
  Cu+  Cu47  1  0.83849982  0.16790549  0.66654413  1
  Cu+  Cu48  1  0.83482571  0.50320930  0.00256546  1
  Cu+  Cu49  1  0.82784762  0.49926655  0.33465098  1
  Cu+  Cu50  1  0.83322957  0.50150994  0.66889108  1
  Cu+  Cu51  1  0.83052281  0.83549884  -0.00136379  1
  Cu+  Cu52  1  0.83806006  0.83221978  0.33471133  1
  Cu+  Cu53  1  0.83217038  0.83470112  0.66600151  1
  Cu+  Cu54  1  0.16960281  -0.00265487  0.15926276  1
  Cu+  Cu55  1  0.16794652  0.00207025  0.49825792  1
  Cu+  Cu56  1  0.16496229  -0.00055138  0.83272412  1
  Cu+  Cu57  1  0.15512840  0.32941291  0.17072946  1
  Cu+  Cu58  1  0.17013047  0.33600392  0.49782448  1
  Cu+  Cu59  1  0.17146664  0.33695193  0.83235100  1
  Cu+  Cu60  1  0.16620104  0.66298855  0.16330129  1
  Cu+  Cu61  1  0.16385280  0.66927503  0.50327389  1
  Cu+  Cu62  1  0.16895640  0.66989409  0.83389201  1
  Cu+  Cu63  1  0.50149817  0.00032047  0.16587186  1
  Cu+  Cu64  1  0.49781611  -0.00407784  0.50207548  1
  Cu+  Cu65  1  0.50029259  -0.00150708  0.83925575  1
  Cu+  Cu66  1  0.49778855  0.32958116  0.16270680  1
  Cu+  Cu67  1  0.49743056  0.32900560  0.49786505  1
  Cu+  Cu68  1  0.49959918  0.33438056  0.84053778  1
  Cu+  Cu69  1  0.50253038  0.66676301  0.16915505  1
  Cu+  Cu70  1  0.50043527  0.65931794  0.49948813  1
  Cu+  Cu71  1  0.50174105  0.66894010  0.82699365  1
  Cu+  Cu72  1  0.83580104  0.00198495  0.16969112  1
  Cu+  Cu73  1  0.83341196  -0.00216515  0.50067974  1
  Cu+  Cu74  1  0.83264256  0.00348358  0.82938818  1
  Cu+  Cu75  1  0.83096284  0.33947004  0.17182395  1
  Cu+  Cu76  1  0.83434242  0.33127874  0.50436059  1
  Cu+  Cu77  1  0.83201224  0.33512720  0.83287940  1
  Cu+  Cu78  1  0.83505601  0.67065603  0.16877164  1
  Cu+  Cu79  1  0.83727766  0.66884172  0.49563921  1
  Cu+  Cu80  1  0.83275594  0.66597809  0.83528073  1
  Cu+  Cu81  1  -0.00350539  0.16621195  0.16461295  1
  Cu+  Cu82  1  -0.00063609  0.17256930  0.50581186  1
  Cu+  Cu83  1  -0.00248475  0.16349729  0.82921528  1
  Cu+  Cu84  1  -0.00040266  0.49640423  0.16455919  1
  Cu+  Cu85  1  0.00016433  0.50387716  0.50129684  1
  Cu+  Cu86  1  -0.00025670  0.50380225  0.83620128  1
  Cu+  Cu87  1  0.00449230  0.83762764  0.16512481  1
  Cu+  Cu88  1  0.00099056  0.82696623  0.49929648  1
  Cu+  Cu89  1  -0.00204161  0.83348868  0.83340605  1
  Cu+  Cu90  1  0.33369668  0.16229779  0.16247336  1
  Cu+  Cu91  1  0.33143135  0.16372226  0.49990298  1
  Cu+  Cu92  1  0.33223713  0.16636962  0.83510465  1
  Cu+  Cu93  1  0.32869111  0.49710886  0.16581444  1
  Cu+  Cu94  1  0.33323164  0.49776781  0.49151448  1
  Cu+  Cu95  1  0.33645269  0.49794372  0.83094179  1
  Cu+  Cu96  1  0.33606799  0.82958521  0.16697277  1
  Cu+  Cu97  1  0.33703561  0.83554396  0.49637881  1
  Cu+  Cu98  1  0.33028817  0.83550951  0.83281847  1
  Cu+  Cu99  1  0.66812259  0.16810021  0.16828871  1
  Cu+  Cu100  1  0.66548929  0.16272616  0.50113898  1
  Cu+  Cu101  1  0.66578495  0.17036102  0.83698267  1
  Cu+  Cu102  1  0.66459276  0.50286458  0.17526443  1
  Cu+  Cu103  1  0.66742978  0.49854977  0.49990577  1
  Cu+  Cu104  1  0.67093111  0.50110283  0.83196373  1
  Cu+  Cu105  1  0.67126987  0.83457763  0.16811473  1
  Cu+  Cu106  1  0.66804382  0.83024718  0.50249812  1
  Cu+  Cu107  1  0.66396157  0.83624059  0.83584147  1
  Cu+  Cu108  1  0.26307434  0.40413965  0.40138752  1
  Cu+  Cu109  1  0.93007314  0.73890037  0.40197949  1
  Cu+  Cu110  1  0.59928195  0.26551085  0.92750907  1
  Cu+  Cu111  1  0.59751449  0.74448139  0.74460085  1
  Cu+  Cu112  1  0.40089235  0.25909971  0.07752338  1
  Cu+  Cu113  1  0.06947515  0.40325175  0.90944276  1
  Cu+  Cu114  1  0.07032103  0.25073383  0.07035613  1
  Cu+  Cu115  1  0.07180429  0.74083937  0.59729879  1
  Cu+  Cu116  1  0.73257512  0.40646395  0.26308431  1
  Cu+  Cu117  1  0.91806311  0.07213380  0.07370062  1
  Cu+  Cu118  1  0.26423686  0.40693584  0.73950993  1
  Cu+  Cu119  1  0.40575247  0.41139960  0.92597815  1
  Cu+  Cu120  1  0.25813602  0.07234723  0.40858653  1
  Cu+  Cu121  1  0.41479436  0.92630523  0.40386833  1
  Cu+  Cu122  1  0.59478009  0.59962136  0.26002865  1
  Cu+  Cu123  1  0.59327010  0.92680975  0.92892406  1
  Cu+  Cu124  1  0.91704518  0.40931519  0.07404232  1
  Cu+  Cu125  1  0.92684221  0.07041144  0.73559180  1
  Cu+  Cu126  1  0.07268119  0.59557399  0.07349891  1
  Cu+  Cu127  1  0.59796459  0.58653693  0.59151645  1
  Cu+  Cu128  1  0.26556006  0.06916936  0.07008009  1
  Cu+  Cu129  1  0.92798502  0.26578103  0.59640663  1
  Cu+  Cu130  1  0.07039561  0.40695351  0.26616234  1
  Cu+  Cu131  1  0.40109608  0.59278606  0.40288819  1
  Cu+  Cu132  1  0.07348912  0.92530540  0.06934939  1
  Te2-  Te133  1  0.24866158  0.25573525  0.08295319  1
  Te2-  Te134  1  0.25483026  0.25273190  0.41275705  1
  Te2-  Te135  1  0.25418797  0.25214005  0.74704048  1
  Te2-  Te136  1  0.24967559  0.58014731  0.07820081  1
  Te2-  Te137  1  0.24780714  0.58903097  0.41101777  1
  Te2-  Te138  1  0.25614033  0.58944695  0.75051861  1
  Te2-  Te139  1  0.25945694  0.91600102  0.07740402  1
  Te2-  Te140  1  0.25429224  0.91933055  0.40916638  1
  Te2-  Te141  1  0.24955314  0.91924325  0.74578641  1
  Te2-  Te142  1  0.59272732  0.25586977  0.08209038  1
  Te2-  Te143  1  0.58433929  0.24770735  0.41488105  1
  Te2-  Te144  1  0.58145025  0.25263982  0.74990249  1
  Te2-  Te145  1  0.58501472  0.58300944  0.08142090  1
  Te2-  Te146  1  0.59065897  0.58564793  0.41158319  1
  Te2-  Te147  1  0.59041688  0.58562999  0.74474623  1
  Te2-  Te148  1  0.58963925  0.92001319  0.08247008  1
  Te2-  Te149  1  0.58592332  0.91546573  0.41744656  1
  Te2-  Te150  1  0.58246073  0.91976360  0.74728802  1
  Te2-  Te151  1  0.91710119  0.25813520  0.07999395  1
  Te2-  Te152  1  0.91886552  0.25325399  0.41543854  1
  Te2-  Te153  1  0.92149585  0.25809890  0.74902176  1
  Te2-  Te154  1  0.91953927  0.58975993  0.08310345  1
  Te2-  Te155  1  0.92070744  0.58434323  0.41066665  1
  Te2-  Te156  1  0.91890854  0.58652446  0.74943481  1
  Te2-  Te157  1  0.91949000  0.92071470  0.07717844  1
  Te2-  Te158  1  0.92191451  0.91862238  0.41696901  1
  Te2-  Te159  1  0.91945717  0.91881977  0.74609850  1
  Te2-  Te160  1  0.25220857  0.07865882  0.25037827  1
  Te2-  Te161  1  0.24996587  0.08230904  0.58858669  1
  Te2-  Te162  1  0.25139759  0.07918001  0.91818803  1
  Te2-  Te163  1  0.25269918  0.40672508  0.24843349  1
  Te2-  Te164  1  0.25600473  0.41520995  0.58564206  1
  Te2-  Te165  1  0.25372506  0.41577631  0.92359200  1
  Te2-  Te166  1  0.25212614  0.74385995  0.24840019  1
  Te2-  Te167  1  0.25520792  0.75017010  0.58281317  1
  Te2-  Te168  1  0.25106852  0.75139852  0.91991832  1
  Te2-  Te169  1  0.58721375  0.08068822  0.25058128  1
  Te2-  Te170  1  0.58258380  0.07880768  0.58680724  1
  Te2-  Te171  1  0.58611045  0.08267377  0.92346354  1
  Te2-  Te172  1  0.57965999  0.41022452  0.25450139  1
  Te2-  Te173  1  0.58456490  0.41045042  0.58142894  1
  Te2-  Te174  1  0.59181079  0.41727127  0.92025831  1
  Te2-  Te175  1  0.58902506  0.75051308  0.25474849  1
  Te2-  Te176  1  0.58870080  0.74163060  0.58699410  1
  Te2-  Te177  1  0.58464676  0.74563921  0.91958858  1
  Te2-  Te178  1  0.91867971  0.08427344  0.25611264  1
  Te2-  Te179  1  0.92197247  0.07703113  0.58487245  1
  Te2-  Te180  1  0.91928268  0.08031007  0.91965258  1
  Te2-  Te181  1  0.92006335  0.41479514  0.25883622  1
  Te2-  Te182  1  0.92016132  0.41798198  0.58768852  1
  Te2-  Te183  1  0.91865480  0.41242707  0.92063245  1
  Te2-  Te184  1  0.92551874  0.74890298  0.25021113  1
  Te2-  Te185  1  0.91854158  0.74487901  0.59043181  1
  Te2-  Te186  1  0.91644135  0.74993335  0.91896300  1
  Te2-  Te187  1  0.07648309  0.24585279  0.25842955  1
  Te2-  Te188  1  0.08313568  0.25992123  0.58752044  1
  Te2-  Te189  1  0.07819612  0.25168382  0.91706129  1
  Te2-  Te190  1  0.08247886  0.58143093  0.25216072  1
  Te2-  Te191  1  0.08263380  0.58423199  0.58967304  1
  Te2-  Te192  1  0.07941953  0.59286564  0.91797500  1
  Te2-  Te193  1  0.08543944  0.92144932  0.25108824  1
  Te2-  Te194  1  0.08157454  0.91895984  0.58115079  1
  Te2-  Te195  1  0.07699333  0.92178032  0.91708468  1
  Te2-  Te196  1  0.41321751  0.24859632  0.25057316  1
  Te2-  Te197  1  0.41284477  0.24930500  0.58509476  1
  Te2-  Te198  1  0.40587637  0.25557828  0.92264970  1
  Te2-  Te199  1  0.40713896  0.58739087  0.24811346  1
  Te2-  Te200  1  0.41050565  0.58121237  0.58296422  1
  Te2-  Te201  1  0.41838067  0.58662160  0.91494889  1
  Te2-  Te202  1  0.41457858  0.91916340  0.25042178  1
  Te2-  Te203  1  0.41651171  0.91327280  0.58997364  1
  Te2-  Te204  1  0.41086462  0.91807914  0.92052756  1
  Te2-  Te205  1  0.74629710  0.25363257  0.25595242  1
  Te2-  Te206  1  0.74588538  0.24933639  0.58720366  1
  Te2-  Te207  1  0.75081232  0.25506481  0.92215852  1
  Te2-  Te208  1  0.74902459  0.59284359  0.25608540  1
  Te2-  Te209  1  0.75129279  0.58771090  0.58426781  1
  Te2-  Te210  1  0.74810694  0.58574918  0.92094874  1
  Te2-  Te211  1  0.75235336  0.91922669  0.25462165  1
  Te2-  Te212  1  0.74703843  0.91842615  0.58547926  1
  Te2-  Te213  1  0.74725617  0.92439218  0.91889905  1
  Te2-  Te214  1  0.07557807  0.07835505  0.07687306  1
  Te2-  Te215  1  0.07755286  0.08421497  0.41820999  1
  Te2-  Te216  1  0.08257793  0.08064031  0.74496007  1
  Te2-  Te217  1  0.07496510  0.40608913  0.07311565  1
  Te2-  Te218  1  0.07739424  0.41386646  0.41747156  1
  Te2-  Te219  1  0.08103122  0.41810436  0.74877296  1
  Te2-  Te220  1  0.08031316  0.74773254  0.07863657  1
  Te2-  Te221  1  0.08381337  0.74554815  0.40794869  1
  Te2-  Te222  1  0.07901321  0.74667615  0.74881983  1
  Te2-  Te223  1  0.41820486  0.07831471  0.07557578  1
  Te2-  Te224  1  0.41249333  0.07790424  0.41040907  1
  Te2-  Te225  1  0.41496632  0.07993350  0.75333774  1
  Te2-  Te226  1  0.41044639  0.41344572  0.07986763  1
  Te2-  Te227  1  0.41615338  0.40969870  0.40788413  1
  Te2-  Te228  1  0.41916172  0.41183245  0.74325913  1
  Te2-  Te229  1  0.41884645  0.74700576  0.08065710  1
  Te2-  Te230  1  0.41422334  0.74305970  0.41337944  1
  Te2-  Te231  1  0.40836868  0.74712996  0.74892985  1
  Te2-  Te232  1  0.74859947  0.08217824  0.08389841  1
  Te2-  Te233  1  0.74902872  0.08003636  0.41593345  1
  Te2-  Te234  1  0.74572280  0.08707998  0.74742249  1
  Te2-  Te235  1  0.74539653  0.42025029  0.08452129  1
  Te2-  Te236  1  0.74689067  0.41020132  0.41748751  1
  Te2-  Te237  1  0.74799597  0.41441412  0.74651406  1
  Te2-  Te238  1  0.74982682  0.74912320  0.08206134  1
  Te2-  Te239  1  0.74786914  0.74864607  0.41356818  1
  Te2-  Te240  1  0.74819783  0.74814396  0.74859613  1
