# generated using pymatgen
data_Ti27(Cu53Te54)2
_symmetry_space_group_name_H-M   'P 1'
_cell_length_a   17.88362376
_cell_length_b   17.88275110
_cell_length_c   17.87796039
_cell_angle_alpha   89.97753406
_cell_angle_beta   90.00700689
_cell_angle_gamma   90.02785471
_symmetry_Int_Tables_number   1
_chemical_formula_structural   Ti27(Cu53Te54)2
_chemical_formula_sum   'Ti27 Cu106 Te108'
_cell_volume   5717.52061624
_cell_formula_units_Z   1
loop_
 _symmetry_equiv_pos_site_id
 _symmetry_equiv_pos_as_xyz
  1  'x, y, z'
loop_
 _atom_type_symbol
 _atom_type_oxidation_number
  Ti4+  4.0
  Cu+  1.0
  Te2-  -2.0
loop_
 _atom_site_type_symbol
 _atom_site_label
 _atom_site_symmetry_multiplicity
 _atom_site_fract_x
 _atom_site_fract_y
 _atom_site_fract_z
 _atom_site_occupancy
  Ti4+  Ti0  1  0.16876345  0.17022070  0.16694954  1
  Ti4+  Ti1  1  0.16595482  0.16464914  0.49949008  1
  Ti4+  Ti2  1  0.16595288  0.16809559  0.83466614  1
  Ti4+  Ti3  1  0.16745875  0.50012929  0.16729603  1
  Ti4+  Ti4  1  0.16605958  0.49719762  0.50037072  1
  Ti4+  Ti5  1  0.16847673  0.50244303  0.83172055  1
  Ti4+  Ti6  1  0.16519088  0.83332949  0.16887493  1
  Ti4+  Ti7  1  0.16907849  0.83231956  0.49781089  1
  Ti4+  Ti8  1  0.16510188  0.83439033  0.83144576  1
  Ti4+  Ti9  1  0.49800251  0.16186249  0.16833431  1
  Ti4+  Ti10  1  0.50001743  0.16872230  0.49686384  1
  Ti4+  Ti11  1  0.49524036  0.16592246  0.83275982  1
  Ti4+  Ti12  1  0.49963490  0.50215867  0.16704602  1
  Ti4+  Ti13  1  0.50079605  0.50069516  0.50137720  1
  Ti4+  Ti14  1  0.50155721  0.49830620  0.83119768  1
  Ti4+  Ti15  1  0.50358132  0.83389927  0.16759923  1
  Ti4+  Ti16  1  0.50093770  0.83509338  0.50201378  1
  Ti4+  Ti17  1  0.49696303  0.83395532  0.83508018  1
  Ti4+  Ti18  1  0.83134176  0.16974218  0.16240696  1
  Ti4+  Ti19  1  0.83240254  0.16575385  0.50003885  1
  Ti4+  Ti20  1  0.83097538  0.16469716  0.83869648  1
  Ti4+  Ti21  1  0.83155821  0.49806490  0.16652713  1
  Ti4+  Ti22  1  0.83432859  0.50068275  0.49974792  1
  Ti4+  Ti23  1  0.83278906  0.49709232  0.83248352  1
  Ti4+  Ti24  1  0.83831441  0.83264387  0.16661905  1
  Ti4+  Ti25  1  0.83500293  0.83443488  0.50062332  1
  Ti4+  Ti26  1  0.83061337  0.83106213  0.83436551  1
  Cu+  Cu27  1  0.17201512  0.17419132  -0.00132656  1
  Cu+  Cu28  1  0.16867117  0.16347635  0.33425821  1
  Cu+  Cu29  1  0.16565641  0.16596425  0.66868488  1
  Cu+  Cu30  1  0.16752384  0.50478032  -0.00087304  1
  Cu+  Cu31  1  0.16429575  0.49535463  0.33298097  1
  Cu+  Cu32  1  0.16974975  0.50265482  0.66422354  1
  Cu+  Cu33  1  0.16488452  0.83198108  0.00038517  1
  Cu+  Cu34  1  0.16275840  0.83709350  0.33414995  1
  Cu+  Cu35  1  0.16877353  0.82973130  0.66648633  1
  Cu+  Cu36  1  0.49034345  0.16087378  -0.00011897  1
  Cu+  Cu37  1  0.51071567  0.16372513  0.33376557  1
  Cu+  Cu38  1  0.49536526  0.16501978  0.66046938  1
  Cu+  Cu39  1  0.50145693  0.50109721  0.00041916  1
  Cu+  Cu40  1  0.49881464  0.50370589  0.33514833  1
  Cu+  Cu41  1  0.50151849  0.49322386  0.66654880  1
  Cu+  Cu42  1  0.49640077  0.83599911  0.00386257  1
  Cu+  Cu43  1  0.50380157  0.83361921  0.33245716  1
  Cu+  Cu44  1  0.50045235  0.83587899  0.67111782  1
  Cu+  Cu45  1  0.83867273  0.16786307  -0.00018052  1
  Cu+  Cu46  1  0.82658899  0.17103353  0.33250660  1
  Cu+  Cu47  1  0.83076482  0.16411842  0.66984883  1
  Cu+  Cu48  1  0.83041685  0.49305786  -0.00021557  1
  Cu+  Cu49  1  0.83310106  0.50179336  0.33207789  1
  Cu+  Cu50  1  0.83408806  0.50001396  0.66415648  1
  Cu+  Cu51  1  0.83492172  0.83679265  -0.00135561  1
  Cu+  Cu52  1  0.84040679  0.82899935  0.33522323  1
  Cu+  Cu53  1  0.83084684  0.83099403  0.66662169  1
  Cu+  Cu54  1  0.16718247  0.00233215  0.16793655  1
  Cu+  Cu55  1  0.16872511  -0.00137533  0.49376776  1
  Cu+  Cu56  1  0.16260284  0.00159925  0.83247303  1
  Cu+  Cu57  1  0.16332413  0.33739457  0.17149062  1
  Cu+  Cu58  1  0.16535497  0.32853056  0.50004208  1
  Cu+  Cu59  1  0.17003094  0.33623207  0.83317813  1
  Cu+  Cu60  1  0.16712345  0.66704389  0.16877306  1
  Cu+  Cu61  1  0.16933281  0.66074873  0.50248366  1
  Cu+  Cu62  1  0.16712388  0.67027104  0.82912315  1
  Cu+  Cu63  1  0.50036354  -0.00256620  0.16017174  1
  Cu+  Cu64  1  0.50128484  0.00375093  0.50045343  1
  Cu+  Cu65  1  0.48865382  -0.00072067  0.83449895  1
  Cu+  Cu66  1  0.49672730  0.33480330  0.16965192  1
  Cu+  Cu67  1  0.49645431  0.33835193  0.50312457  1
  Cu+  Cu68  1  0.50489924  0.33396710  0.82677450  1
  Cu+  Cu69  1  0.50351371  0.66836536  0.16971840  1
  Cu+  Cu70  1  0.50000275  0.66812322  0.50247707  1
  Cu+  Cu71  1  0.50382644  0.66673832  0.83145913  1
  Cu+  Cu72  1  0.83212206  -0.00006781  0.16068494  1
  Cu+  Cu73  1  0.83389442  0.00018370  0.50292677  1
  Cu+  Cu74  1  0.83380111  -0.00404935  0.83821725  1
  Cu+  Cu75  1  0.83470848  0.33807232  0.16073293  1
  Cu+  Cu76  1  0.83186525  0.33241998  0.49937018  1
  Cu+  Cu77  1  0.82754410  0.33127783  0.84233185  1
  Cu+  Cu78  1  0.83628959  0.66377851  0.16756684  1
  Cu+  Cu79  1  0.83731291  0.66877759  0.49768097  1
  Cu+  Cu80  1  0.83029720  0.66339754  0.83340229  1
  Cu+  Cu81  1  0.00067014  0.16885793  0.16488285  1
  Cu+  Cu82  1  -0.00280391  0.16533247  0.50136595  1
  Cu+  Cu83  1  -0.00049424  0.16858755  0.83737860  1
  Cu+  Cu84  1  0.00084609  0.49569821  0.16913188  1
  Cu+  Cu85  1  -0.00087012  0.49784539  0.49899101  1
  Cu+  Cu86  1  0.00470075  0.50191519  0.82993352  1
  Cu+  Cu87  1  0.00380999  0.83260297  0.16923811  1
  Cu+  Cu88  1  0.00160099  0.83225740  0.49549942  1
  Cu+  Cu89  1  -0.00247369  0.83212289  0.83475777  1
  Cu+  Cu90  1  0.33631759  0.17334404  0.16551616  1
  Cu+  Cu91  1  0.33016216  0.16257151  0.49725854  1
  Cu+  Cu92  1  0.32942311  0.16667358  0.83965984  1
  Cu+  Cu93  1  0.33350732  0.50220183  0.16780480  1
  Cu+  Cu94  1  0.33318991  0.49870052  0.50460121  1
  Cu+  Cu95  1  0.33716374  0.50257348  0.83200318  1
  Cu+  Cu96  1  0.33175295  0.83246078  0.17156683  1
  Cu+  Cu97  1  0.33675468  0.83359793  0.49998305  1
  Cu+  Cu98  1  0.32920350  0.83578505  0.82858674  1
  Cu+  Cu99  1  0.65985998  0.16427210  0.16953122  1
  Cu+  Cu100  1  0.66990987  0.17113897  0.49139583  1
  Cu+  Cu101  1  0.66555678  0.16550791  0.83351898  1
  Cu+  Cu102  1  0.66438579  0.50231381  0.16678803  1
  Cu+  Cu103  1  0.66815193  0.50435731  0.50056259  1
  Cu+  Cu104  1  0.66731932  0.49212027  0.83110336  1
  Cu+  Cu105  1  0.67385111  0.83469749  0.16613648  1
  Cu+  Cu106  1  0.66963936  0.83469737  0.50292990  1
  Cu+  Cu107  1  0.66122289  0.82922772  0.83352671  1
  Cu+  Cu108  1  0.59315644  0.73935144  0.73962058  1
  Cu+  Cu109  1  0.92918601  0.26251311  0.92183687  1
  Cu+  Cu110  1  0.74387174  0.26773959  0.40516629  1
  Cu+  Cu111  1  0.58754435  0.26510200  0.25522594  1
  Cu+  Cu112  1  0.59923811  0.06962662  0.41195981  1
  Cu+  Cu113  1  0.40357445  0.07443058  0.58563691  1
  Cu+  Cu114  1  0.39949486  0.91729633  0.08114875  1
  Cu+  Cu115  1  0.06924770  0.40550996  0.26451106  1
  Cu+  Cu116  1  0.26365006  0.59213126  0.59059671  1
  Cu+  Cu117  1  0.74279295  0.92316810  0.07101829  1
  Cu+  Cu118  1  0.93299496  0.07322555  0.08091165  1
  Cu+  Cu119  1  0.93208363  0.73523420  0.40693498  1
  Cu+  Cu120  1  0.73386673  0.40419167  0.93104385  1
  Cu+  Cu121  1  0.26122614  0.07021181  0.40145501  1
  Cu+  Cu122  1  0.25993033  0.74045074  0.74037932  1
  Cu+  Cu123  1  0.41513116  0.26512155  0.07460411  1
  Cu+  Cu124  1  0.93389872  0.41777178  0.06953614  1
  Cu+  Cu125  1  0.40233266  0.40689061  0.59596171  1
  Cu+  Cu126  1  0.40278128  0.92584636  0.73857565  1
  Cu+  Cu127  1  0.59912175  0.40013464  0.73477683  1
  Cu+  Cu128  1  0.26158069  0.26859990  0.92342064  1
  Cu+  Cu129  1  0.07039973  0.92964341  0.40693841  1
  Cu+  Cu130  1  0.92981606  0.92191889  0.92383683  1
  Cu+  Cu131  1  0.39833710  0.07059513  0.92742432  1
  Cu+  Cu132  1  0.59057230  0.07813125  0.06774178  1
  Te2-  Te133  1  0.25450164  0.26117085  0.08242324  1
  Te2-  Te134  1  0.25198596  0.25190630  0.41400897  1
  Te2-  Te135  1  0.25293942  0.25146065  0.74766459  1
  Te2-  Te136  1  0.25247279  0.58723567  0.08271752  1
  Te2-  Te137  1  0.25251625  0.58048593  0.41338203  1
  Te2-  Te138  1  0.25748791  0.58793090  0.74516339  1
  Te2-  Te139  1  0.24910832  0.91910703  0.08112887  1
  Te2-  Te140  1  0.25829274  0.91688649  0.41094876  1
  Te2-  Te141  1  0.24855375  0.92502338  0.74384727  1
  Te2-  Te142  1  0.57996236  0.24943137  0.07877619  1
  Te2-  Te143  1  0.58582179  0.26224305  0.41278558  1
  Te2-  Te144  1  0.58475491  0.24599915  0.74351879  1
  Te2-  Te145  1  0.58490697  0.58717481  0.08138728  1
  Te2-  Te146  1  0.58485897  0.58783464  0.41644117  1
  Te2-  Te147  1  0.58884940  0.58337188  0.74501999  1
  Te2-  Te148  1  0.59150985  0.91996210  0.07648702  1
  Te2-  Te149  1  0.58797128  0.91825796  0.41570346  1
  Te2-  Te150  1  0.58357319  0.92351971  0.75269971  1
  Te2-  Te151  1  0.92308051  0.25819241  0.07867977  1
  Te2-  Te152  1  0.91844657  0.25101468  0.41339925  1
  Te2-  Te153  1  0.91389864  0.25157769  0.75245369  1
  Te2-  Te154  1  0.91887094  0.58100400  0.07995839  1
  Te2-  Te155  1  0.92195643  0.58406017  0.41162618  1
  Te2-  Te156  1  0.91752848  0.58406225  0.74830659  1
  Te2-  Te157  1  0.92781472  0.92023319  0.07957466  1
  Te2-  Te158  1  0.91904263  0.92342320  0.41324303  1
  Te2-  Te159  1  0.91608071  0.91643266  0.74781182  1
  Te2-  Te160  1  0.25611019  0.08234666  0.24928784  1
  Te2-  Te161  1  0.24953806  0.07752057  0.58822715  1
  Te2-  Te162  1  0.24807931  0.07662761  0.92233838  1
  Te2-  Te163  1  0.25532480  0.41496720  0.25296368  1
  Te2-  Te164  1  0.25003840  0.40810571  0.58746526  1
  Te2-  Te165  1  0.25595573  0.41984124  0.92017643  1
  Te2-  Te166  1  0.24997666  0.74895287  0.25581820  1
  Te2-  Te167  1  0.25762507  0.74604134  0.58500569  1
  Te2-  Te168  1  0.25142074  0.74984849  0.91801109  1
  Te2-  Te169  1  0.58671580  0.07099016  0.25275426  1
  Te2-  Te170  1  0.59013706  0.08646886  0.58215969  1
  Te2-  Te171  1  0.58214939  0.07874864  0.91592546  1
  Te2-  Te172  1  0.58531357  0.41728406  0.25476202  1
  Te2-  Te173  1  0.59212321  0.41263127  0.58366826  1
  Te2-  Te174  1  0.58332862  0.41082390  0.92187651  1
  Te2-  Te175  1  0.59128825  0.75006860  0.25175417  1
  Te2-  Te176  1  0.58663290  0.74899570  0.58749959  1
  Te2-  Te177  1  0.58083168  0.74880490  0.92356296  1
  Te2-  Te178  1  0.91385815  0.08551586  0.24933048  1
  Te2-  Te179  1  0.91741604  0.08168614  0.58793035  1
  Te2-  Te180  1  0.92322651  0.07649526  0.92293084  1
  Te2-  Te181  1  0.91641808  0.41079668  0.25622697  1
  Te2-  Te182  1  0.91810586  0.41274016  0.58405909  1
  Te2-  Te183  1  0.92635646  0.41411114  0.91775828  1
  Te2-  Te184  1  0.92400566  0.74404925  0.25129151  1
  Te2-  Te185  1  0.92115911  0.74936134  0.58648515  1
  Te2-  Te186  1  0.91617221  0.74437209  0.91912268  1
  Te2-  Te187  1  0.08016914  0.25027258  0.25513819  1
  Te2-  Te188  1  0.08028376  0.24889889  0.58575678  1
  Te2-  Te189  1  0.08200843  0.25772500  0.92051960  1
  Te2-  Te190  1  0.08056740  0.58480865  0.25266936  1
  Te2-  Te191  1  0.07850936  0.58315200  0.58494464  1
  Te2-  Te192  1  0.08350992  0.58847056  0.91572049  1
  Te2-  Te193  1  0.07891496  0.92414042  0.25257911  1
  Te2-  Te194  1  0.08448817  0.91660996  0.58331819  1
  Te2-  Te195  1  0.08114068  0.91960230  0.92024771  1
  Te2-  Te196  1  0.41716477  0.24931254  0.25900158  1
  Te2-  Te197  1  0.40973527  0.25251258  0.58291659  1
  Te2-  Te198  1  0.41451350  0.25947330  0.91887377  1
  Te2-  Te199  1  0.41504203  0.58793346  0.25226937  1
  Te2-  Te200  1  0.41707348  0.58741064  0.59006121  1
  Te2-  Te201  1  0.41867463  0.58585360  0.91690773  1
  Te2-  Te202  1  0.41736433  0.91918654  0.25295167  1
  Te2-  Te203  1  0.41253426  0.92199104  0.58706700  1
  Te2-  Te204  1  0.40524978  0.91785338  0.92383999  1
  Te2-  Te205  1  0.74386069  0.25752175  0.24795293  1
  Te2-  Te206  1  0.74738076  0.25054427  0.58708973  1
  Te2-  Te207  1  0.74044698  0.24853280  0.92535543  1
  Te2-  Te208  1  0.74758666  0.58581859  0.25123472  1
  Te2-  Te209  1  0.75123324  0.58846329  0.58409164  1
  Te2-  Te210  1  0.74623361  0.58080923  0.91830822  1
  Te2-  Te211  1  0.75528831  0.91758200  0.25421503  1
  Te2-  Te212  1  0.74896921  0.91966833  0.58751248  1
  Te2-  Te213  1  0.74100616  0.91782830  0.91808844  1
  Te2-  Te214  1  0.08589691  0.08457080  0.07890848  1
  Te2-  Te215  1  0.07644512  0.08171701  0.41247542  1
  Te2-  Te216  1  0.07789003  0.08388314  0.74980968  1
  Te2-  Te217  1  0.08433603  0.41397781  0.07615728  1
  Te2-  Te218  1  0.07883613  0.40941391  0.41616072  1
  Te2-  Te219  1  0.08541617  0.41575315  0.74605560  1
  Te2-  Te220  1  0.08188348  0.74689552  0.08261151  1
  Te2-  Te221  1  0.08551121  0.74138251  0.41380583  1
  Te2-  Te222  1  0.07737768  0.74949837  0.74657053  1
  Te2-  Te223  1  0.40403867  0.07485269  0.08163453  1
  Te2-  Te224  1  0.41519021  0.08033549  0.40940708  1
  Te2-  Te225  1  0.40659000  0.08264869  0.74420967  1
  Te2-  Te226  1  0.41290052  0.41681826  0.08025425  1
  Te2-  Te227  1  0.41337158  0.41751578  0.41421216  1
  Te2-  Te228  1  0.41056058  0.41095607  0.74776755  1
  Te2-  Te229  1  0.41498369  0.74753854  0.08578544  1
  Te2-  Te230  1  0.41807490  0.74944258  0.41477266  1
  Te2-  Te231  1  0.41344332  0.74559636  0.74690031  1
  Te2-  Te232  1  0.74339721  0.08256865  0.07625742  1
  Te2-  Te233  1  0.74959073  0.07592812  0.41112789  1
  Te2-  Te234  1  0.74821924  0.07797566  0.75265084  1
  Te2-  Te235  1  0.73945348  0.41236589  0.08242431  1
  Te2-  Te236  1  0.74605111  0.41779774  0.41263618  1
  Te2-  Te237  1  0.75129021  0.40876209  0.74346097  1
  Te2-  Te238  1  0.75377588  0.74659266  0.08098169  1
  Te2-  Te239  1  0.74778147  0.74939058  0.41500133  1
  Te2-  Te240  1  0.74556768  0.74446863  0.74712535  1
