# generated using pymatgen
data_Ti27(Cu53Te54)2
_symmetry_space_group_name_H-M   'P 1'
_cell_length_a   17.87020175
_cell_length_b   17.87147050
_cell_length_c   17.86945124
_cell_angle_alpha   90.05799968
_cell_angle_beta   89.99670673
_cell_angle_gamma   90.01918668
_symmetry_Int_Tables_number   1
_chemical_formula_structural   Ti27(Cu53Te54)2
_chemical_formula_sum   'Ti27 Cu106 Te108'
_cell_volume   5706.90590844
_cell_formula_units_Z   1
loop_
 _symmetry_equiv_pos_site_id
 _symmetry_equiv_pos_as_xyz
  1  'x, y, z'
loop_
 _atom_type_symbol
 _atom_type_oxidation_number
  Ti4+  4.0
  Cu+  1.0
  Te2-  -2.0
loop_
 _atom_site_type_symbol
 _atom_site_label
 _atom_site_symmetry_multiplicity
 _atom_site_fract_x
 _atom_site_fract_y
 _atom_site_fract_z
 _atom_site_occupancy
  Ti4+  Ti0  1  0.16708868  0.16710230  0.16761312  1
  Ti4+  Ti1  1  0.16468414  0.16714439  0.50031999  1
  Ti4+  Ti2  1  0.16563543  0.16340437  0.83365310  1
  Ti4+  Ti3  1  0.16525314  0.49871116  0.17080973  1
  Ti4+  Ti4  1  0.16606001  0.49802102  0.50082001  1
  Ti4+  Ti5  1  0.16822718  0.49851821  0.83465482  1
  Ti4+  Ti6  1  0.16831718  0.83668466  0.16721649  1
  Ti4+  Ti7  1  0.16692801  0.83207495  0.49673459  1
  Ti4+  Ti8  1  0.16868022  0.83101032  0.83310701  1
  Ti4+  Ti9  1  0.50037741  0.16993242  0.16503849  1
  Ti4+  Ti10  1  0.50201775  0.16686255  0.50040300  1
  Ti4+  Ti11  1  0.50017872  0.16541774  0.83296739  1
  Ti4+  Ti12  1  0.49484330  0.50316205  0.16543758  1
  Ti4+  Ti13  1  0.49919968  0.49914151  0.50023736  1
  Ti4+  Ti14  1  0.50138579  0.49997456  0.83506764  1
  Ti4+  Ti15  1  0.49933908  0.83586914  0.16582329  1
  Ti4+  Ti16  1  0.49964915  0.83342119  0.50139590  1
  Ti4+  Ti17  1  0.50095192  0.83231728  0.82995706  1
  Ti4+  Ti18  1  0.83410505  0.16067027  0.16876057  1
  Ti4+  Ti19  1  0.83510775  0.16795544  0.50221373  1
  Ti4+  Ti20  1  0.83268873  0.16626357  0.83507695  1
  Ti4+  Ti21  1  0.83177356  0.50123673  0.16814172  1
  Ti4+  Ti22  1  0.83190740  0.50382145  0.50171192  1
  Ti4+  Ti23  1  0.83687974  0.49960715  0.83043378  1
  Ti4+  Ti24  1  0.83646570  0.83286200  0.16432729  1
  Ti4+  Ti25  1  0.83058341  0.83394857  0.49647806  1
  Ti4+  Ti26  1  0.83357723  0.83521486  0.83074332  1
  Cu+  Cu27  1  0.16716491  0.16492111  -0.00199284  1
  Cu+  Cu28  1  0.16346584  0.16921941  0.33340749  1
  Cu+  Cu29  1  0.16302622  0.16636749  0.66766076  1
  Cu+  Cu30  1  0.16717944  0.49893256  0.00250518  1
  Cu+  Cu31  1  0.16717934  0.49831125  0.33981415  1
  Cu+  Cu32  1  0.16877714  0.49817266  0.66600505  1
  Cu+  Cu33  1  0.17029803  0.83372508  0.00054552  1
  Cu+  Cu34  1  0.16393168  0.83898415  0.33128740  1
  Cu+  Cu35  1  0.16768086  0.83060111  0.66599584  1
  Cu+  Cu36  1  0.49902510  0.17151397  -0.00214675  1
  Cu+  Cu37  1  0.50283909  0.16785916  0.33489462  1
  Cu+  Cu38  1  0.50110965  0.16434992  0.66461495  1
  Cu+  Cu39  1  0.50190595  0.50004936  0.00339743  1
  Cu+  Cu40  1  0.49398830  0.50073447  0.33050363  1
  Cu+  Cu41  1  0.50254766  0.49947062  0.66842940  1
  Cu+  Cu42  1  0.50029763  0.82956149  -0.00167113  1
  Cu+  Cu43  1  0.50136185  0.83596496  0.33612535  1
  Cu+  Cu44  1  0.49287250  0.83317344  0.66485414  1
  Cu+  Cu45  1  0.83124465  0.15753452  0.00507224  1
  Cu+  Cu46  1  0.83617535  0.16521998  0.33479480  1
  Cu+  Cu47  1  0.83635323  0.16696301  0.66837941  1
  Cu+  Cu48  1  0.83715183  0.49852941  -0.00112916  1
  Cu+  Cu49  1  0.83046033  0.50375586  0.33541683  1
  Cu+  Cu50  1  0.83363589  0.50696493  0.66861167  1
  Cu+  Cu51  1  0.83662102  0.83374773  -0.00182148  1
  Cu+  Cu52  1  0.83222705  0.83011256  0.32770905  1
  Cu+  Cu53  1  0.82982958  0.83655721  0.66294021  1
  Cu+  Cu54  1  0.17365901  0.00014724  0.17087161  1
  Cu+  Cu55  1  0.16452319  -0.00132345  0.49761281  1
  Cu+  Cu56  1  0.16809455  -0.00290650  0.83542190  1
  Cu+  Cu57  1  0.16443946  0.33347516  0.16719348  1
  Cu+  Cu58  1  0.16482612  0.33165879  0.49600140  1
  Cu+  Cu59  1  0.16542088  0.33135631  0.83439350  1
  Cu+  Cu60  1  0.16626093  0.66725633  0.17071822  1
  Cu+  Cu61  1  0.16512890  0.66300624  0.49736599  1
  Cu+  Cu62  1  0.16863221  0.66412257  0.83237153  1
  Cu+  Cu63  1  0.50214466  0.00291002  0.16493916  1
  Cu+  Cu64  1  0.50286411  0.00148105  0.49980568  1
  Cu+  Cu65  1  0.49923902  -0.00187633  0.82693500  1
  Cu+  Cu66  1  0.49159413  0.33608089  0.16043652  1
  Cu+  Cu67  1  0.50216244  0.33028068  0.50148048  1
  Cu+  Cu68  1  0.50345732  0.33161833  0.83490318  1
  Cu+  Cu69  1  0.49786101  0.66805467  0.16694316  1
  Cu+  Cu70  1  0.49702040  0.66641994  0.50292589  1
  Cu+  Cu71  1  0.50066419  0.66841902  0.83857803  1
  Cu+  Cu72  1  0.84182070  -0.00218357  0.16297698  1
  Cu+  Cu73  1  0.83713842  0.00220372  0.49961811  1
  Cu+  Cu74  1  0.83250907  0.00102963  0.83130698  1
  Cu+  Cu75  1  0.83400639  0.33095050  0.16975712  1
  Cu+  Cu76  1  0.83559343  0.33804936  0.50395042  1
  Cu+  Cu77  1  0.82820532  0.33540315  0.83405933  1
  Cu+  Cu78  1  0.83122336  0.66814540  0.16742537  1
  Cu+  Cu79  1  0.82647324  0.66910283  0.49883677  1
  Cu+  Cu80  1  0.83576692  0.66521345  0.82792492  1
  Cu+  Cu81  1  -0.00081001  0.15955613  0.16742905  1
  Cu+  Cu82  1  0.00039012  0.17061157  0.49893246  1
  Cu+  Cu83  1  0.00182054  0.16568955  0.82763293  1
  Cu+  Cu84  1  -0.00364417  0.50001557  0.16889742  1
  Cu+  Cu85  1  -0.00086197  0.50378525  0.50173734  1
  Cu+  Cu86  1  0.00166220  0.49931493  0.83518309  1
  Cu+  Cu87  1  0.00479795  0.83136889  0.16807728  1
  Cu+  Cu88  1  -0.00226252  0.83629980  0.49430671  1
  Cu+  Cu89  1  0.00176415  0.83231155  0.83244181  1
  Cu+  Cu90  1  0.33412002  0.17105179  0.16336379  1
  Cu+  Cu91  1  0.33523506  0.16407379  0.50284602  1
  Cu+  Cu92  1  0.33063740  0.16285334  0.83354631  1
  Cu+  Cu93  1  0.33216810  0.49799442  0.17411566  1
  Cu+  Cu94  1  0.33102378  0.49539097  0.50009814  1
  Cu+  Cu95  1  0.33375398  0.49744283  0.83477223  1
  Cu+  Cu96  1  0.33268063  0.83972744  0.16914497  1
  Cu+  Cu97  1  0.33457539  0.82950427  0.50252797  1
  Cu+  Cu98  1  0.33597891  0.83153031  0.83181128  1
  Cu+  Cu99  1  0.67058518  0.16784302  0.16554603  1
  Cu+  Cu100  1  0.66791188  0.16737135  0.50170938  1
  Cu+  Cu101  1  0.66633118  0.16709678  0.83826976  1
  Cu+  Cu102  1  0.66023717  0.50212306  0.16476427  1
  Cu+  Cu103  1  0.66370413  0.50291391  0.49842829  1
  Cu+  Cu104  1  0.67088260  0.49933824  0.83226069  1
  Cu+  Cu105  1  0.66638851  0.83481257  0.16411736  1
  Cu+  Cu106  1  0.66588941  0.83038007  0.50321850  1
  Cu+  Cu107  1  0.66761682  0.83975795  0.82819539  1
  Cu+  Cu108  1  0.26149873  0.40143463  0.41181669  1
  Cu+  Cu109  1  0.06960177  0.26139308  0.40141128  1
  Cu+  Cu110  1  0.73993711  0.93081419  0.73421277  1
  Cu+  Cu111  1  0.58958555  0.40947078  0.08043410  1
  Cu+  Cu112  1  0.59142961  0.25837176  0.92440807  1
  Cu+  Cu113  1  0.74416166  0.41668227  0.92700049  1
  Cu+  Cu114  1  0.93463358  0.06840194  0.07321088  1
  Cu+  Cu115  1  0.40593702  0.74120341  0.92996863  1
  Cu+  Cu116  1  0.73288215  0.59025586  0.40518673  1
  Cu+  Cu117  1  0.39978401  0.26136766  0.06727470  1
  Cu+  Cu118  1  0.92844310  0.07182921  0.73840739  1
  Cu+  Cu119  1  0.26597047  0.92997483  0.26364902  1
  Cu+  Cu120  1  0.07110095  0.59141897  0.41029516  1
  Cu+  Cu121  1  0.07707341  0.26379362  0.74040921  1
  Cu+  Cu122  1  0.40226250  0.92776635  0.73812967  1
  Cu+  Cu123  1  0.73445392  0.74286331  0.25037577  1
  Cu+  Cu124  1  0.40763007  0.40457931  0.26080784  1
  Cu+  Cu125  1  0.40126762  0.73265328  0.59127567  1
  Cu+  Cu126  1  0.07663535  0.73946710  0.25820744  1
  Cu+  Cu127  1  0.73767257  0.07000819  0.92891777  1
  Cu+  Cu128  1  0.73925520  0.25845922  0.73818838  1
  Cu+  Cu129  1  0.73969151  0.74225398  0.59433722  1
  Cu+  Cu130  1  0.06949410  0.93014195  0.40573414  1
  Cu+  Cu131  1  0.73803375  0.59379930  0.74478811  1
  Cu+  Cu132  1  0.74982314  0.25830138  0.08020403  1
  Te2-  Te133  1  0.24838131  0.25475592  0.07849913  1
  Te2-  Te134  1  0.25575369  0.24863144  0.41410834  1
  Te2-  Te135  1  0.25181061  0.24972947  0.74844869  1
  Te2-  Te136  1  0.25100343  0.58367325  0.08734218  1
  Te2-  Te137  1  0.25521966  0.58528105  0.41558218  1
  Te2-  Te138  1  0.25404030  0.58245719  0.74782716  1
  Te2-  Te139  1  0.25406090  0.92149654  0.07903785  1
  Te2-  Te140  1  0.25686164  0.91908963  0.41565332  1
  Te2-  Te141  1  0.25214635  0.91849750  0.74553053  1
  Te2-  Te142  1  0.59123734  0.25675456  0.07827081  1
  Te2-  Te143  1  0.58868921  0.25274195  0.41511329  1
  Te2-  Te144  1  0.58664816  0.25135906  0.74540022  1
  Te2-  Te145  1  0.58352425  0.59107341  0.08056725  1
  Te2-  Te146  1  0.57974320  0.58761868  0.41183158  1
  Te2-  Te147  1  0.58525071  0.58747508  0.74968125  1
  Te2-  Te148  1  0.58438716  0.91843549  0.07857204  1
  Te2-  Te149  1  0.58780706  0.91811345  0.41730202  1
  Te2-  Te150  1  0.58562955  0.92034267  0.73988690  1
  Te2-  Te151  1  0.91882839  0.24849824  0.08143637  1
  Te2-  Te152  1  0.91700868  0.25632726  0.41406062  1
  Te2-  Te153  1  0.91867503  0.25666781  0.74943978  1
  Te2-  Te154  1  0.91654101  0.58562868  0.08266916  1
  Te2-  Te155  1  0.91780862  0.59058086  0.41470857  1
  Te2-  Te156  1  0.92578838  0.58616794  0.74748688  1
  Te2-  Te157  1  0.92688866  0.91522767  0.07722075  1
  Te2-  Te158  1  0.91519773  0.92038776  0.40842826  1
  Te2-  Te159  1  0.92143368  0.91845692  0.74441891  1
  Te2-  Te160  1  0.25648867  0.08649487  0.25511243  1
  Te2-  Te161  1  0.24835231  0.08044931  0.58510856  1
  Te2-  Te162  1  0.25245064  0.07855541  0.91976273  1
  Te2-  Te163  1  0.25079802  0.40870881  0.25728180  1
  Te2-  Te164  1  0.25079375  0.40957450  0.58582496  1
  Te2-  Te165  1  0.25144678  0.41193832  0.92031264  1
  Te2-  Te166  1  0.25323903  0.75037835  0.25471390  1
  Te2-  Te167  1  0.24925631  0.74326466  0.58456431  1
  Te2-  Te168  1  0.25402576  0.74508719  0.91991019  1
  Te2-  Te169  1  0.58636985  0.08480793  0.24992607  1
  Te2-  Te170  1  0.58831692  0.08078187  0.58589481  1
  Te2-  Te171  1  0.58271869  0.07611618  0.92012566  1
  Te2-  Te172  1  0.58114548  0.41370149  0.25036779  1
  Te2-  Te173  1  0.58606545  0.41539331  0.58462606  1
  Te2-  Te174  1  0.59029114  0.41291928  0.92252421  1
  Te2-  Te175  1  0.58312110  0.74906139  0.25263958  1
  Te2-  Te176  1  0.58446614  0.74568229  0.58984848  1
  Te2-  Te177  1  0.59142119  0.75124448  0.91605199  1
  Te2-  Te178  1  0.92012060  0.07727053  0.25688864  1
  Te2-  Te179  1  0.92329650  0.08112773  0.58567366  1
  Te2-  Te180  1  0.92244303  0.07976220  0.91883935  1
  Te2-  Te181  1  0.91462512  0.41588920  0.25454140  1
  Te2-  Te182  1  0.91867243  0.42057068  0.58813834  1
  Te2-  Te183  1  0.92084788  0.41157608  0.91771118  1
  Te2-  Te184  1  0.92213925  0.74487867  0.25208105  1
  Te2-  Te185  1  0.91765408  0.75078991  0.58194141  1
  Te2-  Te186  1  0.91767182  0.74760025  0.91453663  1
  Te2-  Te187  1  0.07596248  0.25257506  0.24945501  1
  Te2-  Te188  1  0.07935695  0.25549604  0.58687819  1
  Te2-  Te189  1  0.07905785  0.24906867  0.91941853  1
  Te2-  Te190  1  0.07743741  0.58469299  0.25696765  1
  Te2-  Te191  1  0.08248370  0.58560553  0.58826229  1
  Te2-  Te192  1  0.08337114  0.58458656  0.92000257  1
  Te2-  Te193  1  0.07750739  0.92623616  0.25147246  1
  Te2-  Te194  1  0.08170540  0.91511928  0.58423500  1
  Te2-  Te195  1  0.08268717  0.91567862  0.91892875  1
  Te2-  Te196  1  0.41403769  0.25248333  0.25517337  1
  Te2-  Te197  1  0.41521526  0.25163747  0.58698145  1
  Te2-  Te198  1  0.40966318  0.25372431  0.91500590  1
  Te2-  Te199  1  0.41118430  0.59091148  0.25307075  1
  Te2-  Te200  1  0.41126148  0.58053558  0.58795548  1
  Te2-  Te201  1  0.41427633  0.58388050  0.92157363  1
  Te2-  Te202  1  0.41817583  0.92389879  0.25469373  1
  Te2-  Te203  1  0.41160834  0.92412958  0.58343104  1
  Te2-  Te204  1  0.41684681  0.91873067  0.91746960  1
  Te2-  Te205  1  0.74965458  0.24964700  0.25537783  1
  Te2-  Te206  1  0.74873529  0.25452015  0.58657749  1
  Te2-  Te207  1  0.74687666  0.25545217  0.92684772  1
  Te2-  Te208  1  0.74058357  0.58728456  0.25204468  1
  Te2-  Te209  1  0.74118887  0.58876776  0.58955841  1
  Te2-  Te210  1  0.75164021  0.58682420  0.91862410  1
  Te2-  Te211  1  0.75090499  0.92088575  0.24779379  1
  Te2-  Te212  1  0.74577334  0.92499253  0.58153136  1
  Te2-  Te213  1  0.74788165  0.91894349  0.92080857  1
  Te2-  Te214  1  0.08606621  0.07736082  0.08134162  1
  Te2-  Te215  1  0.07794423  0.08130915  0.41284414  1
  Te2-  Te216  1  0.08188759  0.07324004  0.74583664  1
  Te2-  Te217  1  0.07949599  0.41623480  0.08394960  1
  Te2-  Te218  1  0.07397307  0.41343555  0.41390937  1
  Te2-  Te219  1  0.08041408  0.41482747  0.74649470  1
  Te2-  Te220  1  0.08514731  0.74770687  0.08037566  1
  Te2-  Te221  1  0.07794641  0.74524874  0.41134989  1
  Te2-  Te222  1  0.08267204  0.74630994  0.74777227  1
  Te2-  Te223  1  0.41606582  0.08332930  0.07960397  1
  Te2-  Te224  1  0.41633210  0.08149837  0.41428747  1
  Te2-  Te225  1  0.41252237  0.08248427  0.74516851  1
  Te2-  Te226  1  0.40530424  0.41754361  0.07508283  1
  Te2-  Te227  1  0.41463132  0.40895266  0.41461447  1
  Te2-  Te228  1  0.41820317  0.41348205  0.75034106  1
  Te2-  Te229  1  0.41029054  0.74909061  0.08360132  1
  Te2-  Te230  1  0.41551721  0.74813332  0.41333527  1
  Te2-  Te231  1  0.41335179  0.74116875  0.74578339  1
  Te2-  Te232  1  0.74292419  0.07163764  0.08363482  1
  Te2-  Te233  1  0.74999196  0.08298373  0.41668722  1
  Te2-  Te234  1  0.74352557  0.08250056  0.74575860  1
  Te2-  Te235  1  0.74584239  0.41294600  0.08047995  1
  Te2-  Te236  1  0.74770770  0.41566697  0.41718937  1
  Te2-  Te237  1  0.74685807  0.41347799  0.74137047  1
  Te2-  Te238  1  0.74887903  0.74932916  0.07807624  1
  Te2-  Te239  1  0.74165332  0.74736670  0.40808883  1
  Te2-  Te240  1  0.74511824  0.74669123  0.74611794  1
