# generated using pymatgen
data_Ti27(Cu53Te54)2
_symmetry_space_group_name_H-M   'P 1'
_cell_length_a   17.88522463
_cell_length_b   17.88500823
_cell_length_c   17.88359988
_cell_angle_alpha   89.96976304
_cell_angle_beta   90.04303383
_cell_angle_gamma   90.01533027
_symmetry_Int_Tables_number   1
_chemical_formula_structural   Ti27(Cu53Te54)2
_chemical_formula_sum   'Ti27 Cu106 Te108'
_cell_volume   5720.55663385
_cell_formula_units_Z   1
loop_
 _symmetry_equiv_pos_site_id
 _symmetry_equiv_pos_as_xyz
  1  'x, y, z'
loop_
 _atom_type_symbol
 _atom_type_oxidation_number
  Ti4+  4.0
  Cu+  1.0
  Te2-  -2.0
loop_
 _atom_site_type_symbol
 _atom_site_label
 _atom_site_symmetry_multiplicity
 _atom_site_fract_x
 _atom_site_fract_y
 _atom_site_fract_z
 _atom_site_occupancy
  Ti4+  Ti0  1  0.16766811  0.16613657  0.16701023  1
  Ti4+  Ti1  1  0.16601984  0.16903727  0.50207227  1
  Ti4+  Ti2  1  0.16766012  0.16383463  0.82966356  1
  Ti4+  Ti3  1  0.16909628  0.50058860  0.16510649  1
  Ti4+  Ti4  1  0.16670160  0.50228101  0.49985380  1
  Ti4+  Ti5  1  0.16391210  0.49931362  0.83629022  1
  Ti4+  Ti6  1  0.17014550  0.83446295  0.16578523  1
  Ti4+  Ti7  1  0.16602467  0.83246944  0.49989279  1
  Ti4+  Ti8  1  0.17044123  0.83015984  0.83182918  1
  Ti4+  Ti9  1  0.49936416  0.16659314  0.16733977  1
  Ti4+  Ti10  1  0.49858808  0.16814770  0.50001907  1
  Ti4+  Ti11  1  0.49783716  0.16870650  0.83054970  1
  Ti4+  Ti12  1  0.50032640  0.49832501  0.16688562  1
  Ti4+  Ti13  1  0.50167695  0.50092081  0.50143361  1
  Ti4+  Ti14  1  0.49916134  0.49961290  0.83021586  1
  Ti4+  Ti15  1  0.50130712  0.83338930  0.16937949  1
  Ti4+  Ti16  1  0.49902168  0.83293598  0.50144784  1
  Ti4+  Ti17  1  0.49861023  0.83430246  0.83331295  1
  Ti4+  Ti18  1  0.83281208  0.16741951  0.16675798  1
  Ti4+  Ti19  1  0.83303005  0.16455625  0.50142976  1
  Ti4+  Ti20  1  0.83607213  0.16806334  0.83569531  1
  Ti4+  Ti21  1  0.83402225  0.50087980  0.16757727  1
  Ti4+  Ti22  1  0.83189744  0.50002637  0.49996212  1
  Ti4+  Ti23  1  0.83142928  0.50177852  0.83434324  1
  Ti4+  Ti24  1  0.83210957  0.83425752  0.16068224  1
  Ti4+  Ti25  1  0.83313298  0.83153200  0.49921602  1
  Ti4+  Ti26  1  0.83491406  0.83407269  0.83641622  1
  Cu+  Cu27  1  0.17178539  0.16396277  0.00023606  1
  Cu+  Cu28  1  0.16544835  0.16946918  0.33583401  1
  Cu+  Cu29  1  0.16037618  0.16187290  0.66529911  1
  Cu+  Cu30  1  0.17033860  0.50135237  0.00027054  1
  Cu+  Cu31  1  0.16738922  0.50137254  0.33144374  1
  Cu+  Cu32  1  0.16219889  0.50051508  0.66652407  1
  Cu+  Cu33  1  0.17319815  0.83044795  -0.00076157  1
  Cu+  Cu34  1  0.16921551  0.83446364  0.33458970  1
  Cu+  Cu35  1  0.16451916  0.83203370  0.66601850  1
  Cu+  Cu36  1  0.49825670  0.16870066  -0.00198734  1
  Cu+  Cu37  1  0.49658768  0.16543609  0.33205995  1
  Cu+  Cu38  1  0.49564592  0.17266603  0.66503197  1
  Cu+  Cu39  1  0.49936141  0.49614509  -0.00099220  1
  Cu+  Cu40  1  0.50307814  0.49724303  0.33366597  1
  Cu+  Cu41  1  0.50653979  0.50089459  0.66706650  1
  Cu+  Cu42  1  0.50003146  0.83536946  0.00155260  1
  Cu+  Cu43  1  0.50344394  0.83253349  0.33747409  1
  Cu+  Cu44  1  0.49498638  0.83201542  0.66753069  1
  Cu+  Cu45  1  0.83774595  0.16602734  0.00248801  1
  Cu+  Cu46  1  0.83291887  0.16480149  0.33436021  1
  Cu+  Cu47  1  0.83646911  0.16700828  0.66905530  1
  Cu+  Cu48  1  0.83103524  0.50551865  0.00305230  1
  Cu+  Cu49  1  0.83346823  0.49897830  0.33435805  1
  Cu+  Cu50  1  0.83044774  0.49957998  0.66464858  1
  Cu+  Cu51  1  0.82451693  0.83739042  -0.00113586  1
  Cu+  Cu52  1  0.83236258  0.83197622  0.32773117  1
  Cu+  Cu53  1  0.83734575  0.83149568  0.66721282  1
  Cu+  Cu54  1  0.17029505  0.00207383  0.16543763  1
  Cu+  Cu55  1  0.16561063  -0.00024008  0.50341457  1
  Cu+  Cu56  1  0.17502607  -0.00445373  0.82963146  1
  Cu+  Cu57  1  0.16634171  0.33408394  0.16558052  1
  Cu+  Cu58  1  0.16719663  0.33788613  0.50180430  1
  Cu+  Cu59  1  0.16322272  0.32986794  0.83273727  1
  Cu+  Cu60  1  0.17187871  0.66742244  0.16291637  1
  Cu+  Cu61  1  0.16673553  0.66663138  0.49607202  1
  Cu+  Cu62  1  0.16407236  0.66641442  0.84112942  1
  Cu+  Cu63  1  0.49681464  0.00205532  0.17253064  1
  Cu+  Cu64  1  0.49820219  0.00070659  0.50209310  1
  Cu+  Cu65  1  0.49927297  0.00047635  0.83160324  1
  Cu+  Cu66  1  0.49980729  0.33147469  0.16672337  1
  Cu+  Cu67  1  0.50237435  0.33543098  0.49627132  1
  Cu+  Cu68  1  0.49600698  0.33363977  0.82426463  1
  Cu+  Cu69  1  0.50215647  0.66352077  0.16967573  1
  Cu+  Cu70  1  0.50099632  0.66939587  0.50580228  1
  Cu+  Cu71  1  0.49725809  0.66783502  0.83367187  1
  Cu+  Cu72  1  0.83492865  0.00234101  0.15789892  1
  Cu+  Cu73  1  0.83170088  -0.00482628  0.49937710  1
  Cu+  Cu74  1  0.83821412  0.00251632  0.83544075  1
  Cu+  Cu75  1  0.83356125  0.33414081  0.17005407  1
  Cu+  Cu76  1  0.83268204  0.33094559  0.50162419  1
  Cu+  Cu77  1  0.83230312  0.33456555  0.83724693  1
  Cu+  Cu78  1  0.82793656  0.66541371  0.16205620  1
  Cu+  Cu79  1  0.83189978  0.66431067  0.49913060  1
  Cu+  Cu80  1  0.83851755  0.66722059  0.83898388  1
  Cu+  Cu81  1  -0.00117472  0.16571715  0.16567458  1
  Cu+  Cu82  1  0.00066370  0.16615159  0.50487151  1
  Cu+  Cu83  1  0.00021829  0.16523579  0.82609596  1
  Cu+  Cu84  1  0.00422155  0.49974051  0.16696775  1
  Cu+  Cu85  1  -0.00042518  0.50005071  0.49972977  1
  Cu+  Cu86  1  -0.00471868  0.50378505  0.83667845  1
  Cu+  Cu87  1  0.00059347  0.83779546  0.16482499  1
  Cu+  Cu88  1  -0.00114363  0.83299980  0.49776466  1
  Cu+  Cu89  1  0.00296887  0.82575151  0.83242755  1
  Cu+  Cu90  1  0.33538648  0.16229373  0.16902417  1
  Cu+  Cu91  1  0.33158627  0.17037512  0.49919022  1
  Cu+  Cu92  1  0.33285482  0.17052390  0.82770163  1
  Cu+  Cu93  1  0.33679747  0.49785004  0.16839638  1
  Cu+  Cu94  1  0.33308115  0.50337181  0.50201361  1
  Cu+  Cu95  1  0.33072664  0.49848486  0.83383221  1
  Cu+  Cu96  1  0.33645943  0.83174888  0.16591779  1
  Cu+  Cu97  1  0.33096416  0.82910644  0.50058784  1
  Cu+  Cu98  1  0.33430476  0.83831579  0.83465147  1
  Cu+  Cu99  1  0.66483553  0.16914384  0.16842026  1
  Cu+  Cu100  1  0.66715123  0.16573431  0.50180457  1
  Cu+  Cu101  1  0.66954607  0.16832337  0.83600160  1
  Cu+  Cu102  1  0.66692289  0.50150489  0.16662172  1
  Cu+  Cu103  1  0.66494264  0.50062263  0.50068480  1
  Cu+  Cu104  1  0.66237954  0.49731107  0.82902421  1
  Cu+  Cu105  1  0.66963296  0.83390035  0.16634353  1
  Cu+  Cu106  1  0.66630378  0.83237637  0.49812538  1
  Cu+  Cu107  1  0.66469163  0.83614041  0.83470396  1
  Cu+  Cu108  1  0.92516860  0.59099926  0.93376245  1
  Cu+  Cu109  1  0.73416274  0.93425623  0.07426138  1
  Cu+  Cu110  1  0.73330922  0.58837770  0.07317135  1
  Cu+  Cu111  1  0.25825092  0.73820396  0.40501530  1
  Cu+  Cu112  1  0.26422269  0.59009664  0.92302580  1
  Cu+  Cu113  1  0.59467777  0.40388881  0.40375342  1
  Cu+  Cu114  1  0.26555391  0.07677556  0.07579577  1
  Cu+  Cu115  1  0.07487174  0.74557179  0.93204802  1
  Cu+  Cu116  1  0.93039420  0.07469735  0.07388280  1
  Cu+  Cu117  1  0.74585658  0.73756145  0.25879452  1
  Cu+  Cu118  1  0.26138580  0.92548368  0.92737381  1
  Cu+  Cu119  1  0.40222813  0.26551387  0.73263091  1
  Cu+  Cu120  1  0.07075163  0.26269575  0.73887165  1
  Cu+  Cu121  1  0.59313861  0.73979712  0.41026095  1
  Cu+  Cu122  1  0.26717529  0.73798410  0.07418892  1
  Cu+  Cu123  1  0.40085377  0.73999820  0.59799884  1
  Cu+  Cu124  1  0.07036668  0.06718420  0.58859901  1
  Cu+  Cu125  1  0.26362831  0.07255221  0.73478154  1
  Cu+  Cu126  1  0.59634655  0.59820584  0.59583519  1
  Cu+  Cu127  1  0.40484879  0.07083233  0.26594459  1
  Cu+  Cu128  1  0.25735767  0.25920797  0.92714682  1
  Cu+  Cu129  1  0.59644138  0.40181550  0.73954035  1
  Cu+  Cu130  1  0.73284815  0.73785628  0.91447379  1
  Cu+  Cu131  1  0.91964639  0.07078008  0.73803096  1
  Cu+  Cu132  1  0.92547802  0.73617239  0.73617023  1
  Te2-  Te133  1  0.25575205  0.25334597  0.08270365  1
  Te2-  Te134  1  0.24975108  0.25529127  0.41584002  1
  Te2-  Te135  1  0.24878010  0.25447327  0.74027104  1
  Te2-  Te136  1  0.26090735  0.58551746  0.07916561  1
  Te2-  Te137  1  0.25499365  0.58558284  0.41154873  1
  Te2-  Te138  1  0.24716437  0.58515404  0.75028128  1
  Te2-  Te139  1  0.25923002  0.92221546  0.07992566  1
  Te2-  Te140  1  0.25228021  0.92063473  0.41753118  1
  Te2-  Te141  1  0.25591936  0.91508954  0.74015291  1
  Te2-  Te142  1  0.58418645  0.25169661  0.08044586  1
  Te2-  Te143  1  0.58658448  0.24948075  0.41220711  1
  Te2-  Te144  1  0.58993425  0.25039825  0.74535889  1
  Te2-  Te145  1  0.58319141  0.58536677  0.07812139  1
  Te2-  Te146  1  0.58598604  0.58798116  0.41309204  1
  Te2-  Te147  1  0.58657382  0.59210567  0.74915792  1
  Te2-  Te148  1  0.58282091  0.92205748  0.08333485  1
  Te2-  Te149  1  0.58508081  0.92167146  0.41750514  1
  Te2-  Te150  1  0.58331849  0.91822181  0.74642191  1
  Te2-  Te151  1  0.91917132  0.25567314  0.08318593  1
  Te2-  Te152  1  0.91886418  0.24940474  0.41662632  1
  Te2-  Te153  1  0.91846366  0.25859683  0.74775932  1
  Te2-  Te154  1  0.92343578  0.58818008  0.08445093  1
  Te2-  Te155  1  0.91791727  0.58462421  0.41460042  1
  Te2-  Te156  1  0.91754117  0.58507232  0.74433516  1
  Te2-  Te157  1  0.92186683  0.91843055  0.07446873  1
  Te2-  Te158  1  0.91668271  0.91580569  0.41177433  1
  Te2-  Te159  1  0.92306285  0.91697980  0.74956255  1
  Te2-  Te160  1  0.25093269  0.08028000  0.25829933  1
  Te2-  Te161  1  0.25562275  0.08081005  0.58478402  1
  Te2-  Te162  1  0.25888944  0.07842375  0.91830910  1
  Te2-  Te163  1  0.25216947  0.41433840  0.25135675  1
  Te2-  Te164  1  0.25198993  0.41823722  0.58751854  1
  Te2-  Te165  1  0.25147225  0.41059462  0.91919774  1
  Te2-  Te166  1  0.25526863  0.74742139  0.25263722  1
  Te2-  Te167  1  0.24926667  0.74350701  0.58894331  1
  Te2-  Te168  1  0.26231367  0.74353486  0.91980879  1
  Te2-  Te169  1  0.58678772  0.08200313  0.25387839  1
  Te2-  Te170  1  0.58207754  0.08352535  0.58688413  1
  Te2-  Te171  1  0.58297442  0.08389898  0.91588498  1
  Te2-  Te172  1  0.58868155  0.41149575  0.25063820  1
  Te2-  Te173  1  0.58835584  0.41034873  0.58663886  1
  Te2-  Te174  1  0.58206770  0.41134662  0.91540853  1
  Te2-  Te175  1  0.58877551  0.74534112  0.25352135  1
  Te2-  Te176  1  0.58950825  0.75105024  0.59131335  1
  Te2-  Te177  1  0.58228124  0.74756723  0.92063435  1
  Te2-  Te178  1  0.91766116  0.07949273  0.25141909  1
  Te2-  Te179  1  0.91890324  0.07437709  0.58723511  1
  Te2-  Te180  1  0.92531022  0.08144699  0.92081437  1
  Te2-  Te181  1  0.92030784  0.41644225  0.25231293  1
  Te2-  Te182  1  0.91754881  0.41519788  0.58487072  1
  Te2-  Te183  1  0.91537804  0.41721581  0.92227320  1
  Te2-  Te184  1  0.91819094  0.74788299  0.24504488  1
  Te2-  Te185  1  0.92083630  0.74401457  0.58324497  1
  Te2-  Te186  1  0.92169664  0.74874283  0.92949346  1
  Te2-  Te187  1  0.08129187  0.25095002  0.25006466  1
  Te2-  Te188  1  0.07937170  0.25803968  0.58663032  1
  Te2-  Te189  1  0.08103009  0.24567077  0.91927003  1
  Te2-  Te190  1  0.08497201  0.58806199  0.24932347  1
  Te2-  Te191  1  0.07999894  0.58744416  0.58372983  1
  Te2-  Te192  1  0.07703114  0.58657246  0.92619888  1
  Te2-  Te193  1  0.08493897  0.91915712  0.25048648  1
  Te2-  Te194  1  0.07740567  0.91585950  0.58708656  1
  Te2-  Te195  1  0.08512680  0.91685126  0.91663395  1
  Te2-  Te196  1  0.41281057  0.25350245  0.25215377  1
  Te2-  Te197  1  0.41189911  0.25871908  0.58132991  1
  Te2-  Te198  1  0.41295266  0.25577627  0.91823179  1
  Te2-  Te199  1  0.41669963  0.58336351  0.25423903  1
  Te2-  Te200  1  0.41391656  0.58547901  0.58948115  1
  Te2-  Te201  1  0.41563370  0.58445761  0.91971145  1
  Te2-  Te202  1  0.41354589  0.91576442  0.25696594  1
  Te2-  Te203  1  0.41159297  0.91853246  0.58495898  1
  Te2-  Te204  1  0.41599256  0.92249877  0.92135126  1
  Te2-  Te205  1  0.74824647  0.25179817  0.25371228  1
  Te2-  Te206  1  0.74872636  0.24979980  0.58786153  1
  Te2-  Te207  1  0.75039648  0.25162528  0.92219379  1
  Te2-  Te208  1  0.74610046  0.58494239  0.25616207  1
  Te2-  Te209  1  0.74657964  0.58777027  0.58713225  1
  Te2-  Te210  1  0.73893663  0.58592533  0.91833078  1
  Te2-  Te211  1  0.75095287  0.92316937  0.24797822  1
  Te2-  Te212  1  0.74836187  0.91447620  0.58672362  1
  Te2-  Te213  1  0.74573636  0.92619613  0.91608759  1
  Te2-  Te214  1  0.08229907  0.07950347  0.07902741  1
  Te2-  Te215  1  0.08147019  0.08196863  0.41617217  1
  Te2-  Te216  1  0.07895647  0.07027391  0.74692265  1
  Te2-  Te217  1  0.08312002  0.41536175  0.07933301  1
  Te2-  Te218  1  0.08217136  0.41685599  0.41409510  1
  Te2-  Te219  1  0.07592960  0.41680295  0.74971904  1
  Te2-  Te220  1  0.08101200  0.74851178  0.08246101  1
  Te2-  Te221  1  0.08014997  0.74887362  0.41227352  1
  Te2-  Te222  1  0.08365095  0.74193231  0.74520983  1
  Te2-  Te223  1  0.41634838  0.07883048  0.07723374  1
  Te2-  Te224  1  0.41123784  0.08037809  0.41731413  1
  Te2-  Te225  1  0.41464775  0.07912535  0.74362960  1
  Te2-  Te226  1  0.41529752  0.41257951  0.08151653  1
  Te2-  Te227  1  0.41328625  0.41765944  0.41608485  1
  Te2-  Te228  1  0.40893262  0.41880362  0.74163142  1
  Te2-  Te229  1  0.41931937  0.74538541  0.08175267  1
  Te2-  Te230  1  0.41418273  0.74455906  0.41310838  1
  Te2-  Te231  1  0.40999066  0.74658723  0.75031286  1
  Te2-  Te232  1  0.74231773  0.08545874  0.07817795  1
  Te2-  Te233  1  0.74762470  0.07953933  0.41617394  1
  Te2-  Te234  1  0.74948296  0.08190540  0.75034781  1
  Te2-  Te235  1  0.74860969  0.41425571  0.08226712  1
  Te2-  Te236  1  0.74712286  0.41212978  0.41401704  1
  Te2-  Te237  1  0.74904476  0.41284762  0.74714238  1
  Te2-  Te238  1  0.74052241  0.74415050  0.07385120  1
  Te2-  Te239  1  0.74685253  0.74421536  0.41194412  1
  Te2-  Te240  1  0.74916822  0.74829135  0.75141696  1
