# generated using pymatgen
data_Ti27(Cu53Te54)2
_symmetry_space_group_name_H-M   'P 1'
_cell_length_a   17.87813687
_cell_length_b   17.87596735
_cell_length_c   17.87587623
_cell_angle_alpha   89.99303855
_cell_angle_beta   89.99981747
_cell_angle_gamma   90.00875068
_symmetry_Int_Tables_number   1
_chemical_formula_structural   Ti27(Cu53Te54)2
_chemical_formula_sum   'Ti27 Cu106 Te108'
_cell_volume   5712.93313590
_cell_formula_units_Z   1
loop_
 _symmetry_equiv_pos_site_id
 _symmetry_equiv_pos_as_xyz
  1  'x, y, z'
loop_
 _atom_type_symbol
 _atom_type_oxidation_number
  Ti4+  4.0
  Cu+  1.0
  Te2-  -2.0
loop_
 _atom_site_type_symbol
 _atom_site_label
 _atom_site_symmetry_multiplicity
 _atom_site_fract_x
 _atom_site_fract_y
 _atom_site_fract_z
 _atom_site_occupancy
  Ti4+  Ti0  1  0.16728039  0.17163491  0.16767667  1
  Ti4+  Ti1  1  0.16529565  0.16201459  0.49905134  1
  Ti4+  Ti2  1  0.17131790  0.16902851  0.83434446  1
  Ti4+  Ti3  1  0.16308243  0.50172025  0.16609360  1
  Ti4+  Ti4  1  0.16518804  0.49784945  0.49972176  1
  Ti4+  Ti5  1  0.16815852  0.49852805  0.83436277  1
  Ti4+  Ti6  1  0.16568151  0.83340119  0.16960651  1
  Ti4+  Ti7  1  0.16694607  0.83120384  0.50183901  1
  Ti4+  Ti8  1  0.16727290  0.83205278  0.83474266  1
  Ti4+  Ti9  1  0.49466152  0.16527145  0.16616692  1
  Ti4+  Ti10  1  0.49964590  0.16781676  0.50223225  1
  Ti4+  Ti11  1  0.50321445  0.16710898  0.83728819  1
  Ti4+  Ti12  1  0.49926225  0.50353025  0.16553137  1
  Ti4+  Ti13  1  0.50003286  0.49965882  0.49817157  1
  Ti4+  Ti14  1  0.49954667  0.50176503  0.83156897  1
  Ti4+  Ti15  1  0.50188761  0.82990328  0.16653796  1
  Ti4+  Ti16  1  0.50169629  0.83392860  0.49940041  1
  Ti4+  Ti17  1  0.50117359  0.83053384  0.83274903  1
  Ti4+  Ti18  1  0.83194087  0.16868243  0.16689855  1
  Ti4+  Ti19  1  0.83111333  0.16808736  0.49746048  1
  Ti4+  Ti20  1  0.83909341  0.16651761  0.83236622  1
  Ti4+  Ti21  1  0.83219575  0.50001750  0.16601487  1
  Ti4+  Ti22  1  0.83311391  0.49861832  0.50009462  1
  Ti4+  Ti23  1  0.83403638  0.49876321  0.83318065  1
  Ti4+  Ti24  1  0.83211895  0.83603172  0.16582844  1
  Ti4+  Ti25  1  0.83038583  0.83518051  0.49822813  1
  Ti4+  Ti26  1  0.83250473  0.83423844  0.83273165  1
  Cu+  Cu27  1  0.17391532  0.17029036  0.00135244  1
  Cu+  Cu28  1  0.15929768  0.17005329  0.33475148  1
  Cu+  Cu29  1  0.17396537  0.16772314  0.66228790  1
  Cu+  Cu30  1  0.16451856  0.49395877  0.00001881  1
  Cu+  Cu31  1  0.16451785  0.50097806  0.33211628  1
  Cu+  Cu32  1  0.16509113  0.49675109  0.66663251  1
  Cu+  Cu33  1  0.16567087  0.83450726  0.00373917  1
  Cu+  Cu34  1  0.16590951  0.83404024  0.33684352  1
  Cu+  Cu35  1  0.16850144  0.82875306  0.66916457  1
  Cu+  Cu36  1  0.49834111  0.15729801  0.00307267  1
  Cu+  Cu37  1  0.49439967  0.16714886  0.33329715  1
  Cu+  Cu38  1  0.50022649  0.16946779  0.67207790  1
  Cu+  Cu39  1  0.50099835  0.50491032  -0.00345740  1
  Cu+  Cu40  1  0.49866545  0.50098207  0.33195568  1
  Cu+  Cu41  1  0.49928829  0.50067401  0.66207999  1
  Cu+  Cu42  1  0.50196193  0.82736043  -0.00108812  1
  Cu+  Cu43  1  0.50229938  0.82686485  0.33399612  1
  Cu+  Cu44  1  0.50621996  0.83269476  0.66529331  1
  Cu+  Cu45  1  0.83522588  0.16455714  -0.00152556  1
  Cu+  Cu46  1  0.82864215  0.17067286  0.33162687  1
  Cu+  Cu47  1  0.83575146  0.16879036  0.66605754  1
  Cu+  Cu48  1  0.83290639  0.49923174  0.00235623  1
  Cu+  Cu49  1  0.83467465  0.50014755  0.33384497  1
  Cu+  Cu50  1  0.83555654  0.49857679  0.66563365  1
  Cu+  Cu51  1  0.83771374  0.83832747  -0.00257945  1
  Cu+  Cu52  1  0.82572458  0.83766447  0.33233117  1
  Cu+  Cu53  1  0.83054945  0.83332415  0.66567930  1
  Cu+  Cu54  1  0.16629738  0.00257686  0.17058620  1
  Cu+  Cu55  1  0.16233964  -0.00575308  0.49785060  1
  Cu+  Cu56  1  0.16743195  -0.00175758  0.83123420  1
  Cu+  Cu57  1  0.16745783  0.34017476  0.16325677  1
  Cu+  Cu58  1  0.16409058  0.33141288  0.49767711  1
  Cu+  Cu59  1  0.16867332  0.33432660  0.84185843  1
  Cu+  Cu60  1  0.16412405  0.66621302  0.16765226  1
  Cu+  Cu61  1  0.16556562  0.66362230  0.50232365  1
  Cu+  Cu62  1  0.16933099  0.66623478  0.83145701  1
  Cu+  Cu63  1  0.50149077  -0.00063586  0.16411443  1
  Cu+  Cu64  1  0.50210590  0.00226904  0.50539587  1
  Cu+  Cu65  1  0.49950070  -0.00071863  0.84139070  1
  Cu+  Cu66  1  0.49479504  0.33180635  0.16716238  1
  Cu+  Cu67  1  0.49895814  0.33641880  0.50033799  1
  Cu+  Cu68  1  0.49968509  0.33393359  0.82920127  1
  Cu+  Cu69  1  0.49910876  0.66992339  0.16505845  1
  Cu+  Cu70  1  0.50147987  0.66454875  0.49650058  1
  Cu+  Cu71  1  0.50261081  0.66538951  0.83520418  1
  Cu+  Cu72  1  0.83481074  0.00252263  0.16758063  1
  Cu+  Cu73  1  0.82858024  0.00129156  0.49625882  1
  Cu+  Cu74  1  0.83934165  -0.00026771  0.83753701  1
  Cu+  Cu75  1  0.83235156  0.33497573  0.16536652  1
  Cu+  Cu76  1  0.83031453  0.33336789  0.49653826  1
  Cu+  Cu77  1  0.83610972  0.33139281  0.82898419  1
  Cu+  Cu78  1  0.83196878  0.66638926  0.16678905  1
  Cu+  Cu79  1  0.83473586  0.66400238  0.50149993  1
  Cu+  Cu80  1  0.83193593  0.66638740  0.83102836  1
  Cu+  Cu81  1  -0.00072609  0.17026881  0.16830437  1
  Cu+  Cu82  1  -0.00074406  0.16545425  0.49624181  1
  Cu+  Cu83  1  0.00476241  0.16615798  0.83045160  1
  Cu+  Cu84  1  -0.00362077  0.50301105  0.16798651  1
  Cu+  Cu85  1  -0.00211965  0.49737280  0.50137402  1
  Cu+  Cu86  1  0.00125355  0.49751942  0.83572156  1
  Cu+  Cu87  1  -0.00175320  0.83420173  0.16750398  1
  Cu+  Cu88  1  0.00039077  0.83490691  0.49882599  1
  Cu+  Cu89  1  -0.00055217  0.83650864  0.83601491  1
  Cu+  Cu90  1  0.32904276  0.16394520  0.16449559  1
  Cu+  Cu91  1  0.33113706  0.16392301  0.50573379  1
  Cu+  Cu92  1  0.33717977  0.17291987  0.83848514  1
  Cu+  Cu93  1  0.33170380  0.50460006  0.16502891  1
  Cu+  Cu94  1  0.33388525  0.49898057  0.49789555  1
  Cu+  Cu95  1  0.33544822  0.50177286  0.82942417  1
  Cu+  Cu96  1  0.33416134  0.83352948  0.17277173  1
  Cu+  Cu97  1  0.33401449  0.83320981  0.50384888  1
  Cu+  Cu98  1  0.33185512  0.82442599  0.83180254  1
  Cu+  Cu99  1  0.66186324  0.16789799  0.16713484  1
  Cu+  Cu100  1  0.66542399  0.17043702  0.49770104  1
  Cu+  Cu101  1  0.67733124  0.16491002  0.83269582  1
  Cu+  Cu102  1  0.66646639  0.49981745  0.16678172  1
  Cu+  Cu103  1  0.66716448  0.50082716  0.50171599  1
  Cu+  Cu104  1  0.66672619  0.50050333  0.83326348  1
  Cu+  Cu105  1  0.67169719  0.82709264  0.16721712  1
  Cu+  Cu106  1  0.66394383  0.83871995  0.49501033  1
  Cu+  Cu107  1  0.66373313  0.83508037  0.82818587  1
  Cu+  Cu108  1  0.73381182  0.93181082  0.40180443  1
  Cu+  Cu109  1  0.07137257  0.92161520  0.40522649  1
  Cu+  Cu110  1  0.93347197  0.92817202  0.92857944  1
  Cu+  Cu111  1  0.40479725  0.07253246  0.92395499  1
  Cu+  Cu112  1  0.59396738  0.73635429  0.73659170  1
  Cu+  Cu113  1  0.24983835  0.06884058  0.07565745  1
  Cu+  Cu114  1  0.59580037  0.07450028  0.08208321  1
  Cu+  Cu115  1  0.40283248  0.73734558  0.92639231  1
  Cu+  Cu116  1  0.40752533  0.26045973  0.74227051  1
  Cu+  Cu117  1  0.26629109  0.26295305  0.92966788  1
  Cu+  Cu118  1  0.75059738  0.73409908  0.26267585  1
  Cu+  Cu119  1  0.59923600  0.73967974  0.07370514  1
  Cu+  Cu120  1  0.59908892  0.58693817  0.92645058  1
  Cu+  Cu121  1  0.74671610  0.26144896  0.73851651  1
  Cu+  Cu122  1  0.58984020  0.92153596  0.92816815  1
  Cu+  Cu123  1  0.73403612  0.26493305  0.40216685  1
  Cu+  Cu124  1  0.25742987  0.26272822  0.58278527  1
  Cu+  Cu125  1  0.74975755  0.07294785  0.92593966  1
  Cu+  Cu126  1  0.59430182  0.93199479  0.59350259  1
  Cu+  Cu127  1  0.59359835  0.73508390  0.40884897  1
  Cu+  Cu128  1  0.07140820  0.26289903  0.40795245  1
  Cu+  Cu129  1  0.40267341  0.74128994  0.26389961  1
  Cu+  Cu130  1  0.25867447  0.73538786  0.73630953  1
  Cu+  Cu131  1  0.06823768  0.40536598  0.92809051  1
  Cu+  Cu132  1  0.26505768  0.41627945  0.07482843  1
  Te2-  Te133  1  0.25785972  0.26012801  0.08138942  1
  Te2-  Te134  1  0.25334564  0.24893336  0.41484221  1
  Te2-  Te135  1  0.25497084  0.25744192  0.74620584  1
  Te2-  Te136  1  0.24773891  0.58706363  0.07841269  1
  Te2-  Te137  1  0.25004502  0.58398501  0.41483910  1
  Te2-  Te138  1  0.25279883  0.58306518  0.74412088  1
  Te2-  Te139  1  0.25367578  0.91762095  0.08435134  1
  Te2-  Te140  1  0.25497046  0.91684487  0.41668388  1
  Te2-  Te141  1  0.25456991  0.91661710  0.74911591  1
  Te2-  Te142  1  0.57980828  0.25167447  0.08034969  1
  Te2-  Te143  1  0.58075201  0.25427308  0.41233058  1
  Te2-  Te144  1  0.59138865  0.25165899  0.75075911  1
  Te2-  Te145  1  0.58979605  0.58835576  0.07994051  1
  Te2-  Te146  1  0.58868170  0.58321158  0.41091910  1
  Te2-  Te147  1  0.58666080  0.58470046  0.74287058  1
  Te2-  Te148  1  0.58988056  0.91792156  0.08035559  1
  Te2-  Te149  1  0.58131769  0.92484368  0.40882273  1
  Te2-  Te150  1  0.58360394  0.92561511  0.74761496  1
  Te2-  Te151  1  0.91727261  0.25218186  0.08054988  1
  Te2-  Te152  1  0.91836819  0.25377789  0.41127158  1
  Te2-  Te153  1  0.92513614  0.25199235  0.74560374  1
  Te2-  Te154  1  0.91737862  0.58730998  0.08107022  1
  Te2-  Te155  1  0.91950921  0.58453647  0.41533599  1
  Te2-  Te156  1  0.92030602  0.58346246  0.74924030  1
  Te2-  Te157  1  0.92113116  0.92296086  0.08254258  1
  Te2-  Te158  1  0.91681140  0.92024357  0.41195340  1
  Te2-  Te159  1  0.91786617  0.91816889  0.74594795  1
  Te2-  Te160  1  0.24880351  0.08552465  0.25706528  1
  Te2-  Te161  1  0.24998081  0.07277413  0.58385362  1
  Te2-  Te162  1  0.25437286  0.07624149  0.91958627  1
  Te2-  Te163  1  0.25189948  0.41814539  0.25207421  1
  Te2-  Te164  1  0.25287925  0.41341491  0.58523707  1
  Te2-  Te165  1  0.26247970  0.41518250  0.92065505  1
  Te2-  Te166  1  0.24961794  0.74579065  0.25579135  1
  Te2-  Te167  1  0.25464245  0.74310481  0.58550338  1
  Te2-  Te168  1  0.24989024  0.74485343  0.92506787  1
  Te2-  Te169  1  0.58149912  0.08193996  0.25355994  1
  Te2-  Te170  1  0.58820515  0.08620065  0.58980696  1
  Te2-  Te171  1  0.59407164  0.07818497  0.92288389  1
  Te2-  Te172  1  0.58180389  0.41504851  0.24911540  1
  Te2-  Te173  1  0.58600782  0.41468882  0.58502100  1
  Te2-  Te174  1  0.58384570  0.41431934  0.91700672  1
  Te2-  Te175  1  0.59130181  0.74201618  0.25419698  1
  Te2-  Te176  1  0.58983407  0.74459920  0.58270205  1
  Te2-  Te177  1  0.59392879  0.74358060  0.91996131  1
  Te2-  Te178  1  0.91757170  0.08499331  0.25331118  1
  Te2-  Te179  1  0.91619303  0.08153051  0.58182792  1
  Te2-  Te180  1  0.92776357  0.08196623  0.92119805  1
  Te2-  Te181  1  0.91762287  0.41448981  0.25172993  1
  Te2-  Te182  1  0.91741747  0.41053982  0.58454656  1
  Te2-  Te183  1  0.91658547  0.41130705  0.92053679  1
  Te2-  Te184  1  0.91548513  0.75080505  0.25392140  1
  Te2-  Te185  1  0.91696494  0.75097179  0.58316891  1
  Te2-  Te186  1  0.91756563  0.74693983  0.91668777  1
  Te2-  Te187  1  0.07984295  0.25922612  0.25030606  1
  Te2-  Te188  1  0.07975664  0.24893389  0.58556202  1
  Te2-  Te189  1  0.08046219  0.24959141  0.92207897  1
  Te2-  Te190  1  0.07834759  0.58659177  0.25319753  1
  Te2-  Te191  1  0.07972794  0.58204239  0.58636409  1
  Te2-  Te192  1  0.08395953  0.58549879  0.91862594  1
  Te2-  Te193  1  0.07882283  0.92077422  0.25277958  1
  Te2-  Te194  1  0.08167485  0.91504229  0.59002058  1
  Te2-  Te195  1  0.08418138  0.92144783  0.92152244  1
  Te2-  Te196  1  0.40903168  0.25069743  0.25106580  1
  Te2-  Te197  1  0.41328486  0.25556704  0.58838764  1
  Te2-  Te198  1  0.42099129  0.25667900  0.92587145  1
  Te2-  Te199  1  0.41264291  0.58799785  0.25196860  1
  Te2-  Te200  1  0.41411402  0.58636212  0.58245970  1
  Te2-  Te201  1  0.41023674  0.58681667  0.91857334  1
  Te2-  Te202  1  0.42028724  0.91802833  0.25367327  1
  Te2-  Te203  1  0.41630544  0.91742129  0.58791979  1
  Te2-  Te204  1  0.41085419  0.91363475  0.92055292  1
  Te2-  Te205  1  0.74276427  0.25568736  0.24883750  1
  Te2-  Te206  1  0.74636632  0.25397799  0.58589014  1
  Te2-  Te207  1  0.75245614  0.25347782  0.91940541  1
  Te2-  Te208  1  0.74575913  0.58388055  0.25457897  1
  Te2-  Te209  1  0.74902375  0.58484337  0.58692409  1
  Te2-  Te210  1  0.75003141  0.58602673  0.91991051  1
  Te2-  Te211  1  0.74275597  0.92530317  0.24849908  1
  Te2-  Te212  1  0.74590681  0.92122908  0.58680997  1
  Te2-  Te213  1  0.74376859  0.91996066  0.92058299  1
  Te2-  Te214  1  0.08300724  0.08572431  0.08178424  1
  Te2-  Te215  1  0.07735649  0.07663096  0.41166937  1
  Te2-  Te216  1  0.08841140  0.08410702  0.74611937  1
  Te2-  Te217  1  0.07280714  0.41399137  0.08189476  1
  Te2-  Te218  1  0.07819648  0.41449456  0.41206687  1
  Te2-  Te219  1  0.08332973  0.41106055  0.75037095  1
  Te2-  Te220  1  0.07989470  0.74902245  0.08350971  1
  Te2-  Te221  1  0.08083901  0.74532438  0.41624384  1
  Te2-  Te222  1  0.07829176  0.74810252  0.75143971  1
  Te2-  Te223  1  0.40666997  0.07276878  0.08006850  1
  Te2-  Te224  1  0.41413248  0.08113489  0.41951881  1
  Te2-  Te225  1  0.41536451  0.08101957  0.75349215  1
  Te2-  Te226  1  0.41685594  0.41746365  0.07839025  1
  Te2-  Te227  1  0.41408250  0.41436111  0.41225611  1
  Te2-  Te228  1  0.41413830  0.41591597  0.74372393  1
  Te2-  Te229  1  0.40971984  0.74803653  0.08026576  1
  Te2-  Te230  1  0.41139451  0.74663252  0.41669697  1
  Te2-  Te231  1  0.41733617  0.74430390  0.74297996  1
  Te2-  Te232  1  0.74688160  0.07892686  0.08056252  1
  Te2-  Te233  1  0.74289539  0.08302538  0.41060762  1
  Te2-  Te234  1  0.75482394  0.07738408  0.74648893  1
  Te2-  Te235  1  0.74555191  0.41444038  0.08068701  1
  Te2-  Te236  1  0.74437499  0.41613374  0.41146203  1
  Te2-  Te237  1  0.74685341  0.41523752  0.74616031  1
  Te2-  Te238  1  0.75252443  0.74752681  0.07410245  1
  Te2-  Te239  1  0.74578618  0.74236156  0.41488310  1
  Te2-  Te240  1  0.74693790  0.74701169  0.74578467  1
