# generated using pymatgen
data_Ti27(Cu53Te54)2
_symmetry_space_group_name_H-M   'P 1'
_cell_length_a   17.91963123
_cell_length_b   17.91575966
_cell_length_c   17.92089902
_cell_angle_alpha   90.03083441
_cell_angle_beta   90.10035430
_cell_angle_gamma   89.93918072
_symmetry_Int_Tables_number   1
_chemical_formula_structural   Ti27(Cu53Te54)2
_chemical_formula_sum   'Ti27 Cu106 Te108'
_cell_volume   5753.38074358
_cell_formula_units_Z   1
loop_
 _symmetry_equiv_pos_site_id
 _symmetry_equiv_pos_as_xyz
  1  'x, y, z'
loop_
 _atom_type_symbol
 _atom_type_oxidation_number
  Ti4+  4.0
  Cu+  1.0
  Te2-  -2.0
loop_
 _atom_site_type_symbol
 _atom_site_label
 _atom_site_symmetry_multiplicity
 _atom_site_fract_x
 _atom_site_fract_y
 _atom_site_fract_z
 _atom_site_occupancy
  Ti4+  Ti0  1  0.16448822  0.16736988  0.16168224  1
  Ti4+  Ti1  1  0.16770944  0.16708237  0.49901265  1
  Ti4+  Ti2  1  0.16782435  0.16613867  0.83223374  1
  Ti4+  Ti3  1  0.16631674  0.49919004  0.16793144  1
  Ti4+  Ti4  1  0.16531479  0.50296041  0.49912761  1
  Ti4+  Ti5  1  0.17088392  0.50072943  0.83175218  1
  Ti4+  Ti6  1  0.16510218  0.83658346  0.16895252  1
  Ti4+  Ti7  1  0.16355623  0.83642315  0.50150278  1
  Ti4+  Ti8  1  0.17351608  0.83361830  0.83298303  1
  Ti4+  Ti9  1  0.49865642  0.16544429  0.16407253  1
  Ti4+  Ti10  1  0.50294119  0.16741711  0.49871081  1
  Ti4+  Ti11  1  0.50223016  0.16554341  0.83294495  1
  Ti4+  Ti12  1  0.49819934  0.49956076  0.16891016  1
  Ti4+  Ti13  1  0.49781848  0.49595988  0.49813439  1
  Ti4+  Ti14  1  0.49924961  0.50114285  0.83794573  1
  Ti4+  Ti15  1  0.50094595  0.83454215  0.16604610  1
  Ti4+  Ti16  1  0.50011544  0.83335113  0.49570773  1
  Ti4+  Ti17  1  0.50202480  0.82895220  0.83028510  1
  Ti4+  Ti18  1  0.83250832  0.16515627  0.16724926  1
  Ti4+  Ti19  1  0.83027391  0.16518635  0.50312767  1
  Ti4+  Ti20  1  0.83099038  0.16574561  0.83703490  1
  Ti4+  Ti21  1  0.83314590  0.49984737  0.16656180  1
  Ti4+  Ti22  1  0.83190508  0.49823332  0.50007052  1
  Ti4+  Ti23  1  0.83550249  0.50151632  0.83557265  1
  Ti4+  Ti24  1  0.83467605  0.83252560  0.16695548  1
  Ti4+  Ti25  1  0.82893423  0.83209194  0.50081681  1
  Ti4+  Ti26  1  0.83728188  0.83246111  0.83203961  1
  Cu+  Cu27  1  0.16603484  0.16281260  -0.00404016  1
  Cu+  Cu28  1  0.16311533  0.16990292  0.32920014  1
  Cu+  Cu29  1  0.17110800  0.16334654  0.66567391  1
  Cu+  Cu30  1  0.17018823  0.49748533  0.00055321  1
  Cu+  Cu31  1  0.16885635  0.49876846  0.33709059  1
  Cu+  Cu32  1  0.16750305  0.50315584  0.66258415  1
  Cu+  Cu33  1  0.16848398  0.83515087  0.00369349  1
  Cu+  Cu34  1  0.16110496  0.83533466  0.33472894  1
  Cu+  Cu35  1  0.16943937  0.83652317  0.67113258  1
  Cu+  Cu36  1  0.50436004  0.16432082  -0.00022038  1
  Cu+  Cu37  1  0.50026726  0.16822110  0.33146210  1
  Cu+  Cu38  1  0.50411382  0.17124097  0.66486922  1
  Cu+  Cu39  1  0.50011198  0.50314321  0.00452940  1
  Cu+  Cu40  1  0.49335835  0.49461435  0.33353705  1
  Cu+  Cu41  1  0.49719994  0.49980890  0.67107024  1
  Cu+  Cu42  1  0.50025898  0.83129251  -0.00095615  1
  Cu+  Cu43  1  0.50065707  0.83405102  0.32974281  1
  Cu+  Cu44  1  0.50209027  0.83135958  0.66049394  1
  Cu+  Cu45  1  0.83540837  0.16388893  0.00333841  1
  Cu+  Cu46  1  0.83176337  0.16777927  0.33463383  1
  Cu+  Cu47  1  0.82762036  0.16300066  0.67118456  1
  Cu+  Cu48  1  0.83313116  0.49843865  0.00081503  1
  Cu+  Cu49  1  0.83235833  0.49902360  0.33268131  1
  Cu+  Cu50  1  0.83432892  0.50145356  0.66752919  1
  Cu+  Cu51  1  0.83605146  0.83030835  -0.00232141  1
  Cu+  Cu52  1  0.83015215  0.83429859  0.33503289  1
  Cu+  Cu53  1  0.83760183  0.83455379  0.66471830  1
  Cu+  Cu54  1  0.16405136  0.00413331  0.16572768  1
  Cu+  Cu55  1  0.16350603  0.00351732  0.50404181  1
  Cu+  Cu56  1  0.17061772  0.00206774  0.82971923  1
  Cu+  Cu57  1  0.16719732  0.33430935  0.15978166  1
  Cu+  Cu58  1  0.16603549  0.33299656  0.49818804  1
  Cu+  Cu59  1  0.16435502  0.33526035  0.83370289  1
  Cu+  Cu60  1  0.16397452  0.67001116  0.17249524  1
  Cu+  Cu61  1  0.16317761  0.66938218  0.50182273  1
  Cu+  Cu62  1  0.17987578  0.66604570  0.83260069  1
  Cu+  Cu63  1  0.50147090  -0.00017611  0.16204938  1
  Cu+  Cu64  1  0.50029759  -0.00020695  0.49743743  1
  Cu+  Cu65  1  0.50085745  -0.00582555  0.82843008  1
  Cu+  Cu66  1  0.49476091  0.33210888  0.17031775  1
  Cu+  Cu67  1  0.50873150  0.33241325  0.49819149  1
  Cu+  Cu68  1  0.50118352  0.33411061  0.83653258  1
  Cu+  Cu69  1  0.49944279  0.66789412  0.16885147  1
  Cu+  Cu70  1  0.49623246  0.66441651  0.49474966  1
  Cu+  Cu71  1  0.49648516  0.66718574  0.83640186  1
  Cu+  Cu72  1  0.83742124  -0.00226127  0.16571474  1
  Cu+  Cu73  1  0.82264249  -0.00078283  0.50400721  1
  Cu+  Cu74  1  0.83330897  -0.00249391  0.83186843  1
  Cu+  Cu75  1  0.83224470  0.33212965  0.16794193  1
  Cu+  Cu76  1  0.83386653  0.33330928  0.50165965  1
  Cu+  Cu77  1  0.83088831  0.33452300  0.83790494  1
  Cu+  Cu78  1  0.83486163  0.66471668  0.16706339  1
  Cu+  Cu79  1  0.82929343  0.66313380  0.49961739  1
  Cu+  Cu80  1  0.83650386  0.66904186  0.83603327  1
  Cu+  Cu81  1  -0.00279818  0.16306004  0.16505992  1
  Cu+  Cu82  1  -0.00030386  0.16590913  0.50136618  1
  Cu+  Cu83  1  -0.00193052  0.16604502  0.83647821  1
  Cu+  Cu84  1  -0.00271179  0.50177987  0.16820219  1
  Cu+  Cu85  1  -0.00175155  0.50172612  0.50125416  1
  Cu+  Cu86  1  0.00452278  0.50036200  0.83391870  1
  Cu+  Cu87  1  0.00157051  0.83124239  0.17155916  1
  Cu+  Cu88  1  -0.00686032  0.83583263  0.50416298  1
  Cu+  Cu89  1  0.00577437  0.83522388  0.82904708  1
  Cu+  Cu90  1  0.33080386  0.16664499  0.15909350  1
  Cu+  Cu91  1  0.33699453  0.16976055  0.49681009  1
  Cu+  Cu92  1  0.33572542  0.16621863  0.82789565  1
  Cu+  Cu93  1  0.33193306  0.49405120  0.16888811  1
  Cu+  Cu94  1  0.33218262  0.50158418  0.49250407  1
  Cu+  Cu95  1  0.33324995  0.50609334  0.83785533  1
  Cu+  Cu96  1  0.33310177  0.83737641  0.16858683  1
  Cu+  Cu97  1  0.33267082  0.83600371  0.49767796  1
  Cu+  Cu98  1  0.33721256  0.82385230  0.82976016  1
  Cu+  Cu99  1  0.66567440  0.16411998  0.16333147  1
  Cu+  Cu100  1  0.66654370  0.16740407  0.50751391  1
  Cu+  Cu101  1  0.66349476  0.17062884  0.84020617  1
  Cu+  Cu102  1  0.66719761  0.50138705  0.16674823  1
  Cu+  Cu103  1  0.66609906  0.49447091  0.49811445  1
  Cu+  Cu104  1  0.66844822  0.50076629  0.83674651  1
  Cu+  Cu105  1  0.66706704  0.83290107  0.16563027  1
  Cu+  Cu106  1  0.66575676  0.83521428  0.49390889  1
  Cu+  Cu107  1  0.67005694  0.82902265  0.83192892  1
  Cu+  Cu108  1  0.25574409  0.40270136  0.41262469  1
  Cu+  Cu109  1  0.73751018  0.92740080  0.40197598  1
  Cu+  Cu110  1  0.25650230  0.59359389  0.93389661  1
  Cu+  Cu111  1  0.07384517  0.07090268  0.92070032  1
  Cu+  Cu112  1  0.07498016  0.40956340  0.92589847  1
  Cu+  Cu113  1  0.92420873  0.06900710  0.07484953  1
  Cu+  Cu114  1  0.58511891  0.26400963  0.93212789  1
  Cu+  Cu115  1  0.40378433  0.39980772  0.26073986  1
  Cu+  Cu116  1  0.40448364  0.59638216  0.40515014  1
  Cu+  Cu117  1  0.59725575  0.40719553  0.40356445  1
  Cu+  Cu118  1  0.74256678  0.74261472  0.92693947  1
  Cu+  Cu119  1  0.59641870  0.26378950  0.59711979  1
  Cu+  Cu120  1  0.07673156  0.92757956  0.74514451  1
  Cu+  Cu121  1  0.40897049  0.74339349  0.93201150  1
  Cu+  Cu122  1  0.07175933  0.07833441  0.25949864  1
  Cu+  Cu123  1  0.26365165  0.73643948  0.73362768  1
  Cu+  Cu124  1  0.74009683  0.40903833  0.92855291  1
  Cu+  Cu125  1  0.26165814  0.40686787  0.07086263  1
  Cu+  Cu126  1  0.91886237  0.92872252  0.58965828  1
  Cu+  Cu127  1  0.07290891  0.08306771  0.59355874  1
  Cu+  Cu128  1  0.07193010  0.73743177  0.26568446  1
  Cu+  Cu129  1  0.73495428  0.07064927  0.60159654  1
  Cu+  Cu130  1  0.59426019  0.07007988  0.07200689  1
  Cu+  Cu131  1  0.26790645  0.07619128  0.73497052  1
  Cu+  Cu132  1  0.25893894  0.07076565  0.07292157  1
  Te2-  Te133  1  0.25168998  0.25332174  0.07355298  1
  Te2-  Te134  1  0.25242639  0.25058539  0.41043161  1
  Te2-  Te135  1  0.25131611  0.25424520  0.74760176  1
  Te2-  Te136  1  0.25236417  0.58834957  0.08737958  1
  Te2-  Te137  1  0.24974106  0.59345856  0.41254095  1
  Te2-  Te138  1  0.25837552  0.58355943  0.74072549  1
  Te2-  Te139  1  0.25286391  0.92097187  0.08191662  1
  Te2-  Te140  1  0.24687495  0.92110662  0.41627252  1
  Te2-  Te141  1  0.26113053  0.92066669  0.74721278  1
  Te2-  Te142  1  0.58499045  0.25674512  0.08356667  1
  Te2-  Te143  1  0.59113067  0.25019008  0.41017348  1
  Te2-  Te144  1  0.58792230  0.25553598  0.74950899  1
  Te2-  Te145  1  0.58416053  0.58641881  0.08551868  1
  Te2-  Te146  1  0.58353499  0.58034352  0.41207712  1
  Te2-  Te147  1  0.58369390  0.58469761  0.75220500  1
  Te2-  Te148  1  0.58766192  0.91683117  0.07680360  1
  Te2-  Te149  1  0.58455129  0.92186175  0.40926163  1
  Te2-  Te150  1  0.58767635  0.91283374  0.74562713  1
  Te2-  Te151  1  0.91784366  0.25269296  0.08269401  1
  Te2-  Te152  1  0.91672565  0.24940366  0.41814987  1
  Te2-  Te153  1  0.91415350  0.24977452  0.75193056  1
  Te2-  Te154  1  0.91856953  0.58500804  0.08038834  1
  Te2-  Te155  1  0.91621493  0.58421132  0.41467160  1
  Te2-  Te156  1  0.92049220  0.58548266  0.75062501  1
  Te2-  Te157  1  0.92246588  0.91441537  0.07991827  1
  Te2-  Te158  1  0.91399454  0.92206732  0.41706121  1
  Te2-  Te159  1  0.92236212  0.92327414  0.74510441  1
  Te2-  Te160  1  0.25147710  0.08487260  0.24996878  1
  Te2-  Te161  1  0.25902834  0.08098953  0.58197765  1
  Te2-  Te162  1  0.25828495  0.08043908  0.91754575  1
  Te2-  Te163  1  0.25038031  0.40835577  0.25590483  1
  Te2-  Te164  1  0.25273749  0.41628215  0.58250201  1
  Te2-  Te165  1  0.25739977  0.41089328  0.91745209  1
  Te2-  Te166  1  0.25172418  0.75291311  0.25462691  1
  Te2-  Te167  1  0.25163390  0.75086827  0.58332090  1
  Te2-  Te168  1  0.25626476  0.74785255  0.92760663  1
  Te2-  Te169  1  0.58390520  0.08151693  0.25054155  1
  Te2-  Te170  1  0.58395758  0.07693752  0.58756438  1
  Te2-  Te171  1  0.58614503  0.07400200  0.91699608  1
  Te2-  Te172  1  0.58697422  0.41256109  0.25128609  1
  Te2-  Te173  1  0.58543529  0.41603569  0.59104634  1
  Te2-  Te174  1  0.58657574  0.41584190  0.92543379  1
  Te2-  Te175  1  0.58638930  0.74865812  0.25110858  1
  Te2-  Te176  1  0.58536235  0.74532122  0.57728428  1
  Te2-  Te177  1  0.58808263  0.74479755  0.91979918  1
  Te2-  Te178  1  0.91753770  0.07961977  0.25687575  1
  Te2-  Te179  1  0.91861904  0.07996348  0.59085240  1
  Te2-  Te180  1  0.91894739  0.07549009  0.92039883  1
  Te2-  Te181  1  0.91798581  0.41383431  0.25201080  1
  Te2-  Te182  1  0.91867050  0.41511904  0.58647374  1
  Te2-  Te183  1  0.92231401  0.41403675  0.92058145  1
  Te2-  Te184  1  0.91726950  0.74683170  0.25601547  1
  Te2-  Te185  1  0.91571264  0.74333173  0.58404585  1
  Te2-  Te186  1  0.92761243  0.75023663  0.91601633  1
  Te2-  Te187  1  0.07913379  0.25483155  0.24555102  1
  Te2-  Te188  1  0.08380583  0.25219980  0.58599881  1
  Te2-  Te189  1  0.08050014  0.25309711  0.91894761  1
  Te2-  Te190  1  0.08052957  0.58305280  0.25567551  1
  Te2-  Te191  1  0.07941905  0.58711422  0.58519258  1
  Te2-  Te192  1  0.08747253  0.58822496  0.91762204  1
  Te2-  Te193  1  0.07846528  0.92446186  0.25332157  1
  Te2-  Te194  1  0.07699253  0.92325582  0.59089190  1
  Te2-  Te195  1  0.08472701  0.91885545  0.91908268  1
  Te2-  Te196  1  0.40898982  0.24722533  0.25155524  1
  Te2-  Te197  1  0.41731581  0.25484476  0.58267192  1
  Te2-  Te198  1  0.41510309  0.24868748  0.91791207  1
  Te2-  Te199  1  0.41069917  0.58686522  0.25204021  1
  Te2-  Te200  1  0.41417731  0.58231143  0.58388524  1
  Te2-  Te201  1  0.41295471  0.58885149  0.92674538  1
  Te2-  Te202  1  0.41699741  0.92191876  0.25027932  1
  Te2-  Te203  1  0.41635061  0.91842838  0.58235627  1
  Te2-  Te204  1  0.41499808  0.91521467  0.91452909  1
  Te2-  Te205  1  0.74596585  0.24970781  0.25063041  1
  Te2-  Te206  1  0.74925965  0.25576564  0.59028668  1
  Te2-  Te207  1  0.74719873  0.25245680  0.92663382  1
  Te2-  Te208  1  0.74821574  0.58546999  0.25230135  1
  Te2-  Te209  1  0.74433671  0.58172928  0.58485349  1
  Te2-  Te210  1  0.74909273  0.58865934  0.92141956  1
  Te2-  Te211  1  0.74748782  0.92045639  0.24950459  1
  Te2-  Te212  1  0.74007381  0.91570514  0.59180124  1
  Te2-  Te213  1  0.74987216  0.91644126  0.91751758  1
  Te2-  Te214  1  0.07677203  0.07766204  0.07444295  1
  Te2-  Te215  1  0.08003180  0.08207102  0.41299845  1
  Te2-  Te216  1  0.07610958  0.08129504  0.74569369  1
  Te2-  Te217  1  0.07738711  0.41664538  0.08113483  1
  Te2-  Te218  1  0.07846893  0.41581305  0.41558381  1
  Te2-  Te219  1  0.08431298  0.41736842  0.74466754  1
  Te2-  Te220  1  0.08219430  0.74938653  0.08171761  1
  Te2-  Te221  1  0.07552037  0.75086965  0.41861355  1
  Te2-  Te222  1  0.08822018  0.74472218  0.74973827  1
  Te2-  Te223  1  0.41349681  0.07934958  0.07607168  1
  Te2-  Te224  1  0.41688388  0.08291484  0.41325802  1
  Te2-  Te225  1  0.41967706  0.08042230  0.74294020  1
  Te2-  Te226  1  0.41439538  0.41273057  0.07853010  1
  Te2-  Te227  1  0.41030075  0.40376573  0.41390630  1
  Te2-  Te228  1  0.41345854  0.41589748  0.75442566  1
  Te2-  Te229  1  0.41191361  0.74777957  0.08428763  1
  Te2-  Te230  1  0.41171542  0.75016158  0.40949826  1
  Te2-  Te231  1  0.41820604  0.74276835  0.73924040  1
  Te2-  Te232  1  0.74775444  0.07661882  0.07967868  1
  Te2-  Te233  1  0.74336161  0.08345534  0.41355968  1
  Te2-  Te234  1  0.74198477  0.07955216  0.75442102  1
  Te2-  Te235  1  0.74589112  0.41262481  0.08209127  1
  Te2-  Te236  1  0.74914765  0.41002831  0.41162342  1
  Te2-  Te237  1  0.74918589  0.41673133  0.74966513  1
  Te2-  Te238  1  0.74914947  0.74652188  0.08183982  1
  Te2-  Te239  1  0.74637426  0.74513267  0.41347581  1
  Te2-  Te240  1  0.75379409  0.74736730  0.74452738  1
