# generated using pymatgen
data_Ti27(Cu53Te54)2
_symmetry_space_group_name_H-M   'P 1'
_cell_length_a   17.87920830
_cell_length_b   17.87728054
_cell_length_c   17.87944962
_cell_angle_alpha   89.99504718
_cell_angle_beta   90.00456651
_cell_angle_gamma   90.00277855
_symmetry_Int_Tables_number   1
_chemical_formula_structural   Ti27(Cu53Te54)2
_chemical_formula_sum   'Ti27 Cu106 Te108'
_cell_volume   5714.83745125
_cell_formula_units_Z   1
loop_
 _symmetry_equiv_pos_site_id
 _symmetry_equiv_pos_as_xyz
  1  'x, y, z'
loop_
 _atom_type_symbol
 _atom_type_oxidation_number
  Ti4+  4.0
  Cu+  1.0
  Te2-  -2.0
loop_
 _atom_site_type_symbol
 _atom_site_label
 _atom_site_symmetry_multiplicity
 _atom_site_fract_x
 _atom_site_fract_y
 _atom_site_fract_z
 _atom_site_occupancy
  Ti4+  Ti0  1  0.16525383  0.16644593  0.16571535  1
  Ti4+  Ti1  1  0.16930963  0.16598268  0.49693844  1
  Ti4+  Ti2  1  0.16613074  0.16792264  0.83190247  1
  Ti4+  Ti3  1  0.16489223  0.50252850  0.16895370  1
  Ti4+  Ti4  1  0.16808992  0.49440931  0.49870833  1
  Ti4+  Ti5  1  0.16339042  0.50067175  0.83334004  1
  Ti4+  Ti6  1  0.16831370  0.83402388  0.16652292  1
  Ti4+  Ti7  1  0.16597777  0.83279232  0.50127650  1
  Ti4+  Ti8  1  0.16801919  0.83386405  0.83439303  1
  Ti4+  Ti9  1  0.50246982  0.16591000  0.16663540  1
  Ti4+  Ti10  1  0.50226692  0.16668644  0.50060429  1
  Ti4+  Ti11  1  0.50097541  0.16758644  0.83442551  1
  Ti4+  Ti12  1  0.49292255  0.49731756  0.16778747  1
  Ti4+  Ti13  1  0.50061520  0.49848501  0.49938374  1
  Ti4+  Ti14  1  0.49976762  0.50005663  0.83583582  1
  Ti4+  Ti15  1  0.49985142  0.82917533  0.16474347  1
  Ti4+  Ti16  1  0.49771082  0.83314016  0.50013740  1
  Ti4+  Ti17  1  0.50043347  0.83547681  0.83324877  1
  Ti4+  Ti18  1  0.83553844  0.16942000  0.16819614  1
  Ti4+  Ti19  1  0.83611457  0.16683763  0.50058224  1
  Ti4+  Ti20  1  0.83636024  0.16238034  0.83322307  1
  Ti4+  Ti21  1  0.83084632  0.50355340  0.16878141  1
  Ti4+  Ti22  1  0.83518604  0.50038678  0.50293103  1
  Ti4+  Ti23  1  0.83222635  0.49992079  0.83538544  1
  Ti4+  Ti24  1  0.83427785  0.83415355  0.16372421  1
  Ti4+  Ti25  1  0.83122924  0.83439675  0.49901986  1
  Ti4+  Ti26  1  0.83333898  0.83364517  0.82707656  1
  Cu+  Cu27  1  0.16077431  0.16730467  -0.00528348  1
  Cu+  Cu28  1  0.16204900  0.16568478  0.32902096  1
  Cu+  Cu29  1  0.17044653  0.16840447  0.66282401  1
  Cu+  Cu30  1  0.16077392  0.50171193  0.00137990  1
  Cu+  Cu31  1  0.16804338  0.50063338  0.33750794  1
  Cu+  Cu32  1  0.16817078  0.49452342  0.66882478  1
  Cu+  Cu33  1  0.17456589  0.83731694  0.00067961  1
  Cu+  Cu34  1  0.16613620  0.83316250  0.33691053  1
  Cu+  Cu35  1  0.16462191  0.83344543  0.66736276  1
  Cu+  Cu36  1  0.49938016  0.16758812  0.00018367  1
  Cu+  Cu37  1  0.50447675  0.16548715  0.33410284  1
  Cu+  Cu38  1  0.50213913  0.16821844  0.67030759  1
  Cu+  Cu39  1  0.49673725  0.49633440  0.00470253  1
  Cu+  Cu40  1  0.50193325  0.50017562  0.33029945  1
  Cu+  Cu41  1  0.49955165  0.50077104  0.66568134  1
  Cu+  Cu42  1  0.49915449  0.82852235  -0.00457104  1
  Cu+  Cu43  1  0.49825308  0.83021826  0.33515688  1
  Cu+  Cu44  1  0.49908553  0.83485389  0.66651389  1
  Cu+  Cu45  1  0.84117818  0.16835061  0.00374169  1
  Cu+  Cu46  1  0.83358519  0.16877124  0.33351271  1
  Cu+  Cu47  1  0.83357402  0.15806604  0.66474571  1
  Cu+  Cu48  1  0.83128549  0.50261390  0.00075091  1
  Cu+  Cu49  1  0.83118172  0.50332024  0.33980666  1
  Cu+  Cu50  1  0.83330208  0.49859495  0.66935156  1
  Cu+  Cu51  1  0.83277221  0.83569969  -0.00483668  1
  Cu+  Cu52  1  0.83366100  0.83543378  0.33109777  1
  Cu+  Cu53  1  0.83027638  0.83299186  0.66346792  1
  Cu+  Cu54  1  0.16545437  0.00108576  0.16982397  1
  Cu+  Cu55  1  0.16767792  -0.00207369  0.50005589  1
  Cu+  Cu56  1  0.16925692  -0.00065626  0.83616216  1
  Cu+  Cu57  1  0.16870857  0.33653705  0.16534961  1
  Cu+  Cu58  1  0.17389042  0.32692205  0.49530116  1
  Cu+  Cu59  1  0.16679307  0.33771135  0.82696328  1
  Cu+  Cu60  1  0.16515784  0.66454005  0.16822928  1
  Cu+  Cu61  1  0.16355786  0.66735471  0.50225601  1
  Cu+  Cu62  1  0.16512495  0.66599224  0.83437722  1
  Cu+  Cu63  1  0.50495131  -0.00193611  0.16513115  1
  Cu+  Cu64  1  0.49906365  -0.00115269  0.50078510  1
  Cu+  Cu65  1  0.50076467  0.00310215  0.83272218  1
  Cu+  Cu66  1  0.49666292  0.32876311  0.15920373  1
  Cu+  Cu67  1  0.50382768  0.33275434  0.50016874  1
  Cu+  Cu68  1  0.50164324  0.33308680  0.83588430  1
  Cu+  Cu69  1  0.48889240  0.66552816  0.17258456  1
  Cu+  Cu70  1  0.49862571  0.66586085  0.50021103  1
  Cu+  Cu71  1  0.49974798  0.66891811  0.83453145  1
  Cu+  Cu72  1  0.83600691  0.00177675  0.16367562  1
  Cu+  Cu73  1  0.83111210  0.00102105  0.50317400  1
  Cu+  Cu74  1  0.84134668  -0.00356763  0.82631027  1
  Cu+  Cu75  1  0.83263249  0.33560347  0.16895317  1
  Cu+  Cu76  1  0.84056326  0.33540772  0.50187636  1
  Cu+  Cu77  1  0.83558837  0.33151614  0.83535428  1
  Cu+  Cu78  1  0.83001253  0.67323681  0.16966668  1
  Cu+  Cu79  1  0.83068718  0.66639728  0.50016391  1
  Cu+  Cu80  1  0.83000614  0.66682048  0.83120569  1
  Cu+  Cu81  1  -0.00011763  0.16260300  0.16773342  1
  Cu+  Cu82  1  0.00544226  0.16979268  0.49525627  1
  Cu+  Cu83  1  0.00069078  0.16378150  0.83370700  1
  Cu+  Cu84  1  -0.00035737  0.50696147  0.16814123  1
  Cu+  Cu85  1  -0.00068311  0.49654996  0.49704534  1
  Cu+  Cu86  1  -0.00282457  0.49988614  0.83552775  1
  Cu+  Cu87  1  0.00208795  0.83342865  0.16426496  1
  Cu+  Cu88  1  -0.00250962  0.83497636  0.50066886  1
  Cu+  Cu89  1  -0.00138763  0.83584189  0.83124868  1
  Cu+  Cu90  1  0.33571921  0.16979875  0.16462449  1
  Cu+  Cu91  1  0.33640236  0.16760982  0.50129224  1
  Cu+  Cu92  1  0.33579835  0.16746305  0.83285311  1
  Cu+  Cu93  1  0.32733230  0.50368032  0.16505662  1
  Cu+  Cu94  1  0.33611640  0.49333231  0.49592497  1
  Cu+  Cu95  1  0.33041418  0.50002123  0.83317406  1
  Cu+  Cu96  1  0.33457106  0.83060981  0.16760803  1
  Cu+  Cu97  1  0.33060192  0.83253859  0.50180548  1
  Cu+  Cu98  1  0.33323601  0.83692327  0.83784020  1
  Cu+  Cu99  1  0.66972755  0.16806584  0.16992948  1
  Cu+  Cu100  1  0.66967059  0.16614669  0.50483926  1
  Cu+  Cu101  1  0.66695016  0.16559164  0.83441710  1
  Cu+  Cu102  1  0.66038126  0.49812732  0.16838182  1
  Cu+  Cu103  1  0.66819035  0.50082667  0.50110567  1
  Cu+  Cu104  1  0.66738178  0.50035144  0.83479439  1
  Cu+  Cu105  1  0.66942218  0.83067134  0.16374473  1
  Cu+  Cu106  1  0.66031446  0.83339097  0.49898586  1
  Cu+  Cu107  1  0.66716905  0.83531553  0.82835727  1
  Cu+  Cu108  1  0.25194460  0.59479626  0.26717523  1
  Cu+  Cu109  1  0.92712368  0.07275649  0.07837463  1
  Cu+  Cu110  1  0.92571894  0.26404646  0.92797223  1
  Cu+  Cu111  1  0.07309157  0.59706106  0.41524402  1
  Cu+  Cu112  1  0.40340400  0.74681388  0.26660264  1
  Cu+  Cu113  1  0.07085528  0.06902799  0.26197146  1
  Cu+  Cu114  1  0.26572088  0.25455308  0.59282040  1
  Cu+  Cu115  1  0.92140422  0.40824726  0.40356419  1
  Cu+  Cu116  1  0.26437296  0.41154956  0.74086725  1
  Cu+  Cu117  1  0.92489176  0.91739643  0.92494021  1
  Cu+  Cu118  1  0.06856561  0.59496087  0.07186522  1
  Cu+  Cu119  1  0.24945002  0.40965108  0.06975055  1
  Cu+  Cu120  1  0.26728566  0.40077598  0.40444421  1
  Cu+  Cu121  1  0.07696525  0.07107718  0.92154379  1
  Cu+  Cu122  1  0.73671117  0.59432511  0.41732544  1
  Cu+  Cu123  1  0.40693806  0.59285259  0.07292628  1
  Cu+  Cu124  1  0.59430298  0.40361372  0.07666578  1
  Cu+  Cu125  1  0.93306486  0.07290416  0.73322474  1
  Cu+  Cu126  1  0.58825481  0.59213083  0.25271210  1
  Cu+  Cu127  1  0.40425797  0.25204764  0.06849526  1
  Cu+  Cu128  1  0.07575108  0.25671286  0.40169944  1
  Cu+  Cu129  1  0.40425658  0.73885237  0.91796522  1
  Cu+  Cu130  1  0.26612667  0.93221012  0.92875835  1
  Cu+  Cu131  1  0.74165928  0.75021507  0.26131451  1
  Cu+  Cu132  1  0.73596528  0.07042983  0.59353296  1
  Te2-  Te133  1  0.24955660  0.25222560  0.07551381  1
  Te2-  Te134  1  0.25850525  0.24724250  0.40523027  1
  Te2-  Te135  1  0.25636881  0.25383856  0.74717658  1
  Te2-  Te136  1  0.25025228  0.58972234  0.07645131  1
  Te2-  Te137  1  0.25505375  0.58808809  0.41997190  1
  Te2-  Te138  1  0.24971621  0.58634215  0.74742671  1
  Te2-  Te139  1  0.25634649  0.92310758  0.08548743  1
  Te2-  Te140  1  0.25242525  0.91796585  0.41505176  1
  Te2-  Te141  1  0.25237591  0.91876843  0.74767258  1
  Te2-  Te142  1  0.59159928  0.25033147  0.07860556  1
  Te2-  Te143  1  0.58997735  0.25049115  0.41653781  1
  Te2-  Te144  1  0.58802915  0.25352480  0.75029812  1
  Te2-  Te145  1  0.57935577  0.58791072  0.08482652  1
  Te2-  Te146  1  0.58533762  0.58815047  0.41248637  1
  Te2-  Te147  1  0.58344789  0.58493023  0.74995998  1
  Te2-  Te148  1  0.58512354  0.91328602  0.07891242  1
  Te2-  Te149  1  0.58236270  0.91880853  0.41274810  1
  Te2-  Te150  1  0.58405621  0.92110445  0.74663381  1
  Te2-  Te151  1  0.92402543  0.25849088  0.08467944  1
  Te2-  Te152  1  0.92159620  0.25416461  0.40978895  1
  Te2-  Te153  1  0.91866786  0.24811212  0.74538055  1
  Te2-  Te154  1  0.91455355  0.59062269  0.08259618  1
  Te2-  Te155  1  0.92075427  0.59046173  0.41487303  1
  Te2-  Te156  1  0.91749168  0.58534252  0.74949286  1
  Te2-  Te157  1  0.92403589  0.91954935  0.07809758  1
  Te2-  Te158  1  0.91606067  0.92053750  0.41494422  1
  Te2-  Te159  1  0.92344624  0.91701103  0.73664129  1
  Te2-  Te160  1  0.25461032  0.08446775  0.25001530  1
  Te2-  Te161  1  0.25382283  0.07944621  0.58351003  1
  Te2-  Te162  1  0.25526691  0.08485814  0.92024091  1
  Te2-  Te163  1  0.25386043  0.41309970  0.25400813  1
  Te2-  Te164  1  0.25716460  0.40986413  0.58673502  1
  Te2-  Te165  1  0.24965688  0.41401759  0.91988285  1
  Te2-  Te166  1  0.25127340  0.74709154  0.25657331  1
  Te2-  Te167  1  0.24997659  0.74656046  0.58755797  1
  Te2-  Te168  1  0.25156192  0.74396085  0.92042687  1
  Te2-  Te169  1  0.58812800  0.07994874  0.25128281  1
  Te2-  Te170  1  0.58441978  0.07947377  0.58873052  1
  Te2-  Te171  1  0.58567043  0.08173739  0.92053039  1
  Te2-  Te172  1  0.58032691  0.40788908  0.25003995  1
  Te2-  Te173  1  0.58699013  0.41593527  0.58585124  1
  Te2-  Te174  1  0.58635720  0.41465031  0.92162974  1
  Te2-  Te175  1  0.58733677  0.74521708  0.25415360  1
  Te2-  Te176  1  0.58264004  0.74699210  0.58613621  1
  Te2-  Te177  1  0.58994520  0.74914842  0.91566431  1
  Te2-  Te178  1  0.91818131  0.07885116  0.25707783  1
  Te2-  Te179  1  0.92761437  0.07986746  0.58074952  1
  Te2-  Te180  1  0.92374519  0.07342359  0.92352606  1
  Te2-  Te181  1  0.91877503  0.41885577  0.25200566  1
  Te2-  Te182  1  0.92190152  0.41597620  0.59006898  1
  Te2-  Te183  1  0.91934235  0.41567382  0.92388066  1
  Te2-  Te184  1  0.92154634  0.75052865  0.25150497  1
  Te2-  Te185  1  0.91615627  0.74802313  0.58366380  1
  Te2-  Te186  1  0.91759832  0.74772150  0.91488339  1
  Te2-  Te187  1  0.07893894  0.25701835  0.24736219  1
  Te2-  Te188  1  0.08353173  0.25341440  0.58396220  1
  Te2-  Te189  1  0.08045292  0.25849342  0.91511982  1
  Te2-  Te190  1  0.07841873  0.58854504  0.25889516  1
  Te2-  Te191  1  0.08295442  0.57860292  0.58577118  1
  Te2-  Te192  1  0.07669314  0.58804825  0.91890954  1
  Te2-  Te193  1  0.08046170  0.91645881  0.25375704  1
  Te2-  Te194  1  0.08060518  0.91939390  0.58545315  1
  Te2-  Te195  1  0.07960244  0.91869078  0.92311361  1
  Te2-  Te196  1  0.41764134  0.25115258  0.25384040  1
  Te2-  Te197  1  0.41831095  0.25435556  0.58784582  1
  Te2-  Te198  1  0.41227344  0.25513195  0.91863575  1
  Te2-  Te199  1  0.40549143  0.58482870  0.26080407  1
  Te2-  Te200  1  0.41272250  0.58242185  0.58312671  1
  Te2-  Te201  1  0.41004564  0.58529847  0.92033140  1
  Te2-  Te202  1  0.41768300  0.91771056  0.24995383  1
  Te2-  Te203  1  0.41253071  0.91848485  0.58573274  1
  Te2-  Te204  1  0.41717496  0.92486712  0.92239189  1
  Te2-  Te205  1  0.74911900  0.25440021  0.25410342  1
  Te2-  Te206  1  0.75400277  0.25389083  0.58702698  1
  Te2-  Te207  1  0.75142848  0.24748022  0.91991433  1
  Te2-  Te208  1  0.74307855  0.58879745  0.25635886  1
  Te2-  Te209  1  0.74803823  0.58527884  0.58884026  1
  Te2-  Te210  1  0.74675160  0.58736152  0.91947515  1
  Te2-  Te211  1  0.74824759  0.92126874  0.24807025  1
  Te2-  Te212  1  0.74266788  0.91757683  0.58533773  1
  Te2-  Te213  1  0.74857176  0.92143539  0.91246860  1
  Te2-  Te214  1  0.08088075  0.07702552  0.07760831  1
  Te2-  Te215  1  0.08131909  0.07610995  0.41383602  1
  Te2-  Te216  1  0.08594703  0.07947604  0.74310638  1
  Te2-  Te217  1  0.07683241  0.41573161  0.08436308  1
  Te2-  Te218  1  0.08019308  0.40855523  0.41010064  1
  Te2-  Te219  1  0.07548972  0.41610650  0.74766315  1
  Te2-  Te220  1  0.08375272  0.74922421  0.07874690  1
  Te2-  Te221  1  0.07723370  0.74889063  0.41444735  1
  Te2-  Te222  1  0.08106830  0.74880445  0.75022174  1
  Te2-  Te223  1  0.41636243  0.07916518  0.08222559  1
  Te2-  Te224  1  0.41644339  0.08226953  0.41498516  1
  Te2-  Te225  1  0.41487393  0.08252534  0.74781381  1
  Te2-  Te226  1  0.40414175  0.40977207  0.07897065  1
  Te2-  Te227  1  0.41960614  0.40958977  0.41006264  1
  Te2-  Te228  1  0.41661028  0.41375107  0.74843141  1
  Te2-  Te229  1  0.40930732  0.74557927  0.07596177  1
  Te2-  Te230  1  0.40984100  0.74459458  0.41684192  1
  Te2-  Te231  1  0.41262785  0.75038341  0.74891793  1
  Te2-  Te232  1  0.74945106  0.08482994  0.08140410  1
  Te2-  Te233  1  0.74934509  0.08317742  0.41456266  1
  Te2-  Te234  1  0.74552160  0.07691311  0.74955034  1
  Te2-  Te235  1  0.74764191  0.41642468  0.08253509  1
  Te2-  Te236  1  0.74856945  0.41190055  0.41791386  1
  Te2-  Te237  1  0.74845212  0.41230888  0.75063421  1
  Te2-  Te238  1  0.74968160  0.74895833  0.07490495  1
  Te2-  Te239  1  0.74268766  0.74816349  0.41297056  1
  Te2-  Te240  1  0.74605662  0.74743738  0.74458234  1
