# generated using pymatgen
data_Ti27(Cu53Te54)2
_symmetry_space_group_name_H-M   'P 1'
_cell_length_a   17.88490201
_cell_length_b   17.88710558
_cell_length_c   17.88968392
_cell_angle_alpha   90.03487705
_cell_angle_beta   89.98368438
_cell_angle_gamma   90.02381349
_symmetry_Int_Tables_number   1
_chemical_formula_structural   Ti27(Cu53Te54)2
_chemical_formula_sum   'Ti27 Cu106 Te108'
_cell_volume   5723.07144369
_cell_formula_units_Z   1
loop_
 _symmetry_equiv_pos_site_id
 _symmetry_equiv_pos_as_xyz
  1  'x, y, z'
loop_
 _atom_type_symbol
 _atom_type_oxidation_number
  Ti4+  4.0
  Cu+  1.0
  Te2-  -2.0
loop_
 _atom_site_type_symbol
 _atom_site_label
 _atom_site_symmetry_multiplicity
 _atom_site_fract_x
 _atom_site_fract_y
 _atom_site_fract_z
 _atom_site_occupancy
  Ti4+  Ti0  1  0.16723979  0.16582551  0.16610629  1
  Ti4+  Ti1  1  0.16878017  0.16786508  0.50266153  1
  Ti4+  Ti2  1  0.16676298  0.16404244  0.83580097  1
  Ti4+  Ti3  1  0.16894477  0.50432819  0.16610758  1
  Ti4+  Ti4  1  0.16681556  0.49227517  0.49877143  1
  Ti4+  Ti5  1  0.16424923  0.50009489  0.83335724  1
  Ti4+  Ti6  1  0.16647924  0.83491792  0.16775961  1
  Ti4+  Ti7  1  0.16802567  0.83386844  0.49972579  1
  Ti4+  Ti8  1  0.16499056  0.83238261  0.83077466  1
  Ti4+  Ti9  1  0.50024097  0.16920903  0.16652906  1
  Ti4+  Ti10  1  0.50178454  0.16700201  0.50155730  1
  Ti4+  Ti11  1  0.49943694  0.17075261  0.83381652  1
  Ti4+  Ti12  1  0.49719836  0.50246005  0.16586534  1
  Ti4+  Ti13  1  0.50189529  0.49766427  0.49808934  1
  Ti4+  Ti14  1  0.49938017  0.50459013  0.83244140  1
  Ti4+  Ti15  1  0.49978204  0.83593562  0.16655393  1
  Ti4+  Ti16  1  0.50109096  0.83272799  0.49798056  1
  Ti4+  Ti17  1  0.49883135  0.83557550  0.83345117  1
  Ti4+  Ti18  1  0.83035169  0.16736323  0.16581948  1
  Ti4+  Ti19  1  0.83404299  0.16173403  0.49886618  1
  Ti4+  Ti20  1  0.83284774  0.16652936  0.83190700  1
  Ti4+  Ti21  1  0.83539448  0.50043777  0.16737630  1
  Ti4+  Ti22  1  0.83450903  0.49724652  0.49902436  1
  Ti4+  Ti23  1  0.83308912  0.50029536  0.83281304  1
  Ti4+  Ti24  1  0.83355148  0.83229289  0.16716192  1
  Ti4+  Ti25  1  0.83292441  0.83195731  0.50492930  1
  Ti4+  Ti26  1  0.83368899  0.83187642  0.83332402  1
  Cu+  Cu27  1  0.16562333  0.16523691  0.00132679  1
  Cu+  Cu28  1  0.16827773  0.16621321  0.33369666  1
  Cu+  Cu29  1  0.16992766  0.16521083  0.66943096  1
  Cu+  Cu30  1  0.16622035  0.50213596  0.00035583  1
  Cu+  Cu31  1  0.16570222  0.49359570  0.32760349  1
  Cu+  Cu32  1  0.16352907  0.49625112  0.66807683  1
  Cu+  Cu33  1  0.16615466  0.83375009  -0.00088304  1
  Cu+  Cu34  1  0.16664636  0.83643999  0.33636435  1
  Cu+  Cu35  1  0.16638239  0.83139990  0.66271053  1
  Cu+  Cu36  1  0.49626774  0.17096650  -0.00105775  1
  Cu+  Cu37  1  0.50021390  0.16519953  0.33549427  1
  Cu+  Cu38  1  0.50455512  0.16845414  0.67192255  1
  Cu+  Cu39  1  0.49718974  0.50627556  -0.00114735  1
  Cu+  Cu40  1  0.49855904  0.50338975  0.33492055  1
  Cu+  Cu41  1  0.50165999  0.49870391  0.66391108  1
  Cu+  Cu42  1  0.50146948  0.83799859  0.00001817  1
  Cu+  Cu43  1  0.49926626  0.82942815  0.32810705  1
  Cu+  Cu44  1  0.50291238  0.83359908  0.66675830  1
  Cu+  Cu45  1  0.82956466  0.16957310  -0.00068099  1
  Cu+  Cu46  1  0.82735301  0.16613613  0.33082518  1
  Cu+  Cu47  1  0.83793255  0.15912759  0.66603551  1
  Cu+  Cu48  1  0.83639229  0.50204856  -0.00274024  1
  Cu+  Cu49  1  0.83990492  0.49977861  0.33246280  1
  Cu+  Cu50  1  0.83101129  0.49800427  0.66557151  1
  Cu+  Cu51  1  0.82960296  0.83425934  0.00274615  1
  Cu+  Cu52  1  0.83417835  0.83178923  0.33725890  1
  Cu+  Cu53  1  0.83687050  0.82824026  0.67023486  1
  Cu+  Cu54  1  0.16659069  0.00019724  0.16639323  1
  Cu+  Cu55  1  0.16882474  0.00182219  0.50105794  1
  Cu+  Cu56  1  0.16902067  -0.00575614  0.83562874  1
  Cu+  Cu57  1  0.17020154  0.33711821  0.16636994  1
  Cu+  Cu58  1  0.16754079  0.32440204  0.50151296  1
  Cu+  Cu59  1  0.16346650  0.33394058  0.83578186  1
  Cu+  Cu60  1  0.16843602  0.67077631  0.16607683  1
  Cu+  Cu61  1  0.16626359  0.66525492  0.49900795  1
  Cu+  Cu62  1  0.16481374  0.66585362  0.83128999  1
  Cu+  Cu63  1  0.50005105  0.00416927  0.17185844  1
  Cu+  Cu64  1  0.50646495  0.00006763  0.49774132  1
  Cu+  Cu65  1  0.49759480  0.00491350  0.83502043  1
  Cu+  Cu66  1  0.49751874  0.33516899  0.16357714  1
  Cu+  Cu67  1  0.49539281  0.33462497  0.50165402  1
  Cu+  Cu68  1  0.50120226  0.33819419  0.83423946  1
  Cu+  Cu69  1  0.49530082  0.66947758  0.16561289  1
  Cu+  Cu70  1  0.50191994  0.66288088  0.49552850  1
  Cu+  Cu71  1  0.50055065  0.67215856  0.82973457  1
  Cu+  Cu72  1  0.82970373  -0.00103194  0.16471508  1
  Cu+  Cu73  1  0.82544009  -0.00534960  0.50546705  1
  Cu+  Cu74  1  0.83471965  0.00220488  0.83175770  1
  Cu+  Cu75  1  0.83022171  0.33115616  0.16299034  1
  Cu+  Cu76  1  0.83692178  0.33073355  0.49627736  1
  Cu+  Cu77  1  0.83245874  0.33578028  0.83005897  1
  Cu+  Cu78  1  0.83689013  0.66573303  0.17225977  1
  Cu+  Cu79  1  0.83364961  0.66575945  0.50258482  1
  Cu+  Cu80  1  0.83873576  0.66503869  0.83352489  1
  Cu+  Cu81  1  -0.00408882  0.16425382  0.16740676  1
  Cu+  Cu82  1  -0.00000708  0.17089621  0.50592773  1
  Cu+  Cu83  1  -0.00016031  0.16241216  0.83053291  1
  Cu+  Cu84  1  0.00212556  0.50527655  0.17265630  1
  Cu+  Cu85  1  -0.00143434  0.49077948  0.49421729  1
  Cu+  Cu86  1  -0.00189099  0.50230617  0.83653716  1
  Cu+  Cu87  1  0.00124162  0.83497290  0.16816880  1
  Cu+  Cu88  1  0.00210224  0.83349916  0.50273870  1
  Cu+  Cu89  1  0.00006691  0.82792598  0.83015287  1
  Cu+  Cu90  1  0.33429368  0.16820767  0.16792301  1
  Cu+  Cu91  1  0.33459920  0.17362711  0.50184952  1
  Cu+  Cu92  1  0.33688172  0.16353732  0.83807627  1
  Cu+  Cu93  1  0.33451087  0.50769456  0.15964128  1
  Cu+  Cu94  1  0.33485863  0.49292149  0.50035291  1
  Cu+  Cu95  1  0.32876210  0.50206834  0.83369589  1
  Cu+  Cu96  1  0.33369479  0.83408943  0.16937828  1
  Cu+  Cu97  1  0.33249752  0.83458982  0.50025938  1
  Cu+  Cu98  1  0.32976379  0.83726444  0.83392849  1
  Cu+  Cu99  1  0.66874776  0.17231265  0.16262459  1
  Cu+  Cu100  1  0.66832933  0.15942498  0.49794273  1
  Cu+  Cu101  1  0.66331102  0.16990326  0.83306175  1
  Cu+  Cu102  1  0.66420860  0.49926902  0.16783766  1
  Cu+  Cu103  1  0.66733219  0.49655045  0.49907950  1
  Cu+  Cu104  1  0.66748257  0.50414080  0.83220694  1
  Cu+  Cu105  1  0.66767408  0.83501913  0.16143616  1
  Cu+  Cu106  1  0.66910208  0.83614822  0.50133239  1
  Cu+  Cu107  1  0.66318096  0.83264967  0.83164830  1
  Cu+  Cu108  1  0.40282274  0.26178179  0.07160002  1
  Cu+  Cu109  1  0.73849635  0.07156738  0.59864025  1
  Cu+  Cu110  1  0.59236518  0.07215348  0.40231143  1
  Cu+  Cu111  1  0.93003152  0.73364268  0.73893424  1
  Cu+  Cu112  1  0.93036719  0.59874983  0.26560126  1
  Cu+  Cu113  1  0.74234054  0.91743514  0.40450628  1
  Cu+  Cu114  1  0.40137568  0.59298253  0.41667862  1
  Cu+  Cu115  1  0.26328782  0.25283382  0.60327594  1
  Cu+  Cu116  1  0.93274524  0.06972433  0.73972515  1
  Cu+  Cu117  1  0.41022122  0.07382960  0.92914924  1
  Cu+  Cu118  1  0.91985928  0.26059357  0.59633913  1
  Cu+  Cu119  1  0.40779874  0.25910413  0.40691386  1
  Cu+  Cu120  1  0.74126334  0.26650026  0.06576062  1
  Cu+  Cu121  1  0.40367971  0.74000172  0.25745271  1
  Cu+  Cu122  1  0.73881587  0.25951214  0.41165214  1
  Cu+  Cu123  1  0.40424443  0.07661079  0.26459626  1
  Cu+  Cu124  1  0.07411505  0.40440403  0.24765635  1
  Cu+  Cu125  1  0.73897333  0.92713075  0.06930231  1
  Cu+  Cu126  1  0.25712986  0.92139026  0.93026753  1
  Cu+  Cu127  1  0.40828001  0.60145966  0.06616035  1
  Cu+  Cu128  1  0.07227078  0.24576057  0.40347777  1
  Cu+  Cu129  1  0.92801260  0.59525449  0.92896521  1
  Cu+  Cu130  1  0.40742202  0.41081690  0.59886559  1
  Cu+  Cu131  1  0.59242202  0.74145993  0.73675953  1
  Cu+  Cu132  1  0.92365923  0.40230090  0.40164436  1
  Te2-  Te133  1  0.25125236  0.25363434  0.07973889  1
  Te2-  Te134  1  0.25509270  0.25382946  0.40981536  1
  Te2-  Te135  1  0.25423372  0.25231369  0.75476938  1
  Te2-  Te136  1  0.25138076  0.59232352  0.07673249  1
  Te2-  Te137  1  0.24945853  0.58016325  0.41372786  1
  Te2-  Te138  1  0.24894710  0.58466499  0.74557498  1
  Te2-  Te139  1  0.25409606  0.92046916  0.08262264  1
  Te2-  Te140  1  0.25349572  0.92154523  0.41523544  1
  Te2-  Te141  1  0.25065353  0.91755137  0.74313158  1
  Te2-  Te142  1  0.58563698  0.25620798  0.07812333  1
  Te2-  Te143  1  0.58677376  0.25471296  0.41596763  1
  Te2-  Te144  1  0.58621834  0.25771055  0.74926551  1
  Te2-  Te145  1  0.58467217  0.58782955  0.08303758  1
  Te2-  Te146  1  0.59029891  0.58308999  0.41284730  1
  Te2-  Te147  1  0.58603660  0.58726163  0.74404664  1
  Te2-  Te148  1  0.58444628  0.92495830  0.08077981  1
  Te2-  Te149  1  0.58742758  0.91720817  0.40791617  1
  Te2-  Te150  1  0.58359259  0.92357686  0.74962430  1
  Te2-  Te151  1  0.91896917  0.25105038  0.08029885  1
  Te2-  Te152  1  0.92117133  0.24820509  0.40673499  1
  Te2-  Te153  1  0.92010261  0.25376886  0.74739021  1
  Te2-  Te154  1  0.92168721  0.58722514  0.08239423  1
  Te2-  Te155  1  0.92210880  0.58786574  0.41669639  1
  Te2-  Te156  1  0.92090930  0.58265359  0.74233646  1
  Te2-  Te157  1  0.91919619  0.91863047  0.08212299  1
  Te2-  Te158  1  0.91817015  0.91854837  0.41989211  1
  Te2-  Te159  1  0.92075145  0.91871555  0.74771702  1
  Te2-  Te160  1  0.25209710  0.07990086  0.25369438  1
  Te2-  Te161  1  0.25640350  0.08186979  0.58591032  1
  Te2-  Te162  1  0.25324184  0.07801643  0.92389652  1
  Te2-  Te163  1  0.25935373  0.41785573  0.24724157  1
  Te2-  Te164  1  0.25185802  0.40902469  0.58951906  1
  Te2-  Te165  1  0.24984558  0.41562203  0.91984851  1
  Te2-  Te166  1  0.25135375  0.74893726  0.25597209  1
  Te2-  Te167  1  0.25298809  0.74572471  0.58357579  1
  Te2-  Te168  1  0.25069754  0.74672710  0.91682154  1
  Te2-  Te169  1  0.59134366  0.08434168  0.25061893  1
  Te2-  Te170  1  0.58552086  0.08000790  0.59046535  1
  Te2-  Te171  1  0.58503495  0.08474210  0.92043167  1
  Te2-  Te172  1  0.58098256  0.41577376  0.25153879  1
  Te2-  Te173  1  0.58780841  0.41156518  0.58463179  1
  Te2-  Te174  1  0.58437623  0.42171542  0.91878275  1
  Te2-  Te175  1  0.58770941  0.74820595  0.24700980  1
  Te2-  Te176  1  0.58681410  0.74573862  0.58213992  1
  Te2-  Te177  1  0.58381169  0.74999006  0.92103561  1
  Te2-  Te178  1  0.91405899  0.07993500  0.25147816  1
  Te2-  Te179  1  0.92313046  0.07338434  0.58254671  1
  Te2-  Te180  1  0.91644177  0.08306421  0.92066941  1
  Te2-  Te181  1  0.92095204  0.40665335  0.25016050  1
  Te2-  Te182  1  0.91995335  0.41193807  0.58836517  1
  Te2-  Te183  1  0.91829308  0.41212062  0.91794077  1
  Te2-  Te184  1  0.92210097  0.75043736  0.25631464  1
  Te2-  Te185  1  0.92252039  0.74445237  0.58619992  1
  Te2-  Te186  1  0.91955595  0.74979440  0.92371365  1
  Te2-  Te187  1  0.07889054  0.25193413  0.25060749  1
  Te2-  Te188  1  0.08066026  0.25300960  0.59402854  1
  Te2-  Te189  1  0.07972640  0.24810079  0.91824472  1
  Te2-  Te190  1  0.08490607  0.59211944  0.25633113  1
  Te2-  Te191  1  0.08110039  0.57763149  0.57979770  1
  Te2-  Te192  1  0.08063307  0.58885782  0.92104278  1
  Te2-  Te193  1  0.08205517  0.92043241  0.25329101  1
  Te2-  Te194  1  0.08288639  0.92064144  0.58526522  1
  Te2-  Te195  1  0.07729801  0.91620883  0.91742062  1
  Te2-  Te196  1  0.41458246  0.25561276  0.25427170  1
  Te2-  Te197  1  0.41643979  0.25369202  0.59430890  1
  Te2-  Te198  1  0.41169910  0.26003907  0.91846715  1
  Te2-  Te199  1  0.40944059  0.58831904  0.25625611  1
  Te2-  Te200  1  0.41454877  0.58479515  0.58342793  1
  Te2-  Te201  1  0.41127245  0.59181907  0.91440924  1
  Te2-  Te202  1  0.41317794  0.92238587  0.25514193  1
  Te2-  Te203  1  0.41888122  0.91855560  0.58281997  1
  Te2-  Te204  1  0.41183309  0.92194573  0.92247690  1
  Te2-  Te205  1  0.74399298  0.25634328  0.25409376  1
  Te2-  Te206  1  0.74967979  0.24903098  0.58445790  1
  Te2-  Te207  1  0.74602425  0.25585027  0.91518966  1
  Te2-  Te208  1  0.74833773  0.58232317  0.25340172  1
  Te2-  Te209  1  0.74803707  0.58221871  0.58325083  1
  Te2-  Te210  1  0.74844878  0.58788507  0.91866325  1
  Te2-  Te211  1  0.74637342  0.91774485  0.25316947  1
  Te2-  Te212  1  0.74507900  0.91498394  0.59693060  1
  Te2-  Te213  1  0.74631108  0.91970768  0.91583598  1
  Te2-  Te214  1  0.08035913  0.08136690  0.08322224  1
  Te2-  Te215  1  0.08085323  0.08302961  0.41735396  1
  Te2-  Te216  1  0.08540628  0.07612377  0.74724694  1
  Te2-  Te217  1  0.08085170  0.41813098  0.08271622  1
  Te2-  Te218  1  0.08044145  0.40401515  0.40879739  1
  Te2-  Te219  1  0.07731998  0.41372285  0.75054186  1
  Te2-  Te220  1  0.08132620  0.75021050  0.08182501  1
  Te2-  Te221  1  0.08129179  0.74851365  0.41512409  1
  Te2-  Te222  1  0.08163975  0.74402090  0.74252727  1
  Te2-  Te223  1  0.41379506  0.08010843  0.08175231  1
  Te2-  Te224  1  0.41175055  0.07940637  0.41879784  1
  Te2-  Te225  1  0.41483982  0.08330425  0.74595881  1
  Te2-  Te226  1  0.41211931  0.41631642  0.07720981  1
  Te2-  Te227  1  0.41323471  0.41125478  0.40844991  1
  Te2-  Te228  1  0.41226169  0.41669612  0.74988344  1
  Te2-  Te229  1  0.41212239  0.75308488  0.07688039  1
  Te2-  Te230  1  0.41158695  0.74689500  0.41326341  1
  Te2-  Te231  1  0.41115637  0.75279094  0.74735338  1
  Te2-  Te232  1  0.74443099  0.08065694  0.07796563  1
  Te2-  Te233  1  0.74686763  0.07299953  0.40840391  1
  Te2-  Te234  1  0.74246568  0.08044563  0.74940394  1
  Te2-  Te235  1  0.74746557  0.41887615  0.07898261  1
  Te2-  Te236  1  0.74742624  0.41319141  0.41052274  1
  Te2-  Te237  1  0.74560631  0.41578815  0.74717192  1
  Te2-  Te238  1  0.74955414  0.74290651  0.08348500  1
  Te2-  Te239  1  0.74814320  0.74581975  0.41757962  1
  Te2-  Te240  1  0.74706274  0.74429619  0.74888180  1
