# generated using pymatgen
data_Ti27(Cu53Te54)2
_symmetry_space_group_name_H-M   'P 1'
_cell_length_a   17.87031496
_cell_length_b   17.87171196
_cell_length_c   17.87153115
_cell_angle_alpha   89.96010705
_cell_angle_beta   89.99676874
_cell_angle_gamma   90.01173257
_symmetry_Int_Tables_number   1
_chemical_formula_structural   Ti27(Cu53Te54)2
_chemical_formula_sum   'Ti27 Cu106 Te108'
_cell_volume   5707.68517885
_cell_formula_units_Z   1
loop_
 _symmetry_equiv_pos_site_id
 _symmetry_equiv_pos_as_xyz
  1  'x, y, z'
loop_
 _atom_type_symbol
 _atom_type_oxidation_number
  Ti4+  4.0
  Cu+  1.0
  Te2-  -2.0
loop_
 _atom_site_type_symbol
 _atom_site_label
 _atom_site_symmetry_multiplicity
 _atom_site_fract_x
 _atom_site_fract_y
 _atom_site_fract_z
 _atom_site_occupancy
  Ti4+  Ti0  1  0.16545118  0.16724125  0.17034588  1
  Ti4+  Ti1  1  0.16713673  0.16918100  0.49859747  1
  Ti4+  Ti2  1  0.16782816  0.16677380  0.83367808  1
  Ti4+  Ti3  1  0.16956279  0.50168032  0.16750335  1
  Ti4+  Ti4  1  0.16413675  0.50216973  0.50033702  1
  Ti4+  Ti5  1  0.16786488  0.49914463  0.83312967  1
  Ti4+  Ti6  1  0.16726958  0.83153179  0.16458974  1
  Ti4+  Ti7  1  0.16531392  0.83389863  0.49877975  1
  Ti4+  Ti8  1  0.16747169  0.83336241  0.83436547  1
  Ti4+  Ti9  1  0.49645261  0.16305976  0.16686210  1
  Ti4+  Ti10  1  0.50414541  0.16435804  0.49965836  1
  Ti4+  Ti11  1  0.50002135  0.17079531  0.83116960  1
  Ti4+  Ti12  1  0.49969644  0.50015361  0.16873317  1
  Ti4+  Ti13  1  0.49969162  0.49919217  0.49742203  1
  Ti4+  Ti14  1  0.50034582  0.49916240  0.83324888  1
  Ti4+  Ti15  1  0.49997368  0.83387352  0.16694936  1
  Ti4+  Ti16  1  0.49936551  0.83422275  0.49873672  1
  Ti4+  Ti17  1  0.49974979  0.83367314  0.83102561  1
  Ti4+  Ti18  1  0.83331982  0.16283662  0.16761567  1
  Ti4+  Ti19  1  0.83171492  0.17011776  0.50110014  1
  Ti4+  Ti20  1  0.83365959  0.16723957  0.83534183  1
  Ti4+  Ti21  1  0.83312496  0.49887165  0.16237195  1
  Ti4+  Ti22  1  0.83284727  0.50091177  0.49761087  1
  Ti4+  Ti23  1  0.83215027  0.50085293  0.83394622  1
  Ti4+  Ti24  1  0.83071414  0.82909584  0.16954920  1
  Ti4+  Ti25  1  0.83596965  0.83207158  0.49920744  1
  Ti4+  Ti26  1  0.83216505  0.83394426  0.83526453  1
  Cu+  Cu27  1  0.16899229  0.16720485  0.00242998  1
  Cu+  Cu28  1  0.16105296  0.17308171  0.33676003  1
  Cu+  Cu29  1  0.16833499  0.16668394  0.66592026  1
  Cu+  Cu30  1  0.16802685  0.49961308  -0.00157094  1
  Cu+  Cu31  1  0.17101858  0.50345272  0.33393287  1
  Cu+  Cu32  1  0.16450267  0.49851800  0.66817565  1
  Cu+  Cu33  1  0.16953102  0.82952437  -0.00019598  1
  Cu+  Cu34  1  0.16514659  0.83601555  0.33203727  1
  Cu+  Cu35  1  0.16542628  0.83292357  0.66710404  1
  Cu+  Cu36  1  0.49651847  0.16771356  -0.00401938  1
  Cu+  Cu37  1  0.49246200  0.16132392  0.33217214  1
  Cu+  Cu38  1  0.51038383  0.16613346  0.66754001  1
  Cu+  Cu39  1  0.49777020  0.49819893  0.00118052  1
  Cu+  Cu40  1  0.50444088  0.49544428  0.33345149  1
  Cu+  Cu41  1  0.49440650  0.50187208  0.66828380  1
  Cu+  Cu42  1  0.49989180  0.83466951  -0.00221951  1
  Cu+  Cu43  1  0.50356529  0.83481621  0.33239238  1
  Cu+  Cu44  1  0.49955265  0.83598668  0.66299314  1
  Cu+  Cu45  1  0.83292037  0.16299120  0.00108992  1
  Cu+  Cu46  1  0.83340493  0.16335123  0.33573095  1
  Cu+  Cu47  1  0.83172307  0.17035604  0.66781012  1
  Cu+  Cu48  1  0.82856412  0.50147715  -0.00115632  1
  Cu+  Cu49  1  0.83362455  0.50095183  0.32618230  1
  Cu+  Cu50  1  0.83201993  0.50202461  0.66630270  1
  Cu+  Cu51  1  0.82881255  0.82986628  0.00286552  1
  Cu+  Cu52  1  0.84041025  0.83093309  0.33588557  1
  Cu+  Cu53  1  0.83248415  0.83570537  0.67079647  1
  Cu+  Cu54  1  0.16821917  0.00252481  0.16524438  1
  Cu+  Cu55  1  0.16803589  -0.00049878  0.50137939  1
  Cu+  Cu56  1  0.16504198  -0.00180825  0.83367617  1
  Cu+  Cu57  1  0.16638753  0.33350960  0.16989450  1
  Cu+  Cu58  1  0.16384013  0.33531995  0.49453742  1
  Cu+  Cu59  1  0.16902793  0.33273764  0.83449083  1
  Cu+  Cu60  1  0.17349565  0.66636297  0.16622652  1
  Cu+  Cu61  1  0.15975377  0.67108976  0.50356783  1
  Cu+  Cu62  1  0.16827141  0.66491934  0.83357758  1
  Cu+  Cu63  1  0.49670260  -0.00118619  0.17216540  1
  Cu+  Cu64  1  0.50395773  -0.00506729  0.50669969  1
  Cu+  Cu65  1  0.49812680  0.00383645  0.82745615  1
  Cu+  Cu66  1  0.49825362  0.33340885  0.16606738  1
  Cu+  Cu67  1  0.50483803  0.33236471  0.49546078  1
  Cu+  Cu68  1  0.50352564  0.33417457  0.83740991  1
  Cu+  Cu69  1  0.49903332  0.66686558  0.16879587  1
  Cu+  Cu70  1  0.49935648  0.66893281  0.49665203  1
  Cu+  Cu71  1  0.49761190  0.66541910  0.82954086  1
  Cu+  Cu72  1  0.82881815  -0.00459918  0.17115987  1
  Cu+  Cu73  1  0.83464170  0.00586720  0.49748852  1
  Cu+  Cu74  1  0.83271251  -0.00009128  0.83690646  1
  Cu+  Cu75  1  0.83273904  0.33050022  0.16565374  1
  Cu+  Cu76  1  0.83043933  0.33667786  0.49939690  1
  Cu+  Cu77  1  0.83244852  0.33469356  0.83323104  1
  Cu+  Cu78  1  0.83465105  0.66159780  0.16005423  1
  Cu+  Cu79  1  0.83814126  0.66541062  0.50026852  1
  Cu+  Cu80  1  0.83253591  0.66879944  0.83428210  1
  Cu+  Cu81  1  -0.00025044  0.16642046  0.16968427  1
  Cu+  Cu82  1  -0.00023300  0.17034823  0.49738560  1
  Cu+  Cu83  1  0.00133941  0.16678781  0.83460154  1
  Cu+  Cu84  1  0.00216259  0.50016214  0.16622248  1
  Cu+  Cu85  1  -0.00306287  0.50448408  0.50326149  1
  Cu+  Cu86  1  0.00081165  0.49866447  0.83422797  1
  Cu+  Cu87  1  -0.00070308  0.82798015  0.16709619  1
  Cu+  Cu88  1  0.00319022  0.82791685  0.50074518  1
  Cu+  Cu89  1  -0.00038901  0.83571545  0.83647627  1
  Cu+  Cu90  1  0.32991798  0.15879085  0.16980945  1
  Cu+  Cu91  1  0.33854046  0.16824410  0.49719912  1
  Cu+  Cu92  1  0.33532502  0.16649749  0.83419379  1
  Cu+  Cu93  1  0.33467567  0.50575999  0.17329134  1
  Cu+  Cu94  1  0.32891610  0.49784105  0.49856592  1
  Cu+  Cu95  1  0.33497084  0.50060589  0.83050141  1
  Cu+  Cu96  1  0.33215358  0.82941174  0.16156664  1
  Cu+  Cu97  1  0.33187453  0.83354135  0.49652592  1
  Cu+  Cu98  1  0.33272694  0.83476383  0.83071984  1
  Cu+  Cu99  1  0.66722642  0.16452583  0.16584936  1
  Cu+  Cu100  1  0.66605744  0.17326280  0.50497429  1
  Cu+  Cu101  1  0.66688737  0.17058219  0.83276452  1
  Cu+  Cu102  1  0.66703885  0.49921362  0.16225833  1
  Cu+  Cu103  1  0.66709660  0.49709928  0.49500038  1
  Cu+  Cu104  1  0.66543167  0.49913703  0.83314198  1
  Cu+  Cu105  1  0.66561887  0.84020799  0.16828173  1
  Cu+  Cu106  1  0.66662444  0.83201072  0.49734591  1
  Cu+  Cu107  1  0.66662854  0.83152031  0.83489271  1
  Cu+  Cu108  1  0.07468851  0.74373450  0.60118808  1
  Cu+  Cu109  1  0.26395315  0.73552415  0.06814484  1
  Cu+  Cu110  1  0.39884833  0.06671323  0.26560166  1
  Cu+  Cu111  1  0.92165398  0.59151560  0.59965968  1
  Cu+  Cu112  1  0.92928019  0.92469044  0.25365498  1
  Cu+  Cu113  1  0.59564511  0.25999003  0.93093478  1
  Cu+  Cu114  1  0.40416908  0.59517688  0.73944869  1
  Cu+  Cu115  1  0.41281965  0.25930809  0.40558904  1
  Cu+  Cu116  1  0.93139718  0.73718371  0.40977736  1
  Cu+  Cu117  1  0.60047006  0.91582917  0.59506849  1
  Cu+  Cu118  1  0.40955085  0.07256166  0.92000516  1
  Cu+  Cu119  1  0.59836916  0.40193644  0.40235872  1
  Cu+  Cu120  1  0.92640129  0.73930195  0.07096793  1
  Cu+  Cu121  1  0.92952620  0.58636189  0.25459533  1
  Cu+  Cu122  1  0.26551698  0.59833335  0.26649204  1
  Cu+  Cu123  1  0.73358840  0.59045661  0.06888296  1
  Cu+  Cu124  1  0.74096362  0.92664148  0.07219325  1
  Cu+  Cu125  1  0.59235232  0.73935450  0.40425130  1
  Cu+  Cu126  1  0.59874858  0.07378166  0.74664992  1
  Cu+  Cu127  1  0.59367765  0.93075341  0.26123244  1
  Cu+  Cu128  1  0.59130759  0.26682114  0.59449539  1
  Cu+  Cu129  1  0.06616431  0.26804846  0.40803222  1
  Cu+  Cu130  1  0.25582963  0.07450266  0.07203872  1
  Cu+  Cu131  1  0.25558842  0.40745274  0.40554711  1
  Cu+  Cu132  1  0.92915518  0.07714013  0.41011698  1
  Te2-  Te133  1  0.25345223  0.25233409  0.08618181  1
  Te2-  Te134  1  0.25712650  0.25457423  0.41068475  1
  Te2-  Te135  1  0.25369910  0.25122384  0.74828711  1
  Te2-  Te136  1  0.25664995  0.58375389  0.07726516  1
  Te2-  Te137  1  0.25146740  0.59330944  0.41914313  1
  Te2-  Te138  1  0.25209117  0.58664975  0.74397656  1
  Te2-  Te139  1  0.25327266  0.91945662  0.07948568  1
  Te2-  Te140  1  0.25078884  0.91972143  0.41306312  1
  Te2-  Te141  1  0.25038528  0.91923801  0.74647381  1
  Te2-  Te142  1  0.58354430  0.24971667  0.08272256  1
  Te2-  Te143  1  0.58754658  0.24840742  0.40585761  1
  Te2-  Te144  1  0.58981361  0.26010350  0.74693956  1
  Te2-  Te145  1  0.58185910  0.58692083  0.07964312  1
  Te2-  Te146  1  0.58678542  0.58640650  0.41268457  1
  Te2-  Te147  1  0.58610848  0.58466557  0.74632683  1
  Te2-  Te148  1  0.58295113  0.92236122  0.07878606  1
  Te2-  Te149  1  0.58861901  0.92321450  0.41347953  1
  Te2-  Te150  1  0.58959772  0.92018073  0.74655865  1
  Te2-  Te151  1  0.91774807  0.24840136  0.08223744  1
  Te2-  Te152  1  0.91529267  0.25779402  0.41192381  1
  Te2-  Te153  1  0.91914563  0.25246135  0.75019675  1
  Te2-  Te154  1  0.92411501  0.58339444  0.07438949  1
  Te2-  Te155  1  0.92246366  0.58545108  0.40838552  1
  Te2-  Te156  1  0.91994052  0.58740248  0.75076490  1
  Te2-  Te157  1  0.91666678  0.91625353  0.08358721  1
  Te2-  Te158  1  0.92460226  0.92116043  0.41535493  1
  Te2-  Te159  1  0.91830524  0.92017549  0.75081256  1
  Te2-  Te160  1  0.24705183  0.07903476  0.26191085  1
  Te2-  Te161  1  0.25415818  0.08437727  0.58233674  1
  Te2-  Te162  1  0.25446112  0.07686308  0.91972417  1
  Te2-  Te163  1  0.25497877  0.41261083  0.25288500  1
  Te2-  Te164  1  0.24764374  0.41363849  0.58537173  1
  Te2-  Te165  1  0.25503655  0.41528516  0.91802418  1
  Te2-  Te166  1  0.25440434  0.75021859  0.25595071  1
  Te2-  Te167  1  0.25248340  0.74915663  0.58427467  1
  Te2-  Te168  1  0.25653026  0.74523193  0.91674463  1
  Te2-  Te169  1  0.58721039  0.08225941  0.25437129  1
  Te2-  Te170  1  0.59318100  0.07636294  0.58717666  1
  Te2-  Te171  1  0.58544340  0.08153927  0.91741169  1
  Te2-  Te172  1  0.58937838  0.41113798  0.24893367  1
  Te2-  Te173  1  0.58508495  0.41800670  0.58739044  1
  Te2-  Te174  1  0.58818381  0.41558990  0.92333898  1
  Te2-  Te175  1  0.58855983  0.74594760  0.25058606  1
  Te2-  Te176  1  0.58549018  0.74729091  0.58555539  1
  Te2-  Te177  1  0.58183336  0.74684971  0.91630029  1
  Te2-  Te178  1  0.92165083  0.07700904  0.25504246  1
  Te2-  Te179  1  0.91911744  0.08598768  0.58656688  1
  Te2-  Te180  1  0.91993104  0.08111848  0.91938240  1
  Te2-  Te181  1  0.91919404  0.41245875  0.24838555  1
  Te2-  Te182  1  0.91689462  0.41504324  0.58505039  1
  Te2-  Te183  1  0.91679885  0.41602233  0.91998363  1
  Te2-  Te184  1  0.92094949  0.73990479  0.25388983  1
  Te2-  Te185  1  0.91935147  0.74738744  0.59277793  1
  Te2-  Te186  1  0.91930229  0.74748559  0.92012770  1
  Te2-  Te187  1  0.07661627  0.25661800  0.25332566  1
  Te2-  Te188  1  0.08181429  0.25397344  0.58453992  1
  Te2-  Te189  1  0.08390286  0.25112766  0.92029912  1
  Te2-  Te190  1  0.08323089  0.58846420  0.25281961  1
  Te2-  Te191  1  0.07810118  0.58763198  0.59164495  1
  Te2-  Te192  1  0.08210873  0.58480331  0.91854181  1
  Te2-  Te193  1  0.08159862  0.91949751  0.24933602  1
  Te2-  Te194  1  0.07986806  0.91953830  0.58521097  1
  Te2-  Te195  1  0.08286182  0.91753655  0.92229286  1
  Te2-  Te196  1  0.41086629  0.25247181  0.25000679  1
  Te2-  Te197  1  0.42089901  0.25109239  0.58634719  1
  Te2-  Te198  1  0.41203817  0.25613776  0.91825276  1
  Te2-  Te199  1  0.41834377  0.58811428  0.25957272  1
  Te2-  Te200  1  0.41222407  0.58622115  0.58048440  1
  Te2-  Te201  1  0.41489455  0.58500121  0.91908816  1
  Te2-  Te202  1  0.40803565  0.91432199  0.25364747  1
  Te2-  Te203  1  0.40972423  0.91790828  0.58421407  1
  Te2-  Te204  1  0.41431646  0.91996826  0.91659591  1
  Te2-  Te205  1  0.74869078  0.24911567  0.25207871  1
  Te2-  Te206  1  0.74763471  0.25892107  0.58905444  1
  Te2-  Te207  1  0.74856029  0.25357759  0.92239539  1
  Te2-  Te208  1  0.74596097  0.58605749  0.24825095  1
  Te2-  Te209  1  0.74579622  0.58564625  0.58177978  1
  Te2-  Te210  1  0.74358563  0.58890607  0.91711929  1
  Te2-  Te211  1  0.74747336  0.91679663  0.26228465  1
  Te2-  Te212  1  0.75200693  0.91997239  0.58355988  1
  Te2-  Te213  1  0.74440652  0.91959305  0.92050747  1
  Te2-  Te214  1  0.07995389  0.08296600  0.08230827  1
  Te2-  Te215  1  0.08209372  0.07854835  0.41489685  1
  Te2-  Te216  1  0.08233337  0.08233035  0.74813425  1
  Te2-  Te217  1  0.08438162  0.41548006  0.08228754  1
  Te2-  Te218  1  0.07568763  0.42092327  0.41152311  1
  Te2-  Te219  1  0.08125997  0.41235740  0.74960220  1
  Te2-  Te220  1  0.08145246  0.74340226  0.08007015  1
  Te2-  Te221  1  0.08157923  0.74563950  0.40715885  1
  Te2-  Te222  1  0.07914028  0.74670411  0.75204251  1
  Te2-  Te223  1  0.41272033  0.07590372  0.07739402  1
  Te2-  Te224  1  0.41559309  0.07241898  0.41914060  1
  Te2-  Te225  1  0.41388322  0.08627893  0.74163505  1
  Te2-  Te226  1  0.41142671  0.41704045  0.08519173  1
  Te2-  Te227  1  0.41157017  0.41245463  0.41099624  1
  Te2-  Te228  1  0.41561127  0.41012366  0.74917454  1
  Te2-  Te229  1  0.41750394  0.74601917  0.07813856  1
  Te2-  Te230  1  0.41365379  0.74985787  0.41121620  1
  Te2-  Te231  1  0.41344581  0.75003422  0.74330946  1
  Te2-  Te232  1  0.74634507  0.07807939  0.08122700  1
  Te2-  Te233  1  0.74262996  0.08490326  0.41743432  1
  Te2-  Te234  1  0.74935672  0.08052078  0.74791902  1
  Te2-  Te235  1  0.74758210  0.41029839  0.07942166  1
  Te2-  Te236  1  0.75011303  0.41412635  0.40751838  1
  Te2-  Te237  1  0.74762574  0.41607172  0.74694169  1
  Te2-  Te238  1  0.74015068  0.74551245  0.08320984  1
  Te2-  Te239  1  0.74911236  0.74544124  0.41432435  1
  Te2-  Te240  1  0.74727766  0.74834404  0.74811651  1
