# generated using pymatgen
data_Ti27(Cu53Te54)2
_symmetry_space_group_name_H-M   'P 1'
_cell_length_a   17.93708816
_cell_length_b   17.92021779
_cell_length_c   17.91817479
_cell_angle_alpha   90.04473662
_cell_angle_beta   89.95156961
_cell_angle_gamma   89.98999521
_symmetry_Int_Tables_number   1
_chemical_formula_structural   Ti27(Cu53Te54)2
_chemical_formula_sum   'Ti27 Cu106 Te108'
_cell_volume   5759.55196286
_cell_formula_units_Z   1
loop_
 _symmetry_equiv_pos_site_id
 _symmetry_equiv_pos_as_xyz
  1  'x, y, z'
loop_
 _atom_type_symbol
 _atom_type_oxidation_number
  Ti4+  4.0
  Cu+  1.0
  Te2-  -2.0
loop_
 _atom_site_type_symbol
 _atom_site_label
 _atom_site_symmetry_multiplicity
 _atom_site_fract_x
 _atom_site_fract_y
 _atom_site_fract_z
 _atom_site_occupancy
  Ti4+  Ti0  1  0.16389834  0.16656736  0.16533725  1
  Ti4+  Ti1  1  0.16340285  0.16648402  0.49931819  1
  Ti4+  Ti2  1  0.16716991  0.16946075  0.83410644  1
  Ti4+  Ti3  1  0.16540785  0.50166142  0.16835910  1
  Ti4+  Ti4  1  0.17433930  0.50215967  0.49920578  1
  Ti4+  Ti5  1  0.16819311  0.49891242  0.83484497  1
  Ti4+  Ti6  1  0.17234223  0.83317315  0.16411517  1
  Ti4+  Ti7  1  0.16950937  0.83192021  0.49860647  1
  Ti4+  Ti8  1  0.16379748  0.83158554  0.83272699  1
  Ti4+  Ti9  1  0.49697554  0.16544379  0.16766116  1
  Ti4+  Ti10  1  0.49760504  0.16453388  0.50066087  1
  Ti4+  Ti11  1  0.49774858  0.16840313  0.83494378  1
  Ti4+  Ti12  1  0.50087114  0.49805633  0.16761982  1
  Ti4+  Ti13  1  0.50080802  0.50031137  0.49881007  1
  Ti4+  Ti14  1  0.50077160  0.50217880  0.83365319  1
  Ti4+  Ti15  1  0.50097789  0.83238246  0.16652151  1
  Ti4+  Ti16  1  0.50195785  0.83289143  0.50104886  1
  Ti4+  Ti17  1  0.49918510  0.83333703  0.83356560  1
  Ti4+  Ti18  1  0.83069081  0.16508503  0.16572157  1
  Ti4+  Ti19  1  0.82697281  0.16936964  0.50156439  1
  Ti4+  Ti20  1  0.83180981  0.16649575  0.83080619  1
  Ti4+  Ti21  1  0.83201541  0.49817232  0.16583644  1
  Ti4+  Ti22  1  0.83888858  0.49850174  0.49966743  1
  Ti4+  Ti23  1  0.83482357  0.49937928  0.83077073  1
  Ti4+  Ti24  1  0.83555567  0.83328850  0.16702238  1
  Ti4+  Ti25  1  0.83360811  0.83376438  0.50065733  1
  Ti4+  Ti26  1  0.83222389  0.83433505  0.83583671  1
  Cu+  Cu27  1  0.17067460  0.16873862  -0.00078033  1
  Cu+  Cu28  1  0.15940198  0.16656331  0.33203421  1
  Cu+  Cu29  1  0.16773598  0.17124051  0.66615191  1
  Cu+  Cu30  1  0.16450028  0.49564324  0.00079106  1
  Cu+  Cu31  1  0.17131965  0.50853269  0.33226667  1
  Cu+  Cu32  1  0.16945735  0.50328836  0.66641656  1
  Cu+  Cu33  1  0.16452576  0.83505442  -0.00207164  1
  Cu+  Cu34  1  0.17431226  0.82664422  0.33229857  1
  Cu+  Cu35  1  0.16490899  0.83134787  0.66625149  1
  Cu+  Cu36  1  0.49955089  0.16762591  0.00003741  1
  Cu+  Cu37  1  0.49777034  0.16396511  0.33399685  1
  Cu+  Cu38  1  0.49709649  0.16548742  0.66852325  1
  Cu+  Cu39  1  0.49875513  0.50228883  0.00136625  1
  Cu+  Cu40  1  0.50061865  0.49702842  0.33172947  1
  Cu+  Cu41  1  0.50167640  0.50049624  0.66855219  1
  Cu+  Cu42  1  0.49959581  0.83371522  -0.00272840  1
  Cu+  Cu43  1  0.50118973  0.83624233  0.33426451  1
  Cu+  Cu44  1  0.50068621  0.83167955  0.66759159  1
  Cu+  Cu45  1  0.83165205  0.16451978  -0.00259314  1
  Cu+  Cu46  1  0.83136602  0.16571768  0.33318216  1
  Cu+  Cu47  1  0.82297738  0.17243659  0.66793480  1
  Cu+  Cu48  1  0.83128772  0.49732457  -0.00079051  1
  Cu+  Cu49  1  0.83809319  0.49874386  0.33264601  1
  Cu+  Cu50  1  0.83601262  0.49749766  0.66333735  1
  Cu+  Cu51  1  0.83040989  0.83723117  0.00321648  1
  Cu+  Cu52  1  0.83521568  0.83305949  0.33453493  1
  Cu+  Cu53  1  0.83424713  0.83343740  0.66752326  1
  Cu+  Cu54  1  0.16847947  0.00067633  0.15861182  1
  Cu+  Cu55  1  0.16245260  0.00072223  0.49950637  1
  Cu+  Cu56  1  0.16458297  -0.00091617  0.83214156  1
  Cu+  Cu57  1  0.16132374  0.33372124  0.16761116  1
  Cu+  Cu58  1  0.17179591  0.33171860  0.50215620  1
  Cu+  Cu59  1  0.16824050  0.33426518  0.84184141  1
  Cu+  Cu60  1  0.16994871  0.66817727  0.17337305  1
  Cu+  Cu61  1  0.17712257  0.66754640  0.49477700  1
  Cu+  Cu62  1  0.16254389  0.66346697  0.83158040  1
  Cu+  Cu63  1  0.49795746  -0.00040297  0.16522236  1
  Cu+  Cu64  1  0.49748068  -0.00276883  0.49838348  1
  Cu+  Cu65  1  0.49819531  0.00158032  0.83376431  1
  Cu+  Cu66  1  0.49553794  0.33198551  0.17051988  1
  Cu+  Cu67  1  0.50028246  0.33133027  0.49821971  1
  Cu+  Cu68  1  0.49981645  0.33842962  0.83582616  1
  Cu+  Cu69  1  0.50264626  0.66381624  0.16613280  1
  Cu+  Cu70  1  0.50378279  0.66601871  0.50054092  1
  Cu+  Cu71  1  0.50063521  0.66868976  0.83336161  1
  Cu+  Cu72  1  0.83068670  -0.00131425  0.16533640  1
  Cu+  Cu73  1  0.83051092  0.00339559  0.50063998  1
  Cu+  Cu74  1  0.83275941  -0.00038926  0.83445188  1
  Cu+  Cu75  1  0.83008361  0.33132593  0.16513588  1
  Cu+  Cu76  1  0.83329397  0.33473265  0.50955733  1
  Cu+  Cu77  1  0.83089269  0.33180034  0.82847563  1
  Cu+  Cu78  1  0.83549235  0.66503137  0.16807848  1
  Cu+  Cu79  1  0.83671382  0.66619881  0.49833687  1
  Cu+  Cu80  1  0.83700000  0.66946358  0.83231483  1
  Cu+  Cu81  1  -0.00338795  0.16568617  0.16522765  1
  Cu+  Cu82  1  -0.00787065  0.16717439  0.49708179  1
  Cu+  Cu83  1  0.00057863  0.16623853  0.83167145  1
  Cu+  Cu84  1  -0.00620863  0.50310702  0.16887819  1
  Cu+  Cu85  1  0.01123284  0.49751650  0.49890367  1
  Cu+  Cu86  1  0.00254549  0.49696715  0.83288106  1
  Cu+  Cu87  1  0.00605740  0.83362262  0.16403851  1
  Cu+  Cu88  1  0.00013691  0.83452522  0.49965415  1
  Cu+  Cu89  1  -0.00448853  0.82950616  0.83346578  1
  Cu+  Cu90  1  0.32832714  0.16351963  0.16522858  1
  Cu+  Cu91  1  0.33009231  0.16688525  0.50077819  1
  Cu+  Cu92  1  0.33261517  0.17231285  0.83755810  1
  Cu+  Cu93  1  0.33508334  0.49960719  0.16806120  1
  Cu+  Cu94  1  0.33646474  0.50244357  0.50337123  1
  Cu+  Cu95  1  0.33677922  0.49961575  0.83423002  1
  Cu+  Cu96  1  0.34050286  0.83652309  0.15981423  1
  Cu+  Cu97  1  0.33626821  0.83352767  0.49505983  1
  Cu+  Cu98  1  0.33017129  0.83045664  0.83403485  1
  Cu+  Cu99  1  0.66364940  0.16379418  0.16729994  1
  Cu+  Cu100  1  0.66252150  0.16321032  0.50447133  1
  Cu+  Cu101  1  0.66327603  0.16777948  0.83128595  1
  Cu+  Cu102  1  0.66720679  0.49868330  0.17025652  1
  Cu+  Cu103  1  0.66833191  0.49798965  0.49748763  1
  Cu+  Cu104  1  0.66487395  0.50291179  0.83273272  1
  Cu+  Cu105  1  0.66917153  0.83378283  0.16616841  1
  Cu+  Cu106  1  0.66802371  0.83120950  0.50025976  1
  Cu+  Cu107  1  0.66493514  0.83452100  0.83470795  1
  Cu+  Cu108  1  0.92016358  0.59413544  0.26094070  1
  Cu+  Cu109  1  0.26962497  0.74184951  0.40433461  1
  Cu+  Cu110  1  0.07386687  0.58863494  0.74140326  1
  Cu+  Cu111  1  0.73598898  0.07030533  0.59537124  1
  Cu+  Cu112  1  0.07749307  0.59369256  0.41183163  1
  Cu+  Cu113  1  0.40767245  0.92795277  0.40651277  1
  Cu+  Cu114  1  0.73940885  0.92779224  0.07475518  1
  Cu+  Cu115  1  0.40482172  0.40248861  0.26109853  1
  Cu+  Cu116  1  0.06972365  0.40699465  0.93139790  1
  Cu+  Cu117  1  0.07454825  0.92757300  0.07000753  1
  Cu+  Cu118  1  0.25928532  0.07548788  0.06918978  1
  Cu+  Cu119  1  0.26453210  0.26334382  0.93185813  1
  Cu+  Cu120  1  0.91921445  0.07413179  0.40558428  1
  Cu+  Cu121  1  0.26316265  0.25570680  0.59369825  1
  Cu+  Cu122  1  0.41553552  0.92885047  0.06662709  1
  Cu+  Cu123  1  0.26418417  0.59366633  0.25437198  1
  Cu+  Cu124  1  0.92472007  0.25229867  0.59537773  1
  Cu+  Cu125  1  0.08586982  0.40606308  0.59284083  1
  Cu+  Cu126  1  0.07372607  0.75135153  0.25958381  1
  Cu+  Cu127  1  0.26549303  0.59635039  0.59785438  1
  Cu+  Cu128  1  0.73077252  0.26215892  0.74649994  1
  Cu+  Cu129  1  0.73637095  0.41543336  0.59239695  1
  Cu+  Cu130  1  0.92215424  0.74317655  0.73778634  1
  Cu+  Cu131  1  0.40565118  0.58893544  0.07231058  1
  Cu+  Cu132  1  0.59432813  0.59331698  0.25853561  1
  Te2-  Te133  1  0.25196207  0.25751715  0.08372272  1
  Te2-  Te134  1  0.24884067  0.24911605  0.41161741  1
  Te2-  Te135  1  0.25282303  0.25707186  0.74850873  1
  Te2-  Te136  1  0.24992142  0.58566382  0.07963843  1
  Te2-  Te137  1  0.26531365  0.58805322  0.40921035  1
  Te2-  Te138  1  0.25653307  0.58685898  0.75043111  1
  Te2-  Te139  1  0.25781403  0.91965831  0.07353308  1
  Te2-  Te140  1  0.25122102  0.92197041  0.41255901  1
  Te2-  Te141  1  0.24931828  0.91596925  0.74852084  1
  Te2-  Te142  1  0.58190187  0.25157731  0.08481082  1
  Te2-  Te143  1  0.58389952  0.24736798  0.41539381  1
  Te2-  Te144  1  0.58029411  0.25554902  0.74684993  1
  Te2-  Te145  1  0.58911967  0.58314394  0.08198535  1
  Te2-  Te146  1  0.58797444  0.58470792  0.41356002  1
  Te2-  Te147  1  0.58525145  0.58790128  0.74774490  1
  Te2-  Te148  1  0.58578252  0.91887083  0.08014108  1
  Te2-  Te149  1  0.58845048  0.91850557  0.41607228  1
  Te2-  Te150  1  0.58373502  0.91936799  0.74885441  1
  Te2-  Te151  1  0.91514611  0.24992550  0.07997848  1
  Te2-  Te152  1  0.91228244  0.25601018  0.41457189  1
  Te2-  Te153  1  0.92112243  0.25286106  0.74667106  1
  Te2-  Te154  1  0.91597714  0.58434138  0.07801168  1
  Te2-  Te155  1  0.92463591  0.58668069  0.41406044  1
  Te2-  Te156  1  0.92130514  0.58505913  0.74405915  1
  Te2-  Te157  1  0.92231196  0.91965972  0.08195283  1
  Te2-  Te158  1  0.91893184  0.92057774  0.41505498  1
  Te2-  Te159  1  0.91829234  0.91978773  0.74920588  1
  Te2-  Te160  1  0.24670133  0.08053865  0.25283643  1
  Te2-  Te161  1  0.24811541  0.08087050  0.58486246  1
  Te2-  Te162  1  0.25254614  0.07870672  0.91647456  1
  Te2-  Te163  1  0.24978080  0.41244104  0.25292892  1
  Te2-  Te164  1  0.25778911  0.41333610  0.58873763  1
  Te2-  Te165  1  0.25797883  0.41666964  0.92268950  1
  Te2-  Te166  1  0.26583621  0.74789288  0.24966462  1
  Te2-  Te167  1  0.25657962  0.74966136  0.58741136  1
  Te2-  Te168  1  0.24700968  0.74553200  0.91786802  1
  Te2-  Te169  1  0.58176495  0.07953128  0.25157523  1
  Te2-  Te170  1  0.58041169  0.07678922  0.58848665  1
  Te2-  Te171  1  0.58422211  0.08301685  0.91820801  1
  Te2-  Te172  1  0.58640443  0.41031939  0.25283474  1
  Te2-  Te173  1  0.58371897  0.41388107  0.58494364  1
  Te2-  Te174  1  0.58586888  0.41834159  0.92086901  1
  Te2-  Te175  1  0.58754830  0.74914743  0.25325458  1
  Te2-  Te176  1  0.58690452  0.74762200  0.58621047  1
  Te2-  Te177  1  0.58554226  0.74832398  0.91906736  1
  Te2-  Te178  1  0.91754787  0.07860258  0.25102893  1
  Te2-  Te179  1  0.91376020  0.08491833  0.59006799  1
  Te2-  Te180  1  0.91821528  0.08236682  0.91595243  1
  Te2-  Te181  1  0.91747371  0.41017424  0.25011829  1
  Te2-  Te182  1  0.92927565  0.41466612  0.58754428  1
  Te2-  Te183  1  0.91658650  0.41150149  0.91717329  1
  Te2-  Te184  1  0.92245875  0.74770105  0.25516664  1
  Te2-  Te185  1  0.92096378  0.74701185  0.58438846  1
  Te2-  Te186  1  0.91597829  0.74962104  0.92471604  1
  Te2-  Te187  1  0.07670016  0.25115864  0.24990261  1
  Te2-  Te188  1  0.07642452  0.25366693  0.58684370  1
  Te2-  Te189  1  0.07725891  0.25192847  0.92184582  1
  Te2-  Te190  1  0.07635966  0.59028524  0.25506491  1
  Te2-  Te191  1  0.08488423  0.59164194  0.58343711  1
  Te2-  Te192  1  0.08046749  0.58343865  0.92096378  1
  Te2-  Te193  1  0.08917696  0.91777325  0.25234973  1
  Te2-  Te194  1  0.08280868  0.91590099  0.58390227  1
  Te2-  Te195  1  0.07696298  0.91902022  0.91632173  1
  Te2-  Te196  1  0.40877880  0.24808456  0.25436703  1
  Te2-  Te197  1  0.41416159  0.25295600  0.58651521  1
  Te2-  Te198  1  0.41582799  0.25728193  0.92293533  1
  Te2-  Te199  1  0.41551911  0.58832664  0.25566632  1
  Te2-  Te200  1  0.41835268  0.58768028  0.58769803  1
  Te2-  Te201  1  0.41346828  0.58888833  0.91898257  1
  Te2-  Te202  1  0.41414401  0.91979448  0.25282444  1
  Te2-  Te203  1  0.41392749  0.91617921  0.58642733  1
  Te2-  Te204  1  0.41079250  0.91990347  0.91678931  1
  Te2-  Te205  1  0.74590177  0.24948568  0.25117667  1
  Te2-  Te206  1  0.73610170  0.25873914  0.58792169  1
  Te2-  Te207  1  0.74667741  0.25209390  0.91726079  1
  Te2-  Te208  1  0.74834107  0.58584596  0.25590876  1
  Te2-  Te209  1  0.75132547  0.58434380  0.58260771  1
  Te2-  Te210  1  0.75151133  0.58514465  0.91520454  1
  Te2-  Te211  1  0.74956381  0.91696304  0.25376331  1
  Te2-  Te212  1  0.74704438  0.91783740  0.58740215  1
  Te2-  Te213  1  0.74470345  0.92171271  0.91994265  1
  Te2-  Te214  1  0.07768939  0.08252151  0.07640395  1
  Te2-  Te215  1  0.07610645  0.08089851  0.41436969  1
  Te2-  Te216  1  0.08409964  0.08429930  0.74699246  1
  Te2-  Te217  1  0.07605304  0.41596791  0.08524999  1
  Te2-  Te218  1  0.09179277  0.41475296  0.41106654  1
  Te2-  Te219  1  0.08463462  0.41081072  0.74680608  1
  Te2-  Te220  1  0.08715063  0.74431006  0.08143500  1
  Te2-  Te221  1  0.07863557  0.74643388  0.41277720  1
  Te2-  Te222  1  0.07723024  0.74468099  0.74417750  1
  Te2-  Te223  1  0.41191004  0.08021216  0.07650209  1
  Te2-  Te224  1  0.40989601  0.08079955  0.41457247  1
  Te2-  Te225  1  0.41081333  0.08394843  0.75144569  1
  Te2-  Te226  1  0.41395434  0.41345901  0.08075881  1
  Te2-  Te227  1  0.41315709  0.41356407  0.41559587  1
  Te2-  Te228  1  0.41566865  0.41569395  0.74764772  1
  Te2-  Te229  1  0.41743156  0.74406721  0.07888655  1
  Te2-  Te230  1  0.41979815  0.74378411  0.41198296  1
  Te2-  Te231  1  0.41384774  0.74799600  0.74861056  1
  Te2-  Te232  1  0.74411984  0.08043142  0.07866749  1
  Te2-  Te233  1  0.74330252  0.08215922  0.41434972  1
  Te2-  Te234  1  0.74392918  0.07729731  0.74847173  1
  Te2-  Te235  1  0.74555038  0.41413666  0.08152521  1
  Te2-  Te236  1  0.75372636  0.41371592  0.41422896  1
  Te2-  Te237  1  0.74401399  0.41575253  0.74534521  1
  Te2-  Te238  1  0.75029990  0.74582006  0.08385282  1
  Te2-  Te239  1  0.75056718  0.74752738  0.41513975  1
  Te2-  Te240  1  0.74700796  0.74924289  0.74926570  1
