# generated using pymatgen
data_Ti27(Cu53Te54)2
_symmetry_space_group_name_H-M   'P 1'
_cell_length_a   17.94959995
_cell_length_b   17.94839447
_cell_length_c   17.95738443
_cell_angle_alpha   90.08449511
_cell_angle_beta   89.97189825
_cell_angle_gamma   89.94724063
_symmetry_Int_Tables_number   1
_chemical_formula_structural   Ti27(Cu53Te54)2
_chemical_formula_sum   'Ti27 Cu106 Te108'
_cell_volume   5785.25825794
_cell_formula_units_Z   1
loop_
 _symmetry_equiv_pos_site_id
 _symmetry_equiv_pos_as_xyz
  1  'x, y, z'
loop_
 _atom_type_symbol
 _atom_type_oxidation_number
  Ti4+  4.0
  Cu+  1.0
  Te2-  -2.0
loop_
 _atom_site_type_symbol
 _atom_site_label
 _atom_site_symmetry_multiplicity
 _atom_site_fract_x
 _atom_site_fract_y
 _atom_site_fract_z
 _atom_site_occupancy
  Ti4+  Ti0  1  0.16814555  0.16944933  0.16470028  1
  Ti4+  Ti1  1  0.16573391  0.16842353  0.50015279  1
  Ti4+  Ti2  1  0.16541716  0.16982168  0.83112383  1
  Ti4+  Ti3  1  0.16644270  0.50115369  0.16608226  1
  Ti4+  Ti4  1  0.17010419  0.50507565  0.49831657  1
  Ti4+  Ti5  1  0.16813777  0.50408168  0.83159197  1
  Ti4+  Ti6  1  0.16718383  0.83622419  0.16690297  1
  Ti4+  Ti7  1  0.16605418  0.83108546  0.50112531  1
  Ti4+  Ti8  1  0.16313580  0.83370994  0.83313542  1
  Ti4+  Ti9  1  0.49859901  0.16904313  0.16777018  1
  Ti4+  Ti10  1  0.49694692  0.16131789  0.49931755  1
  Ti4+  Ti11  1  0.49933906  0.16942518  0.83382937  1
  Ti4+  Ti12  1  0.50014224  0.49890214  0.16754011  1
  Ti4+  Ti13  1  0.50035584  0.49767069  0.49937326  1
  Ti4+  Ti14  1  0.50017694  0.50336345  0.83362970  1
  Ti4+  Ti15  1  0.49881775  0.83521355  0.16765559  1
  Ti4+  Ti16  1  0.50296365  0.83280895  0.50025360  1
  Ti4+  Ti17  1  0.49826564  0.83723127  0.83518594  1
  Ti4+  Ti18  1  0.83496936  0.16442803  0.17224322  1
  Ti4+  Ti19  1  0.83333656  0.16487340  0.50505734  1
  Ti4+  Ti20  1  0.83800560  0.16609659  0.83610893  1
  Ti4+  Ti21  1  0.83137959  0.49799646  0.16544501  1
  Ti4+  Ti22  1  0.83571321  0.49714537  0.49549033  1
  Ti4+  Ti23  1  0.83269500  0.49585300  0.83206726  1
  Ti4+  Ti24  1  0.83255311  0.83279426  0.16536113  1
  Ti4+  Ti25  1  0.83309892  0.82896818  0.49983870  1
  Ti4+  Ti26  1  0.82993527  0.83127777  0.83196080  1
  Cu+  Cu27  1  0.16810073  0.16898864  -0.00254166  1
  Cu+  Cu28  1  0.16707562  0.16681946  0.33103788  1
  Cu+  Cu29  1  0.16451729  0.16898455  0.66568543  1
  Cu+  Cu30  1  0.16480753  0.49953503  -0.00157858  1
  Cu+  Cu31  1  0.17088716  0.51053636  0.33008800  1
  Cu+  Cu32  1  0.17298643  0.50692714  0.66572814  1
  Cu+  Cu33  1  0.16567866  0.83531182  0.00185736  1
  Cu+  Cu34  1  0.16819622  0.83361185  0.33382761  1
  Cu+  Cu35  1  0.16221102  0.82874558  0.66663197  1
  Cu+  Cu36  1  0.49845307  0.17208573  0.00001949  1
  Cu+  Cu37  1  0.49869556  0.16255645  0.33761339  1
  Cu+  Cu38  1  0.50121730  0.16609306  0.66441475  1
  Cu+  Cu39  1  0.50148103  0.50404419  -0.00062048  1
  Cu+  Cu40  1  0.49677007  0.49462524  0.33145090  1
  Cu+  Cu41  1  0.50340338  0.49804934  0.66907541  1
  Cu+  Cu42  1  0.49522901  0.83882005  0.00128082  1
  Cu+  Cu43  1  0.49859215  0.83598452  0.33361927  1
  Cu+  Cu44  1  0.50373205  0.83304823  0.66799219  1
  Cu+  Cu45  1  0.83441260  0.16477659  0.00697210  1
  Cu+  Cu46  1  0.83513288  0.16416551  0.33960103  1
  Cu+  Cu47  1  0.84030988  0.17025574  0.66809002  1
  Cu+  Cu48  1  0.83366037  0.49594779  -0.00161207  1
  Cu+  Cu49  1  0.82821232  0.49706893  0.33011696  1
  Cu+  Cu50  1  0.83606862  0.49526543  0.66409590  1
  Cu+  Cu51  1  0.83124581  0.83388907  -0.00228036  1
  Cu+  Cu52  1  0.83479317  0.83126340  0.33292556  1
  Cu+  Cu53  1  0.83099135  0.82795855  0.66584675  1
  Cu+  Cu54  1  0.16583831  0.00456179  0.16808261  1
  Cu+  Cu55  1  0.16505911  0.00160997  0.50272485  1
  Cu+  Cu56  1  0.16430568  -0.00035886  0.83047604  1
  Cu+  Cu57  1  0.16697568  0.33466826  0.16358329  1
  Cu+  Cu58  1  0.16968864  0.33902502  0.49709875  1
  Cu+  Cu59  1  0.16562262  0.33897127  0.83312878  1
  Cu+  Cu60  1  0.16971509  0.66877454  0.16769002  1
  Cu+  Cu61  1  0.16496827  0.66635925  0.50210948  1
  Cu+  Cu62  1  0.16549564  0.66939912  0.83239809  1
  Cu+  Cu63  1  0.49713880  -0.00001541  0.16642618  1
  Cu+  Cu64  1  0.49915223  -0.00362384  0.49288991  1
  Cu+  Cu65  1  0.49904496  0.00510058  0.83647583  1
  Cu+  Cu66  1  0.49456609  0.33416310  0.16641417  1
  Cu+  Cu67  1  0.49625587  0.32729771  0.49869973  1
  Cu+  Cu68  1  0.49891137  0.33689219  0.83314046  1
  Cu+  Cu69  1  0.50230329  0.66803643  0.16643948  1
  Cu+  Cu70  1  0.50316966  0.66602910  0.50050643  1
  Cu+  Cu71  1  0.50228551  0.67153298  0.83263569  1
  Cu+  Cu72  1  0.83845015  -0.00328200  0.17248391  1
  Cu+  Cu73  1  0.83347461  -0.00395790  0.50067698  1
  Cu+  Cu74  1  0.83721520  -0.00225351  0.83619689  1
  Cu+  Cu75  1  0.82899573  0.33027545  0.16868872  1
  Cu+  Cu76  1  0.83501932  0.33297943  0.50866562  1
  Cu+  Cu77  1  0.83250103  0.32737993  0.83003571  1
  Cu+  Cu78  1  0.83147284  0.66758194  0.16337520  1
  Cu+  Cu79  1  0.83234532  0.66158587  0.49351189  1
  Cu+  Cu80  1  0.82967930  0.66214814  0.83262224  1
  Cu+  Cu81  1  0.00227843  0.16329572  0.17187313  1
  Cu+  Cu82  1  0.00120561  0.16634627  0.50772898  1
  Cu+  Cu83  1  0.00426945  0.16250239  0.83899603  1
  Cu+  Cu84  1  -0.00381686  0.50021331  0.16475889  1
  Cu+  Cu85  1  0.00442076  0.50271299  0.49207058  1
  Cu+  Cu86  1  0.00108745  0.49747039  0.83337951  1
  Cu+  Cu87  1  -0.00076505  0.83575611  0.16809734  1
  Cu+  Cu88  1  0.00018321  0.82554712  0.50360980  1
  Cu+  Cu89  1  -0.00608810  0.83532894  0.83475377  1
  Cu+  Cu90  1  0.33337290  0.17304185  0.16255829  1
  Cu+  Cu91  1  0.33099655  0.16637526  0.49750460  1
  Cu+  Cu92  1  0.33098277  0.17043261  0.83028787  1
  Cu+  Cu93  1  0.33233381  0.50049956  0.16968374  1
  Cu+  Cu94  1  0.33337978  0.50494091  0.50174820  1
  Cu+  Cu95  1  0.33643581  0.50606304  0.83330083  1
  Cu+  Cu96  1  0.33447369  0.83777764  0.16288533  1
  Cu+  Cu97  1  0.33536153  0.83422460  0.49918241  1
  Cu+  Cu98  1  0.32993684  0.83568312  0.83451848  1
  Cu+  Cu99  1  0.66890652  0.16771218  0.16771452  1
  Cu+  Cu100  1  0.66178519  0.16017499  0.50215988  1
  Cu+  Cu101  1  0.66983208  0.16735395  0.83451890  1
  Cu+  Cu102  1  0.66665460  0.49498291  0.16975808  1
  Cu+  Cu103  1  0.67003118  0.49817949  0.49362748  1
  Cu+  Cu104  1  0.66451019  0.49765989  0.83057549  1
  Cu+  Cu105  1  0.66583402  0.83274531  0.16677987  1
  Cu+  Cu106  1  0.66900177  0.83112009  0.50091415  1
  Cu+  Cu107  1  0.66382701  0.83151232  0.83102398  1
  Cu+  Cu108  1  0.92619142  0.91952981  0.26619884  1
  Cu+  Cu109  1  0.07508093  0.07253101  0.59565239  1
  Cu+  Cu110  1  0.40249256  0.92069334  0.40571471  1
  Cu+  Cu111  1  0.73811566  0.40048421  0.25879285  1
  Cu+  Cu112  1  0.93305786  0.26268972  0.59525129  1
  Cu+  Cu113  1  0.40102325  0.40755771  0.25803664  1
  Cu+  Cu114  1  0.40454258  0.26463317  0.06833674  1
  Cu+  Cu115  1  0.07290357  0.41113896  0.92685548  1
  Cu+  Cu116  1  0.40474214  0.92908045  0.06951204  1
  Cu+  Cu117  1  0.92238185  0.92279716  0.92800174  1
  Cu+  Cu118  1  0.74278276  0.24827712  0.74122517  1
  Cu+  Cu119  1  0.58902978  0.40650070  0.74666486  1
  Cu+  Cu120  1  0.40317141  0.25576466  0.40998855  1
  Cu+  Cu121  1  0.74040296  0.41607041  0.59067752  1
  Cu+  Cu122  1  0.73841178  0.59283813  0.40197779  1
  Cu+  Cu123  1  0.07492472  0.59569014  0.40088211  1
  Cu+  Cu124  1  0.06882069  0.73649527  0.59827493  1
  Cu+  Cu125  1  0.74223534  0.25707013  0.07523080  1
  Cu+  Cu126  1  0.26450969  0.60078998  0.25406338  1
  Cu+  Cu127  1  0.59261937  0.74260627  0.73912508  1
  Cu+  Cu128  1  0.58638706  0.25430456  0.58732736  1
  Cu+  Cu129  1  0.59538233  0.06900435  0.40506720  1
  Cu+  Cu130  1  0.08645364  0.07070123  0.92963850  1
  Cu+  Cu131  1  0.07860684  0.07625671  0.26266960  1
  Cu+  Cu132  1  0.26615593  0.59551758  0.59753163  1
  Te2-  Te133  1  0.25196856  0.25689566  0.07634529  1
  Te2-  Te134  1  0.25010026  0.25386068  0.41202144  1
  Te2-  Te135  1  0.24923369  0.25556046  0.74678421  1
  Te2-  Te136  1  0.25173817  0.58418954  0.08008720  1
  Te2-  Te137  1  0.25789822  0.59295543  0.41285209  1
  Te2-  Te138  1  0.25634692  0.59275492  0.74903731  1
  Te2-  Te139  1  0.24977250  0.92385733  0.08032050  1
  Te2-  Te140  1  0.24964770  0.92025156  0.41625814  1
  Te2-  Te141  1  0.24787266  0.91671366  0.74639397  1
  Te2-  Te142  1  0.58601981  0.25410568  0.08304384  1
  Te2-  Te143  1  0.58628312  0.24920551  0.41490464  1
  Te2-  Te144  1  0.58808477  0.25453180  0.74499426  1
  Te2-  Te145  1  0.58691801  0.58330615  0.08485328  1
  Te2-  Te146  1  0.58344816  0.58236660  0.41196338  1
  Te2-  Te147  1  0.58780715  0.58839550  0.74610708  1
  Te2-  Te148  1  0.58529762  0.92001842  0.08285029  1
  Te2-  Te149  1  0.59146403  0.91619996  0.41210346  1
  Te2-  Te150  1  0.58375474  0.92309280  0.75058000  1
  Te2-  Te151  1  0.92057146  0.24972781  0.08800061  1
  Te2-  Te152  1  0.91864503  0.25018444  0.42052752  1
  Te2-  Te153  1  0.92760500  0.25183081  0.75094264  1
  Te2-  Te154  1  0.91496878  0.58382323  0.07956644  1
  Te2-  Te155  1  0.91929756  0.58379792  0.40696450  1
  Te2-  Te156  1  0.91683214  0.58122498  0.74853377  1
  Te2-  Te157  1  0.91953718  0.91943215  0.07948792  1
  Te2-  Te158  1  0.92168377  0.91526398  0.41829401  1
  Te2-  Te159  1  0.91505147  0.91589049  0.74442596  1
  Te2-  Te160  1  0.25538246  0.08491409  0.24945680  1
  Te2-  Te161  1  0.25164197  0.08358638  0.58572060  1
  Te2-  Te162  1  0.25138925  0.08239803  0.91473112  1
  Te2-  Te163  1  0.24936584  0.41281346  0.25401904  1
  Te2-  Te164  1  0.25353596  0.41747728  0.58448352  1
  Te2-  Te165  1  0.25466238  0.41933889  0.91616018  1
  Te2-  Te166  1  0.25578143  0.75284060  0.25176220  1
  Te2-  Te167  1  0.25569700  0.74833488  0.58595765  1
  Te2-  Te168  1  0.24882852  0.75075865  0.91887205  1
  Te2-  Te169  1  0.58478467  0.08101958  0.25087807  1
  Te2-  Te170  1  0.58152406  0.07392392  0.58602630  1
  Te2-  Te171  1  0.58505161  0.08682323  0.91941898  1
  Te2-  Te172  1  0.58495645  0.40938522  0.25382677  1
  Te2-  Te173  1  0.58725716  0.40996120  0.58498217  1
  Te2-  Te174  1  0.58451589  0.41555370  0.91975893  1
  Te2-  Te175  1  0.58408393  0.75015086  0.25275710  1
  Te2-  Te176  1  0.58885847  0.74564520  0.58540870  1
  Te2-  Te177  1  0.58258218  0.75291501  0.92265853  1
  Te2-  Te178  1  0.92228434  0.07803771  0.26041069  1
  Te2-  Te179  1  0.91833469  0.07572480  0.58848433  1
  Te2-  Te180  1  0.92145091  0.07955536  0.92551368  1
  Te2-  Te181  1  0.91767534  0.41331730  0.25031590  1
  Te2-  Te182  1  0.92780359  0.41671485  0.58350121  1
  Te2-  Te183  1  0.91773818  0.40961749  0.91747737  1
  Te2-  Te184  1  0.91847862  0.74590042  0.24948636  1
  Te2-  Te185  1  0.91520174  0.73989627  0.58595489  1
  Te2-  Te186  1  0.91455117  0.74478296  0.91726773  1
  Te2-  Te187  1  0.08283858  0.25476321  0.25093878  1
  Te2-  Te188  1  0.08449562  0.26025652  0.58528978  1
  Te2-  Te189  1  0.08106469  0.25675838  0.91984008  1
  Te2-  Te190  1  0.07697923  0.58843373  0.24774050  1
  Te2-  Te191  1  0.07814575  0.58502811  0.58757433  1
  Te2-  Te192  1  0.08082410  0.58723888  0.91754200  1
  Te2-  Te193  1  0.08096639  0.92157836  0.25627441  1
  Te2-  Te194  1  0.07906388  0.91753573  0.58588127  1
  Te2-  Te195  1  0.07771942  0.92007468  0.92197694  1
  Te2-  Te196  1  0.41121421  0.25298614  0.25728483  1
  Te2-  Te197  1  0.41095748  0.24903839  0.58631619  1
  Te2-  Te198  1  0.41168975  0.25632954  0.91627032  1
  Te2-  Te199  1  0.41649379  0.58883424  0.25317003  1
  Te2-  Te200  1  0.42012890  0.58545079  0.58697982  1
  Te2-  Te201  1  0.41739032  0.59029790  0.91884208  1
  Te2-  Te202  1  0.41122248  0.92221392  0.25423440  1
  Te2-  Te203  1  0.41803364  0.91759505  0.58606939  1
  Te2-  Te204  1  0.40962121  0.92455267  0.91804125  1
  Te2-  Te205  1  0.74736368  0.24790494  0.26021285  1
  Te2-  Te206  1  0.74190445  0.25196932  0.58916053  1
  Te2-  Te207  1  0.75018966  0.25069410  0.92260724  1
  Te2-  Te208  1  0.74543740  0.58789952  0.24959888  1
  Te2-  Te209  1  0.74987912  0.58151675  0.58370136  1
  Te2-  Te210  1  0.74692464  0.57924585  0.91716050  1
  Te2-  Te211  1  0.74733277  0.91707308  0.25297319  1
  Te2-  Te212  1  0.74946588  0.91511235  0.58511893  1
  Te2-  Te213  1  0.74449216  0.91827295  0.91625343  1
  Te2-  Te214  1  0.08103740  0.08253813  0.07960583  1
  Te2-  Te215  1  0.07964205  0.08213050  0.41539985  1
  Te2-  Te216  1  0.07951059  0.08093499  0.74545989  1
  Te2-  Te217  1  0.07901246  0.41509327  0.08141368  1
  Te2-  Te218  1  0.08785905  0.41906412  0.40963395  1
  Te2-  Te219  1  0.08535771  0.41980371  0.74296287  1
  Te2-  Te220  1  0.08228305  0.75024408  0.08405099  1
  Te2-  Te221  1  0.08109701  0.74736297  0.41102854  1
  Te2-  Te222  1  0.07482822  0.74696035  0.75063509  1
  Te2-  Te223  1  0.41402530  0.08364611  0.08003296  1
  Te2-  Te224  1  0.40738912  0.07639014  0.41208703  1
  Te2-  Te225  1  0.41539646  0.08508875  0.74851193  1
  Te2-  Te226  1  0.41244878  0.41797123  0.07778393  1
  Te2-  Te227  1  0.40963973  0.41316011  0.41584151  1
  Te2-  Te228  1  0.41314021  0.41729276  0.74795899  1
  Te2-  Te229  1  0.41521164  0.74785642  0.08209147  1
  Te2-  Te230  1  0.41746780  0.74680810  0.41546053  1
  Te2-  Te231  1  0.41339912  0.75210887  0.74927475  1
  Te2-  Te232  1  0.75085833  0.07735204  0.08766406  1
  Te2-  Te233  1  0.74870706  0.07840338  0.41739786  1
  Te2-  Te234  1  0.75363825  0.08159832  0.74947867  1
  Te2-  Te235  1  0.74541462  0.41183319  0.07840356  1
  Te2-  Te236  1  0.74903613  0.40566694  0.41327864  1
  Te2-  Te237  1  0.74530465  0.40826459  0.74341468  1
  Te2-  Te238  1  0.74651480  0.74946484  0.07973768  1
  Te2-  Te239  1  0.74636855  0.74656686  0.41119728  1
  Te2-  Te240  1  0.74552206  0.74313295  0.74635771  1
