# generated using pymatgen
data_Ti27(Cu53Te54)2
_symmetry_space_group_name_H-M   'P 1'
_cell_length_a   17.85860693
_cell_length_b   17.85870029
_cell_length_c   17.85854654
_cell_angle_alpha   90.00644807
_cell_angle_beta   89.98056315
_cell_angle_gamma   90.01545847
_symmetry_Int_Tables_number   1
_chemical_formula_structural   Ti27(Cu53Te54)2
_chemical_formula_sum   'Ti27 Cu106 Te108'
_cell_volume   5695.65262211
_cell_formula_units_Z   1
loop_
 _symmetry_equiv_pos_site_id
 _symmetry_equiv_pos_as_xyz
  1  'x, y, z'
loop_
 _atom_type_symbol
 _atom_type_oxidation_number
  Ti4+  4.0
  Cu+  1.0
  Te2-  -2.0
loop_
 _atom_site_type_symbol
 _atom_site_label
 _atom_site_symmetry_multiplicity
 _atom_site_fract_x
 _atom_site_fract_y
 _atom_site_fract_z
 _atom_site_occupancy
  Ti4+  Ti0  1  0.17003072  0.16925793  0.16787193  1
  Ti4+  Ti1  1  0.16513686  0.16777133  0.49806567  1
  Ti4+  Ti2  1  0.16483034  0.16590728  0.83445898  1
  Ti4+  Ti3  1  0.16655575  0.49753840  0.16701819  1
  Ti4+  Ti4  1  0.16423558  0.50090203  0.50062855  1
  Ti4+  Ti5  1  0.16626342  0.49795854  0.83251249  1
  Ti4+  Ti6  1  0.16833615  0.82905704  0.16611381  1
  Ti4+  Ti7  1  0.16513635  0.83409633  0.50035878  1
  Ti4+  Ti8  1  0.16624234  0.83262069  0.83290850  1
  Ti4+  Ti9  1  0.50230236  0.16925540  0.17019529  1
  Ti4+  Ti10  1  0.50098356  0.16616979  0.50138415  1
  Ti4+  Ti11  1  0.49781985  0.16700596  0.83354495  1
  Ti4+  Ti12  1  0.50196064  0.49926469  0.16666990  1
  Ti4+  Ti13  1  0.49942740  0.50226286  0.50049265  1
  Ti4+  Ti14  1  0.50105209  0.49923785  0.83306229  1
  Ti4+  Ti15  1  0.50096738  0.83608326  0.16608814  1
  Ti4+  Ti16  1  0.49884277  0.83618631  0.50109279  1
  Ti4+  Ti17  1  0.50066729  0.83337005  0.83437097  1
  Ti4+  Ti18  1  0.83361299  0.16488743  0.16498599  1
  Ti4+  Ti19  1  0.83364546  0.16195344  0.50205466  1
  Ti4+  Ti20  1  0.83482438  0.16757438  0.83247949  1
  Ti4+  Ti21  1  0.83161472  0.49961399  0.16924947  1
  Ti4+  Ti22  1  0.83218969  0.49769636  0.49905960  1
  Ti4+  Ti23  1  0.83412721  0.50039882  0.83178067  1
  Ti4+  Ti24  1  0.83491545  0.83264114  0.16255171  1
  Ti4+  Ti25  1  0.83196174  0.83498538  0.49648636  1
  Ti4+  Ti26  1  0.83245658  0.83351578  0.83284890  1
  Cu+  Cu27  1  0.16838571  0.17248501  0.00124955  1
  Cu+  Cu28  1  0.17255985  0.17248143  0.33132596  1
  Cu+  Cu29  1  0.16060098  0.16583106  0.66584480  1
  Cu+  Cu30  1  0.16829451  0.49679204  0.00010927  1
  Cu+  Cu31  1  0.16322970  0.49602669  0.33425006  1
  Cu+  Cu32  1  0.16380745  0.50370562  0.66773199  1
  Cu+  Cu33  1  0.16433962  0.82914742  -0.00079344  1
  Cu+  Cu34  1  0.16868810  0.83173376  0.33536962  1
  Cu+  Cu35  1  0.16625644  0.83179330  0.66684339  1
  Cu+  Cu36  1  0.49979010  0.16957815  0.00095373  1
  Cu+  Cu37  1  0.50025633  0.16104312  0.33653616  1
  Cu+  Cu38  1  0.49667154  0.16668407  0.66676509  1
  Cu+  Cu39  1  0.50337700  0.49658838  -0.00146962  1
  Cu+  Cu40  1  0.50294006  0.49796635  0.33440085  1
  Cu+  Cu41  1  0.49913826  0.50191570  0.66650446  1
  Cu+  Cu42  1  0.50345465  0.82962172  0.00112234  1
  Cu+  Cu43  1  0.49792043  0.83451593  0.33413467  1
  Cu+  Cu44  1  0.49838525  0.83959106  0.66871994  1
  Cu+  Cu45  1  0.83590776  0.16691570  -0.00251536  1
  Cu+  Cu46  1  0.83612503  0.16147704  0.33218613  1
  Cu+  Cu47  1  0.82850356  0.16922727  0.67058867  1
  Cu+  Cu48  1  0.83469061  0.50065223  -0.00044971  1
  Cu+  Cu49  1  0.82834801  0.50387113  0.33676051  1
  Cu+  Cu50  1  0.83524786  0.49843173  0.66374639  1
  Cu+  Cu51  1  0.83364411  0.84046020  -0.00202570  1
  Cu+  Cu52  1  0.83129809  0.82856552  0.32846089  1
  Cu+  Cu53  1  0.83282892  0.83395033  0.66426224  1
  Cu+  Cu54  1  0.17204544  -0.00489083  0.16705314  1
  Cu+  Cu55  1  0.16187919  0.00388162  0.50057333  1
  Cu+  Cu56  1  0.16948192  0.00040967  0.83459688  1
  Cu+  Cu57  1  0.16308130  0.33483948  0.17169604  1
  Cu+  Cu58  1  0.16761695  0.33481304  0.49993247  1
  Cu+  Cu59  1  0.16613443  0.33068961  0.83311653  1
  Cu+  Cu60  1  0.16942514  0.66384072  0.16659307  1
  Cu+  Cu61  1  0.16610758  0.66809452  0.49994626  1
  Cu+  Cu62  1  0.16370182  0.66550965  0.83151526  1
  Cu+  Cu63  1  0.50061959  0.00602819  0.16990340  1
  Cu+  Cu64  1  0.50675022  -0.00056068  0.50213274  1
  Cu+  Cu65  1  0.49491349  -0.00150708  0.83222927  1
  Cu+  Cu66  1  0.50099614  0.33435701  0.16257298  1
  Cu+  Cu67  1  0.50083697  0.33531720  0.49782907  1
  Cu+  Cu68  1  0.49991510  0.33453527  0.83304721  1
  Cu+  Cu69  1  0.50197090  0.66706012  0.16468298  1
  Cu+  Cu70  1  0.49718035  0.67016211  0.50208808  1
  Cu+  Cu71  1  0.50035033  0.66494444  0.83490100  1
  Cu+  Cu72  1  0.83026577  -0.00187247  0.16145932  1
  Cu+  Cu73  1  0.84232061  -0.00097332  0.49861659  1
  Cu+  Cu74  1  0.83779486  0.00087812  0.83710210  1
  Cu+  Cu75  1  0.83226385  0.33148179  0.16957995  1
  Cu+  Cu76  1  0.83264036  0.32945763  0.50299605  1
  Cu+  Cu77  1  0.83232493  0.33446133  0.83079513  1
  Cu+  Cu78  1  0.83180554  0.66753357  0.17093926  1
  Cu+  Cu79  1  0.82894525  0.66498343  0.49529631  1
  Cu+  Cu80  1  0.83279099  0.66773484  0.83138477  1
  Cu+  Cu81  1  0.00059067  0.16679222  0.16227048  1
  Cu+  Cu82  1  0.00003585  0.15693427  0.50058346  1
  Cu+  Cu83  1  0.00207642  0.16895724  0.82789394  1
  Cu+  Cu84  1  -0.00198864  0.49587003  0.17111881  1
  Cu+  Cu85  1  -0.00241564  0.49967914  0.50226134  1
  Cu+  Cu86  1  0.00042470  0.50178126  0.83003680  1
  Cu+  Cu87  1  0.00455829  0.83288439  0.16013741  1
  Cu+  Cu88  1  -0.00256442  0.83684253  0.49896138  1
  Cu+  Cu89  1  -0.00268025  0.83361530  0.83733379  1
  Cu+  Cu90  1  0.33767441  0.17387141  0.17392410  1
  Cu+  Cu91  1  0.33406705  0.16995598  0.50030939  1
  Cu+  Cu92  1  0.32984154  0.16521322  0.83773254  1
  Cu+  Cu93  1  0.33525013  0.50164959  0.16785755  1
  Cu+  Cu94  1  0.33081074  0.50289372  0.50190974  1
  Cu+  Cu95  1  0.33533872  0.49753366  0.83345225  1
  Cu+  Cu96  1  0.33116624  0.83548191  0.17203735  1
  Cu+  Cu97  1  0.33229737  0.83363621  0.50033929  1
  Cu+  Cu98  1  0.33474227  0.83524686  0.83255516  1
  Cu+  Cu99  1  0.66793222  0.16345201  0.16506197  1
  Cu+  Cu100  1  0.66606570  0.16094307  0.49850877  1
  Cu+  Cu101  1  0.66754312  0.16831702  0.83224481  1
  Cu+  Cu102  1  0.66554755  0.49710832  0.16436231  1
  Cu+  Cu103  1  0.66569035  0.49878681  0.49494385  1
  Cu+  Cu104  1  0.66780387  0.50149080  0.83350769  1
  Cu+  Cu105  1  0.66714571  0.83024784  0.16057939  1
  Cu+  Cu106  1  0.66355729  0.83677156  0.50322798  1
  Cu+  Cu107  1  0.66798080  0.82987936  0.83267499  1
  Cu+  Cu108  1  0.73742163  0.74225253  0.25709285  1
  Cu+  Cu109  1  0.59460876  0.92783881  0.60016514  1
  Cu+  Cu110  1  0.06662479  0.40823051  0.26560089  1
  Cu+  Cu111  1  0.59645961  0.06834171  0.40729265  1
  Cu+  Cu112  1  0.26461933  0.26693618  0.26242367  1
  Cu+  Cu113  1  0.73461853  0.59389856  0.40945979  1
  Cu+  Cu114  1  0.59439479  0.73660968  0.07153944  1
  Cu+  Cu115  1  0.40720509  0.07599509  0.26384965  1
  Cu+  Cu116  1  0.25662983  0.92175803  0.26634774  1
  Cu+  Cu117  1  0.08259899  0.92680974  0.07320148  1
  Cu+  Cu118  1  0.07500464  0.26179124  0.73463840  1
  Cu+  Cu119  1  0.40299836  0.92679740  0.73938541  1
  Cu+  Cu120  1  0.41047427  0.26074932  0.07337771  1
  Cu+  Cu121  1  0.07083772  0.26229131  0.07505225  1
  Cu+  Cu122  1  0.25926791  0.26144551  0.92283991  1
  Cu+  Cu123  1  0.92684931  0.92150443  0.59506417  1
  Cu+  Cu124  1  0.59469426  0.40435130  0.40729306  1
  Cu+  Cu125  1  0.92811250  0.92991203  0.92640109  1
  Cu+  Cu126  1  0.59031183  0.07781252  0.06917669  1
  Cu+  Cu127  1  0.73506599  0.26435714  0.74238651  1
  Cu+  Cu128  1  0.07239883  0.59699733  0.73967330  1
  Cu+  Cu129  1  0.93170136  0.07310399  0.39870551  1
  Cu+  Cu130  1  0.73702782  0.92480948  0.07119286  1
  Cu+  Cu131  1  0.59787615  0.40631612  0.06740502  1
  Cu+  Cu132  1  0.07460592  0.07259476  0.59636698  1
  Te2-  Te133  1  0.25643468  0.25914309  0.08206335  1
  Te2-  Te134  1  0.25529253  0.25634267  0.41574116  1
  Te2-  Te135  1  0.25141568  0.24901908  0.74545140  1
  Te2-  Te136  1  0.25286131  0.58255839  0.08097213  1
  Te2-  Te137  1  0.24869289  0.58472026  0.41354147  1
  Te2-  Te138  1  0.25366832  0.58434726  0.74954167  1
  Te2-  Te139  1  0.25428348  0.91489499  0.07675596  1
  Te2-  Te140  1  0.25222512  0.92311102  0.41760463  1
  Te2-  Te141  1  0.25092852  0.91991537  0.74623622  1
  Te2-  Te142  1  0.59101360  0.25336992  0.07971042  1
  Te2-  Te143  1  0.58750738  0.25084465  0.41305365  1
  Te2-  Te144  1  0.58281634  0.25263752  0.74659081  1
  Te2-  Te145  1  0.58790742  0.58562725  0.07842671  1
  Te2-  Te146  1  0.58297507  0.59188217  0.41314022  1
  Te2-  Te147  1  0.58581941  0.58582546  0.74785778  1
  Te2-  Te148  1  0.58506639  0.92504533  0.07772384  1
  Te2-  Te149  1  0.58771692  0.91810129  0.40981687  1
  Te2-  Te150  1  0.58988811  0.92176470  0.75117831  1
  Te2-  Te151  1  0.91739915  0.25460227  0.07966598  1
  Te2-  Te152  1  0.91867517  0.24755257  0.41748297  1
  Te2-  Te153  1  0.92047762  0.25531538  0.74431563  1
  Te2-  Te154  1  0.91805706  0.58413749  0.08592582  1
  Te2-  Te155  1  0.91979844  0.58524841  0.41473278  1
  Te2-  Te156  1  0.91813064  0.58787466  0.74384758  1
  Te2-  Te157  1  0.92503334  0.92382837  0.07862197  1
  Te2-  Te158  1  0.91942511  0.91712791  0.40516540  1
  Te2-  Te159  1  0.92043838  0.91955046  0.74707618  1
  Te2-  Te160  1  0.25518382  0.07873153  0.25504479  1
  Te2-  Te161  1  0.25125782  0.08432401  0.58474750  1
  Te2-  Te162  1  0.25041407  0.08018658  0.92347155  1
  Te2-  Te163  1  0.25658923  0.41564270  0.25503178  1
  Te2-  Te164  1  0.24960199  0.41707327  0.58718061  1
  Te2-  Te165  1  0.25415343  0.41253124  0.91927519  1
  Te2-  Te166  1  0.25347877  0.74372331  0.25457957  1
  Te2-  Te167  1  0.25120319  0.74877373  0.58482747  1
  Te2-  Te168  1  0.25176737  0.74679814  0.91604279  1
  Te2-  Te169  1  0.59143758  0.07985907  0.25549993  1
  Te2-  Te170  1  0.58739272  0.08176123  0.59209196  1
  Te2-  Te171  1  0.58443844  0.08095265  0.91668383  1
  Te2-  Te172  1  0.58798546  0.41065019  0.25300760  1
  Te2-  Te173  1  0.58568534  0.41621158  0.58563208  1
  Te2-  Te174  1  0.59011883  0.41104135  0.91678449  1
  Te2-  Te175  1  0.58458097  0.74866491  0.25375207  1
  Te2-  Te176  1  0.58307198  0.75028809  0.58831788  1
  Te2-  Te177  1  0.58844774  0.74447808  0.91859450  1
  Te2-  Te178  1  0.92140307  0.07644503  0.24616754  1
  Te2-  Te179  1  0.91902258  0.07859507  0.59571562  1
  Te2-  Te180  1  0.92541781  0.08410653  0.91944830  1
  Te2-  Te181  1  0.91368450  0.41290264  0.25831297  1
  Te2-  Te182  1  0.91855499  0.41150837  0.58487410  1
  Te2-  Te183  1  0.91948794  0.41529859  0.91647849  1
  Te2-  Te184  1  0.92359511  0.74937854  0.24852358  1
  Te2-  Te185  1  0.91511888  0.74666894  0.58042651  1
  Te2-  Te186  1  0.91589613  0.74695486  0.92061455  1
  Te2-  Te187  1  0.07673923  0.25073385  0.25467076  1
  Te2-  Te188  1  0.07662837  0.25461007  0.58174201  1
  Te2-  Te189  1  0.07661975  0.25419655  0.92095657  1
  Te2-  Te190  1  0.08168153  0.58466669  0.25183704  1
  Te2-  Te191  1  0.07764864  0.58911009  0.58518000  1
  Te2-  Te192  1  0.08180983  0.58283741  0.92032000  1
  Te2-  Te193  1  0.08186757  0.91663341  0.25242879  1
  Te2-  Te194  1  0.07890245  0.92033831  0.58935824  1
  Te2-  Te195  1  0.08140562  0.92163809  0.91988511  1
  Te2-  Te196  1  0.42004488  0.25896475  0.26082578  1
  Te2-  Te197  1  0.41599531  0.25442548  0.58436093  1
  Te2-  Te198  1  0.41293610  0.25623079  0.91973371  1
  Te2-  Te199  1  0.41835512  0.58550854  0.25231603  1
  Te2-  Te200  1  0.41342355  0.58730980  0.58635613  1
  Te2-  Te201  1  0.41547563  0.58322199  0.92027668  1
  Te2-  Te202  1  0.41389692  0.92239410  0.25547207  1
  Te2-  Te203  1  0.41034056  0.92391601  0.58494408  1
  Te2-  Te204  1  0.41560410  0.91676168  0.92332680  1
  Te2-  Te205  1  0.74870893  0.24696736  0.25306193  1
  Te2-  Te206  1  0.74374845  0.24964527  0.58472066  1
  Te2-  Te207  1  0.74910465  0.25281100  0.91909282  1
  Te2-  Te208  1  0.74076822  0.58665370  0.25313623  1
  Te2-  Te209  1  0.74608404  0.58370809  0.58478462  1
  Te2-  Te210  1  0.74983014  0.58576294  0.91797407  1
  Te2-  Te211  1  0.74675019  0.91755672  0.24888984  1
  Te2-  Te212  1  0.74841709  0.92290385  0.58476824  1
  Te2-  Te213  1  0.74304225  0.92214393  0.91677818  1
  Te2-  Te214  1  0.08623542  0.08074415  0.08131529  1
  Te2-  Te215  1  0.08358915  0.08124115  0.40526186  1
  Te2-  Te216  1  0.07950653  0.07501686  0.74906138  1
  Te2-  Te217  1  0.07804747  0.41363119  0.07881484  1
  Te2-  Te218  1  0.07682657  0.41182555  0.41707880  1
  Te2-  Te219  1  0.07966792  0.41176774  0.74544109  1
  Te2-  Te220  1  0.08267666  0.74075773  0.08017378  1
  Te2-  Te221  1  0.07955271  0.74966400  0.41508130  1
  Te2-  Te222  1  0.07666044  0.74995005  0.74750111  1
  Te2-  Te223  1  0.41264093  0.08482999  0.08347535  1
  Te2-  Te224  1  0.41182715  0.07761902  0.41901372  1
  Te2-  Te225  1  0.40964530  0.08268390  0.74797045  1
  Te2-  Te226  1  0.41206226  0.41569461  0.07938363  1
  Te2-  Te227  1  0.41189741  0.41722344  0.41554260  1
  Te2-  Te228  1  0.41540998  0.41404759  0.74639388  1
  Te2-  Te229  1  0.41286977  0.75080352  0.08473131  1
  Te2-  Te230  1  0.41352237  0.74988850  0.41498622  1
  Te2-  Te231  1  0.41634364  0.74739541  0.74839946  1
  Te2-  Te232  1  0.74690324  0.08031766  0.07390721  1
  Te2-  Te233  1  0.74950208  0.07545885  0.41353537  1
  Te2-  Te234  1  0.74894000  0.07769174  0.75096462  1
  Te2-  Te235  1  0.75033344  0.41236688  0.07991345  1
  Te2-  Te236  1  0.74802705  0.40704144  0.41228538  1
  Te2-  Te237  1  0.74595013  0.41626081  0.74435803  1
  Te2-  Te238  1  0.75082748  0.74394735  0.07414256  1
  Te2-  Te239  1  0.74070827  0.74880643  0.41280015  1
  Te2-  Te240  1  0.74853809  0.74808865  0.74478269  1
