# generated using pymatgen
data_Ti27(Cu53Te54)2
_symmetry_space_group_name_H-M   'P 1'
_cell_length_a   17.93157000
_cell_length_b   17.93224017
_cell_length_c   17.93190425
_cell_angle_alpha   89.90497051
_cell_angle_beta   90.01275004
_cell_angle_gamma   89.89568706
_symmetry_Int_Tables_number   1
_chemical_formula_structural   Ti27(Cu53Te54)2
_chemical_formula_sum   'Ti27 Cu106 Te108'
_cell_volume   5766.04391611
_cell_formula_units_Z   1
loop_
 _symmetry_equiv_pos_site_id
 _symmetry_equiv_pos_as_xyz
  1  'x, y, z'
loop_
 _atom_type_symbol
 _atom_type_oxidation_number
  Ti4+  4.0
  Cu+  1.0
  Te2-  -2.0
loop_
 _atom_site_type_symbol
 _atom_site_label
 _atom_site_symmetry_multiplicity
 _atom_site_fract_x
 _atom_site_fract_y
 _atom_site_fract_z
 _atom_site_occupancy
  Ti4+  Ti0  1  0.17009917  0.16886457  0.16659003  1
  Ti4+  Ti1  1  0.16916747  0.16885401  0.49802719  1
  Ti4+  Ti2  1  0.16426442  0.16993167  0.83234889  1
  Ti4+  Ti3  1  0.16804698  0.50109903  0.16641347  1
  Ti4+  Ti4  1  0.16155347  0.49853375  0.49721729  1
  Ti4+  Ti5  1  0.16725206  0.50034929  0.83570347  1
  Ti4+  Ti6  1  0.16512416  0.83427722  0.16596624  1
  Ti4+  Ti7  1  0.16870062  0.83289877  0.50156267  1
  Ti4+  Ti8  1  0.16468639  0.83812294  0.83375401  1
  Ti4+  Ti9  1  0.49990533  0.16648794  0.16919603  1
  Ti4+  Ti10  1  0.50518395  0.16708508  0.50048743  1
  Ti4+  Ti11  1  0.50130337  0.16701561  0.83193347  1
  Ti4+  Ti12  1  0.49729936  0.50205043  0.16679982  1
  Ti4+  Ti13  1  0.49763029  0.50063452  0.50323078  1
  Ti4+  Ti14  1  0.50015005  0.50303450  0.83410221  1
  Ti4+  Ti15  1  0.49727580  0.83685317  0.16470004  1
  Ti4+  Ti16  1  0.50309169  0.83338237  0.49803788  1
  Ti4+  Ti17  1  0.50011924  0.83559525  0.82987618  1
  Ti4+  Ti18  1  0.83346888  0.16512764  0.16478690  1
  Ti4+  Ti19  1  0.83839222  0.16233802  0.50216860  1
  Ti4+  Ti20  1  0.83123156  0.16509466  0.83638358  1
  Ti4+  Ti21  1  0.83084065  0.49855032  0.16549783  1
  Ti4+  Ti22  1  0.83001491  0.49725225  0.49809759  1
  Ti4+  Ti23  1  0.82962847  0.49812201  0.83583073  1
  Ti4+  Ti24  1  0.83103225  0.83157197  0.16518917  1
  Ti4+  Ti25  1  0.83441157  0.83132894  0.49942784  1
  Ti4+  Ti26  1  0.83578508  0.82920276  0.83420178  1
  Cu+  Cu27  1  0.16713590  0.16914692  -0.00304068  1
  Cu+  Cu28  1  0.17259246  0.17249300  0.33300083  1
  Cu+  Cu29  1  0.16421394  0.16757872  0.66412237  1
  Cu+  Cu30  1  0.17264139  0.49665286  0.00345305  1
  Cu+  Cu31  1  0.16040595  0.49601197  0.32967137  1
  Cu+  Cu32  1  0.16143354  0.50156553  0.66582709  1
  Cu+  Cu33  1  0.16200416  0.83438395  0.00023086  1
  Cu+  Cu34  1  0.16721901  0.83631267  0.33417225  1
  Cu+  Cu35  1  0.17341249  0.83281681  0.67191507  1
  Cu+  Cu36  1  0.49956710  0.16477324  0.00242610  1
  Cu+  Cu37  1  0.50094361  0.16684487  0.33639897  1
  Cu+  Cu38  1  0.50595194  0.16554743  0.66648782  1
  Cu+  Cu39  1  0.49407882  0.50743240  0.00194574  1
  Cu+  Cu40  1  0.49611960  0.49804878  0.33452550  1
  Cu+  Cu41  1  0.50376448  0.50443038  0.66847838  1
  Cu+  Cu42  1  0.49613515  0.83709551  -0.00296720  1
  Cu+  Cu43  1  0.50219040  0.83687811  0.32987107  1
  Cu+  Cu44  1  0.50128099  0.83522496  0.66152130  1
  Cu+  Cu45  1  0.83491969  0.16934376  -0.00066875  1
  Cu+  Cu46  1  0.83551968  0.16326470  0.33203570  1
  Cu+  Cu47  1  0.83684698  0.16125477  0.66996018  1
  Cu+  Cu48  1  0.82881962  0.49882093  -0.00086109  1
  Cu+  Cu49  1  0.82958454  0.49777384  0.33184317  1
  Cu+  Cu50  1  0.83098459  0.49711489  0.66619700  1
  Cu+  Cu51  1  0.83109676  0.82711145  0.00008997  1
  Cu+  Cu52  1  0.83141034  0.83094138  0.33291358  1
  Cu+  Cu53  1  0.83846914  0.83089954  0.66704303  1
  Cu+  Cu54  1  0.16826174  -0.00231000  0.16868422  1
  Cu+  Cu55  1  0.16791350  0.00273382  0.50058099  1
  Cu+  Cu56  1  0.15997136  0.00655595  0.83598433  1
  Cu+  Cu57  1  0.17164575  0.33498823  0.16998161  1
  Cu+  Cu58  1  0.16531153  0.33443188  0.49486248  1
  Cu+  Cu59  1  0.16922208  0.33291316  0.83571351  1
  Cu+  Cu60  1  0.16626129  0.66886932  0.16684132  1
  Cu+  Cu61  1  0.16629385  0.66289209  0.50161210  1
  Cu+  Cu62  1  0.16334693  0.66858988  0.83558070  1
  Cu+  Cu63  1  0.50321873  0.00195706  0.16719905  1
  Cu+  Cu64  1  0.50608251  -0.00066545  0.50130311  1
  Cu+  Cu65  1  0.50207277  0.00219848  0.82648380  1
  Cu+  Cu66  1  0.49803956  0.33274466  0.16895490  1
  Cu+  Cu67  1  0.50281910  0.33557494  0.49745980  1
  Cu+  Cu68  1  0.50205887  0.33600235  0.83211161  1
  Cu+  Cu69  1  0.49269074  0.66838789  0.16331319  1
  Cu+  Cu70  1  0.49882112  0.66655127  0.50445966  1
  Cu+  Cu71  1  0.49867866  0.66952203  0.83233349  1
  Cu+  Cu72  1  0.83269117  -0.00133259  0.16404186  1
  Cu+  Cu73  1  0.84144736  -0.00557252  0.50435171  1
  Cu+  Cu74  1  0.83489016  -0.00437638  0.83310917  1
  Cu+  Cu75  1  0.83174429  0.33195831  0.16488734  1
  Cu+  Cu76  1  0.83235128  0.32865231  0.49830184  1
  Cu+  Cu77  1  0.82725962  0.33172441  0.84051819  1
  Cu+  Cu78  1  0.83103838  0.66592608  0.16570562  1
  Cu+  Cu79  1  0.83123648  0.66554962  0.49797353  1
  Cu+  Cu80  1  0.83297023  0.66399293  0.83913409  1
  Cu+  Cu81  1  0.00026379  0.16627154  0.16384373  1
  Cu+  Cu82  1  0.00521458  0.16042515  0.50097884  1
  Cu+  Cu83  1  -0.00286875  0.16790440  0.83883485  1
  Cu+  Cu84  1  0.00002945  0.49801139  0.16721166  1
  Cu+  Cu85  1  -0.00465188  0.49762034  0.49566990  1
  Cu+  Cu86  1  -0.00158071  0.50212497  0.83674715  1
  Cu+  Cu87  1  -0.00296728  0.83295008  0.16608302  1
  Cu+  Cu88  1  0.00030219  0.83442285  0.50189322  1
  Cu+  Cu89  1  0.00421067  0.83044019  0.83642027  1
  Cu+  Cu90  1  0.33404858  0.17095599  0.17167997  1
  Cu+  Cu91  1  0.33808602  0.16887814  0.49950297  1
  Cu+  Cu92  1  0.33490150  0.17174010  0.82960017  1
  Cu+  Cu93  1  0.33544089  0.50404607  0.15978313  1
  Cu+  Cu94  1  0.32695161  0.50280546  0.50205917  1
  Cu+  Cu95  1  0.33486712  0.50189678  0.83285153  1
  Cu+  Cu96  1  0.32871230  0.83757163  0.16824494  1
  Cu+  Cu97  1  0.33805423  0.82858103  0.49908248  1
  Cu+  Cu98  1  0.33092843  0.83943817  0.82833297  1
  Cu+  Cu99  1  0.66548070  0.16241321  0.16403079  1
  Cu+  Cu100  1  0.67606257  0.16841320  0.49658300  1
  Cu+  Cu101  1  0.66559360  0.16206089  0.83079164  1
  Cu+  Cu102  1  0.66400138  0.50152873  0.16655537  1
  Cu+  Cu103  1  0.66287480  0.49840185  0.49950498  1
  Cu+  Cu104  1  0.66432125  0.49434513  0.83310564  1
  Cu+  Cu105  1  0.66388228  0.83653543  0.16584487  1
  Cu+  Cu106  1  0.66907782  0.83471634  0.49987357  1
  Cu+  Cu107  1  0.66966118  0.82937308  0.83269136  1
  Cu+  Cu108  1  0.26597850  0.25589751  0.92209080  1
  Cu+  Cu109  1  0.06981466  0.40527380  0.25671209  1
  Cu+  Cu110  1  0.93117828  0.91906147  0.59804294  1
  Cu+  Cu111  1  0.58920135  0.41160443  0.40282207  1
  Cu+  Cu112  1  0.59163825  0.40659047  0.74060160  1
  Cu+  Cu113  1  0.25768875  0.92572178  0.26365537  1
  Cu+  Cu114  1  0.59626039  0.92690472  0.25833226  1
  Cu+  Cu115  1  0.07081486  0.07772562  0.93096725  1
  Cu+  Cu116  1  0.59693061  0.92711743  0.59010235  1
  Cu+  Cu117  1  0.26440581  0.40632967  0.07779654  1
  Cu+  Cu118  1  0.75173845  0.25613279  0.40181366  1
  Cu+  Cu119  1  0.25230576  0.58658351  0.59419057  1
  Cu+  Cu120  1  0.59646641  0.59216218  0.59306252  1
  Cu+  Cu121  1  0.26058722  0.73824240  0.75572525  1
  Cu+  Cu122  1  0.40456847  0.60204187  0.07004004  1
  Cu+  Cu123  1  0.26463458  0.26398689  0.26442019  1
  Cu+  Cu124  1  0.59643871  0.07261064  0.73709526  1
  Cu+  Cu125  1  0.73405081  0.40277384  0.93059204  1
  Cu+  Cu126  1  0.41123190  0.74135777  0.59210465  1
  Cu+  Cu127  1  0.08061688  0.07300920  0.59303534  1
  Cu+  Cu128  1  0.59385087  0.07433448  0.07200330  1
  Cu+  Cu129  1  0.92433954  0.59002402  0.92948231  1
  Cu+  Cu130  1  0.73601805  0.73975617  0.92897264  1
  Cu+  Cu131  1  0.07954766  0.73932344  0.93096701  1
  Cu+  Cu132  1  0.92494332  0.26079219  0.92773552  1
  Te2-  Te133  1  0.25674826  0.25370943  0.07755059  1
  Te2-  Te134  1  0.25830277  0.25696900  0.41561985  1
  Te2-  Te135  1  0.24937745  0.25340880  0.74411863  1
  Te2-  Te136  1  0.25123864  0.59212121  0.07890154  1
  Te2-  Te137  1  0.24671912  0.58273148  0.40983039  1
  Te2-  Te138  1  0.25180990  0.58666662  0.74832072  1
  Te2-  Te139  1  0.24946301  0.91919011  0.07733552  1
  Te2-  Te140  1  0.25519211  0.91911497  0.41853274  1
  Te2-  Te141  1  0.24791131  0.92885647  0.74990879  1
  Te2-  Te142  1  0.58373078  0.25291634  0.08306385  1
  Te2-  Te143  1  0.59050788  0.25357283  0.41199445  1
  Te2-  Te144  1  0.58895900  0.25371042  0.74733129  1
  Te2-  Te145  1  0.58351805  0.58793761  0.08248563  1
  Te2-  Te146  1  0.58131163  0.58622331  0.41493967  1
  Te2-  Te147  1  0.58853607  0.59076056  0.75037734  1
  Te2-  Te148  1  0.58457555  0.92035741  0.07603955  1
  Te2-  Te149  1  0.58969019  0.92010437  0.41213755  1
  Te2-  Te150  1  0.59130509  0.91782727  0.74459195  1
  Te2-  Te151  1  0.92021608  0.25391628  0.08129744  1
  Te2-  Te152  1  0.92237481  0.24705438  0.41561280  1
  Te2-  Te153  1  0.91478121  0.25248929  0.75239847  1
  Te2-  Te154  1  0.91810221  0.58393712  0.08138037  1
  Te2-  Te155  1  0.91355815  0.58290143  0.41275226  1
  Te2-  Te156  1  0.91463895  0.58234144  0.74882609  1
  Te2-  Te157  1  0.91575511  0.91550983  0.07908915  1
  Te2-  Te158  1  0.91967350  0.91528945  0.41136738  1
  Te2-  Te159  1  0.92333668  0.91655909  0.75087799  1
  Te2-  Te160  1  0.25335919  0.08087425  0.25328365  1
  Te2-  Te161  1  0.25493897  0.08468179  0.58484036  1
  Te2-  Te162  1  0.25407982  0.08480046  0.91560620  1
  Te2-  Te163  1  0.25921247  0.41850604  0.25350862  1
  Te2-  Te164  1  0.24685551  0.41405874  0.58536190  1
  Te2-  Te165  1  0.25786473  0.41357272  0.91899445  1
  Te2-  Te166  1  0.25060719  0.74869357  0.25272598  1
  Te2-  Te167  1  0.25558511  0.74382629  0.58874355  1
  Te2-  Te168  1  0.25269970  0.75193729  0.91837249  1
  Te2-  Te169  1  0.58754956  0.08162649  0.25710161  1
  Te2-  Te170  1  0.59565451  0.08115899  0.58477408  1
  Te2-  Te171  1  0.58493059  0.07888141  0.91906404  1
  Te2-  Te172  1  0.58450280  0.41443890  0.25114477  1
  Te2-  Te173  1  0.58570570  0.41271921  0.58836891  1
  Te2-  Te174  1  0.58062688  0.41651530  0.92571424  1
  Te2-  Te175  1  0.58106878  0.74734496  0.24675541  1
  Te2-  Te176  1  0.59045232  0.74640379  0.58672007  1
  Te2-  Te177  1  0.58219578  0.74952898  0.91904208  1
  Te2-  Te178  1  0.91953310  0.07994038  0.24847627  1
  Te2-  Te179  1  0.92528554  0.07598121  0.59168220  1
  Te2-  Te180  1  0.91691147  0.07630882  0.92163081  1
  Te2-  Te181  1  0.91568930  0.41192035  0.25207823  1
  Te2-  Te182  1  0.91541241  0.41289111  0.58284000  1
  Te2-  Te183  1  0.91931650  0.41331570  0.92181644  1
  Te2-  Te184  1  0.91620124  0.74702832  0.25050334  1
  Te2-  Te185  1  0.91982058  0.74350541  0.58352546  1
  Te2-  Te186  1  0.92426032  0.74380771  0.92359708  1
  Te2-  Te187  1  0.08026965  0.25181241  0.25103238  1
  Te2-  Te188  1  0.08141318  0.25455214  0.58178308  1
  Te2-  Te189  1  0.07884841  0.25723501  0.92118396  1
  Te2-  Te190  1  0.08043352  0.58724376  0.24947938  1
  Te2-  Te191  1  0.07455073  0.58338399  0.58238247  1
  Te2-  Te192  1  0.08246581  0.58430862  0.92531886  1
  Te2-  Te193  1  0.07828587  0.91817773  0.25148811  1
  Te2-  Te194  1  0.08478809  0.91839675  0.58980439  1
  Te2-  Te195  1  0.07712644  0.92294677  0.92168935  1
  Te2-  Te196  1  0.41650049  0.25453023  0.25781650  1
  Te2-  Te197  1  0.42113186  0.25211309  0.58489880  1
  Te2-  Te198  1  0.41826129  0.25431478  0.91936989  1
  Te2-  Te199  1  0.41218140  0.58534689  0.25403120  1
  Te2-  Te200  1  0.40892118  0.58669014  0.59077081  1
  Te2-  Te201  1  0.41085746  0.59136358  0.91660166  1
  Te2-  Te202  1  0.41252582  0.92283575  0.25234834  1
  Te2-  Te203  1  0.41489610  0.92022482  0.58195833  1
  Te2-  Te204  1  0.41489457  0.92217925  0.91204134  1
  Te2-  Te205  1  0.74620612  0.24974382  0.24971911  1
  Te2-  Te206  1  0.75360811  0.24752523  0.58944847  1
  Te2-  Te207  1  0.73937739  0.24788825  0.92181164  1
  Te2-  Te208  1  0.74667711  0.58414604  0.25059473  1
  Te2-  Te209  1  0.74707608  0.58477452  0.58553252  1
  Te2-  Te210  1  0.73993485  0.58518285  0.92026180  1
  Te2-  Te211  1  0.74830388  0.91983706  0.25250072  1
  Te2-  Te212  1  0.75004937  0.91787519  0.58856445  1
  Te2-  Te213  1  0.74980368  0.91573248  0.91775916  1
  Te2-  Te214  1  0.08449992  0.08151940  0.08257843  1
  Te2-  Te215  1  0.08699473  0.08287386  0.40928437  1
  Te2-  Te216  1  0.07592199  0.08490419  0.74710450  1
  Te2-  Te217  1  0.08281836  0.41304943  0.08197617  1
  Te2-  Te218  1  0.07535762  0.41085509  0.41150605  1
  Te2-  Te219  1  0.08145494  0.41657721  0.75224083  1
  Te2-  Te220  1  0.07780337  0.74620801  0.08251333  1
  Te2-  Te221  1  0.08396959  0.75011678  0.41742906  1
  Te2-  Te222  1  0.08161528  0.74890011  0.74586664  1
  Te2-  Te223  1  0.41192423  0.08290851  0.08538120  1
  Te2-  Te224  1  0.41938772  0.08098475  0.41846912  1
  Te2-  Te225  1  0.41413596  0.08503926  0.74544860  1
  Te2-  Te226  1  0.41628139  0.41122238  0.07891912  1
  Te2-  Te227  1  0.40999546  0.41651927  0.41917410  1
  Te2-  Te228  1  0.41565541  0.41805859  0.74724785  1
  Te2-  Te229  1  0.40840955  0.75414769  0.07836446  1
  Te2-  Te230  1  0.41975055  0.74759266  0.41075300  1
  Te2-  Te231  1  0.41340275  0.74849783  0.74495683  1
  Te2-  Te232  1  0.74918285  0.07966220  0.07688881  1
  Te2-  Te233  1  0.75501004  0.07518433  0.41724158  1
  Te2-  Te234  1  0.74994862  0.07596089  0.74804161  1
  Te2-  Te235  1  0.74285099  0.41255108  0.08207561  1
  Te2-  Te236  1  0.74374070  0.41062329  0.41108148  1
  Te2-  Te237  1  0.74725888  0.41040746  0.74640420  1
  Te2-  Te238  1  0.74184062  0.74517946  0.08218819  1
  Te2-  Te239  1  0.74664645  0.74762232  0.41465865  1
  Te2-  Te240  1  0.75264413  0.74494914  0.74698877  1
