# generated using pymatgen
data_Ti27(Cu53Te54)2
_symmetry_space_group_name_H-M   'P 1'
_cell_length_a   17.86059259
_cell_length_b   17.86162943
_cell_length_c   17.86037327
_cell_angle_alpha   90.01721708
_cell_angle_beta   90.00680978
_cell_angle_gamma   89.99956666
_symmetry_Int_Tables_number   1
_chemical_formula_structural   Ti27(Cu53Te54)2
_chemical_formula_sum   'Ti27 Cu106 Te108'
_cell_volume   5697.80323601
_cell_formula_units_Z   1
loop_
 _symmetry_equiv_pos_site_id
 _symmetry_equiv_pos_as_xyz
  1  'x, y, z'
loop_
 _atom_type_symbol
 _atom_type_oxidation_number
  Ti4+  4.0
  Cu+  1.0
  Te2-  -2.0
loop_
 _atom_site_type_symbol
 _atom_site_label
 _atom_site_symmetry_multiplicity
 _atom_site_fract_x
 _atom_site_fract_y
 _atom_site_fract_z
 _atom_site_occupancy
  Ti4+  Ti0  1  0.16657212  0.16818496  0.16900039  1
  Ti4+  Ti1  1  0.16586425  0.16602398  0.50119349  1
  Ti4+  Ti2  1  0.16751997  0.17026983  0.83523162  1
  Ti4+  Ti3  1  0.16641351  0.49985516  0.16614025  1
  Ti4+  Ti4  1  0.16724226  0.50132193  0.50061637  1
  Ti4+  Ti5  1  0.16722674  0.49702298  0.83241167  1
  Ti4+  Ti6  1  0.16730479  0.83399580  0.16675972  1
  Ti4+  Ti7  1  0.16795005  0.83351753  0.49996298  1
  Ti4+  Ti8  1  0.16658642  0.83387993  0.83105440  1
  Ti4+  Ti9  1  0.49803156  0.16784913  0.16433331  1
  Ti4+  Ti10  1  0.49817776  0.16523604  0.49989669  1
  Ti4+  Ti11  1  0.50176833  0.16385272  0.83258079  1
  Ti4+  Ti12  1  0.50223311  0.49808407  0.16837015  1
  Ti4+  Ti13  1  0.50101050  0.50059125  0.49971001  1
  Ti4+  Ti14  1  0.50025578  0.50123882  0.83540751  1
  Ti4+  Ti15  1  0.49660506  0.83508976  0.16503662  1
  Ti4+  Ti16  1  0.50004883  0.83131738  0.50060886  1
  Ti4+  Ti17  1  0.49937945  0.83274453  0.83742522  1
  Ti4+  Ti18  1  0.83354326  0.16628003  0.16800907  1
  Ti4+  Ti19  1  0.83323775  0.16802337  0.49806526  1
  Ti4+  Ti20  1  0.83677663  0.16918170  0.83085931  1
  Ti4+  Ti21  1  0.83354263  0.50017627  0.16877829  1
  Ti4+  Ti22  1  0.83320885  0.49976224  0.49915815  1
  Ti4+  Ti23  1  0.83250227  0.49911707  0.83206587  1
  Ti4+  Ti24  1  0.83325089  0.83249142  0.16616391  1
  Ti4+  Ti25  1  0.83413741  0.83596638  0.49845014  1
  Ti4+  Ti26  1  0.83070576  0.83273962  0.83212821  1
  Cu+  Cu27  1  0.17012192  0.17217621  0.00319708  1
  Cu+  Cu28  1  0.16091946  0.16256202  0.33383096  1
  Cu+  Cu29  1  0.17143763  0.17190197  0.66556746  1
  Cu+  Cu30  1  0.16554812  0.49358389  -0.00186648  1
  Cu+  Cu31  1  0.16616550  0.50076819  0.33222296  1
  Cu+  Cu32  1  0.16427989  0.50287226  0.66726892  1
  Cu+  Cu33  1  0.16604950  0.83524728  -0.00148858  1
  Cu+  Cu34  1  0.17191265  0.83050860  0.33410974  1
  Cu+  Cu35  1  0.16669301  0.83252090  0.66383694  1
  Cu+  Cu36  1  0.50539239  0.16355965  0.00058447  1
  Cu+  Cu37  1  0.49665820  0.16515038  0.33215423  1
  Cu+  Cu38  1  0.49891554  0.16412497  0.66469928  1
  Cu+  Cu39  1  0.49830340  0.50402316  0.00423739  1
  Cu+  Cu40  1  0.50535572  0.50319093  0.33309032  1
  Cu+  Cu41  1  0.50242273  0.49963254  0.66660179  1
  Cu+  Cu42  1  0.49329181  0.83821123  -0.00020985  1
  Cu+  Cu43  1  0.49732847  0.83578141  0.33648532  1
  Cu+  Cu44  1  0.50217713  0.83243218  0.66971976  1
  Cu+  Cu45  1  0.83595522  0.16456808  -0.00142584  1
  Cu+  Cu46  1  0.83860988  0.17025389  0.33254023  1
  Cu+  Cu47  1  0.83376392  0.17151421  0.66357616  1
  Cu+  Cu48  1  0.83338397  0.49962161  0.00233931  1
  Cu+  Cu49  1  0.82888398  0.49618474  0.33397417  1
  Cu+  Cu50  1  0.83531183  0.50071749  0.66552817  1
  Cu+  Cu51  1  0.83036547  0.82994434  0.00107511  1
  Cu+  Cu52  1  0.83514506  0.83515629  0.33212811  1
  Cu+  Cu53  1  0.82940725  0.83343187  0.66274899  1
  Cu+  Cu54  1  0.16355932  0.00196181  0.16967937  1
  Cu+  Cu55  1  0.16507717  -0.00066281  0.50198518  1
  Cu+  Cu56  1  0.16971365  0.00211272  0.83237350  1
  Cu+  Cu57  1  0.16746261  0.33539061  0.16523763  1
  Cu+  Cu58  1  0.16934544  0.33455876  0.50213773  1
  Cu+  Cu59  1  0.16239741  0.33208763  0.83954238  1
  Cu+  Cu60  1  0.16741008  0.66725444  0.16609666  1
  Cu+  Cu61  1  0.16995867  0.66825536  0.49849624  1
  Cu+  Cu62  1  0.16581053  0.66478931  0.82837152  1
  Cu+  Cu63  1  0.49299907  0.00416833  0.16206553  1
  Cu+  Cu64  1  0.49831003  -0.00278098  0.49800068  1
  Cu+  Cu65  1  0.50025249  -0.00576631  0.83503308  1
  Cu+  Cu66  1  0.50060373  0.33210155  0.16594964  1
  Cu+  Cu67  1  0.49826919  0.33276563  0.49825979  1
  Cu+  Cu68  1  0.50373151  0.33523218  0.83302913  1
  Cu+  Cu69  1  0.50144110  0.66209535  0.16590266  1
  Cu+  Cu70  1  0.49953949  0.66467040  0.50188070  1
  Cu+  Cu71  1  0.50073200  0.67079449  0.83822365  1
  Cu+  Cu72  1  0.83304534  -0.00478634  0.16447745  1
  Cu+  Cu73  1  0.83458929  0.00268897  0.49623035  1
  Cu+  Cu74  1  0.83436394  0.00315221  0.83317365  1
  Cu+  Cu75  1  0.83370520  0.33260996  0.17377114  1
  Cu+  Cu76  1  0.83435561  0.33469544  0.50011596  1
  Cu+  Cu77  1  0.83173963  0.33197489  0.82774639  1
  Cu+  Cu78  1  0.83556259  0.66701727  0.16562396  1
  Cu+  Cu79  1  0.83338135  0.66609180  0.49874443  1
  Cu+  Cu80  1  0.83124238  0.66508780  0.83615111  1
  Cu+  Cu81  1  -0.00001099  0.16779088  0.17352025  1
  Cu+  Cu82  1  -0.00148108  0.16598539  0.49905725  1
  Cu+  Cu83  1  0.00235174  0.17223584  0.82931507  1
  Cu+  Cu84  1  0.00048315  0.50225972  0.16559578  1
  Cu+  Cu85  1  -0.00060377  0.50056197  0.49946607  1
  Cu+  Cu86  1  0.00116920  0.49826564  0.83273253  1
  Cu+  Cu87  1  -0.00022064  0.83340368  0.16553379  1
  Cu+  Cu88  1  0.00048123  0.83583227  0.49875418  1
  Cu+  Cu89  1  -0.00203975  0.83546087  0.83092986  1
  Cu+  Cu90  1  0.33440632  0.16556231  0.17021819  1
  Cu+  Cu91  1  0.32981091  0.17037681  0.50304797  1
  Cu+  Cu92  1  0.33106863  0.16427825  0.83406264  1
  Cu+  Cu93  1  0.33170874  0.49869879  0.16437370  1
  Cu+  Cu94  1  0.33629476  0.50018048  0.49980960  1
  Cu+  Cu95  1  0.33399316  0.49964099  0.83342878  1
  Cu+  Cu96  1  0.33247568  0.83779866  0.16286895  1
  Cu+  Cu97  1  0.33213467  0.83111131  0.49510382  1
  Cu+  Cu98  1  0.33328757  0.83388056  0.83361351  1
  Cu+  Cu99  1  0.66426621  0.16686180  0.16160663  1
  Cu+  Cu100  1  0.66428388  0.16366773  0.49839969  1
  Cu+  Cu101  1  0.67345829  0.16834416  0.83339201  1
  Cu+  Cu102  1  0.66887071  0.49718561  0.17635503  1
  Cu+  Cu103  1  0.66658697  0.50080079  0.49945085  1
  Cu+  Cu104  1  0.66278528  0.49648758  0.83129151  1
  Cu+  Cu105  1  0.66625449  0.83259978  0.16745306  1
  Cu+  Cu106  1  0.66989060  0.83101668  0.50437118  1
  Cu+  Cu107  1  0.66658860  0.82599921  0.83845548  1
  Cu+  Cu108  1  0.40061795  0.74121263  0.92420943  1
  Cu+  Cu109  1  0.40623293  0.07682867  0.26183624  1
  Cu+  Cu110  1  0.06814086  0.06907878  0.26087498  1
  Cu+  Cu111  1  0.26069845  0.73487801  0.40343239  1
  Cu+  Cu112  1  0.25469118  0.07513912  0.73879534  1
  Cu+  Cu113  1  0.26584086  0.25903330  0.93170470  1
  Cu+  Cu114  1  0.07593668  0.25885975  0.73534347  1
  Cu+  Cu115  1  0.40857088  0.92070928  0.73880188  1
  Cu+  Cu116  1  0.39943148  0.93368280  0.07254483  1
  Cu+  Cu117  1  0.58795485  0.40523916  0.73658332  1
  Cu+  Cu118  1  0.93094091  0.26424685  0.26101083  1
  Cu+  Cu119  1  0.59660244  0.59731137  0.26070876  1
  Cu+  Cu120  1  0.07243831  0.59599146  0.73892672  1
  Cu+  Cu121  1  0.40253788  0.58886020  0.07866884  1
  Cu+  Cu122  1  0.59451701  0.07243958  0.07956790  1
  Cu+  Cu123  1  0.74836382  0.07679576  0.92474118  1
  Cu+  Cu124  1  0.74535407  0.73580283  0.58833014  1
  Cu+  Cu125  1  0.40400865  0.92587687  0.40957252  1
  Cu+  Cu126  1  0.59582316  0.91948596  0.92645803  1
  Cu+  Cu127  1  0.06725514  0.40739628  0.92911025  1
  Cu+  Cu128  1  0.59074411  0.74148381  0.74214676  1
  Cu+  Cu129  1  0.74491202  0.73195925  0.93295955  1
  Cu+  Cu130  1  0.74021529  0.25746144  0.73418271  1
  Cu+  Cu131  1  0.26245698  0.26638095  0.59268420  1
  Cu+  Cu132  1  0.73855339  0.40053006  0.26259827  1
  Te2-  Te133  1  0.25723870  0.25498673  0.08536051  1
  Te2-  Te134  1  0.24857245  0.25040035  0.41232744  1
  Te2-  Te135  1  0.25632067  0.25933205  0.74941173  1
  Te2-  Te136  1  0.24964197  0.58574857  0.07636807  1
  Te2-  Te137  1  0.25465651  0.58369678  0.41258146  1
  Te2-  Te138  1  0.25470609  0.58381482  0.74733733  1
  Te2-  Te139  1  0.24832072  0.92417009  0.07910143  1
  Te2-  Te140  1  0.25196000  0.92429990  0.41266655  1
  Te2-  Te141  1  0.25412555  0.91970566  0.74316051  1
  Te2-  Te142  1  0.58556869  0.25542855  0.07856054  1
  Te2-  Te143  1  0.58245399  0.24924081  0.41327462  1
  Te2-  Te144  1  0.58674710  0.25028388  0.74499120  1
  Te2-  Te145  1  0.59276526  0.58225850  0.08386136  1
  Te2-  Te146  1  0.58888163  0.58978614  0.41544130  1
  Te2-  Te147  1  0.58534989  0.58930722  0.74880555  1
  Te2-  Te148  1  0.58787400  0.92033545  0.08076689  1
  Te2-  Te149  1  0.58843854  0.91554458  0.41731479  1
  Te2-  Te150  1  0.59024676  0.91736660  0.74989001  1
  Te2-  Te151  1  0.91788756  0.25142519  0.08306051  1
  Te2-  Te152  1  0.92247836  0.25637243  0.41493923  1
  Te2-  Te153  1  0.92225023  0.25706819  0.74202613  1
  Te2-  Te154  1  0.91847664  0.58513064  0.08100598  1
  Te2-  Te155  1  0.91708484  0.58454530  0.41250663  1
  Te2-  Te156  1  0.91843606  0.58678709  0.74844454  1
  Te2-  Te157  1  0.91852027  0.91649836  0.07815550  1
  Te2-  Te158  1  0.92038925  0.92066184  0.41262513  1
  Te2-  Te159  1  0.91428341  0.91861538  0.74615746  1
  Te2-  Te160  1  0.25246113  0.07995564  0.25528213  1
  Te2-  Te161  1  0.25359752  0.07773470  0.58627321  1
  Te2-  Te162  1  0.25087492  0.08144559  0.92329308  1
  Te2-  Te163  1  0.25255793  0.41536202  0.25181607  1
  Te2-  Te164  1  0.25447743  0.41795963  0.58847699  1
  Te2-  Te165  1  0.25740593  0.41185155  0.91984461  1
  Te2-  Te166  1  0.25704566  0.74667072  0.24908574  1
  Te2-  Te167  1  0.25489919  0.74788409  0.58651428  1
  Te2-  Te168  1  0.24896559  0.74581352  0.91796019  1
  Te2-  Te169  1  0.58421316  0.07975165  0.25015478  1
  Te2-  Te170  1  0.58328163  0.07836071  0.58374783  1
  Te2-  Te171  1  0.59082240  0.07750457  0.91877003  1
  Te2-  Te172  1  0.58488368  0.40740596  0.25669475  1
  Te2-  Te173  1  0.58735751  0.41166947  0.58388999  1
  Te2-  Te174  1  0.58374943  0.41666917  0.92418273  1
  Te2-  Te175  1  0.58189110  0.75072194  0.25267141  1
  Te2-  Te176  1  0.58691458  0.74355139  0.58804432  1
  Te2-  Te177  1  0.58647973  0.74544892  0.93047667  1
  Te2-  Te178  1  0.91663756  0.07535306  0.25323667  1
  Te2-  Te179  1  0.91731740  0.08295154  0.58513162  1
  Te2-  Te180  1  0.92511626  0.08303698  0.91557560  1
  Te2-  Te181  1  0.92373128  0.41669133  0.25578069  1
  Te2-  Te182  1  0.91947318  0.41529160  0.58505958  1
  Te2-  Te183  1  0.91535839  0.41213709  0.91845703  1
  Te2-  Te184  1  0.91963008  0.74813302  0.25180232  1
  Te2-  Te185  1  0.91996458  0.74891077  0.58425526  1
  Te2-  Te186  1  0.91831156  0.74923902  0.91704503  1
  Te2-  Te187  1  0.08326853  0.25820154  0.25555054  1
  Te2-  Te188  1  0.07801441  0.25426098  0.58403674  1
  Te2-  Te189  1  0.07581326  0.25202995  0.92609126  1
  Te2-  Te190  1  0.08200113  0.58638352  0.25112805  1
  Te2-  Te191  1  0.07991035  0.58935219  0.58361879  1
  Te2-  Te192  1  0.08253551  0.58456399  0.91879123  1
  Te2-  Te193  1  0.08061840  0.91598747  0.25553095  1
  Te2-  Te194  1  0.08060681  0.91848245  0.58618188  1
  Te2-  Te195  1  0.08185315  0.92047523  0.91497897  1
  Te2-  Te196  1  0.41407422  0.25486214  0.25259153  1
  Te2-  Te197  1  0.41471162  0.25440349  0.58784586  1
  Te2-  Te198  1  0.41945373  0.25061556  0.91791923  1
  Te2-  Te199  1  0.41301610  0.58375624  0.25250737  1
  Te2-  Te200  1  0.41566580  0.58430072  0.58753530  1
  Te2-  Te201  1  0.41044598  0.58816184  0.92163904  1
  Te2-  Te202  1  0.41091280  0.92165324  0.25428460  1
  Te2-  Te203  1  0.41301655  0.91654432  0.58683054  1
  Te2-  Te204  1  0.40632268  0.92461191  0.92118689  1
  Te2-  Te205  1  0.74189779  0.24784618  0.25392610  1
  Te2-  Te206  1  0.74389633  0.25430784  0.58171780  1
  Te2-  Te207  1  0.75111704  0.25470073  0.92111586  1
  Te2-  Te208  1  0.74997574  0.59105733  0.25580806  1
  Te2-  Te209  1  0.74624167  0.58458466  0.58732974  1
  Te2-  Te210  1  0.74429299  0.58066510  0.91993811  1
  Te2-  Te211  1  0.74683521  0.91823210  0.25193917  1
  Te2-  Te212  1  0.74823150  0.92447793  0.58337426  1
  Te2-  Te213  1  0.74726551  0.92202181  0.92169870  1
  Te2-  Te214  1  0.08097761  0.08562793  0.08166743  1
  Te2-  Te215  1  0.07777238  0.07752619  0.41662536  1
  Te2-  Te216  1  0.08352785  0.08368516  0.74614530  1
  Te2-  Te217  1  0.07753832  0.41219904  0.08188410  1
  Te2-  Te218  1  0.08316436  0.41514416  0.41595667  1
  Te2-  Te219  1  0.07991400  0.41112495  0.74415447  1
  Te2-  Te220  1  0.08264097  0.74929650  0.08083039  1
  Te2-  Te221  1  0.08106005  0.74839085  0.41427126  1
  Te2-  Te222  1  0.07896401  0.74962539  0.74529573  1
  Te2-  Te223  1  0.40720277  0.08465972  0.07317066  1
  Te2-  Te224  1  0.40749486  0.07997781  0.41495057  1
  Te2-  Te225  1  0.41398942  0.07781820  0.74677474  1
  Te2-  Te226  1  0.41534462  0.41265361  0.08138552  1
  Te2-  Te227  1  0.41682161  0.41682736  0.41211550  1
  Te2-  Te228  1  0.41566798  0.41521612  0.74852805  1
  Te2-  Te229  1  0.41125728  0.74427139  0.08027022  1
  Te2-  Te230  1  0.41550931  0.74257147  0.41271612  1
  Te2-  Te231  1  0.41306819  0.74594136  0.74793319  1
  Te2-  Te232  1  0.74829655  0.07744060  0.07951748  1
  Te2-  Te233  1  0.74932203  0.08378995  0.41092145  1
  Te2-  Te234  1  0.75019886  0.08224368  0.74390980  1
  Te2-  Te235  1  0.74844490  0.41309214  0.08461274  1
  Te2-  Te236  1  0.74417547  0.41094377  0.41594970  1
  Te2-  Te237  1  0.74547763  0.41414824  0.74246047  1
  Te2-  Te238  1  0.74390820  0.74371784  0.08296717  1
  Te2-  Te239  1  0.74862466  0.74915293  0.41232549  1
  Te2-  Te240  1  0.74541913  0.74276979  0.74428764  1
