# generated using pymatgen
data_Ti27(Cu53Te54)2
_symmetry_space_group_name_H-M   'P 1'
_cell_length_a   17.91542457
_cell_length_b   17.91860096
_cell_length_c   17.91560551
_cell_angle_alpha   90.05507626
_cell_angle_beta   89.98245174
_cell_angle_gamma   89.99627440
_symmetry_Int_Tables_number   1
_chemical_formula_structural   Ti27(Cu53Te54)2
_chemical_formula_sum   'Ti27 Cu106 Te108'
_cell_volume   5751.25298810
_cell_formula_units_Z   1
loop_
 _symmetry_equiv_pos_site_id
 _symmetry_equiv_pos_as_xyz
  1  'x, y, z'
loop_
 _atom_type_symbol
 _atom_type_oxidation_number
  Ti4+  4.0
  Cu+  1.0
  Te2-  -2.0
loop_
 _atom_site_type_symbol
 _atom_site_label
 _atom_site_symmetry_multiplicity
 _atom_site_fract_x
 _atom_site_fract_y
 _atom_site_fract_z
 _atom_site_occupancy
  Ti4+  Ti0  1  0.16653007  0.16527540  0.16455384  1
  Ti4+  Ti1  1  0.16825091  0.16620554  0.50267054  1
  Ti4+  Ti2  1  0.16648446  0.16587319  0.83401216  1
  Ti4+  Ti3  1  0.16460302  0.50315827  0.17131170  1
  Ti4+  Ti4  1  0.16790763  0.50060582  0.50009694  1
  Ti4+  Ti5  1  0.16538481  0.49980934  0.83427304  1
  Ti4+  Ti6  1  0.17083096  0.83302905  0.16528207  1
  Ti4+  Ti7  1  0.16758155  0.83440316  0.50059897  1
  Ti4+  Ti8  1  0.16750128  0.83298701  0.83207111  1
  Ti4+  Ti9  1  0.49785144  0.17190202  0.17128113  1
  Ti4+  Ti10  1  0.49892893  0.16363339  0.50420845  1
  Ti4+  Ti11  1  0.50022913  0.16602054  0.83512866  1
  Ti4+  Ti12  1  0.50145406  0.49842643  0.16468335  1
  Ti4+  Ti13  1  0.49640045  0.49853000  0.50363958  1
  Ti4+  Ti14  1  0.50266535  0.49918385  0.83479890  1
  Ti4+  Ti15  1  0.50275890  0.83946376  0.16618630  1
  Ti4+  Ti16  1  0.49757737  0.83022945  0.49988635  1
  Ti4+  Ti17  1  0.49987137  0.83118916  0.83451297  1
  Ti4+  Ti18  1  0.83349355  0.16756612  0.16723212  1
  Ti4+  Ti19  1  0.83374174  0.16526219  0.49879178  1
  Ti4+  Ti20  1  0.83310506  0.16769690  0.83156977  1
  Ti4+  Ti21  1  0.83458203  0.49468578  0.16539862  1
  Ti4+  Ti22  1  0.83229138  0.49927307  0.49504299  1
  Ti4+  Ti23  1  0.83445461  0.50203944  0.83098212  1
  Ti4+  Ti24  1  0.83475833  0.83475796  0.16322880  1
  Ti4+  Ti25  1  0.83316598  0.83461692  0.49525632  1
  Ti4+  Ti26  1  0.83242834  0.83303327  0.82907751  1
  Cu+  Cu27  1  0.16684192  0.16418158  -0.00269157  1
  Cu+  Cu28  1  0.16976745  0.16319339  0.33235479  1
  Cu+  Cu29  1  0.16401977  0.16923074  0.67089118  1
  Cu+  Cu30  1  0.16441550  0.50043778  0.00262610  1
  Cu+  Cu31  1  0.16332600  0.50578827  0.33819166  1
  Cu+  Cu32  1  0.16514751  0.50432709  0.66981699  1
  Cu+  Cu33  1  0.16746835  0.83626940  -0.00058511  1
  Cu+  Cu34  1  0.17087090  0.82812669  0.33421195  1
  Cu+  Cu35  1  0.17064660  0.83702617  0.66533759  1
  Cu+  Cu36  1  0.49841318  0.17003575  0.00061610  1
  Cu+  Cu37  1  0.49969405  0.16617567  0.34220144  1
  Cu+  Cu38  1  0.50173569  0.16227041  0.67051801  1
  Cu+  Cu39  1  0.50941505  0.49927294  -0.00060851  1
  Cu+  Cu40  1  0.49673014  0.49643463  0.33189250  1
  Cu+  Cu41  1  0.49771079  0.49550676  0.66844624  1
  Cu+  Cu42  1  0.50294807  0.83805130  0.00207700  1
  Cu+  Cu43  1  0.49691468  0.83592002  0.32999196  1
  Cu+  Cu44  1  0.50027784  0.82465106  0.66949473  1
  Cu+  Cu45  1  0.83272106  0.16837219  -0.00067088  1
  Cu+  Cu46  1  0.83505765  0.16532042  0.33290548  1
  Cu+  Cu47  1  0.83277197  0.16644629  0.66521459  1
  Cu+  Cu48  1  0.83508415  0.49909767  -0.00272980  1
  Cu+  Cu49  1  0.83612283  0.49093640  0.33133809  1
  Cu+  Cu50  1  0.83219561  0.50103862  0.66332385  1
  Cu+  Cu51  1  0.83321649  0.83321687  -0.00368838  1
  Cu+  Cu52  1  0.83425273  0.83581277  0.32996419  1
  Cu+  Cu53  1  0.83269136  0.83459735  0.66097430  1
  Cu+  Cu54  1  0.16595324  -0.00390975  0.15962234  1
  Cu+  Cu55  1  0.17075948  0.00086786  0.50564553  1
  Cu+  Cu56  1  0.16802642  0.00142114  0.83322657  1
  Cu+  Cu57  1  0.16643056  0.33428542  0.16909960  1
  Cu+  Cu58  1  0.16981606  0.33349667  0.50396155  1
  Cu+  Cu59  1  0.16447105  0.33216387  0.83291539  1
  Cu+  Cu60  1  0.16524793  0.67039633  0.17246674  1
  Cu+  Cu61  1  0.16613775  0.66718753  0.49524771  1
  Cu+  Cu62  1  0.16423180  0.66659467  0.83255084  1
  Cu+  Cu63  1  0.50264349  0.00605956  0.16815725  1
  Cu+  Cu64  1  0.49930832  -0.00350969  0.49648002  1
  Cu+  Cu65  1  0.50049797  -0.00062363  0.83660630  1
  Cu+  Cu66  1  0.49405581  0.33467231  0.16139013  1
  Cu+  Cu67  1  0.49432210  0.33287472  0.50771590  1
  Cu+  Cu68  1  0.50200629  0.33081264  0.83329849  1
  Cu+  Cu69  1  0.50568992  0.67008836  0.16609880  1
  Cu+  Cu70  1  0.49193958  0.66490873  0.50355472  1
  Cu+  Cu71  1  0.50640469  0.66417773  0.83555288  1
  Cu+  Cu72  1  0.83514541  0.00280165  0.16317604  1
  Cu+  Cu73  1  0.83636701  -0.00076537  0.49854817  1
  Cu+  Cu74  1  0.83157053  0.00162088  0.83127146  1
  Cu+  Cu75  1  0.83019652  0.33136149  0.16867365  1
  Cu+  Cu76  1  0.83380961  0.33237286  0.49416895  1
  Cu+  Cu77  1  0.83295379  0.33570783  0.83147309  1
  Cu+  Cu78  1  0.83166417  0.66530416  0.16225721  1
  Cu+  Cu79  1  0.82930085  0.66874164  0.49527440  1
  Cu+  Cu80  1  0.83474656  0.66753327  0.82998261  1
  Cu+  Cu81  1  -0.00037735  0.16538330  0.16508823  1
  Cu+  Cu82  1  0.00313732  0.16481464  0.50103952  1
  Cu+  Cu83  1  -0.00047643  0.16772422  0.83109714  1
  Cu+  Cu84  1  -0.00292227  0.50528963  0.17402911  1
  Cu+  Cu85  1  -0.00110822  0.49743299  0.49422824  1
  Cu+  Cu86  1  0.00016078  0.50314970  0.82969634  1
  Cu+  Cu87  1  0.00347179  0.83603037  0.16118164  1
  Cu+  Cu88  1  -0.00501750  0.83952472  0.50128080  1
  Cu+  Cu89  1  -0.00058453  0.83313788  0.82985129  1
  Cu+  Cu90  1  0.32895454  0.17507881  0.16921262  1
  Cu+  Cu91  1  0.33398508  0.16717817  0.50347787  1
  Cu+  Cu92  1  0.33269741  0.16485886  0.83506433  1
  Cu+  Cu93  1  0.33144141  0.49912511  0.16714401  1
  Cu+  Cu94  1  0.33648366  0.50026518  0.50419658  1
  Cu+  Cu95  1  0.33196938  0.49857467  0.83755067  1
  Cu+  Cu96  1  0.33837640  0.83428159  0.16896655  1
  Cu+  Cu97  1  0.33246074  0.83387485  0.50098688  1
  Cu+  Cu98  1  0.33355049  0.83243415  0.83499673  1
  Cu+  Cu99  1  0.66810726  0.16877887  0.17071538  1
  Cu+  Cu100  1  0.66573541  0.16115812  0.50034270  1
  Cu+  Cu101  1  0.66658614  0.16599386  0.83482616  1
  Cu+  Cu102  1  0.66794858  0.48957705  0.16367010  1
  Cu+  Cu103  1  0.66104291  0.50113902  0.49801760  1
  Cu+  Cu104  1  0.66870894  0.50433739  0.83665877  1
  Cu+  Cu105  1  0.66770062  0.83871763  0.16316359  1
  Cu+  Cu106  1  0.67132888  0.82761453  0.50055499  1
  Cu+  Cu107  1  0.66489092  0.83035198  0.82801820  1
  Cu+  Cu108  1  0.41383973  0.74062378  0.25003116  1
  Cu+  Cu109  1  0.07006162  0.26046427  0.74202121  1
  Cu+  Cu110  1  0.74777013  0.73741198  0.59153073  1
  Cu+  Cu111  1  0.59951067  0.59648263  0.92912694  1
  Cu+  Cu112  1  0.40376535  0.40974236  0.25575608  1
  Cu+  Cu113  1  0.25809426  0.73974751  0.40812008  1
  Cu+  Cu114  1  0.73837221  0.40316230  0.26078738  1
  Cu+  Cu115  1  0.40090370  0.25567809  0.06850262  1
  Cu+  Cu116  1  0.40629674  0.92475498  0.40398982  1
  Cu+  Cu117  1  0.59759973  0.40231275  0.06839896  1
  Cu+  Cu118  1  0.92295724  0.93015866  0.59431269  1
  Cu+  Cu119  1  0.40357357  0.74098714  0.59845365  1
  Cu+  Cu120  1  0.07126339  0.59842844  0.74500517  1
  Cu+  Cu121  1  0.40459103  0.40195176  0.60184957  1
  Cu+  Cu122  1  0.07294583  0.92703070  0.06750102  1
  Cu+  Cu123  1  0.40887758  0.25814530  0.41670575  1
  Cu+  Cu124  1  0.90938665  0.59657660  0.25904960  1
  Cu+  Cu125  1  0.06969814  0.75381803  0.25962138  1
  Cu+  Cu126  1  0.06849129  0.59613246  0.41400692  1
  Cu+  Cu127  1  0.93096016  0.39930337  0.40666937  1
  Cu+  Cu128  1  0.59722733  0.06807717  0.41116307  1
  Cu+  Cu129  1  0.26281527  0.93050197  0.59676589  1
  Cu+  Cu130  1  0.24716386  0.26244633  0.26359766  1
  Cu+  Cu131  1  0.59359490  0.73576082  0.74114968  1
  Cu+  Cu132  1  0.41343886  0.58928259  0.40376008  1
  Te2-  Te133  1  0.24842056  0.25579684  0.07644361  1
  Te2-  Te134  1  0.25407939  0.25428495  0.41560431  1
  Te2-  Te135  1  0.25384867  0.25209851  0.74997849  1
  Te2-  Te136  1  0.24883344  0.58627083  0.08537412  1
  Te2-  Te137  1  0.25850782  0.58595503  0.41316812  1
  Te2-  Te138  1  0.25395506  0.58522675  0.75090355  1
  Te2-  Te139  1  0.25847876  0.91671199  0.08024327  1
  Te2-  Te140  1  0.25190114  0.92210637  0.41256424  1
  Te2-  Te141  1  0.25573393  0.92055678  0.74932015  1
  Te2-  Te142  1  0.58723298  0.25203904  0.08296876  1
  Te2-  Te143  1  0.58356189  0.25425308  0.42216600  1
  Te2-  Te144  1  0.58627111  0.24990487  0.74832832  1
  Te2-  Te145  1  0.59150498  0.58704812  0.08439017  1
  Te2-  Te146  1  0.57858274  0.58556894  0.41449991  1
  Te2-  Te147  1  0.58752223  0.58218534  0.74361058  1
  Te2-  Te148  1  0.58655925  0.92599194  0.08092829  1
  Te2-  Te149  1  0.58832958  0.91304751  0.41483807  1
  Te2-  Te150  1  0.58197867  0.91785400  0.74696369  1
  Te2-  Te151  1  0.91821948  0.25282760  0.08189260  1
  Te2-  Te152  1  0.92281013  0.24824102  0.41309568  1
  Te2-  Te153  1  0.91754387  0.25485938  0.74428041  1
  Te2-  Te154  1  0.91884290  0.58293764  0.08020833  1
  Te2-  Te155  1  0.91716690  0.59058933  0.41011298  1
  Te2-  Te156  1  0.91860383  0.58806162  0.74192331  1
  Te2-  Te157  1  0.91916919  0.92051317  0.07646916  1
  Te2-  Te158  1  0.91959690  0.92101123  0.40901345  1
  Te2-  Te159  1  0.91838783  0.92036925  0.74575321  1
  Te2-  Te160  1  0.25173459  0.07735973  0.24686780  1
  Te2-  Te161  1  0.25422405  0.08404882  0.59204762  1
  Te2-  Te162  1  0.25300700  0.07966043  0.91931682  1
  Te2-  Te163  1  0.25078056  0.41631824  0.25879845  1
  Te2-  Te164  1  0.25175874  0.41642859  0.58978545  1
  Te2-  Te165  1  0.24823037  0.41404091  0.92085585  1
  Te2-  Te166  1  0.25967283  0.74431554  0.25359946  1
  Te2-  Te167  1  0.25087655  0.74377886  0.58699823  1
  Te2-  Te168  1  0.24982582  0.74756041  0.91819578  1
  Te2-  Te169  1  0.58531987  0.08535792  0.25618996  1
  Te2-  Te170  1  0.58412730  0.07596921  0.58691193  1
  Te2-  Te171  1  0.58469664  0.08234352  0.92193433  1
  Te2-  Te172  1  0.58335227  0.40961392  0.25368401  1
  Te2-  Te173  1  0.58576411  0.41390466  0.58619831  1
  Te2-  Te174  1  0.59078643  0.40979053  0.91641753  1
  Te2-  Te175  1  0.58890109  0.75343888  0.25173971  1
  Te2-  Te176  1  0.58764370  0.74189724  0.58407464  1
  Te2-  Te177  1  0.58870929  0.74936719  0.92347672  1
  Te2-  Te178  1  0.91965524  0.08109954  0.25094218  1
  Te2-  Te179  1  0.92059209  0.08176843  0.58623926  1
  Te2-  Te180  1  0.91762580  0.08254715  0.91694451  1
  Te2-  Te181  1  0.92431438  0.40677965  0.25130903  1
  Te2-  Te182  1  0.91676183  0.41535007  0.58171281  1
  Te2-  Te183  1  0.92044318  0.41643990  0.91457741  1
  Te2-  Te184  1  0.91986466  0.74810618  0.25147170  1
  Te2-  Te185  1  0.91834815  0.74565994  0.58169501  1
  Te2-  Te186  1  0.91833967  0.74926134  0.91463550  1
  Te2-  Te187  1  0.08141062  0.24910800  0.25236689  1
  Te2-  Te188  1  0.08085085  0.25351406  0.58562221  1
  Te2-  Te189  1  0.08007897  0.25133724  0.92014352  1
  Te2-  Te190  1  0.07705056  0.59260548  0.25879194  1
  Te2-  Te191  1  0.07924342  0.58622398  0.58308755  1
  Te2-  Te192  1  0.07995494  0.58545283  0.92021784  1
  Te2-  Te193  1  0.08553507  0.91715546  0.25417975  1
  Te2-  Te194  1  0.08038048  0.92034333  0.58679699  1
  Te2-  Te195  1  0.08011839  0.91957539  0.91540021  1
  Te2-  Te196  1  0.40968307  0.25720652  0.26098598  1
  Te2-  Te197  1  0.41233005  0.24851990  0.59480340  1
  Te2-  Te198  1  0.41199388  0.25463164  0.91785561  1
  Te2-  Te199  1  0.41376222  0.58774853  0.24971864  1
  Te2-  Te200  1  0.41112242  0.58619576  0.59460343  1
  Te2-  Te201  1  0.41759526  0.58315786  0.92072848  1
  Te2-  Te202  1  0.41360512  0.92761472  0.25146595  1
  Te2-  Te203  1  0.41706321  0.91764373  0.59026767  1
  Te2-  Te204  1  0.41518492  0.91719549  0.91940750  1
  Te2-  Te205  1  0.74674609  0.25183150  0.25783025  1
  Te2-  Te206  1  0.74828975  0.25081567  0.58132740  1
  Te2-  Te207  1  0.74882250  0.25342460  0.91689878  1
  Te2-  Te208  1  0.74718981  0.58018181  0.25010053  1
  Te2-  Te209  1  0.74567465  0.58408887  0.58154219  1
  Te2-  Te210  1  0.75177364  0.58977312  0.92050789  1
  Te2-  Te211  1  0.75108967  0.92084788  0.24802685  1
  Te2-  Te212  1  0.74629832  0.92124478  0.58191884  1
  Te2-  Te213  1  0.74653749  0.91660946  0.91347845  1
  Te2-  Te214  1  0.07941403  0.08071360  0.07776771  1
  Te2-  Te215  1  0.08630619  0.08008931  0.41681287  1
  Te2-  Te216  1  0.08066914  0.07911189  0.74816620  1
  Te2-  Te217  1  0.07939246  0.41806656  0.08794715  1
  Te2-  Te218  1  0.08494145  0.40987108  0.41402585  1
  Te2-  Te219  1  0.07948599  0.41380834  0.74539254  1
  Te2-  Te220  1  0.08493117  0.74683910  0.07921070  1
  Te2-  Te221  1  0.07422250  0.75034707  0.41497374  1
  Te2-  Te222  1  0.08142373  0.75028112  0.74300612  1
  Te2-  Te223  1  0.41356240  0.08690066  0.08593724  1
  Te2-  Te224  1  0.40906514  0.07855782  0.41597886  1
  Te2-  Te225  1  0.41489600  0.07926575  0.75107922  1
  Te2-  Te226  1  0.41111342  0.41784224  0.07540518  1
  Te2-  Te227  1  0.40930713  0.41105621  0.41379808  1
  Te2-  Te228  1  0.41288208  0.41224171  0.75301144  1
  Te2-  Te229  1  0.41875906  0.75011903  0.08090194  1
  Te2-  Te230  1  0.41111021  0.74383243  0.40829722  1
  Te2-  Te231  1  0.41151181  0.74156719  0.75232250  1
  Te2-  Te232  1  0.74679339  0.08439472  0.08160920  1
  Te2-  Te233  1  0.74967505  0.07799750  0.41226236  1
  Te2-  Te234  1  0.74680749  0.08276598  0.74667817  1
  Te2-  Te235  1  0.75100904  0.40913864  0.07427485  1
  Te2-  Te236  1  0.74157267  0.41340731  0.41385517  1
  Te2-  Te237  1  0.74728381  0.41799278  0.74740471  1
  Te2-  Te238  1  0.74829830  0.74959519  0.08026854  1
  Te2-  Te239  1  0.74799350  0.74871706  0.40642261  1
  Te2-  Te240  1  0.74691616  0.74350007  0.74227948  1
