# generated using pymatgen
data_Ti27(Cu53Te54)2
_symmetry_space_group_name_H-M   'P 1'
_cell_length_a   17.87100114
_cell_length_b   17.87181737
_cell_length_c   17.87078979
_cell_angle_alpha   90.00555934
_cell_angle_beta   89.98906851
_cell_angle_gamma   90.00044213
_symmetry_Int_Tables_number   1
_chemical_formula_structural   Ti27(Cu53Te54)2
_chemical_formula_sum   'Ti27 Cu106 Te108'
_cell_volume   5707.70260993
_cell_formula_units_Z   1
loop_
 _symmetry_equiv_pos_site_id
 _symmetry_equiv_pos_as_xyz
  1  'x, y, z'
loop_
 _atom_type_symbol
 _atom_type_oxidation_number
  Ti4+  4.0
  Cu+  1.0
  Te2-  -2.0
loop_
 _atom_site_type_symbol
 _atom_site_label
 _atom_site_symmetry_multiplicity
 _atom_site_fract_x
 _atom_site_fract_y
 _atom_site_fract_z
 _atom_site_occupancy
  Ti4+  Ti0  1  0.16457713  0.16496043  0.16836119  1
  Ti4+  Ti1  1  0.17039609  0.17190676  0.49982459  1
  Ti4+  Ti2  1  0.16653947  0.16609173  0.83346069  1
  Ti4+  Ti3  1  0.16376342  0.49880317  0.16926561  1
  Ti4+  Ti4  1  0.16358992  0.49862251  0.50238885  1
  Ti4+  Ti5  1  0.16890628  0.49981322  0.83360391  1
  Ti4+  Ti6  1  0.16464238  0.83056698  0.16497724  1
  Ti4+  Ti7  1  0.16464103  0.83543960  0.49874346  1
  Ti4+  Ti8  1  0.16655385  0.83459315  0.83213467  1
  Ti4+  Ti9  1  0.49986044  0.16833972  0.16554335  1
  Ti4+  Ti10  1  0.50538358  0.16200677  0.50234372  1
  Ti4+  Ti11  1  0.49731904  0.16707253  0.82923981  1
  Ti4+  Ti12  1  0.50044625  0.50250040  0.16710984  1
  Ti4+  Ti13  1  0.50026671  0.50060331  0.50164137  1
  Ti4+  Ti14  1  0.50040401  0.49827099  0.83540761  1
  Ti4+  Ti15  1  0.49901757  0.83651834  0.16611436  1
  Ti4+  Ti16  1  0.49922661  0.83182478  0.50066727  1
  Ti4+  Ti17  1  0.49841406  0.83268820  0.83544357  1
  Ti4+  Ti18  1  0.83217165  0.16597006  0.16511858  1
  Ti4+  Ti19  1  0.83575778  0.16842838  0.50154801  1
  Ti4+  Ti20  1  0.83342573  0.16530660  0.83046861  1
  Ti4+  Ti21  1  0.83423023  0.49967109  0.16474149  1
  Ti4+  Ti22  1  0.83482566  0.50092984  0.49976802  1
  Ti4+  Ti23  1  0.83263974  0.49894455  0.83143821  1
  Ti4+  Ti24  1  0.83213176  0.83369741  0.16576234  1
  Ti4+  Ti25  1  0.83393887  0.83291092  0.50076576  1
  Ti4+  Ti26  1  0.83301031  0.83393857  0.83663337  1
  Cu+  Cu27  1  0.16351338  0.16554995  0.00186034  1
  Cu+  Cu28  1  0.17119486  0.17557673  0.33139639  1
  Cu+  Cu29  1  0.16754541  0.16498420  0.66724973  1
  Cu+  Cu30  1  0.16703709  0.49821670  0.00114033  1
  Cu+  Cu31  1  0.16361807  0.49829318  0.34014841  1
  Cu+  Cu32  1  0.16800219  0.49916765  0.66816412  1
  Cu+  Cu33  1  0.16323297  0.82925346  -0.00399701  1
  Cu+  Cu34  1  0.16854507  0.83498626  0.32912398  1
  Cu+  Cu35  1  0.16325031  0.83370930  0.66418037  1
  Cu+  Cu36  1  0.49577594  0.16928903  -0.00346312  1
  Cu+  Cu37  1  0.50167855  0.16765531  0.33521690  1
  Cu+  Cu38  1  0.50736930  0.15836679  0.66578037  1
  Cu+  Cu39  1  0.50416119  0.49577040  0.00338125  1
  Cu+  Cu40  1  0.50096587  0.50348218  0.33162388  1
  Cu+  Cu41  1  0.49613179  0.49951056  0.66987436  1
  Cu+  Cu42  1  0.50121520  0.83340534  0.00116464  1
  Cu+  Cu43  1  0.49814290  0.83486148  0.33471812  1
  Cu+  Cu44  1  0.50028663  0.83227721  0.66669751  1
  Cu+  Cu45  1  0.83152994  0.16511989  -0.00200398  1
  Cu+  Cu46  1  0.83388187  0.16510028  0.33128575  1
  Cu+  Cu47  1  0.83349256  0.16654570  0.66289072  1
  Cu+  Cu48  1  0.83189744  0.49702716  -0.00611513  1
  Cu+  Cu49  1  0.83607169  0.50096241  0.33120247  1
  Cu+  Cu50  1  0.83315742  0.50067028  0.66671254  1
  Cu+  Cu51  1  0.83555081  0.83914403  0.00158747  1
  Cu+  Cu52  1  0.83093253  0.83388101  0.33563665  1
  Cu+  Cu53  1  0.83475785  0.83239337  0.67139328  1
  Cu+  Cu54  1  0.16779293  -0.00442372  0.16934715  1
  Cu+  Cu55  1  0.16596268  0.00535183  0.49968063  1
  Cu+  Cu56  1  0.16841737  -0.00004994  0.82905032  1
  Cu+  Cu57  1  0.16265259  0.33016649  0.16877291  1
  Cu+  Cu58  1  0.16796791  0.33487933  0.49230435  1
  Cu+  Cu59  1  0.16956008  0.33400630  0.83478463  1
  Cu+  Cu60  1  0.16283041  0.66314143  0.16465370  1
  Cu+  Cu61  1  0.16060607  0.66878523  0.50264474  1
  Cu+  Cu62  1  0.16727264  0.66888308  0.83356209  1
  Cu+  Cu63  1  0.49763354  0.00368064  0.16729711  1
  Cu+  Cu64  1  0.49849993  -0.00435464  0.50343001  1
  Cu+  Cu65  1  0.49570641  0.00044905  0.83239846  1
  Cu+  Cu66  1  0.50199201  0.33870681  0.16453025  1
  Cu+  Cu67  1  0.50347505  0.33303900  0.50117339  1
  Cu+  Cu68  1  0.50263285  0.33050935  0.83632435  1
  Cu+  Cu69  1  0.50068950  0.67051082  0.16572928  1
  Cu+  Cu70  1  0.49899794  0.66722088  0.50065855  1
  Cu+  Cu71  1  0.49671488  0.66318967  0.83384042  1
  Cu+  Cu72  1  0.82763471  0.00036058  0.16427377  1
  Cu+  Cu73  1  0.83326418  -0.00178938  0.50010234  1
  Cu+  Cu74  1  0.83569726  -0.00228447  0.83840994  1
  Cu+  Cu75  1  0.83352367  0.33188747  0.16624605  1
  Cu+  Cu76  1  0.83984134  0.33595288  0.50040913  1
  Cu+  Cu77  1  0.83139256  0.33434441  0.82881687  1
  Cu+  Cu78  1  0.83719264  0.66539863  0.16655806  1
  Cu+  Cu79  1  0.83202523  0.66853158  0.50092568  1
  Cu+  Cu80  1  0.83157976  0.66353232  0.83250017  1
  Cu+  Cu81  1  -0.00233949  0.16363248  0.16266348  1
  Cu+  Cu82  1  0.00219786  0.17366945  0.50480306  1
  Cu+  Cu83  1  0.00077821  0.16737614  0.83119542  1
  Cu+  Cu84  1  -0.00114346  0.50447835  0.16773734  1
  Cu+  Cu85  1  0.00173735  0.50458438  0.49862514  1
  Cu+  Cu86  1  -0.00249296  0.49843134  0.83150699  1
  Cu+  Cu87  1  -0.00389523  0.82690714  0.16264694  1
  Cu+  Cu88  1  -0.00105224  0.83231735  0.50243338  1
  Cu+  Cu89  1  0.00016752  0.83546311  0.83977367  1
  Cu+  Cu90  1  0.33176456  0.16675043  0.16991752  1
  Cu+  Cu91  1  0.34294882  0.16648561  0.49903438  1
  Cu+  Cu92  1  0.33186881  0.16265205  0.83387915  1
  Cu+  Cu93  1  0.33528747  0.50123114  0.17185320  1
  Cu+  Cu94  1  0.33107257  0.49669933  0.50453565  1
  Cu+  Cu95  1  0.33560232  0.50302425  0.83364780  1
  Cu+  Cu96  1  0.33075201  0.83552216  0.16894719  1
  Cu+  Cu97  1  0.33188757  0.83445956  0.49568387  1
  Cu+  Cu98  1  0.33172380  0.83571944  0.83058491  1
  Cu+  Cu99  1  0.66689420  0.16774569  0.16707636  1
  Cu+  Cu100  1  0.66987766  0.16569460  0.50894521  1
  Cu+  Cu101  1  0.66548591  0.16667427  0.82652727  1
  Cu+  Cu102  1  0.66793999  0.49892153  0.16352772  1
  Cu+  Cu103  1  0.66879449  0.49889067  0.49836472  1
  Cu+  Cu104  1  0.66780613  0.49857172  0.83194783  1
  Cu+  Cu105  1  0.66464819  0.83581234  0.16129634  1
  Cu+  Cu106  1  0.66490026  0.83354903  0.50197036  1
  Cu+  Cu107  1  0.66653164  0.83130804  0.83734129  1
  Cu+  Cu108  1  0.06903984  0.25415915  0.06952010  1
  Cu+  Cu109  1  0.40642843  0.06815044  0.59093966  1
  Cu+  Cu110  1  0.07049056  0.25700501  0.40481236  1
  Cu+  Cu111  1  0.91931853  0.73784972  0.07079200  1
  Cu+  Cu112  1  0.40608557  0.59380574  0.73977063  1
  Cu+  Cu113  1  0.93135061  0.26679350  0.59557924  1
  Cu+  Cu114  1  0.40496068  0.07365917  0.92840193  1
  Cu+  Cu115  1  0.73520334  0.93081863  0.07361014  1
  Cu+  Cu116  1  0.59744043  0.40596329  0.07600568  1
  Cu+  Cu117  1  0.59421891  0.26481489  0.59074924  1
  Cu+  Cu118  1  0.07470967  0.07694114  0.59299175  1
  Cu+  Cu119  1  0.07524130  0.58619111  0.06999317  1
  Cu+  Cu120  1  0.74589437  0.06750746  0.59125477  1
  Cu+  Cu121  1  0.07321425  0.73711022  0.92133867  1
  Cu+  Cu122  1  0.26116205  0.92581201  0.26035177  1
  Cu+  Cu123  1  0.07479361  0.59936338  0.41063759  1
  Cu+  Cu124  1  0.42083567  0.26098220  0.40848168  1
  Cu+  Cu125  1  0.07010457  0.73949146  0.59546453  1
  Cu+  Cu126  1  0.26300278  0.26399194  0.24993223  1
  Cu+  Cu127  1  0.26273129  0.41498530  0.40902781  1
  Cu+  Cu128  1  0.93175034  0.93247658  0.92999922  1
  Cu+  Cu129  1  0.92386490  0.59482383  0.26181731  1
  Cu+  Cu130  1  0.59087100  0.74038515  0.07220260  1
  Cu+  Cu131  1  0.59540746  0.25118982  0.92504842  1
  Cu+  Cu132  1  0.59455789  0.06608531  0.74677146  1
  Te2-  Te133  1  0.25121344  0.25186325  0.08229479  1
  Te2-  Te134  1  0.26404488  0.25600537  0.41190288  1
  Te2-  Te135  1  0.25256354  0.25040370  0.74873293  1
  Te2-  Te136  1  0.25220934  0.58190506  0.08454191  1
  Te2-  Te137  1  0.25076508  0.58670941  0.41890303  1
  Te2-  Te138  1  0.25211860  0.58827315  0.74673383  1
  Te2-  Te139  1  0.24887791  0.91542956  0.07776359  1
  Te2-  Te140  1  0.25080497  0.92318288  0.41386340  1
  Te2-  Te141  1  0.25113178  0.91838357  0.74340707  1
  Te2-  Te142  1  0.58773502  0.25275065  0.07847827  1
  Te2-  Te143  1  0.59163616  0.24989181  0.41661918  1
  Te2-  Te144  1  0.58619730  0.25572029  0.74312106  1
  Te2-  Te145  1  0.58802987  0.58820621  0.07985741  1
  Te2-  Te146  1  0.58506271  0.58507399  0.41684469  1
  Te2-  Te147  1  0.58525335  0.58432360  0.74868299  1
  Te2-  Te148  1  0.58260606  0.92641012  0.07847674  1
  Te2-  Te149  1  0.58476640  0.91869379  0.41598985  1
  Te2-  Te150  1  0.58630004  0.91595553  0.74966251  1
  Te2-  Te151  1  0.91693924  0.25280937  0.07711679  1
  Te2-  Te152  1  0.91885834  0.25291368  0.41044739  1
  Te2-  Te153  1  0.91928044  0.25254403  0.74643697  1
  Te2-  Te154  1  0.91956959  0.58434560  0.07221078  1
  Te2-  Te155  1  0.91974125  0.59161557  0.41377059  1
  Te2-  Te156  1  0.91891307  0.58599389  0.74705120  1
  Te2-  Te157  1  0.92261181  0.92407620  0.08330059  1
  Te2-  Te158  1  0.91894782  0.91855367  0.41488986  1
  Te2-  Te159  1  0.91999828  0.91792883  0.75030704  1
  Te2-  Te160  1  0.25232347  0.07928682  0.25592366  1
  Te2-  Te161  1  0.25591066  0.08298914  0.58432492  1
  Te2-  Te162  1  0.24976214  0.07855750  0.92147594  1
  Te2-  Te163  1  0.25309036  0.41434065  0.25573331  1
  Te2-  Te164  1  0.24936010  0.41054388  0.58770753  1
  Te2-  Te165  1  0.25438544  0.41637925  0.91955790  1
  Te2-  Te166  1  0.25013725  0.74358297  0.24959149  1
  Te2-  Te167  1  0.25084820  0.74940954  0.58282732  1
  Te2-  Te168  1  0.25459477  0.74915240  0.91717263  1
  Te2-  Te169  1  0.58435051  0.08389668  0.25170148  1
  Te2-  Te170  1  0.59254138  0.06890381  0.58837409  1
  Te2-  Te171  1  0.58494472  0.08214846  0.91698348  1
  Te2-  Te172  1  0.58724883  0.41670618  0.25338129  1
  Te2-  Te173  1  0.58698297  0.41728910  0.58831308  1
  Te2-  Te174  1  0.59130537  0.41090437  0.92033515  1
  Te2-  Te175  1  0.58589136  0.75253307  0.25184928  1
  Te2-  Te176  1  0.58504023  0.74672102  0.58657715  1
  Te2-  Te177  1  0.58430570  0.74399759  0.91863604  1
  Te2-  Te178  1  0.91663670  0.07849915  0.24923631  1
  Te2-  Te179  1  0.92245693  0.07874410  0.58546678  1
  Te2-  Te180  1  0.92140794  0.08419287  0.91947603  1
  Te2-  Te181  1  0.91971240  0.41320751  0.24974683  1
  Te2-  Te182  1  0.92375050  0.41873933  0.58769735  1
  Te2-  Te183  1  0.91858775  0.41122466  0.91617539  1
  Te2-  Te184  1  0.91821251  0.74885415  0.25671500  1
  Te2-  Te185  1  0.91792884  0.74579761  0.58938072  1
  Te2-  Te186  1  0.91819397  0.74193536  0.92035468  1
  Te2-  Te187  1  0.07349750  0.25187036  0.25261682  1
  Te2-  Te188  1  0.08683644  0.25945948  0.58974479  1
  Te2-  Te189  1  0.08019034  0.25381953  0.91759067  1
  Te2-  Te190  1  0.07981013  0.58820719  0.25833926  1
  Te2-  Te191  1  0.07876756  0.58539065  0.59237616  1
  Te2-  Te192  1  0.07798390  0.58457805  0.91803385  1
  Te2-  Te193  1  0.07563315  0.91451398  0.24884656  1
  Te2-  Te194  1  0.07923418  0.92335571  0.58498755  1
  Te2-  Te195  1  0.08377052  0.92496780  0.92074936  1
  Te2-  Te196  1  0.41665447  0.25746868  0.25277577  1
  Te2-  Te197  1  0.42020407  0.24999445  0.59027796  1
  Te2-  Te198  1  0.40958397  0.25336173  0.91573168  1
  Te2-  Te199  1  0.41583347  0.59003252  0.25269046  1
  Te2-  Te200  1  0.41146524  0.58581227  0.58539414  1
  Te2-  Te201  1  0.41709331  0.58262396  0.92491676  1
  Te2-  Te202  1  0.41366493  0.92233989  0.25414411  1
  Te2-  Te203  1  0.40998864  0.91563061  0.58857154  1
  Te2-  Te204  1  0.41200420  0.91885958  0.92082716  1
  Te2-  Te205  1  0.74857434  0.25208558  0.25211645  1
  Te2-  Te206  1  0.74989256  0.25943318  0.58698871  1
  Te2-  Te207  1  0.74797513  0.25141479  0.91547297  1
  Te2-  Te208  1  0.74753202  0.58526588  0.24937742  1
  Te2-  Te209  1  0.74829549  0.58483886  0.58445057  1
  Te2-  Te210  1  0.74607788  0.58474191  0.91807700  1
  Te2-  Te211  1  0.74587452  0.91754184  0.25229292  1
  Te2-  Te212  1  0.74807347  0.91589818  0.58958754  1
  Te2-  Te213  1  0.74299382  0.92068881  0.92112971  1
  Te2-  Te214  1  0.08222351  0.07567525  0.08298394  1
  Te2-  Te215  1  0.08276958  0.08939882  0.41325599  1
  Te2-  Te216  1  0.07954066  0.07973525  0.74698910  1
  Te2-  Te217  1  0.07847783  0.41245871  0.08236559  1
  Te2-  Te218  1  0.07370560  0.41173782  0.41331025  1
  Te2-  Te219  1  0.08302791  0.41423603  0.74957292  1
  Te2-  Te220  1  0.07631329  0.74145605  0.07615029  1
  Te2-  Te221  1  0.07926320  0.75172063  0.40927696  1
  Te2-  Te222  1  0.07705069  0.74828197  0.74825523  1
  Te2-  Te223  1  0.41146393  0.08318374  0.08159089  1
  Te2-  Te224  1  0.41870327  0.07729330  0.41319366  1
  Te2-  Te225  1  0.40981297  0.07856450  0.74324671  1
  Te2-  Te226  1  0.41134249  0.41657950  0.08280121  1
  Te2-  Te227  1  0.41590311  0.41438333  0.41223534  1
  Te2-  Te228  1  0.41450625  0.41057921  0.75161974  1
  Te2-  Te229  1  0.41126921  0.75112775  0.08240801  1
  Te2-  Te230  1  0.41379467  0.74711400  0.41389790  1
  Te2-  Te231  1  0.41329123  0.74824307  0.74775528  1
  Te2-  Te232  1  0.74312196  0.08305003  0.07742060  1
  Te2-  Te233  1  0.74864098  0.08351973  0.41653772  1
  Te2-  Te234  1  0.74918809  0.07485226  0.74616561  1
  Te2-  Te235  1  0.74997555  0.41162242  0.07803087  1
  Te2-  Te236  1  0.75221550  0.41473831  0.41332121  1
  Te2-  Te237  1  0.74636071  0.41441280  0.74418389  1
  Te2-  Te238  1  0.74826457  0.74501147  0.07832428  1
  Te2-  Te239  1  0.74622128  0.74889258  0.41632418  1
  Te2-  Te240  1  0.74766282  0.74849582  0.75076890  1
