# generated using pymatgen
data_Ti27(Cu53Te54)2
_symmetry_space_group_name_H-M   'P 1'
_cell_length_a   17.87097378
_cell_length_b   17.87308999
_cell_length_c   17.87042240
_cell_angle_alpha   89.96555859
_cell_angle_beta   89.98142087
_cell_angle_gamma   89.98688415
_symmetry_Int_Tables_number   1
_chemical_formula_structural   Ti27(Cu53Te54)2
_chemical_formula_sum   'Ti27 Cu106 Te108'
_cell_volume   5707.98160844
_cell_formula_units_Z   1
loop_
 _symmetry_equiv_pos_site_id
 _symmetry_equiv_pos_as_xyz
  1  'x, y, z'
loop_
 _atom_type_symbol
 _atom_type_oxidation_number
  Ti4+  4.0
  Cu+  1.0
  Te2-  -2.0
loop_
 _atom_site_type_symbol
 _atom_site_label
 _atom_site_symmetry_multiplicity
 _atom_site_fract_x
 _atom_site_fract_y
 _atom_site_fract_z
 _atom_site_occupancy
  Ti4+  Ti0  1  0.16370515  0.16684526  0.16673724  1
  Ti4+  Ti1  1  0.16790187  0.16978417  0.50058407  1
  Ti4+  Ti2  1  0.16711943  0.16726228  0.83339722  1
  Ti4+  Ti3  1  0.16676835  0.49630660  0.16816261  1
  Ti4+  Ti4  1  0.16442068  0.50377482  0.49710238  1
  Ti4+  Ti5  1  0.16803268  0.49776086  0.83255565  1
  Ti4+  Ti6  1  0.16509301  0.83341419  0.16618230  1
  Ti4+  Ti7  1  0.16925583  0.83498285  0.50270922  1
  Ti4+  Ti8  1  0.16696242  0.83212125  0.83233974  1
  Ti4+  Ti9  1  0.50162003  0.16402363  0.17089132  1
  Ti4+  Ti10  1  0.49768348  0.16513070  0.49793442  1
  Ti4+  Ti11  1  0.50009422  0.16759013  0.83228688  1
  Ti4+  Ti12  1  0.49742549  0.49837383  0.17012419  1
  Ti4+  Ti13  1  0.49910548  0.50399889  0.49911227  1
  Ti4+  Ti14  1  0.50116427  0.50086967  0.83269293  1
  Ti4+  Ti15  1  0.50188749  0.83372008  0.16434159  1
  Ti4+  Ti16  1  0.49968402  0.83417473  0.49921761  1
  Ti4+  Ti17  1  0.50049949  0.83368325  0.83228551  1
  Ti4+  Ti18  1  0.82987169  0.16482778  0.16797181  1
  Ti4+  Ti19  1  0.83501896  0.16583312  0.50215440  1
  Ti4+  Ti20  1  0.83183290  0.16788658  0.83600403  1
  Ti4+  Ti21  1  0.83177287  0.49998931  0.16594674  1
  Ti4+  Ti22  1  0.83308329  0.49805676  0.50050515  1
  Ti4+  Ti23  1  0.83314215  0.50029022  0.83291789  1
  Ti4+  Ti24  1  0.83275069  0.83214811  0.16698816  1
  Ti4+  Ti25  1  0.83611617  0.83296602  0.49936287  1
  Ti4+  Ti26  1  0.83465429  0.83484333  0.83220195  1
  Cu+  Cu27  1  0.16418971  0.16462370  -0.00220948  1
  Cu+  Cu28  1  0.16562196  0.17218200  0.33258549  1
  Cu+  Cu29  1  0.16630164  0.16972715  0.66919222  1
  Cu+  Cu30  1  0.16736682  0.49496500  0.00165995  1
  Cu+  Cu31  1  0.17362388  0.50063130  0.33303214  1
  Cu+  Cu32  1  0.16508048  0.50108990  0.66500683  1
  Cu+  Cu33  1  0.16620238  0.83154955  -0.00047718  1
  Cu+  Cu34  1  0.16417908  0.83117284  0.33376822  1
  Cu+  Cu35  1  0.16768543  0.83259032  0.66601165  1
  Cu+  Cu36  1  0.49930725  0.16526751  0.00207844  1
  Cu+  Cu37  1  0.50642649  0.16414040  0.33675304  1
  Cu+  Cu38  1  0.49689211  0.16656813  0.66375357  1
  Cu+  Cu39  1  0.49534337  0.49593866  -0.00082750  1
  Cu+  Cu40  1  0.49833267  0.50804884  0.33387295  1
  Cu+  Cu41  1  0.50433401  0.50363921  0.66561918  1
  Cu+  Cu42  1  0.49903246  0.83119217  -0.00411581  1
  Cu+  Cu43  1  0.49998630  0.83705137  0.33061815  1
  Cu+  Cu44  1  0.50084504  0.83178253  0.66857016  1
  Cu+  Cu45  1  0.83080198  0.16727723  0.00033865  1
  Cu+  Cu46  1  0.83301499  0.16391554  0.33489683  1
  Cu+  Cu47  1  0.83362371  0.16644241  0.67140999  1
  Cu+  Cu48  1  0.83364832  0.50087696  -0.00079671  1
  Cu+  Cu49  1  0.83064631  0.49776546  0.33399611  1
  Cu+  Cu50  1  0.83483625  0.50009860  0.66798239  1
  Cu+  Cu51  1  0.83084892  0.83267930  -0.00131471  1
  Cu+  Cu52  1  0.83914813  0.83293520  0.33271347  1
  Cu+  Cu53  1  0.83613149  0.83607682  0.66528282  1
  Cu+  Cu54  1  0.16329057  -0.00132564  0.16405819  1
  Cu+  Cu55  1  0.17582257  0.00172672  0.50313998  1
  Cu+  Cu56  1  0.16551657  -0.00010192  0.83351849  1
  Cu+  Cu57  1  0.16977405  0.32954490  0.16852883  1
  Cu+  Cu58  1  0.15796416  0.33724166  0.49418464  1
  Cu+  Cu59  1  0.16687458  0.33005583  0.83243390  1
  Cu+  Cu60  1  0.16314179  0.66749573  0.16814411  1
  Cu+  Cu61  1  0.16684967  0.67031850  0.50919931  1
  Cu+  Cu62  1  0.16782113  0.66419837  0.83210189  1
  Cu+  Cu63  1  0.50759263  -0.00023037  0.16661455  1
  Cu+  Cu64  1  0.49661251  -0.00051458  0.49244183  1
  Cu+  Cu65  1  0.49974988  -0.00140867  0.83308281  1
  Cu+  Cu66  1  0.49922137  0.32952559  0.17185827  1
  Cu+  Cu67  1  0.49527242  0.33367572  0.49988589  1
  Cu+  Cu68  1  0.50050240  0.33544020  0.83305145  1
  Cu+  Cu69  1  0.50072278  0.66611782  0.16764518  1
  Cu+  Cu70  1  0.49995838  0.66598510  0.49954460  1
  Cu+  Cu71  1  0.50028013  0.66823441  0.83257404  1
  Cu+  Cu72  1  0.83080213  -0.00453685  0.16656189  1
  Cu+  Cu73  1  0.83770418  -0.00336767  0.50412824  1
  Cu+  Cu74  1  0.83684853  0.00523851  0.83175439  1
  Cu+  Cu75  1  0.82781727  0.33518616  0.16793744  1
  Cu+  Cu76  1  0.83399590  0.33217800  0.50051311  1
  Cu+  Cu77  1  0.82878848  0.33324806  0.83334290  1
  Cu+  Cu78  1  0.83309148  0.66697668  0.16344447  1
  Cu+  Cu79  1  0.83473027  0.66499668  0.49722161  1
  Cu+  Cu80  1  0.83345153  0.66742114  0.83227995  1
  Cu+  Cu81  1  -0.00381881  0.16410222  0.16518301  1
  Cu+  Cu82  1  0.00385483  0.17200281  0.49854516  1
  Cu+  Cu83  1  -0.00051405  0.16494764  0.83533721  1
  Cu+  Cu84  1  -0.00016869  0.49891738  0.16596343  1
  Cu+  Cu85  1  -0.00137159  0.49617144  0.50214009  1
  Cu+  Cu86  1  -0.00097700  0.49923600  0.83352315  1
  Cu+  Cu87  1  -0.00090111  0.83344606  0.16893204  1
  Cu+  Cu88  1  0.00089137  0.83432549  0.50469369  1
  Cu+  Cu89  1  0.00201373  0.83253219  0.83255294  1
  Cu+  Cu90  1  0.33465416  0.16802075  0.16963869  1
  Cu+  Cu91  1  0.33108604  0.16208489  0.49706364  1
  Cu+  Cu92  1  0.33207976  0.16591583  0.83306126  1
  Cu+  Cu93  1  0.32724634  0.49725727  0.16551732  1
  Cu+  Cu94  1  0.33233899  0.50845521  0.49455658  1
  Cu+  Cu95  1  0.33873607  0.49706525  0.83412058  1
  Cu+  Cu96  1  0.33282483  0.83152125  0.16307501  1
  Cu+  Cu97  1  0.33559999  0.84126221  0.49969223  1
  Cu+  Cu98  1  0.33430914  0.83153264  0.83369785  1
  Cu+  Cu99  1  0.66231022  0.16547536  0.16821835  1
  Cu+  Cu100  1  0.66664911  0.16421406  0.50116536  1
  Cu+  Cu101  1  0.66783374  0.17235787  0.83270568  1
  Cu+  Cu102  1  0.66775003  0.49741507  0.17197544  1
  Cu+  Cu103  1  0.66520892  0.50205124  0.50103430  1
  Cu+  Cu104  1  0.66708218  0.50082310  0.83397737  1
  Cu+  Cu105  1  0.66853771  0.83844146  0.16506519  1
  Cu+  Cu106  1  0.67175770  0.82863521  0.49890507  1
  Cu+  Cu107  1  0.66598739  0.83445082  0.83195607  1
  Cu+  Cu108  1  0.25927190  0.59118196  0.59651930  1
  Cu+  Cu109  1  0.41017835  0.40292337  0.92419347  1
  Cu+  Cu110  1  0.59823910  0.59422253  0.59612136  1
  Cu+  Cu111  1  0.59008003  0.07606897  0.06806276  1
  Cu+  Cu112  1  0.74286553  0.40530039  0.26461501  1
  Cu+  Cu113  1  0.25044255  0.07356251  0.40044959  1
  Cu+  Cu114  1  0.92954443  0.92703313  0.25793229  1
  Cu+  Cu115  1  0.26561743  0.92929045  0.59923360  1
  Cu+  Cu116  1  0.59291489  0.25958567  0.26387796  1
  Cu+  Cu117  1  0.59734439  0.59652678  0.25491022  1
  Cu+  Cu118  1  0.73886482  0.26268197  0.73965398  1
  Cu+  Cu119  1  0.59598349  0.92375549  0.26116375  1
  Cu+  Cu120  1  0.74353751  0.92403087  0.06718172  1
  Cu+  Cu121  1  0.07011205  0.74258529  0.59642945  1
  Cu+  Cu122  1  0.26333888  0.25595462  0.25988655  1
  Cu+  Cu123  1  0.60074303  0.06980152  0.41656899  1
  Cu+  Cu124  1  0.07248773  0.40754985  0.59596844  1
  Cu+  Cu125  1  0.06857576  0.26254980  0.40144725  1
  Cu+  Cu126  1  0.92861388  0.92613085  0.59551183  1
  Cu+  Cu127  1  0.26281741  0.40893787  0.41525158  1
  Cu+  Cu128  1  0.25310046  0.39962406  0.07065441  1
  Cu+  Cu129  1  0.40615060  0.92671287  0.39870359  1
  Cu+  Cu130  1  0.92957068  0.07869544  0.74197685  1
  Cu+  Cu131  1  0.40648017  0.59953916  0.40530565  1
  Cu+  Cu132  1  0.25476798  0.59885685  0.25263854  1
  Te2-  Te133  1  0.25345921  0.24746441  0.07761344  1
  Te2-  Te134  1  0.25642415  0.25729977  0.41465745  1
  Te2-  Te135  1  0.25428059  0.25282946  0.74753030  1
  Te2-  Te136  1  0.24878337  0.58647435  0.08098951  1
  Te2-  Te137  1  0.24994136  0.59797129  0.41109456  1
  Te2-  Te138  1  0.25562249  0.58327648  0.74819821  1
  Te2-  Te139  1  0.25089485  0.91836240  0.08033521  1
  Te2-  Te140  1  0.25265504  0.91975175  0.40731124  1
  Te2-  Te141  1  0.25394330  0.91980846  0.74905034  1
  Te2-  Te142  1  0.58372485  0.25286297  0.08218807  1
  Te2-  Te143  1  0.58717408  0.25619141  0.41827597  1
  Te2-  Te144  1  0.58311919  0.25441060  0.74391213  1
  Te2-  Te145  1  0.58303262  0.57973783  0.08240774  1
  Te2-  Te146  1  0.58949278  0.58997907  0.41221598  1
  Te2-  Te147  1  0.58884676  0.58924851  0.74878205  1
  Te2-  Te148  1  0.58692241  0.91942698  0.07220640  1
  Te2-  Te149  1  0.59280463  0.91722124  0.41463751  1
  Te2-  Te150  1  0.58599227  0.91999689  0.74633495  1
  Te2-  Te151  1  0.91319546  0.25177796  0.08463780  1
  Te2-  Te152  1  0.91711777  0.25278588  0.41242646  1
  Te2-  Te153  1  0.91987807  0.25386993  0.75060030  1
  Te2-  Te154  1  0.91924515  0.58457083  0.08097191  1
  Te2-  Te155  1  0.91911147  0.58133529  0.41427876  1
  Te2-  Te156  1  0.91968866  0.58609015  0.74823640  1
  Te2-  Te157  1  0.91882422  0.91740077  0.07957480  1
  Te2-  Te158  1  0.92453949  0.92001408  0.41393345  1
  Te2-  Te159  1  0.92446817  0.92187289  0.74697798  1
  Te2-  Te160  1  0.25039240  0.07885559  0.25004741  1
  Te2-  Te161  1  0.25434009  0.08512585  0.59227122  1
  Te2-  Te162  1  0.25182638  0.08032453  0.91861788  1
  Te2-  Te163  1  0.25727221  0.40866739  0.25716676  1
  Te2-  Te164  1  0.25216622  0.41551801  0.57934732  1
  Te2-  Te165  1  0.25470038  0.40941979  0.91829977  1
  Te2-  Te166  1  0.25342339  0.74985013  0.25319602  1
  Te2-  Te167  1  0.26079591  0.74953034  0.58739233  1
  Te2-  Te168  1  0.25145063  0.74652790  0.91795480  1
  Te2-  Te169  1  0.59238155  0.07597977  0.25967132  1
  Te2-  Te170  1  0.58167866  0.07829801  0.58389960  1
  Te2-  Te171  1  0.58752094  0.08157870  0.91609604  1
  Te2-  Te172  1  0.58373520  0.41267447  0.25956342  1
  Te2-  Te173  1  0.58290045  0.41400690  0.58252435  1
  Te2-  Te174  1  0.58690750  0.41505803  0.91966890  1
  Te2-  Te175  1  0.58816704  0.74909552  0.25233763  1
  Te2-  Te176  1  0.58633927  0.74839813  0.58485394  1
  Te2-  Te177  1  0.58720636  0.74756591  0.91748740  1
  Te2-  Te178  1  0.91746264  0.07928217  0.25264454  1
  Te2-  Te179  1  0.92556811  0.08260694  0.58700192  1
  Te2-  Te180  1  0.91854575  0.08217186  0.92343850  1
  Te2-  Te181  1  0.91783363  0.41410142  0.25147539  1
  Te2-  Te182  1  0.91773024  0.41108631  0.58876663  1
  Te2-  Te183  1  0.91702798  0.41311200  0.91800041  1
  Te2-  Te184  1  0.91908081  0.74403946  0.25082525  1
  Te2-  Te185  1  0.91817476  0.74344632  0.58764932  1
  Te2-  Te186  1  0.91829810  0.74899835  0.91816253  1
  Te2-  Te187  1  0.07421612  0.25346757  0.24991272  1
  Te2-  Te188  1  0.08141893  0.25491917  0.58927854  1
  Te2-  Te189  1  0.07993102  0.25209672  0.91880608  1
  Te2-  Te190  1  0.08063597  0.58241202  0.25381848  1
  Te2-  Te191  1  0.07573401  0.58678787  0.58716568  1
  Te2-  Te192  1  0.08418867  0.58106993  0.91872885  1
  Te2-  Te193  1  0.08133290  0.92075459  0.25478859  1
  Te2-  Te194  1  0.08336788  0.92500751  0.58688980  1
  Te2-  Te195  1  0.08189004  0.91739418  0.91843412  1
  Te2-  Te196  1  0.41536148  0.25088530  0.25971689  1
  Te2-  Te197  1  0.41086745  0.25026944  0.58233189  1
  Te2-  Te198  1  0.41377183  0.25050916  0.92050338  1
  Te2-  Te199  1  0.40756482  0.58916816  0.25094003  1
  Te2-  Te200  1  0.41230778  0.58859639  0.58845225  1
  Te2-  Te201  1  0.41553165  0.58754153  0.91879001  1
  Te2-  Te202  1  0.41185315  0.92106686  0.24631101  1
  Te2-  Te203  1  0.41871587  0.92231686  0.58920232  1
  Te2-  Te204  1  0.41379307  0.91882784  0.91841128  1
  Te2-  Te205  1  0.74493215  0.25103305  0.25726898  1
  Te2-  Te206  1  0.74716337  0.25103235  0.58579772  1
  Te2-  Te207  1  0.74574175  0.25436007  0.92306519  1
  Te2-  Te208  1  0.74898215  0.59016785  0.25407723  1
  Te2-  Te209  1  0.75009593  0.58693907  0.58660191  1
  Te2-  Te210  1  0.74834091  0.58667186  0.91829562  1
  Te2-  Te211  1  0.74821069  0.91900428  0.25880758  1
  Te2-  Te212  1  0.74700347  0.91716676  0.58471599  1
  Te2-  Te213  1  0.74811213  0.92283142  0.91468755  1
  Te2-  Te214  1  0.07930140  0.08147531  0.08056658  1
  Te2-  Te215  1  0.08483189  0.08047741  0.41613426  1
  Te2-  Te216  1  0.08180971  0.08047570  0.74608383  1
  Te2-  Te217  1  0.08064215  0.40999743  0.08318602  1
  Te2-  Te218  1  0.07576793  0.41941790  0.40613996  1
  Te2-  Te219  1  0.08044258  0.41276184  0.74803803  1
  Te2-  Te220  1  0.07918062  0.74810926  0.08206103  1
  Te2-  Te221  1  0.08209175  0.74825520  0.41871372  1
  Te2-  Te222  1  0.08059845  0.74460149  0.74727751  1
  Te2-  Te223  1  0.41405325  0.07964829  0.08529157  1
  Te2-  Te224  1  0.40900691  0.08008143  0.40630060  1
  Te2-  Te225  1  0.41512195  0.08162165  0.74862655  1
  Te2-  Te226  1  0.41208966  0.40880139  0.08407175  1
  Te2-  Te227  1  0.41475831  0.41534508  0.41202418  1
  Te2-  Te228  1  0.41781004  0.41562275  0.74288803  1
  Te2-  Te229  1  0.41655525  0.74676283  0.08052920  1
  Te2-  Te230  1  0.41344674  0.75041508  0.41194751  1
  Te2-  Te231  1  0.41407626  0.74711662  0.74719702  1
  Te2-  Te232  1  0.74437614  0.07922342  0.07935104  1
  Te2-  Te233  1  0.75208697  0.07686146  0.41706900  1
  Te2-  Te234  1  0.74471130  0.08105749  0.74897715  1
  Te2-  Te235  1  0.74516545  0.41613083  0.07917233  1
  Te2-  Te236  1  0.74408375  0.41181213  0.41744872  1
  Te2-  Te237  1  0.74478687  0.41573211  0.74518149  1
  Te2-  Te238  1  0.74535355  0.74728431  0.08065545  1
  Te2-  Te239  1  0.75218785  0.74708718  0.41179618  1
  Te2-  Te240  1  0.74996340  0.75070561  0.74644096  1
