# generated using pymatgen
data_Ti27(Cu53Te54)2
_symmetry_space_group_name_H-M   'P 1'
_cell_length_a   17.89899663
_cell_length_b   17.89721792
_cell_length_c   17.90413286
_cell_angle_alpha   89.99338950
_cell_angle_beta   90.02829523
_cell_angle_gamma   90.02728522
_symmetry_Int_Tables_number   1
_chemical_formula_structural   Ti27(Cu53Te54)2
_chemical_formula_sum   'Ti27 Cu106 Te108'
_cell_volume   5735.44869556
_cell_formula_units_Z   1
loop_
 _symmetry_equiv_pos_site_id
 _symmetry_equiv_pos_as_xyz
  1  'x, y, z'
loop_
 _atom_type_symbol
 _atom_type_oxidation_number
  Ti4+  4.0
  Cu+  1.0
  Te2-  -2.0
loop_
 _atom_site_type_symbol
 _atom_site_label
 _atom_site_symmetry_multiplicity
 _atom_site_fract_x
 _atom_site_fract_y
 _atom_site_fract_z
 _atom_site_occupancy
  Ti4+  Ti0  1  0.16537473  0.16533873  0.16694041  1
  Ti4+  Ti1  1  0.16443080  0.16598909  0.50244445  1
  Ti4+  Ti2  1  0.16802414  0.16853132  0.83573990  1
  Ti4+  Ti3  1  0.16730095  0.50342838  0.16382080  1
  Ti4+  Ti4  1  0.16863872  0.49462516  0.49817684  1
  Ti4+  Ti5  1  0.16687294  0.49965642  0.82957278  1
  Ti4+  Ti6  1  0.16543983  0.83237791  0.16321109  1
  Ti4+  Ti7  1  0.16895021  0.83171939  0.49993174  1
  Ti4+  Ti8  1  0.16876153  0.83707906  0.83283721  1
  Ti4+  Ti9  1  0.49950770  0.16692857  0.16868835  1
  Ti4+  Ti10  1  0.50067862  0.16458353  0.50010407  1
  Ti4+  Ti11  1  0.50331326  0.16946070  0.83108641  1
  Ti4+  Ti12  1  0.49860084  0.50281398  0.16936822  1
  Ti4+  Ti13  1  0.50215703  0.50009674  0.50286668  1
  Ti4+  Ti14  1  0.50162899  0.49568506  0.83702367  1
  Ti4+  Ti15  1  0.49734183  0.83097055  0.16728007  1
  Ti4+  Ti16  1  0.49649603  0.83402032  0.49889186  1
  Ti4+  Ti17  1  0.49969039  0.83400643  0.83230508  1
  Ti4+  Ti18  1  0.83215038  0.16902915  0.16873842  1
  Ti4+  Ti19  1  0.83224681  0.16422820  0.49943878  1
  Ti4+  Ti20  1  0.83095254  0.16622034  0.83759317  1
  Ti4+  Ti21  1  0.83464493  0.50473809  0.16630848  1
  Ti4+  Ti22  1  0.83639637  0.50090266  0.49902749  1
  Ti4+  Ti23  1  0.83098860  0.50032258  0.83298894  1
  Ti4+  Ti24  1  0.83093311  0.83286572  0.16441384  1
  Ti4+  Ti25  1  0.83336823  0.83231306  0.49981644  1
  Ti4+  Ti26  1  0.83172567  0.83395614  0.83208554  1
  Cu+  Cu27  1  0.16251833  0.16591252  -0.00070606  1
  Cu+  Cu28  1  0.16454655  0.16596662  0.33702088  1
  Cu+  Cu29  1  0.16506745  0.16677087  0.66979702  1
  Cu+  Cu30  1  0.16461340  0.50430834  -0.00502471  1
  Cu+  Cu31  1  0.16160625  0.49867677  0.32883730  1
  Cu+  Cu32  1  0.17224902  0.49113608  0.66445634  1
  Cu+  Cu33  1  0.17309616  0.83680696  -0.00350731  1
  Cu+  Cu34  1  0.16656570  0.83379037  0.32971290  1
  Cu+  Cu35  1  0.17309363  0.83528227  0.66706951  1
  Cu+  Cu36  1  0.50080700  0.16877276  0.00199465  1
  Cu+  Cu37  1  0.50093147  0.16412645  0.33507290  1
  Cu+  Cu38  1  0.50392448  0.16181581  0.66590945  1
  Cu+  Cu39  1  0.49709600  0.50066105  0.00439008  1
  Cu+  Cu40  1  0.50095823  0.50303116  0.33869587  1
  Cu+  Cu41  1  0.50227577  0.49611267  0.66897041  1
  Cu+  Cu42  1  0.50171874  0.83433147  -0.00275074  1
  Cu+  Cu43  1  0.49394818  0.82945424  0.33164288  1
  Cu+  Cu44  1  0.49645137  0.83516449  0.66478984  1
  Cu+  Cu45  1  0.83624072  0.16424991  0.00842937  1
  Cu+  Cu46  1  0.83123569  0.16700518  0.33274142  1
  Cu+  Cu47  1  0.83136834  0.16699948  0.66634259  1
  Cu+  Cu48  1  0.82837889  0.50390625  0.00028465  1
  Cu+  Cu49  1  0.83857957  0.50240928  0.33518119  1
  Cu+  Cu50  1  0.83616084  0.50120465  0.66310290  1
  Cu+  Cu51  1  0.83375601  0.83235696  -0.00369772  1
  Cu+  Cu52  1  0.83096568  0.83279142  0.33265184  1
  Cu+  Cu53  1  0.83319066  0.83348891  0.66622419  1
  Cu+  Cu54  1  0.16541675  -0.00312827  0.17064867  1
  Cu+  Cu55  1  0.16762396  0.00030135  0.50161603  1
  Cu+  Cu56  1  0.16953028  0.00388312  0.84067442  1
  Cu+  Cu57  1  0.16620406  0.33396827  0.16701796  1
  Cu+  Cu58  1  0.16308430  0.33066347  0.50506998  1
  Cu+  Cu59  1  0.16846335  0.33464600  0.82912325  1
  Cu+  Cu60  1  0.16564130  0.66760342  0.15503028  1
  Cu+  Cu61  1  0.16907845  0.65969212  0.49846478  1
  Cu+  Cu62  1  0.16711184  0.67094106  0.82687009  1
  Cu+  Cu63  1  0.49900525  -0.00015399  0.16527380  1
  Cu+  Cu64  1  0.50061477  0.00135068  0.49449102  1
  Cu+  Cu65  1  0.50283914  0.00355302  0.83018406  1
  Cu+  Cu66  1  0.50034306  0.33553661  0.17362214  1
  Cu+  Cu67  1  0.50139658  0.33069934  0.50354432  1
  Cu+  Cu68  1  0.51237407  0.33332622  0.83487596  1
  Cu+  Cu69  1  0.49187132  0.66844428  0.16851584  1
  Cu+  Cu70  1  0.49606475  0.66557524  0.50031249  1
  Cu+  Cu71  1  0.49864408  0.66438978  0.83391025  1
  Cu+  Cu72  1  0.83265579  0.00152467  0.16603812  1
  Cu+  Cu73  1  0.83288346  -0.00319404  0.50031790  1
  Cu+  Cu74  1  0.83179211  -0.00396798  0.83629338  1
  Cu+  Cu75  1  0.83485431  0.33343018  0.17020207  1
  Cu+  Cu76  1  0.83411997  0.33261697  0.49776320  1
  Cu+  Cu77  1  0.82684414  0.33153358  0.83548786  1
  Cu+  Cu78  1  0.82829370  0.66951867  0.16215634  1
  Cu+  Cu79  1  0.83678183  0.66744142  0.50000132  1
  Cu+  Cu80  1  0.83141061  0.66853651  0.83156811  1
  Cu+  Cu81  1  -0.00340633  0.16677537  0.16582011  1
  Cu+  Cu82  1  -0.00232893  0.16442727  0.50177449  1
  Cu+  Cu83  1  0.00134365  0.16662456  0.83936685  1
  Cu+  Cu84  1  0.00501442  0.50304695  0.16616097  1
  Cu+  Cu85  1  0.00390504  0.49645039  0.49711450  1
  Cu+  Cu86  1  -0.00448934  0.50045795  0.83212039  1
  Cu+  Cu87  1  -0.00491303  0.82855504  0.16025185  1
  Cu+  Cu88  1  0.00003641  0.83093845  0.49868135  1
  Cu+  Cu89  1  -0.00128121  0.83734325  0.83231819  1
  Cu+  Cu90  1  0.33377074  0.16638135  0.16738764  1
  Cu+  Cu91  1  0.33322613  0.16762252  0.50209994  1
  Cu+  Cu92  1  0.33789627  0.17112226  0.83413423  1
  Cu+  Cu93  1  0.33419139  0.50546257  0.16473244  1
  Cu+  Cu94  1  0.33718077  0.50201782  0.50145945  1
  Cu+  Cu95  1  0.33189178  0.49494930  0.83083578  1
  Cu+  Cu96  1  0.32994161  0.82956361  0.16796004  1
  Cu+  Cu97  1  0.33024365  0.83805564  0.50316787  1
  Cu+  Cu98  1  0.33363520  0.83725493  0.83345031  1
  Cu+  Cu99  1  0.66774400  0.16926736  0.17084460  1
  Cu+  Cu100  1  0.66521867  0.16223292  0.49701645  1
  Cu+  Cu101  1  0.66633859  0.17282013  0.83132876  1
  Cu+  Cu102  1  0.66568499  0.50777281  0.16705819  1
  Cu+  Cu103  1  0.67057060  0.50060356  0.50016686  1
  Cu+  Cu104  1  0.66828150  0.49021516  0.83864813  1
  Cu+  Cu105  1  0.66669116  0.82900915  0.17058306  1
  Cu+  Cu106  1  0.66458848  0.83294972  0.49874229  1
  Cu+  Cu107  1  0.66697699  0.83269479  0.83248755  1
  Cu+  Cu108  1  0.07345736  0.59014747  0.06429990  1
  Cu+  Cu109  1  0.07333525  0.40284897  0.25435751  1
  Cu+  Cu110  1  0.92608141  0.07149174  0.08108051  1
  Cu+  Cu111  1  0.26398170  0.40047589  0.73919581  1
  Cu+  Cu112  1  0.39938433  0.74142846  0.26173588  1
  Cu+  Cu113  1  0.59452776  0.07146335  0.40186128  1
  Cu+  Cu114  1  0.59263378  0.25489465  0.93503775  1
  Cu+  Cu115  1  0.25932984  0.92719419  0.25993001  1
  Cu+  Cu116  1  0.26116131  0.58723242  0.59170990  1
  Cu+  Cu117  1  0.25826090  0.93262086  0.59404614  1
  Cu+  Cu118  1  0.74118438  0.74118918  0.26471115  1
  Cu+  Cu119  1  0.73558801  0.59570230  0.07021650  1
  Cu+  Cu120  1  0.26031835  0.74334989  0.06899846  1
  Cu+  Cu121  1  0.74741213  0.40287188  0.93508543  1
  Cu+  Cu122  1  0.59745050  0.41386700  0.73596266  1
  Cu+  Cu123  1  0.40889033  0.59204172  0.41067077  1
  Cu+  Cu124  1  0.07176831  0.07322584  0.92610642  1
  Cu+  Cu125  1  0.74546141  0.25870999  0.73398449  1
  Cu+  Cu126  1  0.26335949  0.74518230  0.74001353  1
  Cu+  Cu127  1  0.91988049  0.74027248  0.06746080  1
  Cu+  Cu128  1  0.59607356  0.07000943  0.73995937  1
  Cu+  Cu129  1  0.07042634  0.40556892  0.59467095  1
  Cu+  Cu130  1  0.07459015  0.59164912  0.40685253  1
  Cu+  Cu131  1  0.26665000  0.93343566  0.92729368  1
  Cu+  Cu132  1  0.40852182  0.59330175  0.07015739  1
  Te2-  Te133  1  0.24955506  0.25019971  0.08242671  1
  Te2-  Te134  1  0.24987447  0.25162865  0.41764879  1
  Te2-  Te135  1  0.25528716  0.25096645  0.74602630  1
  Te2-  Te136  1  0.25630887  0.58812418  0.07288389  1
  Te2-  Te137  1  0.25375210  0.58183926  0.40908236  1
  Te2-  Te138  1  0.25594890  0.58685010  0.74501377  1
  Te2-  Te139  1  0.25476068  0.92295572  0.08131995  1
  Te2-  Te140  1  0.25184301  0.92038825  0.41178885  1
  Te2-  Te141  1  0.25515381  0.92693613  0.74827867  1
  Te2-  Te142  1  0.58650243  0.25565558  0.08724678  1
  Te2-  Te143  1  0.58544833  0.25236145  0.41501057  1
  Te2-  Te144  1  0.58988475  0.25637703  0.73845141  1
  Te2-  Te145  1  0.58287444  0.59142958  0.08093623  1
  Te2-  Te146  1  0.58775763  0.58742707  0.41849203  1
  Te2-  Te147  1  0.58740572  0.58140080  0.75251502  1
  Te2-  Te148  1  0.58505296  0.91542707  0.08397751  1
  Te2-  Te149  1  0.58347159  0.91513962  0.40996068  1
  Te2-  Te150  1  0.58631134  0.91715892  0.74530667  1
  Te2-  Te151  1  0.91928663  0.25654819  0.08255744  1
  Te2-  Te152  1  0.91828397  0.24925677  0.41466609  1
  Te2-  Te153  1  0.91754700  0.25026690  0.75296318  1
  Te2-  Te154  1  0.92169900  0.58806377  0.07640060  1
  Te2-  Te155  1  0.92329726  0.58825359  0.41421524  1
  Te2-  Te156  1  0.91615589  0.58623413  0.74766542  1
  Te2-  Te157  1  0.91781334  0.91993281  0.07759693  1
  Te2-  Te158  1  0.91857650  0.91658595  0.41355853  1
  Te2-  Te159  1  0.91710285  0.92044635  0.74730467  1
  Te2-  Te160  1  0.25128245  0.08186358  0.25451038  1
  Te2-  Te161  1  0.25275752  0.08311344  0.58908275  1
  Te2-  Te162  1  0.25926138  0.08652372  0.92303992  1
  Te2-  Te163  1  0.25342542  0.41779460  0.24892895  1
  Te2-  Te164  1  0.26001012  0.40733087  0.58283406  1
  Te2-  Te165  1  0.24947210  0.41527600  0.91955077  1
  Te2-  Te166  1  0.24724591  0.74122104  0.25201018  1
  Te2-  Te167  1  0.25614205  0.74238065  0.58580215  1
  Te2-  Te168  1  0.25524414  0.74543637  0.91641702  1
  Te2-  Te169  1  0.58677002  0.07861680  0.25100440  1
  Te2-  Te170  1  0.58851541  0.07546209  0.58541975  1
  Te2-  Te171  1  0.58738315  0.08331550  0.91939168  1
  Te2-  Te172  1  0.58644959  0.42050962  0.25471590  1
  Te2-  Te173  1  0.59038790  0.41245537  0.58424624  1
  Te2-  Te174  1  0.58777540  0.41268108  0.93165731  1
  Te2-  Te175  1  0.58357943  0.74389211  0.25446172  1
  Te2-  Te176  1  0.58129845  0.74895259  0.58380309  1
  Te2-  Te177  1  0.58459024  0.74733752  0.91655330  1
  Te2-  Te178  1  0.91788962  0.08101242  0.25378095  1
  Te2-  Te179  1  0.91590531  0.07967847  0.58699015  1
  Te2-  Te180  1  0.91767173  0.07756907  0.92269050  1
  Te2-  Te181  1  0.92106860  0.41781586  0.25125936  1
  Te2-  Te182  1  0.91940125  0.41185622  0.58495505  1
  Te2-  Te183  1  0.91521529  0.41549824  0.91990660  1
  Te2-  Te184  1  0.91678468  0.74672884  0.25110859  1
  Te2-  Te185  1  0.91982665  0.74859686  0.58614641  1
  Te2-  Te186  1  0.92102934  0.74611197  0.91535575  1
  Te2-  Te187  1  0.07931235  0.24995446  0.25282032  1
  Te2-  Te188  1  0.07648067  0.24972382  0.59012934  1
  Te2-  Te189  1  0.08295817  0.25738567  0.91861862  1
  Te2-  Te190  1  0.08176084  0.59386417  0.25044827  1
  Te2-  Te191  1  0.08395288  0.58051830  0.58704694  1
  Te2-  Te192  1  0.07910689  0.58944224  0.91140682  1
  Te2-  Te193  1  0.07539973  0.91315575  0.24842119  1
  Te2-  Te194  1  0.08218823  0.91573854  0.58477899  1
  Te2-  Te195  1  0.07919736  0.91961032  0.92104810  1
  Te2-  Te196  1  0.41463587  0.25085052  0.25489689  1
  Te2-  Te197  1  0.41676898  0.24952538  0.58806016  1
  Te2-  Te198  1  0.41892487  0.25633549  0.91823802  1
  Te2-  Te199  1  0.40967714  0.58750830  0.25856561  1
  Te2-  Te200  1  0.41679238  0.58562738  0.59339207  1
  Te2-  Te201  1  0.41156896  0.58303836  0.91671379  1
  Te2-  Te202  1  0.41228914  0.92052695  0.25201264  1
  Te2-  Te203  1  0.41415319  0.92392396  0.58505166  1
  Te2-  Te204  1  0.41803972  0.92361240  0.91885616  1
  Te2-  Te205  1  0.74726648  0.25547554  0.25538423  1
  Te2-  Te206  1  0.74514599  0.25239719  0.58145024  1
  Te2-  Te207  1  0.74667346  0.25065416  0.92987945  1
  Te2-  Te208  1  0.74912542  0.58727331  0.25628358  1
  Te2-  Te209  1  0.75068819  0.58666605  0.58420194  1
  Te2-  Te210  1  0.74337713  0.58959287  0.91661576  1
  Te2-  Te211  1  0.74739763  0.92007305  0.25072382  1
  Te2-  Te212  1  0.74643253  0.91660247  0.58439133  1
  Te2-  Te213  1  0.74529550  0.91722358  0.91999672  1
  Te2-  Te214  1  0.07932279  0.07636055  0.08145037  1
  Te2-  Te215  1  0.08014201  0.07955916  0.41739373  1
  Te2-  Te216  1  0.08178191  0.08120370  0.75199380  1
  Te2-  Te217  1  0.08275671  0.41580075  0.07784705  1
  Te2-  Te218  1  0.08130792  0.40763875  0.41066520  1
  Te2-  Te219  1  0.07647936  0.41329348  0.74774755  1
  Te2-  Te220  1  0.07850823  0.74857606  0.07033212  1
  Te2-  Te221  1  0.08311338  0.74654604  0.41381223  1
  Te2-  Te222  1  0.08086528  0.75421574  0.74610187  1
  Te2-  Te223  1  0.41534726  0.08273599  0.08067566  1
  Te2-  Te224  1  0.41078532  0.08225204  0.41470140  1
  Te2-  Te225  1  0.41388261  0.08345417  0.74804133  1
  Te2-  Te226  1  0.41434198  0.41342614  0.08608184  1
  Te2-  Te227  1  0.41746799  0.41282468  0.41767986  1
  Te2-  Te228  1  0.41711003  0.40881118  0.74925696  1
  Te2-  Te229  1  0.41235435  0.74794927  0.07338538  1
  Te2-  Te230  1  0.40596226  0.74709669  0.41553122  1
  Te2-  Te231  1  0.41484083  0.74695627  0.74657854  1
  Te2-  Te232  1  0.74382271  0.08220925  0.08412523  1
  Te2-  Te233  1  0.74853449  0.07689569  0.41197834  1
  Te2-  Te234  1  0.74848416  0.07884453  0.74995889  1
  Te2-  Te235  1  0.74646631  0.41499067  0.08666073  1
  Te2-  Te236  1  0.75081298  0.41637598  0.41295663  1
  Te2-  Te237  1  0.74851853  0.41299729  0.74083952  1
  Te2-  Te238  1  0.74181361  0.74933803  0.07419873  1
  Te2-  Te239  1  0.74570676  0.74482434  0.41577148  1
  Te2-  Te240  1  0.74690369  0.74846290  0.74613404  1
