# generated using pymatgen
data_Ti27(Cu53Te54)2
_symmetry_space_group_name_H-M   'P 1'
_cell_length_a   17.85546148
_cell_length_b   17.85474174
_cell_length_c   17.85577803
_cell_angle_alpha   89.98465708
_cell_angle_beta   89.98460434
_cell_angle_gamma   90.00092869
_symmetry_Int_Tables_number   1
_chemical_formula_structural   Ti27(Cu53Te54)2
_chemical_formula_sum   'Ti27 Cu106 Te108'
_cell_volume   5692.50471643
_cell_formula_units_Z   1
loop_
 _symmetry_equiv_pos_site_id
 _symmetry_equiv_pos_as_xyz
  1  'x, y, z'
loop_
 _atom_type_symbol
 _atom_type_oxidation_number
  Ti4+  4.0
  Cu+  1.0
  Te2-  -2.0
loop_
 _atom_site_type_symbol
 _atom_site_label
 _atom_site_symmetry_multiplicity
 _atom_site_fract_x
 _atom_site_fract_y
 _atom_site_fract_z
 _atom_site_occupancy
  Ti4+  Ti0  1  0.16672883  0.16778963  0.16714675  1
  Ti4+  Ti1  1  0.16537892  0.16818706  0.50233982  1
  Ti4+  Ti2  1  0.16788963  0.16685052  0.83316864  1
  Ti4+  Ti3  1  0.16727804  0.50042805  0.16863777  1
  Ti4+  Ti4  1  0.16597645  0.49988613  0.50077428  1
  Ti4+  Ti5  1  0.16755455  0.49847267  0.83441523  1
  Ti4+  Ti6  1  0.16676263  0.83374644  0.16554911  1
  Ti4+  Ti7  1  0.16652476  0.83534328  0.50010289  1
  Ti4+  Ti8  1  0.16799901  0.83084703  0.83074685  1
  Ti4+  Ti9  1  0.49946416  0.16455080  0.17030720  1
  Ti4+  Ti10  1  0.50126835  0.16819703  0.49890066  1
  Ti4+  Ti11  1  0.50036404  0.16507000  0.83236648  1
  Ti4+  Ti12  1  0.50065866  0.49880459  0.16569375  1
  Ti4+  Ti13  1  0.49926108  0.49876563  0.50113408  1
  Ti4+  Ti14  1  0.49896060  0.50094823  0.83442700  1
  Ti4+  Ti15  1  0.49765690  0.83304532  0.16565208  1
  Ti4+  Ti16  1  0.49885834  0.83366476  0.49901885  1
  Ti4+  Ti17  1  0.49978332  0.83684831  0.83581254  1
  Ti4+  Ti18  1  0.83256088  0.16481972  0.16585428  1
  Ti4+  Ti19  1  0.83289344  0.16768159  0.50059031  1
  Ti4+  Ti20  1  0.83343248  0.16665676  0.83241163  1
  Ti4+  Ti21  1  0.83471830  0.49996230  0.16389566  1
  Ti4+  Ti22  1  0.83201378  0.49755148  0.49767669  1
  Ti4+  Ti23  1  0.83202296  0.50057445  0.83260369  1
  Ti4+  Ti24  1  0.83382091  0.83187986  0.16866848  1
  Ti4+  Ti25  1  0.83487396  0.83295357  0.49918303  1
  Ti4+  Ti26  1  0.83474416  0.83366178  0.83426545  1
  Cu+  Cu27  1  0.16692457  0.16595785  0.00104625  1
  Cu+  Cu28  1  0.16360279  0.16928996  0.33468282  1
  Cu+  Cu29  1  0.17092159  0.16770847  0.66815604  1
  Cu+  Cu30  1  0.16829241  0.49869834  0.00211625  1
  Cu+  Cu31  1  0.16696743  0.50040920  0.33461673  1
  Cu+  Cu32  1  0.16406472  0.50126123  0.66962251  1
  Cu+  Cu33  1  0.17007216  0.83475409  -0.00337597  1
  Cu+  Cu34  1  0.16935433  0.83102798  0.33507737  1
  Cu+  Cu35  1  0.16292317  0.82822116  0.66292917  1
  Cu+  Cu36  1  0.50077321  0.16616637  0.00275907  1
  Cu+  Cu37  1  0.49852905  0.15583378  0.33447132  1
  Cu+  Cu38  1  0.50563148  0.16652171  0.66671568  1
  Cu+  Cu39  1  0.50491347  0.50362621  -0.00212548  1
  Cu+  Cu40  1  0.49871536  0.49475838  0.33311426  1
  Cu+  Cu41  1  0.49683698  0.50130381  0.66921030  1
  Cu+  Cu42  1  0.48940852  0.83127395  -0.00076530  1
  Cu+  Cu43  1  0.50148557  0.83551113  0.33135439  1
  Cu+  Cu44  1  0.49817250  0.83812435  0.66653133  1
  Cu+  Cu45  1  0.83217797  0.16623135  -0.00189492  1
  Cu+  Cu46  1  0.82777466  0.16575215  0.33319750  1
  Cu+  Cu47  1  0.83609856  0.16842188  0.66588024  1
  Cu+  Cu48  1  0.83246384  0.49993799  -0.00171287  1
  Cu+  Cu49  1  0.83580512  0.50112471  0.32899707  1
  Cu+  Cu50  1  0.82992406  0.49859860  0.66510988  1
  Cu+  Cu51  1  0.83488354  0.82917752  0.00236947  1
  Cu+  Cu52  1  0.83557263  0.83519077  0.33341703  1
  Cu+  Cu53  1  0.83723467  0.83557697  0.66782997  1
  Cu+  Cu54  1  0.16512464  0.00189642  0.16711441  1
  Cu+  Cu55  1  0.16543070  0.00241490  0.49904992  1
  Cu+  Cu56  1  0.17090553  0.00004043  0.83213587  1
  Cu+  Cu57  1  0.16824566  0.33459195  0.16711355  1
  Cu+  Cu58  1  0.16484138  0.33204265  0.50181146  1
  Cu+  Cu59  1  0.16700234  0.33343724  0.83461462  1
  Cu+  Cu60  1  0.16628650  0.66700152  0.16588399  1
  Cu+  Cu61  1  0.16723377  0.67004916  0.50029047  1
  Cu+  Cu62  1  0.16453493  0.66163997  0.82796671  1
  Cu+  Cu63  1  0.50143151  -0.00135213  0.16941999  1
  Cu+  Cu64  1  0.49982331  0.00176181  0.49607260  1
  Cu+  Cu65  1  0.49974588  0.00140589  0.82489615  1
  Cu+  Cu66  1  0.49208455  0.33422788  0.17030676  1
  Cu+  Cu67  1  0.50813045  0.33518977  0.49901623  1
  Cu+  Cu68  1  0.49783166  0.33446054  0.83459128  1
  Cu+  Cu69  1  0.50020882  0.66548830  0.16456182  1
  Cu+  Cu70  1  0.49804199  0.66579787  0.50044777  1
  Cu+  Cu71  1  0.50118995  0.66730728  0.84199244  1
  Cu+  Cu72  1  0.83300387  -0.00035980  0.17026209  1
  Cu+  Cu73  1  0.83674240  -0.00253285  0.50397821  1
  Cu+  Cu74  1  0.83266822  0.00017377  0.83519356  1
  Cu+  Cu75  1  0.83281562  0.33286294  0.16451695  1
  Cu+  Cu76  1  0.83158611  0.33033632  0.49918621  1
  Cu+  Cu77  1  0.83033951  0.33447114  0.83238927  1
  Cu+  Cu78  1  0.83874910  0.66553534  0.16571453  1
  Cu+  Cu79  1  0.83153550  0.66483014  0.49641757  1
  Cu+  Cu80  1  0.83369162  0.66863765  0.83194231  1
  Cu+  Cu81  1  -0.00129283  0.16621605  0.16693712  1
  Cu+  Cu82  1  0.00062441  0.17311650  0.49984806  1
  Cu+  Cu83  1  0.00195118  0.16604595  0.83211637  1
  Cu+  Cu84  1  0.00098465  0.50377365  0.16979153  1
  Cu+  Cu85  1  -0.00152607  0.49670027  0.50005748  1
  Cu+  Cu86  1  -0.00097544  0.50159564  0.83305228  1
  Cu+  Cu87  1  -0.00024833  0.83163198  0.16596562  1
  Cu+  Cu88  1  -0.00096890  0.83609184  0.50655318  1
  Cu+  Cu89  1  0.00111450  0.83184823  0.83233808  1
  Cu+  Cu90  1  0.33420848  0.16943357  0.16986462  1
  Cu+  Cu91  1  0.33139257  0.17128232  0.50600816  1
  Cu+  Cu92  1  0.33487590  0.16512606  0.83293265  1
  Cu+  Cu93  1  0.33391225  0.49663812  0.16837040  1
  Cu+  Cu94  1  0.33291406  0.50108946  0.50221284  1
  Cu+  Cu95  1  0.33163623  0.49654789  0.83427319  1
  Cu+  Cu96  1  0.33337516  0.83555421  0.16163354  1
  Cu+  Cu97  1  0.33208515  0.83366025  0.49394083  1
  Cu+  Cu98  1  0.33328927  0.83644364  0.83783230  1
  Cu+  Cu99  1  0.66566585  0.16279606  0.16353981  1
  Cu+  Cu100  1  0.66588495  0.17182317  0.49695090  1
  Cu+  Cu101  1  0.66754852  0.16282586  0.83052546  1
  Cu+  Cu102  1  0.66994053  0.49910961  0.16301508  1
  Cu+  Cu103  1  0.66566737  0.49550057  0.49700568  1
  Cu+  Cu104  1  0.66529923  0.50389515  0.83506176  1
  Cu+  Cu105  1  0.66522834  0.83428899  0.16882458  1
  Cu+  Cu106  1  0.66809852  0.83007680  0.50038369  1
  Cu+  Cu107  1  0.66976208  0.83457087  0.83483757  1
  Cu+  Cu108  1  0.07538279  0.26256760  0.40306041  1
  Cu+  Cu109  1  0.59825248  0.07162545  0.41132908  1
  Cu+  Cu110  1  0.92798300  0.92804283  0.59950642  1
  Cu+  Cu111  1  0.73982464  0.25984241  0.40223028  1
  Cu+  Cu112  1  0.92780163  0.26213102  0.59614114  1
  Cu+  Cu113  1  0.25642471  0.93006696  0.92500260  1
  Cu+  Cu114  1  0.92830545  0.73814865  0.07143035  1
  Cu+  Cu115  1  0.92956873  0.59275410  0.26227336  1
  Cu+  Cu116  1  0.40158611  0.73522529  0.92365724  1
  Cu+  Cu117  1  0.40207877  0.40950501  0.26574634  1
  Cu+  Cu118  1  0.59604654  0.41268493  0.40003521  1
  Cu+  Cu119  1  0.26052923  0.26330294  0.59749233  1
  Cu+  Cu120  1  0.59440327  0.92217994  0.25999758  1
  Cu+  Cu121  1  0.06925656  0.73773528  0.58716685  1
  Cu+  Cu122  1  0.59271829  0.26430500  0.59830382  1
  Cu+  Cu123  1  0.26180696  0.73905269  0.40506371  1
  Cu+  Cu124  1  0.59452950  0.07263431  0.07099763  1
  Cu+  Cu125  1  0.40292794  0.92576789  0.73499570  1
  Cu+  Cu126  1  0.06825587  0.58831610  0.74140871  1
  Cu+  Cu127  1  0.40025121  0.07018008  0.25995010  1
  Cu+  Cu128  1  0.40798706  0.26238363  0.07263251  1
  Cu+  Cu129  1  0.59953621  0.07126992  0.73733777  1
  Cu+  Cu130  1  0.40701622  0.92903126  0.07488887  1
  Cu+  Cu131  1  0.93173714  0.92991403  0.25685204  1
  Cu+  Cu132  1  0.59855041  0.59657912  0.92724628  1
  Te2-  Te133  1  0.25338896  0.25379478  0.08063122  1
  Te2-  Te134  1  0.25254715  0.25339603  0.41491339  1
  Te2-  Te135  1  0.25623408  0.25523638  0.74955980  1
  Te2-  Te136  1  0.25348980  0.58439130  0.08336883  1
  Te2-  Te137  1  0.25272802  0.58575965  0.41519262  1
  Te2-  Te138  1  0.25564745  0.58338867  0.74698885  1
  Te2-  Te139  1  0.25168401  0.92411860  0.07943380  1
  Te2-  Te140  1  0.25075759  0.92318786  0.41303459  1
  Te2-  Te141  1  0.25156967  0.91677036  0.74162499  1
  Te2-  Te142  1  0.58330927  0.25417904  0.08505954  1
  Te2-  Te143  1  0.58531713  0.25439627  0.40417835  1
  Te2-  Te144  1  0.58719279  0.25566597  0.75075482  1
  Te2-  Te145  1  0.58893231  0.58738787  0.08160292  1
  Te2-  Te146  1  0.58344153  0.58419453  0.41366732  1
  Te2-  Te147  1  0.58268246  0.58919937  0.74865268  1
  Te2-  Te148  1  0.58528647  0.91683772  0.07616252  1
  Te2-  Te149  1  0.58960771  0.91870488  0.41428321  1
  Te2-  Te150  1  0.59046678  0.91816662  0.74635305  1
  Te2-  Te151  1  0.91743445  0.25012726  0.08063589  1
  Te2-  Te152  1  0.91796811  0.25318154  0.40945630  1
  Te2-  Te153  1  0.92069836  0.25510321  0.74901929  1
  Te2-  Te154  1  0.92284331  0.58474736  0.07545703  1
  Te2-  Te155  1  0.92048227  0.58474821  0.41490037  1
  Te2-  Te156  1  0.91608470  0.58685168  0.74391253  1
  Te2-  Te157  1  0.91826683  0.91986157  0.08221636  1
  Te2-  Te158  1  0.92289853  0.92083880  0.41354651  1
  Te2-  Te159  1  0.92243666  0.92222188  0.75051477  1
  Te2-  Te160  1  0.24964152  0.08119097  0.25588178  1
  Te2-  Te161  1  0.25218573  0.07952005  0.58611897  1
  Te2-  Te162  1  0.25515392  0.08220792  0.92098163  1
  Te2-  Te163  1  0.25179750  0.41205983  0.25631463  1
  Te2-  Te164  1  0.25132770  0.41591076  0.58834799  1
  Te2-  Te165  1  0.25227105  0.41233351  0.92132763  1
  Te2-  Te166  1  0.25465549  0.74762662  0.24946915  1
  Te2-  Te167  1  0.25593180  0.74914428  0.58506157  1
  Te2-  Te168  1  0.25019946  0.74125064  0.91769152  1
  Te2-  Te169  1  0.59295207  0.07674601  0.25655085  1
  Te2-  Te170  1  0.58868162  0.07896895  0.58311286  1
  Te2-  Te171  1  0.58558862  0.07818768  0.91879420  1
  Te2-  Te172  1  0.58975059  0.41154301  0.24818518  1
  Te2-  Te173  1  0.58760570  0.41660261  0.59188558  1
  Te2-  Te174  1  0.58598525  0.41317680  0.91825790  1
  Te2-  Te175  1  0.58366665  0.74614383  0.25112063  1
  Te2-  Te176  1  0.58236994  0.74904073  0.58593197  1
  Te2-  Te177  1  0.58842524  0.75274793  0.92379437  1
  Te2-  Te178  1  0.91940447  0.08245352  0.25574873  1
  Te2-  Te179  1  0.92256526  0.08225096  0.58604117  1
  Te2-  Te180  1  0.91936279  0.08226600  0.91774679  1
  Te2-  Te181  1  0.91951448  0.41224963  0.24979315  1
  Te2-  Te182  1  0.91736934  0.41309827  0.58622849  1
  Te2-  Te183  1  0.91803789  0.41505063  0.91700896  1
  Te2-  Te184  1  0.92214722  0.74606457  0.25663344  1
  Te2-  Te185  1  0.91661438  0.74228053  0.58684616  1
  Te2-  Te186  1  0.92220520  0.74548715  0.91826628  1
  Te2-  Te187  1  0.07870547  0.25510423  0.25034139  1
  Te2-  Te188  1  0.07999712  0.25479130  0.59277729  1
  Te2-  Te189  1  0.08216774  0.25105630  0.91882256  1
  Te2-  Te190  1  0.08300498  0.58934449  0.25596160  1
  Te2-  Te191  1  0.07718925  0.58551628  0.58557252  1
  Te2-  Te192  1  0.08215811  0.58465200  0.92118298  1
  Te2-  Te193  1  0.08313558  0.91822776  0.25403803  1
  Te2-  Te194  1  0.08201680  0.92469127  0.58919204  1
  Te2-  Te195  1  0.08274285  0.91794030  0.91536207  1
  Te2-  Te196  1  0.41354446  0.25125002  0.26097539  1
  Te2-  Te197  1  0.41822582  0.25596951  0.58754825  1
  Te2-  Te198  1  0.41432376  0.25121988  0.91924418  1
  Te2-  Te199  1  0.41623012  0.58441240  0.25207578  1
  Te2-  Te200  1  0.41402872  0.58571469  0.58625724  1
  Te2-  Te201  1  0.40882514  0.58360173  0.92227858  1
  Te2-  Te202  1  0.40918612  0.91853386  0.25511414  1
  Te2-  Te203  1  0.41153592  0.92170123  0.58118623  1
  Te2-  Te204  1  0.41270726  0.92956150  0.92098188  1
  Te2-  Te205  1  0.74429846  0.25231599  0.24854315  1
  Te2-  Te206  1  0.74522233  0.25368168  0.58911982  1
  Te2-  Te207  1  0.74601032  0.25045713  0.91687136  1
  Te2-  Te208  1  0.74786489  0.58619452  0.24949268  1
  Te2-  Te209  1  0.74593204  0.58313838  0.58124067  1
  Te2-  Te210  1  0.74937428  0.58984180  0.92027716  1
  Te2-  Te211  1  0.74650305  0.91976305  0.25530920  1
  Te2-  Te212  1  0.74762711  0.91692376  0.58575743  1
  Te2-  Te213  1  0.75056640  0.91766980  0.92218032  1
  Te2-  Te214  1  0.08083449  0.08250228  0.08224040  1
  Te2-  Te215  1  0.07842367  0.08255721  0.41554856  1
  Te2-  Te216  1  0.08438324  0.08072883  0.74732048  1
  Te2-  Te217  1  0.08079074  0.41606539  0.08395908  1
  Te2-  Te218  1  0.08011086  0.41447821  0.41374378  1
  Te2-  Te219  1  0.07997236  0.41257408  0.74894990  1
  Te2-  Te220  1  0.08327052  0.74812975  0.07766279  1
  Te2-  Te221  1  0.07737124  0.74999264  0.41568468  1
  Te2-  Te222  1  0.07696744  0.74439199  0.74500671  1
  Te2-  Te223  1  0.41137295  0.08017072  0.08179583  1
  Te2-  Te224  1  0.40670397  0.08169834  0.41852151  1
  Te2-  Te225  1  0.41160921  0.08271191  0.74180526  1
  Te2-  Te226  1  0.41431208  0.41633892  0.07539433  1
  Te2-  Te227  1  0.41016628  0.41014197  0.41812391  1
  Te2-  Te228  1  0.41356371  0.41392773  0.74867554  1
  Te2-  Te229  1  0.40981977  0.74176611  0.08135066  1
  Te2-  Te230  1  0.41638417  0.74673413  0.41027550  1
  Te2-  Te231  1  0.41637983  0.74907127  0.75149087  1
  Te2-  Te232  1  0.74864250  0.07690029  0.07856893  1
  Te2-  Te233  1  0.74935279  0.07576270  0.41649895  1
  Te2-  Te234  1  0.75074527  0.07833101  0.74334704  1
  Te2-  Te235  1  0.74893613  0.41328824  0.07829056  1
  Te2-  Te236  1  0.74813819  0.41211252  0.40686891  1
  Te2-  Te237  1  0.74420678  0.41670709  0.74881207  1
  Te2-  Te238  1  0.74593380  0.74681184  0.08459935  1
  Te2-  Te239  1  0.74897983  0.74835978  0.41240636  1
  Te2-  Te240  1  0.74912271  0.75031059  0.74687848  1
