# generated using pymatgen
data_Ti27(Cu53Te54)2
_symmetry_space_group_name_H-M   'P 1'
_cell_length_a   17.89135431
_cell_length_b   17.89846043
_cell_length_c   17.89901689
_cell_angle_alpha   90.02278921
_cell_angle_beta   89.95923602
_cell_angle_gamma   89.98262675
_symmetry_Int_Tables_number   1
_chemical_formula_structural   Ti27(Cu53Te54)2
_chemical_formula_sum   'Ti27 Cu106 Te108'
_cell_volume   5731.75878894
_cell_formula_units_Z   1
loop_
 _symmetry_equiv_pos_site_id
 _symmetry_equiv_pos_as_xyz
  1  'x, y, z'
loop_
 _atom_type_symbol
 _atom_type_oxidation_number
  Ti4+  4.0
  Cu+  1.0
  Te2-  -2.0
loop_
 _atom_site_type_symbol
 _atom_site_label
 _atom_site_symmetry_multiplicity
 _atom_site_fract_x
 _atom_site_fract_y
 _atom_site_fract_z
 _atom_site_occupancy
  Ti4+  Ti0  1  0.16789489  0.16413164  0.16674095  1
  Ti4+  Ti1  1  0.16710957  0.16869528  0.50302162  1
  Ti4+  Ti2  1  0.16188622  0.16485367  0.83412803  1
  Ti4+  Ti3  1  0.16714753  0.49677412  0.16739875  1
  Ti4+  Ti4  1  0.16563401  0.50194502  0.50017531  1
  Ti4+  Ti5  1  0.16752947  0.49856805  0.83258718  1
  Ti4+  Ti6  1  0.16668503  0.83118786  0.16853066  1
  Ti4+  Ti7  1  0.16703808  0.83244170  0.50235839  1
  Ti4+  Ti8  1  0.16516903  0.83162375  0.83485350  1
  Ti4+  Ti9  1  0.50103216  0.16932819  0.16523985  1
  Ti4+  Ti10  1  0.50344828  0.16575472  0.50268847  1
  Ti4+  Ti11  1  0.49656556  0.16489233  0.83409690  1
  Ti4+  Ti12  1  0.50268269  0.50143036  0.16524449  1
  Ti4+  Ti13  1  0.49931623  0.50162718  0.49985063  1
  Ti4+  Ti14  1  0.49879876  0.49996020  0.83377102  1
  Ti4+  Ti15  1  0.49735486  0.83245248  0.16256161  1
  Ti4+  Ti16  1  0.50129994  0.83640680  0.49344976  1
  Ti4+  Ti17  1  0.49863690  0.83204754  0.83202119  1
  Ti4+  Ti18  1  0.83210126  0.16203012  0.16418412  1
  Ti4+  Ti19  1  0.83787635  0.16733412  0.49692504  1
  Ti4+  Ti20  1  0.83091754  0.17080565  0.83287671  1
  Ti4+  Ti21  1  0.83425652  0.50122380  0.16881523  1
  Ti4+  Ti22  1  0.83121362  0.49926131  0.50224538  1
  Ti4+  Ti23  1  0.83321905  0.50125059  0.83663042  1
  Ti4+  Ti24  1  0.83455121  0.83373668  0.16631539  1
  Ti4+  Ti25  1  0.83101399  0.83242216  0.49930859  1
  Ti4+  Ti26  1  0.83590106  0.83191996  0.83484193  1
  Cu+  Cu27  1  0.16706331  0.16452764  0.00048022  1
  Cu+  Cu28  1  0.16810016  0.16547503  0.33652617  1
  Cu+  Cu29  1  0.15975585  0.16557290  0.66712650  1
  Cu+  Cu30  1  0.16783012  0.49362957  0.00037802  1
  Cu+  Cu31  1  0.16796657  0.49927588  0.33271569  1
  Cu+  Cu32  1  0.16519288  0.50626426  0.66539107  1
  Cu+  Cu33  1  0.16370660  0.83352050  0.00391091  1
  Cu+  Cu34  1  0.16760737  0.83083374  0.33571313  1
  Cu+  Cu35  1  0.16635255  0.83366840  0.67048686  1
  Cu+  Cu36  1  0.50478154  0.16748343  -0.00061510  1
  Cu+  Cu37  1  0.50178245  0.16791726  0.33752043  1
  Cu+  Cu38  1  0.49998306  0.16243760  0.67027627  1
  Cu+  Cu39  1  0.50433035  0.50490813  -0.00231039  1
  Cu+  Cu40  1  0.49937693  0.49832854  0.33119232  1
  Cu+  Cu41  1  0.49929886  0.50146749  0.66899773  1
  Cu+  Cu42  1  0.49281086  0.82893881  -0.00426236  1
  Cu+  Cu43  1  0.50227233  0.83818286  0.32517698  1
  Cu+  Cu44  1  0.50052979  0.83235464  0.66273373  1
  Cu+  Cu45  1  0.82707714  0.16934170  0.00111517  1
  Cu+  Cu46  1  0.83967938  0.16968449  0.32493614  1
  Cu+  Cu47  1  0.83562930  0.16836054  0.66320915  1
  Cu+  Cu48  1  0.83350754  0.50310386  0.00373582  1
  Cu+  Cu49  1  0.83056015  0.49879988  0.33854957  1
  Cu+  Cu50  1  0.83131837  0.50036852  0.67010011  1
  Cu+  Cu51  1  0.83838364  0.82875143  0.00034229  1
  Cu+  Cu52  1  0.83001044  0.83399362  0.33352381  1
  Cu+  Cu53  1  0.83453102  0.83112553  0.66849345  1
  Cu+  Cu54  1  0.16515245  -0.00181585  0.16897185  1
  Cu+  Cu55  1  0.16767563  0.00072771  0.50428116  1
  Cu+  Cu56  1  0.16294142  -0.00384006  0.83087343  1
  Cu+  Cu57  1  0.16856764  0.32966393  0.16532855  1
  Cu+  Cu58  1  0.16895996  0.33648427  0.49980664  1
  Cu+  Cu59  1  0.16096309  0.33270414  0.83537472  1
  Cu+  Cu60  1  0.17015427  0.66188651  0.16860060  1
  Cu+  Cu61  1  0.16949935  0.66463830  0.50458243  1
  Cu+  Cu62  1  0.16549613  0.66318334  0.83106939  1
  Cu+  Cu63  1  0.50111721  0.00167658  0.16155171  1
  Cu+  Cu64  1  0.50554644  -0.00171750  0.50136021  1
  Cu+  Cu65  1  0.49851534  -0.00024867  0.82800956  1
  Cu+  Cu66  1  0.49978308  0.34011850  0.17099867  1
  Cu+  Cu67  1  0.50113320  0.33209496  0.50169242  1
  Cu+  Cu68  1  0.49657864  0.33118124  0.83679530  1
  Cu+  Cu69  1  0.49763051  0.66599720  0.16276588  1
  Cu+  Cu70  1  0.49756955  0.67293359  0.49561624  1
  Cu+  Cu71  1  0.49584605  0.66688234  0.83700848  1
  Cu+  Cu72  1  0.83216382  -0.00068013  0.16474323  1
  Cu+  Cu73  1  0.83034646  0.00041500  0.49732127  1
  Cu+  Cu74  1  0.83450808  0.00058744  0.83490328  1
  Cu+  Cu75  1  0.83269988  0.32914293  0.16918508  1
  Cu+  Cu76  1  0.84227547  0.33591012  0.49480152  1
  Cu+  Cu77  1  0.83098050  0.33884765  0.83562525  1
  Cu+  Cu78  1  0.83637667  0.67045745  0.16581947  1
  Cu+  Cu79  1  0.82713632  0.66372575  0.49966002  1
  Cu+  Cu80  1  0.83603768  0.66828077  0.83611249  1
  Cu+  Cu81  1  0.00017235  0.16246146  0.16681069  1
  Cu+  Cu82  1  0.00109408  0.16910435  0.50610058  1
  Cu+  Cu83  1  -0.00130470  0.17231404  0.83001330  1
  Cu+  Cu84  1  0.00291255  0.49744279  0.16882723  1
  Cu+  Cu85  1  -0.00136930  0.49719054  0.50092213  1
  Cu+  Cu86  1  0.00189233  0.49843464  0.83535405  1
  Cu+  Cu87  1  0.00150231  0.83258786  0.16413485  1
  Cu+  Cu88  1  -0.00321598  0.82976300  0.50102011  1
  Cu+  Cu89  1  0.00083757  0.83410041  0.83346148  1
  Cu+  Cu90  1  0.33341612  0.16751353  0.17013668  1
  Cu+  Cu91  1  0.33507005  0.16642251  0.50266241  1
  Cu+  Cu92  1  0.32900085  0.16430301  0.83507832  1
  Cu+  Cu93  1  0.33498810  0.49509632  0.16630144  1
  Cu+  Cu94  1  0.33181649  0.50342626  0.49958570  1
  Cu+  Cu95  1  0.33317643  0.49568374  0.83099970  1
  Cu+  Cu96  1  0.33097768  0.83179321  0.16622179  1
  Cu+  Cu97  1  0.33511402  0.83090288  0.49733578  1
  Cu+  Cu98  1  0.33259475  0.82751109  0.83648472  1
  Cu+  Cu99  1  0.66631248  0.16268306  0.15605821  1
  Cu+  Cu100  1  0.67275415  0.16395203  0.50054884  1
  Cu+  Cu101  1  0.66123664  0.16824405  0.83572590  1
  Cu+  Cu102  1  0.67014263  0.50614718  0.16477344  1
  Cu+  Cu103  1  0.66543331  0.50186298  0.49963385  1
  Cu+  Cu104  1  0.66454096  0.50425695  0.83709934  1
  Cu+  Cu105  1  0.66053117  0.83558010  0.16663320  1
  Cu+  Cu106  1  0.66860240  0.84190140  0.49263837  1
  Cu+  Cu107  1  0.67196842  0.83386664  0.83334170  1
  Cu+  Cu108  1  0.07466722  0.06970495  0.59125290  1
  Cu+  Cu109  1  0.07166812  0.40634112  0.93059248  1
  Cu+  Cu110  1  0.59198545  0.06821333  0.06935923  1
  Cu+  Cu111  1  0.93086789  0.41371437  0.40466463  1
  Cu+  Cu112  1  0.26288998  0.59092891  0.59509790  1
  Cu+  Cu113  1  0.40995356  0.74546049  0.58990820  1
  Cu+  Cu114  1  0.73498552  0.59150444  0.40915454  1
  Cu+  Cu115  1  0.74757638  0.07561300  0.59319759  1
  Cu+  Cu116  1  0.59306281  0.07544970  0.74343156  1
  Cu+  Cu117  1  0.07361440  0.92931222  0.07723518  1
  Cu+  Cu118  1  0.39964858  0.73472862  0.92875782  1
  Cu+  Cu119  1  0.59435229  0.59964099  0.92174284  1
  Cu+  Cu120  1  0.59520648  0.91695131  0.59467989  1
  Cu+  Cu121  1  0.74066363  0.26356562  0.07760884  1
  Cu+  Cu122  1  0.58855562  0.93256018  0.25238778  1
  Cu+  Cu123  1  0.07675084  0.26378222  0.73953760  1
  Cu+  Cu124  1  0.92298716  0.26484610  0.59406875  1
  Cu+  Cu125  1  0.58841801  0.26318671  0.92532631  1
  Cu+  Cu126  1  0.93275424  0.73789607  0.07336601  1
  Cu+  Cu127  1  0.07134304  0.92357225  0.74032888  1
  Cu+  Cu128  1  0.74575318  0.93367111  0.40053985  1
  Cu+  Cu129  1  0.40412244  0.40969925  0.26320127  1
  Cu+  Cu130  1  0.74481839  0.59964592  0.07572284  1
  Cu+  Cu131  1  0.06999817  0.59313462  0.74066958  1
  Cu+  Cu132  1  0.93229837  0.25912302  0.24771417  1
  Te2-  Te133  1  0.25317033  0.24898843  0.08062923  1
  Te2-  Te134  1  0.25353741  0.25188916  0.41735495  1
  Te2-  Te135  1  0.24795290  0.25018857  0.74957878  1
  Te2-  Te136  1  0.25290420  0.57995768  0.08133021  1
  Te2-  Te137  1  0.25101937  0.58661352  0.41267289  1
  Te2-  Te138  1  0.25689363  0.58648707  0.74835533  1
  Te2-  Te139  1  0.25158577  0.91833158  0.08215061  1
  Te2-  Te140  1  0.25063622  0.91835703  0.41746791  1
  Te2-  Te141  1  0.25417889  0.91574918  0.75099578  1
  Te2-  Te142  1  0.58618342  0.26142706  0.08010692  1
  Te2-  Te143  1  0.58898577  0.25129835  0.41834585  1
  Te2-  Te144  1  0.58250721  0.25317647  0.74814228  1
  Te2-  Te145  1  0.58884037  0.59202141  0.07796609  1
  Te2-  Te146  1  0.58228395  0.58766504  0.41191183  1
  Te2-  Te147  1  0.58352955  0.58838647  0.74946476  1
  Te2-  Te148  1  0.58337241  0.91576991  0.07252169  1
  Te2-  Te149  1  0.58838734  0.92669944  0.40536945  1
  Te2-  Te150  1  0.58924403  0.91748613  0.74696835  1
  Te2-  Te151  1  0.91972186  0.24997810  0.08053775  1
  Te2-  Te152  1  0.92664630  0.25259921  0.40825816  1
  Te2-  Te153  1  0.91686504  0.25936943  0.74728864  1
  Te2-  Te154  1  0.92405783  0.58460191  0.08312031  1
  Te2-  Te155  1  0.91887950  0.58539224  0.41652383  1
  Te2-  Te156  1  0.91826313  0.58588902  0.74927979  1
  Te2-  Te157  1  0.91918509  0.92110811  0.07910092  1
  Te2-  Te158  1  0.91832678  0.91740058  0.41486120  1
  Te2-  Te159  1  0.91828937  0.92016182  0.74704065  1
  Te2-  Te160  1  0.25180430  0.07986867  0.25362190  1
  Te2-  Te161  1  0.25239760  0.08347236  0.58911995  1
  Te2-  Te162  1  0.24726278  0.07768852  0.91704754  1
  Te2-  Te163  1  0.25210099  0.41002071  0.25389907  1
  Te2-  Te164  1  0.25187691  0.41740131  0.58692982  1
  Te2-  Te165  1  0.25323327  0.41049628  0.91649322  1
  Te2-  Te166  1  0.25279512  0.74612661  0.25350554  1
  Te2-  Te167  1  0.25464618  0.74769622  0.59040900  1
  Te2-  Te168  1  0.24740362  0.74354362  0.92219178  1
  Te2-  Te169  1  0.58684908  0.08478180  0.25209761  1
  Te2-  Te170  1  0.59239595  0.07688172  0.58981330  1
  Te2-  Te171  1  0.58577398  0.07474353  0.91823741  1
  Te2-  Te172  1  0.59182864  0.41903732  0.25128230  1
  Te2-  Te173  1  0.58390014  0.41764318  0.58549189  1
  Te2-  Te174  1  0.58609907  0.41406859  0.91997128  1
  Te2-  Te175  1  0.58285987  0.74515768  0.24827019  1
  Te2-  Te176  1  0.58990130  0.75107598  0.57851305  1
  Te2-  Te177  1  0.58852980  0.75024179  0.91853492  1
  Te2-  Te178  1  0.91950210  0.07531574  0.24998141  1
  Te2-  Te179  1  0.91949383  0.07644305  0.58560876  1
  Te2-  Te180  1  0.91634453  0.08761483  0.91755257  1
  Te2-  Te181  1  0.92048596  0.41270388  0.25406001  1
  Te2-  Te182  1  0.91967702  0.41632220  0.59185228  1
  Te2-  Te183  1  0.91800189  0.41460273  0.92346758  1
  Te2-  Te184  1  0.91927037  0.75099151  0.25436187  1
  Te2-  Te185  1  0.91421788  0.74489088  0.58411477  1
  Te2-  Te186  1  0.92495488  0.74492473  0.91929445  1
  Te2-  Te187  1  0.08322836  0.25069261  0.25331047  1
  Te2-  Te188  1  0.07940342  0.26189364  0.58764292  1
  Te2-  Te189  1  0.07738045  0.25050042  0.92417238  1
  Te2-  Te190  1  0.08230852  0.58356137  0.25280831  1
  Te2-  Te191  1  0.07472283  0.58825124  0.58453524  1
  Te2-  Te192  1  0.08356251  0.58362965  0.92168464  1
  Te2-  Te193  1  0.08088316  0.91568586  0.25529040  1
  Te2-  Te194  1  0.07665177  0.91701898  0.58751621  1
  Te2-  Te195  1  0.07897861  0.91877136  0.92169467  1
  Te2-  Te196  1  0.41652336  0.25297405  0.25482438  1
  Te2-  Te197  1  0.41776418  0.24983731  0.58805144  1
  Te2-  Te198  1  0.41038789  0.24906970  0.92103418  1
  Te2-  Te199  1  0.41430637  0.58522189  0.24998960  1
  Te2-  Te200  1  0.41543879  0.58990216  0.58751381  1
  Te2-  Te201  1  0.40800700  0.58294005  0.92068895  1
  Te2-  Te202  1  0.41266937  0.92143284  0.24612162  1
  Te2-  Te203  1  0.41429371  0.91962303  0.58247090  1
  Te2-  Te204  1  0.41340203  0.91987914  0.91513564  1
  Te2-  Te205  1  0.74253840  0.24732145  0.24933023  1
  Te2-  Te206  1  0.75248095  0.25618916  0.58057206  1
  Te2-  Te207  1  0.74380694  0.25744785  0.91963757  1
  Te2-  Te208  1  0.75016495  0.58932035  0.25469682  1
  Te2-  Te209  1  0.74523582  0.58438942  0.58955328  1
  Te2-  Te210  1  0.74843535  0.59102516  0.92247908  1
  Te2-  Te211  1  0.74464784  0.92188612  0.25000104  1
  Te2-  Te212  1  0.74793221  0.92039149  0.59153213  1
  Te2-  Te213  1  0.75185279  0.91752794  0.92078160  1
  Te2-  Te214  1  0.08017190  0.08017624  0.07993687  1
  Te2-  Te215  1  0.08130579  0.08226115  0.41846085  1
  Te2-  Te216  1  0.07283689  0.07725743  0.74681285  1
  Te2-  Te217  1  0.07975013  0.40941176  0.08286538  1
  Te2-  Te218  1  0.08233938  0.41348980  0.41300077  1
  Te2-  Te219  1  0.07967969  0.41551883  0.74331175  1
  Te2-  Te220  1  0.08366224  0.74067874  0.08207027  1
  Te2-  Te221  1  0.08283395  0.74640453  0.41865877  1
  Te2-  Te222  1  0.07880321  0.74544778  0.74687922  1
  Te2-  Te223  1  0.41439441  0.08543423  0.08057238  1
  Te2-  Te224  1  0.41763325  0.08083563  0.41821477  1
  Te2-  Te225  1  0.40891420  0.08015568  0.74773230  1
  Te2-  Te226  1  0.41904161  0.41647118  0.07704531  1
  Te2-  Te227  1  0.41348620  0.41370887  0.41711778  1
  Te2-  Te228  1  0.41585726  0.41228275  0.74758696  1
  Te2-  Te229  1  0.40869609  0.74428719  0.07985606  1
  Te2-  Te230  1  0.41599789  0.75236527  0.40544543  1
  Te2-  Te231  1  0.41353221  0.74611524  0.74517716  1
  Te2-  Te232  1  0.74705166  0.07323558  0.07439877  1
  Te2-  Te233  1  0.75088251  0.08549956  0.40636808  1
  Te2-  Te234  1  0.74770014  0.08102748  0.74812899  1
  Te2-  Te235  1  0.74902827  0.41463987  0.08247689  1
  Te2-  Te236  1  0.74478981  0.41143872  0.41676870  1
  Te2-  Te237  1  0.74475218  0.41874172  0.75180242  1
  Te2-  Te238  1  0.74454496  0.75116567  0.08095584  1
  Te2-  Te239  1  0.74439327  0.74665910  0.41211858  1
  Te2-  Te240  1  0.75011245  0.74620585  0.74945217  1
