# generated using pymatgen
data_Ti27(Cu53Te54)2
_symmetry_space_group_name_H-M   'P 1'
_cell_length_a   17.86696028
_cell_length_b   17.86990984
_cell_length_c   17.86616028
_cell_angle_alpha   90.01831700
_cell_angle_beta   90.00840412
_cell_angle_gamma   90.00918476
_symmetry_Int_Tables_number   1
_chemical_formula_structural   Ti27(Cu53Te54)2
_chemical_formula_sum   'Ti27 Cu106 Te108'
_cell_volume   5704.32454446
_cell_formula_units_Z   1
loop_
 _symmetry_equiv_pos_site_id
 _symmetry_equiv_pos_as_xyz
  1  'x, y, z'
loop_
 _atom_type_symbol
 _atom_type_oxidation_number
  Ti4+  4.0
  Cu+  1.0
  Te2-  -2.0
loop_
 _atom_site_type_symbol
 _atom_site_label
 _atom_site_symmetry_multiplicity
 _atom_site_fract_x
 _atom_site_fract_y
 _atom_site_fract_z
 _atom_site_occupancy
  Ti4+  Ti0  1  0.16715545  0.16412225  0.16634470  1
  Ti4+  Ti1  1  0.16920262  0.16810170  0.49827331  1
  Ti4+  Ti2  1  0.16694101  0.17096586  0.83094452  1
  Ti4+  Ti3  1  0.16788756  0.50092488  0.16805084  1
  Ti4+  Ti4  1  0.16451601  0.50300355  0.49874452  1
  Ti4+  Ti5  1  0.16892049  0.49950800  0.83655531  1
  Ti4+  Ti6  1  0.16822040  0.83338508  0.16543469  1
  Ti4+  Ti7  1  0.16462415  0.83292365  0.50169575  1
  Ti4+  Ti8  1  0.16645030  0.83579477  0.83293884  1
  Ti4+  Ti9  1  0.50218975  0.16781839  0.16554406  1
  Ti4+  Ti10  1  0.49877402  0.16668103  0.49811676  1
  Ti4+  Ti11  1  0.49450932  0.16687112  0.83238441  1
  Ti4+  Ti12  1  0.50138898  0.50355463  0.16742323  1
  Ti4+  Ti13  1  0.49833701  0.50124066  0.49795644  1
  Ti4+  Ti14  1  0.49879936  0.50134018  0.83202915  1
  Ti4+  Ti15  1  0.50222501  0.83118421  0.16726946  1
  Ti4+  Ti16  1  0.49982546  0.83169134  0.50145425  1
  Ti4+  Ti17  1  0.50116953  0.83315499  0.83114272  1
  Ti4+  Ti18  1  0.83227039  0.16309085  0.16517369  1
  Ti4+  Ti19  1  0.83535458  0.16677322  0.50009052  1
  Ti4+  Ti20  1  0.83188006  0.16652414  0.83477058  1
  Ti4+  Ti21  1  0.83279243  0.49811802  0.16837889  1
  Ti4+  Ti22  1  0.83055322  0.49686942  0.49905810  1
  Ti4+  Ti23  1  0.83327954  0.49946851  0.83466062  1
  Ti4+  Ti24  1  0.83534622  0.82930329  0.16811336  1
  Ti4+  Ti25  1  0.83446535  0.83264209  0.50412473  1
  Ti4+  Ti26  1  0.83196104  0.83744269  0.83246704  1
  Cu+  Cu27  1  0.16538688  0.16647477  -0.00080562  1
  Cu+  Cu28  1  0.17002823  0.16483766  0.33301068  1
  Cu+  Cu29  1  0.17005831  0.16723609  0.66467391  1
  Cu+  Cu30  1  0.16640949  0.50102965  0.00317674  1
  Cu+  Cu31  1  0.17003834  0.49989306  0.33479507  1
  Cu+  Cu32  1  0.16679681  0.50024634  0.67056139  1
  Cu+  Cu33  1  0.16814863  0.83588504  -0.00042077  1
  Cu+  Cu34  1  0.16486593  0.83149982  0.33073594  1
  Cu+  Cu35  1  0.16259056  0.83213634  0.66661944  1
  Cu+  Cu36  1  0.50171191  0.16569601  0.00156985  1
  Cu+  Cu37  1  0.49793085  0.16437292  0.32835382  1
  Cu+  Cu38  1  0.49553995  0.17129611  0.66443688  1
  Cu+  Cu39  1  0.49528967  0.50243180  -0.00099770  1
  Cu+  Cu40  1  0.50381448  0.50451321  0.33481177  1
  Cu+  Cu41  1  0.50029977  0.50199873  0.66392842  1
  Cu+  Cu42  1  0.50356837  0.83073082  -0.00230056  1
  Cu+  Cu43  1  0.50324045  0.83352448  0.33470774  1
  Cu+  Cu44  1  0.49871985  0.82811082  0.66707633  1
  Cu+  Cu45  1  0.82690764  0.16487014  -0.00103796  1
  Cu+  Cu46  1  0.83495952  0.16255212  0.33250529  1
  Cu+  Cu47  1  0.83534565  0.16911979  0.66720170  1
  Cu+  Cu48  1  0.83147326  0.50114588  0.00031899  1
  Cu+  Cu49  1  0.83447386  0.49180169  0.33497761  1
  Cu+  Cu50  1  0.83093931  0.50082291  0.66805517  1
  Cu+  Cu51  1  0.83105996  0.83545303  0.00288598  1
  Cu+  Cu52  1  0.83637574  0.82816761  0.33695721  1
  Cu+  Cu53  1  0.83477621  0.84322174  0.66731537  1
  Cu+  Cu54  1  0.16799179  -0.00345476  0.16344223  1
  Cu+  Cu55  1  0.16897603  0.00043070  0.49746186  1
  Cu+  Cu56  1  0.16514239  0.00555408  0.83205351  1
  Cu+  Cu57  1  0.16734175  0.33289327  0.16918103  1
  Cu+  Cu58  1  0.16871439  0.33576031  0.49774174  1
  Cu+  Cu59  1  0.17215792  0.33369062  0.83789162  1
  Cu+  Cu60  1  0.16540530  0.66914493  0.16956324  1
  Cu+  Cu61  1  0.15981677  0.66983550  0.50434051  1
  Cu+  Cu62  1  0.16870751  0.66546901  0.83353682  1
  Cu+  Cu63  1  0.50290100  0.00109208  0.16843924  1
  Cu+  Cu64  1  0.50293397  0.00003859  0.50148110  1
  Cu+  Cu65  1  0.49393374  -0.00365932  0.82922630  1
  Cu+  Cu66  1  0.50411994  0.33412078  0.16635566  1
  Cu+  Cu67  1  0.50053115  0.33338734  0.49624480  1
  Cu+  Cu68  1  0.49287938  0.33413860  0.83235976  1
  Cu+  Cu69  1  0.50256863  0.66517161  0.16765502  1
  Cu+  Cu70  1  0.49152445  0.66748886  0.50104666  1
  Cu+  Cu71  1  0.50671119  0.66914463  0.82961777  1
  Cu+  Cu72  1  0.83359235  -0.00596516  0.16585635  1
  Cu+  Cu73  1  0.83734084  0.00069848  0.50404593  1
  Cu+  Cu74  1  0.82545018  0.00288922  0.83290581  1
  Cu+  Cu75  1  0.83094221  0.32920905  0.16507250  1
  Cu+  Cu76  1  0.83529526  0.33188188  0.49610482  1
  Cu+  Cu77  1  0.83567254  0.33476647  0.83487307  1
  Cu+  Cu78  1  0.83277529  0.66234597  0.16677156  1
  Cu+  Cu79  1  0.83353523  0.66138436  0.50476491  1
  Cu+  Cu80  1  0.83424817  0.66883049  0.83429835  1
  Cu+  Cu81  1  -0.00153508  0.16460900  0.16605163  1
  Cu+  Cu82  1  0.00471076  0.16918359  0.50101334  1
  Cu+  Cu83  1  0.00079915  0.16503016  0.83698020  1
  Cu+  Cu84  1  0.00048699  0.49780618  0.16932347  1
  Cu+  Cu85  1  -0.00525409  0.49989917  0.50047992  1
  Cu+  Cu86  1  0.00220171  0.49891984  0.83555303  1
  Cu+  Cu87  1  0.00333739  0.82764783  0.16999040  1
  Cu+  Cu88  1  -0.00099312  0.83345187  0.50772600  1
  Cu+  Cu89  1  -0.00162345  0.83649570  0.83371065  1
  Cu+  Cu90  1  0.33842589  0.16488475  0.16891062  1
  Cu+  Cu91  1  0.33181009  0.16471004  0.49406617  1
  Cu+  Cu92  1  0.33028392  0.17543750  0.82583161  1
  Cu+  Cu93  1  0.33399271  0.50421233  0.16533262  1
  Cu+  Cu94  1  0.33021673  0.50443694  0.49224745  1
  Cu+  Cu95  1  0.33583568  0.49667299  0.83817321  1
  Cu+  Cu96  1  0.33375347  0.83363297  0.16515640  1
  Cu+  Cu97  1  0.33415861  0.82960595  0.50416947  1
  Cu+  Cu98  1  0.33344479  0.83746997  0.83159774  1
  Cu+  Cu99  1  0.66740867  0.17074752  0.16179090  1
  Cu+  Cu100  1  0.66876200  0.16745535  0.50017416  1
  Cu+  Cu101  1  0.66279609  0.16435082  0.83708287  1
  Cu+  Cu102  1  0.66806371  0.50740039  0.16818588  1
  Cu+  Cu103  1  0.66348093  0.49538264  0.49595613  1
  Cu+  Cu104  1  0.66626100  0.49973548  0.83346277  1
  Cu+  Cu105  1  0.66908215  0.83151650  0.16727630  1
  Cu+  Cu106  1  0.66671526  0.83091910  0.50102404  1
  Cu+  Cu107  1  0.66701427  0.83542330  0.82521640  1
  Cu+  Cu108  1  0.74085200  0.26335941  0.06971662  1
  Cu+  Cu109  1  0.59174992  0.40136501  0.40417285  1
  Cu+  Cu110  1  0.25689010  0.06703759  0.40379816  1
  Cu+  Cu111  1  0.74294213  0.59386704  0.06916513  1
  Cu+  Cu112  1  0.25639847  0.25711915  0.93326856  1
  Cu+  Cu113  1  0.40981892  0.06951271  0.25571639  1
  Cu+  Cu114  1  0.06997518  0.74035528  0.60011692  1
  Cu+  Cu115  1  0.93097792  0.93432477  0.59498993  1
  Cu+  Cu116  1  0.07366895  0.73652941  0.26191806  1
  Cu+  Cu117  1  0.60037382  0.73707406  0.73720186  1
  Cu+  Cu118  1  0.07364118  0.07482370  0.92706304  1
  Cu+  Cu119  1  0.40467267  0.92153108  0.73556610  1
  Cu+  Cu120  1  0.73197361  0.07347698  0.92723902  1
  Cu+  Cu121  1  0.40602661  0.26657107  0.73188838  1
  Cu+  Cu122  1  0.26083685  0.40647904  0.40593799  1
  Cu+  Cu123  1  0.92852933  0.40251712  0.40606660  1
  Cu+  Cu124  1  0.92265329  0.58611087  0.59732746  1
  Cu+  Cu125  1  0.40144900  0.59810971  0.40493048  1
  Cu+  Cu126  1  0.41114759  0.40483472  0.93161998  1
  Cu+  Cu127  1  0.59737932  0.59644777  0.26501161  1
  Cu+  Cu128  1  0.73787895  0.93364666  0.73470719  1
  Cu+  Cu129  1  0.40394050  0.59564985  0.06984844  1
  Cu+  Cu130  1  0.40326683  0.73613905  0.59831522  1
  Cu+  Cu131  1  0.25665402  0.07486025  0.73971226  1
  Cu+  Cu132  1  0.73830213  0.92342963  0.08003578  1
  Te2-  Te133  1  0.25460977  0.25092376  0.08469935  1
  Te2-  Te134  1  0.25448040  0.25487158  0.40980100  1
  Te2-  Te135  1  0.25100036  0.26140571  0.73972373  1
  Te2-  Te136  1  0.25082994  0.59025374  0.08113543  1
  Te2-  Te137  1  0.24669249  0.59567058  0.41346018  1
  Te2-  Te138  1  0.25504516  0.58346833  0.75082706  1
  Te2-  Te139  1  0.25532565  0.91901963  0.07901984  1
  Te2-  Te140  1  0.25383199  0.91341730  0.41402841  1
  Te2-  Te141  1  0.25076475  0.92165224  0.74260982  1
  Te2-  Te142  1  0.58611549  0.25639337  0.07589739  1
  Te2-  Te143  1  0.58576698  0.24864275  0.41033682  1
  Te2-  Te144  1  0.58295213  0.25220149  0.75097734  1
  Te2-  Te145  1  0.58670438  0.58686813  0.07565543  1
  Te2-  Te146  1  0.58778126  0.59289540  0.41840236  1
  Te2-  Te147  1  0.58833120  0.58359292  0.74414180  1
  Te2-  Te148  1  0.58526939  0.91855448  0.08084283  1
  Te2-  Te149  1  0.58667710  0.91753458  0.41705869  1
  Te2-  Te150  1  0.58425176  0.92300591  0.74128246  1
  Te2-  Te151  1  0.91734003  0.24879014  0.07878595  1
  Te2-  Te152  1  0.92263103  0.24947314  0.41107756  1
  Te2-  Te153  1  0.92035021  0.25116675  0.75177670  1
  Te2-  Te154  1  0.92031524  0.58225316  0.08294611  1
  Te2-  Te155  1  0.91596948  0.58462217  0.41253909  1
  Te2-  Te156  1  0.92046915  0.58590618  0.75056874  1
  Te2-  Te157  1  0.92325125  0.91377527  0.08373124  1
  Te2-  Te158  1  0.91972757  0.91657825  0.41717463  1
  Te2-  Te159  1  0.92153455  0.92667000  0.75056727  1
  Te2-  Te160  1  0.25472871  0.07539831  0.25161278  1
  Te2-  Te161  1  0.25547829  0.07953141  0.58457087  1
  Te2-  Te162  1  0.25642888  0.08481909  0.91618439  1
  Te2-  Te163  1  0.25622655  0.41429681  0.25159160  1
  Te2-  Te164  1  0.25250933  0.41987312  0.58321607  1
  Te2-  Te165  1  0.25578712  0.41341733  0.92815401  1
  Te2-  Te166  1  0.25524122  0.74847612  0.25236408  1
  Te2-  Te167  1  0.25062918  0.74553174  0.58936958  1
  Te2-  Te168  1  0.25215311  0.75130841  0.91618795  1
  Te2-  Te169  1  0.59082548  0.08316275  0.25028347  1
  Te2-  Te170  1  0.58396029  0.08555255  0.58612951  1
  Te2-  Te171  1  0.57839681  0.07658719  0.91741863  1
  Te2-  Te172  1  0.58838673  0.41534473  0.25171786  1
  Te2-  Te173  1  0.58250858  0.41427817  0.58475924  1
  Te2-  Te174  1  0.58200559  0.41464012  0.91811522  1
  Te2-  Te175  1  0.58925516  0.74771234  0.25455338  1
  Te2-  Te176  1  0.58696143  0.74299789  0.58470974  1
  Te2-  Te177  1  0.59071404  0.74960457  0.91620624  1
  Te2-  Te178  1  0.91812061  0.07694530  0.24971780  1
  Te2-  Te179  1  0.92386224  0.08500587  0.58857302  1
  Te2-  Te180  1  0.91720908  0.07859763  0.92079022  1
  Te2-  Te181  1  0.91967346  0.40804134  0.25012320  1
  Te2-  Te182  1  0.91642770  0.41261290  0.58750945  1
  Te2-  Te183  1  0.91881751  0.41592740  0.92175329  1
  Te2-  Te184  1  0.91915497  0.74133072  0.25478273  1
  Te2-  Te185  1  0.91781744  0.74393681  0.59410285  1
  Te2-  Te186  1  0.91669570  0.75250706  0.91921514  1
  Te2-  Te187  1  0.08253936  0.24807669  0.25143209  1
  Te2-  Te188  1  0.08577235  0.25480010  0.58496713  1
  Te2-  Te189  1  0.08030905  0.25517436  0.91978550  1
  Te2-  Te190  1  0.08022365  0.58385567  0.25554583  1
  Te2-  Te191  1  0.07728530  0.58472503  0.59075832  1
  Te2-  Te192  1  0.08286451  0.58579973  0.91989222  1
  Te2-  Te193  1  0.08155433  0.92020943  0.25115843  1
  Te2-  Te194  1  0.08318167  0.92512368  0.58738664  1
  Te2-  Te195  1  0.08088830  0.92145469  0.91915349  1
  Te2-  Te196  1  0.41653716  0.25620305  0.25066988  1
  Te2-  Te197  1  0.41032178  0.25536421  0.57918781  1
  Te2-  Te198  1  0.41104123  0.25177398  0.92517597  1
  Te2-  Te199  1  0.41265155  0.58823469  0.25438658  1
  Te2-  Te200  1  0.40843891  0.58324580  0.58760591  1
  Te2-  Te201  1  0.41477242  0.59349686  0.91564955  1
  Te2-  Te202  1  0.41597385  0.91632343  0.25293948  1
  Te2-  Te203  1  0.41400918  0.92119046  0.58522508  1
  Te2-  Te204  1  0.41568710  0.91636675  0.92099664  1
  Te2-  Te205  1  0.74884479  0.24852552  0.25372218  1
  Te2-  Te206  1  0.75024503  0.25355800  0.58476594  1
  Te2-  Te207  1  0.74402575  0.25618454  0.91689401  1
  Te2-  Te208  1  0.75123287  0.58551504  0.26022876  1
  Te2-  Te209  1  0.74204355  0.58085674  0.58433698  1
  Te2-  Te210  1  0.74565806  0.58809801  0.91738299  1
  Te2-  Te211  1  0.75078313  0.91411620  0.25613615  1
  Te2-  Te212  1  0.74319614  0.92239342  0.58362413  1
  Te2-  Te213  1  0.74119616  0.91921451  0.92152765  1
  Te2-  Te214  1  0.08034203  0.07889126  0.08051053  1
  Te2-  Te215  1  0.08200739  0.08210463  0.41414943  1
  Te2-  Te216  1  0.07976390  0.08502825  0.74411877  1
  Te2-  Te217  1  0.08260171  0.41415146  0.08395055  1
  Te2-  Te218  1  0.07920715  0.41542986  0.41373874  1
  Te2-  Te219  1  0.08412894  0.41272849  0.75204609  1
  Te2-  Te220  1  0.08311623  0.74781156  0.07783291  1
  Te2-  Te221  1  0.07626692  0.74896156  0.41525283  1
  Te2-  Te222  1  0.07877000  0.74657419  0.75200430  1
  Te2-  Te223  1  0.41646674  0.07948813  0.08045281  1
  Te2-  Te224  1  0.41428304  0.07531413  0.41187930  1
  Te2-  Te225  1  0.41027419  0.07957698  0.74277676  1
  Te2-  Te226  1  0.41438628  0.41336448  0.08451249  1
  Te2-  Te227  1  0.41387105  0.41428899  0.40911119  1
  Te2-  Te228  1  0.41222600  0.41778219  0.74175242  1
  Te2-  Te229  1  0.41607093  0.74731253  0.08002375  1
  Te2-  Te230  1  0.41189513  0.75051928  0.40989384  1
  Te2-  Te231  1  0.40950572  0.74370984  0.74969664  1
  Te2-  Te232  1  0.74249862  0.07484683  0.07998375  1
  Te2-  Te233  1  0.75043973  0.07927390  0.41696270  1
  Te2-  Te234  1  0.74329259  0.08614303  0.74334495  1
  Te2-  Te235  1  0.74404230  0.41516489  0.08144634  1
  Te2-  Te236  1  0.74454638  0.40818507  0.41165983  1
  Te2-  Te237  1  0.74794071  0.41360637  0.74915879  1
  Te2-  Te238  1  0.74690197  0.74452574  0.08010518  1
  Te2-  Te239  1  0.75037070  0.74531075  0.41946803  1
  Te2-  Te240  1  0.75237886  0.74694927  0.74321606  1
