# generated using pymatgen
data_Ti27(Cu53Te54)2
_symmetry_space_group_name_H-M   'P 1'
_cell_length_a   17.87874970
_cell_length_b   17.87870085
_cell_length_c   17.87926490
_cell_angle_alpha   89.98814623
_cell_angle_beta   90.00129126
_cell_angle_gamma   90.03210836
_symmetry_Int_Tables_number   1
_chemical_formula_structural   Ti27(Cu53Te54)2
_chemical_formula_sum   'Ti27 Cu106 Te108'
_cell_volume   5715.08485925
_cell_formula_units_Z   1
loop_
 _symmetry_equiv_pos_site_id
 _symmetry_equiv_pos_as_xyz
  1  'x, y, z'
loop_
 _atom_type_symbol
 _atom_type_oxidation_number
  Ti4+  4.0
  Cu+  1.0
  Te2-  -2.0
loop_
 _atom_site_type_symbol
 _atom_site_label
 _atom_site_symmetry_multiplicity
 _atom_site_fract_x
 _atom_site_fract_y
 _atom_site_fract_z
 _atom_site_occupancy
  Ti4+  Ti0  1  0.16908300  0.16619911  0.16437805  1
  Ti4+  Ti1  1  0.15975389  0.16768176  0.50141589  1
  Ti4+  Ti2  1  0.16765864  0.16605819  0.83244092  1
  Ti4+  Ti3  1  0.16601080  0.50132683  0.16936107  1
  Ti4+  Ti4  1  0.16794605  0.50010524  0.50162893  1
  Ti4+  Ti5  1  0.16939045  0.49874149  0.83369826  1
  Ti4+  Ti6  1  0.16726467  0.83483554  0.16725436  1
  Ti4+  Ti7  1  0.16917455  0.83611209  0.49883049  1
  Ti4+  Ti8  1  0.16597309  0.83180380  0.83303840  1
  Ti4+  Ti9  1  0.49820299  0.16584940  0.16359580  1
  Ti4+  Ti10  1  0.49825206  0.16580151  0.49995383  1
  Ti4+  Ti11  1  0.50064550  0.16634709  0.83364303  1
  Ti4+  Ti12  1  0.50079986  0.50145886  0.16767956  1
  Ti4+  Ti13  1  0.50340700  0.49789579  0.49943930  1
  Ti4+  Ti14  1  0.50295547  0.49749643  0.83319816  1
  Ti4+  Ti15  1  0.49913125  0.83186281  0.17121501  1
  Ti4+  Ti16  1  0.49986020  0.82829825  0.50188581  1
  Ti4+  Ti17  1  0.49848193  0.83215709  0.83293462  1
  Ti4+  Ti18  1  0.83199843  0.16609006  0.16534216  1
  Ti4+  Ti19  1  0.83059662  0.16580460  0.50053872  1
  Ti4+  Ti20  1  0.83462937  0.16827345  0.83711940  1
  Ti4+  Ti21  1  0.83531910  0.50033214  0.16519685  1
  Ti4+  Ti22  1  0.83276247  0.49996605  0.49899516  1
  Ti4+  Ti23  1  0.82765793  0.50271644  0.83366871  1
  Ti4+  Ti24  1  0.83491268  0.83497605  0.16502551  1
  Ti4+  Ti25  1  0.83452350  0.83412684  0.49781615  1
  Ti4+  Ti26  1  0.83149032  0.83482611  0.83104051  1
  Cu+  Cu27  1  0.17330362  0.16573646  -0.00300178  1
  Cu+  Cu28  1  0.16247584  0.16425907  0.33510504  1
  Cu+  Cu29  1  0.15804197  0.16920303  0.66916046  1
  Cu+  Cu30  1  0.16621474  0.50030273  0.00482588  1
  Cu+  Cu31  1  0.16717386  0.50048682  0.33576559  1
  Cu+  Cu32  1  0.16905594  0.49756518  0.66613041  1
  Cu+  Cu33  1  0.16527430  0.83205654  -0.00377176  1
  Cu+  Cu34  1  0.16684900  0.84158943  0.33283608  1
  Cu+  Cu35  1  0.16923801  0.83060036  0.66710107  1
  Cu+  Cu36  1  0.50288907  0.16823165  -0.00316377  1
  Cu+  Cu37  1  0.49603907  0.16558813  0.32871035  1
  Cu+  Cu38  1  0.49763882  0.16511751  0.66534023  1
  Cu+  Cu39  1  0.50242767  0.50489333  -0.00090864  1
  Cu+  Cu40  1  0.50276912  0.50000008  0.33478658  1
  Cu+  Cu41  1  0.50576763  0.49501514  0.66761079  1
  Cu+  Cu42  1  0.49749501  0.83225882  0.00230243  1
  Cu+  Cu43  1  0.49649795  0.82297609  0.33798616  1
  Cu+  Cu44  1  0.50061326  0.83038087  0.66721963  1
  Cu+  Cu45  1  0.83401182  0.15918352  0.00288407  1
  Cu+  Cu46  1  0.83085404  0.16660167  0.33384798  1
  Cu+  Cu47  1  0.83652525  0.17208121  0.66708746  1
  Cu+  Cu48  1  0.82624129  0.50543699  0.00287853  1
  Cu+  Cu49  1  0.83542912  0.49622119  0.33045476  1
  Cu+  Cu50  1  0.82481398  0.50106529  0.66537723  1
  Cu+  Cu51  1  0.83417958  0.83324634  -0.00302499  1
  Cu+  Cu52  1  0.83475288  0.83514664  0.32924329  1
  Cu+  Cu53  1  0.83402256  0.83495697  0.66320562  1
  Cu+  Cu54  1  0.17265075  0.00041364  0.16596716  1
  Cu+  Cu55  1  0.16240273  0.00344168  0.49423632  1
  Cu+  Cu56  1  0.16470682  -0.00349957  0.83369237  1
  Cu+  Cu57  1  0.16884555  0.33602969  0.16653237  1
  Cu+  Cu58  1  0.16477156  0.33478516  0.50279328  1
  Cu+  Cu59  1  0.17158890  0.33225892  0.83136787  1
  Cu+  Cu60  1  0.16256197  0.66521922  0.16641759  1
  Cu+  Cu61  1  0.16883427  0.66615918  0.50080112  1
  Cu+  Cu62  1  0.16900969  0.66909874  0.83028043  1
  Cu+  Cu63  1  0.49666429  -0.00144599  0.16339021  1
  Cu+  Cu64  1  0.49872412  -0.00149726  0.50290641  1
  Cu+  Cu65  1  0.49710180  -0.00113382  0.83211780  1
  Cu+  Cu66  1  0.49823665  0.33334318  0.16484275  1
  Cu+  Cu67  1  0.49813818  0.32937855  0.49743351  1
  Cu+  Cu68  1  0.50721576  0.33036281  0.83314721  1
  Cu+  Cu69  1  0.49806485  0.66941054  0.17532497  1
  Cu+  Cu70  1  0.50709412  0.66291023  0.49934307  1
  Cu+  Cu71  1  0.49915143  0.66488890  0.83627528  1
  Cu+  Cu72  1  0.83696095  0.00107841  0.16211694  1
  Cu+  Cu73  1  0.83111287  0.00031089  0.49816998  1
  Cu+  Cu74  1  0.83296882  0.00164774  0.83693784  1
  Cu+  Cu75  1  0.83374767  0.33275544  0.17000784  1
  Cu+  Cu76  1  0.83175128  0.33224028  0.50251671  1
  Cu+  Cu77  1  0.83104114  0.33771987  0.83870372  1
  Cu+  Cu78  1  0.83518874  0.66899298  0.16379624  1
  Cu+  Cu79  1  0.83816180  0.66826257  0.49761830  1
  Cu+  Cu80  1  0.82827688  0.66889332  0.82735376  1
  Cu+  Cu81  1  -0.00018433  0.16563018  0.16420655  1
  Cu+  Cu82  1  -0.00796540  0.16874391  0.50670382  1
  Cu+  Cu83  1  0.00379521  0.16994062  0.83164411  1
  Cu+  Cu84  1  0.00316861  0.50586871  0.16528026  1
  Cu+  Cu85  1  0.00207096  0.50130234  0.50085799  1
  Cu+  Cu86  1  -0.00433350  0.50286573  0.83540598  1
  Cu+  Cu87  1  -0.00069085  0.83482325  0.16622230  1
  Cu+  Cu88  1  0.00267850  0.83689982  0.49691617  1
  Cu+  Cu89  1  -0.00154728  0.83407612  0.83129606  1
  Cu+  Cu90  1  0.33379155  0.16218889  0.16134189  1
  Cu+  Cu91  1  0.32853718  0.16650514  0.50344162  1
  Cu+  Cu92  1  0.33318426  0.16938213  0.83607753  1
  Cu+  Cu93  1  0.33168288  0.49983962  0.16816309  1
  Cu+  Cu94  1  0.33732016  0.50119541  0.50125760  1
  Cu+  Cu95  1  0.33424042  0.49382218  0.82841518  1
  Cu+  Cu96  1  0.33448604  0.83435522  0.17177336  1
  Cu+  Cu97  1  0.33907900  0.83568954  0.49786084  1
  Cu+  Cu98  1  0.33001514  0.82907287  0.83194998  1
  Cu+  Cu99  1  0.66386723  0.16673574  0.16582677  1
  Cu+  Cu100  1  0.66290594  0.16544660  0.49742041  1
  Cu+  Cu101  1  0.66817601  0.16696902  0.83903274  1
  Cu+  Cu102  1  0.66915270  0.50047636  0.16714480  1
  Cu+  Cu103  1  0.67080237  0.49633699  0.50376361  1
  Cu+  Cu104  1  0.66569478  0.50006466  0.83378850  1
  Cu+  Cu105  1  0.66830675  0.83434594  0.16967231  1
  Cu+  Cu106  1  0.66666755  0.82779164  0.49829622  1
  Cu+  Cu107  1  0.66440423  0.83429688  0.83264094  1
  Cu+  Cu108  1  0.26213612  0.41147194  0.07925885  1
  Cu+  Cu109  1  0.39893161  0.73532332  0.26452495  1
  Cu+  Cu110  1  0.59331859  0.39966856  0.73735036  1
  Cu+  Cu111  1  0.73972354  0.40604402  0.26013591  1
  Cu+  Cu112  1  0.92281492  0.26595191  0.59400014  1
  Cu+  Cu113  1  0.42044734  0.92817481  0.40891343  1
  Cu+  Cu114  1  0.26056451  0.06992920  0.06745205  1
  Cu+  Cu115  1  0.74137240  0.40956137  0.93156920  1
  Cu+  Cu116  1  0.40945029  0.92189737  0.07016107  1
  Cu+  Cu117  1  0.59678004  0.25794823  0.92946088  1
  Cu+  Cu118  1  0.06884917  0.92921970  0.40435355  1
  Cu+  Cu119  1  0.26100140  0.26071983  0.92593731  1
  Cu+  Cu120  1  0.26144447  0.92881532  0.25880104  1
  Cu+  Cu121  1  0.07501947  0.59538217  0.06961759  1
  Cu+  Cu122  1  0.73755801  0.06928219  0.92787922  1
  Cu+  Cu123  1  0.59043646  0.59815562  0.92545680  1
  Cu+  Cu124  1  0.73718906  0.59967339  0.08370384  1
  Cu+  Cu125  1  0.59990798  0.73397800  0.40858984  1
  Cu+  Cu126  1  0.26184472  0.73953388  0.73646214  1
  Cu+  Cu127  1  0.73848224  0.60066971  0.73263708  1
  Cu+  Cu128  1  0.25910939  0.08284274  0.41020624  1
  Cu+  Cu129  1  0.93186360  0.07156571  0.07397976  1
  Cu+  Cu130  1  0.74102095  0.40133993  0.59329312  1
  Cu+  Cu131  1  0.26052623  0.40249616  0.73438393  1
  Cu+  Cu132  1  0.07363328  0.26565621  0.74542967  1
  Te2-  Te133  1  0.25713448  0.25585587  0.07992475  1
  Te2-  Te134  1  0.24749294  0.25208453  0.41608895  1
  Te2-  Te135  1  0.25622144  0.24970387  0.74180299  1
  Te2-  Te136  1  0.25343345  0.58826953  0.08283255  1
  Te2-  Te137  1  0.25409296  0.58463385  0.41609729  1
  Te2-  Te138  1  0.25463980  0.58452562  0.74624708  1
  Te2-  Te139  1  0.25497900  0.91678458  0.07523996  1
  Te2-  Te140  1  0.25942786  0.92516044  0.41260996  1
  Te2-  Te141  1  0.25204054  0.91922366  0.74791636  1
  Te2-  Te142  1  0.58637679  0.25440638  0.08161665  1
  Te2-  Te143  1  0.58215489  0.24922715  0.41104253  1
  Te2-  Te144  1  0.58967167  0.24665709  0.74389927  1
  Te2-  Te145  1  0.58527687  0.59250769  0.08356585  1
  Te2-  Te146  1  0.59313733  0.58102620  0.41304555  1
  Te2-  Te147  1  0.58604404  0.58852407  0.74580219  1
  Te2-  Te148  1  0.58531824  0.91573649  0.08335767  1
  Te2-  Te149  1  0.58307600  0.91601666  0.41427839  1
  Te2-  Te150  1  0.58273712  0.91831450  0.74768894  1
  Te2-  Te151  1  0.91737687  0.25290114  0.08055872  1
  Te2-  Te152  1  0.91605771  0.25253567  0.41421795  1
  Te2-  Te153  1  0.91876989  0.26005357  0.75130623  1
  Te2-  Te154  1  0.92030049  0.58860615  0.07735277  1
  Te2-  Te155  1  0.91914251  0.58270796  0.41329119  1
  Te2-  Te156  1  0.91521081  0.58424076  0.74598231  1
  Te2-  Te157  1  0.92219019  0.91838213  0.07598041  1
  Te2-  Te158  1  0.91780163  0.92219916  0.41093017  1
  Te2-  Te159  1  0.91645404  0.92093262  0.74756768  1
  Te2-  Te160  1  0.25603683  0.08207394  0.25548244  1
  Te2-  Te161  1  0.24406906  0.08235134  0.58824997  1
  Te2-  Te162  1  0.25515716  0.07503688  0.91484122  1
  Te2-  Te163  1  0.25232836  0.41471478  0.25567587  1
  Te2-  Te164  1  0.25685058  0.41203715  0.58436164  1
  Te2-  Te165  1  0.25593499  0.41425031  0.92330181  1
  Te2-  Te166  1  0.24787048  0.74531456  0.25475878  1
  Te2-  Te167  1  0.25646999  0.74820098  0.58222112  1
  Te2-  Te168  1  0.25197665  0.74558562  0.92110268  1
  Te2-  Te169  1  0.58215738  0.07988404  0.24925179  1
  Te2-  Te170  1  0.58422499  0.08025894  0.58506765  1
  Te2-  Te171  1  0.58405391  0.07549092  0.91929482  1
  Te2-  Te172  1  0.58511431  0.41312985  0.25179539  1
  Te2-  Te173  1  0.58747098  0.40577533  0.58428083  1
  Te2-  Te174  1  0.58825450  0.41156182  0.92633602  1
  Te2-  Te175  1  0.59110652  0.74679646  0.25495779  1
  Te2-  Te176  1  0.58743250  0.74523733  0.58852768  1
  Te2-  Te177  1  0.58523306  0.74975603  0.92171271  1
  Te2-  Te178  1  0.91791515  0.08260108  0.25255278  1
  Te2-  Te179  1  0.91402924  0.07796202  0.58805847  1
  Te2-  Te180  1  0.92577593  0.08167534  0.91778395  1
  Te2-  Te181  1  0.92422731  0.41559404  0.24858780  1
  Te2-  Te182  1  0.91932008  0.41820990  0.58900847  1
  Te2-  Te183  1  0.91530911  0.42070975  0.92236839  1
  Te2-  Te184  1  0.92007816  0.74846432  0.25048347  1
  Te2-  Te185  1  0.92201861  0.75073354  0.58274289  1
  Te2-  Te186  1  0.91634848  0.74665945  0.91423451  1
  Te2-  Te187  1  0.08339380  0.25047080  0.24843891  1
  Te2-  Te188  1  0.07574234  0.25868818  0.58877462  1
  Te2-  Te189  1  0.08404397  0.25347046  0.92041009  1
  Te2-  Te190  1  0.08117023  0.58679352  0.25739157  1
  Te2-  Te191  1  0.08293947  0.58594137  0.58735276  1
  Te2-  Te192  1  0.08279048  0.58670553  0.91623933  1
  Te2-  Te193  1  0.07836330  0.92420885  0.24881831  1
  Te2-  Te194  1  0.08456784  0.91893585  0.58648501  1
  Te2-  Te195  1  0.07911194  0.91766146  0.91855766  1
  Te2-  Te196  1  0.41167086  0.25132264  0.24772682  1
  Te2-  Te197  1  0.41261591  0.25140799  0.58523258  1
  Te2-  Te198  1  0.41549569  0.25608635  0.91985591  1
  Te2-  Te199  1  0.41268395  0.58240382  0.25609300  1
  Te2-  Te200  1  0.42119544  0.58308015  0.58732343  1
  Te2-  Te201  1  0.41147429  0.58133990  0.91598382  1
  Te2-  Te202  1  0.41492870  0.92345575  0.25828197  1
  Te2-  Te203  1  0.41560015  0.91670481  0.58928852  1
  Te2-  Te204  1  0.41070135  0.91757291  0.91681840  1
  Te2-  Te205  1  0.74464207  0.25072161  0.25300019  1
  Te2-  Te206  1  0.74144136  0.24953002  0.58758832  1
  Te2-  Te207  1  0.74922174  0.25432829  0.92733221  1
  Te2-  Te208  1  0.75131259  0.58730510  0.25226453  1
  Te2-  Te209  1  0.74689836  0.59255734  0.58126228  1
  Te2-  Te210  1  0.74318194  0.59406933  0.92177124  1
  Te2-  Te211  1  0.75060923  0.92216396  0.24965501  1
  Te2-  Te212  1  0.74587934  0.91734815  0.58145347  1
  Te2-  Te213  1  0.74484857  0.91800743  0.92021331  1
  Te2-  Te214  1  0.08473428  0.07934752  0.07750347  1
  Te2-  Te215  1  0.06948774  0.08483898  0.41421258  1
  Te2-  Te216  1  0.07995913  0.07789844  0.74960545  1
  Te2-  Te217  1  0.07923863  0.41366225  0.08300448  1
  Te2-  Te218  1  0.08160377  0.41496105  0.41591630  1
  Te2-  Te219  1  0.07792232  0.41737420  0.74975568  1
  Te2-  Te220  1  0.08020951  0.75042968  0.08030052  1
  Te2-  Te221  1  0.08552593  0.74939199  0.41356238  1
  Te2-  Te222  1  0.07895285  0.74750102  0.74638529  1
  Te2-  Te223  1  0.41406182  0.07852488  0.07229396  1
  Te2-  Te224  1  0.41173791  0.08078174  0.41241531  1
  Te2-  Te225  1  0.41274521  0.08278761  0.74956544  1
  Te2-  Te226  1  0.41667953  0.41710612  0.07927569  1
  Te2-  Te227  1  0.41616450  0.41484685  0.41444586  1
  Te2-  Te228  1  0.41816279  0.40834897  0.74623159  1
  Te2-  Te229  1  0.41290822  0.74595086  0.08460264  1
  Te2-  Te230  1  0.40977444  0.73692498  0.41857704  1
  Te2-  Te231  1  0.41545779  0.74334970  0.74661593  1
  Te2-  Te232  1  0.74175707  0.07775877  0.08215280  1
  Te2-  Te233  1  0.74559118  0.08098241  0.41364281  1
  Te2-  Te234  1  0.75079667  0.08579869  0.74917018  1
  Te2-  Te235  1  0.74633274  0.41024895  0.08259228  1
  Te2-  Te236  1  0.74781916  0.41122950  0.41276670  1
  Te2-  Te237  1  0.74439942  0.40802498  0.74616452  1
  Te2-  Te238  1  0.74595705  0.75119300  0.07920223  1
  Te2-  Te239  1  0.75192232  0.74616359  0.40985267  1
  Te2-  Te240  1  0.74336656  0.75237245  0.74241456  1
