# generated using pymatgen
data_Ti27(Cu53Te54)2
_symmetry_space_group_name_H-M   'P 1'
_cell_length_a   17.95369707
_cell_length_b   17.94929558
_cell_length_c   17.94680289
_cell_angle_alpha   90.00308880
_cell_angle_beta   89.96237225
_cell_angle_gamma   89.89878223
_symmetry_Int_Tables_number   1
_chemical_formula_structural   Ti27(Cu53Te54)2
_chemical_formula_sum   'Ti27 Cu106 Te108'
_cell_volume   5783.45849843
_cell_formula_units_Z   1
loop_
 _symmetry_equiv_pos_site_id
 _symmetry_equiv_pos_as_xyz
  1  'x, y, z'
loop_
 _atom_type_symbol
 _atom_type_oxidation_number
  Ti4+  4.0
  Cu+  1.0
  Te2-  -2.0
loop_
 _atom_site_type_symbol
 _atom_site_label
 _atom_site_symmetry_multiplicity
 _atom_site_fract_x
 _atom_site_fract_y
 _atom_site_fract_z
 _atom_site_occupancy
  Ti4+  Ti0  1  0.16923529  0.17126429  0.16448640  1
  Ti4+  Ti1  1  0.16865384  0.16638600  0.49760712  1
  Ti4+  Ti2  1  0.16528845  0.16813482  0.83148907  1
  Ti4+  Ti3  1  0.16619884  0.49808055  0.16600292  1
  Ti4+  Ti4  1  0.16822369  0.49874911  0.50137546  1
  Ti4+  Ti5  1  0.16792367  0.50158417  0.83422174  1
  Ti4+  Ti6  1  0.16208480  0.82832907  0.16206702  1
  Ti4+  Ti7  1  0.16831699  0.83267135  0.49940068  1
  Ti4+  Ti8  1  0.16661385  0.83679392  0.83269792  1
  Ti4+  Ti9  1  0.50330272  0.16577655  0.16654203  1
  Ti4+  Ti10  1  0.50202953  0.16549303  0.50314566  1
  Ti4+  Ti11  1  0.50256026  0.16797365  0.83244884  1
  Ti4+  Ti12  1  0.50081966  0.49777879  0.16717322  1
  Ti4+  Ti13  1  0.50400678  0.49865085  0.49887712  1
  Ti4+  Ti14  1  0.50091314  0.49871163  0.83220307  1
  Ti4+  Ti15  1  0.49509140  0.83369028  0.16875992  1
  Ti4+  Ti16  1  0.49992368  0.83060593  0.49695333  1
  Ti4+  Ti17  1  0.49764180  0.83180392  0.83092506  1
  Ti4+  Ti18  1  0.83704949  0.16301776  0.16838019  1
  Ti4+  Ti19  1  0.83326167  0.16783118  0.49785523  1
  Ti4+  Ti20  1  0.83540976  0.16480171  0.83303422  1
  Ti4+  Ti21  1  0.83435603  0.50012209  0.17001185  1
  Ti4+  Ti22  1  0.83534055  0.50148560  0.50105197  1
  Ti4+  Ti23  1  0.83354369  0.50061006  0.83453522  1
  Ti4+  Ti24  1  0.82893991  0.83259102  0.16979845  1
  Ti4+  Ti25  1  0.83376830  0.83731562  0.50160483  1
  Ti4+  Ti26  1  0.82807651  0.83638331  0.83845890  1
  Cu+  Cu27  1  0.16891343  0.17089933  -0.00443396  1
  Cu+  Cu28  1  0.16925749  0.16905380  0.33229177  1
  Cu+  Cu29  1  0.16740172  0.16684032  0.66394572  1
  Cu+  Cu30  1  0.16338962  0.49553388  -0.00209677  1
  Cu+  Cu31  1  0.16780408  0.49820374  0.33573249  1
  Cu+  Cu32  1  0.16905612  0.50095511  0.66657562  1
  Cu+  Cu33  1  0.15886479  0.82778412  -0.00546852  1
  Cu+  Cu34  1  0.16701590  0.82979814  0.32828201  1
  Cu+  Cu35  1  0.17165616  0.83363104  0.66837219  1
  Cu+  Cu36  1  0.50267960  0.16808950  0.00180278  1
  Cu+  Cu37  1  0.50440083  0.16320511  0.33530115  1
  Cu+  Cu38  1  0.50509686  0.17080939  0.66635490  1
  Cu+  Cu39  1  0.50200873  0.49900712  -0.00271231  1
  Cu+  Cu40  1  0.50523720  0.50025343  0.33063436  1
  Cu+  Cu41  1  0.49933790  0.49610142  0.66542846  1
  Cu+  Cu42  1  0.49589460  0.83160103  0.00075632  1
  Cu+  Cu43  1  0.49141406  0.83517280  0.33597009  1
  Cu+  Cu44  1  0.50034715  0.83094260  0.66272623  1
  Cu+  Cu45  1  0.83474887  0.16350926  0.00035826  1
  Cu+  Cu46  1  0.84214063  0.16264169  0.33467272  1
  Cu+  Cu47  1  0.83317697  0.16560255  0.66572404  1
  Cu+  Cu48  1  0.83205177  0.49992051  0.00095545  1
  Cu+  Cu49  1  0.83600715  0.50315329  0.33715596  1
  Cu+  Cu50  1  0.83507349  0.50104480  0.66808770  1
  Cu+  Cu51  1  0.82572910  0.83458474  0.00637632  1
  Cu+  Cu52  1  0.82945460  0.84076812  0.33685688  1
  Cu+  Cu53  1  0.83087923  0.83431687  0.67167444  1
  Cu+  Cu54  1  0.16744659  -0.00238375  0.16297316  1
  Cu+  Cu55  1  0.16781280  -0.00012302  0.49899338  1
  Cu+  Cu56  1  0.16406337  0.00322476  0.83431289  1
  Cu+  Cu57  1  0.16741453  0.33994673  0.16413271  1
  Cu+  Cu58  1  0.16967043  0.33082910  0.49866794  1
  Cu+  Cu59  1  0.16584618  0.33345500  0.83634015  1
  Cu+  Cu60  1  0.16016182  0.65910554  0.15799211  1
  Cu+  Cu61  1  0.16715933  0.66450759  0.49940631  1
  Cu+  Cu62  1  0.16917114  0.67182234  0.82987383  1
  Cu+  Cu63  1  0.49287499  0.00597670  0.17330312  1
  Cu+  Cu64  1  0.50342224  -0.00538964  0.50155203  1
  Cu+  Cu65  1  0.49937808  0.00019649  0.83105731  1
  Cu+  Cu66  1  0.50082806  0.32931334  0.16352401  1
  Cu+  Cu67  1  0.50156844  0.33383519  0.50526747  1
  Cu+  Cu68  1  0.50267791  0.33524541  0.83187401  1
  Cu+  Cu69  1  0.49956160  0.66460545  0.16947909  1
  Cu+  Cu70  1  0.50308991  0.66582813  0.49655841  1
  Cu+  Cu71  1  0.49827824  0.66400623  0.83027185  1
  Cu+  Cu72  1  0.83376688  -0.00668787  0.17081447  1
  Cu+  Cu73  1  0.82952111  0.00382944  0.49528025  1
  Cu+  Cu74  1  0.82755089  0.00278996  0.84065246  1
  Cu+  Cu75  1  0.83576023  0.33177724  0.16936698  1
  Cu+  Cu76  1  0.83483463  0.33699641  0.49952544  1
  Cu+  Cu77  1  0.83651776  0.33134914  0.83111604  1
  Cu+  Cu78  1  0.83422854  0.66936327  0.16859873  1
  Cu+  Cu79  1  0.83621201  0.66827486  0.50367460  1
  Cu+  Cu80  1  0.83047068  0.66592173  0.83456276  1
  Cu+  Cu81  1  -0.00072605  0.17066776  0.17002685  1
  Cu+  Cu82  1  0.00373788  0.16615606  0.49517718  1
  Cu+  Cu83  1  0.00127158  0.16325835  0.83219574  1
  Cu+  Cu84  1  0.00279661  0.49943645  0.16901919  1
  Cu+  Cu85  1  0.00011512  0.50099742  0.50144876  1
  Cu+  Cu86  1  -0.00164624  0.49928710  0.83515976  1
  Cu+  Cu87  1  -0.00633212  0.82630063  0.16550968  1
  Cu+  Cu88  1  0.00341563  0.83283625  0.50261304  1
  Cu+  Cu89  1  -0.00406430  0.83869413  0.83626093  1
  Cu+  Cu90  1  0.33874468  0.17055216  0.16228376  1
  Cu+  Cu91  1  0.33231768  0.16614317  0.49926054  1
  Cu+  Cu92  1  0.33400408  0.16901940  0.83077129  1
  Cu+  Cu93  1  0.33402377  0.49592134  0.16559321  1
  Cu+  Cu94  1  0.33644697  0.49666351  0.50085784  1
  Cu+  Cu95  1  0.33671355  0.50258497  0.83115463  1
  Cu+  Cu96  1  0.32628693  0.83211289  0.16723113  1
  Cu+  Cu97  1  0.33349865  0.82952278  0.49622242  1
  Cu+  Cu98  1  0.33235567  0.83249015  0.82598361  1
  Cu+  Cu99  1  0.66797516  0.16385395  0.16787797  1
  Cu+  Cu100  1  0.66751534  0.16633660  0.50719782  1
  Cu+  Cu101  1  0.66920884  0.16610152  0.83266029  1
  Cu+  Cu102  1  0.66600742  0.50147787  0.17091815  1
  Cu+  Cu103  1  0.67198181  0.50135569  0.49861346  1
  Cu+  Cu104  1  0.66721703  0.49991743  0.83232364  1
  Cu+  Cu105  1  0.66270368  0.83336435  0.16679793  1
  Cu+  Cu106  1  0.66661651  0.83759033  0.49843718  1
  Cu+  Cu107  1  0.65973443  0.83653390  0.83894825  1
  Cu+  Cu108  1  0.93311759  0.07331452  0.41228313  1
  Cu+  Cu109  1  0.26427316  0.41839599  0.06932549  1
  Cu+  Cu110  1  0.73646987  0.93063484  0.40843494  1
  Cu+  Cu111  1  0.59272280  0.91760024  0.59438469  1
  Cu+  Cu112  1  0.40308765  0.09190815  0.26468003  1
  Cu+  Cu113  1  0.59737619  0.26480434  0.59382893  1
  Cu+  Cu114  1  0.92196486  0.26197150  0.26279910  1
  Cu+  Cu115  1  0.40559233  0.40735443  0.59384407  1
  Cu+  Cu116  1  0.07606438  0.07460004  0.92813209  1
  Cu+  Cu117  1  0.06758868  0.73904325  0.90926178  1
  Cu+  Cu118  1  0.41649516  0.25887306  0.07045039  1
  Cu+  Cu119  1  0.59407476  0.59552284  0.25939458  1
  Cu+  Cu120  1  0.07062000  0.58133145  0.07023499  1
  Cu+  Cu121  1  0.73682942  0.08606445  0.93104426  1
  Cu+  Cu122  1  0.06803863  0.40450561  0.91997412  1
  Cu+  Cu123  1  0.07617623  0.41240029  0.26628801  1
  Cu+  Cu124  1  0.26362724  0.26089844  0.91501181  1
  Cu+  Cu125  1  0.57428961  0.92811737  0.93145731  1
  Cu+  Cu126  1  0.74444189  0.07511416  0.59469537  1
  Cu+  Cu127  1  0.40235552  0.92890030  0.42035202  1
  Cu+  Cu128  1  0.73389547  0.92625145  0.08227962  1
  Cu+  Cu129  1  0.26215025  0.74039540  0.73660103  1
  Cu+  Cu130  1  0.91407025  0.74023318  0.07191381  1
  Cu+  Cu131  1  0.92823944  0.91501371  0.26202876  1
  Cu+  Cu132  1  0.25172436  0.92392739  0.25549907  1
  Te2-  Te133  1  0.25587289  0.25790181  0.07711785  1
  Te2-  Te134  1  0.25515351  0.25196324  0.41280135  1
  Te2-  Te135  1  0.25035714  0.25438723  0.74612076  1
  Te2-  Te136  1  0.25349199  0.58121951  0.07744984  1
  Te2-  Te137  1  0.25376132  0.58204362  0.41587392  1
  Te2-  Te138  1  0.25321416  0.58629002  0.74733700  1
  Te2-  Te139  1  0.24655968  0.91280148  0.07555580  1
  Te2-  Te140  1  0.25195097  0.92007708  0.40999147  1
  Te2-  Te141  1  0.25130920  0.92475536  0.74867954  1
  Te2-  Te142  1  0.59147689  0.25079115  0.08132180  1
  Te2-  Te143  1  0.58600846  0.25025036  0.41779337  1
  Te2-  Te144  1  0.59026665  0.25418149  0.74932485  1
  Te2-  Te145  1  0.58453771  0.58381041  0.08162176  1
  Te2-  Te146  1  0.59017864  0.58591681  0.41336963  1
  Te2-  Te147  1  0.58471950  0.58307209  0.74619879  1
  Te2-  Te148  1  0.57903022  0.92351503  0.08401797  1
  Te2-  Te149  1  0.58520237  0.91979248  0.40837830  1
  Te2-  Te150  1  0.58473329  0.91878019  0.74539942  1
  Te2-  Te151  1  0.91739386  0.25002181  0.08053608  1
  Te2-  Te152  1  0.92172047  0.25629822  0.41541577  1
  Te2-  Te153  1  0.92040424  0.24865468  0.74680125  1
  Te2-  Te154  1  0.91884074  0.58562613  0.08070869  1
  Te2-  Te155  1  0.92100013  0.58836519  0.41734228  1
  Te2-  Te156  1  0.91868887  0.58665689  0.75034166  1
  Te2-  Te157  1  0.91814649  0.91728407  0.08123453  1
  Te2-  Te158  1  0.92569657  0.92138748  0.41590606  1
  Te2-  Te159  1  0.91245240  0.92158932  0.75352942  1
  Te2-  Te160  1  0.25285406  0.08245801  0.24982947  1
  Te2-  Te161  1  0.25253481  0.08088085  0.58420244  1
  Te2-  Te162  1  0.25368266  0.08250267  0.91667376  1
  Te2-  Te163  1  0.25344979  0.41405157  0.25377697  1
  Te2-  Te164  1  0.25252747  0.41173606  0.58752464  1
  Te2-  Te165  1  0.25868375  0.41485628  0.91776324  1
  Te2-  Te166  1  0.24559202  0.73949215  0.24504565  1
  Te2-  Te167  1  0.25392070  0.74558717  0.58355358  1
  Te2-  Te168  1  0.25433321  0.75030349  0.91757162  1
  Te2-  Te169  1  0.58857512  0.07903174  0.25319722  1
  Te2-  Te170  1  0.58656950  0.07557812  0.59000214  1
  Te2-  Te171  1  0.58575280  0.08078740  0.92165781  1
  Te2-  Te172  1  0.58558896  0.40932579  0.24992495  1
  Te2-  Te173  1  0.59290147  0.41620706  0.58655475  1
  Te2-  Te174  1  0.58742435  0.41436244  0.91761727  1
  Te2-  Te175  1  0.58199217  0.75110764  0.25498705  1
  Te2-  Te176  1  0.58810922  0.74677896  0.58221877  1
  Te2-  Te177  1  0.58019021  0.74551173  0.91828151  1
  Te2-  Te178  1  0.92526128  0.07361874  0.25292305  1
  Te2-  Te179  1  0.91968108  0.08185403  0.58198109  1
  Te2-  Te180  1  0.92200281  0.07867448  0.92111357  1
  Te2-  Te181  1  0.92143433  0.41469658  0.25712735  1
  Te2-  Te182  1  0.91983300  0.41536182  0.58654626  1
  Te2-  Te183  1  0.91707226  0.41195015  0.92159438  1
  Te2-  Te184  1  0.91478238  0.74909002  0.26002672  1
  Te2-  Te185  1  0.91733777  0.75350444  0.58792439  1
  Te2-  Te186  1  0.91483738  0.74702743  0.92096427  1
  Te2-  Te187  1  0.08340992  0.25579874  0.25316011  1
  Te2-  Te188  1  0.08236864  0.25072477  0.58266377  1
  Te2-  Te189  1  0.07558188  0.25312385  0.91944371  1
  Te2-  Te190  1  0.08247802  0.58447539  0.25510258  1
  Te2-  Te191  1  0.08299811  0.58421683  0.58602377  1
  Te2-  Te192  1  0.07944079  0.58921531  0.91777212  1
  Te2-  Te193  1  0.07932984  0.91634350  0.24872751  1
  Te2-  Te194  1  0.08553926  0.91787267  0.58591482  1
  Te2-  Te195  1  0.07844770  0.92285317  0.92046007  1
  Te2-  Te196  1  0.41785623  0.25136970  0.25568571  1
  Te2-  Te197  1  0.41240622  0.25012300  0.58642652  1
  Te2-  Te198  1  0.41660739  0.25563736  0.91795405  1
  Te2-  Te199  1  0.41245454  0.58133751  0.25154034  1
  Te2-  Te200  1  0.41880123  0.58532593  0.58268973  1
  Te2-  Te201  1  0.41616578  0.58462889  0.91829029  1
  Te2-  Te202  1  0.40649006  0.92138803  0.25431884  1
  Te2-  Te203  1  0.41165153  0.91617707  0.58379185  1
  Te2-  Te204  1  0.41144666  0.91767366  0.91547965  1
  Te2-  Te205  1  0.75156594  0.24683872  0.25371533  1
  Te2-  Te206  1  0.75138246  0.25650157  0.58693418  1
  Te2-  Te207  1  0.75076435  0.25122651  0.91899975  1
  Te2-  Te208  1  0.75028910  0.58774179  0.25474541  1
  Te2-  Te209  1  0.75006957  0.58666391  0.58647120  1
  Te2-  Te210  1  0.74669777  0.58433261  0.91977146  1
  Te2-  Te211  1  0.73965231  0.92137150  0.25460403  1
  Te2-  Te212  1  0.74702236  0.92251961  0.59069515  1
  Te2-  Te213  1  0.73920165  0.92297538  0.92633889  1
  Te2-  Te214  1  0.08289628  0.08517183  0.08274660  1
  Te2-  Te215  1  0.08510204  0.07919826  0.40921013  1
  Te2-  Te216  1  0.08230375  0.08187729  0.74425573  1
  Te2-  Te217  1  0.07490623  0.41135863  0.07730739  1
  Te2-  Te218  1  0.08055577  0.41274016  0.41793602  1
  Te2-  Te219  1  0.08382865  0.41658840  0.74915705  1
  Te2-  Te220  1  0.07274376  0.74149766  0.07485131  1
  Te2-  Te221  1  0.08311246  0.74851629  0.41500975  1
  Te2-  Te222  1  0.07732830  0.75237570  0.74827917  1
  Te2-  Te223  1  0.41528193  0.08137235  0.07772958  1
  Te2-  Te224  1  0.41390086  0.07976575  0.41651266  1
  Te2-  Te225  1  0.41750938  0.08543269  0.74739568  1
  Te2-  Te226  1  0.41613166  0.41202873  0.07609818  1
  Te2-  Te227  1  0.42024127  0.41366739  0.41329064  1
  Te2-  Te228  1  0.41305367  0.41164470  0.74732779  1
  Te2-  Te229  1  0.41302434  0.74776684  0.08497806  1
  Te2-  Te230  1  0.41378081  0.74215287  0.41323957  1
  Te2-  Te231  1  0.41521627  0.74491610  0.74252248  1
  Te2-  Te232  1  0.74745090  0.07778204  0.08303417  1
  Te2-  Te233  1  0.74284963  0.08556966  0.40987232  1
  Te2-  Te234  1  0.74696282  0.07944779  0.74658495  1
  Te2-  Te235  1  0.75011786  0.41578192  0.08726003  1
  Te2-  Te236  1  0.75071555  0.41578249  0.41371479  1
  Te2-  Te237  1  0.75064359  0.41472710  0.74902754  1
  Te2-  Te238  1  0.74249847  0.74442854  0.08422599  1
  Te2-  Te239  1  0.75049151  0.74973719  0.41821927  1
  Te2-  Te240  1  0.74473322  0.75171630  0.75382569  1
