# generated using pymatgen
data_Ti27(Cu53Te54)2
_symmetry_space_group_name_H-M   'P 1'
_cell_length_a   17.88186416
_cell_length_b   17.87814540
_cell_length_c   17.88381546
_cell_angle_alpha   90.00657046
_cell_angle_beta   90.02966274
_cell_angle_gamma   89.98508756
_symmetry_Int_Tables_number   1
_chemical_formula_structural   Ti27(Cu53Te54)2
_chemical_formula_sum   'Ti27 Cu106 Te108'
_cell_volume   5717.35765244
_cell_formula_units_Z   1
loop_
 _symmetry_equiv_pos_site_id
 _symmetry_equiv_pos_as_xyz
  1  'x, y, z'
loop_
 _atom_type_symbol
 _atom_type_oxidation_number
  Ti4+  4.0
  Cu+  1.0
  Te2-  -2.0
loop_
 _atom_site_type_symbol
 _atom_site_label
 _atom_site_symmetry_multiplicity
 _atom_site_fract_x
 _atom_site_fract_y
 _atom_site_fract_z
 _atom_site_occupancy
  Ti4+  Ti0  1  0.16801150  0.16766293  0.16603375  1
  Ti4+  Ti1  1  0.16700398  0.16702678  0.50347872  1
  Ti4+  Ti2  1  0.16612420  0.16824011  0.83419443  1
  Ti4+  Ti3  1  0.16792801  0.50077323  0.16984104  1
  Ti4+  Ti4  1  0.16021181  0.50182276  0.50111446  1
  Ti4+  Ti5  1  0.16756450  0.49902520  0.83856325  1
  Ti4+  Ti6  1  0.16678470  0.83448620  0.16413308  1
  Ti4+  Ti7  1  0.16855412  0.83421534  0.49628666  1
  Ti4+  Ti8  1  0.16549048  0.83190757  0.83239950  1
  Ti4+  Ti9  1  0.50400018  0.16999234  0.16660911  1
  Ti4+  Ti10  1  0.49867404  0.16288352  0.49682087  1
  Ti4+  Ti11  1  0.49762160  0.16711353  0.83227027  1
  Ti4+  Ti12  1  0.49921356  0.50456721  0.16998696  1
  Ti4+  Ti13  1  0.49805452  0.49895115  0.50164244  1
  Ti4+  Ti14  1  0.50099984  0.49800679  0.83074373  1
  Ti4+  Ti15  1  0.50350579  0.83334565  0.16854605  1
  Ti4+  Ti16  1  0.50307130  0.83487133  0.50195896  1
  Ti4+  Ti17  1  0.49838777  0.83303365  0.83516465  1
  Ti4+  Ti18  1  0.83559424  0.16900085  0.16672736  1
  Ti4+  Ti19  1  0.83356070  0.16598596  0.50100811  1
  Ti4+  Ti20  1  0.83226331  0.16595625  0.83182514  1
  Ti4+  Ti21  1  0.83321288  0.49778197  0.16721632  1
  Ti4+  Ti22  1  0.83207894  0.50142718  0.49351161  1
  Ti4+  Ti23  1  0.83399254  0.49699283  0.83140288  1
  Ti4+  Ti24  1  0.83247335  0.83475957  0.16746956  1
  Ti4+  Ti25  1  0.83274030  0.83274455  0.50073011  1
  Ti4+  Ti26  1  0.83257227  0.83139677  0.83476307  1
  Cu+  Cu27  1  0.16917916  0.17009939  0.00030867  1
  Cu+  Cu28  1  0.16846220  0.16776893  0.33740985  1
  Cu+  Cu29  1  0.16363328  0.16647572  0.66896304  1
  Cu+  Cu30  1  0.16895040  0.50103199  0.00615272  1
  Cu+  Cu31  1  0.15859799  0.49990825  0.33281036  1
  Cu+  Cu32  1  0.16434880  0.50095793  0.67490792  1
  Cu+  Cu33  1  0.16406141  0.83157282  -0.00150404  1
  Cu+  Cu34  1  0.16709221  0.83575819  0.32596472  1
  Cu+  Cu35  1  0.17089961  0.83263487  0.66063082  1
  Cu+  Cu36  1  0.50328219  0.17136431  -0.00208067  1
  Cu+  Cu37  1  0.49822203  0.16215161  0.32726285  1
  Cu+  Cu38  1  0.49549924  0.16342385  0.66355353  1
  Cu+  Cu39  1  0.50049450  0.50307376  0.00147382  1
  Cu+  Cu40  1  0.49586362  0.50080787  0.33623206  1
  Cu+  Cu41  1  0.50210120  0.49670057  0.66638440  1
  Cu+  Cu42  1  0.49986486  0.83527006  0.00099221  1
  Cu+  Cu43  1  0.50726452  0.83892932  0.33380421  1
  Cu+  Cu44  1  0.50270217  0.82974984  0.67184609  1
  Cu+  Cu45  1  0.83692254  0.17065108  -0.00132985  1
  Cu+  Cu46  1  0.83280229  0.16984972  0.33490087  1
  Cu+  Cu47  1  0.82844747  0.16116417  0.66483755  1
  Cu+  Cu48  1  0.83404585  0.49976182  -0.00121524  1
  Cu+  Cu49  1  0.83772187  0.49397771  0.33368932  1
  Cu+  Cu50  1  0.83199941  0.49823682  0.66038703  1
  Cu+  Cu51  1  0.83211502  0.83331162  0.00171470  1
  Cu+  Cu52  1  0.82986487  0.83072148  0.33352274  1
  Cu+  Cu53  1  0.83460389  0.83312910  0.67075798  1
  Cu+  Cu54  1  0.16778449  -0.00109672  0.16279039  1
  Cu+  Cu55  1  0.17443363  0.00047030  0.50183795  1
  Cu+  Cu56  1  0.16517967  0.00098512  0.83180811  1
  Cu+  Cu57  1  0.16859208  0.33480295  0.17029667  1
  Cu+  Cu58  1  0.16476574  0.33148813  0.50498959  1
  Cu+  Cu59  1  0.17459994  0.33350158  0.83826268  1
  Cu+  Cu60  1  0.16868101  0.66843914  0.16534005  1
  Cu+  Cu61  1  0.15799790  0.67021626  0.49786203  1
  Cu+  Cu62  1  0.16151539  0.66670291  0.83900405  1
  Cu+  Cu63  1  0.50772712  0.00101830  0.16974389  1
  Cu+  Cu64  1  0.49641860  -0.00476787  0.49529793  1
  Cu+  Cu65  1  0.49492860  -0.00003197  0.83399964  1
  Cu+  Cu66  1  0.50092410  0.34309646  0.16684793  1
  Cu+  Cu67  1  0.49823412  0.32875347  0.49709564  1
  Cu+  Cu68  1  0.50270416  0.33225921  0.83101493  1
  Cu+  Cu69  1  0.49982024  0.66714692  0.16865513  1
  Cu+  Cu70  1  0.49926024  0.66571274  0.50362826  1
  Cu+  Cu71  1  0.50186537  0.66767851  0.83187129  1
  Cu+  Cu72  1  0.83597690  0.00402034  0.16672799  1
  Cu+  Cu73  1  0.83259124  -0.00110949  0.50358838  1
  Cu+  Cu74  1  0.83078419  -0.00243366  0.83324326  1
  Cu+  Cu75  1  0.83118391  0.33040399  0.16228399  1
  Cu+  Cu76  1  0.82828551  0.33246151  0.49286927  1
  Cu+  Cu77  1  0.83915596  0.33036904  0.83321539  1
  Cu+  Cu78  1  0.83174695  0.66666186  0.16960474  1
  Cu+  Cu79  1  0.83675012  0.66519292  0.49919046  1
  Cu+  Cu80  1  0.83277012  0.66401299  0.83306050  1
  Cu+  Cu81  1  0.00177392  0.16597281  0.16722561  1
  Cu+  Cu82  1  0.00263195  0.16541763  0.50365436  1
  Cu+  Cu83  1  -0.00238571  0.16956633  0.83474201  1
  Cu+  Cu84  1  0.00015324  0.49827002  0.16976018  1
  Cu+  Cu85  1  -0.00389343  0.50902468  0.49059248  1
  Cu+  Cu86  1  0.00387749  0.50045391  0.83367826  1
  Cu+  Cu87  1  -0.00133960  0.83567448  0.16476310  1
  Cu+  Cu88  1  -0.00092460  0.83253558  0.49738473  1
  Cu+  Cu89  1  -0.00145223  0.82845808  0.83650137  1
  Cu+  Cu90  1  0.33800361  0.16888750  0.16624008  1
  Cu+  Cu91  1  0.32906003  0.16071688  0.49564438  1
  Cu+  Cu92  1  0.33125167  0.16934561  0.83572468  1
  Cu+  Cu93  1  0.33529583  0.50174336  0.17391620  1
  Cu+  Cu94  1  0.32998103  0.50214304  0.50246288  1
  Cu+  Cu95  1  0.33287071  0.49593831  0.83289383  1
  Cu+  Cu96  1  0.33100554  0.83356619  0.16316188  1
  Cu+  Cu97  1  0.33517394  0.83937028  0.50146476  1
  Cu+  Cu98  1  0.33350866  0.83395683  0.83318192  1
  Cu+  Cu99  1  0.67274599  0.17150567  0.16178108  1
  Cu+  Cu100  1  0.66655980  0.16477767  0.49942324  1
  Cu+  Cu101  1  0.66217202  0.16656593  0.83236661  1
  Cu+  Cu102  1  0.66416701  0.50130311  0.16700418  1
  Cu+  Cu103  1  0.66645489  0.49720783  0.50052343  1
  Cu+  Cu104  1  0.66768759  0.49514194  0.82715329  1
  Cu+  Cu105  1  0.66866241  0.83327670  0.17439816  1
  Cu+  Cu106  1  0.66786579  0.83197702  0.50257787  1
  Cu+  Cu107  1  0.66473268  0.83097643  0.83281102  1
  Cu+  Cu108  1  0.07652742  0.59367323  0.74760020  1
  Cu+  Cu109  1  0.59199248  0.41807036  0.07408715  1
  Cu+  Cu110  1  0.93047860  0.26048875  0.92754264  1
  Cu+  Cu111  1  0.40707787  0.40970200  0.26509763  1
  Cu+  Cu112  1  0.92763636  0.40105233  0.41249493  1
  Cu+  Cu113  1  0.40659794  0.91582984  0.40177187  1
  Cu+  Cu114  1  0.74491448  0.25849059  0.06750963  1
  Cu+  Cu115  1  0.59611270  0.73851870  0.74229208  1
  Cu+  Cu116  1  0.74015907  0.73440002  0.26257039  1
  Cu+  Cu117  1  0.60098586  0.93218503  0.26194568  1
  Cu+  Cu118  1  0.73585724  0.06831511  0.59170564  1
  Cu+  Cu119  1  0.40631023  0.07041071  0.24608041  1
  Cu+  Cu120  1  0.73376408  0.25554004  0.40485309  1
  Cu+  Cu121  1  0.26345742  0.25913162  0.93208910  1
  Cu+  Cu122  1  0.07250312  0.75038619  0.59145702  1
  Cu+  Cu123  1  0.25286128  0.07343122  0.40265145  1
  Cu+  Cu124  1  0.59331729  0.25942234  0.92146950  1
  Cu+  Cu125  1  0.59510019  0.40122259  0.73679430  1
  Cu+  Cu126  1  0.74297135  0.40664856  0.58824569  1
  Cu+  Cu127  1  0.06890215  0.74032043  0.93161905  1
  Cu+  Cu128  1  0.07150706  0.40206931  0.25513683  1
  Cu+  Cu129  1  0.91965635  0.59078142  0.59302544  1
  Cu+  Cu130  1  0.25814465  0.40623039  0.73952117  1
  Cu+  Cu131  1  0.07291732  0.60081410  0.39908306  1
  Cu+  Cu132  1  0.26428303  0.92843867  0.59669255  1
  Te2-  Te133  1  0.25593745  0.25578603  0.08420028  1
  Te2-  Te134  1  0.25159984  0.25544092  0.41753308  1
  Te2-  Te135  1  0.25358129  0.25217673  0.74455900  1
  Te2-  Te136  1  0.25528843  0.58529188  0.08537524  1
  Te2-  Te137  1  0.24607669  0.58497920  0.41619802  1
  Te2-  Te138  1  0.25166000  0.58821598  0.75334497  1
  Te2-  Te139  1  0.25183409  0.91830240  0.07649101  1
  Te2-  Te140  1  0.25422194  0.92040704  0.40596550  1
  Te2-  Te141  1  0.25192344  0.91915256  0.74809583  1
  Te2-  Te142  1  0.58882605  0.26029760  0.07881958  1
  Te2-  Te143  1  0.58265499  0.24933908  0.41036171  1
  Te2-  Te144  1  0.58487404  0.24914110  0.74054843  1
  Te2-  Te145  1  0.58603356  0.58951723  0.08176435  1
  Te2-  Te146  1  0.58355784  0.58395025  0.41729514  1
  Te2-  Te147  1  0.58746546  0.58474675  0.74512503  1
  Te2-  Te148  1  0.58903299  0.91747208  0.08246078  1
  Te2-  Te149  1  0.59369817  0.92192273  0.41680358  1
  Te2-  Te150  1  0.58402058  0.92105356  0.75069097  1
  Te2-  Te151  1  0.92531372  0.25502569  0.08114687  1
  Te2-  Te152  1  0.92385318  0.24939338  0.41503233  1
  Te2-  Te153  1  0.91677543  0.24844035  0.74222345  1
  Te2-  Te154  1  0.91751260  0.58405039  0.08398753  1
  Te2-  Te155  1  0.91688496  0.59320468  0.40322385  1
  Te2-  Te156  1  0.91970138  0.58510655  0.74617291  1
  Te2-  Te157  1  0.91699880  0.92028794  0.08075927  1
  Te2-  Te158  1  0.91565221  0.91819533  0.41495091  1
  Te2-  Te159  1  0.91994080  0.91706877  0.75126516  1
  Te2-  Te160  1  0.25381135  0.07925866  0.25053259  1
  Te2-  Te161  1  0.25476794  0.08196548  0.59288097  1
  Te2-  Te162  1  0.25104197  0.08050123  0.91881391  1
  Te2-  Te163  1  0.25301392  0.41487547  0.25886473  1
  Te2-  Te164  1  0.24789492  0.41747783  0.58687022  1
  Te2-  Te165  1  0.25606131  0.41595222  0.92763642  1
  Te2-  Te166  1  0.25326824  0.74872922  0.25035654  1
  Te2-  Te167  1  0.25501587  0.74491205  0.57872601  1
  Te2-  Te168  1  0.25236736  0.74807156  0.91776430  1
  Te2-  Te169  1  0.59523754  0.08614874  0.25108138  1
  Te2-  Te170  1  0.58259495  0.07728052  0.58411465  1
  Te2-  Te171  1  0.58291050  0.07987189  0.91792868  1
  Te2-  Te172  1  0.58616239  0.41802349  0.25725678  1
  Te2-  Te173  1  0.58594600  0.40736913  0.58425134  1
  Te2-  Te174  1  0.58904743  0.41377973  0.92060581  1
  Te2-  Te175  1  0.58560801  0.74395396  0.25685581  1
  Te2-  Te176  1  0.58748047  0.74564901  0.58696707  1
  Te2-  Te177  1  0.58451198  0.74756553  0.92171537  1
  Te2-  Te178  1  0.91924069  0.08438829  0.25411083  1
  Te2-  Te179  1  0.92012298  0.08002310  0.58626394  1
  Te2-  Te180  1  0.91665883  0.08036617  0.91754492  1
  Te2-  Te181  1  0.91904216  0.40664803  0.25168392  1
  Te2-  Te182  1  0.92061597  0.41413981  0.57731670  1
  Te2-  Te183  1  0.92209618  0.41498872  0.91981733  1
  Te2-  Te184  1  0.91977859  0.74951916  0.25191256  1
  Te2-  Te185  1  0.91976787  0.74693796  0.58889853  1
  Te2-  Te186  1  0.91582526  0.74299059  0.92263606  1
  Te2-  Te187  1  0.08182802  0.24992013  0.25526776  1
  Te2-  Te188  1  0.07968840  0.25195335  0.58912682  1
  Te2-  Te189  1  0.08143980  0.25597448  0.92070798  1
  Te2-  Te190  1  0.07851019  0.59132327  0.24936311  1
  Te2-  Te191  1  0.07512176  0.58890648  0.59151852  1
  Te2-  Te192  1  0.07874612  0.58382105  0.92714021  1
  Te2-  Te193  1  0.08039639  0.92139473  0.24852214  1
  Te2-  Te194  1  0.08152030  0.91964997  0.58181208  1
  Te2-  Te195  1  0.08081436  0.91883508  0.91667156  1
  Te2-  Te196  1  0.41674113  0.25682021  0.25168837  1
  Te2-  Te197  1  0.41200756  0.24687285  0.57982015  1
  Te2-  Te198  1  0.41426436  0.25643363  0.92015819  1
  Te2-  Te199  1  0.41404598  0.59115469  0.25681630  1
  Te2-  Te200  1  0.41397801  0.58373739  0.58796529  1
  Te2-  Te201  1  0.41672013  0.58360408  0.91523704  1
  Te2-  Te202  1  0.41089252  0.91982589  0.25073105  1
  Te2-  Te203  1  0.41821662  0.91969308  0.59263785  1
  Te2-  Te204  1  0.41243856  0.91880785  0.92077800  1
  Te2-  Te205  1  0.74686417  0.25567784  0.25362624  1
  Te2-  Te206  1  0.74588662  0.25340852  0.58649708  1
  Te2-  Te207  1  0.74475567  0.25629559  0.91682779  1
  Te2-  Te208  1  0.74740013  0.58097418  0.25530139  1
  Te2-  Te209  1  0.74626193  0.58720517  0.58244974  1
  Te2-  Te210  1  0.74742966  0.58054850  0.91508209  1
  Te2-  Te211  1  0.75123516  0.92578312  0.25528757  1
  Te2-  Te212  1  0.74713423  0.91627610  0.58992618  1
  Te2-  Te213  1  0.74597116  0.91610199  0.91868760  1
  Te2-  Te214  1  0.08365527  0.08377097  0.08015774  1
  Te2-  Te215  1  0.08274349  0.07928973  0.41749836  1
  Te2-  Te216  1  0.07854711  0.08306648  0.75055363  1
  Te2-  Te217  1  0.08236176  0.41443420  0.08327629  1
  Te2-  Te218  1  0.07880970  0.40865927  0.41505792  1
  Te2-  Te219  1  0.08260892  0.40932953  0.75325887  1
  Te2-  Te220  1  0.07810134  0.74624236  0.08227332  1
  Te2-  Te221  1  0.07890094  0.75304995  0.40607813  1
  Te2-  Te222  1  0.07844792  0.74659455  0.74317735  1
  Te2-  Te223  1  0.42130330  0.08256232  0.08104920  1
  Te2-  Te224  1  0.41087228  0.07573223  0.40752424  1
  Te2-  Te225  1  0.41066270  0.08226797  0.74920291  1
  Te2-  Te226  1  0.41229374  0.41968793  0.08137750  1
  Te2-  Te227  1  0.40950603  0.41316007  0.41799564  1
  Te2-  Te228  1  0.41375658  0.41103270  0.74540167  1
  Te2-  Te229  1  0.41695948  0.74936627  0.08306040  1
  Te2-  Te230  1  0.41776614  0.75134138  0.41542184  1
  Te2-  Te231  1  0.41196210  0.74663699  0.74872572  1
  Te2-  Te232  1  0.75158865  0.08298188  0.07850283  1
  Te2-  Te233  1  0.74971984  0.07930633  0.41390106  1
  Te2-  Te234  1  0.74316125  0.07871147  0.74926546  1
  Te2-  Te235  1  0.74640578  0.41463106  0.07754063  1
  Te2-  Te236  1  0.74117234  0.41401694  0.40745293  1
  Te2-  Te237  1  0.75062924  0.40761938  0.74370787  1
  Te2-  Te238  1  0.74616258  0.74823633  0.08316453  1
  Te2-  Te239  1  0.74603366  0.74453703  0.41720458  1
  Te2-  Te240  1  0.74836220  0.74439204  0.74663456  1
