# generated using pymatgen
data_Ti27(Cu53Te54)2
_symmetry_space_group_name_H-M   'P 1'
_cell_length_a   17.87789886
_cell_length_b   17.88121307
_cell_length_c   17.87996362
_cell_angle_alpha   90.01162735
_cell_angle_beta   90.00493643
_cell_angle_gamma   90.00318658
_symmetry_Int_Tables_number   1
_chemical_formula_structural   Ti27(Cu53Te54)2
_chemical_formula_sum   'Ti27 Cu106 Te108'
_cell_volume   5715.84013769
_cell_formula_units_Z   1
loop_
 _symmetry_equiv_pos_site_id
 _symmetry_equiv_pos_as_xyz
  1  'x, y, z'
loop_
 _atom_type_symbol
 _atom_type_oxidation_number
  Ti4+  4.0
  Cu+  1.0
  Te2-  -2.0
loop_
 _atom_site_type_symbol
 _atom_site_label
 _atom_site_symmetry_multiplicity
 _atom_site_fract_x
 _atom_site_fract_y
 _atom_site_fract_z
 _atom_site_occupancy
  Ti4+  Ti0  1  0.16667353  0.16410969  0.16517126  1
  Ti4+  Ti1  1  0.16819915  0.16654081  0.49858079  1
  Ti4+  Ti2  1  0.16809141  0.16763370  0.83289339  1
  Ti4+  Ti3  1  0.16781176  0.49593137  0.16565640  1
  Ti4+  Ti4  1  0.16901366  0.50015934  0.49893294  1
  Ti4+  Ti5  1  0.16635848  0.49979216  0.83483486  1
  Ti4+  Ti6  1  0.16509986  0.83360118  0.16495753  1
  Ti4+  Ti7  1  0.16712622  0.83331701  0.50190919  1
  Ti4+  Ti8  1  0.16703373  0.83536972  0.83459441  1
  Ti4+  Ti9  1  0.50013724  0.16775494  0.16943258  1
  Ti4+  Ti10  1  0.49976650  0.16476446  0.50169726  1
  Ti4+  Ti11  1  0.49998849  0.16918298  0.83249483  1
  Ti4+  Ti12  1  0.50299459  0.49959486  0.17160796  1
  Ti4+  Ti13  1  0.49526898  0.50224967  0.50053609  1
  Ti4+  Ti14  1  0.49975554  0.50135474  0.83442268  1
  Ti4+  Ti15  1  0.49574021  0.83487907  0.16766990  1
  Ti4+  Ti16  1  0.50081434  0.83646803  0.49530010  1
  Ti4+  Ti17  1  0.50061908  0.83296187  0.83385391  1
  Ti4+  Ti18  1  0.83269943  0.16907145  0.16988025  1
  Ti4+  Ti19  1  0.83378782  0.16352283  0.50346035  1
  Ti4+  Ti20  1  0.83041723  0.16658646  0.83086591  1
  Ti4+  Ti21  1  0.83463422  0.49699566  0.16192500  1
  Ti4+  Ti22  1  0.83513745  0.49975843  0.50019761  1
  Ti4+  Ti23  1  0.83323399  0.49938973  0.83448999  1
  Ti4+  Ti24  1  0.83128036  0.83306904  0.16318427  1
  Ti4+  Ti25  1  0.83318405  0.82939506  0.50100369  1
  Ti4+  Ti26  1  0.83494900  0.83475649  0.83320832  1
  Cu+  Cu27  1  0.16892997  0.16275957  -0.00064233  1
  Cu+  Cu28  1  0.16609238  0.16587206  0.33320915  1
  Cu+  Cu29  1  0.16941183  0.16899106  0.66529862  1
  Cu+  Cu30  1  0.16575959  0.50140737  0.00101420  1
  Cu+  Cu31  1  0.16772225  0.49604654  0.33177135  1
  Cu+  Cu32  1  0.16890545  0.50021643  0.66848771  1
  Cu+  Cu33  1  0.16225945  0.83720963  0.00020445  1
  Cu+  Cu34  1  0.16560735  0.83320095  0.33415478  1
  Cu+  Cu35  1  0.16800110  0.83404070  0.67213278  1
  Cu+  Cu36  1  0.50002622  0.16728082  -0.00434411  1
  Cu+  Cu37  1  0.49869344  0.16574512  0.33377298  1
  Cu+  Cu38  1  0.50315338  0.16415143  0.67090147  1
  Cu+  Cu39  1  0.50272023  0.50133945  -0.00062611  1
  Cu+  Cu40  1  0.49116551  0.50148176  0.33746790  1
  Cu+  Cu41  1  0.49936196  0.50086542  0.66941143  1
  Cu+  Cu42  1  0.49906096  0.83419048  0.00248192  1
  Cu+  Cu43  1  0.50174176  0.84051979  0.32763857  1
  Cu+  Cu44  1  0.50061401  0.83374747  0.66284123  1
  Cu+  Cu45  1  0.83086226  0.16857342  -0.00089823  1
  Cu+  Cu46  1  0.83808420  0.16624098  0.33659945  1
  Cu+  Cu47  1  0.82495026  0.16535823  0.66696060  1
  Cu+  Cu48  1  0.83729450  0.49853414  0.00137928  1
  Cu+  Cu49  1  0.83647624  0.49847461  0.33266044  1
  Cu+  Cu50  1  0.83423230  0.50083565  0.66497964  1
  Cu+  Cu51  1  0.83126192  0.83137482  -0.00608149  1
  Cu+  Cu52  1  0.83195480  0.82964421  0.33206033  1
  Cu+  Cu53  1  0.83814320  0.83384202  0.66714397  1
  Cu+  Cu54  1  0.16607944  -0.00122699  0.15987966  1
  Cu+  Cu55  1  0.16551456  0.00178040  0.50073241  1
  Cu+  Cu56  1  0.16746412  0.00014198  0.83266540  1
  Cu+  Cu57  1  0.16912586  0.32763295  0.16606840  1
  Cu+  Cu58  1  0.17187615  0.33187358  0.50003750  1
  Cu+  Cu59  1  0.16573921  0.33479660  0.83430738  1
  Cu+  Cu60  1  0.16489441  0.66297419  0.16497878  1
  Cu+  Cu61  1  0.17010360  0.66625803  0.50155341  1
  Cu+  Cu62  1  0.16652404  0.67004486  0.83664314  1
  Cu+  Cu63  1  0.49415942  0.00052760  0.17507795  1
  Cu+  Cu64  1  0.50375130  0.00297970  0.49253597  1
  Cu+  Cu65  1  0.50080112  -0.00008199  0.83410587  1
  Cu+  Cu66  1  0.50536015  0.33530210  0.17449074  1
  Cu+  Cu67  1  0.49740515  0.33396486  0.50196228  1
  Cu+  Cu68  1  0.49799118  0.33539800  0.83463126  1
  Cu+  Cu69  1  0.50067692  0.67144209  0.16645642  1
  Cu+  Cu70  1  0.49164681  0.67008869  0.49721452  1
  Cu+  Cu71  1  0.49960541  0.66380375  0.83378241  1
  Cu+  Cu72  1  0.83206931  0.00473172  0.16492973  1
  Cu+  Cu73  1  0.83268019  -0.00630843  0.50673757  1
  Cu+  Cu74  1  0.83489347  -0.00086896  0.83398509  1
  Cu+  Cu75  1  0.82945184  0.33337486  0.16371519  1
  Cu+  Cu76  1  0.83603600  0.33379821  0.50044031  1
  Cu+  Cu77  1  0.82969085  0.33212495  0.83047930  1
  Cu+  Cu78  1  0.83204326  0.66467807  0.16339946  1
  Cu+  Cu79  1  0.83502826  0.66351362  0.49937428  1
  Cu+  Cu80  1  0.83568674  0.66783317  0.83462340  1
  Cu+  Cu81  1  -0.00048661  0.16604106  0.16813594  1
  Cu+  Cu82  1  0.00488323  0.16079130  0.50437766  1
  Cu+  Cu83  1  -0.00192594  0.16872511  0.83271407  1
  Cu+  Cu84  1  0.00294812  0.49672340  0.15903743  1
  Cu+  Cu85  1  0.00191335  0.49788600  0.49914618  1
  Cu+  Cu86  1  -0.00021162  0.49880393  0.83493079  1
  Cu+  Cu87  1  -0.00200327  0.83639536  0.16283285  1
  Cu+  Cu88  1  -0.00115213  0.83258650  0.50372037  1
  Cu+  Cu89  1  0.00166705  0.83432113  0.83282494  1
  Cu+  Cu90  1  0.33189567  0.15900751  0.16622976  1
  Cu+  Cu91  1  0.33035839  0.17214016  0.50273273  1
  Cu+  Cu92  1  0.33597403  0.16861113  0.83264618  1
  Cu+  Cu93  1  0.33489077  0.49725113  0.17167245  1
  Cu+  Cu94  1  0.33136232  0.50907235  0.49829665  1
  Cu+  Cu95  1  0.33435415  0.50052897  0.83645934  1
  Cu+  Cu96  1  0.33037579  0.83163272  0.16723708  1
  Cu+  Cu97  1  0.33570224  0.83352865  0.50177473  1
  Cu+  Cu98  1  0.33210122  0.83345584  0.83472744  1
  Cu+  Cu99  1  0.66838920  0.17850673  0.17065007  1
  Cu+  Cu100  1  0.66823281  0.15964077  0.50409851  1
  Cu+  Cu101  1  0.66362250  0.16881946  0.82447088  1
  Cu+  Cu102  1  0.66848305  0.49128086  0.16513768  1
  Cu+  Cu103  1  0.66427026  0.50151980  0.49871212  1
  Cu+  Cu104  1  0.66482812  0.50109338  0.83457947  1
  Cu+  Cu105  1  0.65996653  0.83159016  0.16317044  1
  Cu+  Cu106  1  0.67023630  0.83459234  0.49173037  1
  Cu+  Cu107  1  0.67049614  0.83317369  0.83369953  1
  Cu+  Cu108  1  0.59720182  0.08326276  0.40328915  1
  Cu+  Cu109  1  0.58483558  0.40541570  0.06951883  1
  Cu+  Cu110  1  0.73688679  0.26618082  0.73454849  1
  Cu+  Cu111  1  0.40430338  0.40552057  0.26414938  1
  Cu+  Cu112  1  0.75313037  0.92653457  0.40290094  1
  Cu+  Cu113  1  0.26403369  0.07067407  0.06742926  1
  Cu+  Cu114  1  0.73864700  0.06432211  0.59496308  1
  Cu+  Cu115  1  0.59608101  0.92671090  0.24891595  1
  Cu+  Cu116  1  0.93266854  0.40127378  0.07194162  1
  Cu+  Cu117  1  0.40033429  0.07297823  0.26584700  1
  Cu+  Cu118  1  0.58460366  0.74187040  0.07249371  1
  Cu+  Cu119  1  0.73965898  0.25471138  0.06796755  1
  Cu+  Cu120  1  0.59232038  0.26178616  0.26855402  1
  Cu+  Cu121  1  0.25960964  0.26264751  0.59643052  1
  Cu+  Cu122  1  0.06672579  0.93078715  0.07145572  1
  Cu+  Cu123  1  0.08311928  0.07431921  0.59752783  1
  Cu+  Cu124  1  0.92906018  0.92320886  0.59535315  1
  Cu+  Cu125  1  0.59054407  0.06696355  0.74543379  1
  Cu+  Cu126  1  0.74022513  0.73748817  0.91670387  1
  Cu+  Cu127  1  0.07682534  0.59463801  0.07101393  1
  Cu+  Cu128  1  0.40200209  0.60182235  0.40185640  1
  Cu+  Cu129  1  0.40956508  0.74401412  0.59618126  1
  Cu+  Cu130  1  0.74824510  0.40900777  0.26536976  1
  Cu+  Cu131  1  0.73859111  0.58982168  0.07759522  1
  Cu+  Cu132  1  0.25308416  0.59608821  0.60080460  1
  Te2-  Te133  1  0.25492020  0.24882132  0.08029447  1
  Te2-  Te134  1  0.25321268  0.25190865  0.40995875  1
  Te2-  Te135  1  0.25425209  0.25540171  0.74899030  1
  Te2-  Te136  1  0.25579945  0.58208882  0.08324588  1
  Te2-  Te137  1  0.24992980  0.58915070  0.40696696  1
  Te2-  Te138  1  0.25353772  0.58843966  0.75268545  1
  Te2-  Te139  1  0.25579982  0.91743081  0.07782980  1
  Te2-  Te140  1  0.25097155  0.91840100  0.41733213  1
  Te2-  Te141  1  0.25434696  0.92037900  0.74880544  1
  Te2-  Te142  1  0.58402137  0.25390301  0.07705399  1
  Te2-  Te143  1  0.58727219  0.25237892  0.41930864  1
  Te2-  Te144  1  0.58296742  0.26025888  0.74407978  1
  Te2-  Te145  1  0.58699150  0.58739955  0.08170703  1
  Te2-  Te146  1  0.58126860  0.58739369  0.41521146  1
  Te2-  Te147  1  0.58614238  0.58633026  0.74790003  1
  Te2-  Te148  1  0.58080035  0.92522970  0.08284060  1
  Te2-  Te149  1  0.59137659  0.92439699  0.40697927  1
  Te2-  Te150  1  0.58749646  0.91492692  0.74638532  1
  Te2-  Te151  1  0.92050634  0.25058462  0.08036409  1
  Te2-  Te152  1  0.92186600  0.24796213  0.42120314  1
  Te2-  Te153  1  0.91634994  0.25086970  0.74477970  1
  Te2-  Te154  1  0.92200183  0.58854935  0.07820739  1
  Te2-  Te155  1  0.92120382  0.58376441  0.41341173  1
  Te2-  Te156  1  0.91829134  0.58436197  0.74957338  1
  Te2-  Te157  1  0.91299687  0.92106200  0.07681201  1
  Te2-  Te158  1  0.91803419  0.91693428  0.41393180  1
  Te2-  Te159  1  0.92270671  0.92200633  0.74857764  1
  Te2-  Te160  1  0.24837325  0.07600863  0.25484990  1
  Te2-  Te161  1  0.25440287  0.07957559  0.58593007  1
  Te2-  Te162  1  0.25593106  0.07980382  0.91569079  1
  Te2-  Te163  1  0.25231178  0.40847076  0.25344392  1
  Te2-  Te164  1  0.25687753  0.41570497  0.58629389  1
  Te2-  Te165  1  0.25158907  0.41527206  0.92044173  1
  Te2-  Te166  1  0.24785882  0.74628384  0.25074601  1
  Te2-  Te167  1  0.25451845  0.74869358  0.59093447  1
  Te2-  Te168  1  0.25108841  0.75046754  0.92219151  1
  Te2-  Te169  1  0.59280286  0.08148863  0.25204641  1
  Te2-  Te170  1  0.58524739  0.07492727  0.58969537  1
  Te2-  Te171  1  0.58788178  0.08313709  0.91723116  1
  Te2-  Te172  1  0.58950206  0.41622328  0.26481075  1
  Te2-  Te173  1  0.58247490  0.41740822  0.58435426  1
  Te2-  Te174  1  0.58727655  0.41262123  0.91810888  1
  Te2-  Te175  1  0.58472123  0.74790813  0.25484711  1
  Te2-  Te176  1  0.58591933  0.74903219  0.57797364  1
  Te2-  Te177  1  0.58612758  0.74492765  0.91986731  1
  Te2-  Te178  1  0.91859104  0.08091210  0.25229164  1
  Te2-  Te179  1  0.92072584  0.07841420  0.59179355  1
  Te2-  Te180  1  0.91634922  0.08413996  0.91838367  1
  Te2-  Te181  1  0.92130545  0.41264764  0.24839431  1
  Te2-  Te182  1  0.92042020  0.41467968  0.58627563  1
  Te2-  Te183  1  0.91910563  0.40966623  0.91714513  1
  Te2-  Te184  1  0.91715342  0.74838625  0.24739691  1
  Te2-  Te185  1  0.91914081  0.74348310  0.58664562  1
  Te2-  Te186  1  0.92257788  0.74868484  0.91833926  1
  Te2-  Te187  1  0.08194510  0.25027486  0.25141967  1
  Te2-  Te188  1  0.08215810  0.25414484  0.58481229  1
  Te2-  Te189  1  0.08252929  0.25028011  0.91917213  1
  Te2-  Te190  1  0.08019848  0.57978048  0.25102562  1
  Te2-  Te191  1  0.08250915  0.58436522  0.58505181  1
  Te2-  Te192  1  0.07914260  0.58746565  0.91899294  1
  Te2-  Te193  1  0.08093344  0.91939421  0.25094329  1
  Te2-  Te194  1  0.08167087  0.91964257  0.59076759  1
  Te2-  Te195  1  0.07803448  0.92354794  0.91775977  1
  Te2-  Te196  1  0.41074963  0.25219653  0.25324763  1
  Te2-  Te197  1  0.41697185  0.25123663  0.58994908  1
  Te2-  Te198  1  0.41397556  0.25392162  0.91932006  1
  Te2-  Te199  1  0.41353589  0.59110677  0.24968021  1
  Te2-  Te200  1  0.41134889  0.58904487  0.59247056  1
  Te2-  Te201  1  0.41464993  0.58618475  0.92200706  1
  Te2-  Te202  1  0.40456437  0.91906426  0.25560477  1
  Te2-  Te203  1  0.41807154  0.92362875  0.58175897  1
  Te2-  Te204  1  0.41589784  0.91855100  0.91871630  1
  Te2-  Te205  1  0.74954597  0.25597476  0.26372915  1
  Te2-  Te206  1  0.74506396  0.25546842  0.58219351  1
  Te2-  Te207  1  0.74245187  0.25248552  0.91576382  1
  Te2-  Te208  1  0.74824312  0.58220402  0.25014830  1
  Te2-  Te209  1  0.74753589  0.58470797  0.58413377  1
  Te2-  Te210  1  0.74621452  0.58529013  0.92183176  1
  Te2-  Te211  1  0.74738313  0.92090512  0.24931912  1
  Te2-  Te212  1  0.74217159  0.91241645  0.59069370  1
  Te2-  Te213  1  0.74743380  0.92203900  0.91864679  1
  Te2-  Te214  1  0.07587515  0.08237671  0.07790582  1
  Te2-  Te215  1  0.08145474  0.07965347  0.41226522  1
  Te2-  Te216  1  0.08076994  0.08237964  0.74844106  1
  Te2-  Te217  1  0.08537699  0.40625883  0.07744261  1
  Te2-  Te218  1  0.08435862  0.41227356  0.41574454  1
  Te2-  Te219  1  0.08153930  0.41558669  0.74791204  1
  Te2-  Te220  1  0.07854039  0.74698992  0.07913211  1
  Te2-  Te221  1  0.08162157  0.74825834  0.41826945  1
  Te2-  Te222  1  0.08165740  0.74798157  0.74918562  1
  Te2-  Te223  1  0.41935627  0.07994307  0.07849199  1
  Te2-  Te224  1  0.40826518  0.08267088  0.41679124  1
  Te2-  Te225  1  0.41397393  0.08031870  0.74859668  1
  Te2-  Te226  1  0.41878854  0.41443396  0.08431912  1
  Te2-  Te227  1  0.40823702  0.41092688  0.41778010  1
  Te2-  Te228  1  0.41334586  0.41618465  0.74928195  1
  Te2-  Te229  1  0.41134549  0.74755355  0.08076906  1
  Te2-  Te230  1  0.41221694  0.75467940  0.40629179  1
  Te2-  Te231  1  0.41432815  0.74763245  0.74929906  1
  Te2-  Te232  1  0.74391270  0.08625131  0.08351616  1
  Te2-  Te233  1  0.75004457  0.07793199  0.41109539  1
  Te2-  Te234  1  0.74494151  0.07244606  0.74719184  1
  Te2-  Te235  1  0.74351124  0.40876390  0.07138371  1
  Te2-  Te236  1  0.74705748  0.41326048  0.41653966  1
  Te2-  Te237  1  0.74590328  0.41824344  0.74588379  1
  Te2-  Te238  1  0.74332982  0.74615566  0.07655570  1
  Te2-  Te239  1  0.74933928  0.74220046  0.41299525  1
  Te2-  Te240  1  0.75066353  0.74755248  0.74636031  1
