# generated using pymatgen
data_Ti27(Cu53Te54)2
_symmetry_space_group_name_H-M   'P 1'
_cell_length_a   17.88315608
_cell_length_b   17.88840289
_cell_length_c   17.88348962
_cell_angle_alpha   90.03039476
_cell_angle_beta   89.98903641
_cell_angle_gamma   89.97807577
_symmetry_Int_Tables_number   1
_chemical_formula_structural   Ti27(Cu53Te54)2
_chemical_formula_sum   'Ti27 Cu106 Te108'
_cell_volume   5720.94669057
_cell_formula_units_Z   1
loop_
 _symmetry_equiv_pos_site_id
 _symmetry_equiv_pos_as_xyz
  1  'x, y, z'
loop_
 _atom_type_symbol
 _atom_type_oxidation_number
  Ti4+  4.0
  Cu+  1.0
  Te2-  -2.0
loop_
 _atom_site_type_symbol
 _atom_site_label
 _atom_site_symmetry_multiplicity
 _atom_site_fract_x
 _atom_site_fract_y
 _atom_site_fract_z
 _atom_site_occupancy
  Ti4+  Ti0  1  0.16707512  0.16190604  0.16675522  1
  Ti4+  Ti1  1  0.17086628  0.17022895  0.50391746  1
  Ti4+  Ti2  1  0.16546525  0.16215564  0.83462704  1
  Ti4+  Ti3  1  0.16635762  0.49840006  0.16856350  1
  Ti4+  Ti4  1  0.16424787  0.50213348  0.49353706  1
  Ti4+  Ti5  1  0.16472254  0.49958845  0.83420113  1
  Ti4+  Ti6  1  0.16914695  0.83252899  0.16386128  1
  Ti4+  Ti7  1  0.16529896  0.83609582  0.49785798  1
  Ti4+  Ti8  1  0.16055391  0.83321261  0.83472430  1
  Ti4+  Ti9  1  0.49869571  0.16642139  0.16643882  1
  Ti4+  Ti10  1  0.50043254  0.16728426  0.49847134  1
  Ti4+  Ti11  1  0.50176389  0.16483093  0.83328566  1
  Ti4+  Ti12  1  0.49974498  0.49990047  0.16768396  1
  Ti4+  Ti13  1  0.50097427  0.50110945  0.49896907  1
  Ti4+  Ti14  1  0.49894195  0.49817217  0.83178542  1
  Ti4+  Ti15  1  0.50251989  0.83058608  0.16574228  1
  Ti4+  Ti16  1  0.49951521  0.83549697  0.49962008  1
  Ti4+  Ti17  1  0.49988321  0.83010088  0.83068530  1
  Ti4+  Ti18  1  0.83122811  0.16703729  0.16720508  1
  Ti4+  Ti19  1  0.83534554  0.16812508  0.49927617  1
  Ti4+  Ti20  1  0.83327285  0.16951280  0.83396099  1
  Ti4+  Ti21  1  0.83205793  0.50056593  0.16607410  1
  Ti4+  Ti22  1  0.83555222  0.50133139  0.50015278  1
  Ti4+  Ti23  1  0.83700792  0.50057469  0.83470342  1
  Ti4+  Ti24  1  0.83062659  0.83425533  0.16904738  1
  Ti4+  Ti25  1  0.83510151  0.83373959  0.50239151  1
  Ti4+  Ti26  1  0.83441564  0.83373253  0.83607082  1
  Cu+  Cu27  1  0.16842336  0.15550290  0.00121995  1
  Cu+  Cu28  1  0.17367225  0.16844414  0.33613265  1
  Cu+  Cu29  1  0.16194010  0.16652333  0.66854786  1
  Cu+  Cu30  1  0.16612923  0.49349591  0.00153752  1
  Cu+  Cu31  1  0.17008496  0.50543467  0.33159462  1
  Cu+  Cu32  1  0.16318144  0.50367304  0.66356710  1
  Cu+  Cu33  1  0.16149661  0.83702231  0.00048729  1
  Cu+  Cu34  1  0.16871132  0.83539634  0.32954861  1
  Cu+  Cu35  1  0.16451233  0.83549662  0.66632343  1
  Cu+  Cu36  1  0.49895015  0.16579266  -0.00051685  1
  Cu+  Cu37  1  0.50068985  0.17176882  0.33021443  1
  Cu+  Cu38  1  0.50039818  0.16477219  0.66627003  1
  Cu+  Cu39  1  0.49636902  0.49743888  0.00012909  1
  Cu+  Cu40  1  0.50351649  0.50421052  0.33309882  1
  Cu+  Cu41  1  0.49928873  0.49934117  0.66531822  1
  Cu+  Cu42  1  0.50307376  0.82975876  -0.00224066  1
  Cu+  Cu43  1  0.50209218  0.83455938  0.33322881  1
  Cu+  Cu44  1  0.49745433  0.83223352  0.66622142  1
  Cu+  Cu45  1  0.82864325  0.16841768  0.00156977  1
  Cu+  Cu46  1  0.83207620  0.16586878  0.33142296  1
  Cu+  Cu47  1  0.83746266  0.17130383  0.66618792  1
  Cu+  Cu48  1  0.83287067  0.49870958  0.00008601  1
  Cu+  Cu49  1  0.83475504  0.49945941  0.33368803  1
  Cu+  Cu50  1  0.83757187  0.50230129  0.66801559  1
  Cu+  Cu51  1  0.83261104  0.83258818  0.00348089  1
  Cu+  Cu52  1  0.83130281  0.83486325  0.33776114  1
  Cu+  Cu53  1  0.83470723  0.83331526  0.66785608  1
  Cu+  Cu54  1  0.17043993  -0.00181984  0.15781148  1
  Cu+  Cu55  1  0.17308597  0.00439551  0.50403523  1
  Cu+  Cu56  1  0.16123817  -0.00472968  0.83924178  1
  Cu+  Cu57  1  0.16598478  0.32876567  0.16787152  1
  Cu+  Cu58  1  0.16416266  0.33827749  0.49506297  1
  Cu+  Cu59  1  0.16408666  0.33025445  0.83438679  1
  Cu+  Cu60  1  0.17131527  0.66381044  0.16818297  1
  Cu+  Cu61  1  0.16186806  0.66990890  0.49427642  1
  Cu+  Cu62  1  0.15967814  0.66604363  0.83303538  1
  Cu+  Cu63  1  0.50117133  -0.00312833  0.16686035  1
  Cu+  Cu64  1  0.49599346  0.00359897  0.50136070  1
  Cu+  Cu65  1  0.50427620  -0.00580716  0.83438329  1
  Cu+  Cu66  1  0.49826732  0.33218942  0.16923967  1
  Cu+  Cu67  1  0.49961476  0.33434876  0.49843168  1
  Cu+  Cu68  1  0.50046834  0.33095494  0.83023313  1
  Cu+  Cu69  1  0.50472182  0.66407861  0.16792024  1
  Cu+  Cu70  1  0.49957544  0.66901871  0.49902233  1
  Cu+  Cu71  1  0.49689087  0.66385939  0.83095470  1
  Cu+  Cu72  1  0.83023231  0.00314173  0.16730235  1
  Cu+  Cu73  1  0.83453708  -0.00106729  0.50010955  1
  Cu+  Cu74  1  0.83130566  0.00402325  0.83522792  1
  Cu+  Cu75  1  0.82997203  0.33222780  0.16499455  1
  Cu+  Cu76  1  0.83795305  0.33492308  0.49844799  1
  Cu+  Cu77  1  0.83450247  0.33836247  0.83760094  1
  Cu+  Cu78  1  0.83257414  0.66912786  0.16720868  1
  Cu+  Cu79  1  0.83519219  0.66851474  0.50429529  1
  Cu+  Cu80  1  0.83674970  0.66719234  0.83470404  1
  Cu+  Cu81  1  -0.00561320  0.16689479  0.16811445  1
  Cu+  Cu82  1  0.00259415  0.17209694  0.50277768  1
  Cu+  Cu83  1  0.00065011  0.16737418  0.83377108  1
  Cu+  Cu84  1  -0.00180870  0.50026378  0.16546947  1
  Cu+  Cu85  1  -0.00128608  0.49700082  0.49220943  1
  Cu+  Cu86  1  0.00380811  0.50139286  0.83422593  1
  Cu+  Cu87  1  -0.00195364  0.83269889  0.16655753  1
  Cu+  Cu88  1  -0.00218134  0.83230780  0.50006874  1
  Cu+  Cu89  1  -0.00077972  0.83063857  0.83389439  1
  Cu+  Cu90  1  0.33252852  0.16114576  0.16477922  1
  Cu+  Cu91  1  0.33734688  0.16176912  0.50201744  1
  Cu+  Cu92  1  0.33587566  0.16432002  0.83194668  1
  Cu+  Cu93  1  0.33234151  0.50008355  0.17141112  1
  Cu+  Cu94  1  0.33450331  0.50062657  0.49541303  1
  Cu+  Cu95  1  0.33167757  0.49805697  0.83022101  1
  Cu+  Cu96  1  0.34036510  0.82692085  0.16287490  1
  Cu+  Cu97  1  0.33130783  0.83487077  0.49912242  1
  Cu+  Cu98  1  0.33083353  0.82961219  0.83256142  1
  Cu+  Cu99  1  0.66355126  0.17043786  0.16749628  1
  Cu+  Cu100  1  0.66765848  0.16908054  0.49925366  1
  Cu+  Cu101  1  0.66883681  0.16491688  0.83388268  1
  Cu+  Cu102  1  0.66506772  0.50236770  0.16820324  1
  Cu+  Cu103  1  0.66859589  0.50072906  0.50168366  1
  Cu+  Cu104  1  0.66696862  0.49943734  0.83391901  1
  Cu+  Cu105  1  0.66526156  0.83523783  0.17063090  1
  Cu+  Cu106  1  0.66964753  0.83636671  0.49979495  1
  Cu+  Cu107  1  0.66542637  0.83386944  0.83340428  1
  Cu+  Cu108  1  0.06842212  0.07471535  0.92772881  1
  Cu+  Cu109  1  0.07203625  0.41503293  0.59113848  1
  Cu+  Cu110  1  0.59783183  0.59495246  0.26213434  1
  Cu+  Cu111  1  0.91966699  0.40444289  0.39969031  1
  Cu+  Cu112  1  0.58834599  0.92932363  0.26243984  1
  Cu+  Cu113  1  0.59431925  0.91969100  0.92689830  1
  Cu+  Cu114  1  0.26377578  0.59713652  0.26007603  1
  Cu+  Cu115  1  0.26501689  0.40957195  0.40550468  1
  Cu+  Cu116  1  0.07180389  0.07432771  0.58408320  1
  Cu+  Cu117  1  0.07297043  0.25912506  0.74459526  1
  Cu+  Cu118  1  0.06896640  0.59982266  0.40131892  1
  Cu+  Cu119  1  0.26282640  0.91883076  0.92248351  1
  Cu+  Cu120  1  0.74260924  0.92921743  0.41092844  1
  Cu+  Cu121  1  0.26724629  0.07142707  0.07154132  1
  Cu+  Cu122  1  0.41104396  0.07197570  0.59914403  1
  Cu+  Cu123  1  0.07350915  0.73601196  0.93239880  1
  Cu+  Cu124  1  0.26201002  0.07351310  0.40783512  1
  Cu+  Cu125  1  0.07671644  0.25392019  0.40343465  1
  Cu+  Cu126  1  0.74014215  0.07477586  0.92888590  1
  Cu+  Cu127  1  0.73518480  0.41300696  0.92820159  1
  Cu+  Cu128  1  0.07379646  0.59526636  0.73602599  1
  Cu+  Cu129  1  0.06949483  0.92274329  0.73834711  1
  Cu+  Cu130  1  0.06529704  0.92660602  0.08205099  1
  Cu+  Cu131  1  0.07721234  0.40142737  0.93198277  1
  Cu+  Cu132  1  0.59367165  0.26347815  0.25930450  1
  Te2-  Te133  1  0.25016127  0.24807173  0.08032077  1
  Te2-  Te134  1  0.25929406  0.25519553  0.41747851  1
  Te2-  Te135  1  0.25143188  0.24889124  0.75030280  1
  Te2-  Te136  1  0.25189974  0.58047973  0.08000088  1
  Te2-  Te137  1  0.25548193  0.59224956  0.41409008  1
  Te2-  Te138  1  0.24880914  0.58611759  0.74784792  1
  Te2-  Te139  1  0.26183900  0.91571382  0.07710128  1
  Te2-  Te140  1  0.25284945  0.92088443  0.41254463  1
  Te2-  Te141  1  0.24950976  0.91854034  0.74993912  1
  Te2-  Te142  1  0.58233562  0.25311852  0.07968166  1
  Te2-  Te143  1  0.58741411  0.25498229  0.41398186  1
  Te2-  Te144  1  0.58671852  0.24886896  0.74720572  1
  Te2-  Te145  1  0.58454178  0.58266155  0.07815237  1
  Te2-  Te146  1  0.58960929  0.58880009  0.41642083  1
  Te2-  Te147  1  0.58535106  0.58346811  0.74761494  1
  Te2-  Te148  1  0.58780657  0.91861096  0.07936406  1
  Te2-  Te149  1  0.58628384  0.92516816  0.41525845  1
  Te2-  Te150  1  0.58603257  0.91618545  0.74409981  1
  Te2-  Te151  1  0.91651518  0.25230423  0.08103542  1
  Te2-  Te152  1  0.92189453  0.25234704  0.40919173  1
  Te2-  Te153  1  0.91984539  0.25695512  0.74918856  1
  Te2-  Te154  1  0.91673723  0.58620590  0.08160787  1
  Te2-  Te155  1  0.91784965  0.59130134  0.41235784  1
  Te2-  Te156  1  0.92204129  0.58834448  0.74774759  1
  Te2-  Te157  1  0.91455019  0.92151302  0.08205578  1
  Te2-  Te158  1  0.92098025  0.91978657  0.41450526  1
  Te2-  Te159  1  0.91707881  0.92149265  0.74938199  1
  Te2-  Te160  1  0.25291966  0.07615401  0.25304577  1
  Te2-  Te161  1  0.25555031  0.08283842  0.59413022  1
  Te2-  Te162  1  0.25842941  0.07537656  0.91767155  1
  Te2-  Te163  1  0.25219867  0.40923335  0.25309417  1
  Te2-  Te164  1  0.25051250  0.41895923  0.58259081  1
  Te2-  Te165  1  0.25177479  0.41201634  0.91650285  1
  Te2-  Te166  1  0.25627665  0.74948705  0.25188147  1
  Te2-  Te167  1  0.24770970  0.74938584  0.58293512  1
  Te2-  Te168  1  0.24676911  0.74615768  0.91926617  1
  Te2-  Te169  1  0.58604099  0.08104279  0.25329087  1
  Te2-  Te170  1  0.58767036  0.08242700  0.58346463  1
  Te2-  Te171  1  0.58724215  0.07829000  0.92248545  1
  Te2-  Te172  1  0.58698724  0.41401981  0.25434198  1
  Te2-  Te173  1  0.58532739  0.41494001  0.58379710  1
  Te2-  Te174  1  0.58321546  0.41173836  0.91961385  1
  Te2-  Te175  1  0.58840958  0.74624272  0.25576858  1
  Te2-  Te176  1  0.58544819  0.75091399  0.58360175  1
  Te2-  Te177  1  0.58579811  0.74304217  0.91520983  1
  Te2-  Te178  1  0.91685115  0.08031559  0.25280345  1
  Te2-  Te179  1  0.91949429  0.08174653  0.58609133  1
  Te2-  Te180  1  0.91746530  0.08278699  0.92218045  1
  Te2-  Te181  1  0.91861070  0.41198815  0.24876994  1
  Te2-  Te182  1  0.92059088  0.41430454  0.58827210  1
  Te2-  Te183  1  0.92448984  0.41454389  0.92234273  1
  Te2-  Te184  1  0.91682562  0.75039647  0.25395341  1
  Te2-  Te185  1  0.92113160  0.74817039  0.58877381  1
  Te2-  Te186  1  0.91893942  0.74673628  0.92365817  1
  Te2-  Te187  1  0.08082139  0.24823627  0.25197590  1
  Te2-  Te188  1  0.08018586  0.25978405  0.58958203  1
  Te2-  Te189  1  0.08229438  0.24808954  0.92553855  1
  Te2-  Te190  1  0.07714105  0.58757316  0.25025762  1
  Te2-  Te191  1  0.07626019  0.58872105  0.58049563  1
  Te2-  Te192  1  0.08056306  0.58427246  0.92597822  1
  Te2-  Te193  1  0.08401671  0.91988787  0.24763263  1
  Te2-  Te194  1  0.07743292  0.92201834  0.58449938  1
  Te2-  Te195  1  0.06881097  0.92152124  0.92549376  1
  Te2-  Te196  1  0.40880246  0.25046762  0.24987667  1
  Te2-  Te197  1  0.41597086  0.25304236  0.58510504  1
  Te2-  Te198  1  0.41531175  0.25036180  0.91692361  1
  Te2-  Te199  1  0.41464064  0.58853317  0.25449174  1
  Te2-  Te200  1  0.41423515  0.58539291  0.58311658  1
  Te2-  Te201  1  0.41213024  0.58256931  0.91714959  1
  Te2-  Te202  1  0.41415915  0.91608380  0.25037360  1
  Te2-  Te203  1  0.41118378  0.91889134  0.58691636  1
  Te2-  Te204  1  0.41453259  0.91594028  0.91950314  1
  Te2-  Te205  1  0.74686586  0.25468341  0.25468223  1
  Te2-  Te206  1  0.75109232  0.25433522  0.58322804  1
  Te2-  Te207  1  0.74569328  0.25605035  0.91947902  1
  Te2-  Te208  1  0.74962679  0.58710439  0.25469526  1
  Te2-  Te209  1  0.75036565  0.58501648  0.58693550  1
  Te2-  Te210  1  0.74958755  0.58632475  0.91830290  1
  Te2-  Te211  1  0.74521959  0.92379016  0.25574361  1
  Te2-  Te212  1  0.74948129  0.92021498  0.58887278  1
  Te2-  Te213  1  0.74733282  0.91985422  0.92292555  1
  Te2-  Te214  1  0.07238764  0.07902844  0.08165841  1
  Te2-  Te215  1  0.08422883  0.08389654  0.41738536  1
  Te2-  Te216  1  0.07667533  0.07583314  0.74543873  1
  Te2-  Te217  1  0.07907286  0.41012253  0.08493313  1
  Te2-  Te218  1  0.07787664  0.41202673  0.40207776  1
  Te2-  Te219  1  0.07842089  0.41190717  0.74467786  1
  Te2-  Te220  1  0.08093678  0.74296438  0.08435423  1
  Te2-  Te221  1  0.07858672  0.75345435  0.40858190  1
  Te2-  Te222  1  0.07709777  0.74764539  0.74236374  1
  Te2-  Te223  1  0.41745365  0.07614538  0.07898922  1
  Te2-  Te224  1  0.41574369  0.08145368  0.40737474  1
  Te2-  Te225  1  0.41625865  0.07565170  0.75003074  1
  Te2-  Te226  1  0.41262323  0.41410958  0.08500772  1
  Te2-  Te227  1  0.41726598  0.41453420  0.40969253  1
  Te2-  Te228  1  0.41402522  0.41277780  0.74579339  1
  Te2-  Te229  1  0.42079594  0.74245572  0.07884194  1
  Te2-  Te230  1  0.41470084  0.75102313  0.41407483  1
  Te2-  Te231  1  0.41160389  0.74614202  0.74628715  1
  Te2-  Te232  1  0.74223699  0.08145173  0.08279508  1
  Te2-  Te233  1  0.74782075  0.08304337  0.41484698  1
  Te2-  Te234  1  0.75104369  0.08456069  0.74460714  1
  Te2-  Te235  1  0.74401714  0.41440926  0.08207118  1
  Te2-  Te236  1  0.74857798  0.41519032  0.41565914  1
  Te2-  Te237  1  0.75138894  0.41667352  0.74718928  1
  Te2-  Te238  1  0.74530720  0.74941441  0.08366077  1
  Te2-  Te239  1  0.74888348  0.74610102  0.41764172  1
  Te2-  Te240  1  0.75003863  0.74896501  0.75096913  1
