# generated using pymatgen
data_Ti27(Cu53Te54)2
_symmetry_space_group_name_H-M   'P 1'
_cell_length_a   17.85835619
_cell_length_b   17.85808568
_cell_length_c   17.85693301
_cell_angle_alpha   89.99814608
_cell_angle_beta   90.01105952
_cell_angle_gamma   89.99115859
_symmetry_Int_Tables_number   1
_chemical_formula_structural   Ti27(Cu53Te54)2
_chemical_formula_sum   'Ti27 Cu106 Te108'
_cell_volume   5694.86245364
_cell_formula_units_Z   1
loop_
 _symmetry_equiv_pos_site_id
 _symmetry_equiv_pos_as_xyz
  1  'x, y, z'
loop_
 _atom_type_symbol
 _atom_type_oxidation_number
  Ti4+  4.0
  Cu+  1.0
  Te2-  -2.0
loop_
 _atom_site_type_symbol
 _atom_site_label
 _atom_site_symmetry_multiplicity
 _atom_site_fract_x
 _atom_site_fract_y
 _atom_site_fract_z
 _atom_site_occupancy
  Ti4+  Ti0  1  0.16768008  0.16576942  0.16762520  1
  Ti4+  Ti1  1  0.16873140  0.16532322  0.50195132  1
  Ti4+  Ti2  1  0.16528492  0.16790515  0.83391568  1
  Ti4+  Ti3  1  0.16505788  0.50069335  0.16907305  1
  Ti4+  Ti4  1  0.16690118  0.50092769  0.50165779  1
  Ti4+  Ti5  1  0.16954108  0.50208938  0.83306249  1
  Ti4+  Ti6  1  0.16718717  0.83452189  0.16859683  1
  Ti4+  Ti7  1  0.16596593  0.83159682  0.50095847  1
  Ti4+  Ti8  1  0.16742080  0.83171976  0.83085767  1
  Ti4+  Ti9  1  0.49756072  0.16807500  0.16588373  1
  Ti4+  Ti10  1  0.50044664  0.16719169  0.50011444  1
  Ti4+  Ti11  1  0.50100360  0.16612389  0.83423976  1
  Ti4+  Ti12  1  0.49969308  0.50038802  0.16905607  1
  Ti4+  Ti13  1  0.49763321  0.50108349  0.49842717  1
  Ti4+  Ti14  1  0.50035471  0.50043654  0.83297683  1
  Ti4+  Ti15  1  0.49874814  0.83443724  0.16530747  1
  Ti4+  Ti16  1  0.50300379  0.83455297  0.49934339  1
  Ti4+  Ti17  1  0.50050423  0.83156141  0.83611766  1
  Ti4+  Ti18  1  0.83345252  0.16585389  0.16373802  1
  Ti4+  Ti19  1  0.83318761  0.16500235  0.49916565  1
  Ti4+  Ti20  1  0.83235137  0.16631693  0.83263260  1
  Ti4+  Ti21  1  0.83137874  0.49846079  0.16452067  1
  Ti4+  Ti22  1  0.83155346  0.49768440  0.49923870  1
  Ti4+  Ti23  1  0.83323466  0.50009175  0.83407429  1
  Ti4+  Ti24  1  0.83330763  0.83189732  0.16853107  1
  Ti4+  Ti25  1  0.83382153  0.83720167  0.49702620  1
  Ti4+  Ti26  1  0.83358191  0.83239964  0.83235173  1
  Cu+  Cu27  1  0.16573456  0.16930903  0.00011976  1
  Cu+  Cu28  1  0.16851355  0.16686150  0.33398886  1
  Cu+  Cu29  1  0.16852219  0.16327151  0.66936845  1
  Cu+  Cu30  1  0.16796394  0.49903563  0.00020398  1
  Cu+  Cu31  1  0.17065173  0.50450405  0.33377927  1
  Cu+  Cu32  1  0.16768999  0.50710074  0.66798842  1
  Cu+  Cu33  1  0.16743794  0.83332251  -0.00075787  1
  Cu+  Cu34  1  0.15919996  0.82934104  0.33321079  1
  Cu+  Cu35  1  0.16787963  0.83100057  0.66371401  1
  Cu+  Cu36  1  0.50425954  0.16466785  0.00072123  1
  Cu+  Cu37  1  0.49704354  0.16562533  0.33293119  1
  Cu+  Cu38  1  0.50016133  0.16909375  0.66818518  1
  Cu+  Cu39  1  0.50270716  0.50013009  0.00165266  1
  Cu+  Cu40  1  0.49877524  0.49268219  0.33369631  1
  Cu+  Cu41  1  0.49206095  0.50265992  0.66656500  1
  Cu+  Cu42  1  0.49131781  0.83387501  0.00068133  1
  Cu+  Cu43  1  0.50492351  0.83166751  0.33386677  1
  Cu+  Cu44  1  0.50652770  0.83085419  0.66859056  1
  Cu+  Cu45  1  0.83260425  0.16726730  -0.00280333  1
  Cu+  Cu46  1  0.83431218  0.16760615  0.33119794  1
  Cu+  Cu47  1  0.82946215  0.16340357  0.66681791  1
  Cu+  Cu48  1  0.83481990  0.49624836  0.00029846  1
  Cu+  Cu49  1  0.83054787  0.50002636  0.33261342  1
  Cu+  Cu50  1  0.83242629  0.49997661  0.66488104  1
  Cu+  Cu51  1  0.83148365  0.82846669  0.00027307  1
  Cu+  Cu52  1  0.83346123  0.84275255  0.33237505  1
  Cu+  Cu53  1  0.83674573  0.83779552  0.66437104  1
  Cu+  Cu54  1  0.16911852  0.00232363  0.16480284  1
  Cu+  Cu55  1  0.16938146  -0.00190948  0.50076828  1
  Cu+  Cu56  1  0.16922981  0.00142297  0.82878630  1
  Cu+  Cu57  1  0.16510568  0.33059076  0.16581982  1
  Cu+  Cu58  1  0.16595628  0.33262538  0.50034268  1
  Cu+  Cu59  1  0.16861722  0.33544729  0.83577834  1
  Cu+  Cu60  1  0.16734720  0.66808372  0.17220719  1
  Cu+  Cu61  1  0.16623852  0.66577984  0.50691757  1
  Cu+  Cu62  1  0.16286476  0.66479631  0.82869967  1
  Cu+  Cu63  1  0.49682506  0.00207368  0.16204337  1
  Cu+  Cu64  1  0.50049292  0.00064161  0.50149095  1
  Cu+  Cu65  1  0.50068051  -0.00109012  0.83529261  1
  Cu+  Cu66  1  0.49561792  0.33535470  0.16990231  1
  Cu+  Cu67  1  0.50003351  0.33505363  0.49798102  1
  Cu+  Cu68  1  0.50182760  0.33108947  0.83549315  1
  Cu+  Cu69  1  0.50018911  0.66487066  0.16703592  1
  Cu+  Cu70  1  0.50412416  0.67192847  0.49479902  1
  Cu+  Cu71  1  0.49986040  0.66899714  0.83311656  1
  Cu+  Cu72  1  0.83467636  -0.00064724  0.16654857  1
  Cu+  Cu73  1  0.82905693  0.00119630  0.50219880  1
  Cu+  Cu74  1  0.83283182  -0.00081529  0.83301261  1
  Cu+  Cu75  1  0.83343187  0.33249506  0.16097214  1
  Cu+  Cu76  1  0.83513997  0.33097511  0.49926689  1
  Cu+  Cu77  1  0.83237786  0.33227374  0.83173030  1
  Cu+  Cu78  1  0.83517238  0.66357971  0.16966796  1
  Cu+  Cu79  1  0.83087792  0.66490120  0.49809076  1
  Cu+  Cu80  1  0.83158836  0.66871134  0.83733575  1
  Cu+  Cu81  1  0.00269375  0.16675442  0.16562614  1
  Cu+  Cu82  1  0.00106082  0.16589063  0.50021214  1
  Cu+  Cu83  1  -0.00156186  0.16905308  0.83485253  1
  Cu+  Cu84  1  -0.00483340  0.49860100  0.16498879  1
  Cu+  Cu85  1  -0.00130615  0.49540582  0.49709949  1
  Cu+  Cu86  1  0.00031682  0.50190405  0.83365442  1
  Cu+  Cu87  1  -0.00040034  0.83212377  0.17260448  1
  Cu+  Cu88  1  0.00157191  0.83680638  0.49984522  1
  Cu+  Cu89  1  0.00057436  0.83514064  0.83118746  1
  Cu+  Cu90  1  0.33278915  0.16503849  0.17195396  1
  Cu+  Cu91  1  0.33367729  0.16797792  0.49921312  1
  Cu+  Cu92  1  0.33417867  0.16558521  0.83340784  1
  Cu+  Cu93  1  0.33265775  0.50126888  0.17256395  1
  Cu+  Cu94  1  0.33328325  0.50055575  0.50770130  1
  Cu+  Cu95  1  0.33670282  0.50247866  0.82976672  1
  Cu+  Cu96  1  0.33448053  0.83876375  0.16282665  1
  Cu+  Cu97  1  0.33564766  0.83701542  0.50237700  1
  Cu+  Cu98  1  0.33284682  0.82837683  0.83869799  1
  Cu+  Cu99  1  0.66572876  0.16667297  0.16128049  1
  Cu+  Cu100  1  0.66736468  0.16374347  0.50212455  1
  Cu+  Cu101  1  0.66659137  0.16841873  0.83405617  1
  Cu+  Cu102  1  0.66704646  0.49949660  0.16517087  1
  Cu+  Cu103  1  0.66500721  0.49863121  0.49523708  1
  Cu+  Cu104  1  0.66597261  0.50025501  0.83425300  1
  Cu+  Cu105  1  0.66579689  0.83310326  0.16529346  1
  Cu+  Cu106  1  0.66696698  0.83415510  0.49075084  1
  Cu+  Cu107  1  0.66903862  0.82634217  0.83468672  1
  Cu+  Cu108  1  0.92717201  0.40248820  0.07034975  1
  Cu+  Cu109  1  0.40796282  0.40276242  0.59624058  1
  Cu+  Cu110  1  0.40036050  0.40553340  0.25927114  1
  Cu+  Cu111  1  0.26489637  0.59901834  0.25871845  1
  Cu+  Cu112  1  0.07083780  0.73673171  0.25712315  1
  Cu+  Cu113  1  0.73648499  0.93191097  0.40397936  1
  Cu+  Cu114  1  0.41072515  0.59980581  0.74067328  1
  Cu+  Cu115  1  0.26391360  0.07673131  0.74331559  1
  Cu+  Cu116  1  0.26224702  0.59408344  0.59522631  1
  Cu+  Cu117  1  0.59619952  0.07284095  0.07339092  1
  Cu+  Cu118  1  0.06634540  0.58979335  0.74149628  1
  Cu+  Cu119  1  0.59571019  0.40217894  0.40644716  1
  Cu+  Cu120  1  0.08104142  0.93004664  0.40627178  1
  Cu+  Cu121  1  0.74025361  0.73711906  0.93169289  1
  Cu+  Cu122  1  0.26436234  0.92684817  0.59042924  1
  Cu+  Cu123  1  0.92249014  0.58649518  0.26252100  1
  Cu+  Cu124  1  0.40742944  0.06972400  0.26262603  1
  Cu+  Cu125  1  0.92719380  0.93047129  0.59453860  1
  Cu+  Cu126  1  0.06863262  0.74025263  0.59158533  1
  Cu+  Cu127  1  0.40251284  0.73568283  0.93096183  1
  Cu+  Cu128  1  0.92827895  0.93213077  0.25374714  1
  Cu+  Cu129  1  0.59810820  0.73863574  0.73986378  1
  Cu+  Cu130  1  0.40393735  0.93316026  0.06990727  1
  Cu+  Cu131  1  0.73554277  0.07379107  0.59820892  1
  Cu+  Cu132  1  0.59846801  0.73824765  0.40057791  1
  Te2-  Te133  1  0.25389604  0.25122050  0.08278537  1
  Te2-  Te134  1  0.25170850  0.25222921  0.41596592  1
  Te2-  Te135  1  0.25260768  0.25379164  0.74869347  1
  Te2-  Te136  1  0.25090538  0.58557149  0.08422777  1
  Te2-  Te137  1  0.25468691  0.58907880  0.41702728  1
  Te2-  Te138  1  0.25828398  0.59235996  0.74633779  1
  Te2-  Te139  1  0.25073411  0.92104526  0.07813567  1
  Te2-  Te140  1  0.25161073  0.91554613  0.41149757  1
  Te2-  Te141  1  0.25729906  0.91683456  0.74616711  1
  Te2-  Te142  1  0.58231512  0.25697992  0.08214502  1
  Te2-  Te143  1  0.58718068  0.24970656  0.41281471  1
  Te2-  Te144  1  0.58590755  0.25238431  0.74862775  1
  Te2-  Te145  1  0.58579944  0.58538447  0.08247772  1
  Te2-  Te146  1  0.58502963  0.58565719  0.40967381  1
  Te2-  Te147  1  0.58723819  0.58562585  0.74504439  1
  Te2-  Te148  1  0.58613563  0.91779598  0.07738016  1
  Te2-  Te149  1  0.58445155  0.92563854  0.41093500  1
  Te2-  Te150  1  0.58811844  0.91743255  0.75230304  1
  Te2-  Te151  1  0.92157655  0.24974095  0.07761789  1
  Te2-  Te152  1  0.92003863  0.25016870  0.41421771  1
  Te2-  Te153  1  0.91676623  0.25080450  0.74537808  1
  Te2-  Te154  1  0.91803431  0.58695658  0.07841795  1
  Te2-  Te155  1  0.91930223  0.58503654  0.41496301  1
  Te2-  Te156  1  0.91527111  0.58830864  0.74713669  1
  Te2-  Te157  1  0.91883985  0.91415865  0.08088064  1
  Te2-  Te158  1  0.92326973  0.92659110  0.41219103  1
  Te2-  Te159  1  0.92080388  0.92205203  0.74783778  1
  Te2-  Te160  1  0.25266027  0.07746743  0.25628475  1
  Te2-  Te161  1  0.25840515  0.07850853  0.58775708  1
  Te2-  Te162  1  0.25098498  0.08156904  0.92002505  1
  Te2-  Te163  1  0.24870475  0.41050319  0.25448737  1
  Te2-  Te164  1  0.24996913  0.41240714  0.59011079  1
  Te2-  Te165  1  0.25623555  0.41721269  0.91833619  1
  Te2-  Te166  1  0.25743545  0.75211275  0.25542892  1
  Te2-  Te167  1  0.25802556  0.74703123  0.58693635  1
  Te2-  Te168  1  0.24788850  0.74246059  0.91985803  1
  Te2-  Te169  1  0.58470341  0.08154324  0.25030547  1
  Te2-  Te170  1  0.58366804  0.08043329  0.58867350  1
  Te2-  Te171  1  0.58898501  0.07844724  0.91882286  1
  Te2-  Te172  1  0.58953475  0.41167806  0.25188553  1
  Te2-  Te173  1  0.58297997  0.41816430  0.58668122  1
  Te2-  Te174  1  0.58502980  0.41501802  0.91894453  1
  Te2-  Te175  1  0.58680614  0.74635501  0.24926689  1
  Te2-  Te176  1  0.59178575  0.74742377  0.58389374  1
  Te2-  Te177  1  0.58501003  0.74555482  0.92601718  1
  Te2-  Te178  1  0.92116415  0.08306155  0.25171742  1
  Te2-  Te179  1  0.92127330  0.08091680  0.58730364  1
  Te2-  Te180  1  0.91818255  0.08049445  0.91818609  1
  Te2-  Te181  1  0.91628547  0.41158626  0.25264810  1
  Te2-  Te182  1  0.91796879  0.41353601  0.58496336  1
  Te2-  Te183  1  0.92146475  0.41217006  0.91615868  1
  Te2-  Te184  1  0.91796347  0.74475214  0.25981524  1
  Te2-  Te185  1  0.91650080  0.74656034  0.58315366  1
  Te2-  Te186  1  0.92234693  0.74919970  0.91811222  1
  Te2-  Te187  1  0.08146974  0.25102333  0.25338846  1
  Te2-  Te188  1  0.08303759  0.24963215  0.58708756  1
  Te2-  Te189  1  0.08064027  0.25509256  0.91907228  1
  Te2-  Te190  1  0.07568692  0.58529328  0.25660161  1
  Te2-  Te191  1  0.07242247  0.58507596  0.58662638  1
  Te2-  Te192  1  0.08243746  0.58575359  0.92082848  1
  Te2-  Te193  1  0.08087464  0.92643541  0.25329799  1
  Te2-  Te194  1  0.08074929  0.92221236  0.59000331  1
  Te2-  Te195  1  0.08443925  0.91888410  0.91536490  1
  Te2-  Te196  1  0.41114032  0.25402321  0.25596547  1
  Te2-  Te197  1  0.41398299  0.25224879  0.58605828  1
  Te2-  Te198  1  0.41549044  0.24994892  0.92037304  1
  Te2-  Te199  1  0.41624059  0.58898279  0.25834864  1
  Te2-  Te200  1  0.41543705  0.59657223  0.58407493  1
  Te2-  Te201  1  0.41454547  0.58484187  0.92232842  1
  Te2-  Te202  1  0.41513856  0.91809527  0.25579782  1
  Te2-  Te203  1  0.41933626  0.91954751  0.59035831  1
  Te2-  Te204  1  0.41022667  0.92239845  0.91768848  1
  Te2-  Te205  1  0.74788679  0.25126836  0.24790262  1
  Te2-  Te206  1  0.74821103  0.25225110  0.58445343  1
  Te2-  Te207  1  0.74751318  0.25326240  0.91838089  1
  Te2-  Te208  1  0.74476991  0.58496422  0.25187243  1
  Te2-  Te209  1  0.74518994  0.58378613  0.58268315  1
  Te2-  Te210  1  0.74649776  0.58404889  0.92204839  1
  Te2-  Te211  1  0.74289716  0.92183280  0.24942069  1
  Te2-  Te212  1  0.74229754  0.91734364  0.58615313  1
  Te2-  Te213  1  0.74796454  0.91710050  0.91875169  1
  Te2-  Te214  1  0.08218207  0.08118304  0.08001113  1
  Te2-  Te215  1  0.08207274  0.08112377  0.41434991  1
  Te2-  Te216  1  0.07764574  0.08181465  0.74887655  1
  Te2-  Te217  1  0.08136074  0.41390385  0.08071287  1
  Te2-  Te218  1  0.08488559  0.41573383  0.41339444  1
  Te2-  Te219  1  0.08380566  0.41622120  0.74749351  1
  Te2-  Te220  1  0.08203684  0.74925426  0.08348261  1
  Te2-  Te221  1  0.07763392  0.74122180  0.41618039  1
  Te2-  Te222  1  0.07705092  0.74704368  0.74424638  1
  Te2-  Te223  1  0.40850474  0.08441022  0.07648877  1
  Te2-  Te224  1  0.41303360  0.07912922  0.41649190  1
  Te2-  Te225  1  0.41677881  0.07855468  0.74646661  1
  Te2-  Te226  1  0.41281706  0.41763415  0.08192667  1
  Te2-  Te227  1  0.40689958  0.41341525  0.41531475  1
  Te2-  Te228  1  0.41406577  0.40944276  0.74940021  1
  Te2-  Te229  1  0.41101646  0.74324463  0.08392804  1
  Te2-  Te230  1  0.41306662  0.75201165  0.41449144  1
  Te2-  Te231  1  0.41196292  0.75032636  0.74464113  1
  Te2-  Te232  1  0.74951034  0.07774556  0.07757180  1
  Te2-  Te233  1  0.74579579  0.08209731  0.40898041  1
  Te2-  Te234  1  0.74357933  0.07775090  0.74963181  1
  Te2-  Te235  1  0.74425875  0.41284016  0.07838286  1
  Te2-  Te236  1  0.74815842  0.40981726  0.41145189  1
  Te2-  Te237  1  0.74770544  0.41605029  0.74833675  1
  Te2-  Te238  1  0.74674652  0.74339229  0.08452602  1
  Te2-  Te239  1  0.75128720  0.74686202  0.40880748  1
  Te2-  Te240  1  0.75105514  0.74570970  0.74105676  1
