# generated using pymatgen
data_Ti27(Cu53Te54)2
_symmetry_space_group_name_H-M   'P 1'
_cell_length_a   17.92438387
_cell_length_b   17.92276702
_cell_length_c   17.92707070
_cell_angle_alpha   90.04140256
_cell_angle_beta   90.01624553
_cell_angle_gamma   90.00478441
_symmetry_Int_Tables_number   1
_chemical_formula_structural   Ti27(Cu53Te54)2
_chemical_formula_sum   'Ti27 Cu106 Te108'
_cell_volume   5759.15138369
_cell_formula_units_Z   1
loop_
 _symmetry_equiv_pos_site_id
 _symmetry_equiv_pos_as_xyz
  1  'x, y, z'
loop_
 _atom_type_symbol
 _atom_type_oxidation_number
  Ti4+  4.0
  Cu+  1.0
  Te2-  -2.0
loop_
 _atom_site_type_symbol
 _atom_site_label
 _atom_site_symmetry_multiplicity
 _atom_site_fract_x
 _atom_site_fract_y
 _atom_site_fract_z
 _atom_site_occupancy
  Ti4+  Ti0  1  0.16857075  0.17076512  0.16643334  1
  Ti4+  Ti1  1  0.16611048  0.16528025  0.50132941  1
  Ti4+  Ti2  1  0.16831572  0.16674527  0.83141381  1
  Ti4+  Ti3  1  0.16740509  0.50140314  0.17197034  1
  Ti4+  Ti4  1  0.16441428  0.49899598  0.49732599  1
  Ti4+  Ti5  1  0.16558976  0.50121765  0.83385139  1
  Ti4+  Ti6  1  0.16608392  0.83685219  0.16667022  1
  Ti4+  Ti7  1  0.16483762  0.83893037  0.49725678  1
  Ti4+  Ti8  1  0.16759551  0.83201032  0.83251563  1
  Ti4+  Ti9  1  0.50373737  0.16647082  0.17012625  1
  Ti4+  Ti10  1  0.50253308  0.16298742  0.50260604  1
  Ti4+  Ti11  1  0.50080559  0.16592563  0.83495939  1
  Ti4+  Ti12  1  0.49768064  0.49887458  0.16535306  1
  Ti4+  Ti13  1  0.50004322  0.49979470  0.49720200  1
  Ti4+  Ti14  1  0.49642965  0.49816458  0.83002775  1
  Ti4+  Ti15  1  0.50055830  0.83338781  0.16825851  1
  Ti4+  Ti16  1  0.49495834  0.83053490  0.49974506  1
  Ti4+  Ti17  1  0.50031215  0.83071269  0.83574503  1
  Ti4+  Ti18  1  0.83581275  0.16827832  0.16467085  1
  Ti4+  Ti19  1  0.83220698  0.16791453  0.50384781  1
  Ti4+  Ti20  1  0.83646392  0.16621746  0.83313239  1
  Ti4+  Ti21  1  0.83438473  0.50172240  0.16286365  1
  Ti4+  Ti22  1  0.83432108  0.49978848  0.50028807  1
  Ti4+  Ti23  1  0.83286202  0.49998059  0.82840085  1
  Ti4+  Ti24  1  0.83567743  0.83241089  0.17059961  1
  Ti4+  Ti25  1  0.83012767  0.83755765  0.50057279  1
  Ti4+  Ti26  1  0.83529928  0.83048806  0.83439104  1
  Cu+  Cu27  1  0.17069761  0.17055906  -0.00343913  1
  Cu+  Cu28  1  0.16626283  0.17038388  0.33475855  1
  Cu+  Cu29  1  0.16495433  0.16098561  0.66598016  1
  Cu+  Cu30  1  0.16843915  0.50160884  0.00598528  1
  Cu+  Cu31  1  0.16123664  0.49595619  0.33299031  1
  Cu+  Cu32  1  0.16413237  0.50112894  0.66465993  1
  Cu+  Cu33  1  0.16931620  0.83474228  -0.00178766  1
  Cu+  Cu34  1  0.15980394  0.84110580  0.33153453  1
  Cu+  Cu35  1  0.17064420  0.83402844  0.66524022  1
  Cu+  Cu36  1  0.50246355  0.16816564  0.00251814  1
  Cu+  Cu37  1  0.50684633  0.16331509  0.33752052  1
  Cu+  Cu38  1  0.49901168  0.16417934  0.66894641  1
  Cu+  Cu39  1  0.49742794  0.49879857  -0.00475422  1
  Cu+  Cu40  1  0.49921726  0.49647405  0.33103000  1
  Cu+  Cu41  1  0.49664141  0.50179018  0.66302054  1
  Cu+  Cu42  1  0.50316785  0.83317069  0.00155270  1
  Cu+  Cu43  1  0.49239962  0.82586776  0.33105016  1
  Cu+  Cu44  1  0.49944850  0.83087933  0.67086890  1
  Cu+  Cu45  1  0.83658975  0.16535055  -0.00123884  1
  Cu+  Cu46  1  0.83259401  0.16623406  0.32890695  1
  Cu+  Cu47  1  0.83178750  0.17205924  0.67019978  1
  Cu+  Cu48  1  0.83505092  0.50348622  -0.00659919  1
  Cu+  Cu49  1  0.83307027  0.50133506  0.33179749  1
  Cu+  Cu50  1  0.83038540  0.49562193  0.66190613  1
  Cu+  Cu51  1  0.83608031  0.82932570  0.00407874  1
  Cu+  Cu52  1  0.83642765  0.83309478  0.34042403  1
  Cu+  Cu53  1  0.83108920  0.83398778  0.66878739  1
  Cu+  Cu54  1  0.17070702  0.00523315  0.16383217  1
  Cu+  Cu55  1  0.16223121  -0.00010627  0.50373316  1
  Cu+  Cu56  1  0.16934635  -0.00108526  0.83322813  1
  Cu+  Cu57  1  0.16964187  0.33737548  0.16856688  1
  Cu+  Cu58  1  0.16347551  0.33037492  0.49503228  1
  Cu+  Cu59  1  0.17042223  0.33573289  0.82998534  1
  Cu+  Cu60  1  0.16442369  0.66938962  0.17185974  1
  Cu+  Cu61  1  0.16795186  0.66626798  0.49646504  1
  Cu+  Cu62  1  0.16301608  0.66518251  0.83139397  1
  Cu+  Cu63  1  0.50518095  0.00032691  0.16780711  1
  Cu+  Cu64  1  0.49998951  -0.00642227  0.50271389  1
  Cu+  Cu65  1  0.50211724  -0.00110348  0.83700404  1
  Cu+  Cu66  1  0.49668774  0.33121589  0.16821311  1
  Cu+  Cu67  1  0.50261843  0.33040905  0.49948233  1
  Cu+  Cu68  1  0.49494035  0.33175407  0.82892659  1
  Cu+  Cu69  1  0.49720297  0.66574760  0.16708074  1
  Cu+  Cu70  1  0.49980349  0.66647314  0.49324812  1
  Cu+  Cu71  1  0.49971559  0.66481571  0.83478425  1
  Cu+  Cu72  1  0.83353200  0.00189510  0.17051046  1
  Cu+  Cu73  1  0.82648854  0.00399325  0.50561173  1
  Cu+  Cu74  1  0.83682978  -0.00372944  0.83581770  1
  Cu+  Cu75  1  0.83411915  0.33377303  0.15851160  1
  Cu+  Cu76  1  0.83552859  0.33405338  0.50663235  1
  Cu+  Cu77  1  0.83303394  0.33314952  0.82845375  1
  Cu+  Cu78  1  0.83987269  0.66730322  0.16713018  1
  Cu+  Cu79  1  0.83227530  0.66881997  0.50004659  1
  Cu+  Cu80  1  0.83579419  0.66395430  0.83376541  1
  Cu+  Cu81  1  0.00041319  0.16917922  0.16247433  1
  Cu+  Cu82  1  -0.00054198  0.16849423  0.50500879  1
  Cu+  Cu83  1  0.00301179  0.16536719  0.83398193  1
  Cu+  Cu84  1  -0.00250895  0.50529459  0.17192503  1
  Cu+  Cu85  1  0.00059423  0.50075229  0.49815467  1
  Cu+  Cu86  1  0.00098254  0.50646887  0.83001636  1
  Cu+  Cu87  1  0.00208714  0.83013782  0.16919515  1
  Cu+  Cu88  1  -0.00159501  0.84151135  0.49478288  1
  Cu+  Cu89  1  0.00263105  0.83199033  0.83280493  1
  Cu+  Cu90  1  0.33707835  0.17174458  0.16718200  1
  Cu+  Cu91  1  0.33447216  0.16243347  0.50140039  1
  Cu+  Cu92  1  0.33492878  0.16832702  0.83071509  1
  Cu+  Cu93  1  0.33320611  0.49450991  0.16911541  1
  Cu+  Cu94  1  0.33173709  0.49946267  0.49650333  1
  Cu+  Cu95  1  0.33012786  0.49595376  0.83012685  1
  Cu+  Cu96  1  0.33280820  0.83373152  0.16878270  1
  Cu+  Cu97  1  0.33097299  0.84342916  0.49557760  1
  Cu+  Cu98  1  0.33539328  0.83127348  0.83608676  1
  Cu+  Cu99  1  0.67168551  0.16399867  0.16975515  1
  Cu+  Cu100  1  0.66655791  0.16110576  0.50567962  1
  Cu+  Cu101  1  0.66765209  0.16766004  0.83371997  1
  Cu+  Cu102  1  0.66609464  0.50166160  0.16001058  1
  Cu+  Cu103  1  0.66739971  0.49994666  0.49876506  1
  Cu+  Cu104  1  0.66154797  0.49760584  0.82895465  1
  Cu+  Cu105  1  0.66775694  0.83508718  0.17086027  1
  Cu+  Cu106  1  0.65900344  0.83359875  0.50194437  1
  Cu+  Cu107  1  0.66892207  0.82943700  0.83642632  1
  Cu+  Cu108  1  0.41310435  0.92804841  0.40168895  1
  Cu+  Cu109  1  0.06786854  0.40470778  0.25171857  1
  Cu+  Cu110  1  0.25457060  0.41130799  0.73362664  1
  Cu+  Cu111  1  0.07338352  0.59477943  0.73459897  1
  Cu+  Cu112  1  0.06762874  0.93071284  0.40125753  1
  Cu+  Cu113  1  0.92884175  0.59197855  0.92143859  1
  Cu+  Cu114  1  0.07030539  0.07200220  0.59627230  1
  Cu+  Cu115  1  0.74072618  0.07543759  0.60176035  1
  Cu+  Cu116  1  0.06959072  0.25625593  0.40672534  1
  Cu+  Cu117  1  0.40553355  0.25496716  0.73669095  1
  Cu+  Cu118  1  0.92118762  0.59112706  0.26245111  1
  Cu+  Cu119  1  0.07679617  0.74335719  0.26127078  1
  Cu+  Cu120  1  0.73423509  0.40990962  0.58851677  1
  Cu+  Cu121  1  0.73730092  0.26091797  0.74778265  1
  Cu+  Cu122  1  0.41118327  0.25620754  0.07322118  1
  Cu+  Cu123  1  0.92890048  0.26271947  0.59744704  1
  Cu+  Cu124  1  0.40999783  0.40150617  0.26356963  1
  Cu+  Cu125  1  0.74216815  0.07120878  0.25971071  1
  Cu+  Cu126  1  0.58869431  0.91821138  0.59964636  1
  Cu+  Cu127  1  0.93178135  0.74461978  0.07307905  1
  Cu+  Cu128  1  0.92914712  0.73856350  0.42340982  1
  Cu+  Cu129  1  0.40290406  0.73608538  0.25395557  1
  Cu+  Cu130  1  0.59115036  0.74223238  0.40448807  1
  Cu+  Cu131  1  0.25835120  0.41008846  0.07381095  1
  Cu+  Cu132  1  0.25891281  0.92639211  0.59722842  1
  Te2-  Te133  1  0.25474936  0.25660795  0.07894220  1
  Te2-  Te134  1  0.25533203  0.24929692  0.41737394  1
  Te2-  Te135  1  0.25296000  0.25295783  0.74078200  1
  Te2-  Te136  1  0.25256423  0.58856890  0.08829911  1
  Te2-  Te137  1  0.24903609  0.58264039  0.41108976  1
  Te2-  Te138  1  0.25143391  0.58595501  0.74665226  1
  Te2-  Te139  1  0.25339659  0.91875484  0.08181521  1
  Te2-  Te140  1  0.24879583  0.92689304  0.40911143  1
  Te2-  Te141  1  0.25643812  0.91837287  0.74976190  1
  Te2-  Te142  1  0.58927163  0.25178621  0.08599987  1
  Te2-  Te143  1  0.58920913  0.24795948  0.41970403  1
  Te2-  Te144  1  0.58524577  0.25217376  0.74630920  1
  Te2-  Te145  1  0.57975990  0.58488674  0.07878858  1
  Te2-  Te146  1  0.58734627  0.58294066  0.40985123  1
  Te2-  Te147  1  0.58129854  0.58436635  0.74602493  1
  Te2-  Te148  1  0.58765061  0.91728560  0.08351930  1
  Te2-  Te149  1  0.58050271  0.91509482  0.40982341  1
  Te2-  Te150  1  0.58824780  0.91737562  0.75193509  1
  Te2-  Te151  1  0.92061130  0.25304160  0.07674533  1
  Te2-  Te152  1  0.91587107  0.25216988  0.41398969  1
  Te2-  Te153  1  0.92528038  0.25364709  0.74906486  1
  Te2-  Te154  1  0.92368419  0.58768337  0.07602049  1
  Te2-  Te155  1  0.92111182  0.58740468  0.41412037  1
  Te2-  Te156  1  0.91676162  0.58624842  0.73945590  1
  Te2-  Te157  1  0.91960977  0.91851134  0.08579599  1
  Te2-  Te158  1  0.91348446  0.92996645  0.41555080  1
  Te2-  Te159  1  0.91959455  0.91600799  0.74859837  1
  Te2-  Te160  1  0.25286128  0.08726779  0.25159370  1
  Te2-  Te161  1  0.25475135  0.07889312  0.58709558  1
  Te2-  Te162  1  0.25432269  0.08312191  0.91635498  1
  Te2-  Te163  1  0.25442738  0.41242813  0.25939074  1
  Te2-  Te164  1  0.24978933  0.41283207  0.58086030  1
  Te2-  Te165  1  0.25135210  0.41477353  0.92132130  1
  Te2-  Te166  1  0.24994643  0.75146421  0.25701317  1
  Te2-  Te167  1  0.25226419  0.75098222  0.57825497  1
  Te2-  Te168  1  0.25075564  0.74540569  0.91735148  1
  Te2-  Te169  1  0.58943024  0.07843140  0.25524069  1
  Te2-  Te170  1  0.58547316  0.07486212  0.59196927  1
  Te2-  Te171  1  0.58718608  0.08334959  0.92042204  1
  Te2-  Te172  1  0.58720136  0.41527309  0.24767063  1
  Te2-  Te173  1  0.58337516  0.41439955  0.58562550  1
  Te2-  Te174  1  0.58149126  0.41229675  0.91462255  1
  Te2-  Te175  1  0.58778901  0.74455073  0.25182466  1
  Te2-  Te176  1  0.58095716  0.74439819  0.58627962  1
  Te2-  Te177  1  0.58564853  0.74520286  0.92031046  1
  Te2-  Te178  1  0.92343897  0.08383647  0.25080477  1
  Te2-  Te179  1  0.91733493  0.08031557  0.59091065  1
  Te2-  Te180  1  0.92101312  0.08060014  0.91787111  1
  Te2-  Te181  1  0.91552931  0.41147792  0.25104465  1
  Te2-  Te182  1  0.92518248  0.41636302  0.58696526  1
  Te2-  Te183  1  0.91933577  0.41521956  0.91261425  1
  Te2-  Te184  1  0.92280302  0.74557715  0.26210589  1
  Te2-  Te185  1  0.91830453  0.75347098  0.58382155  1
  Te2-  Te186  1  0.92465828  0.74481015  0.92036845  1
  Te2-  Te187  1  0.07803400  0.25430524  0.25219305  1
  Te2-  Te188  1  0.08309695  0.25476752  0.59010297  1
  Te2-  Te189  1  0.08485962  0.25433315  0.91505837  1
  Te2-  Te190  1  0.07850620  0.59006177  0.25885910  1
  Te2-  Te191  1  0.08048391  0.58823696  0.58163002  1
  Te2-  Te192  1  0.08285123  0.58677073  0.92454007  1
  Te2-  Te193  1  0.07795430  0.92831149  0.24739940  1
  Te2-  Te194  1  0.07632751  0.91796201  0.59009222  1
  Te2-  Te195  1  0.08322066  0.91809393  0.91737843  1
  Te2-  Te196  1  0.41709620  0.24917356  0.26100456  1
  Te2-  Te197  1  0.41493486  0.25059980  0.58426282  1
  Te2-  Te198  1  0.41386102  0.25242377  0.92015934  1
  Te2-  Te199  1  0.41170384  0.58421726  0.25349055  1
  Te2-  Te200  1  0.41371972  0.58571391  0.57932440  1
  Te2-  Te201  1  0.41087575  0.58243380  0.91508761  1
  Te2-  Te202  1  0.41355842  0.92343469  0.25076302  1
  Te2-  Te203  1  0.41262623  0.91834248  0.59159104  1
  Te2-  Te204  1  0.41609526  0.91731596  0.92098033  1
  Te2-  Te205  1  0.75087028  0.25673073  0.24910681  1
  Te2-  Te206  1  0.74143161  0.25527881  0.58892863  1
  Te2-  Te207  1  0.75114782  0.25238351  0.91864470  1
  Te2-  Te208  1  0.74763921  0.58557660  0.24808535  1
  Te2-  Te209  1  0.74844615  0.58758782  0.58362704  1
  Te2-  Te210  1  0.74423134  0.58292836  0.91275938  1
  Te2-  Te211  1  0.74986615  0.91754732  0.25727099  1
  Te2-  Te212  1  0.74246283  0.91941150  0.59083178  1
  Te2-  Te213  1  0.75185047  0.91428103  0.92161411  1
  Te2-  Te214  1  0.08572942  0.08660104  0.07905274  1
  Te2-  Te215  1  0.07800224  0.08237220  0.41305921  1
  Te2-  Te216  1  0.08065194  0.07731142  0.74970499  1
  Te2-  Te217  1  0.07885225  0.41822516  0.08622450  1
  Te2-  Te218  1  0.07416098  0.41119422  0.41156380  1
  Te2-  Te219  1  0.07969974  0.41509704  0.74799564  1
  Te2-  Te220  1  0.08432497  0.74752441  0.07843078  1
  Te2-  Te221  1  0.07958973  0.74624078  0.41334347  1
  Te2-  Te222  1  0.08141866  0.74852374  0.74286418  1
  Te2-  Te223  1  0.41763260  0.08166340  0.08439944  1
  Te2-  Te224  1  0.41650826  0.07921617  0.41512714  1
  Te2-  Te225  1  0.41613774  0.07788820  0.75059715  1
  Te2-  Te226  1  0.41255507  0.41153670  0.07553965  1
  Te2-  Te227  1  0.41425858  0.41055282  0.41534969  1
  Te2-  Te228  1  0.40958111  0.41158606  0.73953750  1
  Te2-  Te229  1  0.41410215  0.74958442  0.08179566  1
  Te2-  Te230  1  0.40410012  0.74428023  0.41463042  1
  Te2-  Te231  1  0.41428847  0.74574682  0.74991887  1
  Te2-  Te232  1  0.75069239  0.08072750  0.07961335  1
  Te2-  Te233  1  0.74737863  0.08308057  0.41398589  1
  Te2-  Te234  1  0.74865110  0.07722029  0.75152061  1
  Te2-  Te235  1  0.75026820  0.41847137  0.07554610  1
  Te2-  Te236  1  0.75122684  0.41356424  0.41412521  1
  Te2-  Te237  1  0.74260283  0.41280215  0.74363560  1
  Te2-  Te238  1  0.74854210  0.74743307  0.08712840  1
  Te2-  Te239  1  0.74391039  0.74960952  0.41604636  1
  Te2-  Te240  1  0.74972490  0.74553923  0.74962940  1
