# generated using pymatgen
data_Ti27(Cu53Te54)2
_symmetry_space_group_name_H-M   'P 1'
_cell_length_a   17.89615387
_cell_length_b   17.89910405
_cell_length_c   17.90533604
_cell_angle_alpha   89.94541412
_cell_angle_beta   89.97435151
_cell_angle_gamma   90.01016051
_symmetry_Int_Tables_number   1
_chemical_formula_structural   Ti27(Cu53Te54)2
_chemical_formula_sum   'Ti27 Cu106 Te108'
_cell_volume   5735.52565153
_cell_formula_units_Z   1
loop_
 _symmetry_equiv_pos_site_id
 _symmetry_equiv_pos_as_xyz
  1  'x, y, z'
loop_
 _atom_type_symbol
 _atom_type_oxidation_number
  Ti4+  4.0
  Cu+  1.0
  Te2-  -2.0
loop_
 _atom_site_type_symbol
 _atom_site_label
 _atom_site_symmetry_multiplicity
 _atom_site_fract_x
 _atom_site_fract_y
 _atom_site_fract_z
 _atom_site_occupancy
  Ti4+  Ti0  1  0.16721686  0.16489611  0.16839932  1
  Ti4+  Ti1  1  0.16806485  0.16727778  0.50079784  1
  Ti4+  Ti2  1  0.16891670  0.16385829  0.83382405  1
  Ti4+  Ti3  1  0.16541445  0.49994402  0.16283635  1
  Ti4+  Ti4  1  0.16367552  0.50053060  0.49709446  1
  Ti4+  Ti5  1  0.16704726  0.49797546  0.83163640  1
  Ti4+  Ti6  1  0.16420220  0.83366299  0.16429870  1
  Ti4+  Ti7  1  0.16598907  0.83510050  0.50108827  1
  Ti4+  Ti8  1  0.16991345  0.83240636  0.82919475  1
  Ti4+  Ti9  1  0.49978994  0.16990210  0.16686763  1
  Ti4+  Ti10  1  0.49905893  0.16615338  0.50322560  1
  Ti4+  Ti11  1  0.50113379  0.16614997  0.83288777  1
  Ti4+  Ti12  1  0.49943254  0.50231755  0.16830569  1
  Ti4+  Ti13  1  0.49701023  0.50192087  0.49854720  1
  Ti4+  Ti14  1  0.50122728  0.50098610  0.83372910  1
  Ti4+  Ti15  1  0.49815481  0.83144412  0.16900483  1
  Ti4+  Ti16  1  0.50097708  0.83464869  0.49461675  1
  Ti4+  Ti17  1  0.49937140  0.83175941  0.83445262  1
  Ti4+  Ti18  1  0.83284697  0.16764970  0.16560667  1
  Ti4+  Ti19  1  0.83078627  0.16622418  0.50272912  1
  Ti4+  Ti20  1  0.83238086  0.16583494  0.83292089  1
  Ti4+  Ti21  1  0.83565050  0.49855670  0.16686310  1
  Ti4+  Ti22  1  0.83524513  0.49616984  0.50484497  1
  Ti4+  Ti23  1  0.83355956  0.50348429  0.83627671  1
  Ti4+  Ti24  1  0.83356447  0.83409826  0.16656929  1
  Ti4+  Ti25  1  0.83137036  0.83041415  0.50211108  1
  Ti4+  Ti26  1  0.83359663  0.83310186  0.83191387  1
  Cu+  Cu27  1  0.16729875  0.16302375  0.00303846  1
  Cu+  Cu28  1  0.16720999  0.16658915  0.33531262  1
  Cu+  Cu29  1  0.17223394  0.16303743  0.66927940  1
  Cu+  Cu30  1  0.16722367  0.49862164  -0.00356903  1
  Cu+  Cu31  1  0.16239498  0.49951905  0.32572561  1
  Cu+  Cu32  1  0.16275754  0.50225550  0.66595350  1
  Cu+  Cu33  1  0.16927165  0.83434300  -0.00622092  1
  Cu+  Cu34  1  0.16553984  0.83602585  0.33234442  1
  Cu+  Cu35  1  0.16489129  0.83751579  0.66753259  1
  Cu+  Cu36  1  0.49989296  0.16763050  -0.00163384  1
  Cu+  Cu37  1  0.49644278  0.16997247  0.33592852  1
  Cu+  Cu38  1  0.50254828  0.16956292  0.66723496  1
  Cu+  Cu39  1  0.50480782  0.50140875  0.00023035  1
  Cu+  Cu40  1  0.49609863  0.50800331  0.33500575  1
  Cu+  Cu41  1  0.49876162  0.50114227  0.66639383  1
  Cu+  Cu42  1  0.49591753  0.82970978  0.00572748  1
  Cu+  Cu43  1  0.50365781  0.83773297  0.32756309  1
  Cu+  Cu44  1  0.49874731  0.83102956  0.66371732  1
  Cu+  Cu45  1  0.83217398  0.16687163  -0.00167151  1
  Cu+  Cu46  1  0.83073375  0.16761297  0.32837052  1
  Cu+  Cu47  1  0.82911017  0.16518047  0.66515578  1
  Cu+  Cu48  1  0.83590431  0.49823245  0.00314206  1
  Cu+  Cu49  1  0.83534268  0.49779831  0.33827908  1
  Cu+  Cu50  1  0.83354512  0.50019712  0.67541961  1
  Cu+  Cu51  1  0.83508759  0.83150339  -0.00011566  1
  Cu+  Cu52  1  0.83020101  0.83160241  0.33619000  1
  Cu+  Cu53  1  0.83642783  0.83320619  0.66394143  1
  Cu+  Cu54  1  0.16844424  -0.00189672  0.17039358  1
  Cu+  Cu55  1  0.16764865  0.00247676  0.49978829  1
  Cu+  Cu56  1  0.17602531  -0.00083935  0.82738833  1
  Cu+  Cu57  1  0.16534974  0.33097299  0.16668250  1
  Cu+  Cu58  1  0.16598142  0.33504996  0.50109803  1
  Cu+  Cu59  1  0.16763052  0.32845576  0.83605962  1
  Cu+  Cu60  1  0.16357501  0.66612673  0.16019261  1
  Cu+  Cu61  1  0.16547436  0.66994389  0.49877537  1
  Cu+  Cu62  1  0.16566179  0.66262207  0.82833972  1
  Cu+  Cu63  1  0.49723286  0.00100349  0.16733648  1
  Cu+  Cu64  1  0.50555722  0.00355689  0.49322930  1
  Cu+  Cu65  1  0.50113030  -0.00170929  0.83447894  1
  Cu+  Cu66  1  0.50311956  0.33853078  0.16648257  1
  Cu+  Cu67  1  0.49700563  0.33103807  0.50033403  1
  Cu+  Cu68  1  0.49977761  0.33357377  0.83329759  1
  Cu+  Cu69  1  0.49919031  0.66573661  0.17274386  1
  Cu+  Cu70  1  0.49259694  0.66933622  0.49595449  1
  Cu+  Cu71  1  0.50201800  0.66565736  0.83682717  1
  Cu+  Cu72  1  0.83255835  0.00304435  0.16505758  1
  Cu+  Cu73  1  0.82587344  -0.00277965  0.50647928  1
  Cu+  Cu74  1  0.83299030  -0.00062738  0.83340357  1
  Cu+  Cu75  1  0.83613161  0.33248408  0.16270391  1
  Cu+  Cu76  1  0.83826167  0.33120533  0.50243189  1
  Cu+  Cu77  1  0.83264060  0.33515202  0.83456469  1
  Cu+  Cu78  1  0.83587825  0.66977070  0.16612471  1
  Cu+  Cu79  1  0.83476408  0.66343791  0.50381638  1
  Cu+  Cu80  1  0.82924805  0.66739540  0.83305138  1
  Cu+  Cu81  1  -0.00017106  0.16568385  0.16632390  1
  Cu+  Cu82  1  0.00028213  0.16820358  0.50150417  1
  Cu+  Cu83  1  0.00090774  0.16461829  0.83503208  1
  Cu+  Cu84  1  0.00276859  0.49382944  0.16491335  1
  Cu+  Cu85  1  0.00043350  0.49092044  0.50309399  1
  Cu+  Cu86  1  0.00238339  0.50142489  0.82907646  1
  Cu+  Cu87  1  -0.00282081  0.83086315  0.16226237  1
  Cu+  Cu88  1  -0.00216855  0.83500905  0.50369317  1
  Cu+  Cu89  1  0.00192542  0.83217484  0.82930907  1
  Cu+  Cu90  1  0.33379640  0.16675952  0.16897323  1
  Cu+  Cu91  1  0.33553328  0.17124494  0.49931941  1
  Cu+  Cu92  1  0.33523907  0.16204774  0.83119234  1
  Cu+  Cu93  1  0.32981233  0.50028896  0.16244425  1
  Cu+  Cu94  1  0.33093395  0.50581195  0.49347793  1
  Cu+  Cu95  1  0.33417700  0.49780683  0.83345152  1
  Cu+  Cu96  1  0.32951101  0.83314874  0.16933031  1
  Cu+  Cu97  1  0.33571452  0.83064459  0.50143326  1
  Cu+  Cu98  1  0.33382077  0.83309519  0.83629704  1
  Cu+  Cu99  1  0.66953567  0.17023687  0.16519607  1
  Cu+  Cu100  1  0.66421088  0.16232923  0.50936533  1
  Cu+  Cu101  1  0.66589018  0.16639763  0.83320977  1
  Cu+  Cu102  1  0.66485910  0.50069368  0.16878370  1
  Cu+  Cu103  1  0.66800067  0.49825053  0.50182771  1
  Cu+  Cu104  1  0.66526628  0.51028833  0.83906548  1
  Cu+  Cu105  1  0.66582854  0.83152982  0.16839164  1
  Cu+  Cu106  1  0.66910814  0.83373161  0.49211366  1
  Cu+  Cu107  1  0.66672753  0.83179678  0.83375021  1
  Cu+  Cu108  1  0.26267266  0.92656626  0.92671206  1
  Cu+  Cu109  1  0.40649508  0.74138682  0.59559836  1
  Cu+  Cu110  1  0.25735800  0.92573428  0.26414013  1
  Cu+  Cu111  1  0.92665065  0.74039911  0.06918239  1
  Cu+  Cu112  1  0.59476255  0.08912977  0.40306692  1
  Cu+  Cu113  1  0.39890532  0.60017475  0.40199712  1
  Cu+  Cu114  1  0.73622234  0.59413160  0.74080746  1
  Cu+  Cu115  1  0.92997713  0.40288312  0.07207995  1
  Cu+  Cu116  1  0.92418981  0.40346494  0.40742945  1
  Cu+  Cu117  1  0.07260507  0.93115662  0.74935738  1
  Cu+  Cu118  1  0.59866907  0.58909036  0.26588968  1
  Cu+  Cu119  1  0.59194315  0.59890851  0.93181435  1
  Cu+  Cu120  1  0.73513023  0.06693615  0.60000267  1
  Cu+  Cu121  1  0.40590735  0.26083722  0.40652157  1
  Cu+  Cu122  1  0.74879146  0.92769166  0.40380641  1
  Cu+  Cu123  1  0.59739833  0.93306781  0.24295273  1
  Cu+  Cu124  1  0.07704175  0.40160970  0.25484253  1
  Cu+  Cu125  1  0.07451963  0.59487736  0.73654528  1
  Cu+  Cu126  1  0.92639634  0.40563165  0.75026228  1
  Cu+  Cu127  1  0.92659144  0.92641961  0.58973410  1
  Cu+  Cu128  1  0.58971286  0.26517604  0.59497924  1
  Cu+  Cu129  1  0.26769001  0.07278119  0.73523846  1
  Cu+  Cu130  1  0.92824986  0.25211181  0.59598118  1
  Cu+  Cu131  1  0.08353602  0.40404306  0.59710873  1
  Cu+  Cu132  1  0.59226238  0.40734478  0.07166920  1
  Te2-  Te133  1  0.25189516  0.25042454  0.08280706  1
  Te2-  Te134  1  0.25098330  0.25544980  0.41431446  1
  Te2-  Te135  1  0.25439607  0.25151234  0.74925373  1
  Te2-  Te136  1  0.25061876  0.58563492  0.07653746  1
  Te2-  Te137  1  0.24551448  0.58836807  0.40874267  1
  Te2-  Te138  1  0.25444888  0.58232145  0.74597901  1
  Te2-  Te139  1  0.25294065  0.91957692  0.07929002  1
  Te2-  Te140  1  0.25358334  0.91946215  0.41694544  1
  Te2-  Te141  1  0.26147597  0.91668318  0.74122742  1
  Te2-  Te142  1  0.58607551  0.25332576  0.07998714  1
  Te2-  Te143  1  0.58895804  0.25154504  0.41726939  1
  Te2-  Te144  1  0.58802301  0.25484057  0.74878201  1
  Te2-  Te145  1  0.58729356  0.59120802  0.08342322  1
  Te2-  Te146  1  0.58857128  0.58795234  0.41802141  1
  Te2-  Te147  1  0.58426124  0.58948081  0.74395981  1
  Te2-  Te148  1  0.58349920  0.91756123  0.08259545  1
  Te2-  Te149  1  0.59050489  0.92330037  0.40700554  1
  Te2-  Te150  1  0.58379407  0.91516724  0.74788177  1
  Te2-  Te151  1  0.92159684  0.25040925  0.07727787  1
  Te2-  Te152  1  0.91822016  0.24877296  0.41190472  1
  Te2-  Te153  1  0.92131431  0.25168027  0.74763210  1
  Te2-  Te154  1  0.92218552  0.58573013  0.08170631  1
  Te2-  Te155  1  0.92100689  0.58247583  0.41975185  1
  Te2-  Te156  1  0.92040334  0.59115691  0.74807924  1
  Te2-  Te157  1  0.91718263  0.92129040  0.08054963  1
  Te2-  Te158  1  0.91588688  0.92022528  0.41652986  1
  Te2-  Te159  1  0.91939742  0.92205642  0.74543138  1
  Te2-  Te160  1  0.25435892  0.08103970  0.25596987  1
  Te2-  Te161  1  0.25674582  0.08109382  0.58294746  1
  Te2-  Te162  1  0.25547332  0.07970553  0.92231424  1
  Te2-  Te163  1  0.25203253  0.41438772  0.24924605  1
  Te2-  Te164  1  0.25247002  0.41921058  0.58308811  1
  Te2-  Te165  1  0.25256079  0.41251945  0.91764836  1
  Te2-  Te166  1  0.24625078  0.74557685  0.25022540  1
  Te2-  Te167  1  0.25071907  0.74763447  0.58732023  1
  Te2-  Te168  1  0.25110161  0.74288999  0.91521419  1
  Te2-  Te169  1  0.58843088  0.08422750  0.25224387  1
  Te2-  Te170  1  0.58293817  0.07448196  0.59234938  1
  Te2-  Te171  1  0.58558674  0.08095755  0.91904265  1
  Te2-  Te172  1  0.58379884  0.41818084  0.25852057  1
  Te2-  Te173  1  0.58333079  0.41636246  0.58498633  1
  Te2-  Te174  1  0.58871082  0.41247316  0.91788583  1
  Te2-  Te175  1  0.58794237  0.74428154  0.25535155  1
  Te2-  Te176  1  0.58559855  0.74863904  0.57876929  1
  Te2-  Te177  1  0.58613115  0.74971431  0.92325894  1
  Te2-  Te178  1  0.91793326  0.08145308  0.25147631  1
  Te2-  Te179  1  0.91971472  0.07986776  0.58706759  1
  Te2-  Te180  1  0.91751691  0.08063627  0.91822761  1
  Te2-  Te181  1  0.92036267  0.40997856  0.25446100  1
  Te2-  Te182  1  0.92195519  0.40941201  0.59631914  1
  Te2-  Te183  1  0.92200517  0.41465135  0.91906541  1
  Te2-  Te184  1  0.91808845  0.75025395  0.25533774  1
  Te2-  Te185  1  0.92005300  0.74445145  0.58650871  1
  Te2-  Te186  1  0.92109284  0.74665740  0.91527644  1
  Te2-  Te187  1  0.07909406  0.24945348  0.25439997  1
  Te2-  Te188  1  0.08296188  0.25142761  0.59133195  1
  Te2-  Te189  1  0.08279231  0.24749405  0.92053519  1
  Te2-  Te190  1  0.07840585  0.58734844  0.24674636  1
  Te2-  Te191  1  0.07725957  0.58864788  0.58230964  1
  Te2-  Te192  1  0.08145842  0.58441600  0.91777972  1
  Te2-  Te193  1  0.07668203  0.91709706  0.24972289  1
  Te2-  Te194  1  0.08071775  0.92467487  0.58717843  1
  Te2-  Te195  1  0.08296984  0.92027698  0.91294585  1
  Te2-  Te196  1  0.41423578  0.25694332  0.25143286  1
  Te2-  Te197  1  0.41284529  0.25325649  0.59016916  1
  Te2-  Te198  1  0.41410437  0.25096460  0.91628654  1
  Te2-  Te199  1  0.40590535  0.58708940  0.25082898  1
  Te2-  Te200  1  0.41058381  0.58656599  0.58664263  1
  Te2-  Te201  1  0.41413483  0.58389007  0.91966470  1
  Te2-  Te202  1  0.41069839  0.92108882  0.25336356  1
  Te2-  Te203  1  0.41857962  0.92151012  0.58027101  1
  Te2-  Te204  1  0.41604604  0.91848172  0.92218234  1
  Te2-  Te205  1  0.74827971  0.25637270  0.25016284  1
  Te2-  Te206  1  0.74541462  0.25629652  0.58781252  1
  Te2-  Te207  1  0.74775223  0.25244314  0.91718032  1
  Te2-  Te208  1  0.75302698  0.58541817  0.25419778  1
  Te2-  Te209  1  0.74793884  0.58353627  0.58860162  1
  Te2-  Te210  1  0.75015025  0.58960922  0.92764168  1
  Te2-  Te211  1  0.74720445  0.92323484  0.25257241  1
  Te2-  Te212  1  0.73983864  0.91395707  0.59081171  1
  Te2-  Te213  1  0.74932064  0.91639693  0.91818339  1
  Te2-  Te214  1  0.08225142  0.07846409  0.08435291  1
  Te2-  Te215  1  0.08082568  0.08269837  0.41641263  1
  Te2-  Te216  1  0.07958169  0.08103216  0.74607367  1
  Te2-  Te217  1  0.08260361  0.40981031  0.07474622  1
  Te2-  Te218  1  0.07960913  0.40984337  0.40970188  1
  Te2-  Te219  1  0.08093481  0.40615624  0.74766553  1
  Te2-  Te220  1  0.08080001  0.74876869  0.07383511  1
  Te2-  Te221  1  0.07938656  0.75285455  0.41570037  1
  Te2-  Te222  1  0.08100336  0.74598530  0.74310650  1
  Te2-  Te223  1  0.41556665  0.08367340  0.08241905  1
  Te2-  Te224  1  0.41199919  0.08093086  0.41466236  1
  Te2-  Te225  1  0.41878414  0.07820337  0.74513285  1
  Te2-  Te226  1  0.41548378  0.41710578  0.08044330  1
  Te2-  Te227  1  0.41221327  0.41474808  0.41257768  1
  Te2-  Te228  1  0.41621835  0.41526354  0.74816328  1
  Te2-  Te229  1  0.41127300  0.74508184  0.08643997  1
  Te2-  Te230  1  0.41254981  0.75210006  0.40521800  1
  Te2-  Te231  1  0.41382815  0.74519542  0.74989239  1
  Te2-  Te232  1  0.74692323  0.08250289  0.07981690  1
  Te2-  Te233  1  0.74637717  0.08166393  0.41132218  1
  Te2-  Te234  1  0.74556908  0.07887736  0.74918611  1
  Te2-  Te235  1  0.74590930  0.41455660  0.08175827  1
  Te2-  Te236  1  0.74871854  0.41196602  0.41811560  1
  Te2-  Te237  1  0.74336074  0.41798738  0.75433264  1
  Te2-  Te238  1  0.74674089  0.74843895  0.08210489  1
  Te2-  Te239  1  0.74919221  0.74058972  0.41545975  1
  Te2-  Te240  1  0.74669002  0.74892581  0.74492367  1
