# generated using pymatgen
data_Ti27(Cu53Te54)2
_symmetry_space_group_name_H-M   'P 1'
_cell_length_a   17.93733165
_cell_length_b   17.92839488
_cell_length_c   17.92411448
_cell_angle_alpha   90.00672404
_cell_angle_beta   90.01994802
_cell_angle_gamma   89.98522432
_symmetry_Int_Tables_number   1
_chemical_formula_structural   Ti27(Cu53Te54)2
_chemical_formula_sum   'Ti27 Cu106 Te108'
_cell_volume   5764.17174721
_cell_formula_units_Z   1
loop_
 _symmetry_equiv_pos_site_id
 _symmetry_equiv_pos_as_xyz
  1  'x, y, z'
loop_
 _atom_type_symbol
 _atom_type_oxidation_number
  Ti4+  4.0
  Cu+  1.0
  Te2-  -2.0
loop_
 _atom_site_type_symbol
 _atom_site_label
 _atom_site_symmetry_multiplicity
 _atom_site_fract_x
 _atom_site_fract_y
 _atom_site_fract_z
 _atom_site_occupancy
  Ti4+  Ti0  1  0.16790886  0.16518537  0.16731547  1
  Ti4+  Ti1  1  0.16896420  0.16417282  0.49942674  1
  Ti4+  Ti2  1  0.17057970  0.16969028  0.83330338  1
  Ti4+  Ti3  1  0.16592489  0.50315665  0.16988299  1
  Ti4+  Ti4  1  0.16654480  0.50179813  0.49999975  1
  Ti4+  Ti5  1  0.16886276  0.49817513  0.83568375  1
  Ti4+  Ti6  1  0.16473139  0.83112791  0.16781602  1
  Ti4+  Ti7  1  0.16648182  0.83181839  0.50179293  1
  Ti4+  Ti8  1  0.16699239  0.83622515  0.83539797  1
  Ti4+  Ti9  1  0.49763628  0.16610507  0.16512643  1
  Ti4+  Ti10  1  0.50267593  0.16948778  0.49781124  1
  Ti4+  Ti11  1  0.49570534  0.16726061  0.83285764  1
  Ti4+  Ti12  1  0.49906397  0.50323751  0.16613420  1
  Ti4+  Ti13  1  0.50041413  0.50369697  0.49919930  1
  Ti4+  Ti14  1  0.49348736  0.50246289  0.83041997  1
  Ti4+  Ti15  1  0.49709326  0.83446498  0.16387730  1
  Ti4+  Ti16  1  0.50264540  0.83568521  0.50131262  1
  Ti4+  Ti17  1  0.49833247  0.82852444  0.83444144  1
  Ti4+  Ti18  1  0.83257008  0.16675349  0.16319349  1
  Ti4+  Ti19  1  0.83585616  0.16698544  0.49953605  1
  Ti4+  Ti20  1  0.83125138  0.16778991  0.83162762  1
  Ti4+  Ti21  1  0.83840226  0.49470176  0.17018426  1
  Ti4+  Ti22  1  0.83162392  0.49944420  0.49835133  1
  Ti4+  Ti23  1  0.83305485  0.49780826  0.83443096  1
  Ti4+  Ti24  1  0.82975113  0.83265972  0.16365690  1
  Ti4+  Ti25  1  0.83333834  0.83472858  0.50111738  1
  Ti4+  Ti26  1  0.83654475  0.83419400  0.83734685  1
  Cu+  Cu27  1  0.16975932  0.16945555  0.00271890  1
  Cu+  Cu28  1  0.16831834  0.16172200  0.33442980  1
  Cu+  Cu29  1  0.16866650  0.16648224  0.66463569  1
  Cu+  Cu30  1  0.16487716  0.50063148  0.00306557  1
  Cu+  Cu31  1  0.16533477  0.50958932  0.33518284  1
  Cu+  Cu32  1  0.16755684  0.49745809  0.66587287  1
  Cu+  Cu33  1  0.16027427  0.83339092  0.00056146  1
  Cu+  Cu34  1  0.16398108  0.83319777  0.33502090  1
  Cu+  Cu35  1  0.16969129  0.83479172  0.66928852  1
  Cu+  Cu36  1  0.49718793  0.16209279  0.00011384  1
  Cu+  Cu37  1  0.50172294  0.16839229  0.32987856  1
  Cu+  Cu38  1  0.49623218  0.16698480  0.66232824  1
  Cu+  Cu39  1  0.49219104  0.50647966  0.00029183  1
  Cu+  Cu40  1  0.50302467  0.50099530  0.33381799  1
  Cu+  Cu41  1  0.50277515  0.50896408  0.66193045  1
  Cu+  Cu42  1  0.49888032  0.82697563  0.00054878  1
  Cu+  Cu43  1  0.50210446  0.83698200  0.33246138  1
  Cu+  Cu44  1  0.49744246  0.82962810  0.66615381  1
  Cu+  Cu45  1  0.83263017  0.17061578  -0.00483769  1
  Cu+  Cu46  1  0.83347657  0.16915047  0.33049462  1
  Cu+  Cu47  1  0.83439513  0.16504257  0.66675103  1
  Cu+  Cu48  1  0.83401934  0.49503698  0.00260500  1
  Cu+  Cu49  1  0.84087221  0.49213901  0.33707392  1
  Cu+  Cu50  1  0.83081367  0.49851313  0.66761675  1
  Cu+  Cu51  1  0.83005548  0.83097756  0.00154587  1
  Cu+  Cu52  1  0.82995171  0.83502256  0.33332765  1
  Cu+  Cu53  1  0.83665754  0.83645779  0.66938520  1
  Cu+  Cu54  1  0.16394971  -0.00162237  0.16758034  1
  Cu+  Cu55  1  0.16794150  -0.00377542  0.50126536  1
  Cu+  Cu56  1  0.16915971  0.00316264  0.83298356  1
  Cu+  Cu57  1  0.16717691  0.33677103  0.17054992  1
  Cu+  Cu58  1  0.16883598  0.32962859  0.49809124  1
  Cu+  Cu59  1  0.17675031  0.33195811  0.83609249  1
  Cu+  Cu60  1  0.16830175  0.66706698  0.17397463  1
  Cu+  Cu61  1  0.16142657  0.66585874  0.50032759  1
  Cu+  Cu62  1  0.16659165  0.66602699  0.83347742  1
  Cu+  Cu63  1  0.49839308  0.00004475  0.16607173  1
  Cu+  Cu64  1  0.50241300  0.00294424  0.50204388  1
  Cu+  Cu65  1  0.49596049  -0.00300846  0.83353425  1
  Cu+  Cu66  1  0.49912186  0.33183334  0.16612947  1
  Cu+  Cu67  1  0.50387037  0.33888950  0.49548455  1
  Cu+  Cu68  1  0.48930147  0.33541265  0.82843713  1
  Cu+  Cu69  1  0.49783420  0.66776326  0.16037756  1
  Cu+  Cu70  1  0.50262520  0.66958892  0.50437364  1
  Cu+  Cu71  1  0.49656720  0.66462969  0.84013861  1
  Cu+  Cu72  1  0.82740121  0.00044064  0.16139591  1
  Cu+  Cu73  1  0.83545928  0.00051864  0.50024316  1
  Cu+  Cu74  1  0.83390493  0.00284098  0.83271045  1
  Cu+  Cu75  1  0.84118519  0.32825671  0.17312710  1
  Cu+  Cu76  1  0.83238582  0.33130967  0.49398193  1
  Cu+  Cu77  1  0.83266785  0.33201246  0.83539005  1
  Cu+  Cu78  1  0.83458419  0.66168313  0.16523619  1
  Cu+  Cu79  1  0.83040046  0.67072767  0.50199597  1
  Cu+  Cu80  1  0.83612956  0.66605237  0.83676572  1
  Cu+  Cu81  1  0.00157299  0.16565507  0.16489336  1
  Cu+  Cu82  1  0.00430233  0.16297238  0.50134110  1
  Cu+  Cu83  1  0.00063537  0.17085133  0.83291952  1
  Cu+  Cu84  1  0.00239228  0.49637596  0.17019309  1
  Cu+  Cu85  1  0.00097212  0.50184947  0.49702240  1
  Cu+  Cu86  1  0.00050447  0.49813802  0.83212949  1
  Cu+  Cu87  1  -0.00303857  0.83132287  0.16472217  1
  Cu+  Cu88  1  -0.00255297  0.83446496  0.50246893  1
  Cu+  Cu89  1  0.00305374  0.83522222  0.84038368  1
  Cu+  Cu90  1  0.33253831  0.16510646  0.16830347  1
  Cu+  Cu91  1  0.33554558  0.16391682  0.50016386  1
  Cu+  Cu92  1  0.33669624  0.17182558  0.83430679  1
  Cu+  Cu93  1  0.33163543  0.50799860  0.16954071  1
  Cu+  Cu94  1  0.33399384  0.50090427  0.49890335  1
  Cu+  Cu95  1  0.33026264  0.48893580  0.82989597  1
  Cu+  Cu96  1  0.32985128  0.83528549  0.16895325  1
  Cu+  Cu97  1  0.33485764  0.83257531  0.50210346  1
  Cu+  Cu98  1  0.32964488  0.82778158  0.83089020  1
  Cu+  Cu99  1  0.66242241  0.16539366  0.16335764  1
  Cu+  Cu100  1  0.67069404  0.17177315  0.49624498  1
  Cu+  Cu101  1  0.66357795  0.16589738  0.82923352  1
  Cu+  Cu102  1  0.67395622  0.49851252  0.16705041  1
  Cu+  Cu103  1  0.66298213  0.50063159  0.49816960  1
  Cu+  Cu104  1  0.66298688  0.50063185  0.83096153  1
  Cu+  Cu105  1  0.66442519  0.83672076  0.15903298  1
  Cu+  Cu106  1  0.66947622  0.83859318  0.50124831  1
  Cu+  Cu107  1  0.66887505  0.83268318  0.83576997  1
  Cu+  Cu108  1  0.40201502  0.74300128  0.92702878  1
  Cu+  Cu109  1  0.59153878  0.74086442  0.07869385  1
  Cu+  Cu110  1  0.93374375  0.24739101  0.26111435  1
  Cu+  Cu111  1  0.74292759  0.73922181  0.91998127  1
  Cu+  Cu112  1  0.40024033  0.59477984  0.07542694  1
  Cu+  Cu113  1  0.26343070  0.59694462  0.26626264  1
  Cu+  Cu114  1  0.25189861  0.73880236  0.73947684  1
  Cu+  Cu115  1  0.06805683  0.59758654  0.40709225  1
  Cu+  Cu116  1  0.92776182  0.26012275  0.92280781  1
  Cu+  Cu117  1  0.40705922  0.07417219  0.58895599  1
  Cu+  Cu118  1  0.25145630  0.40331746  0.73266099  1
  Cu+  Cu119  1  0.93413902  0.40264937  0.41764554  1
  Cu+  Cu120  1  0.74053055  0.25585368  0.40083192  1
  Cu+  Cu121  1  0.41029586  0.06901246  0.92944038  1
  Cu+  Cu122  1  0.59186906  0.58273486  0.92512585  1
  Cu+  Cu123  1  0.07764587  0.73674554  0.92414271  1
  Cu+  Cu124  1  0.73611814  0.93268140  0.07160259  1
  Cu+  Cu125  1  0.59853707  0.59889446  0.58822339  1
  Cu+  Cu126  1  0.74889616  0.58483888  0.07682282  1
  Cu+  Cu127  1  0.41093711  0.40761578  0.93028501  1
  Cu+  Cu128  1  0.59080307  0.40961466  0.40174463  1
  Cu+  Cu129  1  0.40994000  0.25959669  0.73140580  1
  Cu+  Cu130  1  0.26222819  0.25642324  0.93537164  1
  Cu+  Cu131  1  0.92792789  0.73535696  0.08149936  1
  Cu+  Cu132  1  0.40618972  0.73973723  0.58653118  1
  Te2-  Te133  1  0.25433752  0.25595460  0.08676947  1
  Te2-  Te134  1  0.25469015  0.24839633  0.41355275  1
  Te2-  Te135  1  0.25714605  0.25314390  0.74014511  1
  Te2-  Te136  1  0.24844720  0.59001947  0.07963080  1
  Te2-  Te137  1  0.25533675  0.59066498  0.41789608  1
  Te2-  Te138  1  0.25269657  0.58441151  0.74803589  1
  Te2-  Te139  1  0.24772586  0.91664470  0.08175019  1
  Te2-  Te140  1  0.25240581  0.91509142  0.41623414  1
  Te2-  Te141  1  0.25429914  0.92121453  0.74973307  1
  Te2-  Te142  1  0.58183196  0.25107262  0.07802108  1
  Te2-  Te143  1  0.58770839  0.25554767  0.40810243  1
  Te2-  Te144  1  0.58007983  0.25349860  0.74731253  1
  Te2-  Te145  1  0.59161668  0.58587562  0.07855517  1
  Te2-  Te146  1  0.58571376  0.59131834  0.41340456  1
  Te2-  Te147  1  0.58407501  0.59076884  0.74862328  1
  Te2-  Te148  1  0.58061954  0.92242742  0.07495874  1
  Te2-  Te149  1  0.58626607  0.92120209  0.41577735  1
  Te2-  Te150  1  0.58269504  0.91414531  0.75082476  1
  Te2-  Te151  1  0.92131227  0.25209255  0.07816933  1
  Te2-  Te152  1  0.92786296  0.25123735  0.41282335  1
  Te2-  Te153  1  0.91766794  0.25363961  0.74621728  1
  Te2-  Te154  1  0.92363505  0.58017390  0.08065113  1
  Te2-  Te155  1  0.91533023  0.58997034  0.41474367  1
  Te2-  Te156  1  0.91700323  0.58293254  0.74945835  1
  Te2-  Te157  1  0.91669506  0.91880049  0.07997018  1
  Te2-  Te158  1  0.91819374  0.91857791  0.41352290  1
  Te2-  Te159  1  0.92167354  0.91903137  0.75315532  1
  Te2-  Te160  1  0.25171701  0.07787545  0.25131438  1
  Te2-  Te161  1  0.25361330  0.07776003  0.58683083  1
  Te2-  Te162  1  0.25538749  0.08249482  0.91980633  1
  Te2-  Te163  1  0.25228628  0.42000081  0.25576019  1
  Te2-  Te164  1  0.25384465  0.41281095  0.58136614  1
  Te2-  Te165  1  0.25486722  0.41337416  0.92908585  1
  Te2-  Te166  1  0.25337236  0.75008585  0.25711214  1
  Te2-  Te167  1  0.25247733  0.74293184  0.58754250  1
  Te2-  Te168  1  0.24989244  0.74607365  0.92422220  1
  Te2-  Te169  1  0.58417998  0.08062933  0.24987426  1
  Te2-  Te170  1  0.58998652  0.08727479  0.58377187  1
  Te2-  Te171  1  0.58296632  0.08047208  0.91523897  1
  Te2-  Te172  1  0.58629867  0.41561091  0.24750876  1
  Te2-  Te173  1  0.58472074  0.41650488  0.58727397  1
  Te2-  Te174  1  0.57763971  0.41606748  0.91677333  1
  Te2-  Te175  1  0.58444694  0.74981077  0.24783046  1
  Te2-  Te176  1  0.59199651  0.75155649  0.58833530  1
  Te2-  Te177  1  0.58971444  0.74215367  0.92219895  1
  Te2-  Te178  1  0.91570297  0.07915063  0.24775476  1
  Te2-  Te179  1  0.91985801  0.08154879  0.58521287  1
  Te2-  Te180  1  0.91934767  0.08369162  0.91729824  1
  Te2-  Te181  1  0.92754494  0.40839016  0.25721194  1
  Te2-  Te182  1  0.91687639  0.41508313  0.58288977  1
  Te2-  Te183  1  0.92061242  0.41401422  0.91990118  1
  Te2-  Te184  1  0.91385145  0.74811000  0.25135652  1
  Te2-  Te185  1  0.91772457  0.74859190  0.58754107  1
  Te2-  Te186  1  0.92346295  0.74449599  0.92448750  1
  Te2-  Te187  1  0.08441813  0.25100552  0.25469844  1
  Te2-  Te188  1  0.08348628  0.25120013  0.58410702  1
  Te2-  Te189  1  0.08422103  0.25490454  0.91964921  1
  Te2-  Te190  1  0.07449195  0.58950441  0.25320255  1
  Te2-  Te191  1  0.08028254  0.58291703  0.58875872  1
  Te2-  Te192  1  0.07997987  0.58315513  0.91925996  1
  Te2-  Te193  1  0.07788333  0.91562500  0.25094760  1
  Te2-  Te194  1  0.08257158  0.91667083  0.58754150  1
  Te2-  Te195  1  0.08335617  0.92557016  0.91974009  1
  Te2-  Te196  1  0.41361701  0.25216161  0.25150786  1
  Te2-  Te197  1  0.41498944  0.25851655  0.57884486  1
  Te2-  Te198  1  0.41342457  0.25672132  0.92660087  1
  Te2-  Te199  1  0.41879559  0.59034119  0.25615177  1
  Te2-  Te200  1  0.40970090  0.58782697  0.58551730  1
  Te2-  Te201  1  0.40096319  0.58726584  0.91784247  1
  Te2-  Te202  1  0.41428961  0.91880087  0.25150424  1
  Te2-  Te203  1  0.41514954  0.92085803  0.58742420  1
  Te2-  Te204  1  0.41109530  0.91399932  0.91948300  1
  Te2-  Te205  1  0.74332409  0.25187105  0.24794679  1
  Te2-  Te206  1  0.75175835  0.25287429  0.58575330  1
  Te2-  Te207  1  0.74170682  0.25196283  0.91584353  1
  Te2-  Te208  1  0.75437794  0.58088099  0.25658171  1
  Te2-  Te209  1  0.74793345  0.58526776  0.58577143  1
  Te2-  Te210  1  0.74545279  0.58496646  0.92303855  1
  Te2-  Te211  1  0.74454994  0.91806104  0.24911995  1
  Te2-  Te212  1  0.75071226  0.92152051  0.58803213  1
  Te2-  Te213  1  0.74782858  0.92253103  0.91919813  1
  Te2-  Te214  1  0.08317715  0.08208563  0.07990725  1
  Te2-  Te215  1  0.08336215  0.07730998  0.41570654  1
  Te2-  Te216  1  0.08388456  0.08566073  0.74972146  1
  Te2-  Te217  1  0.08266378  0.41447713  0.08378677  1
  Te2-  Te218  1  0.08581984  0.41306506  0.41261617  1
  Te2-  Te219  1  0.08491231  0.41143928  0.75110312  1
  Te2-  Te220  1  0.07987576  0.74134004  0.08151856  1
  Te2-  Te221  1  0.07719195  0.74971866  0.41561621  1
  Te2-  Te222  1  0.08065572  0.75036879  0.74962135  1
  Te2-  Te223  1  0.40988744  0.07761593  0.08171205  1
  Te2-  Te224  1  0.41889310  0.08247499  0.41271653  1
  Te2-  Te225  1  0.41148254  0.07886107  0.74600949  1
  Te2-  Te226  1  0.41151405  0.41599254  0.08523087  1
  Te2-  Te227  1  0.41423406  0.41750792  0.41266558  1
  Te2-  Te228  1  0.41248125  0.41715528  0.73438750  1
  Te2-  Te229  1  0.40431365  0.74695597  0.07969407  1
  Te2-  Te230  1  0.41871065  0.74984992  0.41468391  1
  Te2-  Te231  1  0.41211401  0.74159869  0.74535373  1
  Te2-  Te232  1  0.74465076  0.08515441  0.07497112  1
  Te2-  Te233  1  0.75095391  0.08187845  0.41339402  1
  Te2-  Te234  1  0.74682213  0.08075522  0.74642156  1
  Te2-  Te235  1  0.75308415  0.40742764  0.08559777  1
  Te2-  Te236  1  0.74327707  0.41329466  0.41040700  1
  Te2-  Te237  1  0.74632116  0.41403954  0.75077346  1
  Te2-  Te238  1  0.74231757  0.73911472  0.07671131  1
  Te2-  Te239  1  0.74601949  0.75048597  0.41532227  1
  Te2-  Te240  1  0.75214470  0.74883494  0.75037808  1
