# generated using pymatgen
data_Ti27(Cu53Te54)2
_symmetry_space_group_name_H-M   'P 1'
_cell_length_a   17.88318742
_cell_length_b   17.88501549
_cell_length_c   17.88183875
_cell_angle_alpha   89.99863558
_cell_angle_beta   90.00639876
_cell_angle_gamma   90.02178960
_symmetry_Int_Tables_number   1
_chemical_formula_structural   Ti27(Cu53Te54)2
_chemical_formula_sum   'Ti27 Cu106 Te108'
_cell_volume   5719.34624008
_cell_formula_units_Z   1
loop_
 _symmetry_equiv_pos_site_id
 _symmetry_equiv_pos_as_xyz
  1  'x, y, z'
loop_
 _atom_type_symbol
 _atom_type_oxidation_number
  Ti4+  4.0
  Cu+  1.0
  Te2-  -2.0
loop_
 _atom_site_type_symbol
 _atom_site_label
 _atom_site_symmetry_multiplicity
 _atom_site_fract_x
 _atom_site_fract_y
 _atom_site_fract_z
 _atom_site_occupancy
  Ti4+  Ti0  1  0.16473920  0.16420396  0.16686944  1
  Ti4+  Ti1  1  0.16840533  0.16864752  0.50216771  1
  Ti4+  Ti2  1  0.16193059  0.16292061  0.83047960  1
  Ti4+  Ti3  1  0.16704500  0.50019115  0.16617495  1
  Ti4+  Ti4  1  0.16973785  0.50158701  0.49922117  1
  Ti4+  Ti5  1  0.16675838  0.50040079  0.83395999  1
  Ti4+  Ti6  1  0.16619452  0.83438072  0.16522309  1
  Ti4+  Ti7  1  0.16595910  0.83335614  0.50197190  1
  Ti4+  Ti8  1  0.17219663  0.83505600  0.83164271  1
  Ti4+  Ti9  1  0.49936010  0.16627743  0.16506594  1
  Ti4+  Ti10  1  0.50005722  0.16686147  0.50324220  1
  Ti4+  Ti11  1  0.50188439  0.16832193  0.83388117  1
  Ti4+  Ti12  1  0.49899661  0.49710426  0.16613513  1
  Ti4+  Ti13  1  0.49876366  0.49645766  0.49822340  1
  Ti4+  Ti14  1  0.49864389  0.50032335  0.83239690  1
  Ti4+  Ti15  1  0.50215121  0.82788213  0.16894102  1
  Ti4+  Ti16  1  0.50080088  0.83323350  0.49407305  1
  Ti4+  Ti17  1  0.49886227  0.83344689  0.83496501  1
  Ti4+  Ti18  1  0.83166164  0.16628323  0.16627775  1
  Ti4+  Ti19  1  0.83506064  0.16918318  0.50011805  1
  Ti4+  Ti20  1  0.83316592  0.17080462  0.83334947  1
  Ti4+  Ti21  1  0.83576596  0.49833916  0.16929332  1
  Ti4+  Ti22  1  0.83249527  0.50022283  0.50213346  1
  Ti4+  Ti23  1  0.83269720  0.50353185  0.83679492  1
  Ti4+  Ti24  1  0.83005961  0.83485198  0.16641568  1
  Ti4+  Ti25  1  0.83200837  0.83212935  0.49938847  1
  Ti4+  Ti26  1  0.83224540  0.83107632  0.83461540  1
  Cu+  Cu27  1  0.16167984  0.16388392  0.00071882  1
  Cu+  Cu28  1  0.16666745  0.16468765  0.33324790  1
  Cu+  Cu29  1  0.16058646  0.16272563  0.66616276  1
  Cu+  Cu30  1  0.16697734  0.49965502  0.00140059  1
  Cu+  Cu31  1  0.17004239  0.49863336  0.33076974  1
  Cu+  Cu32  1  0.16652694  0.50404985  0.66692061  1
  Cu+  Cu33  1  0.16827531  0.83422872  -0.00288174  1
  Cu+  Cu34  1  0.16486455  0.83452532  0.33250181  1
  Cu+  Cu35  1  0.17427507  0.84032980  0.66649906  1
  Cu+  Cu36  1  0.50008421  0.16572005  -0.00095089  1
  Cu+  Cu37  1  0.49888410  0.16549322  0.33332770  1
  Cu+  Cu38  1  0.50633134  0.17114325  0.66735850  1
  Cu+  Cu39  1  0.49796664  0.49629195  -0.00176566  1
  Cu+  Cu40  1  0.49710205  0.50061521  0.33041186  1
  Cu+  Cu41  1  0.49757492  0.49645892  0.66403880  1
  Cu+  Cu42  1  0.49772070  0.83395209  0.00562810  1
  Cu+  Cu43  1  0.51199956  0.82980536  0.33213041  1
  Cu+  Cu44  1  0.49965250  0.83275195  0.66598123  1
  Cu+  Cu45  1  0.83283485  0.16891459  -0.00039479  1
  Cu+  Cu46  1  0.83610291  0.17056729  0.32959609  1
  Cu+  Cu47  1  0.83530401  0.16833466  0.66960255  1
  Cu+  Cu48  1  0.83422362  0.50149548  0.00484815  1
  Cu+  Cu49  1  0.83515003  0.49672749  0.33835340  1
  Cu+  Cu50  1  0.83120314  0.50540277  0.67037187  1
  Cu+  Cu51  1  0.82953589  0.82966308  -0.00185176  1
  Cu+  Cu52  1  0.82545099  0.83532817  0.33358267  1
  Cu+  Cu53  1  0.83189897  0.83182462  0.66327974  1
  Cu+  Cu54  1  0.16421758  0.00079395  0.16687304  1
  Cu+  Cu55  1  0.16743771  0.00001698  0.50805054  1
  Cu+  Cu56  1  0.17199528  -0.00166421  0.82489049  1
  Cu+  Cu57  1  0.16436058  0.33109896  0.16533006  1
  Cu+  Cu58  1  0.17338534  0.33738357  0.49893221  1
  Cu+  Cu59  1  0.16156303  0.33072616  0.83160962  1
  Cu+  Cu60  1  0.16707831  0.66563506  0.16509017  1
  Cu+  Cu61  1  0.16844080  0.66914390  0.49857520  1
  Cu+  Cu62  1  0.16826685  0.66913040  0.83301391  1
  Cu+  Cu63  1  0.49982830  -0.00107925  0.16697555  1
  Cu+  Cu64  1  0.50069149  0.00470291  0.50078226  1
  Cu+  Cu65  1  0.50171802  0.00030934  0.83409350  1
  Cu+  Cu66  1  0.49968441  0.33198583  0.16645398  1
  Cu+  Cu67  1  0.49622155  0.32871756  0.50544984  1
  Cu+  Cu68  1  0.49767447  0.33580295  0.83566478  1
  Cu+  Cu69  1  0.50082187  0.66070957  0.16513874  1
  Cu+  Cu70  1  0.49901759  0.66495640  0.49374466  1
  Cu+  Cu71  1  0.49908901  0.66565515  0.83352100  1
  Cu+  Cu72  1  0.83305078  0.00320921  0.16213166  1
  Cu+  Cu73  1  0.83129382  -0.00223546  0.49839076  1
  Cu+  Cu74  1  0.83377082  0.00194204  0.83477951  1
  Cu+  Cu75  1  0.83483738  0.33085915  0.17102171  1
  Cu+  Cu76  1  0.83862156  0.33836341  0.50081247  1
  Cu+  Cu77  1  0.83397941  0.33850664  0.83690007  1
  Cu+  Cu78  1  0.83188207  0.66511156  0.16871501  1
  Cu+  Cu79  1  0.83396005  0.66331477  0.50307879  1
  Cu+  Cu80  1  0.82698533  0.66678542  0.83574906  1
  Cu+  Cu81  1  -0.00164835  0.16606842  0.16795326  1
  Cu+  Cu82  1  0.00388490  0.16922156  0.50396895  1
  Cu+  Cu83  1  -0.00491021  0.16753248  0.82546716  1
  Cu+  Cu84  1  0.00366138  0.50093174  0.16920284  1
  Cu+  Cu85  1  -0.00001223  0.49991865  0.50141001  1
  Cu+  Cu86  1  -0.00226615  0.50266413  0.83476009  1
  Cu+  Cu87  1  -0.00311423  0.83452155  0.16390740  1
  Cu+  Cu88  1  -0.00429224  0.83201120  0.49919665  1
  Cu+  Cu89  1  0.00511257  0.83058416  0.83631160  1
  Cu+  Cu90  1  0.32893093  0.16345907  0.16572935  1
  Cu+  Cu91  1  0.33807551  0.17234995  0.49805745  1
  Cu+  Cu92  1  0.33390045  0.16509104  0.83266673  1
  Cu+  Cu93  1  0.33130812  0.49886538  0.16475679  1
  Cu+  Cu94  1  0.33584762  0.49645786  0.49605788  1
  Cu+  Cu95  1  0.33324174  0.49703659  0.83742405  1
  Cu+  Cu96  1  0.33837831  0.83374501  0.16547879  1
  Cu+  Cu97  1  0.33020349  0.83103031  0.49765899  1
  Cu+  Cu98  1  0.33269017  0.83436666  0.83502705  1
  Cu+  Cu99  1  0.66700244  0.16661701  0.16385383  1
  Cu+  Cu100  1  0.66591247  0.16979100  0.50398748  1
  Cu+  Cu101  1  0.66877175  0.16937346  0.83495821  1
  Cu+  Cu102  1  0.66521767  0.49679467  0.16751409  1
  Cu+  Cu103  1  0.66813506  0.49727005  0.50171671  1
  Cu+  Cu104  1  0.66629809  0.50750897  0.83086265  1
  Cu+  Cu105  1  0.66708073  0.82969859  0.17730413  1
  Cu+  Cu106  1  0.66728304  0.83479737  0.49191227  1
  Cu+  Cu107  1  0.66530703  0.83065407  0.83743828  1
  Cu+  Cu108  1  0.73369990  0.73908049  0.92963113  1
  Cu+  Cu109  1  0.59075443  0.93192461  0.25453027  1
  Cu+  Cu110  1  0.59931986  0.26043473  0.59695701  1
  Cu+  Cu111  1  0.26658847  0.08368686  0.73768561  1
  Cu+  Cu112  1  0.25181507  0.74488618  0.40076102  1
  Cu+  Cu113  1  0.26061190  0.40688079  0.40021533  1
  Cu+  Cu114  1  0.26752604  0.92823919  0.58513178  1
  Cu+  Cu115  1  0.93044620  0.41125118  0.40974117  1
  Cu+  Cu116  1  0.40809882  0.59353864  0.40297881  1
  Cu+  Cu117  1  0.91455210  0.06938803  0.73965032  1
  Cu+  Cu118  1  0.59687553  0.73214741  0.41162716  1
  Cu+  Cu119  1  0.41250908  0.25565112  0.40133132  1
  Cu+  Cu120  1  0.25645670  0.93006590  0.92864521  1
  Cu+  Cu121  1  0.74179767  0.93449815  0.40714362  1
  Cu+  Cu122  1  0.74757476  0.73214149  0.26208943  1
  Cu+  Cu123  1  0.40423732  0.40561051  0.92986275  1
  Cu+  Cu124  1  0.93049010  0.25857500  0.25553208  1
  Cu+  Cu125  1  0.07006242  0.07155849  0.58622865  1
  Cu+  Cu126  1  0.41099813  0.92719228  0.07855802  1
  Cu+  Cu127  1  0.06973057  0.91373198  0.73916704  1
  Cu+  Cu128  1  0.07919854  0.73928804  0.92788105  1
  Cu+  Cu129  1  0.06986251  0.26517955  0.73965190  1
  Cu+  Cu130  1  0.26281284  0.73617790  0.74272013  1
  Cu+  Cu131  1  0.40415934  0.40460642  0.59480414  1
  Cu+  Cu132  1  0.73649211  0.59609003  0.73693698  1
  Te2-  Te133  1  0.24886684  0.24928435  0.07959701  1
  Te2-  Te134  1  0.25371161  0.25264402  0.41074645  1
  Te2-  Te135  1  0.24951154  0.24944334  0.74706656  1
  Te2-  Te136  1  0.25272885  0.58566670  0.07978476  1
  Te2-  Te137  1  0.25507961  0.58907582  0.41013255  1
  Te2-  Te138  1  0.25534052  0.58405444  0.74883764  1
  Te2-  Te139  1  0.25400843  0.92231973  0.08143222  1
  Te2-  Te140  1  0.24929720  0.92206922  0.41522712  1
  Te2-  Te141  1  0.26576008  0.92536276  0.74161363  1
  Te2-  Te142  1  0.58431695  0.25181734  0.08031474  1
  Te2-  Te143  1  0.58421709  0.25289343  0.41508387  1
  Te2-  Te144  1  0.58881811  0.25754150  0.75141156  1
  Te2-  Te145  1  0.58498747  0.58012515  0.07977269  1
  Te2-  Te146  1  0.58867367  0.57934914  0.41210391  1
  Te2-  Te147  1  0.58135970  0.58793831  0.74264841  1
  Te2-  Te148  1  0.58952044  0.91507880  0.08492297  1
  Te2-  Te149  1  0.58706548  0.92804589  0.41172593  1
  Te2-  Te150  1  0.58550564  0.91606297  0.74947133  1
  Te2-  Te151  1  0.91882480  0.25245215  0.08120875  1
  Te2-  Te152  1  0.92441682  0.25392190  0.41510171  1
  Te2-  Te153  1  0.91692713  0.26173770  0.74538640  1
  Te2-  Te154  1  0.91978623  0.58599956  0.08602131  1
  Te2-  Te155  1  0.91959148  0.58604472  0.41597540  1
  Te2-  Te156  1  0.91844406  0.58996316  0.75075955  1
  Te2-  Te157  1  0.91450775  0.91737086  0.07836592  1
  Te2-  Te158  1  0.91761180  0.91757774  0.41231884  1
  Te2-  Te159  1  0.91786131  0.91634817  0.74581934  1
  Te2-  Te160  1  0.25075605  0.07864506  0.25310577  1
  Te2-  Te161  1  0.26067620  0.08346962  0.58626672  1
  Te2-  Te162  1  0.25062511  0.08237515  0.91992154  1
  Te2-  Te163  1  0.25385587  0.41000869  0.24896922  1
  Te2-  Te164  1  0.25322977  0.41653665  0.58998338  1
  Te2-  Te165  1  0.24806115  0.40987185  0.91940189  1
  Te2-  Te166  1  0.25340311  0.74884134  0.24905283  1
  Te2-  Te167  1  0.25406324  0.74521635  0.58805279  1
  Te2-  Te168  1  0.25557823  0.74608654  0.92078535  1
  Te2-  Te169  1  0.58665279  0.08387180  0.25239841  1
  Te2-  Te170  1  0.58779848  0.08041928  0.58804002  1
  Te2-  Te171  1  0.58691726  0.08245407  0.91806962  1
  Te2-  Te172  1  0.58357154  0.41240069  0.25287571  1
  Te2-  Te173  1  0.58727035  0.41290900  0.58613984  1
  Te2-  Te174  1  0.58825419  0.41729422  0.91587071  1
  Te2-  Te175  1  0.58909750  0.73385476  0.25481276  1
  Te2-  Te176  1  0.58423061  0.74867042  0.58034628  1
  Te2-  Te177  1  0.58107851  0.74619266  0.92309187  1
  Te2-  Te178  1  0.91792397  0.07873201  0.25218024  1
  Te2-  Te179  1  0.91765306  0.07824624  0.58525199  1
  Te2-  Te180  1  0.91900609  0.08433837  0.91907187  1
  Te2-  Te181  1  0.92478083  0.41277199  0.25571323  1
  Te2-  Te182  1  0.91894725  0.41923287  0.59180462  1
  Te2-  Te183  1  0.91912935  0.41827707  0.92194813  1
  Te2-  Te184  1  0.91602615  0.75119885  0.25274314  1
  Te2-  Te185  1  0.91783379  0.74623878  0.58537135  1
  Te2-  Te186  1  0.92051175  0.74531292  0.91960369  1
  Te2-  Te187  1  0.08181201  0.25228524  0.25498328  1
  Te2-  Te188  1  0.08350736  0.25985818  0.58548538  1
  Te2-  Te189  1  0.07767486  0.24762978  0.91677637  1
  Te2-  Te190  1  0.08383387  0.58670101  0.25387743  1
  Te2-  Te191  1  0.08316780  0.58661747  0.58266772  1
  Te2-  Te192  1  0.08157331  0.58629034  0.91964112  1
  Te2-  Te193  1  0.07944856  0.91756290  0.25058893  1
  Te2-  Te194  1  0.07337988  0.91817725  0.58701057  1
  Te2-  Te195  1  0.08451151  0.92346235  0.91683147  1
  Te2-  Te196  1  0.41113689  0.25109600  0.24912225  1
  Te2-  Te197  1  0.41013869  0.25137307  0.59443270  1
  Te2-  Te198  1  0.41210054  0.25091439  0.91996957  1
  Te2-  Te199  1  0.41046679  0.58559356  0.24978141  1
  Te2-  Te200  1  0.41519800  0.58569186  0.58272110  1
  Te2-  Te201  1  0.41375044  0.58587135  0.91954649  1
  Te2-  Te202  1  0.41798497  0.91509760  0.25640528  1
  Te2-  Te203  1  0.41752202  0.91867678  0.58257079  1
  Te2-  Te204  1  0.41403346  0.92264571  0.92156503  1
  Te2-  Te205  1  0.74407816  0.25202616  0.25222275  1
  Te2-  Te206  1  0.75286212  0.25586945  0.58706919  1
  Te2-  Te207  1  0.74869101  0.25574637  0.91982243  1
  Te2-  Te208  1  0.74687644  0.57967731  0.25620464  1
  Te2-  Te209  1  0.74316630  0.58748875  0.58581630  1
  Te2-  Te210  1  0.74444608  0.58606758  0.92675159  1
  Te2-  Te211  1  0.74561660  0.92858798  0.25282476  1
  Te2-  Te212  1  0.74488041  0.91743054  0.58488945  1
  Te2-  Te213  1  0.74817385  0.91982426  0.91739333  1
  Te2-  Te214  1  0.07707259  0.07962736  0.08211564  1
  Te2-  Te215  1  0.08370861  0.08089627  0.41841433  1
  Te2-  Te216  1  0.07226740  0.07203343  0.74224957  1
  Te2-  Te217  1  0.08064625  0.41464333  0.08149166  1
  Te2-  Te218  1  0.08319423  0.41451373  0.41410794  1
  Te2-  Te219  1  0.07872748  0.41874784  0.74660962  1
  Te2-  Te220  1  0.08027284  0.74823061  0.08051134  1
  Te2-  Te221  1  0.07977758  0.74898412  0.41490101  1
  Te2-  Te222  1  0.08508163  0.75012155  0.74271985  1
  Te2-  Te223  1  0.41297830  0.08023799  0.07975166  1
  Te2-  Te224  1  0.41359648  0.08087414  0.41514865  1
  Te2-  Te225  1  0.41976286  0.08141443  0.74526768  1
  Te2-  Te226  1  0.41152652  0.41066411  0.08138475  1
  Te2-  Te227  1  0.41423764  0.40768182  0.40752640  1
  Te2-  Te228  1  0.41101618  0.41263642  0.74722437  1
  Te2-  Te229  1  0.41521312  0.74267183  0.08262408  1
  Te2-  Te230  1  0.41129937  0.74840836  0.40720042  1
  Te2-  Te231  1  0.41500701  0.74713201  0.74714729  1
  Te2-  Te232  1  0.74676048  0.08241025  0.07758208  1
  Te2-  Te233  1  0.74752066  0.08802141  0.41372299  1
  Te2-  Te234  1  0.74719539  0.08261791  0.74826666  1
  Te2-  Te235  1  0.75051648  0.41300245  0.08489211  1
  Te2-  Te236  1  0.74660486  0.41220325  0.41632542  1
  Te2-  Te237  1  0.74770211  0.41697055  0.75049406  1
  Te2-  Te238  1  0.74373299  0.74559266  0.08307302  1
  Te2-  Te239  1  0.74761187  0.73898418  0.41371541  1
  Te2-  Te240  1  0.74419104  0.74910628  0.74521545  1
