# generated using pymatgen
data_Ti27(Cu53Te54)2
_symmetry_space_group_name_H-M   'P 1'
_cell_length_a   17.93915574
_cell_length_b   17.95085840
_cell_length_c   17.94444590
_cell_angle_alpha   89.98642396
_cell_angle_beta   89.94360654
_cell_angle_gamma   89.93119155
_symmetry_Int_Tables_number   1
_chemical_formula_structural   Ti27(Cu53Te54)2
_chemical_formula_sum   'Ti27 Cu106 Te108'
_cell_volume   5778.52156504
_cell_formula_units_Z   1
loop_
 _symmetry_equiv_pos_site_id
 _symmetry_equiv_pos_as_xyz
  1  'x, y, z'
loop_
 _atom_type_symbol
 _atom_type_oxidation_number
  Ti4+  4.0
  Cu+  1.0
  Te2-  -2.0
loop_
 _atom_site_type_symbol
 _atom_site_label
 _atom_site_symmetry_multiplicity
 _atom_site_fract_x
 _atom_site_fract_y
 _atom_site_fract_z
 _atom_site_occupancy
  Ti4+  Ti0  1  0.16620728  0.17120107  0.16792285  1
  Ti4+  Ti1  1  0.16413242  0.16609933  0.50101938  1
  Ti4+  Ti2  1  0.17069709  0.16636102  0.83351687  1
  Ti4+  Ti3  1  0.16853143  0.50233464  0.16419909  1
  Ti4+  Ti4  1  0.16816339  0.50177251  0.49947118  1
  Ti4+  Ti5  1  0.16847317  0.49738004  0.83227498  1
  Ti4+  Ti6  1  0.16532436  0.83448853  0.16402417  1
  Ti4+  Ti7  1  0.16541226  0.83454835  0.50103863  1
  Ti4+  Ti8  1  0.16358365  0.83092437  0.83128799  1
  Ti4+  Ti9  1  0.50313422  0.16556031  0.16700267  1
  Ti4+  Ti10  1  0.49811756  0.16584896  0.49870445  1
  Ti4+  Ti11  1  0.50314267  0.16777231  0.83734341  1
  Ti4+  Ti12  1  0.50047647  0.50221522  0.16575715  1
  Ti4+  Ti13  1  0.49823719  0.49934587  0.49686698  1
  Ti4+  Ti14  1  0.49950639  0.49946484  0.83135997  1
  Ti4+  Ti15  1  0.49972058  0.83810824  0.16431873  1
  Ti4+  Ti16  1  0.49907510  0.83349739  0.49792775  1
  Ti4+  Ti17  1  0.50187670  0.83755088  0.83339902  1
  Ti4+  Ti18  1  0.83788170  0.16292378  0.16954616  1
  Ti4+  Ti19  1  0.83539913  0.16799379  0.50334493  1
  Ti4+  Ti20  1  0.83403378  0.16853476  0.83350422  1
  Ti4+  Ti21  1  0.83451683  0.49794995  0.16838434  1
  Ti4+  Ti22  1  0.83295187  0.50047539  0.50027818  1
  Ti4+  Ti23  1  0.83212555  0.49936024  0.83314658  1
  Ti4+  Ti24  1  0.83115768  0.83038344  0.16673957  1
  Ti4+  Ti25  1  0.83168966  0.83393794  0.50428840  1
  Ti4+  Ti26  1  0.82619312  0.82776287  0.83018953  1
  Cu+  Cu27  1  0.17289219  0.17209169  0.00142401  1
  Cu+  Cu28  1  0.16364453  0.16548562  0.33233711  1
  Cu+  Cu29  1  0.16083180  0.16704101  0.66874054  1
  Cu+  Cu30  1  0.16828717  0.50164198  -0.00067715  1
  Cu+  Cu31  1  0.16656023  0.50055873  0.33155734  1
  Cu+  Cu32  1  0.17121680  0.49611940  0.66640850  1
  Cu+  Cu33  1  0.16411882  0.83390246  -0.00182044  1
  Cu+  Cu34  1  0.16714077  0.83431016  0.33551728  1
  Cu+  Cu35  1  0.16494828  0.83116247  0.66721503  1
  Cu+  Cu36  1  0.50465731  0.16005677  0.00286482  1
  Cu+  Cu37  1  0.49726902  0.16334879  0.33314653  1
  Cu+  Cu38  1  0.49972373  0.16848476  0.66746916  1
  Cu+  Cu39  1  0.50128529  0.50361867  -0.00159563  1
  Cu+  Cu40  1  0.49584071  0.50324377  0.33212379  1
  Cu+  Cu41  1  0.49771961  0.49645298  0.66052757  1
  Cu+  Cu42  1  0.50216568  0.83896778  -0.00188005  1
  Cu+  Cu43  1  0.49955656  0.83799623  0.33022042  1
  Cu+  Cu44  1  0.50394229  0.83580822  0.66494427  1
  Cu+  Cu45  1  0.83325764  0.16473252  0.00154857  1
  Cu+  Cu46  1  0.84259511  0.16514531  0.33818782  1
  Cu+  Cu47  1  0.83234191  0.17202728  0.66835270  1
  Cu+  Cu48  1  0.83403324  0.49655997  0.00164286  1
  Cu+  Cu49  1  0.83367652  0.50027848  0.33566277  1
  Cu+  Cu50  1  0.83418892  0.50411697  0.66569538  1
  Cu+  Cu51  1  0.82909689  0.82626786  -0.00053954  1
  Cu+  Cu52  1  0.83145872  0.83175295  0.33675504  1
  Cu+  Cu53  1  0.82146087  0.82945593  0.66399513  1
  Cu+  Cu54  1  0.16257938  0.00387465  0.16322980  1
  Cu+  Cu55  1  0.16376128  -0.00065526  0.50512907  1
  Cu+  Cu56  1  0.16989508  -0.00634463  0.83744646  1
  Cu+  Cu57  1  0.16490599  0.33937517  0.16813749  1
  Cu+  Cu58  1  0.16679169  0.33304506  0.49892826  1
  Cu+  Cu59  1  0.17387933  0.33226464  0.82868768  1
  Cu+  Cu60  1  0.16859902  0.66847886  0.16355992  1
  Cu+  Cu61  1  0.16655127  0.66944147  0.49992407  1
  Cu+  Cu62  1  0.16480818  0.66561048  0.83151392  1
  Cu+  Cu63  1  0.50484207  0.00312025  0.16933658  1
  Cu+  Cu64  1  0.50021477  0.00066409  0.49980669  1
  Cu+  Cu65  1  0.50061881  0.00442642  0.84162429  1
  Cu+  Cu66  1  0.50243181  0.33532999  0.16573333  1
  Cu+  Cu67  1  0.49775298  0.33150963  0.49770938  1
  Cu+  Cu68  1  0.49963328  0.33346035  0.83413065  1
  Cu+  Cu69  1  0.49834715  0.67086753  0.16302311  1
  Cu+  Cu70  1  0.49392725  0.66341668  0.49276787  1
  Cu+  Cu71  1  0.50371609  0.66579879  0.83465349  1
  Cu+  Cu72  1  0.84025605  -0.00957397  0.17201622  1
  Cu+  Cu73  1  0.83582582  0.00400937  0.50043778  1
  Cu+  Cu74  1  0.83184624  -0.00011038  0.83259391  1
  Cu+  Cu75  1  0.83627603  0.32893924  0.16906013  1
  Cu+  Cu76  1  0.83334714  0.33588452  0.50127450  1
  Cu+  Cu77  1  0.83156798  0.33371963  0.83251224  1
  Cu+  Cu78  1  0.83126195  0.66499242  0.16609354  1
  Cu+  Cu79  1  0.83487427  0.66518617  0.50726860  1
  Cu+  Cu80  1  0.82555092  0.66135494  0.82767740  1
  Cu+  Cu81  1  0.00167903  0.16847245  0.17544845  1
  Cu+  Cu82  1  0.00113330  0.16004516  0.50483884  1
  Cu+  Cu83  1  0.00164598  0.16746042  0.83197836  1
  Cu+  Cu84  1  0.00211656  0.49876365  0.16663005  1
  Cu+  Cu85  1  -0.00061922  0.50455123  0.50224857  1
  Cu+  Cu86  1  0.00079218  0.49729241  0.83403818  1
  Cu+  Cu87  1  -0.00108298  0.83152252  0.16490868  1
  Cu+  Cu88  1  0.00098211  0.83260013  0.50105733  1
  Cu+  Cu89  1  -0.00479277  0.82691045  0.83117716  1
  Cu+  Cu90  1  0.33495882  0.16772588  0.16841370  1
  Cu+  Cu91  1  0.33048690  0.16684427  0.49899083  1
  Cu+  Cu92  1  0.33512747  0.16848411  0.84249918  1
  Cu+  Cu93  1  0.33323233  0.50148219  0.16326562  1
  Cu+  Cu94  1  0.33505579  0.50359566  0.49445142  1
  Cu+  Cu95  1  0.33387229  0.49582949  0.82798538  1
  Cu+  Cu96  1  0.33248272  0.83582421  0.16201948  1
  Cu+  Cu97  1  0.33137191  0.83375998  0.49834920  1
  Cu+  Cu98  1  0.33193930  0.83478295  0.83323038  1
  Cu+  Cu99  1  0.67399851  0.16557278  0.16191324  1
  Cu+  Cu100  1  0.66586538  0.16895033  0.50072985  1
  Cu+  Cu101  1  0.66971764  0.17234630  0.83189531  1
  Cu+  Cu102  1  0.66666535  0.49944520  0.16741385  1
  Cu+  Cu103  1  0.66292905  0.49583018  0.49596324  1
  Cu+  Cu104  1  0.66483867  0.50417375  0.83416513  1
  Cu+  Cu105  1  0.66640466  0.83537472  0.16858267  1
  Cu+  Cu106  1  0.66367294  0.83551880  0.50604322  1
  Cu+  Cu107  1  0.66275386  0.83638713  0.82615073  1
  Cu+  Cu108  1  0.59711143  0.92780643  0.92516178  1
  Cu+  Cu109  1  0.26167192  0.26474576  0.93068518  1
  Cu+  Cu110  1  0.25769771  0.91723699  0.92828356  1
  Cu+  Cu111  1  0.07399255  0.41653282  0.26267499  1
  Cu+  Cu112  1  0.73569924  0.58413522  0.73645856  1
  Cu+  Cu113  1  0.59565524  0.92663978  0.26143083  1
  Cu+  Cu114  1  0.26486449  0.40517284  0.73342820  1
  Cu+  Cu115  1  0.93243264  0.59357574  0.59604403  1
  Cu+  Cu116  1  0.73767357  0.26246733  0.73679350  1
  Cu+  Cu117  1  0.40598314  0.07623255  0.93023096  1
  Cu+  Cu118  1  0.40350180  0.59524411  0.39935787  1
  Cu+  Cu119  1  0.73385814  0.73461071  0.58269393  1
  Cu+  Cu120  1  0.07832586  0.07159893  0.25710477  1
  Cu+  Cu121  1  0.92803581  0.07135143  0.41240254  1
  Cu+  Cu122  1  0.59304381  0.59255036  0.93028175  1
  Cu+  Cu123  1  0.07570967  0.06899508  0.60121429  1
  Cu+  Cu124  1  0.74395029  0.93142726  0.73916473  1
  Cu+  Cu125  1  0.92350136  0.26159775  0.26556021  1
  Cu+  Cu126  1  0.58782546  0.93311068  0.59152541  1
  Cu+  Cu127  1  0.07456205  0.26189840  0.74311010  1
  Cu+  Cu128  1  0.40567757  0.07610601  0.26311978  1
  Cu+  Cu129  1  0.93153904  0.90524045  0.26591610  1
  Cu+  Cu130  1  0.60269847  0.07418408  0.07682751  1
  Cu+  Cu131  1  0.57937999  0.73623253  0.73607209  1
  Cu+  Cu132  1  0.74640965  0.26065824  0.07531740  1
  Te2-  Te133  1  0.25513936  0.25737539  0.08578151  1
  Te2-  Te134  1  0.24874088  0.24965359  0.41364259  1
  Te2-  Te135  1  0.25920688  0.24763352  0.74402408  1
  Te2-  Te136  1  0.25344705  0.58753878  0.07829113  1
  Te2-  Te137  1  0.24959351  0.58872723  0.41120490  1
  Te2-  Te138  1  0.25223782  0.58561461  0.74789833  1
  Te2-  Te139  1  0.25002703  0.92277511  0.07993218  1
  Te2-  Te140  1  0.24992891  0.92123352  0.41670382  1
  Te2-  Te141  1  0.25094636  0.91673769  0.74567674  1
  Te2-  Te142  1  0.58814974  0.25327427  0.08058120  1
  Te2-  Te143  1  0.58308366  0.24968894  0.41303755  1
  Te2-  Te144  1  0.58472834  0.25441529  0.74736250  1
  Te2-  Te145  1  0.58768895  0.58892580  0.08214689  1
  Te2-  Te146  1  0.58563316  0.58483223  0.41197961  1
  Te2-  Te147  1  0.58329735  0.58415085  0.73895019  1
  Te2-  Te148  1  0.59112185  0.92287450  0.07806213  1
  Te2-  Te149  1  0.58697294  0.92007541  0.41389528  1
  Te2-  Te150  1  0.58515290  0.92988272  0.74486497  1
  Te2-  Te151  1  0.92178482  0.24768565  0.08231185  1
  Te2-  Te152  1  0.92403061  0.25528903  0.42077348  1
  Te2-  Te153  1  0.92098389  0.25535787  0.74776462  1
  Te2-  Te154  1  0.91805012  0.58297339  0.08302464  1
  Te2-  Te155  1  0.91718324  0.58779600  0.41553177  1
  Te2-  Te156  1  0.92204674  0.58568135  0.74918942  1
  Te2-  Te157  1  0.91636761  0.91259268  0.07680677  1
  Te2-  Te158  1  0.92068194  0.91799128  0.41699647  1
  Te2-  Te159  1  0.91242822  0.91275948  0.74640385  1
  Te2-  Te160  1  0.25124265  0.08112870  0.25173328  1
  Te2-  Te161  1  0.25029947  0.08310640  0.58722170  1
  Te2-  Te162  1  0.25276243  0.07706121  0.92440016  1
  Te2-  Te163  1  0.25481026  0.41708932  0.25110046  1
  Te2-  Te164  1  0.25611887  0.41388275  0.58011545  1
  Te2-  Te165  1  0.25561406  0.41458011  0.92122713  1
  Te2-  Te166  1  0.25112669  0.75230545  0.24910099  1
  Te2-  Te167  1  0.25188539  0.74952229  0.58491448  1
  Te2-  Te168  1  0.25074137  0.74646410  0.91707289  1
  Te2-  Te169  1  0.59326269  0.08331277  0.25478365  1
  Te2-  Te170  1  0.58588784  0.08398532  0.58685996  1
  Te2-  Te171  1  0.59723758  0.08214806  0.92065308  1
  Te2-  Te172  1  0.58335368  0.41748187  0.25271948  1
  Te2-  Te173  1  0.58350175  0.41166760  0.58163700  1
  Te2-  Te174  1  0.58529226  0.41516490  0.91717711  1
  Te2-  Te175  1  0.58227674  0.75014682  0.24997314  1
  Te2-  Te176  1  0.58150085  0.74001064  0.58277813  1
  Te2-  Te177  1  0.58769243  0.74995563  0.92011034  1
  Te2-  Te178  1  0.92486814  0.07214494  0.25736833  1
  Te2-  Te179  1  0.91773598  0.08036577  0.59380212  1
  Te2-  Te180  1  0.91854719  0.08166735  0.91671437  1
  Te2-  Te181  1  0.92115523  0.41304842  0.25753354  1
  Te2-  Te182  1  0.91859487  0.41595416  0.58640424  1
  Te2-  Te183  1  0.91745491  0.41407613  0.91731220  1
  Te2-  Te184  1  0.91711482  0.74545141  0.25324148  1
  Te2-  Te185  1  0.92035453  0.74998059  0.58984315  1
  Te2-  Te186  1  0.91114431  0.74285269  0.91407180  1
  Te2-  Te187  1  0.08083393  0.25921730  0.25762529  1
  Te2-  Te188  1  0.07856599  0.25536791  0.58547035  1
  Te2-  Te189  1  0.08522059  0.25342646  0.91673255  1
  Te2-  Te190  1  0.08232632  0.58805782  0.24987266  1
  Te2-  Te191  1  0.08555638  0.58643822  0.58859408  1
  Te2-  Te192  1  0.08257418  0.58301206  0.91661214  1
  Te2-  Te193  1  0.08033704  0.91920800  0.25438224  1
  Te2-  Te194  1  0.07732693  0.91754755  0.59011085  1
  Te2-  Te195  1  0.07469685  0.91523783  0.91562722  1
  Te2-  Te196  1  0.41793702  0.25315538  0.25037740  1
  Te2-  Te197  1  0.41342305  0.25029753  0.58395470  1
  Te2-  Te198  1  0.41958712  0.25448223  0.92610516  1
  Te2-  Te199  1  0.41207964  0.58997067  0.24751343  1
  Te2-  Te200  1  0.41308901  0.58530686  0.58467962  1
  Te2-  Te201  1  0.41275006  0.58469145  0.91394270  1
  Te2-  Te202  1  0.41095681  0.92237394  0.25042225  1
  Te2-  Te203  1  0.41418028  0.91740591  0.58432691  1
  Te2-  Te204  1  0.41129451  0.92108704  0.92162558  1
  Te2-  Te205  1  0.75166183  0.24622606  0.25635489  1
  Te2-  Te206  1  0.74632847  0.25556264  0.58469415  1
  Te2-  Te207  1  0.74863920  0.25430966  0.92239342  1
  Te2-  Te208  1  0.74918643  0.58304256  0.25238550  1
  Te2-  Te209  1  0.73842957  0.58344239  0.58469187  1
  Te2-  Te210  1  0.74770218  0.58471619  0.92360008  1
  Te2-  Te211  1  0.74690022  0.91875778  0.25658410  1
  Te2-  Te212  1  0.74483663  0.92796552  0.58591156  1
  Te2-  Te213  1  0.74762484  0.91688050  0.91956528  1
  Te2-  Te214  1  0.08064100  0.08967536  0.07944609  1
  Te2-  Te215  1  0.08013902  0.07615885  0.41266781  1
  Te2-  Te216  1  0.08254903  0.07535790  0.75374420  1
  Te2-  Te217  1  0.08247527  0.41637212  0.07794260  1
  Te2-  Te218  1  0.07969438  0.41699374  0.41734822  1
  Te2-  Te219  1  0.08053217  0.41302167  0.74583683  1
  Te2-  Te220  1  0.08092044  0.74827964  0.08036008  1
  Te2-  Te221  1  0.08069795  0.74906693  0.41484433  1
  Te2-  Te222  1  0.07918186  0.74480536  0.74631230  1
  Te2-  Te223  1  0.41285872  0.07912246  0.08286304  1
  Te2-  Te224  1  0.41075217  0.07821575  0.41581854  1
  Te2-  Te225  1  0.41659895  0.08462573  0.75238143  1
  Te2-  Te226  1  0.41745706  0.41680742  0.08001907  1
  Te2-  Te227  1  0.41343956  0.41287079  0.41175576  1
  Te2-  Te228  1  0.41646908  0.41063074  0.74399451  1
  Te2-  Te229  1  0.41607611  0.75322494  0.07743426  1
  Te2-  Te230  1  0.41231892  0.75176534  0.40962057  1
  Te2-  Te231  1  0.41705832  0.75111410  0.74911676  1
  Te2-  Te232  1  0.75630126  0.07208273  0.08309049  1
  Te2-  Te233  1  0.74932247  0.08481298  0.41669564  1
  Te2-  Te234  1  0.74684370  0.08308953  0.74640969  1
  Te2-  Te235  1  0.74846996  0.41210550  0.08357736  1
  Te2-  Te236  1  0.74887525  0.41410562  0.41440699  1
  Te2-  Te237  1  0.74523771  0.41554267  0.74602220  1
  Te2-  Te238  1  0.74397406  0.74583368  0.08357914  1
  Te2-  Te239  1  0.74736574  0.74798559  0.41989910  1
  Te2-  Te240  1  0.73634486  0.73947834  0.74157661  1
