# generated using pymatgen
data_Ti27(Cu53Te54)2
_symmetry_space_group_name_H-M   'P 1'
_cell_length_a   17.87429497
_cell_length_b   17.87167103
_cell_length_c   17.87023625
_cell_angle_alpha   89.98490060
_cell_angle_beta   90.02438991
_cell_angle_gamma   89.96234091
_symmetry_Int_Tables_number   1
_chemical_formula_structural   Ti27(Cu53Te54)2
_chemical_formula_sum   'Ti27 Cu106 Te108'
_cell_volume   5708.52921880
_cell_formula_units_Z   1
loop_
 _symmetry_equiv_pos_site_id
 _symmetry_equiv_pos_as_xyz
  1  'x, y, z'
loop_
 _atom_type_symbol
 _atom_type_oxidation_number
  Ti4+  4.0
  Cu+  1.0
  Te2-  -2.0
loop_
 _atom_site_type_symbol
 _atom_site_label
 _atom_site_symmetry_multiplicity
 _atom_site_fract_x
 _atom_site_fract_y
 _atom_site_fract_z
 _atom_site_occupancy
  Ti4+  Ti0  1  0.16583200  0.16710913  0.16832178  1
  Ti4+  Ti1  1  0.17009491  0.16601048  0.49942482  1
  Ti4+  Ti2  1  0.16814048  0.16769498  0.83370325  1
  Ti4+  Ti3  1  0.16479225  0.49899559  0.16695134  1
  Ti4+  Ti4  1  0.16895350  0.50245303  0.49721527  1
  Ti4+  Ti5  1  0.16565936  0.50106658  0.83432378  1
  Ti4+  Ti6  1  0.16759714  0.83333233  0.16630021  1
  Ti4+  Ti7  1  0.16402906  0.83343791  0.50085564  1
  Ti4+  Ti8  1  0.16543588  0.83340379  0.83751005  1
  Ti4+  Ti9  1  0.50172022  0.16713837  0.16652921  1
  Ti4+  Ti10  1  0.50006924  0.16595919  0.49801126  1
  Ti4+  Ti11  1  0.50127038  0.16675262  0.83232664  1
  Ti4+  Ti12  1  0.50067181  0.49932518  0.16724411  1
  Ti4+  Ti13  1  0.50021121  0.50079802  0.50056230  1
  Ti4+  Ti14  1  0.50258468  0.50185158  0.83558003  1
  Ti4+  Ti15  1  0.50100658  0.83585678  0.16545614  1
  Ti4+  Ti16  1  0.50097966  0.83591806  0.50023388  1
  Ti4+  Ti17  1  0.49521887  0.83113186  0.82937641  1
  Ti4+  Ti18  1  0.83323638  0.16606689  0.16629381  1
  Ti4+  Ti19  1  0.83565291  0.16786616  0.50134461  1
  Ti4+  Ti20  1  0.83364585  0.16568757  0.83282955  1
  Ti4+  Ti21  1  0.82995273  0.49672456  0.16759039  1
  Ti4+  Ti22  1  0.83264791  0.49863412  0.49770631  1
  Ti4+  Ti23  1  0.83405675  0.49876107  0.83274349  1
  Ti4+  Ti24  1  0.83428665  0.83201274  0.17083641  1
  Ti4+  Ti25  1  0.83113665  0.83669342  0.49644592  1
  Ti4+  Ti26  1  0.83228072  0.83075889  0.83412679  1
  Cu+  Cu27  1  0.16396926  0.16681996  0.00227675  1
  Cu+  Cu28  1  0.17256522  0.17066501  0.33316903  1
  Cu+  Cu29  1  0.16861061  0.16533050  0.66757269  1
  Cu+  Cu30  1  0.16476502  0.49924466  0.00092427  1
  Cu+  Cu31  1  0.17026116  0.50456465  0.33101944  1
  Cu+  Cu32  1  0.16492701  0.50215018  0.66267030  1
  Cu+  Cu33  1  0.16627177  0.83585873  -0.00205189  1
  Cu+  Cu34  1  0.16711303  0.82963060  0.33514866  1
  Cu+  Cu35  1  0.16574926  0.83540348  0.67096269  1
  Cu+  Cu36  1  0.50399131  0.16456018  -0.00068117  1
  Cu+  Cu37  1  0.49668867  0.16395207  0.33180201  1
  Cu+  Cu38  1  0.50064296  0.16551741  0.66466351  1
  Cu+  Cu39  1  0.50347510  0.49964337  0.00271189  1
  Cu+  Cu40  1  0.50002968  0.50078667  0.33612321  1
  Cu+  Cu41  1  0.50164922  0.50306821  0.66808084  1
  Cu+  Cu42  1  0.49532009  0.83283665  -0.00244461  1
  Cu+  Cu43  1  0.50413517  0.84159024  0.33189038  1
  Cu+  Cu44  1  0.49917234  0.82615625  0.66413700  1
  Cu+  Cu45  1  0.83146612  0.16416337  -0.00250991  1
  Cu+  Cu46  1  0.83604468  0.16966369  0.33518159  1
  Cu+  Cu47  1  0.83057096  0.16958838  0.67044900  1
  Cu+  Cu48  1  0.83467079  0.49483444  0.00056162  1
  Cu+  Cu49  1  0.82883795  0.49740572  0.33054513  1
  Cu+  Cu50  1  0.83487619  0.49929079  0.66383733  1
  Cu+  Cu51  1  0.83224252  0.83258186  0.00369331  1
  Cu+  Cu52  1  0.83537962  0.82940346  0.33311511  1
  Cu+  Cu53  1  0.83082076  0.83494080  0.66560246  1
  Cu+  Cu54  1  0.16464694  0.00205298  0.16294496  1
  Cu+  Cu55  1  0.16177535  0.00190019  0.50353191  1
  Cu+  Cu56  1  0.16933855  -0.00007810  0.83724314  1
  Cu+  Cu57  1  0.16650656  0.33146140  0.16824430  1
  Cu+  Cu58  1  0.16939399  0.33514585  0.49733089  1
  Cu+  Cu59  1  0.16748122  0.33449273  0.83229410  1
  Cu+  Cu60  1  0.16625895  0.66636063  0.16997475  1
  Cu+  Cu61  1  0.16976469  0.66787262  0.49427040  1
  Cu+  Cu62  1  0.16367059  0.66825000  0.83668024  1
  Cu+  Cu63  1  0.50526907  0.00222973  0.16790514  1
  Cu+  Cu64  1  0.49708430  0.00344665  0.50182980  1
  Cu+  Cu65  1  0.50021324  -0.00160365  0.83024936  1
  Cu+  Cu66  1  0.49983895  0.33426728  0.16453449  1
  Cu+  Cu67  1  0.50245695  0.33330266  0.49873761  1
  Cu+  Cu68  1  0.50203824  0.33446108  0.83575873  1
  Cu+  Cu69  1  0.50193016  0.66471454  0.16442004  1
  Cu+  Cu70  1  0.49935425  0.66886804  0.50151205  1
  Cu+  Cu71  1  0.49511521  0.66519541  0.82800009  1
  Cu+  Cu72  1  0.83573505  -0.00209036  0.16846052  1
  Cu+  Cu73  1  0.83640407  0.00146107  0.50184499  1
  Cu+  Cu74  1  0.83198351  -0.00113169  0.83556867  1
  Cu+  Cu75  1  0.83442014  0.33140022  0.16869881  1
  Cu+  Cu76  1  0.83476110  0.33436842  0.49931013  1
  Cu+  Cu77  1  0.83097173  0.33051369  0.83043026  1
  Cu+  Cu78  1  0.82821246  0.66521920  0.17292557  1
  Cu+  Cu79  1  0.82947247  0.66605940  0.49425842  1
  Cu+  Cu80  1  0.83451334  0.66312337  0.83383971  1
  Cu+  Cu81  1  -0.00118015  0.17093902  0.16970704  1
  Cu+  Cu82  1  0.00517746  0.16390767  0.50050864  1
  Cu+  Cu83  1  -0.00016858  0.16587812  0.83521537  1
  Cu+  Cu84  1  -0.00580805  0.49717539  0.16197781  1
  Cu+  Cu85  1  0.00387203  0.49993998  0.49690024  1
  Cu+  Cu86  1  -0.00009808  0.49999941  0.83227033  1
  Cu+  Cu87  1  0.00413148  0.83215100  0.17150819  1
  Cu+  Cu88  1  -0.00685677  0.83880500  0.49956489  1
  Cu+  Cu89  1  0.00013465  0.83118708  0.83781034  1
  Cu+  Cu90  1  0.33302767  0.16730379  0.17156704  1
  Cu+  Cu91  1  0.33653798  0.16390604  0.50113544  1
  Cu+  Cu92  1  0.33413838  0.16808564  0.83289149  1
  Cu+  Cu93  1  0.33491558  0.50042275  0.16739025  1
  Cu+  Cu94  1  0.33342631  0.50013942  0.49914343  1
  Cu+  Cu95  1  0.33349982  0.50310142  0.83523960  1
  Cu+  Cu96  1  0.33441092  0.83559618  0.16165866  1
  Cu+  Cu97  1  0.33354657  0.83362971  0.50068811  1
  Cu+  Cu98  1  0.32941380  0.82912490  0.83933843  1
  Cu+  Cu99  1  0.66598803  0.16367081  0.15913708  1
  Cu+  Cu100  1  0.66666662  0.16792174  0.49789510  1
  Cu+  Cu101  1  0.66903095  0.16866177  0.82938820  1
  Cu+  Cu102  1  0.66599880  0.49374612  0.16874648  1
  Cu+  Cu103  1  0.66530823  0.50030173  0.49912423  1
  Cu+  Cu104  1  0.66886568  0.49926853  0.83601898  1
  Cu+  Cu105  1  0.66474351  0.83734660  0.17110098  1
  Cu+  Cu106  1  0.66732427  0.83810629  0.49760495  1
  Cu+  Cu107  1  0.66545920  0.83177221  0.82901023  1
  Cu+  Cu108  1  0.40949300  0.73544499  0.92993376  1
  Cu+  Cu109  1  0.07916666  0.73840898  0.26271823  1
  Cu+  Cu110  1  0.93417097  0.93025274  0.25533641  1
  Cu+  Cu111  1  0.26541760  0.59433110  0.25315700  1
  Cu+  Cu112  1  0.92462981  0.73723552  0.41510544  1
  Cu+  Cu113  1  0.26575906  0.74573908  0.40641171  1
  Cu+  Cu114  1  0.40335867  0.58321960  0.73806084  1
  Cu+  Cu115  1  0.73709979  0.26356634  0.73773698  1
  Cu+  Cu116  1  0.91878824  0.92723879  0.59883102  1
  Cu+  Cu117  1  0.40789577  0.07561882  0.59766703  1
  Cu+  Cu118  1  0.73528241  0.39920740  0.25965815  1
  Cu+  Cu119  1  0.92725982  0.26001418  0.26474609  1
  Cu+  Cu120  1  0.40440153  0.73910284  0.58587657  1
  Cu+  Cu121  1  0.92276605  0.58668372  0.25709036  1
  Cu+  Cu122  1  0.40404188  0.07060727  0.25607741  1
  Cu+  Cu123  1  0.06829584  0.73777624  0.92765822  1
  Cu+  Cu124  1  0.07375363  0.07983394  0.59863018  1
  Cu+  Cu125  1  0.73283588  0.73977891  0.25884211  1
  Cu+  Cu126  1  0.26432063  0.26256041  0.26141531  1
  Cu+  Cu127  1  0.59681216  0.73934118  0.73929935  1
  Cu+  Cu128  1  0.24845041  0.73930699  0.74231167  1
  Cu+  Cu129  1  0.92408963  0.40205624  0.06892497  1
  Cu+  Cu130  1  0.59666711  0.93328590  0.26273663  1
  Cu+  Cu131  1  0.26167893  0.93209650  0.92712292  1
  Cu+  Cu132  1  0.59380771  0.07091855  0.06715333  1
  Te2-  Te133  1  0.25246580  0.25068421  0.08210996  1
  Te2-  Te134  1  0.25864750  0.25406195  0.41641270  1
  Te2-  Te135  1  0.25277563  0.25266219  0.74735801  1
  Te2-  Te136  1  0.25041244  0.58491120  0.08245403  1
  Te2-  Te137  1  0.25980446  0.59000075  0.40989839  1
  Te2-  Te138  1  0.25044625  0.58753500  0.74518007  1
  Te2-  Te139  1  0.25216276  0.92156594  0.08042035  1
  Te2-  Te140  1  0.24923029  0.91935561  0.41711706  1
  Te2-  Te141  1  0.25393639  0.91901591  0.75056203  1
  Te2-  Te142  1  0.58562378  0.25436114  0.07979013  1
  Te2-  Te143  1  0.58458746  0.25083674  0.41135697  1
  Te2-  Te144  1  0.58380430  0.25440309  0.74470441  1
  Te2-  Te145  1  0.58946935  0.58335913  0.08334929  1
  Te2-  Te146  1  0.58430481  0.58786186  0.41571907  1
  Te2-  Te147  1  0.59103007  0.58648545  0.74788941  1
  Te2-  Te148  1  0.58660411  0.91762501  0.07522176  1
  Te2-  Te149  1  0.58659238  0.92611036  0.41668323  1
  Te2-  Te150  1  0.58238199  0.91634026  0.74413350  1
  Te2-  Te151  1  0.91815361  0.25024624  0.07725119  1
  Te2-  Te152  1  0.92431163  0.25361011  0.41782656  1
  Te2-  Te153  1  0.92190379  0.25174797  0.74820489  1
  Te2-  Te154  1  0.91271736  0.58789455  0.08199046  1
  Te2-  Te155  1  0.92070367  0.58404026  0.41049144  1
  Te2-  Te156  1  0.91886270  0.58408632  0.74636631  1
  Te2-  Te157  1  0.92108771  0.91552953  0.08377799  1
  Te2-  Te158  1  0.91874855  0.92465924  0.40877773  1
  Te2-  Te159  1  0.91982986  0.91762689  0.75115503  1
  Te2-  Te160  1  0.25063312  0.07622364  0.25350882  1
  Te2-  Te161  1  0.25474217  0.07765136  0.58761849  1
  Te2-  Te162  1  0.25472069  0.08449566  0.92277942  1
  Te2-  Te163  1  0.25359084  0.41414465  0.25236207  1
  Te2-  Te164  1  0.25200600  0.41649426  0.58470211  1
  Te2-  Te165  1  0.25208436  0.41631886  0.91861569  1
  Te2-  Te166  1  0.25919304  0.74851505  0.25215111  1
  Te2-  Te167  1  0.25038721  0.74636345  0.58784572  1
  Te2-  Te168  1  0.25219128  0.74210297  0.92647338  1
  Te2-  Te169  1  0.59189551  0.08399840  0.25583726  1
  Te2-  Te170  1  0.58804869  0.08166529  0.58414650  1
  Te2-  Te171  1  0.58906013  0.07837608  0.91445263  1
  Te2-  Te172  1  0.58275474  0.41099391  0.25607567  1
  Te2-  Te173  1  0.58473581  0.41578921  0.58646684  1
  Te2-  Te174  1  0.58720150  0.41483321  0.92033989  1
  Te2-  Te175  1  0.58184698  0.74610668  0.25375142  1
  Te2-  Te176  1  0.59149539  0.74760373  0.58234891  1
  Te2-  Te177  1  0.58194891  0.74719834  0.91567738  1
  Te2-  Te178  1  0.92036089  0.08173591  0.25396863  1
  Te2-  Te179  1  0.92080592  0.08213707  0.59170711  1
  Te2-  Te180  1  0.91899356  0.07935355  0.91934107  1
  Te2-  Te181  1  0.92141234  0.41197489  0.25635579  1
  Te2-  Te182  1  0.92105458  0.41604562  0.58225406  1
  Te2-  Te183  1  0.92055080  0.40998374  0.91601267  1
  Te2-  Te184  1  0.92463084  0.74098291  0.25639047  1
  Te2-  Te185  1  0.91454414  0.74710557  0.58245646  1
  Te2-  Te186  1  0.91613940  0.74494489  0.92296719  1
  Te2-  Te187  1  0.08044417  0.25473068  0.25664973  1
  Te2-  Te188  1  0.08545330  0.25311656  0.58439733  1
  Te2-  Te189  1  0.08239770  0.25291269  0.91813161  1
  Te2-  Te190  1  0.07552930  0.58449849  0.25350789  1
  Te2-  Te191  1  0.08239406  0.58882411  0.58086906  1
  Te2-  Te192  1  0.07775139  0.58474749  0.92154712  1
  Te2-  Te193  1  0.08614269  0.92225956  0.25531914  1
  Te2-  Te194  1  0.07751492  0.91902135  0.59006680  1
  Te2-  Te195  1  0.07791119  0.92216005  0.92057718  1
  Te2-  Te196  1  0.41660873  0.25664939  0.25356901  1
  Te2-  Te197  1  0.41611570  0.25333832  0.58426226  1
  Te2-  Te198  1  0.41722307  0.25064985  0.91942459  1
  Te2-  Te199  1  0.41706393  0.58770180  0.25389085  1
  Te2-  Te200  1  0.40995598  0.58767992  0.58645431  1
  Te2-  Te201  1  0.41478472  0.58508278  0.92465797  1
  Te2-  Te202  1  0.41171092  0.91989011  0.25091805  1
  Te2-  Te203  1  0.41326638  0.91946673  0.58798911  1
  Te2-  Te204  1  0.41354049  0.92257862  0.91800177  1
  Te2-  Te205  1  0.74344755  0.24823604  0.25188434  1
  Te2-  Te206  1  0.74691042  0.25426309  0.58359060  1
  Te2-  Te207  1  0.74702028  0.25171242  0.91955706  1
  Te2-  Te208  1  0.73988310  0.58423487  0.25522006  1
  Te2-  Te209  1  0.74892231  0.58492749  0.58296381  1
  Te2-  Te210  1  0.75041570  0.58315322  0.92140943  1
  Te2-  Te211  1  0.74832601  0.92220672  0.25703649  1
  Te2-  Te212  1  0.74657888  0.92201594  0.58485447  1
  Te2-  Te213  1  0.74579263  0.91452634  0.91863436  1
  Te2-  Te214  1  0.07703953  0.08404269  0.08317184  1
  Te2-  Te215  1  0.08504453  0.08266055  0.41006407  1
  Te2-  Te216  1  0.08185338  0.07846509  0.75084708  1
  Te2-  Te217  1  0.08039262  0.41135819  0.08056353  1
  Te2-  Te218  1  0.08533890  0.41625557  0.41098123  1
  Te2-  Te219  1  0.08275843  0.41654702  0.74702766  1
  Te2-  Te220  1  0.08153059  0.74733012  0.08060652  1
  Te2-  Te221  1  0.07565676  0.74626414  0.41547263  1
  Te2-  Te222  1  0.07871894  0.74785028  0.74784750  1
  Te2-  Te223  1  0.41439302  0.08172597  0.08259439  1
  Te2-  Te224  1  0.41133587  0.07762272  0.41124181  1
  Te2-  Te225  1  0.41328632  0.08025147  0.74823317  1
  Te2-  Te226  1  0.41423827  0.41571866  0.08078883  1
  Te2-  Te227  1  0.41530074  0.41466511  0.41570681  1
  Te2-  Te228  1  0.41611268  0.41650281  0.75034021  1
  Te2-  Te229  1  0.41434446  0.74562060  0.08263001  1
  Te2-  Te230  1  0.41816350  0.75068162  0.40967900  1
  Te2-  Te231  1  0.40418629  0.74370226  0.74158417  1
  Te2-  Te232  1  0.75067236  0.07590178  0.07961561  1
  Te2-  Te233  1  0.75141832  0.08304419  0.41580895  1
  Te2-  Te234  1  0.74796357  0.07765376  0.74747062  1
  Te2-  Te235  1  0.74639177  0.40954983  0.08063104  1
  Te2-  Te236  1  0.74480755  0.41132766  0.41424766  1
  Te2-  Te237  1  0.74635133  0.41598963  0.74460921  1
  Te2-  Te238  1  0.74585949  0.74887444  0.08563798  1
  Te2-  Te239  1  0.74150724  0.74792042  0.41208074  1
  Te2-  Te240  1  0.75006305  0.74422960  0.74522153  1
