# generated using pymatgen
data_Ti27(Cu53Te54)2
_symmetry_space_group_name_H-M   'P 1'
_cell_length_a   17.86631241
_cell_length_b   17.86445283
_cell_length_c   17.86532497
_cell_angle_alpha   89.97916603
_cell_angle_beta   90.04761459
_cell_angle_gamma   90.01107837
_symmetry_Int_Tables_number   1
_chemical_formula_structural   Ti27(Cu53Te54)2
_chemical_formula_sum   'Ti27 Cu106 Te108'
_cell_volume   5702.10717748
_cell_formula_units_Z   1
loop_
 _symmetry_equiv_pos_site_id
 _symmetry_equiv_pos_as_xyz
  1  'x, y, z'
loop_
 _atom_type_symbol
 _atom_type_oxidation_number
  Ti4+  4.0
  Cu+  1.0
  Te2-  -2.0
loop_
 _atom_site_type_symbol
 _atom_site_label
 _atom_site_symmetry_multiplicity
 _atom_site_fract_x
 _atom_site_fract_y
 _atom_site_fract_z
 _atom_site_occupancy
  Ti4+  Ti0  1  0.16530556  0.16887875  0.16822142  1
  Ti4+  Ti1  1  0.16465601  0.16637074  0.49962840  1
  Ti4+  Ti2  1  0.16604684  0.16800685  0.83420930  1
  Ti4+  Ti3  1  0.16627732  0.50409103  0.16593348  1
  Ti4+  Ti4  1  0.16798012  0.50196132  0.49931391  1
  Ti4+  Ti5  1  0.16843300  0.50019538  0.83074759  1
  Ti4+  Ti6  1  0.16645484  0.83298311  0.16796112  1
  Ti4+  Ti7  1  0.16608842  0.83273260  0.50239638  1
  Ti4+  Ti8  1  0.16445908  0.83101509  0.83303426  1
  Ti4+  Ti9  1  0.50372722  0.16651353  0.16803771  1
  Ti4+  Ti10  1  0.49588400  0.16549861  0.49890747  1
  Ti4+  Ti11  1  0.49748280  0.16699920  0.83436525  1
  Ti4+  Ti12  1  0.49907407  0.49869083  0.16672971  1
  Ti4+  Ti13  1  0.50081667  0.49973544  0.49928493  1
  Ti4+  Ti14  1  0.50129823  0.49836184  0.83295403  1
  Ti4+  Ti15  1  0.50056173  0.83474249  0.17071272  1
  Ti4+  Ti16  1  0.50353996  0.83411202  0.49754000  1
  Ti4+  Ti17  1  0.49909099  0.83270636  0.83457377  1
  Ti4+  Ti18  1  0.83620024  0.16538890  0.16520719  1
  Ti4+  Ti19  1  0.83337448  0.16633881  0.49997295  1
  Ti4+  Ti20  1  0.83316543  0.16877971  0.83094026  1
  Ti4+  Ti21  1  0.83389239  0.49799778  0.16773498  1
  Ti4+  Ti22  1  0.83471475  0.49896945  0.50043440  1
  Ti4+  Ti23  1  0.83396485  0.49941798  0.83356856  1
  Ti4+  Ti24  1  0.83152859  0.83302116  0.16453865  1
  Ti4+  Ti25  1  0.83633867  0.83117574  0.50044003  1
  Ti4+  Ti26  1  0.82956937  0.83603776  0.83257300  1
  Cu+  Cu27  1  0.16579407  0.16814564  0.00255119  1
  Cu+  Cu28  1  0.16587689  0.16716730  0.33556815  1
  Cu+  Cu29  1  0.16285705  0.16747795  0.66578798  1
  Cu+  Cu30  1  0.16539377  0.50531611  -0.00226720  1
  Cu+  Cu31  1  0.16167880  0.50596759  0.33265331  1
  Cu+  Cu32  1  0.17361892  0.49751813  0.66791722  1
  Cu+  Cu33  1  0.16716633  0.83221930  0.00108008  1
  Cu+  Cu34  1  0.16814445  0.83128547  0.33512938  1
  Cu+  Cu35  1  0.16399436  0.82706697  0.66726557  1
  Cu+  Cu36  1  0.50068720  0.16733015  0.00139201  1
  Cu+  Cu37  1  0.49838627  0.15955788  0.33194375  1
  Cu+  Cu38  1  0.49645099  0.16713111  0.66753207  1
  Cu+  Cu39  1  0.49898201  0.49360711  0.00012391  1
  Cu+  Cu40  1  0.49965345  0.49981633  0.33267987  1
  Cu+  Cu41  1  0.50114915  0.50307049  0.66415075  1
  Cu+  Cu42  1  0.49812545  0.83606994  0.00110431  1
  Cu+  Cu43  1  0.50484996  0.84024024  0.33481627  1
  Cu+  Cu44  1  0.50247179  0.83184709  0.66650902  1
  Cu+  Cu45  1  0.83656657  0.17002927  -0.00527922  1
  Cu+  Cu46  1  0.83926060  0.16168182  0.33381835  1
  Cu+  Cu47  1  0.83045268  0.16771450  0.66673348  1
  Cu+  Cu48  1  0.83357512  0.50060587  0.00281315  1
  Cu+  Cu49  1  0.83345258  0.49983585  0.33498751  1
  Cu+  Cu50  1  0.83438411  0.49377463  0.66570812  1
  Cu+  Cu51  1  0.82360971  0.83673174  -0.00091860  1
  Cu+  Cu52  1  0.83109411  0.82909883  0.33124299  1
  Cu+  Cu53  1  0.84036311  0.83589043  0.66621771  1
  Cu+  Cu54  1  0.16356514  -0.00085650  0.16789236  1
  Cu+  Cu55  1  0.16500540  0.00182879  0.50223004  1
  Cu+  Cu56  1  0.16398975  -0.00046112  0.83538736  1
  Cu+  Cu57  1  0.16438226  0.33700779  0.16800307  1
  Cu+  Cu58  1  0.16609598  0.33141478  0.50084364  1
  Cu+  Cu59  1  0.16954223  0.33478904  0.82980765  1
  Cu+  Cu60  1  0.17062031  0.67052908  0.16351087  1
  Cu+  Cu61  1  0.16433596  0.66667844  0.49748590  1
  Cu+  Cu62  1  0.16926731  0.66561266  0.82982978  1
  Cu+  Cu63  1  0.50097207  0.00166076  0.17745350  1
  Cu+  Cu64  1  0.49869059  0.00120309  0.49300214  1
  Cu+  Cu65  1  0.49802339  -0.00011324  0.83497827  1
  Cu+  Cu66  1  0.50454403  0.33396691  0.16221800  1
  Cu+  Cu67  1  0.49772717  0.33156923  0.49914092  1
  Cu+  Cu68  1  0.49529903  0.33279656  0.83818463  1
  Cu+  Cu69  1  0.49872932  0.66373896  0.16701964  1
  Cu+  Cu70  1  0.50439989  0.66587875  0.49789511  1
  Cu+  Cu71  1  0.50333441  0.66623763  0.83114091  1
  Cu+  Cu72  1  0.83066032  -0.00156941  0.15904107  1
  Cu+  Cu73  1  0.83956727  -0.00226688  0.49927998  1
  Cu+  Cu74  1  0.82892420  0.00464026  0.83197647  1
  Cu+  Cu75  1  0.83712667  0.33072013  0.16886516  1
  Cu+  Cu76  1  0.83019435  0.33621136  0.50499053  1
  Cu+  Cu77  1  0.84042131  0.33293941  0.83287981  1
  Cu+  Cu78  1  0.83161503  0.66400790  0.16784328  1
  Cu+  Cu79  1  0.83462448  0.66193423  0.50109188  1
  Cu+  Cu80  1  0.82919356  0.66922625  0.83344289  1
  Cu+  Cu81  1  -0.00148827  0.16976207  0.17019761  1
  Cu+  Cu82  1  -0.00072682  0.16349798  0.49569009  1
  Cu+  Cu83  1  0.00016956  0.17163585  0.83538421  1
  Cu+  Cu84  1  0.00273551  0.49837744  0.17040769  1
  Cu+  Cu85  1  0.00328290  0.50652429  0.49705522  1
  Cu+  Cu86  1  -0.00032902  0.49804153  0.82918790  1
  Cu+  Cu87  1  -0.00069563  0.83483414  0.16671949  1
  Cu+  Cu88  1  -0.00049138  0.83569113  0.51051298  1
  Cu+  Cu89  1  -0.00345098  0.83353851  0.83174278  1
  Cu+  Cu90  1  0.33322902  0.16836301  0.16790232  1
  Cu+  Cu91  1  0.32825376  0.16804904  0.50197393  1
  Cu+  Cu92  1  0.33165872  0.16610936  0.83439748  1
  Cu+  Cu93  1  0.33218657  0.50399166  0.16706783  1
  Cu+  Cu94  1  0.33623923  0.50121262  0.50047238  1
  Cu+  Cu95  1  0.33604706  0.49478488  0.83302960  1
  Cu+  Cu96  1  0.33001290  0.83145705  0.16501382  1
  Cu+  Cu97  1  0.33419489  0.83315583  0.49692540  1
  Cu+  Cu98  1  0.33221647  0.83273598  0.83172140  1
  Cu+  Cu99  1  0.67253005  0.16798777  0.16463669  1
  Cu+  Cu100  1  0.66326261  0.16630410  0.49990381  1
  Cu+  Cu101  1  0.66438740  0.16842287  0.83272210  1
  Cu+  Cu102  1  0.66417909  0.49630411  0.16327378  1
  Cu+  Cu103  1  0.66903834  0.49724843  0.50293024  1
  Cu+  Cu104  1  0.66813713  0.50217169  0.83380590  1
  Cu+  Cu105  1  0.66994091  0.83615629  0.16944389  1
  Cu+  Cu106  1  0.66918397  0.82938010  0.49678598  1
  Cu+  Cu107  1  0.66369524  0.82850698  0.83497600  1
  Cu+  Cu108  1  0.60062826  0.92840314  0.25946392  1
  Cu+  Cu109  1  0.92876359  0.40343691  0.73595681  1
  Cu+  Cu110  1  0.93121162  0.26305573  0.92735451  1
  Cu+  Cu111  1  0.26148357  0.73869067  0.40725227  1
  Cu+  Cu112  1  0.73456499  0.93159999  0.06902974  1
  Cu+  Cu113  1  0.73754483  0.73778700  0.92767668  1
  Cu+  Cu114  1  0.92271328  0.25935093  0.26588763  1
  Cu+  Cu115  1  0.73533035  0.40616053  0.59717875  1
  Cu+  Cu116  1  0.59746967  0.40560320  0.06949921  1
  Cu+  Cu117  1  0.92822878  0.93292462  0.59763107  1
  Cu+  Cu118  1  0.07398464  0.73468401  0.59206990  1
  Cu+  Cu119  1  0.59650176  0.07949797  0.40772475  1
  Cu+  Cu120  1  0.40210433  0.92679791  0.40975774  1
  Cu+  Cu121  1  0.74348361  0.73364052  0.25973093  1
  Cu+  Cu122  1  0.26107158  0.74106305  0.06946520  1
  Cu+  Cu123  1  0.92290558  0.73910465  0.74560148  1
  Cu+  Cu124  1  0.40023597  0.07692570  0.25625345  1
  Cu+  Cu125  1  0.07079861  0.59927740  0.40152849  1
  Cu+  Cu126  1  0.59342484  0.73483344  0.40532810  1
  Cu+  Cu127  1  0.59409636  0.73865273  0.73857639  1
  Cu+  Cu128  1  0.26632265  0.40202313  0.73745614  1
  Cu+  Cu129  1  0.26290950  0.74143720  0.73834975  1
  Cu+  Cu130  1  0.40302393  0.40399871  0.93137888  1
  Cu+  Cu131  1  0.07891105  0.40759800  0.26297805  1
  Cu+  Cu132  1  0.92995674  0.06687853  0.40290041  1
  Te2-  Te133  1  0.25109886  0.25443327  0.08467245  1
  Te2-  Te134  1  0.25096706  0.25293740  0.41432519  1
  Te2-  Te135  1  0.25361650  0.25055612  0.74470538  1
  Te2-  Te136  1  0.25468294  0.58744311  0.07745434  1
  Te2-  Te137  1  0.25551463  0.58618503  0.41264928  1
  Te2-  Te138  1  0.25878667  0.58599307  0.74638709  1
  Te2-  Te139  1  0.25053553  0.92069009  0.08186352  1
  Te2-  Te140  1  0.24895017  0.92213826  0.41512330  1
  Te2-  Te141  1  0.24810820  0.91759770  0.74722807  1
  Te2-  Te142  1  0.59035396  0.25101476  0.07852990  1
  Te2-  Te143  1  0.58206007  0.25060746  0.41213578  1
  Te2-  Te144  1  0.58124376  0.25372252  0.74893325  1
  Te2-  Te145  1  0.58332139  0.58450129  0.07903487  1
  Te2-  Te146  1  0.59041792  0.58196175  0.41264825  1
  Te2-  Te147  1  0.58890903  0.58454149  0.74538147  1
  Te2-  Te148  1  0.58317318  0.92219420  0.08299434  1
  Te2-  Te149  1  0.59573733  0.92399302  0.41396762  1
  Te2-  Te150  1  0.58468745  0.91884793  0.74996675  1
  Te2-  Te151  1  0.92180248  0.25385538  0.07921960  1
  Te2-  Te152  1  0.91839979  0.25679567  0.41786909  1
  Te2-  Te153  1  0.92235702  0.25189106  0.74107653  1
  Te2-  Te154  1  0.91972567  0.58402969  0.08460281  1
  Te2-  Te155  1  0.91870067  0.58806677  0.41097762  1
  Te2-  Te156  1  0.91685845  0.58643411  0.74645173  1
  Te2-  Te157  1  0.91842855  0.91621085  0.07744209  1
  Te2-  Te158  1  0.92237214  0.91302593  0.41034229  1
  Te2-  Te159  1  0.91911972  0.92600654  0.75038815  1
  Te2-  Te160  1  0.24904333  0.08041686  0.25336151  1
  Te2-  Te161  1  0.24989557  0.08160512  0.58729772  1
  Te2-  Te162  1  0.24960763  0.08166792  0.92016222  1
  Te2-  Te163  1  0.25071244  0.41932662  0.25391020  1
  Te2-  Te164  1  0.25493802  0.41278727  0.58223860  1
  Te2-  Te165  1  0.25039662  0.41435826  0.92215504  1
  Te2-  Te166  1  0.25502549  0.74563995  0.25519565  1
  Te2-  Te167  1  0.25649080  0.74529843  0.58462691  1
  Te2-  Te168  1  0.25342881  0.74575912  0.91868548  1
  Te2-  Te169  1  0.59710977  0.08164402  0.25414241  1
  Te2-  Te170  1  0.58106473  0.08003967  0.58575110  1
  Te2-  Te171  1  0.58433673  0.08195764  0.91890369  1
  Te2-  Te172  1  0.58505713  0.41350259  0.25359610  1
  Te2-  Te173  1  0.58359409  0.41105077  0.58667094  1
  Te2-  Te174  1  0.59034382  0.41165675  0.91723298  1
  Te2-  Te175  1  0.58737543  0.74354042  0.25333243  1
  Te2-  Te176  1  0.58893127  0.74635985  0.58526709  1
  Te2-  Te177  1  0.58290262  0.74536489  0.92514497  1
  Te2-  Te178  1  0.92069885  0.07305591  0.24827610  1
  Te2-  Te179  1  0.92022405  0.08343361  0.58906923  1
  Te2-  Te180  1  0.91908424  0.08092495  0.91582469  1
  Te2-  Te181  1  0.92126747  0.41342844  0.25740861  1
  Te2-  Te182  1  0.92719296  0.41404365  0.58276728  1
  Te2-  Te183  1  0.92172373  0.41719301  0.92274668  1
  Te2-  Te184  1  0.91871838  0.74737500  0.24970643  1
  Te2-  Te185  1  0.91982465  0.73939835  0.58861073  1
  Te2-  Te186  1  0.91421915  0.75139349  0.92101860  1
  Te2-  Te187  1  0.07881632  0.25488873  0.25800867  1
  Te2-  Te188  1  0.07752729  0.25151225  0.58342179  1
  Te2-  Te189  1  0.08385403  0.25784828  0.92088171  1
  Te2-  Te190  1  0.07939642  0.59500999  0.24912390  1
  Te2-  Te191  1  0.08349879  0.58387177  0.59133712  1
  Te2-  Te192  1  0.08021497  0.58592350  0.91334077  1
  Te2-  Te193  1  0.08081199  0.91688760  0.25479373  1
  Te2-  Te194  1  0.08332593  0.92293594  0.59138165  1
  Te2-  Te195  1  0.07976087  0.91538710  0.91921053  1
  Te2-  Te196  1  0.41903379  0.25383854  0.25153175  1
  Te2-  Te197  1  0.41231039  0.25177344  0.58498906  1
  Te2-  Te198  1  0.40972951  0.25060902  0.92396024  1
  Te2-  Te199  1  0.41442980  0.58548540  0.25348247  1
  Te2-  Te200  1  0.41653929  0.58846051  0.58346137  1
  Te2-  Te201  1  0.41687905  0.58441940  0.91749408  1
  Te2-  Te202  1  0.40701500  0.91873061  0.25484949  1
  Te2-  Te203  1  0.41735807  0.91775497  0.58392069  1
  Te2-  Te204  1  0.41192271  0.91798574  0.91850382  1
  Te2-  Te205  1  0.75181906  0.24932087  0.25452097  1
  Te2-  Te206  1  0.74391592  0.25057051  0.58593603  1
  Te2-  Te207  1  0.74759778  0.25493181  0.91594802  1
  Te2-  Te208  1  0.74402433  0.58084390  0.25245143  1
  Te2-  Te209  1  0.74948467  0.58408373  0.58802166  1
  Te2-  Te210  1  0.74763527  0.58481050  0.92137917  1
  Te2-  Te211  1  0.75178673  0.92427010  0.25616033  1
  Te2-  Te212  1  0.74969175  0.91661537  0.58323312  1
  Te2-  Te213  1  0.74066296  0.92457374  0.91526132  1
  Te2-  Te214  1  0.07945226  0.08348766  0.08400046  1
  Te2-  Te215  1  0.08086127  0.07672836  0.41100162  1
  Te2-  Te216  1  0.07949800  0.08303074  0.75040662  1
  Te2-  Te217  1  0.08222074  0.41816535  0.07858225  1
  Te2-  Te218  1  0.08107318  0.41343238  0.41608401  1
  Te2-  Te219  1  0.08178145  0.41308304  0.74374810  1
  Te2-  Te220  1  0.07908226  0.74892191  0.08159813  1
  Te2-  Te221  1  0.07455371  0.75155654  0.41497506  1
  Te2-  Te222  1  0.07542871  0.74180075  0.74743859  1
  Te2-  Te223  1  0.41722473  0.08012535  0.08449556  1
  Te2-  Te224  1  0.40369006  0.08005602  0.41210575  1
  Te2-  Te225  1  0.41273366  0.08057075  0.74900003  1
  Te2-  Te226  1  0.40824870  0.41146690  0.08376640  1
  Te2-  Te227  1  0.41469568  0.41479624  0.41412816  1
  Te2-  Te228  1  0.41787421  0.41247893  0.74244259  1
  Te2-  Te229  1  0.41673284  0.74816176  0.08245965  1
  Te2-  Te230  1  0.41743118  0.74631490  0.41042310  1
  Te2-  Te231  1  0.41445127  0.74594351  0.74558447  1
  Te2-  Te232  1  0.74843561  0.08462415  0.07414685  1
  Te2-  Te233  1  0.74976214  0.07834899  0.41470216  1
  Te2-  Te234  1  0.74433920  0.08388674  0.74638600  1
  Te2-  Te235  1  0.75093798  0.40996547  0.08104396  1
  Te2-  Te236  1  0.74834348  0.41405193  0.41364062  1
  Te2-  Te237  1  0.74621471  0.41096609  0.75067558  1
  Te2-  Te238  1  0.74272045  0.74370337  0.08112314  1
  Te2-  Te239  1  0.74913796  0.74080634  0.41402075  1
  Te2-  Te240  1  0.74684244  0.74940333  0.74147304  1
