# generated using pymatgen
data_Ti27(Cu53Te54)2
_symmetry_space_group_name_H-M   'P 1'
_cell_length_a   17.86738128
_cell_length_b   17.86855392
_cell_length_c   17.86652795
_cell_angle_alpha   89.96598601
_cell_angle_beta   89.98890439
_cell_angle_gamma   89.99272274
_symmetry_Int_Tables_number   1
_chemical_formula_structural   Ti27(Cu53Te54)2
_chemical_formula_sum   'Ti27 Cu106 Te108'
_cell_volume   5704.14277097
_cell_formula_units_Z   1
loop_
 _symmetry_equiv_pos_site_id
 _symmetry_equiv_pos_as_xyz
  1  'x, y, z'
loop_
 _atom_type_symbol
 _atom_type_oxidation_number
  Ti4+  4.0
  Cu+  1.0
  Te2-  -2.0
loop_
 _atom_site_type_symbol
 _atom_site_label
 _atom_site_symmetry_multiplicity
 _atom_site_fract_x
 _atom_site_fract_y
 _atom_site_fract_z
 _atom_site_occupancy
  Ti4+  Ti0  1  0.16454535  0.16794507  0.16684918  1
  Ti4+  Ti1  1  0.16768669  0.16578781  0.49950775  1
  Ti4+  Ti2  1  0.16787364  0.16779975  0.83238564  1
  Ti4+  Ti3  1  0.16395638  0.50064031  0.16505414  1
  Ti4+  Ti4  1  0.16587426  0.49649051  0.49887744  1
  Ti4+  Ti5  1  0.16860960  0.50175590  0.82872787  1
  Ti4+  Ti6  1  0.16595492  0.83366283  0.16800729  1
  Ti4+  Ti7  1  0.16826934  0.83214406  0.49931400  1
  Ti4+  Ti8  1  0.16516988  0.83012995  0.83467982  1
  Ti4+  Ti9  1  0.49897877  0.16660851  0.16500027  1
  Ti4+  Ti10  1  0.50195714  0.16709723  0.49855925  1
  Ti4+  Ti11  1  0.50206473  0.16665583  0.83328758  1
  Ti4+  Ti12  1  0.49932237  0.49924328  0.16236165  1
  Ti4+  Ti13  1  0.49774824  0.49859379  0.49934266  1
  Ti4+  Ti14  1  0.49877865  0.49982921  0.83174601  1
  Ti4+  Ti15  1  0.50578549  0.83015932  0.16760708  1
  Ti4+  Ti16  1  0.50269278  0.83454636  0.49992154  1
  Ti4+  Ti17  1  0.49680726  0.83579414  0.83724907  1
  Ti4+  Ti18  1  0.83260814  0.16892074  0.16556931  1
  Ti4+  Ti19  1  0.83394974  0.16393943  0.50128410  1
  Ti4+  Ti20  1  0.83206133  0.16655915  0.83460899  1
  Ti4+  Ti21  1  0.83371112  0.50078409  0.16775815  1
  Ti4+  Ti22  1  0.82995675  0.49800716  0.50111251  1
  Ti4+  Ti23  1  0.83377004  0.50001700  0.83303478  1
  Ti4+  Ti24  1  0.82977447  0.83578500  0.16771605  1
  Ti4+  Ti25  1  0.83305150  0.83094890  0.50502101  1
  Ti4+  Ti26  1  0.83378598  0.83781889  0.83180800  1
  Cu+  Cu27  1  0.16474217  0.17006119  0.00036391  1
  Cu+  Cu28  1  0.16560089  0.16604869  0.33285435  1
  Cu+  Cu29  1  0.16928982  0.16659941  0.66336911  1
  Cu+  Cu30  1  0.16669735  0.50438173  -0.00333652  1
  Cu+  Cu31  1  0.16026025  0.49704409  0.33110854  1
  Cu+  Cu32  1  0.17328844  0.49780941  0.66412680  1
  Cu+  Cu33  1  0.16540591  0.83463886  0.00064123  1
  Cu+  Cu34  1  0.16675643  0.83329582  0.33395992  1
  Cu+  Cu35  1  0.16650628  0.82723808  0.66781727  1
  Cu+  Cu36  1  0.50484945  0.16428961  -0.00196125  1
  Cu+  Cu37  1  0.49523423  0.17096291  0.33532115  1
  Cu+  Cu38  1  0.50304559  0.16754815  0.66690757  1
  Cu+  Cu39  1  0.49637924  0.49711260  -0.00211759  1
  Cu+  Cu40  1  0.49814438  0.49868144  0.33037579  1
  Cu+  Cu41  1  0.50016046  0.50164852  0.66545367  1
  Cu+  Cu42  1  0.49971024  0.83263671  0.00613147  1
  Cu+  Cu43  1  0.50620158  0.83576080  0.33342746  1
  Cu+  Cu44  1  0.49888772  0.83543542  0.66695809  1
  Cu+  Cu45  1  0.83508262  0.16578064  0.00208308  1
  Cu+  Cu46  1  0.83052819  0.17116834  0.33188909  1
  Cu+  Cu47  1  0.83264684  0.15824164  0.66833248  1
  Cu+  Cu48  1  0.83700670  0.50087619  0.00048103  1
  Cu+  Cu49  1  0.83059546  0.49793483  0.33693211  1
  Cu+  Cu50  1  0.83325810  0.49962197  0.66545294  1
  Cu+  Cu51  1  0.83012629  0.83960700  -0.00256771  1
  Cu+  Cu52  1  0.82676268  0.83252237  0.33662263  1
  Cu+  Cu53  1  0.84164694  0.83336840  0.66853931  1
  Cu+  Cu54  1  0.16428519  0.00093336  0.16867538  1
  Cu+  Cu55  1  0.16943775  0.00039479  0.49912072  1
  Cu+  Cu56  1  0.16459801  -0.00277450  0.83579664  1
  Cu+  Cu57  1  0.16104809  0.33467913  0.16882246  1
  Cu+  Cu58  1  0.16503094  0.33065574  0.50034798  1
  Cu+  Cu59  1  0.16808300  0.33397189  0.82711218  1
  Cu+  Cu60  1  0.16615592  0.66897835  0.16534115  1
  Cu+  Cu61  1  0.16577607  0.66481912  0.50084191  1
  Cu+  Cu62  1  0.17327392  0.66619616  0.83137290  1
  Cu+  Cu63  1  0.50529248  0.00134560  0.16160735  1
  Cu+  Cu64  1  0.50202110  0.00095069  0.50024276  1
  Cu+  Cu65  1  0.49367625  0.00261928  0.83788072  1
  Cu+  Cu66  1  0.49572409  0.33481756  0.16484053  1
  Cu+  Cu67  1  0.49677660  0.33221769  0.49420867  1
  Cu+  Cu68  1  0.50240374  0.33240127  0.83410207  1
  Cu+  Cu69  1  0.51044965  0.66225156  0.16624297  1
  Cu+  Cu70  1  0.50257855  0.66874157  0.50150198  1
  Cu+  Cu71  1  0.49785475  0.66777832  0.83370997  1
  Cu+  Cu72  1  0.83438668  0.00362977  0.16521809  1
  Cu+  Cu73  1  0.82950368  -0.00286056  0.50901077  1
  Cu+  Cu74  1  0.83579304  0.00491667  0.82936612  1
  Cu+  Cu75  1  0.83461023  0.33673500  0.16404347  1
  Cu+  Cu76  1  0.82986070  0.33113494  0.49639560  1
  Cu+  Cu77  1  0.83219681  0.33290804  0.83409257  1
  Cu+  Cu78  1  0.82937363  0.66906290  0.16900356  1
  Cu+  Cu79  1  0.83599964  0.66047704  0.50600263  1
  Cu+  Cu80  1  0.83280754  0.66877742  0.83149967  1
  Cu+  Cu81  1  -0.00240766  0.16634172  0.16415117  1
  Cu+  Cu82  1  0.00300463  0.16600792  0.49877236  1
  Cu+  Cu83  1  0.00206956  0.16700001  0.83245017  1
  Cu+  Cu84  1  -0.00076403  0.49535805  0.16781936  1
  Cu+  Cu85  1  -0.00295242  0.49687863  0.49915182  1
  Cu+  Cu86  1  0.00402924  0.49952147  0.83210139  1
  Cu+  Cu87  1  -0.00053754  0.83663075  0.16713490  1
  Cu+  Cu88  1  0.00265839  0.83211374  0.50363482  1
  Cu+  Cu89  1  -0.00108559  0.82988722  0.83049782  1
  Cu+  Cu90  1  0.32840542  0.16863202  0.16720766  1
  Cu+  Cu91  1  0.33424825  0.16906989  0.49708102  1
  Cu+  Cu92  1  0.33615912  0.16411684  0.83289742  1
  Cu+  Cu93  1  0.33325177  0.49920923  0.16311321  1
  Cu+  Cu94  1  0.33116870  0.50053250  0.49910652  1
  Cu+  Cu95  1  0.33219307  0.49907997  0.83099730  1
  Cu+  Cu96  1  0.33540667  0.83049300  0.16644042  1
  Cu+  Cu97  1  0.33748445  0.83383351  0.49790922  1
  Cu+  Cu98  1  0.32907028  0.83382313  0.83737889  1
  Cu+  Cu99  1  0.66465619  0.16523350  0.16478326  1
  Cu+  Cu100  1  0.67053877  0.16554365  0.50043628  1
  Cu+  Cu101  1  0.66457161  0.17409812  0.83876229  1
  Cu+  Cu102  1  0.66450582  0.50305787  0.16786325  1
  Cu+  Cu103  1  0.66183677  0.49895286  0.50392169  1
  Cu+  Cu104  1  0.66991396  0.50136985  0.83159221  1
  Cu+  Cu105  1  0.66735415  0.82746185  0.17290796  1
  Cu+  Cu106  1  0.67003210  0.83430638  0.49734346  1
  Cu+  Cu107  1  0.66640538  0.83850335  0.83470271  1
  Cu+  Cu108  1  0.92540777  0.73637713  0.74405604  1
  Cu+  Cu109  1  0.40513589  0.08184274  0.92829474  1
  Cu+  Cu110  1  0.73588768  0.07125360  0.59809243  1
  Cu+  Cu111  1  0.93374189  0.08105991  0.73977668  1
  Cu+  Cu112  1  0.26127558  0.59343976  0.58525412  1
  Cu+  Cu113  1  0.40663243  0.92546990  0.08550222  1
  Cu+  Cu114  1  0.58898745  0.93299904  0.25926968  1
  Cu+  Cu115  1  0.74118174  0.26181809  0.40340444  1
  Cu+  Cu116  1  0.59304496  0.26637067  0.92922187  1
  Cu+  Cu117  1  0.26486133  0.74612035  0.73883805  1
  Cu+  Cu118  1  0.06941647  0.40375439  0.26258441  1
  Cu+  Cu119  1  0.74637633  0.92843314  0.40898118  1
  Cu+  Cu120  1  0.92812948  0.40997902  0.06891042  1
  Cu+  Cu121  1  0.26235166  0.59020432  0.92910575  1
  Cu+  Cu122  1  0.93314423  0.92559378  0.58983035  1
  Cu+  Cu123  1  0.40071521  0.26223241  0.40610978  1
  Cu+  Cu124  1  0.25096487  0.92839121  0.92768738  1
  Cu+  Cu125  1  0.59691722  0.07278638  0.06908294  1
  Cu+  Cu126  1  0.59474657  0.73427887  0.06817401  1
  Cu+  Cu127  1  0.59131194  0.59634047  0.59710897  1
  Cu+  Cu128  1  0.59155602  0.58490154  0.26425162  1
  Cu+  Cu129  1  0.74477960  0.73679507  0.26670586  1
  Cu+  Cu130  1  0.93004923  0.07121511  0.07455494  1
  Cu+  Cu131  1  0.93035810  0.58313134  0.59313850  1
  Cu+  Cu132  1  0.26240580  0.40171480  0.73807373  1
  Te2-  Te133  1  0.24889980  0.25549715  0.08228915  1
  Te2-  Te134  1  0.25024038  0.25463266  0.41086970  1
  Te2-  Te135  1  0.25717514  0.24916538  0.74559132  1
  Te2-  Te136  1  0.25287619  0.58784337  0.08149532  1
  Te2-  Te137  1  0.24790991  0.58293698  0.41087493  1
  Te2-  Te138  1  0.25903817  0.58986098  0.74056158  1
  Te2-  Te139  1  0.25305026  0.92225823  0.08176940  1
  Te2-  Te140  1  0.25332402  0.91741049  0.41448622  1
  Te2-  Te141  1  0.25020164  0.91775486  0.74721464  1
  Te2-  Te142  1  0.58505976  0.25586882  0.08157035  1
  Te2-  Te143  1  0.58961982  0.25282687  0.41226975  1
  Te2-  Te144  1  0.58682870  0.25397140  0.74597345  1
  Te2-  Te145  1  0.58877349  0.58196561  0.07178903  1
  Te2-  Te146  1  0.58506024  0.58490982  0.41451668  1
  Te2-  Te147  1  0.58598512  0.58794747  0.74928483  1
  Te2-  Te148  1  0.59466954  0.91752518  0.07948683  1
  Te2-  Te149  1  0.59036646  0.92433906  0.41386811  1
  Te2-  Te150  1  0.58014674  0.92120157  0.75171210  1
  Te2-  Te151  1  0.92004561  0.25558835  0.07866562  1
  Te2-  Te152  1  0.91949867  0.25022958  0.41537215  1
  Te2-  Te153  1  0.91669598  0.25047952  0.74697077  1
  Te2-  Te154  1  0.91905844  0.58877581  0.08560860  1
  Te2-  Te155  1  0.91729332  0.58354477  0.41423715  1
  Te2-  Te156  1  0.92248101  0.58509142  0.74627795  1
  Te2-  Te157  1  0.91823710  0.91911861  0.08026634  1
  Te2-  Te158  1  0.91659551  0.91707048  0.41776931  1
  Te2-  Te159  1  0.92600187  0.92533552  0.74612153  1
  Te2-  Te160  1  0.25057640  0.08160859  0.25174598  1
  Te2-  Te161  1  0.25612734  0.08164033  0.58341228  1
  Te2-  Te162  1  0.25155347  0.08131221  0.92247307  1
  Te2-  Te163  1  0.25125097  0.41623956  0.25009161  1
  Te2-  Te164  1  0.25535725  0.40814047  0.58302085  1
  Te2-  Te165  1  0.25079421  0.41380333  0.91780544  1
  Te2-  Te166  1  0.25281933  0.74822044  0.25212186  1
  Te2-  Te167  1  0.25783682  0.74609829  0.58465280  1
  Te2-  Te168  1  0.25311929  0.74504749  0.92508706  1
  Te2-  Te169  1  0.58399123  0.08503937  0.25643150  1
  Te2-  Te170  1  0.58653521  0.08015582  0.58685353  1
  Te2-  Te171  1  0.59080136  0.07553569  0.91787242  1
  Te2-  Te172  1  0.58421003  0.41235630  0.24971135  1
  Te2-  Te173  1  0.58040536  0.41003702  0.58454960  1
  Te2-  Te174  1  0.58771524  0.41750000  0.91817344  1
  Te2-  Te175  1  0.58970810  0.74076149  0.26139645  1
  Te2-  Te176  1  0.58902732  0.75046815  0.58850030  1
  Te2-  Te177  1  0.58593732  0.74888798  0.91769982  1
  Te2-  Te178  1  0.91656142  0.08415565  0.25403815  1
  Te2-  Te179  1  0.92655037  0.07803847  0.58635867  1
  Te2-  Te180  1  0.92144201  0.08123790  0.92033973  1
  Te2-  Te181  1  0.91646063  0.41233997  0.25764731  1
  Te2-  Te182  1  0.91562985  0.40956106  0.58421262  1
  Te2-  Te183  1  0.92210718  0.41335698  0.91633574  1
  Te2-  Te184  1  0.91646288  0.75212125  0.25316310  1
  Te2-  Te185  1  0.92438470  0.74162134  0.58858842  1
  Te2-  Te186  1  0.91597498  0.75047648  0.92035650  1
  Te2-  Te187  1  0.07567144  0.25063937  0.25415414  1
  Te2-  Te188  1  0.08077196  0.25081273  0.58610512  1
  Te2-  Te189  1  0.08238397  0.25493602  0.91481059  1
  Te2-  Te190  1  0.07909381  0.58742955  0.24978563  1
  Te2-  Te191  1  0.08087972  0.58229106  0.58696972  1
  Te2-  Te192  1  0.08164847  0.58859230  0.91462516  1
  Te2-  Te193  1  0.08058681  0.91879939  0.25401821  1
  Te2-  Te194  1  0.08596545  0.91934086  0.58846648  1
  Te2-  Te195  1  0.07654475  0.91619195  0.91871357  1
  Te2-  Te196  1  0.41169042  0.25373059  0.24978662  1
  Te2-  Te197  1  0.41655437  0.25136380  0.58556432  1
  Te2-  Te198  1  0.41470915  0.25201061  0.92064454  1
  Te2-  Te199  1  0.41427502  0.58635912  0.24793869  1
  Te2-  Te200  1  0.41349727  0.58797568  0.58505366  1
  Te2-  Te201  1  0.41355021  0.58591867  0.91852698  1
  Te2-  Te202  1  0.41804978  0.91932627  0.25050982  1
  Te2-  Te203  1  0.41601493  0.91976630  0.58397579  1
  Te2-  Te204  1  0.40900900  0.92121443  0.92702534  1
  Te2-  Te205  1  0.74414165  0.25626606  0.24856060  1
  Te2-  Te206  1  0.75067997  0.24999144  0.58928782  1
  Te2-  Te207  1  0.74974662  0.25490479  0.92418495  1
  Te2-  Te208  1  0.74608042  0.58555913  0.25755015  1
  Te2-  Te209  1  0.74335100  0.58523357  0.58888587  1
  Te2-  Te210  1  0.75089192  0.58664820  0.91860136  1
  Te2-  Te211  1  0.74489794  0.92673279  0.25359462  1
  Te2-  Te212  1  0.74376370  0.91461491  0.59489997  1
  Te2-  Te213  1  0.74855670  0.92565120  0.91585958  1
  Te2-  Te214  1  0.08117904  0.07992902  0.07879184  1
  Te2-  Te215  1  0.08208432  0.07953086  0.41418854  1
  Te2-  Te216  1  0.08561510  0.07938092  0.74616110  1
  Te2-  Te217  1  0.08131133  0.41469720  0.07390762  1
  Te2-  Te218  1  0.07696827  0.41007112  0.41559630  1
  Te2-  Te219  1  0.08161778  0.41549128  0.74310011  1
  Te2-  Te220  1  0.07931501  0.75018619  0.08168212  1
  Te2-  Te221  1  0.08124731  0.74719237  0.41576160  1
  Te2-  Te222  1  0.07962771  0.74175448  0.74680558  1
  Te2-  Te223  1  0.40881465  0.08097591  0.08052258  1
  Te2-  Te224  1  0.41546013  0.07968528  0.41493093  1
  Te2-  Te225  1  0.41603296  0.08158368  0.74441706  1
  Te2-  Te226  1  0.41153177  0.41296596  0.07814234  1
  Te2-  Te227  1  0.41003712  0.41611493  0.40993936  1
  Te2-  Te228  1  0.41589319  0.41185037  0.74582347  1
  Te2-  Te229  1  0.41769498  0.74154866  0.08516941  1
  Te2-  Te230  1  0.41929247  0.74939395  0.41272424  1
  Te2-  Te231  1  0.41468259  0.74989216  0.74846539  1
  Te2-  Te232  1  0.74656401  0.08034115  0.07910873  1
  Te2-  Te233  1  0.74899344  0.07851656  0.41206523  1
  Te2-  Te234  1  0.73923069  0.08185708  0.75200859  1
  Te2-  Te235  1  0.74606262  0.41833622  0.08183114  1
  Te2-  Te236  1  0.74094275  0.41432764  0.41417087  1
  Te2-  Te237  1  0.74933077  0.41435264  0.74729176  1
  Te2-  Te238  1  0.74785663  0.74884952  0.07663660  1
  Te2-  Te239  1  0.74844602  0.73961607  0.42028776  1
  Te2-  Te240  1  0.74656778  0.75234852  0.74732474  1
