# generated using pymatgen
data_Ti27(Cu53Te54)2
_symmetry_space_group_name_H-M   'P 1'
_cell_length_a   17.88422037
_cell_length_b   17.88753808
_cell_length_c   17.88205485
_cell_angle_alpha   89.98742598
_cell_angle_beta   89.99742242
_cell_angle_gamma   89.99296262
_symmetry_Int_Tables_number   1
_chemical_formula_structural   Ti27(Cu53Te54)2
_chemical_formula_sum   'Ti27 Cu106 Te108'
_cell_volume   5720.55272124
_cell_formula_units_Z   1
loop_
 _symmetry_equiv_pos_site_id
 _symmetry_equiv_pos_as_xyz
  1  'x, y, z'
loop_
 _atom_type_symbol
 _atom_type_oxidation_number
  Ti4+  4.0
  Cu+  1.0
  Te2-  -2.0
loop_
 _atom_site_type_symbol
 _atom_site_label
 _atom_site_symmetry_multiplicity
 _atom_site_fract_x
 _atom_site_fract_y
 _atom_site_fract_z
 _atom_site_occupancy
  Ti4+  Ti0  1  0.16662820  0.16936279  0.16101530  1
  Ti4+  Ti1  1  0.16513761  0.16955894  0.50263067  1
  Ti4+  Ti2  1  0.16679835  0.16209620  0.83239019  1
  Ti4+  Ti3  1  0.16263488  0.49758327  0.16891591  1
  Ti4+  Ti4  1  0.17219537  0.50133974  0.49727120  1
  Ti4+  Ti5  1  0.16493124  0.49941704  0.83192279  1
  Ti4+  Ti6  1  0.16441261  0.83527973  0.16836793  1
  Ti4+  Ti7  1  0.16453608  0.83512381  0.50304421  1
  Ti4+  Ti8  1  0.16579562  0.82981973  0.83531667  1
  Ti4+  Ti9  1  0.49997756  0.16189757  0.16774940  1
  Ti4+  Ti10  1  0.50022702  0.16751551  0.50146185  1
  Ti4+  Ti11  1  0.50122124  0.16637292  0.83560039  1
  Ti4+  Ti12  1  0.50039998  0.49821518  0.16870487  1
  Ti4+  Ti13  1  0.50148063  0.49874627  0.49747477  1
  Ti4+  Ti14  1  0.49905455  0.50018251  0.83352676  1
  Ti4+  Ti15  1  0.50011814  0.83296374  0.16352547  1
  Ti4+  Ti16  1  0.49935179  0.83559573  0.49945414  1
  Ti4+  Ti17  1  0.49820750  0.83249493  0.83236930  1
  Ti4+  Ti18  1  0.83700516  0.16484684  0.16626221  1
  Ti4+  Ti19  1  0.83639789  0.16770520  0.50009807  1
  Ti4+  Ti20  1  0.83261947  0.16579299  0.83161214  1
  Ti4+  Ti21  1  0.83258401  0.49827533  0.17112389  1
  Ti4+  Ti22  1  0.83361294  0.50173997  0.49784804  1
  Ti4+  Ti23  1  0.83160702  0.50051504  0.83358957  1
  Ti4+  Ti24  1  0.83525183  0.83466418  0.16683474  1
  Ti4+  Ti25  1  0.83026613  0.83458689  0.50058301  1
  Ti4+  Ti26  1  0.83177084  0.83145066  0.83371396  1
  Cu+  Cu27  1  0.17157825  0.17019148  -0.00795144  1
  Cu+  Cu28  1  0.16615489  0.16962841  0.33006423  1
  Cu+  Cu29  1  0.15976312  0.16747863  0.67025775  1
  Cu+  Cu30  1  0.16104806  0.49699401  0.00059256  1
  Cu+  Cu31  1  0.17507818  0.50235170  0.33028891  1
  Cu+  Cu32  1  0.16673122  0.49945587  0.66340698  1
  Cu+  Cu33  1  0.16331799  0.83320014  0.00389607  1
  Cu+  Cu34  1  0.16654907  0.83391384  0.34096131  1
  Cu+  Cu35  1  0.16480844  0.83183389  0.66961192  1
  Cu+  Cu36  1  0.49529688  0.16079623  0.00204073  1
  Cu+  Cu37  1  0.50172479  0.16310973  0.33471008  1
  Cu+  Cu38  1  0.50180220  0.16840078  0.67007967  1
  Cu+  Cu39  1  0.50021008  0.50108028  -0.00031747  1
  Cu+  Cu40  1  0.50186371  0.49830492  0.33582385  1
  Cu+  Cu41  1  0.49942138  0.49906195  0.66569495  1
  Cu+  Cu42  1  0.49960754  0.83128164  -0.00473860  1
  Cu+  Cu43  1  0.50197576  0.83542446  0.32888893  1
  Cu+  Cu44  1  0.49810485  0.83451125  0.66599788  1
  Cu+  Cu45  1  0.83413013  0.16417553  -0.00262840  1
  Cu+  Cu46  1  0.83944560  0.17212994  0.33167228  1
  Cu+  Cu47  1  0.83058787  0.16432114  0.66356998  1
  Cu+  Cu48  1  0.83124815  0.49723008  0.00158421  1
  Cu+  Cu49  1  0.83486158  0.50531458  0.33746676  1
  Cu+  Cu50  1  0.83189419  0.50230707  0.66773674  1
  Cu+  Cu51  1  0.83159869  0.83031001  0.00012107  1
  Cu+  Cu52  1  0.83519400  0.83524151  0.33353204  1
  Cu+  Cu53  1  0.82907706  0.83330736  0.66835775  1
  Cu+  Cu54  1  0.15976554  0.00372270  0.16407657  1
  Cu+  Cu55  1  0.16339713  0.00119386  0.50553206  1
  Cu+  Cu56  1  0.16816935  -0.00624581  0.83338705  1
  Cu+  Cu57  1  0.16865550  0.33843156  0.15679967  1
  Cu+  Cu58  1  0.16887649  0.33889372  0.50058285  1
  Cu+  Cu59  1  0.16510060  0.32818173  0.82799443  1
  Cu+  Cu60  1  0.16160991  0.66626865  0.17355561  1
  Cu+  Cu61  1  0.16963310  0.67282412  0.49667756  1
  Cu+  Cu62  1  0.16577399  0.66428466  0.83450787  1
  Cu+  Cu63  1  0.50573820  -0.00470526  0.16736639  1
  Cu+  Cu64  1  0.49930293  0.00166099  0.49978860  1
  Cu+  Cu65  1  0.50052594  0.00042456  0.83899546  1
  Cu+  Cu66  1  0.49889941  0.32766369  0.17100755  1
  Cu+  Cu67  1  0.50341805  0.33365875  0.50227284  1
  Cu+  Cu68  1  0.50166028  0.33586929  0.83370073  1
  Cu+  Cu69  1  0.50022324  0.66711447  0.16255722  1
  Cu+  Cu70  1  0.49846049  0.66786505  0.49922253  1
  Cu+  Cu71  1  0.49518024  0.66573059  0.83277499  1
  Cu+  Cu72  1  0.83978554  -0.00239143  0.16836783  1
  Cu+  Cu73  1  0.82843423  0.00308002  0.50175672  1
  Cu+  Cu74  1  0.83250567  -0.00147458  0.83048761  1
  Cu+  Cu75  1  0.83776723  0.32917022  0.16715013  1
  Cu+  Cu76  1  0.84041263  0.33452075  0.49681326  1
  Cu+  Cu77  1  0.83127317  0.33358232  0.83183852  1
  Cu+  Cu78  1  0.83253558  0.66715016  0.17257988  1
  Cu+  Cu79  1  0.82761302  0.66919125  0.49839229  1
  Cu+  Cu80  1  0.83080588  0.66584152  0.83430368  1
  Cu+  Cu81  1  0.00349707  0.16669613  0.16867253  1
  Cu+  Cu82  1  0.00389529  0.16495589  0.50501895  1
  Cu+  Cu83  1  -0.00270545  0.16434039  0.82798091  1
  Cu+  Cu84  1  -0.00577730  0.50002086  0.16974535  1
  Cu+  Cu85  1  0.00209959  0.50158352  0.49714791  1
  Cu+  Cu86  1  -0.00276846  0.50003621  0.83329992  1
  Cu+  Cu87  1  0.00158889  0.84123883  0.16675645  1
  Cu+  Cu88  1  -0.00374238  0.83441687  0.50322955  1
  Cu+  Cu89  1  -0.00293953  0.83001720  0.83410251  1
  Cu+  Cu90  1  0.33668247  0.16899173  0.15909635  1
  Cu+  Cu91  1  0.33243495  0.16977947  0.50207043  1
  Cu+  Cu92  1  0.33525196  0.16018261  0.83988600  1
  Cu+  Cu93  1  0.33094652  0.49816364  0.17021281  1
  Cu+  Cu94  1  0.33943421  0.49679784  0.49358833  1
  Cu+  Cu95  1  0.33194976  0.50027586  0.83018547  1
  Cu+  Cu96  1  0.33358971  0.83275755  0.16460070  1
  Cu+  Cu97  1  0.33127063  0.83540397  0.50208308  1
  Cu+  Cu98  1  0.33163599  0.82640046  0.83606972  1
  Cu+  Cu99  1  0.66910894  0.16068810  0.16465028  1
  Cu+  Cu100  1  0.67112079  0.16635737  0.50306202  1
  Cu+  Cu101  1  0.66812602  0.16752987  0.83315190  1
  Cu+  Cu102  1  0.66623549  0.49665090  0.17051429  1
  Cu+  Cu103  1  0.66731974  0.50021700  0.49279963  1
  Cu+  Cu104  1  0.66554273  0.50172666  0.83305893  1
  Cu+  Cu105  1  0.66644874  0.83505437  0.16679887  1
  Cu+  Cu106  1  0.66351435  0.83356171  0.49905415  1
  Cu+  Cu107  1  0.66488569  0.83567476  0.83299816  1
  Cu+  Cu108  1  0.07430654  0.06891597  0.59851593  1
  Cu+  Cu109  1  0.40461220  0.73419891  0.92619337  1
  Cu+  Cu110  1  0.41847257  0.26144839  0.07250713  1
  Cu+  Cu111  1  0.26234895  0.59695787  0.24809727  1
  Cu+  Cu112  1  0.59631944  0.92465926  0.26224254  1
  Cu+  Cu113  1  0.26389814  0.40283218  0.40571268  1
  Cu+  Cu114  1  0.73607657  0.07208119  0.59453158  1
  Cu+  Cu115  1  0.26201419  0.75049709  0.40967751  1
  Cu+  Cu116  1  0.26278904  0.42290656  0.06852784  1
  Cu+  Cu117  1  0.92820089  0.92490216  0.26642487  1
  Cu+  Cu118  1  0.41306214  0.40432823  0.59650124  1
  Cu+  Cu119  1  0.07323733  0.93196078  0.06776266  1
  Cu+  Cu120  1  0.59747958  0.92873955  0.92249233  1
  Cu+  Cu121  1  0.07881262  0.07718977  0.26202426  1
  Cu+  Cu122  1  0.93299818  0.25981989  0.25787850  1
  Cu+  Cu123  1  0.41271672  0.59636060  0.40696804  1
  Cu+  Cu124  1  0.92460563  0.59767374  0.26199861  1
  Cu+  Cu125  1  0.91813814  0.40280395  0.06819319  1
  Cu+  Cu126  1  0.40466956  0.06699533  0.93112906  1
  Cu+  Cu127  1  0.06705988  0.25915518  0.74469887  1
  Cu+  Cu128  1  0.26216202  0.26271100  0.91148101  1
  Cu+  Cu129  1  0.93302600  0.40795059  0.41090079  1
  Cu+  Cu130  1  0.07136148  0.41606510  0.59110581  1
  Cu+  Cu131  1  0.73822281  0.59933835  0.40736910  1
  Cu+  Cu132  1  0.59772696  0.40088277  0.40826071  1
  Te2-  Te133  1  0.25638533  0.25701689  0.07340685  1
  Te2-  Te134  1  0.25167322  0.25150823  0.41378438  1
  Te2-  Te135  1  0.25750351  0.24564911  0.74824393  1
  Te2-  Te136  1  0.24732045  0.58500660  0.08297027  1
  Te2-  Te137  1  0.25817811  0.59286242  0.41003224  1
  Te2-  Te138  1  0.24961605  0.58488291  0.74652260  1
  Te2-  Te139  1  0.24980971  0.92037181  0.08359814  1
  Te2-  Te140  1  0.25054034  0.92396597  0.41889020  1
  Te2-  Te141  1  0.25341481  0.91358684  0.74959770  1
  Te2-  Te142  1  0.58511178  0.24767728  0.08157165  1
  Te2-  Te143  1  0.58899802  0.24948190  0.41472297  1
  Te2-  Te144  1  0.58598392  0.25321686  0.75074030  1
  Te2-  Te145  1  0.58632707  0.58153723  0.08368240  1
  Te2-  Te146  1  0.58545434  0.59146313  0.41106717  1
  Te2-  Te147  1  0.58239563  0.58605771  0.74747986  1
  Te2-  Te148  1  0.58759714  0.91743834  0.07574679  1
  Te2-  Te149  1  0.58592119  0.92212173  0.41469361  1
  Te2-  Te150  1  0.58238462  0.92079549  0.74762478  1
  Te2-  Te151  1  0.92263456  0.24860228  0.07669510  1
  Te2-  Te152  1  0.92982816  0.25275394  0.41431286  1
  Te2-  Te153  1  0.91526627  0.25326316  0.74322814  1
  Te2-  Te154  1  0.91398874  0.58592914  0.08345789  1
  Te2-  Te155  1  0.92315176  0.59298375  0.41684214  1
  Te2-  Te156  1  0.91731048  0.58645401  0.74814520  1
  Te2-  Te157  1  0.91873394  0.91984345  0.07518994  1
  Te2-  Te158  1  0.91807501  0.92295215  0.41863859  1
  Te2-  Te159  1  0.91785924  0.91597352  0.74776414  1
  Te2-  Te160  1  0.25198477  0.08452369  0.24599858  1
  Te2-  Te161  1  0.25028891  0.08537692  0.58842024  1
  Te2-  Te162  1  0.25076331  0.07238217  0.92168859  1
  Te2-  Te163  1  0.25346210  0.40718226  0.25236396  1
  Te2-  Te164  1  0.25841636  0.41615329  0.58636281  1
  Te2-  Te165  1  0.25250680  0.41323220  0.91729689  1
  Te2-  Te166  1  0.25410360  0.74938917  0.25438284  1
  Te2-  Te167  1  0.25159589  0.74916654  0.58845253  1
  Te2-  Te168  1  0.24863200  0.74366335  0.92474748  1
  Te2-  Te169  1  0.58927086  0.07917076  0.25418268  1
  Te2-  Te170  1  0.58445045  0.08079382  0.58786445  1
  Te2-  Te171  1  0.59024280  0.08341958  0.92269968  1
  Te2-  Te172  1  0.58546972  0.40982833  0.25316306  1
  Te2-  Te173  1  0.59037189  0.41732197  0.58501079  1
  Te2-  Te174  1  0.58562275  0.41603691  0.91963821  1
  Te2-  Te175  1  0.58528326  0.74632134  0.24924593  1
  Te2-  Te176  1  0.58304453  0.74855326  0.58501538  1
  Te2-  Te177  1  0.58535598  0.74492594  0.91552168  1
  Te2-  Te178  1  0.92425186  0.07840171  0.25696123  1
  Te2-  Te179  1  0.92030739  0.07862866  0.58751227  1
  Te2-  Te180  1  0.91870177  0.07946622  0.91535433  1
  Te2-  Te181  1  0.92054111  0.41117257  0.25940407  1
  Te2-  Te182  1  0.91890388  0.41756173  0.58769996  1
  Te2-  Te183  1  0.91865852  0.41159494  0.91738132  1
  Te2-  Te184  1  0.92332213  0.75030392  0.25376042  1
  Te2-  Te185  1  0.91305365  0.74798047  0.58575260  1
  Te2-  Te186  1  0.91680380  0.74553512  0.91970654  1
  Te2-  Te187  1  0.08554380  0.25986636  0.24898007  1
  Te2-  Te188  1  0.07908401  0.26020689  0.58778234  1
  Te2-  Te189  1  0.07728954  0.24966288  0.91501505  1
  Te2-  Te190  1  0.07757319  0.58416879  0.25750915  1
  Te2-  Te191  1  0.08485623  0.58784884  0.58040336  1
  Te2-  Te192  1  0.07992702  0.58341785  0.91833877  1
  Te2-  Te193  1  0.08181047  0.92187986  0.26143304  1
  Te2-  Te194  1  0.07694986  0.91720598  0.59106977  1
  Te2-  Te195  1  0.07767749  0.91766421  0.91781025  1
  Te2-  Te196  1  0.41367115  0.24619797  0.25525862  1
  Te2-  Te197  1  0.41477492  0.25241078  0.58914656  1
  Te2-  Te198  1  0.41448916  0.25771412  0.92058374  1
  Te2-  Te199  1  0.41508240  0.58857108  0.25250544  1
  Te2-  Te200  1  0.41402294  0.58462369  0.58327571  1
  Te2-  Te201  1  0.40984291  0.58286998  0.92105071  1
  Te2-  Te202  1  0.41301871  0.91835293  0.24931381  1
  Te2-  Te203  1  0.41427633  0.92027184  0.58472943  1
  Te2-  Te204  1  0.40876034  0.91709822  0.92034290  1
  Te2-  Te205  1  0.74767974  0.24922999  0.24890936  1
  Te2-  Te206  1  0.75236866  0.25726078  0.58294980  1
  Te2-  Te207  1  0.74897336  0.25146300  0.91885546  1
  Te2-  Te208  1  0.74345792  0.58631944  0.25441824  1
  Te2-  Te209  1  0.74534405  0.58379952  0.58378931  1
  Te2-  Te210  1  0.74704425  0.58417800  0.92117150  1
  Te2-  Te211  1  0.74850977  0.92144884  0.25297152  1
  Te2-  Te212  1  0.74296516  0.91858066  0.58726066  1
  Te2-  Te213  1  0.74875127  0.92040408  0.92071921  1
  Te2-  Te214  1  0.07939973  0.08693346  0.07205737  1
  Te2-  Te215  1  0.08264412  0.08212782  0.41458045  1
  Te2-  Te216  1  0.07886601  0.07270694  0.74993770  1
  Te2-  Te217  1  0.07314300  0.41459398  0.08052517  1
  Te2-  Te218  1  0.08496287  0.41631680  0.40900039  1
  Te2-  Te219  1  0.07781520  0.41374870  0.74543056  1
  Te2-  Te220  1  0.07934321  0.74642563  0.08637042  1
  Te2-  Te221  1  0.07612303  0.74991697  0.41725804  1
  Te2-  Te222  1  0.07991826  0.74564759  0.74999391  1
  Te2-  Te223  1  0.41286643  0.07104835  0.08379079  1
  Te2-  Te224  1  0.41303451  0.08331933  0.41735144  1
  Te2-  Te225  1  0.41685933  0.08052320  0.74959031  1
  Te2-  Te226  1  0.41449193  0.41393869  0.08008245  1
  Te2-  Te227  1  0.41669487  0.40618717  0.40873428  1
  Te2-  Te228  1  0.41282584  0.41191164  0.74839222  1
  Te2-  Te229  1  0.41202693  0.74587121  0.07915059  1
  Te2-  Te230  1  0.41408652  0.75050689  0.40920161  1
  Te2-  Te231  1  0.41300083  0.74751939  0.74517332  1
  Te2-  Te232  1  0.75368078  0.07756006  0.08167738  1
  Te2-  Te233  1  0.75137755  0.08625851  0.41061062  1
  Te2-  Te234  1  0.74463320  0.07898053  0.74732276  1
  Te2-  Te235  1  0.74809334  0.41121750  0.08584460  1
  Te2-  Te236  1  0.75011491  0.41055825  0.41093173  1
  Te2-  Te237  1  0.74643038  0.41597411  0.74699040  1
  Te2-  Te238  1  0.74858446  0.74730374  0.08518764  1
  Te2-  Te239  1  0.74432112  0.75181686  0.41027169  1
  Te2-  Te240  1  0.74422553  0.74735317  0.74929518  1
