# generated using pymatgen
data_Ti27(Cu53Te54)2
_symmetry_space_group_name_H-M   'P 1'
_cell_length_a   17.92304513
_cell_length_b   17.91524337
_cell_length_c   17.91097518
_cell_angle_alpha   89.99999386
_cell_angle_beta   90.04277556
_cell_angle_gamma   90.03723143
_symmetry_Int_Tables_number   1
_chemical_formula_structural   Ti27(Cu53Te54)2
_chemical_formula_sum   'Ti27 Cu106 Te108'
_cell_volume   5751.13457165
_cell_formula_units_Z   1
loop_
 _symmetry_equiv_pos_site_id
 _symmetry_equiv_pos_as_xyz
  1  'x, y, z'
loop_
 _atom_type_symbol
 _atom_type_oxidation_number
  Ti4+  4.0
  Cu+  1.0
  Te2-  -2.0
loop_
 _atom_site_type_symbol
 _atom_site_label
 _atom_site_symmetry_multiplicity
 _atom_site_fract_x
 _atom_site_fract_y
 _atom_site_fract_z
 _atom_site_occupancy
  Ti4+  Ti0  1  0.16790257  0.16745964  0.17050804  1
  Ti4+  Ti1  1  0.17000551  0.16687302  0.50217720  1
  Ti4+  Ti2  1  0.16781312  0.16351343  0.83412328  1
  Ti4+  Ti3  1  0.16832419  0.50059763  0.15694468  1
  Ti4+  Ti4  1  0.16820352  0.50048619  0.49744260  1
  Ti4+  Ti5  1  0.16642303  0.49688398  0.83593337  1
  Ti4+  Ti6  1  0.16138717  0.83229790  0.16843160  1
  Ti4+  Ti7  1  0.16334300  0.83471465  0.50202348  1
  Ti4+  Ti8  1  0.16419832  0.83055238  0.83114111  1
  Ti4+  Ti9  1  0.50143769  0.16470273  0.16745488  1
  Ti4+  Ti10  1  0.49895502  0.16749482  0.50219789  1
  Ti4+  Ti11  1  0.50333212  0.16583687  0.83316928  1
  Ti4+  Ti12  1  0.50290806  0.49695174  0.16370985  1
  Ti4+  Ti13  1  0.50123754  0.50246861  0.49751698  1
  Ti4+  Ti14  1  0.50014307  0.49816953  0.83461538  1
  Ti4+  Ti15  1  0.49772353  0.83474017  0.17005482  1
  Ti4+  Ti16  1  0.49720591  0.83207774  0.50148027  1
  Ti4+  Ti17  1  0.50035018  0.83257438  0.83613121  1
  Ti4+  Ti18  1  0.83734850  0.16813957  0.16546125  1
  Ti4+  Ti19  1  0.83326813  0.16822847  0.50012485  1
  Ti4+  Ti20  1  0.83340862  0.16577037  0.83128450  1
  Ti4+  Ti21  1  0.83466028  0.49959036  0.16318169  1
  Ti4+  Ti22  1  0.83369294  0.50017532  0.49840444  1
  Ti4+  Ti23  1  0.83223918  0.49975434  0.83200522  1
  Ti4+  Ti24  1  0.83023870  0.83712780  0.17185527  1
  Ti4+  Ti25  1  0.83160985  0.83381185  0.50464744  1
  Ti4+  Ti26  1  0.83366938  0.83507488  0.83384952  1
  Cu+  Cu27  1  0.16726462  0.16421720  0.00126191  1
  Cu+  Cu28  1  0.16620527  0.17059045  0.33943373  1
  Cu+  Cu29  1  0.16845519  0.16532202  0.66765218  1
  Cu+  Cu30  1  0.17097899  0.50395629  -0.00257659  1
  Cu+  Cu31  1  0.16785654  0.50003850  0.32521552  1
  Cu+  Cu32  1  0.16706007  0.49905958  0.66912742  1
  Cu+  Cu33  1  0.16241111  0.83388281  -0.00104030  1
  Cu+  Cu34  1  0.16265622  0.82968456  0.33661169  1
  Cu+  Cu35  1  0.16296972  0.83143093  0.66329240  1
  Cu+  Cu36  1  0.50184280  0.16107112  -0.00244305  1
  Cu+  Cu37  1  0.49880399  0.16537685  0.33472299  1
  Cu+  Cu38  1  0.49975574  0.17037885  0.66963054  1
  Cu+  Cu39  1  0.50704117  0.50008653  0.00041206  1
  Cu+  Cu40  1  0.50213502  0.49985823  0.33077236  1
  Cu+  Cu41  1  0.49543056  0.49713999  0.66280128  1
  Cu+  Cu42  1  0.50049693  0.83505931  0.00287277  1
  Cu+  Cu43  1  0.49983039  0.83186304  0.33686269  1
  Cu+  Cu44  1  0.49778205  0.83176937  0.67027396  1
  Cu+  Cu45  1  0.83526567  0.16525626  -0.00330964  1
  Cu+  Cu46  1  0.83556382  0.16744831  0.33016565  1
  Cu+  Cu47  1  0.82749414  0.16649904  0.66484297  1
  Cu+  Cu48  1  0.83498654  0.49718950  -0.00282516  1
  Cu+  Cu49  1  0.83323855  0.50100031  0.33206506  1
  Cu+  Cu50  1  0.83313569  0.49960075  0.66320670  1
  Cu+  Cu51  1  0.83199983  0.83666427  0.00286870  1
  Cu+  Cu52  1  0.83065507  0.83790253  0.33842063  1
  Cu+  Cu53  1  0.83756996  0.83651070  0.66779671  1
  Cu+  Cu54  1  0.16438826  -0.00147971  0.17393209  1
  Cu+  Cu55  1  0.17097078  0.00018045  0.50481960  1
  Cu+  Cu56  1  0.16590931  -0.00229274  0.83086127  1
  Cu+  Cu57  1  0.16641773  0.33077623  0.15850674  1
  Cu+  Cu58  1  0.16865393  0.33439925  0.49873117  1
  Cu+  Cu59  1  0.16649917  0.33087434  0.83543420  1
  Cu+  Cu60  1  0.16618090  0.66923556  0.15770976  1
  Cu+  Cu61  1  0.16441618  0.66673426  0.49579909  1
  Cu+  Cu62  1  0.16561051  0.66421047  0.83481894  1
  Cu+  Cu63  1  0.49635520  0.00055357  0.17292210  1
  Cu+  Cu64  1  0.49744278  -0.00185916  0.50251169  1
  Cu+  Cu65  1  0.50133018  0.00023349  0.83735133  1
  Cu+  Cu66  1  0.50650461  0.33040919  0.16433248  1
  Cu+  Cu67  1  0.49949328  0.33651898  0.50162501  1
  Cu+  Cu68  1  0.49801070  0.32971379  0.83004364  1
  Cu+  Cu69  1  0.49845553  0.66612513  0.16818948  1
  Cu+  Cu70  1  0.50253790  0.66800933  0.49560420  1
  Cu+  Cu71  1  0.50445255  0.66601586  0.83718807  1
  Cu+  Cu72  1  0.83122054  0.00328134  0.17201129  1
  Cu+  Cu73  1  0.82997239  0.00223906  0.50744016  1
  Cu+  Cu74  1  0.83334788  -0.00048898  0.83387203  1
  Cu+  Cu75  1  0.84198136  0.33469918  0.16414705  1
  Cu+  Cu76  1  0.83426968  0.33740093  0.49791512  1
  Cu+  Cu77  1  0.82979739  0.33106739  0.82860701  1
  Cu+  Cu78  1  0.83177664  0.67111934  0.16775910  1
  Cu+  Cu79  1  0.83228364  0.66297150  0.49886542  1
  Cu+  Cu80  1  0.83295080  0.66721338  0.83206883  1
  Cu+  Cu81  1  0.00183394  0.17520485  0.16966184  1
  Cu+  Cu82  1  0.00456176  0.16897636  0.49836838  1
  Cu+  Cu83  1  -0.00163865  0.16407789  0.83127147  1
  Cu+  Cu84  1  0.00014075  0.49827580  0.15582215  1
  Cu+  Cu85  1  -0.00049797  0.49938176  0.49734595  1
  Cu+  Cu86  1  -0.00024730  0.49713827  0.83201904  1
  Cu+  Cu87  1  -0.00647856  0.83196532  0.17013663  1
  Cu+  Cu88  1  -0.00264906  0.83683233  0.51073642  1
  Cu+  Cu89  1  -0.00234346  0.82847654  0.82859043  1
  Cu+  Cu90  1  0.33686941  0.16297042  0.17320894  1
  Cu+  Cu91  1  0.33357069  0.16698692  0.50247455  1
  Cu+  Cu92  1  0.33522081  0.16311916  0.83551482  1
  Cu+  Cu93  1  0.33840628  0.49943490  0.15489496  1
  Cu+  Cu94  1  0.33430260  0.50230171  0.49812103  1
  Cu+  Cu95  1  0.33203450  0.49695765  0.83781268  1
  Cu+  Cu96  1  0.32859410  0.83376347  0.17078728  1
  Cu+  Cu97  1  0.32867629  0.83472762  0.50129830  1
  Cu+  Cu98  1  0.33581261  0.83284911  0.83277575  1
  Cu+  Cu99  1  0.67135929  0.16486479  0.16854362  1
  Cu+  Cu100  1  0.66502096  0.16462134  0.50245236  1
  Cu+  Cu101  1  0.66997243  0.16956706  0.82883486  1
  Cu+  Cu102  1  0.66771940  0.49495717  0.16197302  1
  Cu+  Cu103  1  0.66788636  0.50211039  0.49636094  1
  Cu+  Cu104  1  0.66460448  0.50155904  0.83537046  1
  Cu+  Cu105  1  0.66453176  0.83875193  0.17195791  1
  Cu+  Cu106  1  0.66293607  0.83077846  0.50006878  1
  Cu+  Cu107  1  0.66777725  0.83413641  0.83478995  1
  Cu+  Cu108  1  0.74181375  0.07567567  0.26033148  1
  Cu+  Cu109  1  0.91943132  0.73580912  0.73917765  1
  Cu+  Cu110  1  0.26645553  0.39929059  0.07524745  1
  Cu+  Cu111  1  0.92398030  0.26496349  0.26223832  1
  Cu+  Cu112  1  0.73414269  0.07250108  0.59518368  1
  Cu+  Cu113  1  0.40230171  0.25386330  0.74321616  1
  Cu+  Cu114  1  0.07583902  0.25168761  0.06895879  1
  Cu+  Cu115  1  0.07261580  0.73359499  0.58686408  1
  Cu+  Cu116  1  0.40456051  0.40923122  0.58566210  1
  Cu+  Cu117  1  0.59699917  0.59654457  0.92668550  1
  Cu+  Cu118  1  0.41785168  0.59578014  0.07294952  1
  Cu+  Cu119  1  0.40430694  0.07339899  0.26733271  1
  Cu+  Cu120  1  0.25758600  0.74128655  0.40912843  1
  Cu+  Cu121  1  0.26066219  0.75777143  0.06991309  1
  Cu+  Cu122  1  0.59588411  0.73984782  0.40680714  1
  Cu+  Cu123  1  0.07146229  0.59577994  0.07090462  1
  Cu+  Cu124  1  0.91779724  0.74665549  0.07519466  1
  Cu+  Cu125  1  0.92599219  0.40567118  0.06620986  1
  Cu+  Cu126  1  0.07509055  0.26454372  0.41456841  1
  Cu+  Cu127  1  0.59678907  0.39846847  0.07175168  1
  Cu+  Cu128  1  0.40723193  0.07101789  0.92601507  1
  Cu+  Cu129  1  0.26153100  0.92715585  0.59472994  1
  Cu+  Cu130  1  0.26253810  0.59662959  0.91661818  1
  Cu+  Cu131  1  0.92593234  0.93333020  0.59583519  1
  Cu+  Cu132  1  0.74186223  0.26395574  0.73478439  1
  Te2-  Te133  1  0.25885367  0.24591917  0.08165445  1
  Te2-  Te134  1  0.25664101  0.25323984  0.41663154  1
  Te2-  Te135  1  0.25213319  0.25158138  0.74911628  1
  Te2-  Te136  1  0.25924113  0.59376622  0.07369197  1
  Te2-  Te137  1  0.25211295  0.58523503  0.40951451  1
  Te2-  Te138  1  0.25278321  0.58321521  0.75041061  1
  Te2-  Te139  1  0.24723444  0.91938939  0.08368108  1
  Te2-  Te140  1  0.24871457  0.91884813  0.41297196  1
  Te2-  Te141  1  0.25170830  0.91544714  0.74726207  1
  Te2-  Te142  1  0.59013711  0.24565323  0.07869906  1
  Te2-  Te143  1  0.58371401  0.25165387  0.41713982  1
  Te2-  Te144  1  0.58868229  0.25544390  0.74512003  1
  Te2-  Te145  1  0.59024339  0.59012900  0.08181480  1
  Te2-  Te146  1  0.58818504  0.58657144  0.40912635  1
  Te2-  Te147  1  0.58176850  0.58203467  0.74619316  1
  Te2-  Te148  1  0.58206219  0.92076159  0.08637343  1
  Te2-  Te149  1  0.58301826  0.91951571  0.41726597  1
  Te2-  Te150  1  0.58392093  0.91774935  0.75031105  1
  Te2-  Te151  1  0.92312582  0.25313491  0.07211578  1
  Te2-  Te152  1  0.92038374  0.25580455  0.41392261  1
  Te2-  Te153  1  0.91845598  0.25049864  0.74450389  1
  Te2-  Te154  1  0.91673123  0.59079722  0.07556805  1
  Te2-  Te155  1  0.91932079  0.58579042  0.41254964  1
  Te2-  Te156  1  0.91953205  0.58302747  0.74613706  1
  Te2-  Te157  1  0.91613109  0.92286330  0.08615846  1
  Te2-  Te158  1  0.91651858  0.92095790  0.42139791  1
  Te2-  Te159  1  0.92182312  0.92372037  0.74897860  1
  Te2-  Te160  1  0.25025746  0.08054621  0.25857441  1
  Te2-  Te161  1  0.25703295  0.08154054  0.59043283  1
  Te2-  Te162  1  0.25146870  0.07635611  0.92071362  1
  Te2-  Te163  1  0.25368919  0.41563780  0.24200820  1
  Te2-  Te164  1  0.25202091  0.41557820  0.58557002  1
  Te2-  Te165  1  0.25338168  0.40812461  0.92181285  1
  Te2-  Te166  1  0.24786678  0.74435327  0.25348835  1
  Te2-  Te167  1  0.25024556  0.74469975  0.58574665  1
  Te2-  Te168  1  0.25396345  0.74857241  0.91895773  1
  Te2-  Te169  1  0.58757247  0.08071489  0.25532306  1
  Te2-  Te170  1  0.58170875  0.08016831  0.58892107  1
  Te2-  Te171  1  0.59248737  0.08167737  0.91646320  1
  Te2-  Te172  1  0.58778093  0.41333366  0.25193661  1
  Te2-  Te173  1  0.58792222  0.41787176  0.58328638  1
  Te2-  Te174  1  0.58652081  0.40863908  0.91692281  1
  Te2-  Te175  1  0.58478944  0.74693722  0.25256220  1
  Te2-  Te176  1  0.58244901  0.74755890  0.58813094  1
  Te2-  Te177  1  0.58867167  0.74964422  0.92348519  1
  Te2-  Te178  1  0.92441988  0.08286561  0.25148646  1
  Te2-  Te179  1  0.92225237  0.08661146  0.58652743  1
  Te2-  Te180  1  0.91920799  0.07989847  0.91716212  1
  Te2-  Te181  1  0.92370112  0.41919472  0.25262661  1
  Te2-  Te182  1  0.92011876  0.41494719  0.58441093  1
  Te2-  Te183  1  0.91806723  0.41008842  0.91353547  1
  Te2-  Te184  1  0.91379665  0.74981186  0.25889514  1
  Te2-  Te185  1  0.91758199  0.74039743  0.58783554  1
  Te2-  Te186  1  0.91788558  0.74773194  0.92080772  1
  Te2-  Te187  1  0.08378300  0.25941747  0.25686026  1
  Te2-  Te188  1  0.08431495  0.25325805  0.58725195  1
  Te2-  Te189  1  0.07968662  0.24922136  0.91723868  1
  Te2-  Te190  1  0.08204377  0.58377931  0.24292232  1
  Te2-  Te191  1  0.08145827  0.58203933  0.58512457  1
  Te2-  Te192  1  0.07625955  0.58512703  0.91833705  1
  Te2-  Te193  1  0.07734318  0.91554865  0.25540174  1
  Te2-  Te194  1  0.08013638  0.92599692  0.59085220  1
  Te2-  Te195  1  0.07905861  0.91587264  0.91438130  1
  Te2-  Te196  1  0.41897470  0.25431619  0.25136215  1
  Te2-  Te197  1  0.41145290  0.25502903  0.58826961  1
  Te2-  Te198  1  0.41663788  0.25066723  0.92054909  1
  Te2-  Te199  1  0.41398581  0.58052426  0.24918597  1
  Te2-  Te200  1  0.41573600  0.58923960  0.58236144  1
  Te2-  Te201  1  0.41440229  0.58695388  0.92104085  1
  Te2-  Te202  1  0.41037305  0.91727307  0.25739334  1
  Te2-  Te203  1  0.41307571  0.91809177  0.58945805  1
  Te2-  Te204  1  0.41286842  0.91824534  0.92184915  1
  Te2-  Te205  1  0.75158924  0.25650279  0.24951168  1
  Te2-  Te206  1  0.74611914  0.25716959  0.58160742  1
  Te2-  Te207  1  0.74902498  0.25105080  0.91926382  1
  Te2-  Te208  1  0.74818514  0.58269864  0.24713524  1
  Te2-  Te209  1  0.74708492  0.58485986  0.58462207  1
  Te2-  Te210  1  0.74949847  0.58672480  0.91976627  1
  Te2-  Te211  1  0.74445077  0.92276563  0.25926383  1
  Te2-  Te212  1  0.74167508  0.91676472  0.58933061  1
  Te2-  Te213  1  0.74829912  0.91964872  0.91962634  1
  Te2-  Te214  1  0.08155686  0.08173391  0.08721681  1
  Te2-  Te215  1  0.08496784  0.07872250  0.41780143  1
  Te2-  Te216  1  0.08216092  0.08126389  0.74746369  1
  Te2-  Te217  1  0.08019020  0.41030068  0.07000949  1
  Te2-  Te218  1  0.08251223  0.41696216  0.41008185  1
  Te2-  Te219  1  0.08266985  0.41233751  0.74880232  1
  Te2-  Te220  1  0.07267460  0.74940486  0.07733316  1
  Te2-  Te221  1  0.07206272  0.75039512  0.41851401  1
  Te2-  Te222  1  0.07965345  0.74090594  0.74510769  1
  Te2-  Te223  1  0.41403544  0.07900607  0.08137095  1
  Te2-  Te224  1  0.41292593  0.08011246  0.41805828  1
  Te2-  Te225  1  0.41701048  0.07905510  0.74756508  1
  Te2-  Te226  1  0.41961866  0.40707058  0.07493433  1
  Te2-  Te227  1  0.41547619  0.41616587  0.41195026  1
  Te2-  Te228  1  0.41030139  0.41313605  0.74782551  1
  Te2-  Te229  1  0.41235285  0.74905410  0.08044126  1
  Te2-  Te230  1  0.40977820  0.74734292  0.41451129  1
  Te2-  Te231  1  0.41647234  0.74429069  0.75199368  1
  Te2-  Te232  1  0.75123819  0.08233688  0.07988752  1
  Te2-  Te233  1  0.74821079  0.08230129  0.41451852  1
  Te2-  Te234  1  0.74596119  0.07609444  0.74726497  1
  Te2-  Te235  1  0.75019731  0.40979282  0.07743869  1
  Te2-  Te236  1  0.74787029  0.41528348  0.41174632  1
  Te2-  Te237  1  0.74481033  0.41768873  0.74544818  1
  Te2-  Te238  1  0.74406700  0.75314507  0.08481665  1
  Te2-  Te239  1  0.74861807  0.74734934  0.41577740  1
  Te2-  Te240  1  0.74790555  0.75044865  0.74710050  1
