# generated using pymatgen
data_Ti27(Cu53Te54)2
_symmetry_space_group_name_H-M   'P 1'
_cell_length_a   17.88672129
_cell_length_b   17.88657333
_cell_length_c   17.88352606
_cell_angle_alpha   89.98949170
_cell_angle_beta   90.02983741
_cell_angle_gamma   90.02592100
_symmetry_Int_Tables_number   1
_chemical_formula_structural   Ti27(Cu53Te54)2
_chemical_formula_sum   'Ti27 Cu106 Te108'
_cell_volume   5721.51352234
_cell_formula_units_Z   1
loop_
 _symmetry_equiv_pos_site_id
 _symmetry_equiv_pos_as_xyz
  1  'x, y, z'
loop_
 _atom_type_symbol
 _atom_type_oxidation_number
  Ti4+  4.0
  Cu+  1.0
  Te2-  -2.0
loop_
 _atom_site_type_symbol
 _atom_site_label
 _atom_site_symmetry_multiplicity
 _atom_site_fract_x
 _atom_site_fract_y
 _atom_site_fract_z
 _atom_site_occupancy
  Ti4+  Ti0  1  0.16656838  0.16651214  0.16565589  1
  Ti4+  Ti1  1  0.16709365  0.16290223  0.49916855  1
  Ti4+  Ti2  1  0.16185741  0.16591850  0.83312441  1
  Ti4+  Ti3  1  0.16498731  0.50328399  0.16488392  1
  Ti4+  Ti4  1  0.16665024  0.49754290  0.49863784  1
  Ti4+  Ti5  1  0.16851590  0.49999640  0.83131663  1
  Ti4+  Ti6  1  0.16794918  0.83335736  0.16632518  1
  Ti4+  Ti7  1  0.16520754  0.83254089  0.50168356  1
  Ti4+  Ti8  1  0.16665871  0.83499777  0.83285048  1
  Ti4+  Ti9  1  0.50331729  0.16502712  0.16857428  1
  Ti4+  Ti10  1  0.50456448  0.16919113  0.49924355  1
  Ti4+  Ti11  1  0.50066346  0.16717503  0.83277284  1
  Ti4+  Ti12  1  0.49354987  0.49668117  0.16818974  1
  Ti4+  Ti13  1  0.50262913  0.50233708  0.49830158  1
  Ti4+  Ti14  1  0.49960187  0.50136027  0.83684933  1
  Ti4+  Ti15  1  0.50139270  0.83285378  0.16878214  1
  Ti4+  Ti16  1  0.49921143  0.83281432  0.50115294  1
  Ti4+  Ti17  1  0.50293082  0.83202324  0.83611711  1
  Ti4+  Ti18  1  0.83571287  0.16661024  0.16701276  1
  Ti4+  Ti19  1  0.83772043  0.16681521  0.50028128  1
  Ti4+  Ti20  1  0.82992583  0.16984597  0.83524462  1
  Ti4+  Ti21  1  0.83463267  0.50071663  0.16694154  1
  Ti4+  Ti22  1  0.83253798  0.50208771  0.49825040  1
  Ti4+  Ti23  1  0.83199624  0.50113548  0.83279952  1
  Ti4+  Ti24  1  0.83293965  0.83241578  0.16516975  1
  Ti4+  Ti25  1  0.83283392  0.83491293  0.49943528  1
  Ti4+  Ti26  1  0.83144636  0.83199729  0.83571917  1
  Cu+  Cu27  1  0.15830064  0.17127323  0.00041409  1
  Cu+  Cu28  1  0.17001352  0.16638111  0.33127058  1
  Cu+  Cu29  1  0.16238718  0.16018706  0.66531300  1
  Cu+  Cu30  1  0.17363124  0.50065560  -0.00138138  1
  Cu+  Cu31  1  0.16075890  0.50285519  0.33359244  1
  Cu+  Cu32  1  0.17102770  0.50055463  0.66252112  1
  Cu+  Cu33  1  0.16858496  0.83708693  0.00011491  1
  Cu+  Cu34  1  0.16524294  0.83498715  0.33433941  1
  Cu+  Cu35  1  0.16598612  0.83170357  0.66812023  1
  Cu+  Cu36  1  0.50566795  0.16907359  0.00099804  1
  Cu+  Cu37  1  0.50568171  0.16679777  0.33435012  1
  Cu+  Cu38  1  0.49680865  0.16518712  0.65995703  1
  Cu+  Cu39  1  0.48673679  0.49680015  -0.00026608  1
  Cu+  Cu40  1  0.50476475  0.50233874  0.33067558  1
  Cu+  Cu41  1  0.50037404  0.49985243  0.66994389  1
  Cu+  Cu42  1  0.50642795  0.83548020  -0.00077122  1
  Cu+  Cu43  1  0.49802710  0.82742408  0.33525829  1
  Cu+  Cu44  1  0.50181980  0.83719357  0.67208835  1
  Cu+  Cu45  1  0.83145147  0.16930161  0.00113291  1
  Cu+  Cu46  1  0.83980347  0.16408427  0.33304042  1
  Cu+  Cu47  1  0.83476661  0.16701306  0.67143616  1
  Cu+  Cu48  1  0.83238448  0.50013995  0.00041821  1
  Cu+  Cu49  1  0.83669149  0.49914454  0.33432903  1
  Cu+  Cu50  1  0.83086574  0.50423738  0.66632155  1
  Cu+  Cu51  1  0.83258627  0.82520196  0.00167671  1
  Cu+  Cu52  1  0.83377598  0.83606147  0.32926668  1
  Cu+  Cu53  1  0.82796310  0.83474967  0.66395326  1
  Cu+  Cu54  1  0.16831017  -0.00094570  0.16661614  1
  Cu+  Cu55  1  0.16199992  -0.00187601  0.50361136  1
  Cu+  Cu56  1  0.16880862  0.00161086  0.83266307  1
  Cu+  Cu57  1  0.16360841  0.33515875  0.16374217  1
  Cu+  Cu58  1  0.16712553  0.32902425  0.49994889  1
  Cu+  Cu59  1  0.16088599  0.33089726  0.82966628  1
  Cu+  Cu60  1  0.16536518  0.67018057  0.16866101  1
  Cu+  Cu61  1  0.16624984  0.66335894  0.49961806  1
  Cu+  Cu62  1  0.16982849  0.66785842  0.83200022  1
  Cu+  Cu63  1  0.50181349  0.00117403  0.16865870  1
  Cu+  Cu64  1  0.50404141  0.00086019  0.50190692  1
  Cu+  Cu65  1  0.50098848  -0.00575305  0.83293991  1
  Cu+  Cu66  1  0.49579677  0.32429595  0.16356822  1
  Cu+  Cu67  1  0.50463360  0.33627015  0.49516159  1
  Cu+  Cu68  1  0.50582246  0.33590473  0.83618239  1
  Cu+  Cu69  1  0.49400057  0.66520587  0.17471341  1
  Cu+  Cu70  1  0.50299774  0.67041689  0.49751912  1
  Cu+  Cu71  1  0.50069955  0.66807401  0.83400911  1
  Cu+  Cu72  1  0.83528075  -0.00168380  0.16498632  1
  Cu+  Cu73  1  0.83750229  0.00035037  0.49564519  1
  Cu+  Cu74  1  0.82865177  0.00210219  0.83355850  1
  Cu+  Cu75  1  0.83338121  0.33376159  0.16973367  1
  Cu+  Cu76  1  0.83763451  0.33547781  0.49855592  1
  Cu+  Cu77  1  0.83012268  0.33693852  0.83505841  1
  Cu+  Cu78  1  0.83640801  0.66777993  0.16429617  1
  Cu+  Cu79  1  0.82903773  0.66989107  0.50319719  1
  Cu+  Cu80  1  0.82972738  0.66553304  0.83635886  1
  Cu+  Cu81  1  0.00282244  0.16981997  0.16432707  1
  Cu+  Cu82  1  0.00224106  0.15917869  0.49801743  1
  Cu+  Cu83  1  -0.00770512  0.16562207  0.83206418  1
  Cu+  Cu84  1  -0.00000523  0.50183462  0.16683669  1
  Cu+  Cu85  1  -0.00062659  0.49995834  0.49242722  1
  Cu+  Cu86  1  0.00006508  0.50122137  0.83101457  1
  Cu+  Cu87  1  -0.00017409  0.83149926  0.16320545  1
  Cu+  Cu88  1  -0.00178239  0.83291726  0.50079194  1
  Cu+  Cu89  1  0.00156117  0.83598129  0.83387192  1
  Cu+  Cu90  1  0.33674732  0.16564729  0.16774453  1
  Cu+  Cu91  1  0.33825035  0.16771846  0.50092386  1
  Cu+  Cu92  1  0.32547375  0.16348937  0.83089804  1
  Cu+  Cu93  1  0.32951617  0.49925484  0.15905400  1
  Cu+  Cu94  1  0.33431141  0.50139019  0.50259205  1
  Cu+  Cu95  1  0.33075018  0.50377024  0.84080163  1
  Cu+  Cu96  1  0.33510415  0.83098106  0.17104978  1
  Cu+  Cu97  1  0.32963739  0.83500804  0.50218760  1
  Cu+  Cu98  1  0.33739020  0.83419972  0.83263684  1
  Cu+  Cu99  1  0.67131188  0.16408709  0.17011752  1
  Cu+  Cu100  1  0.67196032  0.17049534  0.50212904  1
  Cu+  Cu101  1  0.66453328  0.17404219  0.83658080  1
  Cu+  Cu102  1  0.66676379  0.49848322  0.16954450  1
  Cu+  Cu103  1  0.66540000  0.49905869  0.49529813  1
  Cu+  Cu104  1  0.66357112  0.49725028  0.83219931  1
  Cu+  Cu105  1  0.66895132  0.83443038  0.16614563  1
  Cu+  Cu106  1  0.66802568  0.83156127  0.50199770  1
  Cu+  Cu107  1  0.66792841  0.83017511  0.84253617  1
  Cu+  Cu108  1  0.91806768  0.06990974  0.74551053  1
  Cu+  Cu109  1  0.73913230  0.73316175  0.93208739  1
  Cu+  Cu110  1  0.59274087  0.40465912  0.40049629  1
  Cu+  Cu111  1  0.40906538  0.07239451  0.58208313  1
  Cu+  Cu112  1  0.26238520  0.59407519  0.58976913  1
  Cu+  Cu113  1  0.41142498  0.59872914  0.07620809  1
  Cu+  Cu114  1  0.73812213  0.73959747  0.59609395  1
  Cu+  Cu115  1  0.59306388  0.40759681  0.73810201  1
  Cu+  Cu116  1  0.25324554  0.40278244  0.07380469  1
  Cu+  Cu117  1  0.06800135  0.26547207  0.07274378  1
  Cu+  Cu118  1  0.40019535  0.73817691  0.26560560  1
  Cu+  Cu119  1  0.92989507  0.40466647  0.40501487  1
  Cu+  Cu120  1  0.07046032  0.06923313  0.59369745  1
  Cu+  Cu121  1  0.59575314  0.26554238  0.93247879  1
  Cu+  Cu122  1  0.40485400  0.24304269  0.06940680  1
  Cu+  Cu123  1  0.59737218  0.59217674  0.25222347  1
  Cu+  Cu124  1  0.92999875  0.06884668  0.40028065  1
  Cu+  Cu125  1  0.25324124  0.60132860  0.92772371  1
  Cu+  Cu126  1  0.40740398  0.92159386  0.74265469  1
  Cu+  Cu127  1  0.25623798  0.07498029  0.73879694  1
  Cu+  Cu128  1  0.40137941  0.40046798  0.91303555  1
  Cu+  Cu129  1  0.07089786  0.59709362  0.40731673  1
  Cu+  Cu130  1  0.93278567  0.73825575  0.07193231  1
  Cu+  Cu131  1  0.59878094  0.74828115  0.40626223  1
  Cu+  Cu132  1  0.59725971  0.92854429  0.92767923  1
  Te2-  Te133  1  0.25387789  0.25170243  0.07711687  1
  Te2-  Te134  1  0.25379377  0.24891202  0.41573559  1
  Te2-  Te135  1  0.24663844  0.25033534  0.74448751  1
  Te2-  Te136  1  0.25343696  0.59516488  0.07985869  1
  Te2-  Te137  1  0.25341568  0.58357310  0.41280626  1
  Te2-  Te138  1  0.25584396  0.58633573  0.74573221  1
  Te2-  Te139  1  0.25572513  0.91789696  0.08373463  1
  Te2-  Te140  1  0.24926096  0.91965676  0.41694453  1
  Te2-  Te141  1  0.25399538  0.92022787  0.74415035  1
  Te2-  Te142  1  0.59343477  0.25256560  0.08427490  1
  Te2-  Te143  1  0.59283734  0.25290377  0.41216395  1
  Te2-  Te144  1  0.58329787  0.25205357  0.74274181  1
  Te2-  Te145  1  0.57892820  0.58182813  0.08339418  1
  Te2-  Te146  1  0.59010985  0.59146583  0.41070272  1
  Te2-  Te147  1  0.58455300  0.58718427  0.74994431  1
  Te2-  Te148  1  0.58785186  0.92101448  0.08362445  1
  Te2-  Te149  1  0.58475103  0.91661883  0.41521311  1
  Te2-  Te150  1  0.59325887  0.91705155  0.75113541  1
  Te2-  Te151  1  0.91778739  0.25603080  0.07998951  1
  Te2-  Te152  1  0.92466320  0.25188179  0.41367904  1
  Te2-  Te153  1  0.91596106  0.25742769  0.75019052  1
  Te2-  Te154  1  0.92051859  0.58504571  0.07829926  1
  Te2-  Te155  1  0.91607989  0.59295077  0.41334246  1
  Te2-  Te156  1  0.91675771  0.58772819  0.74855694  1
  Te2-  Te157  1  0.91817091  0.91699663  0.07785851  1
  Te2-  Te158  1  0.92207780  0.91729355  0.41075989  1
  Te2-  Te159  1  0.91561215  0.91695593  0.74770616  1
  Te2-  Te160  1  0.25387122  0.08109834  0.24995046  1
  Te2-  Te161  1  0.25616378  0.07616985  0.58573774  1
  Te2-  Te162  1  0.24698102  0.08378083  0.92322693  1
  Te2-  Te163  1  0.24791516  0.41776163  0.25112369  1
  Te2-  Te164  1  0.25340977  0.41052728  0.58327311  1
  Te2-  Te165  1  0.25086231  0.40498808  0.91814537  1
  Te2-  Te166  1  0.25045020  0.74669102  0.25684750  1
  Te2-  Te167  1  0.25195005  0.74657122  0.58764539  1
  Te2-  Te168  1  0.25515057  0.75233257  0.91949013  1
  Te2-  Te169  1  0.58892051  0.07948814  0.25416042  1
  Te2-  Te170  1  0.59111194  0.08302383  0.58524483  1
  Te2-  Te171  1  0.58597048  0.08077484  0.91805806  1
  Te2-  Te172  1  0.58318817  0.40810689  0.24825108  1
  Te2-  Te173  1  0.58698442  0.41558747  0.58597487  1
  Te2-  Te174  1  0.58677473  0.41834483  0.92794115  1
  Te2-  Te175  1  0.59137902  0.74544643  0.25301911  1
  Te2-  Te176  1  0.58416363  0.74815381  0.59115193  1
  Te2-  Te177  1  0.58589523  0.74093493  0.92425582  1
  Te2-  Te178  1  0.92456344  0.07862341  0.24816935  1
  Te2-  Te179  1  0.91919398  0.07645776  0.59037345  1
  Te2-  Te180  1  0.91452592  0.08170689  0.92116446  1
  Te2-  Te181  1  0.92215210  0.41385750  0.25169354  1
  Te2-  Te182  1  0.91861306  0.42001883  0.58539691  1
  Te2-  Te183  1  0.91829826  0.41731727  0.91764874  1
  Te2-  Te184  1  0.91964431  0.74819790  0.25231983  1
  Te2-  Te185  1  0.91757766  0.74906408  0.58690105  1
  Te2-  Te186  1  0.92247094  0.74553485  0.91683965  1
  Te2-  Te187  1  0.08319045  0.25320552  0.25317101  1
  Te2-  Te188  1  0.08047194  0.24866300  0.58370431  1
  Te2-  Te189  1  0.07346040  0.25387372  0.91586366  1
  Te2-  Te190  1  0.07809120  0.58951056  0.25100151  1
  Te2-  Te191  1  0.07855740  0.58221129  0.58425779  1
  Te2-  Te192  1  0.08394784  0.58454345  0.91730780  1
  Te2-  Te193  1  0.08067889  0.91741292  0.24940906  1
  Te2-  Te194  1  0.07730331  0.91585743  0.58969772  1
  Te2-  Te195  1  0.08285433  0.92101636  0.91857487  1
  Te2-  Te196  1  0.41583813  0.24888668  0.25662839  1
  Te2-  Te197  1  0.41774021  0.25835835  0.58198525  1
  Te2-  Te198  1  0.40914900  0.24949695  0.91659929  1
  Te2-  Te199  1  0.40539954  0.58056351  0.25639241  1
  Te2-  Te200  1  0.41836616  0.58793882  0.58678726  1
  Te2-  Te201  1  0.41111425  0.59449375  0.92172622  1
  Te2-  Te202  1  0.41759423  0.91878604  0.25403161  1
  Te2-  Te203  1  0.41281634  0.91993475  0.58774775  1
  Te2-  Te204  1  0.41486241  0.91832444  0.92230684  1
  Te2-  Te205  1  0.75187981  0.25014096  0.25514865  1
  Te2-  Te206  1  0.75465943  0.25377406  0.58617237  1
  Te2-  Te207  1  0.74666069  0.25820715  0.92336416  1
  Te2-  Te208  1  0.75089021  0.58698689  0.25334506  1
  Te2-  Te209  1  0.74270652  0.58547599  0.58487584  1
  Te2-  Te210  1  0.74313708  0.58237184  0.92132953  1
  Te2-  Te211  1  0.74835583  0.92049912  0.25051055  1
  Te2-  Te212  1  0.74746945  0.92387530  0.58190374  1
  Te2-  Te213  1  0.75039307  0.92075815  0.92452024  1
  Te2-  Te214  1  0.08123099  0.07867443  0.08160946  1
  Te2-  Te215  1  0.08418184  0.07703095  0.40829583  1
  Te2-  Te216  1  0.07394156  0.07567157  0.74852382  1
  Te2-  Te217  1  0.07847002  0.41905794  0.07613905  1
  Te2-  Te218  1  0.08238506  0.40796011  0.41161362  1
  Te2-  Te219  1  0.08236879  0.41770029  0.74455859  1
  Te2-  Te220  1  0.08409490  0.74712225  0.07693214  1
  Te2-  Te221  1  0.07943833  0.74844551  0.41439064  1
  Te2-  Te222  1  0.08128792  0.74770448  0.74978081  1
  Te2-  Te223  1  0.41774823  0.08045617  0.07996268  1
  Te2-  Te224  1  0.41896660  0.08148102  0.41426424  1
  Te2-  Te225  1  0.41351541  0.07860371  0.74574256  1
  Te2-  Te226  1  0.40776252  0.40361531  0.07800180  1
  Te2-  Te227  1  0.41574509  0.41875116  0.41366168  1
  Te2-  Te228  1  0.41207832  0.41579490  0.75213645  1
  Te2-  Te229  1  0.41599771  0.75071068  0.07910302  1
  Te2-  Te230  1  0.40794667  0.74627119  0.41819378  1
  Te2-  Te231  1  0.41623540  0.74682201  0.74774792  1
  Te2-  Te232  1  0.75025951  0.08132778  0.08193239  1
  Te2-  Te233  1  0.74991672  0.08347099  0.41510692  1
  Te2-  Te234  1  0.74227021  0.08504545  0.74967179  1
  Te2-  Te235  1  0.74816954  0.41478146  0.08330965  1
  Te2-  Te236  1  0.74780328  0.41284149  0.41174377  1
  Te2-  Te237  1  0.74672202  0.41423978  0.74513914  1
  Te2-  Te238  1  0.74256343  0.74268060  0.08305769  1
  Te2-  Te239  1  0.75000615  0.74858996  0.40943452  1
  Te2-  Te240  1  0.74491439  0.74708264  0.74902540  1
