# generated using pymatgen
data_Ti27(Cu53Te54)2
_symmetry_space_group_name_H-M   'P 1'
_cell_length_a   17.88243209
_cell_length_b   17.88305825
_cell_length_c   17.88534413
_cell_angle_alpha   89.98692785
_cell_angle_beta   89.99263036
_cell_angle_gamma   89.94174809
_symmetry_Int_Tables_number   1
_chemical_formula_structural   Ti27(Cu53Te54)2
_chemical_formula_sum   'Ti27 Cu106 Te108'
_cell_volume   5719.59709680
_cell_formula_units_Z   1
loop_
 _symmetry_equiv_pos_site_id
 _symmetry_equiv_pos_as_xyz
  1  'x, y, z'
loop_
 _atom_type_symbol
 _atom_type_oxidation_number
  Ti4+  4.0
  Cu+  1.0
  Te2-  -2.0
loop_
 _atom_site_type_symbol
 _atom_site_label
 _atom_site_symmetry_multiplicity
 _atom_site_fract_x
 _atom_site_fract_y
 _atom_site_fract_z
 _atom_site_occupancy
  Ti4+  Ti0  1  0.16555928  0.16789871  0.16612945  1
  Ti4+  Ti1  1  0.16699777  0.16453106  0.49972587  1
  Ti4+  Ti2  1  0.16840356  0.16851441  0.83289798  1
  Ti4+  Ti3  1  0.16689916  0.50083516  0.16850281  1
  Ti4+  Ti4  1  0.16696997  0.49854313  0.50266489  1
  Ti4+  Ti5  1  0.16694668  0.50300124  0.83352096  1
  Ti4+  Ti6  1  0.16776902  0.83336541  0.16494726  1
  Ti4+  Ti7  1  0.16630403  0.83249352  0.49961032  1
  Ti4+  Ti8  1  0.16671982  0.83368219  0.83312526  1
  Ti4+  Ti9  1  0.49740656  0.16795915  0.16618885  1
  Ti4+  Ti10  1  0.50196417  0.16594775  0.50319682  1
  Ti4+  Ti11  1  0.50296906  0.16616732  0.83629176  1
  Ti4+  Ti12  1  0.50091499  0.50032344  0.16667230  1
  Ti4+  Ti13  1  0.49632452  0.50159935  0.49921362  1
  Ti4+  Ti14  1  0.50114939  0.49833948  0.83172797  1
  Ti4+  Ti15  1  0.50023042  0.83359409  0.16375970  1
  Ti4+  Ti16  1  0.49909789  0.83793844  0.49643852  1
  Ti4+  Ti17  1  0.50145860  0.83429103  0.83206997  1
  Ti4+  Ti18  1  0.83070508  0.17015603  0.16892045  1
  Ti4+  Ti19  1  0.83321158  0.16383161  0.50034072  1
  Ti4+  Ti20  1  0.83555853  0.16501365  0.83519193  1
  Ti4+  Ti21  1  0.82899372  0.50050045  0.16507449  1
  Ti4+  Ti22  1  0.83091640  0.49803258  0.49670399  1
  Ti4+  Ti23  1  0.83294660  0.50096217  0.82985704  1
  Ti4+  Ti24  1  0.83692832  0.83275415  0.16806866  1
  Ti4+  Ti25  1  0.83236657  0.83171035  0.49928407  1
  Ti4+  Ti26  1  0.83269152  0.83029933  0.83712859  1
  Cu+  Cu27  1  0.16599178  0.16889480  -0.00124892  1
  Cu+  Cu28  1  0.16519467  0.16417251  0.33255958  1
  Cu+  Cu29  1  0.17043945  0.16895704  0.66683091  1
  Cu+  Cu30  1  0.16799790  0.50082726  0.00356686  1
  Cu+  Cu31  1  0.16802416  0.49815375  0.33898027  1
  Cu+  Cu32  1  0.16349207  0.50363828  0.67108761  1
  Cu+  Cu33  1  0.16920024  0.82700506  0.00060240  1
  Cu+  Cu34  1  0.16523616  0.83151558  0.33232595  1
  Cu+  Cu35  1  0.16911918  0.83779539  0.66430290  1
  Cu+  Cu36  1  0.49661996  0.16372091  -0.00039295  1
  Cu+  Cu37  1  0.50063927  0.16734923  0.33590444  1
  Cu+  Cu38  1  0.50474686  0.16352179  0.67405994  1
  Cu+  Cu39  1  0.50508840  0.49934843  -0.00102419  1
  Cu+  Cu40  1  0.49640314  0.49863927  0.33065578  1
  Cu+  Cu41  1  0.49407032  0.50059297  0.66686424  1
  Cu+  Cu42  1  0.50251791  0.83609828  -0.00224691  1
  Cu+  Cu43  1  0.49782624  0.83577114  0.32866483  1
  Cu+  Cu44  1  0.49855824  0.83585127  0.65919796  1
  Cu+  Cu45  1  0.83362412  0.16821472  0.00722705  1
  Cu+  Cu46  1  0.83189590  0.16746817  0.33507347  1
  Cu+  Cu47  1  0.83324472  0.16479545  0.66597553  1
  Cu+  Cu48  1  0.83397627  0.49891290  -0.00400486  1
  Cu+  Cu49  1  0.82458387  0.50293501  0.33248177  1
  Cu+  Cu50  1  0.83355830  0.49894702  0.66125160  1
  Cu+  Cu51  1  0.83796575  0.83554939  0.00193317  1
  Cu+  Cu52  1  0.83454469  0.83310235  0.33379663  1
  Cu+  Cu53  1  0.83062000  0.82711068  0.67121737  1
  Cu+  Cu54  1  0.16771873  -0.00113917  0.16323295  1
  Cu+  Cu55  1  0.16757839  -0.00284478  0.50079051  1
  Cu+  Cu56  1  0.16473733  0.00494461  0.83364566  1
  Cu+  Cu57  1  0.16522537  0.33308627  0.16714725  1
  Cu+  Cu58  1  0.16810015  0.33069755  0.50188150  1
  Cu+  Cu59  1  0.17082546  0.33632413  0.83334849  1
  Cu+  Cu60  1  0.16757418  0.66891609  0.16660463  1
  Cu+  Cu61  1  0.16948975  0.66454796  0.49902687  1
  Cu+  Cu62  1  0.16122425  0.66932765  0.83228763  1
  Cu+  Cu63  1  0.49992485  -0.00042325  0.16460669  1
  Cu+  Cu64  1  0.50724994  0.00253880  0.49821799  1
  Cu+  Cu65  1  0.50544612  0.00261452  0.83769043  1
  Cu+  Cu66  1  0.49669173  0.33499607  0.16903513  1
  Cu+  Cu67  1  0.49719378  0.33449585  0.50372068  1
  Cu+  Cu68  1  0.50180236  0.33064751  0.83268493  1
  Cu+  Cu69  1  0.50307620  0.66730486  0.16380576  1
  Cu+  Cu70  1  0.49592489  0.67267260  0.49855305  1
  Cu+  Cu71  1  0.50096182  0.66195139  0.83010310  1
  Cu+  Cu72  1  0.83411122  0.00161728  0.16749997  1
  Cu+  Cu73  1  0.83287533  -0.00164787  0.50155675  1
  Cu+  Cu74  1  0.83583795  -0.00552218  0.83859694  1
  Cu+  Cu75  1  0.82154473  0.33371375  0.16580542  1
  Cu+  Cu76  1  0.83087102  0.32848200  0.49745699  1
  Cu+  Cu77  1  0.83355995  0.33484298  0.83036593  1
  Cu+  Cu78  1  0.83765498  0.66596629  0.16852339  1
  Cu+  Cu79  1  0.83052437  0.66465590  0.49512539  1
  Cu+  Cu80  1  0.83465427  0.66412666  0.83535192  1
  Cu+  Cu81  1  -0.00257049  0.16944747  0.16648505  1
  Cu+  Cu82  1  -0.00001169  0.16248911  0.49984858  1
  Cu+  Cu83  1  0.00331615  0.16739936  0.83426471  1
  Cu+  Cu84  1  -0.00177164  0.50163942  0.16898879  1
  Cu+  Cu85  1  -0.00210201  0.49825042  0.50284983  1
  Cu+  Cu86  1  0.00141452  0.50707745  0.82949431  1
  Cu+  Cu87  1  0.00447875  0.83119964  0.17095469  1
  Cu+  Cu88  1  -0.00092874  0.82967900  0.49859470  1
  Cu+  Cu89  1  0.00061129  0.82989167  0.83830101  1
  Cu+  Cu90  1  0.32990064  0.16839401  0.16532923  1
  Cu+  Cu91  1  0.33240263  0.16982742  0.50338171  1
  Cu+  Cu92  1  0.33741239  0.16614611  0.83576281  1
  Cu+  Cu93  1  0.33594156  0.49959254  0.17012338  1
  Cu+  Cu94  1  0.33390498  0.49423249  0.50489187  1
  Cu+  Cu95  1  0.33448034  0.50203295  0.83086294  1
  Cu+  Cu96  1  0.33349102  0.83173787  0.15981530  1
  Cu+  Cu97  1  0.33105061  0.83648888  0.50149952  1
  Cu+  Cu98  1  0.33347308  0.83436642  0.82903385  1
  Cu+  Cu99  1  0.66510118  0.17304062  0.16487793  1
  Cu+  Cu100  1  0.66768459  0.16381359  0.49709409  1
  Cu+  Cu101  1  0.66958521  0.16344669  0.83382293  1
  Cu+  Cu102  1  0.66732428  0.49501012  0.16763617  1
  Cu+  Cu103  1  0.66269583  0.50410764  0.49257840  1
  Cu+  Cu104  1  0.66524612  0.49908955  0.83163498  1
  Cu+  Cu105  1  0.67017429  0.83241306  0.16523536  1
  Cu+  Cu106  1  0.66624118  0.83812084  0.49695696  1
  Cu+  Cu107  1  0.66628436  0.83435885  0.83668428  1
  Cu+  Cu108  1  0.07903257  0.73834918  0.26382103  1
  Cu+  Cu109  1  0.40909154  0.40334047  0.59794688  1
  Cu+  Cu110  1  0.59334978  0.59103463  0.92674109  1
  Cu+  Cu111  1  0.92519296  0.07460457  0.08337261  1
  Cu+  Cu112  1  0.59457533  0.92943230  0.93067708  1
  Cu+  Cu113  1  0.40575815  0.59426162  0.74175559  1
  Cu+  Cu114  1  0.59579487  0.07662141  0.40041477  1
  Cu+  Cu115  1  0.92002992  0.59403958  0.58844755  1
  Cu+  Cu116  1  0.60021155  0.07284958  0.74511712  1
  Cu+  Cu117  1  0.92509874  0.58674619  0.26126554  1
  Cu+  Cu118  1  0.40527343  0.07138802  0.92779156  1
  Cu+  Cu119  1  0.73972112  0.40442170  0.26425783  1
  Cu+  Cu120  1  0.40266294  0.40446957  0.25958803  1
  Cu+  Cu121  1  0.25985057  0.92897892  0.59388878  1
  Cu+  Cu122  1  0.07171873  0.59985782  0.73771411  1
  Cu+  Cu123  1  0.92829946  0.58518345  0.92854005  1
  Cu+  Cu124  1  0.26539722  0.73687943  0.07154305  1
  Cu+  Cu125  1  0.25734633  0.26117904  0.59453863  1
  Cu+  Cu126  1  0.73217203  0.59852870  0.40399139  1
  Cu+  Cu127  1  0.59821635  0.92533400  0.59012816  1
  Cu+  Cu128  1  0.07579042  0.08074883  0.92640557  1
  Cu+  Cu129  1  0.73363693  0.25998168  0.06829661  1
  Cu+  Cu130  1  0.07446827  0.73980977  0.92933705  1
  Cu+  Cu131  1  0.40372854  0.74462819  0.58788945  1
  Cu+  Cu132  1  0.93085802  0.92410158  0.92616063  1
  Te2-  Te133  1  0.25011184  0.25393595  0.08020588  1
  Te2-  Te134  1  0.25159492  0.25045496  0.41264957  1
  Te2-  Te135  1  0.25761296  0.25398170  0.74987924  1
  Te2-  Te136  1  0.25521116  0.58506313  0.08310153  1
  Te2-  Te137  1  0.25536130  0.58173292  0.41810628  1
  Te2-  Te138  1  0.25229988  0.59099580  0.74727764  1
  Te2-  Te139  1  0.25195620  0.91916868  0.07662092  1
  Te2-  Te140  1  0.25059810  0.91715362  0.41158801  1
  Te2-  Te141  1  0.25201448  0.92314466  0.74919763  1
  Te2-  Te142  1  0.58003677  0.25533556  0.07838003  1
  Te2-  Te143  1  0.58406908  0.25460972  0.41834713  1
  Te2-  Te144  1  0.59006075  0.25230339  0.74995688  1
  Te2-  Te145  1  0.59025245  0.58554171  0.08165874  1
  Te2-  Te146  1  0.57778536  0.59012423  0.41046287  1
  Te2-  Te147  1  0.58650612  0.58311430  0.74251404  1
  Te2-  Te148  1  0.58954181  0.92036078  0.08150466  1
  Te2-  Te149  1  0.58679639  0.92066477  0.40633052  1
  Te2-  Te150  1  0.58836043  0.91918722  0.74451591  1
  Te2-  Te151  1  0.91711923  0.25928756  0.08486373  1
  Te2-  Te152  1  0.91970197  0.24931718  0.41525704  1
  Te2-  Te153  1  0.91856158  0.24941806  0.74880144  1
  Te2-  Te154  1  0.91906917  0.58500606  0.07998916  1
  Te2-  Te155  1  0.92075376  0.58360182  0.41176862  1
  Te2-  Te156  1  0.91814715  0.59037983  0.74114793  1
  Te2-  Te157  1  0.92576107  0.91972551  0.08315407  1
  Te2-  Te158  1  0.91841664  0.91736344  0.41615038  1
  Te2-  Te159  1  0.91888582  0.91348946  0.74977324  1
  Te2-  Te160  1  0.25084160  0.08077096  0.24980080  1
  Te2-  Te161  1  0.25429232  0.07931345  0.58762088  1
  Te2-  Te162  1  0.25342217  0.08080112  0.92110506  1
  Te2-  Te163  1  0.25057754  0.41298608  0.25412115  1
  Te2-  Te164  1  0.25150713  0.41338401  0.59381856  1
  Te2-  Te165  1  0.25344070  0.41911553  0.91893754  1
  Te2-  Te166  1  0.25482588  0.74896456  0.25189652  1
  Te2-  Te167  1  0.25158025  0.74501463  0.58785888  1
  Te2-  Te168  1  0.25635935  0.74520788  0.91470322  1
  Te2-  Te169  1  0.58596912  0.08256725  0.24884283  1
  Te2-  Te170  1  0.59200778  0.07981757  0.59066214  1
  Te2-  Te171  1  0.59259290  0.08199855  0.92636884  1
  Te2-  Te172  1  0.58585886  0.41210621  0.25496648  1
  Te2-  Te173  1  0.58477812  0.41968506  0.58398139  1
  Te2-  Te174  1  0.58694051  0.41113113  0.91685915  1
  Te2-  Te175  1  0.58568056  0.75006930  0.25018762  1
  Te2-  Te176  1  0.58669821  0.75019926  0.58117245  1
  Te2-  Te177  1  0.58427979  0.74508782  0.91761051  1
  Te2-  Te178  1  0.91810437  0.08351630  0.25371825  1
  Te2-  Te179  1  0.91879361  0.07880131  0.58619513  1
  Te2-  Te180  1  0.92226103  0.07922682  0.92526447  1
  Te2-  Te181  1  0.91244226  0.41433125  0.25184284  1
  Te2-  Te182  1  0.91540135  0.40970061  0.58217860  1
  Te2-  Te183  1  0.92136313  0.41631670  0.91375318  1
  Te2-  Te184  1  0.92235263  0.74529960  0.25742896  1
  Te2-  Te185  1  0.91755565  0.74581868  0.58544945  1
  Te2-  Te186  1  0.92027400  0.74154645  0.92492852  1
  Te2-  Te187  1  0.08026213  0.25180473  0.25276188  1
  Te2-  Te188  1  0.07997937  0.24939256  0.58533451  1
  Te2-  Te189  1  0.08317094  0.25651389  0.91735145  1
  Te2-  Te190  1  0.08147169  0.58580574  0.25773767  1
  Te2-  Te191  1  0.07913312  0.58926278  0.58530059  1
  Te2-  Te192  1  0.08072140  0.58759561  0.92577193  1
  Te2-  Te193  1  0.08360166  0.92106322  0.25180914  1
  Te2-  Te194  1  0.07777316  0.91719165  0.58370403  1
  Te2-  Te195  1  0.08340141  0.92101637  0.92333188  1
  Te2-  Te196  1  0.41137737  0.25051379  0.25487219  1
  Te2-  Te197  1  0.41581952  0.25021187  0.59369673  1
  Te2-  Te198  1  0.41584827  0.25430993  0.91974967  1
  Te2-  Te199  1  0.41654043  0.58958703  0.25048393  1
  Te2-  Te200  1  0.40932770  0.59063487  0.58603292  1
  Te2-  Te201  1  0.41558426  0.58404765  0.91960383  1
  Te2-  Te202  1  0.41203936  0.91844906  0.24660111  1
  Te2-  Te203  1  0.41337218  0.92693017  0.58388412  1
  Te2-  Te204  1  0.41283532  0.91846067  0.91746156  1
  Te2-  Te205  1  0.74211634  0.25216861  0.25911488  1
  Te2-  Te206  1  0.74657181  0.24926109  0.58510835  1
  Te2-  Te207  1  0.74917016  0.25237985  0.91745482  1
  Te2-  Te208  1  0.74134194  0.59136572  0.24918663  1
  Te2-  Te209  1  0.74470016  0.58431702  0.58271855  1
  Te2-  Te210  1  0.74580574  0.58511905  0.91858701  1
  Te2-  Te211  1  0.75048213  0.91829249  0.25097602  1
  Te2-  Te212  1  0.75001918  0.91755654  0.58902122  1
  Te2-  Te213  1  0.74709992  0.91849751  0.92420246  1
  Te2-  Te214  1  0.07914835  0.07958742  0.07973346  1
  Te2-  Te215  1  0.08239663  0.07815435  0.41516472  1
  Te2-  Te216  1  0.08243080  0.08404400  0.74501982  1
  Te2-  Te217  1  0.08048870  0.41704730  0.08422318  1
  Te2-  Te218  1  0.08154552  0.41307754  0.41867378  1
  Te2-  Te219  1  0.08109233  0.41465101  0.75055663  1
  Te2-  Te220  1  0.07727668  0.74464723  0.08049817  1
  Te2-  Te221  1  0.08065889  0.74339745  0.41556711  1
  Te2-  Te222  1  0.07958975  0.75281957  0.74235923  1
  Te2-  Te223  1  0.41099958  0.07977620  0.08252169  1
  Te2-  Te224  1  0.41421252  0.08313283  0.41840783  1
  Te2-  Te225  1  0.41589817  0.07880327  0.75078479  1
  Te2-  Te226  1  0.41553106  0.41683871  0.07900810  1
  Te2-  Te227  1  0.41234005  0.41185808  0.41368973  1
  Te2-  Te228  1  0.41229020  0.40903358  0.74939632  1
  Te2-  Te229  1  0.41796854  0.74572985  0.07512025  1
  Te2-  Te230  1  0.41149616  0.75329609  0.41153656  1
  Te2-  Te231  1  0.41454947  0.74863172  0.74453973  1
  Te2-  Te232  1  0.74498415  0.08124602  0.08389207  1
  Te2-  Te233  1  0.74859861  0.07645329  0.41184446  1
  Te2-  Te234  1  0.75343737  0.07597528  0.74967856  1
  Te2-  Te235  1  0.74432496  0.41590095  0.07312660  1
  Te2-  Te236  1  0.74257921  0.40975720  0.41476479  1
  Te2-  Te237  1  0.74810462  0.41596790  0.74484352  1
  Te2-  Te238  1  0.75316736  0.74765174  0.08198855  1
  Te2-  Te239  1  0.74426655  0.74963883  0.41110916  1
  Te2-  Te240  1  0.74550179  0.74506233  0.75311945  1
