# generated using pymatgen
data_Ti27(Cu53Te54)2
_symmetry_space_group_name_H-M   'P 1'
_cell_length_a   17.89751154
_cell_length_b   17.90147563
_cell_length_c   17.90721878
_cell_angle_alpha   90.00529281
_cell_angle_beta   89.98494827
_cell_angle_gamma   90.00541754
_symmetry_Int_Tables_number   1
_chemical_formula_structural   Ti27(Cu53Te54)2
_chemical_formula_sum   'Ti27 Cu106 Te108'
_cell_volume   5737.32700461
_cell_formula_units_Z   1
loop_
 _symmetry_equiv_pos_site_id
 _symmetry_equiv_pos_as_xyz
  1  'x, y, z'
loop_
 _atom_type_symbol
 _atom_type_oxidation_number
  Ti4+  4.0
  Cu+  1.0
  Te2-  -2.0
loop_
 _atom_site_type_symbol
 _atom_site_label
 _atom_site_symmetry_multiplicity
 _atom_site_fract_x
 _atom_site_fract_y
 _atom_site_fract_z
 _atom_site_occupancy
  Ti4+  Ti0  1  0.16530330  0.16658972  0.16762764  1
  Ti4+  Ti1  1  0.16436470  0.16759267  0.50039825  1
  Ti4+  Ti2  1  0.16714708  0.17127868  0.83495527  1
  Ti4+  Ti3  1  0.16521911  0.49861287  0.16402035  1
  Ti4+  Ti4  1  0.16580769  0.49910237  0.50032718  1
  Ti4+  Ti5  1  0.16973326  0.50026423  0.82916945  1
  Ti4+  Ti6  1  0.16758820  0.83136430  0.16984378  1
  Ti4+  Ti7  1  0.16604145  0.83619919  0.50231356  1
  Ti4+  Ti8  1  0.16710187  0.83539799  0.83770148  1
  Ti4+  Ti9  1  0.50015758  0.16582495  0.16733628  1
  Ti4+  Ti10  1  0.49654427  0.16484611  0.49851519  1
  Ti4+  Ti11  1  0.50054572  0.16495046  0.83418404  1
  Ti4+  Ti12  1  0.50269505  0.50065157  0.16630747  1
  Ti4+  Ti13  1  0.50039990  0.49569571  0.50065314  1
  Ti4+  Ti14  1  0.50738779  0.49928835  0.83541066  1
  Ti4+  Ti15  1  0.50068542  0.83198529  0.16411487  1
  Ti4+  Ti16  1  0.49581980  0.82657014  0.49808581  1
  Ti4+  Ti17  1  0.50037439  0.83235096  0.83016296  1
  Ti4+  Ti18  1  0.83303729  0.16507138  0.16531023  1
  Ti4+  Ti19  1  0.82965627  0.16579884  0.49899176  1
  Ti4+  Ti20  1  0.82975704  0.16891541  0.83306731  1
  Ti4+  Ti21  1  0.83588233  0.50027579  0.16869099  1
  Ti4+  Ti22  1  0.83383796  0.49987348  0.50128879  1
  Ti4+  Ti23  1  0.83330629  0.50227289  0.83031822  1
  Ti4+  Ti24  1  0.83374840  0.83441571  0.16870153  1
  Ti4+  Ti25  1  0.83213934  0.83501005  0.50331143  1
  Ti4+  Ti26  1  0.83621890  0.83787735  0.83094414  1
  Cu+  Cu27  1  0.16451257  0.17164951  0.00227287  1
  Cu+  Cu28  1  0.16610478  0.16324358  0.33523407  1
  Cu+  Cu29  1  0.16759725  0.17292658  0.66595899  1
  Cu+  Cu30  1  0.16644202  0.49781627  -0.00835610  1
  Cu+  Cu31  1  0.16334090  0.49688882  0.32942865  1
  Cu+  Cu32  1  0.16971390  0.50164679  0.66498104  1
  Cu+  Cu33  1  0.16676063  0.83322313  0.00747494  1
  Cu+  Cu34  1  0.16817814  0.83186682  0.33688662  1
  Cu+  Cu35  1  0.16543872  0.83825965  0.67213689  1
  Cu+  Cu36  1  0.50200658  0.16629752  0.00200927  1
  Cu+  Cu37  1  0.49791313  0.16626452  0.33229336  1
  Cu+  Cu38  1  0.49680236  0.16385969  0.66618212  1
  Cu+  Cu39  1  0.50708373  0.50398787  0.00245520  1
  Cu+  Cu40  1  0.50048232  0.49770623  0.33288905  1
  Cu+  Cu41  1  0.50751653  0.49850096  0.66898817  1
  Cu+  Cu42  1  0.50050636  0.83324234  -0.00380034  1
  Cu+  Cu43  1  0.49606399  0.82696365  0.32823942  1
  Cu+  Cu44  1  0.49933915  0.83092093  0.66146591  1
  Cu+  Cu45  1  0.82995626  0.16396470  -0.00241404  1
  Cu+  Cu46  1  0.83112386  0.16221746  0.33170386  1
  Cu+  Cu47  1  0.82849647  0.16984998  0.66479100  1
  Cu+  Cu48  1  0.83269849  0.50326472  0.00246298  1
  Cu+  Cu49  1  0.83425295  0.50007545  0.33601357  1
  Cu+  Cu50  1  0.84064014  0.50112222  0.66503153  1
  Cu+  Cu51  1  0.83723431  0.83471479  0.00072539  1
  Cu+  Cu52  1  0.83105373  0.83313575  0.33672265  1
  Cu+  Cu53  1  0.83588751  0.84341575  0.66713459  1
  Cu+  Cu54  1  0.16454723  -0.00366635  0.16807025  1
  Cu+  Cu55  1  0.16822577  0.00529631  0.49835611  1
  Cu+  Cu56  1  0.16571894  0.00567569  0.83877619  1
  Cu+  Cu57  1  0.16004029  0.33231598  0.16725959  1
  Cu+  Cu58  1  0.16683489  0.33105970  0.50208105  1
  Cu+  Cu59  1  0.16620274  0.33805556  0.83495143  1
  Cu+  Cu60  1  0.17047999  0.66568669  0.16276298  1
  Cu+  Cu61  1  0.16475349  0.66833916  0.50055607  1
  Cu+  Cu62  1  0.17152912  0.66764865  0.83228537  1
  Cu+  Cu63  1  0.50018484  -0.00179881  0.16338480  1
  Cu+  Cu64  1  0.49409902  -0.00417863  0.49746159  1
  Cu+  Cu65  1  0.49823820  -0.00093697  0.83027985  1
  Cu+  Cu66  1  0.50113642  0.33486291  0.16627420  1
  Cu+  Cu67  1  0.49715589  0.33018121  0.49954264  1
  Cu+  Cu68  1  0.51077125  0.32868976  0.83647537  1
  Cu+  Cu69  1  0.49935806  0.66805909  0.16742395  1
  Cu+  Cu70  1  0.49713070  0.65617540  0.49889074  1
  Cu+  Cu71  1  0.50326960  0.66499493  0.83313007  1
  Cu+  Cu72  1  0.83130566  0.00083976  0.17060526  1
  Cu+  Cu73  1  0.83295107  0.00121186  0.50234935  1
  Cu+  Cu74  1  0.82755230  0.00291212  0.83083722  1
  Cu+  Cu75  1  0.83670973  0.33178981  0.16644499  1
  Cu+  Cu76  1  0.82949788  0.33063005  0.49867973  1
  Cu+  Cu77  1  0.83081969  0.34013751  0.83075473  1
  Cu+  Cu78  1  0.83589190  0.66778137  0.16776975  1
  Cu+  Cu79  1  0.83472604  0.66761247  0.50402547  1
  Cu+  Cu80  1  0.83568617  0.67262755  0.83246004  1
  Cu+  Cu81  1  -0.00003457  0.16877332  0.16325067  1
  Cu+  Cu82  1  -0.00251025  0.16766753  0.49917728  1
  Cu+  Cu83  1  -0.00355422  0.17099159  0.83239956  1
  Cu+  Cu84  1  0.00035341  0.49678582  0.16872945  1
  Cu+  Cu85  1  -0.00113777  0.50138355  0.50316503  1
  Cu+  Cu86  1  0.00109566  0.49791800  0.82592045  1
  Cu+  Cu87  1  -0.00072237  0.83535558  0.17094914  1
  Cu+  Cu88  1  -0.00107263  0.83847278  0.50572688  1
  Cu+  Cu89  1  0.00472347  0.84099042  0.83299218  1
  Cu+  Cu90  1  0.33358717  0.16685367  0.16757500  1
  Cu+  Cu91  1  0.32931109  0.16664915  0.49915286  1
  Cu+  Cu92  1  0.33447623  0.16920888  0.83389514  1
  Cu+  Cu93  1  0.33267598  0.49844059  0.16214634  1
  Cu+  Cu94  1  0.33395640  0.49788544  0.49814891  1
  Cu+  Cu95  1  0.34147669  0.50197067  0.82880869  1
  Cu+  Cu96  1  0.33547499  0.82690907  0.16661494  1
  Cu+  Cu97  1  0.32932391  0.82661955  0.49619977  1
  Cu+  Cu98  1  0.33112880  0.82915229  0.83268833  1
  Cu+  Cu99  1  0.66808211  0.16209259  0.16947913  1
  Cu+  Cu100  1  0.66336225  0.16393815  0.49767023  1
  Cu+  Cu101  1  0.66464667  0.16583756  0.84098564  1
  Cu+  Cu102  1  0.66912380  0.50166434  0.16886841  1
  Cu+  Cu103  1  0.66720215  0.49848315  0.50421900  1
  Cu+  Cu104  1  0.66845990  0.49776391  0.83692134  1
  Cu+  Cu105  1  0.66728534  0.83403900  0.16325876  1
  Cu+  Cu106  1  0.66188465  0.83129385  0.50222802  1
  Cu+  Cu107  1  0.66981708  0.83627939  0.82688352  1
  Cu+  Cu108  1  0.59550100  0.59894225  0.93147611  1
  Cu+  Cu109  1  0.73707083  0.06976095  0.92712953  1
  Cu+  Cu110  1  0.40530028  0.57934214  0.40283629  1
  Cu+  Cu111  1  0.07010567  0.92411038  0.08024958  1
  Cu+  Cu112  1  0.25564540  0.74427638  0.73973833  1
  Cu+  Cu113  1  0.26027247  0.07613362  0.40488809  1
  Cu+  Cu114  1  0.07140176  0.41188508  0.92012258  1
  Cu+  Cu115  1  0.73830584  0.93140089  0.73889992  1
  Cu+  Cu116  1  0.93051692  0.59748865  0.59085096  1
  Cu+  Cu117  1  0.92957712  0.40554447  0.73546645  1
  Cu+  Cu118  1  0.07050511  0.26060047  0.07358896  1
  Cu+  Cu119  1  0.40729447  0.73752279  0.25576531  1
  Cu+  Cu120  1  0.26249161  0.73821390  0.07360361  1
  Cu+  Cu121  1  0.58513855  0.92760397  0.58537271  1
  Cu+  Cu122  1  0.07156422  0.40416738  0.26323370  1
  Cu+  Cu123  1  0.59271156  0.25527851  0.93507682  1
  Cu+  Cu124  1  0.73774128  0.07085943  0.26333044  1
  Cu+  Cu125  1  0.74499336  0.41220458  0.93264084  1
  Cu+  Cu126  1  0.08283944  0.93593259  0.74333607  1
  Cu+  Cu127  1  0.26101670  0.26047207  0.59441243  1
  Cu+  Cu128  1  0.59572331  0.58926259  0.59219750  1
  Cu+  Cu129  1  0.25011490  0.73665212  0.40806583  1
  Cu+  Cu130  1  0.92854630  0.93435388  0.59032014  1
  Cu+  Cu131  1  0.59248160  0.39804109  0.73746066  1
  Cu+  Cu132  1  0.41591385  0.59105112  0.74076301  1
  Te2-  Te133  1  0.25179552  0.25342720  0.08456978  1
  Te2-  Te134  1  0.25028956  0.25355190  0.41200506  1
  Te2-  Te135  1  0.25383998  0.25688258  0.75013687  1
  Te2-  Te136  1  0.25223742  0.58252102  0.07511895  1
  Te2-  Te137  1  0.25028834  0.58386187  0.41065545  1
  Te2-  Te138  1  0.25755700  0.58801588  0.74321922  1
  Te2-  Te139  1  0.25571760  0.91798766  0.08569714  1
  Te2-  Te140  1  0.25336544  0.92088984  0.41481774  1
  Te2-  Te141  1  0.25274896  0.92405743  0.75298904  1
  Te2-  Te142  1  0.58941648  0.25190936  0.08535211  1
  Te2-  Te143  1  0.58260069  0.25023274  0.41397835  1
  Te2-  Te144  1  0.58936469  0.24614238  0.74377239  1
  Te2-  Te145  1  0.59071637  0.59025447  0.08483551  1
  Te2-  Te146  1  0.58796676  0.58136031  0.41418648  1
  Te2-  Te147  1  0.59379698  0.58865677  0.74792478  1
  Te2-  Te148  1  0.58522485  0.91793069  0.07797867  1
  Te2-  Te149  1  0.57967157  0.91232432  0.41203190  1
  Te2-  Te150  1  0.58417415  0.92072510  0.74213543  1
  Te2-  Te151  1  0.91714352  0.25211995  0.07631759  1
  Te2-  Te152  1  0.91462036  0.24981039  0.41304525  1
  Te2-  Te153  1  0.91538197  0.25440878  0.74587863  1
  Te2-  Te154  1  0.92090020  0.58531925  0.08315490  1
  Te2-  Te155  1  0.91893782  0.58667206  0.41650719  1
  Te2-  Te156  1  0.92129817  0.59113312  0.74716379  1
  Te2-  Te157  1  0.91815501  0.92234936  0.08302094  1
  Te2-  Te158  1  0.91712954  0.91946583  0.41634342  1
  Te2-  Te159  1  0.92449057  0.92879057  0.74730996  1
  Te2-  Te160  1  0.25194944  0.07906676  0.25092685  1
  Te2-  Te161  1  0.25116086  0.08215060  0.58885612  1
  Te2-  Te162  1  0.25147758  0.08773854  0.92106057  1
  Te2-  Te163  1  0.25158202  0.41338606  0.24838185  1
  Te2-  Te164  1  0.25399989  0.41476525  0.58524166  1
  Te2-  Te165  1  0.25905143  0.41742820  0.91380055  1
  Te2-  Te166  1  0.25368076  0.74125367  0.25664140  1
  Te2-  Te167  1  0.24971579  0.74823006  0.58909264  1
  Te2-  Te168  1  0.25248884  0.74669495  0.92361777  1
  Te2-  Te169  1  0.58330364  0.07743257  0.25365725  1
  Te2-  Te170  1  0.58214300  0.07912440  0.58397490  1
  Te2-  Te171  1  0.58358772  0.07439161  0.92168510  1
  Te2-  Te172  1  0.58661922  0.41563430  0.25165259  1
  Te2-  Te173  1  0.58749470  0.40670238  0.58502596  1
  Te2-  Te174  1  0.59161173  0.41098203  0.92762165  1
  Te2-  Te175  1  0.58867616  0.74727552  0.25003435  1
  Te2-  Te176  1  0.58283044  0.74012972  0.58419025  1
  Te2-  Te177  1  0.58957434  0.75111936  0.91562799  1
  Te2-  Te178  1  0.92157576  0.08206738  0.25025815  1
  Te2-  Te179  1  0.91802263  0.08467691  0.58827648  1
  Te2-  Te180  1  0.91722518  0.08230069  0.91534939  1
  Te2-  Te181  1  0.91907278  0.41176694  0.25573530  1
  Te2-  Te182  1  0.91989856  0.40819791  0.58347195  1
  Te2-  Te183  1  0.91841903  0.41688488  0.91972792  1
  Te2-  Te184  1  0.91792322  0.74993931  0.25513403  1
  Te2-  Te185  1  0.92033328  0.75008469  0.59054088  1
  Te2-  Te186  1  0.92241744  0.75337196  0.91640392  1
  Te2-  Te187  1  0.07783741  0.24949287  0.25696053  1
  Te2-  Te188  1  0.07680778  0.25340179  0.58545039  1
  Te2-  Te189  1  0.07646748  0.25686456  0.91917064  1
  Te2-  Te190  1  0.08226748  0.58704801  0.24875184  1
  Te2-  Te191  1  0.08301457  0.58732590  0.58702113  1
  Te2-  Te192  1  0.08191494  0.58581448  0.91241965  1
  Te2-  Te193  1  0.08259352  0.91715492  0.25761094  1
  Te2-  Te194  1  0.08223942  0.92731166  0.58857327  1
  Te2-  Te195  1  0.08236806  0.92244075  0.92592854  1
  Te2-  Te196  1  0.41522209  0.25314387  0.25074294  1
  Te2-  Te197  1  0.41278183  0.25122337  0.58642886  1
  Te2-  Te198  1  0.41746691  0.25274123  0.91954272  1
  Te2-  Te199  1  0.41064912  0.58418909  0.25108901  1
  Te2-  Te200  1  0.41205338  0.58088088  0.58937117  1
  Te2-  Te201  1  0.41859307  0.58503256  0.92039205  1
  Te2-  Te202  1  0.41420001  0.91788991  0.24954276  1
  Te2-  Te203  1  0.40918497  0.91264555  0.58213023  1
  Te2-  Te204  1  0.41397784  0.91589745  0.91466821  1
  Te2-  Te205  1  0.74906929  0.25183783  0.25100625  1
  Te2-  Te206  1  0.74245547  0.25142513  0.58276436  1
  Te2-  Te207  1  0.74668376  0.25783911  0.92215200  1
  Te2-  Te208  1  0.75120217  0.58601671  0.25351493  1
  Te2-  Te209  1  0.74822891  0.58643101  0.58917486  1
  Te2-  Te210  1  0.75087013  0.59113553  0.91891366  1
  Te2-  Te211  1  0.74486993  0.91746855  0.25474664  1
  Te2-  Te212  1  0.74104898  0.92347748  0.58626732  1
  Te2-  Te213  1  0.74717928  0.91833792  0.92078291  1
  Te2-  Te214  1  0.08059920  0.07954130  0.08028685  1
  Te2-  Te215  1  0.07706760  0.08091123  0.41508354  1
  Te2-  Te216  1  0.08104812  0.08773394  0.74795695  1
  Te2-  Te217  1  0.07710925  0.41405818  0.07498528  1
  Te2-  Te218  1  0.07959498  0.41344519  0.41717433  1
  Te2-  Te219  1  0.08379098  0.41261263  0.74070210  1
  Te2-  Te220  1  0.07834034  0.74689398  0.08492890  1
  Te2-  Te221  1  0.07742132  0.75169349  0.41872985  1
  Te2-  Te222  1  0.08152353  0.74823533  0.75088225  1
  Te2-  Te223  1  0.41451053  0.08197729  0.08110228  1
  Te2-  Te224  1  0.41213697  0.07933135  0.41185453  1
  Te2-  Te225  1  0.41230825  0.08177929  0.74900664  1
  Te2-  Te226  1  0.41838824  0.41635967  0.07890036  1
  Te2-  Te227  1  0.41378550  0.41122542  0.41298314  1
  Te2-  Te228  1  0.42327128  0.40977263  0.75057405  1
  Te2-  Te229  1  0.41595699  0.74419427  0.07484265  1
  Te2-  Te230  1  0.40924307  0.73765381  0.41029735  1
  Te2-  Te231  1  0.41397274  0.74499616  0.74416448  1
  Te2-  Te232  1  0.74587468  0.07746760  0.07953062  1
  Te2-  Te233  1  0.74490665  0.07711847  0.41503978  1
  Te2-  Te234  1  0.74191670  0.08500335  0.74493493  1
  Te2-  Te235  1  0.74839641  0.41379101  0.08439844  1
  Te2-  Te236  1  0.74708568  0.41578022  0.41583755  1
  Te2-  Te237  1  0.74627721  0.41708672  0.74136877  1
  Te2-  Te238  1  0.75162708  0.74873662  0.08082780  1
  Te2-  Te239  1  0.74763359  0.74769421  0.41939045  1
  Te2-  Te240  1  0.75261349  0.75118161  0.74416480  1
