# generated using pymatgen
data_Ti27(Cu53Te54)2
_symmetry_space_group_name_H-M   'P 1'
_cell_length_a   17.90855863
_cell_length_b   17.90552873
_cell_length_c   17.90953308
_cell_angle_alpha   90.04200519
_cell_angle_beta   90.00617520
_cell_angle_gamma   89.94475345
_symmetry_Int_Tables_number   1
_chemical_formula_structural   Ti27(Cu53Te54)2
_chemical_formula_sum   'Ti27 Cu106 Te108'
_cell_volume   5742.90623186
_cell_formula_units_Z   1
loop_
 _symmetry_equiv_pos_site_id
 _symmetry_equiv_pos_as_xyz
  1  'x, y, z'
loop_
 _atom_type_symbol
 _atom_type_oxidation_number
  Ti4+  4.0
  Cu+  1.0
  Te2-  -2.0
loop_
 _atom_site_type_symbol
 _atom_site_label
 _atom_site_symmetry_multiplicity
 _atom_site_fract_x
 _atom_site_fract_y
 _atom_site_fract_z
 _atom_site_occupancy
  Ti4+  Ti0  1  0.16865337  0.16874661  0.16219075  1
  Ti4+  Ti1  1  0.16373197  0.16595346  0.49897282  1
  Ti4+  Ti2  1  0.16427508  0.16607422  0.83197485  1
  Ti4+  Ti3  1  0.17049780  0.49885491  0.16916953  1
  Ti4+  Ti4  1  0.16651480  0.50526366  0.50012596  1
  Ti4+  Ti5  1  0.16564599  0.50007801  0.83290290  1
  Ti4+  Ti6  1  0.16648213  0.83268923  0.16621379  1
  Ti4+  Ti7  1  0.16619109  0.83595545  0.50393906  1
  Ti4+  Ti8  1  0.16261070  0.83339879  0.83440860  1
  Ti4+  Ti9  1  0.49873677  0.16703304  0.16714046  1
  Ti4+  Ti10  1  0.49817558  0.16407398  0.50002913  1
  Ti4+  Ti11  1  0.49855541  0.16309029  0.83541946  1
  Ti4+  Ti12  1  0.50518044  0.49924079  0.16606013  1
  Ti4+  Ti13  1  0.50074106  0.49679487  0.50214798  1
  Ti4+  Ti14  1  0.50043192  0.49995604  0.83546637  1
  Ti4+  Ti15  1  0.50109495  0.83191876  0.16520987  1
  Ti4+  Ti16  1  0.50229971  0.83313129  0.49685479  1
  Ti4+  Ti17  1  0.49747043  0.82896633  0.83040409  1
  Ti4+  Ti18  1  0.83512583  0.16822787  0.16579558  1
  Ti4+  Ti19  1  0.83177962  0.16966869  0.50187098  1
  Ti4+  Ti20  1  0.82873546  0.16978226  0.83416190  1
  Ti4+  Ti21  1  0.83438048  0.49943371  0.16551360  1
  Ti4+  Ti22  1  0.83495742  0.49836748  0.49920695  1
  Ti4+  Ti23  1  0.83463697  0.50115315  0.83375032  1
  Ti4+  Ti24  1  0.83578001  0.83404780  0.16502774  1
  Ti4+  Ti25  1  0.83395688  0.83480131  0.49783300  1
  Ti4+  Ti26  1  0.83014495  0.83609869  0.83215623  1
  Cu+  Cu27  1  0.17092073  0.16958729  -0.00573645  1
  Cu+  Cu28  1  0.16504642  0.16481823  0.33030568  1
  Cu+  Cu29  1  0.16341915  0.16412311  0.66708270  1
  Cu+  Cu30  1  0.16542718  0.50154652  0.00299123  1
  Cu+  Cu31  1  0.17506117  0.50084806  0.33772382  1
  Cu+  Cu32  1  0.16196790  0.50119851  0.66303981  1
  Cu+  Cu33  1  0.16433606  0.83342835  -0.00059357  1
  Cu+  Cu34  1  0.16735811  0.83618430  0.33388459  1
  Cu+  Cu35  1  0.16342885  0.82855621  0.67114681  1
  Cu+  Cu36  1  0.49619801  0.16639904  0.00384774  1
  Cu+  Cu37  1  0.50068568  0.16372623  0.33546867  1
  Cu+  Cu38  1  0.49856292  0.16305976  0.66834356  1
  Cu+  Cu39  1  0.50529764  0.50903332  0.00059508  1
  Cu+  Cu40  1  0.50354430  0.49512272  0.33477813  1
  Cu+  Cu41  1  0.49955632  0.49816690  0.67100755  1
  Cu+  Cu42  1  0.50105460  0.83170969  -0.00222362  1
  Cu+  Cu43  1  0.50199692  0.83423273  0.33046865  1
  Cu+  Cu44  1  0.49752216  0.82748460  0.65986615  1
  Cu+  Cu45  1  0.83030798  0.17400457  0.00081215  1
  Cu+  Cu46  1  0.83578907  0.16666207  0.33642929  1
  Cu+  Cu47  1  0.83138686  0.17011573  0.66973697  1
  Cu+  Cu48  1  0.83363271  0.50012763  -0.00234313  1
  Cu+  Cu49  1  0.83584455  0.49650179  0.33190968  1
  Cu+  Cu50  1  0.83410377  0.49923226  0.66647456  1
  Cu+  Cu51  1  0.83408900  0.83648886  0.00076178  1
  Cu+  Cu52  1  0.83375275  0.83049830  0.32895039  1
  Cu+  Cu53  1  0.83379193  0.83874415  0.66537050  1
  Cu+  Cu54  1  0.16830895  0.00233129  0.16275734  1
  Cu+  Cu55  1  0.15995774  -0.00235678  0.49619865  1
  Cu+  Cu56  1  0.15967800  -0.00024520  0.83235683  1
  Cu+  Cu57  1  0.17480782  0.33047730  0.17228513  1
  Cu+  Cu58  1  0.16315959  0.33480699  0.50155117  1
  Cu+  Cu59  1  0.16731263  0.33302386  0.83072155  1
  Cu+  Cu60  1  0.16412818  0.66387006  0.16667633  1
  Cu+  Cu61  1  0.16578010  0.67618555  0.50098581  1
  Cu+  Cu62  1  0.16542740  0.66827389  0.83273765  1
  Cu+  Cu63  1  0.50153504  0.00001609  0.16577923  1
  Cu+  Cu64  1  0.50111245  -0.00092366  0.49529834  1
  Cu+  Cu65  1  0.49966828  -0.00527923  0.83460572  1
  Cu+  Cu66  1  0.49621023  0.33511059  0.16686325  1
  Cu+  Cu67  1  0.50174392  0.32500909  0.50597419  1
  Cu+  Cu68  1  0.50194049  0.33370411  0.83444059  1
  Cu+  Cu69  1  0.50347327  0.66534662  0.16183762  1
  Cu+  Cu70  1  0.50021778  0.66584517  0.49953992  1
  Cu+  Cu71  1  0.49918621  0.65930896  0.83146598  1
  Cu+  Cu72  1  0.83779153  -0.00035038  0.16661490  1
  Cu+  Cu73  1  0.83620178  0.00224533  0.50125764  1
  Cu+  Cu74  1  0.82675044  0.00445104  0.83300402  1
  Cu+  Cu75  1  0.83146816  0.33180865  0.16370360  1
  Cu+  Cu76  1  0.83052484  0.33529697  0.50304170  1
  Cu+  Cu77  1  0.83266769  0.33557987  0.84134190  1
  Cu+  Cu78  1  0.83358305  0.66968406  0.16671819  1
  Cu+  Cu79  1  0.83646463  0.66288296  0.49556896  1
  Cu+  Cu80  1  0.83281825  0.67141464  0.82735405  1
  Cu+  Cu81  1  0.00336631  0.16486676  0.16277436  1
  Cu+  Cu82  1  -0.00176799  0.16791335  0.49803839  1
  Cu+  Cu83  1  -0.00466161  0.17054341  0.83454581  1
  Cu+  Cu84  1  0.00314701  0.50119474  0.16442543  1
  Cu+  Cu85  1  0.00224694  0.50005513  0.50220911  1
  Cu+  Cu86  1  0.00012943  0.50178289  0.83065421  1
  Cu+  Cu87  1  0.00012977  0.83449389  0.16565685  1
  Cu+  Cu88  1  -0.00331549  0.84282787  0.50699335  1
  Cu+  Cu89  1  -0.00383153  0.83692916  0.83335615  1
  Cu+  Cu90  1  0.33498203  0.17279396  0.16342438  1
  Cu+  Cu91  1  0.33273328  0.16228674  0.50014121  1
  Cu+  Cu92  1  0.33028345  0.16493320  0.83301587  1
  Cu+  Cu93  1  0.34188150  0.49929322  0.16806121  1
  Cu+  Cu94  1  0.33077909  0.50183581  0.49601341  1
  Cu+  Cu95  1  0.33349445  0.49950204  0.83384590  1
  Cu+  Cu96  1  0.33295631  0.83195621  0.16671514  1
  Cu+  Cu97  1  0.33763573  0.82976456  0.50015579  1
  Cu+  Cu98  1  0.32767637  0.82959384  0.82950149  1
  Cu+  Cu99  1  0.66604611  0.16956263  0.16528119  1
  Cu+  Cu100  1  0.66416186  0.16690731  0.50303129  1
  Cu+  Cu101  1  0.66618275  0.15907965  0.83822106  1
  Cu+  Cu102  1  0.67157114  0.49549440  0.17191037  1
  Cu+  Cu103  1  0.66762967  0.49619844  0.50313494  1
  Cu+  Cu104  1  0.66746353  0.50134471  0.83828839  1
  Cu+  Cu105  1  0.67048337  0.83169405  0.16668165  1
  Cu+  Cu106  1  0.66732771  0.83295634  0.49478280  1
  Cu+  Cu107  1  0.66283316  0.83545435  0.83172054  1
  Cu+  Cu108  1  0.41308195  0.40931309  0.26245658  1
  Cu+  Cu109  1  0.74872382  0.07230507  0.93336372  1
  Cu+  Cu110  1  0.74949978  0.40171594  0.26268870  1
  Cu+  Cu111  1  0.73778033  0.41211136  0.92531803  1
  Cu+  Cu112  1  0.26134982  0.24644668  0.26441047  1
  Cu+  Cu113  1  0.40886378  0.59571209  0.07672513  1
  Cu+  Cu114  1  0.07431017  0.40471649  0.59213854  1
  Cu+  Cu115  1  0.92829968  0.26191456  0.92791677  1
  Cu+  Cu116  1  0.07123902  0.59322161  0.07369340  1
  Cu+  Cu117  1  0.26131684  0.26293196  0.91540452  1
  Cu+  Cu118  1  0.59965325  0.59450394  0.92791644  1
  Cu+  Cu119  1  0.73948275  0.74083992  0.25882154  1
  Cu+  Cu120  1  0.26243151  0.75105588  0.40290847  1
  Cu+  Cu121  1  0.58898507  0.92373297  0.92736909  1
  Cu+  Cu122  1  0.59204802  0.24869866  0.60080161  1
  Cu+  Cu123  1  0.73981920  0.41231159  0.59782395  1
  Cu+  Cu124  1  0.06697716  0.74623774  0.59538147  1
  Cu+  Cu125  1  0.40802528  0.26247808  0.07243800  1
  Cu+  Cu126  1  0.25485493  0.73888280  0.74448485  1
  Cu+  Cu127  1  0.92188849  0.93518817  0.59879622  1
  Cu+  Cu128  1  0.40369555  0.58197042  0.73824372  1
  Cu+  Cu129  1  0.73607296  0.25984244  0.07592036  1
  Cu+  Cu130  1  0.06972654  0.92086408  0.40261315  1
  Cu+  Cu131  1  0.25751683  0.40340234  0.41855459  1
  Cu+  Cu132  1  0.41053429  0.73708249  0.58690767  1
  Te2-  Te133  1  0.25548622  0.25861549  0.07405747  1
  Te2-  Te134  1  0.25370805  0.25166406  0.41552374  1
  Te2-  Te135  1  0.25114535  0.25032045  0.74484296  1
  Te2-  Te136  1  0.25626614  0.58527689  0.08287594  1
  Te2-  Te137  1  0.25350658  0.59518688  0.41506900  1
  Te2-  Te138  1  0.25080352  0.58499571  0.74406873  1
  Te2-  Te139  1  0.25179812  0.91666088  0.08050532  1
  Te2-  Te140  1  0.25517466  0.91865753  0.41775759  1
  Te2-  Te141  1  0.24767039  0.91989117  0.74826915  1
  Te2-  Te142  1  0.58376244  0.25546997  0.07974229  1
  Te2-  Te143  1  0.58524549  0.25034936  0.41397119  1
  Te2-  Te144  1  0.58602119  0.24871827  0.75283397  1
  Te2-  Te145  1  0.59661143  0.58592509  0.08342787  1
  Te2-  Te146  1  0.58604227  0.58121400  0.41762501  1
  Te2-  Te147  1  0.58924554  0.58296836  0.74749912  1
  Te2-  Te148  1  0.58771493  0.91794594  0.08148005  1
  Te2-  Te149  1  0.58690749  0.91904453  0.41078222  1
  Te2-  Te150  1  0.57961849  0.91430955  0.74292780  1
  Te2-  Te151  1  0.92362291  0.25458782  0.08092651  1
  Te2-  Te152  1  0.91670220  0.25523600  0.41709045  1
  Te2-  Te153  1  0.91502052  0.25688772  0.74996161  1
  Te2-  Te154  1  0.91821298  0.58689928  0.08001383  1
  Te2-  Te155  1  0.92167519  0.58116806  0.41256728  1
  Te2-  Te156  1  0.91780939  0.58605182  0.74630367  1
  Te2-  Te157  1  0.92137625  0.92051991  0.07943566  1
  Te2-  Te158  1  0.91672586  0.92173991  0.40915098  1
  Te2-  Te159  1  0.91659208  0.92518915  0.75022713  1
  Te2-  Te160  1  0.25435121  0.08274194  0.24795933  1
  Te2-  Te161  1  0.24719381  0.07918130  0.58303281  1
  Te2-  Te162  1  0.24956002  0.07727452  0.91558033  1
  Te2-  Te163  1  0.26052966  0.41201474  0.25758456  1
  Te2-  Te164  1  0.25264517  0.41692643  0.58581168  1
  Te2-  Te165  1  0.25146485  0.41669699  0.91969595  1
  Te2-  Te166  1  0.25180909  0.74588617  0.25114757  1
  Te2-  Te167  1  0.25607526  0.74627544  0.59071499  1
  Te2-  Te168  1  0.24982259  0.74721114  0.92010121  1
  Te2-  Te169  1  0.58599136  0.08284661  0.25069095  1
  Te2-  Te170  1  0.58399113  0.07769136  0.58576545  1
  Te2-  Te171  1  0.58325785  0.07766302  0.92512410  1
  Te2-  Te172  1  0.58923104  0.40937719  0.25355193  1
  Te2-  Te173  1  0.58490022  0.41093548  0.59084551  1
  Te2-  Te174  1  0.58512229  0.41251360  0.92365501  1
  Te2-  Te175  1  0.58622573  0.74563375  0.25125403  1
  Te2-  Te176  1  0.58924913  0.74620876  0.58175610  1
  Te2-  Te177  1  0.58534700  0.74378649  0.91633436  1
  Te2-  Te178  1  0.92057644  0.08401137  0.25095444  1
  Te2-  Te179  1  0.91926983  0.08592215  0.58893662  1
  Te2-  Te180  1  0.91485541  0.08317357  0.92005995  1
  Te2-  Te181  1  0.92109783  0.41308093  0.24783392  1
  Te2-  Te182  1  0.92159525  0.41241196  0.58735735  1
  Te2-  Te183  1  0.92435336  0.41671890  0.92094277  1
  Te2-  Te184  1  0.92286764  0.74733332  0.25055145  1
  Te2-  Te185  1  0.91550056  0.74595555  0.58604238  1
  Te2-  Te186  1  0.91547216  0.75101451  0.91662223  1
  Te2-  Te187  1  0.08098824  0.25218557  0.24976417  1
  Te2-  Te188  1  0.07893472  0.25117781  0.58619341  1
  Te2-  Te189  1  0.07978425  0.25563253  0.91902308  1
  Te2-  Te190  1  0.08455891  0.58153717  0.25600448  1
  Te2-  Te191  1  0.07869027  0.59250489  0.58571281  1
  Te2-  Te192  1  0.08057584  0.58626039  0.91823755  1
  Te2-  Te193  1  0.08187630  0.92202718  0.24944784  1
  Te2-  Te194  1  0.08157597  0.92346342  0.59430930  1
  Te2-  Te195  1  0.07767980  0.91915147  0.92009523  1
  Te2-  Te196  1  0.41443861  0.25400496  0.25931511  1
  Te2-  Te197  1  0.41059728  0.24764776  0.58805713  1
  Te2-  Te198  1  0.41334957  0.25402377  0.91873537  1
  Te2-  Te199  1  0.42165032  0.58553380  0.25401973  1
  Te2-  Te200  1  0.41218239  0.58342316  0.58544519  1
  Te2-  Te201  1  0.41046137  0.58743664  0.92148408  1
  Te2-  Te202  1  0.41583502  0.91760154  0.24953295  1
  Te2-  Te203  1  0.41644262  0.91983633  0.58256910  1
  Te2-  Te204  1  0.41073300  0.91247224  0.91565566  1
  Te2-  Te205  1  0.74784754  0.25082478  0.25531939  1
  Te2-  Te206  1  0.74449899  0.25556936  0.59075915  1
  Te2-  Te207  1  0.73744994  0.25678525  0.92164655  1
  Te2-  Te208  1  0.75014000  0.58632686  0.25383684  1
  Te2-  Te209  1  0.74965136  0.58533859  0.58403231  1
  Te2-  Te210  1  0.75138038  0.59191317  0.91904789  1
  Te2-  Te211  1  0.74970304  0.92063961  0.25104929  1
  Te2-  Te212  1  0.74647738  0.91956537  0.58126264  1
  Te2-  Te213  1  0.74346546  0.92037891  0.92218056  1
  Te2-  Te214  1  0.08520737  0.08315620  0.07561148  1
  Te2-  Te215  1  0.07766539  0.08214869  0.41085822  1
  Te2-  Te216  1  0.07468974  0.08290618  0.74892584  1
  Te2-  Te217  1  0.08691522  0.41107911  0.08556252  1
  Te2-  Te218  1  0.08219755  0.41801619  0.41247451  1
  Te2-  Te219  1  0.08049568  0.41414387  0.74698750  1
  Te2-  Te220  1  0.07967327  0.74703968  0.08040281  1
  Te2-  Te221  1  0.07609839  0.75459101  0.41659302  1
  Te2-  Te222  1  0.07247136  0.74546516  0.74993653  1
  Te2-  Te223  1  0.41324232  0.07974987  0.08346306  1
  Te2-  Te224  1  0.41306098  0.07893277  0.41284674  1
  Te2-  Te225  1  0.41443526  0.07888033  0.75120290  1
  Te2-  Te226  1  0.41709931  0.41684856  0.07451178  1
  Te2-  Te227  1  0.41514047  0.40894783  0.41775570  1
  Te2-  Te228  1  0.41405864  0.41191701  0.75030913  1
  Te2-  Te229  1  0.41402598  0.74775195  0.07887580  1
  Te2-  Te230  1  0.41682643  0.74512209  0.40865316  1
  Te2-  Te231  1  0.41035128  0.74013436  0.74279815  1
  Te2-  Te232  1  0.74745321  0.07923740  0.08378171  1
  Te2-  Te233  1  0.74822342  0.08344669  0.41759517  1
  Te2-  Te234  1  0.74495611  0.08338105  0.74463859  1
  Te2-  Te235  1  0.74563919  0.41358415  0.07692966  1
  Te2-  Te236  1  0.74659844  0.41244684  0.41292352  1
  Te2-  Te237  1  0.74677955  0.41410833  0.75031355  1
  Te2-  Te238  1  0.74953378  0.74817395  0.07800877  1
  Te2-  Te239  1  0.74961116  0.74521528  0.41307450  1
  Te2-  Te240  1  0.74606434  0.75297334  0.74474891  1
