# generated using pymatgen
data_Ti27(Cu53Te54)2
_symmetry_space_group_name_H-M   'P 1'
_cell_length_a   17.87200008
_cell_length_b   17.87133684
_cell_length_c   17.87065292
_cell_angle_alpha   89.95510947
_cell_angle_beta   90.03619278
_cell_angle_gamma   90.01473358
_symmetry_Int_Tables_number   1
_chemical_formula_structural   Ti27(Cu53Te54)2
_chemical_formula_sum   'Ti27 Cu106 Te108'
_cell_volume   5707.82151539
_cell_formula_units_Z   1
loop_
 _symmetry_equiv_pos_site_id
 _symmetry_equiv_pos_as_xyz
  1  'x, y, z'
loop_
 _atom_type_symbol
 _atom_type_oxidation_number
  Ti4+  4.0
  Cu+  1.0
  Te2-  -2.0
loop_
 _atom_site_type_symbol
 _atom_site_label
 _atom_site_symmetry_multiplicity
 _atom_site_fract_x
 _atom_site_fract_y
 _atom_site_fract_z
 _atom_site_occupancy
  Ti4+  Ti0  1  0.16398495  0.16603086  0.16664596  1
  Ti4+  Ti1  1  0.16485022  0.16544727  0.50108973  1
  Ti4+  Ti2  1  0.16970628  0.16740863  0.83497651  1
  Ti4+  Ti3  1  0.16421930  0.50138861  0.16794164  1
  Ti4+  Ti4  1  0.16559094  0.49923783  0.49989565  1
  Ti4+  Ti5  1  0.16485624  0.50171340  0.83568222  1
  Ti4+  Ti6  1  0.16860537  0.83233317  0.16682315  1
  Ti4+  Ti7  1  0.16793196  0.83317584  0.50160620  1
  Ti4+  Ti8  1  0.16854197  0.83132734  0.83513491  1
  Ti4+  Ti9  1  0.49764647  0.16393276  0.17104794  1
  Ti4+  Ti10  1  0.50096259  0.17058647  0.49860338  1
  Ti4+  Ti11  1  0.49987676  0.16604201  0.83291432  1
  Ti4+  Ti12  1  0.50019441  0.49897359  0.16930787  1
  Ti4+  Ti13  1  0.49703938  0.50137638  0.49794176  1
  Ti4+  Ti14  1  0.49969897  0.49851987  0.83290303  1
  Ti4+  Ti15  1  0.50128423  0.83040185  0.16577600  1
  Ti4+  Ti16  1  0.50031365  0.83560817  0.49863698  1
  Ti4+  Ti17  1  0.49945393  0.83376425  0.83073594  1
  Ti4+  Ti18  1  0.83134715  0.16345579  0.16297736  1
  Ti4+  Ti19  1  0.83413164  0.16825998  0.49994299  1
  Ti4+  Ti20  1  0.83614860  0.16755785  0.83269184  1
  Ti4+  Ti21  1  0.83263584  0.49853808  0.16620654  1
  Ti4+  Ti22  1  0.83469422  0.49971635  0.49914454  1
  Ti4+  Ti23  1  0.83295419  0.50301062  0.83159400  1
  Ti4+  Ti24  1  0.83293834  0.83596622  0.16831831  1
  Ti4+  Ti25  1  0.83592576  0.83197989  0.49899562  1
  Ti4+  Ti26  1  0.83268525  0.83426131  0.83433915  1
  Cu+  Cu27  1  0.16544521  0.16902376  0.00312933  1
  Cu+  Cu28  1  0.16258021  0.16724286  0.33101603  1
  Cu+  Cu29  1  0.16987818  0.16382811  0.66859445  1
  Cu+  Cu30  1  0.16395943  0.50189962  0.00063947  1
  Cu+  Cu31  1  0.16678489  0.50305794  0.33172740  1
  Cu+  Cu32  1  0.16736621  0.49813350  0.67009299  1
  Cu+  Cu33  1  0.16676628  0.82734819  0.00029538  1
  Cu+  Cu34  1  0.16672622  0.83436176  0.33591498  1
  Cu+  Cu35  1  0.17007899  0.83454534  0.66725153  1
  Cu+  Cu36  1  0.49870592  0.16201658  0.00257081  1
  Cu+  Cu37  1  0.49854477  0.17806062  0.33469208  1
  Cu+  Cu38  1  0.50166625  0.16966488  0.66510363  1
  Cu+  Cu39  1  0.50002830  0.49720113  0.00281495  1
  Cu+  Cu40  1  0.50199419  0.49594112  0.33685697  1
  Cu+  Cu41  1  0.49732673  0.50088279  0.66611442  1
  Cu+  Cu42  1  0.49576850  0.83101136  -0.00473321  1
  Cu+  Cu43  1  0.50473543  0.83237403  0.33313082  1
  Cu+  Cu44  1  0.49661237  0.83439122  0.66305822  1
  Cu+  Cu45  1  0.83279532  0.15984594  -0.00521891  1
  Cu+  Cu46  1  0.83310658  0.16182626  0.33395644  1
  Cu+  Cu47  1  0.83537354  0.17275829  0.66642547  1
  Cu+  Cu48  1  0.83064912  0.50120558  -0.00130222  1
  Cu+  Cu49  1  0.83922305  0.49792607  0.33044045  1
  Cu+  Cu50  1  0.83390188  0.50381165  0.66476399  1
  Cu+  Cu51  1  0.83010670  0.83752663  0.00394259  1
  Cu+  Cu52  1  0.83238323  0.83297776  0.33387139  1
  Cu+  Cu53  1  0.83615961  0.83150686  0.66761668  1
  Cu+  Cu54  1  0.16997575  0.00092563  0.16527740  1
  Cu+  Cu55  1  0.16537661  -0.00319447  0.49963264  1
  Cu+  Cu56  1  0.17174589  -0.00104359  0.83348497  1
  Cu+  Cu57  1  0.15976275  0.33302428  0.16474076  1
  Cu+  Cu58  1  0.16294758  0.33318999  0.50231807  1
  Cu+  Cu59  1  0.17091400  0.33750923  0.83271809  1
  Cu+  Cu60  1  0.17165264  0.66579461  0.16939525  1
  Cu+  Cu61  1  0.16659617  0.66745415  0.50102106  1
  Cu+  Cu62  1  0.16045373  0.66697387  0.83862323  1
  Cu+  Cu63  1  0.50366115  -0.00536968  0.16734040  1
  Cu+  Cu64  1  0.50175654  0.00512333  0.49783838  1
  Cu+  Cu65  1  0.49995085  -0.00159983  0.82858132  1
  Cu+  Cu66  1  0.49843383  0.33261146  0.17394287  1
  Cu+  Cu67  1  0.49612735  0.33466507  0.49236704  1
  Cu+  Cu68  1  0.49887549  0.33117431  0.83592970  1
  Cu+  Cu69  1  0.50018360  0.66302823  0.16775735  1
  Cu+  Cu70  1  0.49894680  0.67057991  0.49983346  1
  Cu+  Cu71  1  0.49872398  0.66414677  0.83211905  1
  Cu+  Cu72  1  0.83162283  0.00354306  0.16657432  1
  Cu+  Cu73  1  0.83584928  -0.00075619  0.49810475  1
  Cu+  Cu74  1  0.83233103  0.00016153  0.83528118  1
  Cu+  Cu75  1  0.83021996  0.33164627  0.16321975  1
  Cu+  Cu76  1  0.83888146  0.33332877  0.49834406  1
  Cu+  Cu77  1  0.83359324  0.33648096  0.83040537  1
  Cu+  Cu78  1  0.83286599  0.66825107  0.16944625  1
  Cu+  Cu79  1  0.83521400  0.66359233  0.50377446  1
  Cu+  Cu80  1  0.83524041  0.67075738  0.83072146  1
  Cu+  Cu81  1  -0.00047413  0.16892353  0.15832711  1
  Cu+  Cu82  1  -0.00347313  0.16633406  0.50191000  1
  Cu+  Cu83  1  0.00431790  0.16964488  0.83405851  1
  Cu+  Cu84  1  -0.00463193  0.50336041  0.16974317  1
  Cu+  Cu85  1  -0.00019830  0.49848106  0.49812184  1
  Cu+  Cu86  1  -0.00021832  0.50245654  0.83370586  1
  Cu+  Cu87  1  0.00055163  0.83632180  0.16764732  1
  Cu+  Cu88  1  0.00605458  0.83689143  0.49905744  1
  Cu+  Cu89  1  -0.00014492  0.83027865  0.83595709  1
  Cu+  Cu90  1  0.32884043  0.16206857  0.16778393  1
  Cu+  Cu91  1  0.33372860  0.16966800  0.49850033  1
  Cu+  Cu92  1  0.33408393  0.16376336  0.83211291  1
  Cu+  Cu93  1  0.33361468  0.50015739  0.17231305  1
  Cu+  Cu94  1  0.33072556  0.50148182  0.50184940  1
  Cu+  Cu95  1  0.33002663  0.49938442  0.83087150  1
  Cu+  Cu96  1  0.33236142  0.82858144  0.16138161  1
  Cu+  Cu97  1  0.33468437  0.83276739  0.50422553  1
  Cu+  Cu98  1  0.33835904  0.83051519  0.83684628  1
  Cu+  Cu99  1  0.66213332  0.15967971  0.16905546  1
  Cu+  Cu100  1  0.66948811  0.16912545  0.50172695  1
  Cu+  Cu101  1  0.66909463  0.16629856  0.83409166  1
  Cu+  Cu102  1  0.66910292  0.49946064  0.16613088  1
  Cu+  Cu103  1  0.66582574  0.49815537  0.49743804  1
  Cu+  Cu104  1  0.66644327  0.50082130  0.83367160  1
  Cu+  Cu105  1  0.66583762  0.83754647  0.16972977  1
  Cu+  Cu106  1  0.66921145  0.83185451  0.49598186  1
  Cu+  Cu107  1  0.66389986  0.83615209  0.83103853  1
  Cu+  Cu108  1  0.59275820  0.92346960  0.26321522  1
  Cu+  Cu109  1  0.59714672  0.26094507  0.25387050  1
  Cu+  Cu110  1  0.92562678  0.07196200  0.40863268  1
  Cu+  Cu111  1  0.41402823  0.73214815  0.92643193  1
  Cu+  Cu112  1  0.40658175  0.73967083  0.59263900  1
  Cu+  Cu113  1  0.25764899  0.73431332  0.07190831  1
  Cu+  Cu114  1  0.59621551  0.40603213  0.41177231  1
  Cu+  Cu115  1  0.26120185  0.06883025  0.73661942  1
  Cu+  Cu116  1  0.93104051  0.40630538  0.40208554  1
  Cu+  Cu117  1  0.39726574  0.26344917  0.40677650  1
  Cu+  Cu118  1  0.92937498  0.74477439  0.73985163  1
  Cu+  Cu119  1  0.07010993  0.26610807  0.07016152  1
  Cu+  Cu120  1  0.73826074  0.07128464  0.91967352  1
  Cu+  Cu121  1  0.26143024  0.40837246  0.73881334  1
  Cu+  Cu122  1  0.92435615  0.59934061  0.25833248  1
  Cu+  Cu123  1  0.93082322  0.59086901  0.59218600  1
  Cu+  Cu124  1  0.73730494  0.07628651  0.26472408  1
  Cu+  Cu125  1  0.92899383  0.26023601  0.59630617  1
  Cu+  Cu126  1  0.25981887  0.07418647  0.07330083  1
  Cu+  Cu127  1  0.92845001  0.07283336  0.06840021  1
  Cu+  Cu128  1  0.06643605  0.74096819  0.93224277  1
  Cu+  Cu129  1  0.07807899  0.92586354  0.40408111  1
  Cu+  Cu130  1  0.26514925  0.59356937  0.26334706  1
  Cu+  Cu131  1  0.58776578  0.06878516  0.07206921  1
  Cu+  Cu132  1  0.59560411  0.73962960  0.40684365  1
  Te2-  Te133  1  0.25251084  0.25384152  0.08403111  1
  Te2-  Te134  1  0.24603619  0.25333414  0.41357656  1
  Te2-  Te135  1  0.25503769  0.25349702  0.74707171  1
  Te2-  Te136  1  0.25465022  0.58271057  0.08005209  1
  Te2-  Te137  1  0.25204401  0.58728084  0.41580793  1
  Te2-  Te138  1  0.24844717  0.58988644  0.74993927  1
  Te2-  Te139  1  0.25286737  0.91829055  0.07757438  1
  Te2-  Te140  1  0.25588093  0.91807131  0.41634033  1
  Te2-  Te141  1  0.25755031  0.91547503  0.74920604  1
  Te2-  Te142  1  0.58243110  0.25067927  0.08529042  1
  Te2-  Te143  1  0.59454785  0.25537004  0.41218443  1
  Te2-  Te144  1  0.58648574  0.25173876  0.75009048  1
  Te2-  Te145  1  0.58553186  0.58323882  0.08259621  1
  Te2-  Te146  1  0.58594729  0.58804128  0.41403029  1
  Te2-  Te147  1  0.58448052  0.58434705  0.74697068  1
  Te2-  Te148  1  0.58539146  0.91444444  0.07446469  1
  Te2-  Te149  1  0.58918821  0.92369970  0.41500100  1
  Te2-  Te150  1  0.58436220  0.91846754  0.74276867  1
  Te2-  Te151  1  0.91373223  0.25295149  0.07448145  1
  Te2-  Te152  1  0.92108733  0.25204106  0.40813168  1
  Te2-  Te153  1  0.92341013  0.25599616  0.74946897  1
  Te2-  Te154  1  0.91538387  0.58657218  0.08033715  1
  Te2-  Te155  1  0.92145662  0.58853538  0.41267275  1
  Te2-  Te156  1  0.92355069  0.58973859  0.74510728  1
  Te2-  Te157  1  0.91935587  0.92083706  0.08156580  1
  Te2-  Te158  1  0.92209894  0.91897516  0.41003175  1
  Te2-  Te159  1  0.92021658  0.91976476  0.75062400  1
  Te2-  Te160  1  0.24931462  0.08034012  0.25594677  1
  Te2-  Te161  1  0.25446107  0.07966088  0.58217433  1
  Te2-  Te162  1  0.25394694  0.08081803  0.92268331  1
  Te2-  Te163  1  0.24722441  0.41154741  0.25092576  1
  Te2-  Te164  1  0.25206145  0.41282890  0.58541127  1
  Te2-  Te165  1  0.25178132  0.41731522  0.92295108  1
  Te2-  Te166  1  0.25467230  0.74929743  0.25749542  1
  Te2-  Te167  1  0.25254563  0.74487569  0.58879958  1
  Te2-  Te168  1  0.25709133  0.74173415  0.91965668  1
  Te2-  Te169  1  0.58251867  0.07717311  0.26216792  1
  Te2-  Te170  1  0.58667837  0.08437469  0.58440144  1
  Te2-  Te171  1  0.58563633  0.07638541  0.91837370  1
  Te2-  Te172  1  0.59143607  0.41354074  0.25524026  1
  Te2-  Te173  1  0.58111027  0.41415004  0.58274024  1
  Te2-  Te174  1  0.58523751  0.41418034  0.91885257  1
  Te2-  Te175  1  0.58880673  0.74324166  0.25116656  1
  Te2-  Te176  1  0.58710952  0.75025945  0.58521912  1
  Te2-  Te177  1  0.58546212  0.74725804  0.91609228  1
  Te2-  Te178  1  0.92328188  0.08235566  0.25019067  1
  Te2-  Te179  1  0.91628171  0.08019390  0.58816669  1
  Te2-  Te180  1  0.92597027  0.07830147  0.91573938  1
  Te2-  Te181  1  0.92048100  0.40633940  0.24898313  1
  Te2-  Te182  1  0.92145936  0.41426591  0.58882729  1
  Te2-  Te183  1  0.91712245  0.41737812  0.91743091  1
  Te2-  Te184  1  0.92090589  0.75139363  0.25377121  1
  Te2-  Te185  1  0.92584744  0.74740594  0.58465757  1
  Te2-  Te186  1  0.91512986  0.74800099  0.92615457  1
  Te2-  Te187  1  0.07587077  0.25134556  0.25129216  1
  Te2-  Te188  1  0.08147241  0.25044478  0.58916077  1
  Te2-  Te189  1  0.08362597  0.25680226  0.91810482  1
  Te2-  Te190  1  0.07873086  0.58991117  0.25372330  1
  Te2-  Te191  1  0.08261247  0.58480477  0.58739296  1
  Te2-  Te192  1  0.07536062  0.58656513  0.92406021  1
  Te2-  Te193  1  0.08329833  0.92122482  0.25069070  1
  Te2-  Te194  1  0.08284792  0.91918499  0.59008411  1
  Te2-  Te195  1  0.08366989  0.91766411  0.91931364  1
  Te2-  Te196  1  0.40505097  0.25283821  0.25136632  1
  Te2-  Te197  1  0.41546707  0.25543430  0.58488950  1
  Te2-  Te198  1  0.41456908  0.24810275  0.92094754  1
  Te2-  Te199  1  0.41705595  0.58592361  0.25806219  1
  Te2-  Te200  1  0.41231438  0.58667535  0.58556262  1
  Te2-  Te201  1  0.41220499  0.58109715  0.92030609  1
  Te2-  Te202  1  0.41348617  0.91382437  0.25006571  1
  Te2-  Te203  1  0.41590648  0.92471943  0.58251194  1
  Te2-  Te204  1  0.41522720  0.92231652  0.91728741  1
  Te2-  Te205  1  0.74835257  0.25034587  0.25180150  1
  Te2-  Te206  1  0.74906209  0.25651556  0.58445955  1
  Te2-  Te207  1  0.75086422  0.25380495  0.91769790  1
  Te2-  Te208  1  0.74843878  0.58359471  0.25429233  1
  Te2-  Te209  1  0.74448137  0.58342802  0.58313680  1
  Te2-  Te210  1  0.74860379  0.58874036  0.91633291  1
  Te2-  Te211  1  0.74721912  0.92299086  0.25718032  1
  Te2-  Te212  1  0.75139148  0.91631965  0.58325285  1
  Te2-  Te213  1  0.74378349  0.91861129  0.92015071  1
  Te2-  Te214  1  0.08044156  0.07592056  0.07781549  1
  Te2-  Te215  1  0.07839855  0.08018231  0.41249933  1
  Te2-  Te216  1  0.08343581  0.08058574  0.75099457  1
  Te2-  Te217  1  0.07528737  0.41899028  0.08069347  1
  Te2-  Te218  1  0.08237649  0.41320564  0.41111961  1
  Te2-  Te219  1  0.07898187  0.41490474  0.75008409  1
  Te2-  Te220  1  0.07861909  0.74478591  0.08529077  1
  Te2-  Te221  1  0.08196366  0.74631092  0.41489184  1
  Te2-  Te222  1  0.08311303  0.74772407  0.74508655  1
  Te2-  Te223  1  0.41311597  0.07560846  0.08390446  1
  Te2-  Te224  1  0.41594619  0.08450560  0.41222851  1
  Te2-  Te225  1  0.41578991  0.08121920  0.74337543  1
  Te2-  Te226  1  0.41420065  0.41323911  0.08621870  1
  Te2-  Te227  1  0.40590219  0.41692791  0.41164326  1
  Te2-  Te228  1  0.41434310  0.41163919  0.74649087  1
  Te2-  Te229  1  0.41482400  0.74066453  0.07955678  1
  Te2-  Te230  1  0.41343641  0.75080221  0.41178015  1
  Te2-  Te231  1  0.41296409  0.74519207  0.74501311  1
  Te2-  Te232  1  0.74152991  0.07693994  0.07632739  1
  Te2-  Te233  1  0.74423491  0.07870149  0.41713256  1
  Te2-  Te234  1  0.75116501  0.08335935  0.74505614  1
  Te2-  Te235  1  0.74668294  0.41415337  0.07902948  1
  Te2-  Te236  1  0.75030770  0.41280502  0.41166386  1
  Te2-  Te237  1  0.74821058  0.41791787  0.74581533  1
  Te2-  Te238  1  0.74675289  0.74999797  0.08561815  1
  Te2-  Te239  1  0.75147899  0.74332516  0.41360078  1
  Te2-  Te240  1  0.74579939  0.75016170  0.74807735  1
