# generated using pymatgen
data_Ti27(Cu53Te54)2
_symmetry_space_group_name_H-M   'P 1'
_cell_length_a   17.90629880
_cell_length_b   17.90465076
_cell_length_c   17.90367407
_cell_angle_alpha   89.92549478
_cell_angle_beta   90.04844825
_cell_angle_gamma   90.00758867
_symmetry_Int_Tables_number   1
_chemical_formula_structural   Ti27(Cu53Te54)2
_chemical_formula_sum   'Ti27 Cu106 Te108'
_cell_volume   5740.01884816
_cell_formula_units_Z   1
loop_
 _symmetry_equiv_pos_site_id
 _symmetry_equiv_pos_as_xyz
  1  'x, y, z'
loop_
 _atom_type_symbol
 _atom_type_oxidation_number
  Ti4+  4.0
  Cu+  1.0
  Te2-  -2.0
loop_
 _atom_site_type_symbol
 _atom_site_label
 _atom_site_symmetry_multiplicity
 _atom_site_fract_x
 _atom_site_fract_y
 _atom_site_fract_z
 _atom_site_occupancy
  Ti4+  Ti0  1  0.16500486  0.17100104  0.16682050  1
  Ti4+  Ti1  1  0.16879386  0.17214379  0.50073697  1
  Ti4+  Ti2  1  0.16650523  0.16658221  0.83307342  1
  Ti4+  Ti3  1  0.16681357  0.49857896  0.16828866  1
  Ti4+  Ti4  1  0.16757028  0.50043769  0.50447421  1
  Ti4+  Ti5  1  0.16473153  0.50045697  0.83494888  1
  Ti4+  Ti6  1  0.16463871  0.83333571  0.16514619  1
  Ti4+  Ti7  1  0.17011256  0.83346037  0.49831008  1
  Ti4+  Ti8  1  0.16698646  0.83253403  0.83363058  1
  Ti4+  Ti9  1  0.49964982  0.16563767  0.16538201  1
  Ti4+  Ti10  1  0.49783308  0.16379023  0.49789609  1
  Ti4+  Ti11  1  0.49541646  0.16648769  0.83154399  1
  Ti4+  Ti12  1  0.49840715  0.50203163  0.16619544  1
  Ti4+  Ti13  1  0.50154894  0.49727586  0.50165803  1
  Ti4+  Ti14  1  0.50241349  0.50040379  0.83704377  1
  Ti4+  Ti15  1  0.49796852  0.83388000  0.16636047  1
  Ti4+  Ti16  1  0.50366221  0.82956335  0.50226285  1
  Ti4+  Ti17  1  0.49988583  0.83663123  0.83413177  1
  Ti4+  Ti18  1  0.83525192  0.16813785  0.16390833  1
  Ti4+  Ti19  1  0.83491376  0.16655952  0.49928073  1
  Ti4+  Ti20  1  0.83082511  0.16340055  0.83069354  1
  Ti4+  Ti21  1  0.83100392  0.49980598  0.16922462  1
  Ti4+  Ti22  1  0.83202090  0.49942161  0.50414635  1
  Ti4+  Ti23  1  0.82955108  0.49594060  0.83378433  1
  Ti4+  Ti24  1  0.83223296  0.83252615  0.16319708  1
  Ti4+  Ti25  1  0.83802748  0.83718105  0.49522481  1
  Ti4+  Ti26  1  0.83579297  0.83343532  0.83101565  1
  Cu+  Cu27  1  0.16493502  0.16350809  0.00117288  1
  Cu+  Cu28  1  0.16773528  0.17697680  0.33464446  1
  Cu+  Cu29  1  0.16894772  0.17265306  0.66692139  1
  Cu+  Cu30  1  0.16618724  0.49891918  0.00142727  1
  Cu+  Cu31  1  0.16800826  0.49801150  0.33689617  1
  Cu+  Cu32  1  0.16330072  0.49891870  0.67005493  1
  Cu+  Cu33  1  0.16252622  0.83123384  -0.00156493  1
  Cu+  Cu34  1  0.16693125  0.83430592  0.33134331  1
  Cu+  Cu35  1  0.17053093  0.83386414  0.66488226  1
  Cu+  Cu36  1  0.49491368  0.16993676  -0.00247292  1
  Cu+  Cu37  1  0.49912465  0.16245990  0.33086213  1
  Cu+  Cu38  1  0.49643597  0.16072459  0.66473845  1
  Cu+  Cu39  1  0.50333408  0.49923516  0.00480964  1
  Cu+  Cu40  1  0.49839826  0.50102798  0.33131539  1
  Cu+  Cu41  1  0.50478906  0.49971712  0.66792217  1
  Cu+  Cu42  1  0.49596517  0.83425733  -0.00108192  1
  Cu+  Cu43  1  0.49933779  0.83246462  0.33468382  1
  Cu+  Cu44  1  0.50607114  0.82798713  0.67184498  1
  Cu+  Cu45  1  0.83442598  0.16706240  -0.00396753  1
  Cu+  Cu46  1  0.83430225  0.16907524  0.33131140  1
  Cu+  Cu47  1  0.83692525  0.16109920  0.66726944  1
  Cu+  Cu48  1  0.82973150  0.50019240  0.00326690  1
  Cu+  Cu49  1  0.83070159  0.50207421  0.33984042  1
  Cu+  Cu50  1  0.82504607  0.49399284  0.66771015  1
  Cu+  Cu51  1  0.83325839  0.83119337  -0.00305664  1
  Cu+  Cu52  1  0.83821223  0.83824830  0.32685902  1
  Cu+  Cu53  1  0.83712688  0.83751613  0.66114283  1
  Cu+  Cu54  1  0.16464360  0.00339806  0.16323732  1
  Cu+  Cu55  1  0.16989917  0.00209559  0.49842004  1
  Cu+  Cu56  1  0.16723164  -0.00209950  0.83198673  1
  Cu+  Cu57  1  0.17248562  0.33505653  0.16742985  1
  Cu+  Cu58  1  0.16815032  0.33804773  0.50390421  1
  Cu+  Cu59  1  0.16462350  0.33350186  0.83509311  1
  Cu+  Cu60  1  0.16318746  0.66487208  0.16827980  1
  Cu+  Cu61  1  0.16901762  0.66776585  0.50039340  1
  Cu+  Cu62  1  0.16282771  0.66676532  0.83660188  1
  Cu+  Cu63  1  0.49857684  -0.00031664  0.16620565  1
  Cu+  Cu64  1  0.49665926  -0.00718545  0.49841337  1
  Cu+  Cu65  1  0.49916058  0.00342887  0.82884741  1
  Cu+  Cu66  1  0.49944047  0.33484715  0.16540219  1
  Cu+  Cu67  1  0.49866538  0.32737300  0.49776824  1
  Cu+  Cu68  1  0.50232215  0.33127611  0.83585510  1
  Cu+  Cu69  1  0.49588167  0.66902532  0.16820776  1
  Cu+  Cu70  1  0.50492439  0.66116292  0.50394528  1
  Cu+  Cu71  1  0.49859422  0.67196552  0.83857260  1
  Cu+  Cu72  1  0.83567881  -0.00153206  0.16482384  1
  Cu+  Cu73  1  0.83861269  0.00248592  0.49442516  1
  Cu+  Cu74  1  0.83471712  -0.00095948  0.82595629  1
  Cu+  Cu75  1  0.83851804  0.33553112  0.16543139  1
  Cu+  Cu76  1  0.83155302  0.33321322  0.50330204  1
  Cu+  Cu77  1  0.83172210  0.32637381  0.83749205  1
  Cu+  Cu78  1  0.82711462  0.66404949  0.16410846  1
  Cu+  Cu79  1  0.83393693  0.67141642  0.49922463  1
  Cu+  Cu80  1  0.83189608  0.66271361  0.83134121  1
  Cu+  Cu81  1  -0.00303178  0.17435167  0.17139627  1
  Cu+  Cu82  1  0.00454872  0.17223993  0.49746334  1
  Cu+  Cu83  1  0.00045692  0.16287774  0.82956678  1
  Cu+  Cu84  1  0.00010735  0.49633532  0.16989175  1
  Cu+  Cu85  1  -0.00038882  0.50036856  0.50853499  1
  Cu+  Cu86  1  -0.00365970  0.49990334  0.83480063  1
  Cu+  Cu87  1  -0.00303605  0.83398557  0.16578555  1
  Cu+  Cu88  1  0.00524193  0.83614894  0.49533043  1
  Cu+  Cu89  1  0.00314834  0.83001252  0.83412773  1
  Cu+  Cu90  1  0.33138293  0.16820228  0.16457201  1
  Cu+  Cu91  1  0.32993972  0.16539723  0.49928543  1
  Cu+  Cu92  1  0.33221315  0.16673979  0.83384396  1
  Cu+  Cu93  1  0.33295492  0.49952553  0.16443940  1
  Cu+  Cu94  1  0.33553032  0.49660118  0.50146738  1
  Cu+  Cu95  1  0.33379464  0.50428636  0.83523473  1
  Cu+  Cu96  1  0.32943972  0.83589176  0.16676181  1
  Cu+  Cu97  1  0.33844632  0.83321922  0.49854884  1
  Cu+  Cu98  1  0.33474536  0.83369123  0.83778442  1
  Cu+  Cu99  1  0.67048937  0.16463693  0.16402764  1
  Cu+  Cu100  1  0.66664031  0.16444996  0.49869219  1
  Cu+  Cu101  1  0.66001199  0.16388533  0.82967309  1
  Cu+  Cu102  1  0.66595839  0.50473019  0.16410566  1
  Cu+  Cu103  1  0.66606425  0.49944348  0.50688451  1
  Cu+  Cu104  1  0.66439086  0.49410124  0.83222760  1
  Cu+  Cu105  1  0.66410093  0.83188774  0.16448278  1
  Cu+  Cu106  1  0.67458133  0.83123772  0.50087579  1
  Cu+  Cu107  1  0.66881434  0.83754871  0.83148172  1
  Cu+  Cu108  1  0.59412549  0.59125706  0.59564229  1
  Cu+  Cu109  1  0.73770438  0.59559502  0.06983848  1
  Cu+  Cu110  1  0.26288552  0.26341260  0.59812682  1
  Cu+  Cu111  1  0.26179576  0.41183160  0.06889807  1
  Cu+  Cu112  1  0.92924910  0.92815766  0.25404726  1
  Cu+  Cu113  1  0.25856893  0.07204493  0.07208273  1
  Cu+  Cu114  1  0.59136919  0.25357387  0.92670606  1
  Cu+  Cu115  1  0.07006082  0.41037111  0.60051432  1
  Cu+  Cu116  1  0.26438426  0.41518031  0.40881018  1
  Cu+  Cu117  1  0.75232412  0.74432408  0.59263059  1
  Cu+  Cu118  1  0.59588802  0.40544568  0.08460826  1
  Cu+  Cu119  1  0.91882718  0.26520062  0.26307968  1
  Cu+  Cu120  1  0.25249315  0.07463325  0.40505655  1
  Cu+  Cu121  1  0.26606133  0.25930861  0.25712298  1
  Cu+  Cu122  1  0.40554095  0.74165383  0.92953985  1
  Cu+  Cu123  1  0.58621698  0.40230491  0.74063069  1
  Cu+  Cu124  1  0.93048250  0.25029447  0.91969152  1
  Cu+  Cu125  1  0.93176466  0.07043408  0.73784420  1
  Cu+  Cu126  1  0.40938309  0.92075041  0.40444031  1
  Cu+  Cu127  1  0.59678534  0.73970912  0.75594278  1
  Cu+  Cu128  1  0.92817954  0.41534575  0.07374990  1
  Cu+  Cu129  1  0.07417002  0.26713265  0.40918370  1
  Cu+  Cu130  1  0.73738136  0.39913535  0.59027436  1
  Cu+  Cu131  1  0.06945264  0.73725517  0.92832299  1
  Cu+  Cu132  1  0.58893045  0.07285494  0.73450689  1
  Te2-  Te133  1  0.25239368  0.25453104  0.07624007  1
  Te2-  Te134  1  0.25942097  0.26086895  0.41314544  1
  Te2-  Te135  1  0.25338424  0.25595555  0.75106924  1
  Te2-  Te136  1  0.24978414  0.58619823  0.08238635  1
  Te2-  Te137  1  0.25394513  0.58408167  0.41708186  1
  Te2-  Te138  1  0.24890009  0.58576264  0.75070334  1
  Te2-  Te139  1  0.24975121  0.91903208  0.07792764  1
  Te2-  Te140  1  0.25610259  0.92030399  0.40971121  1
  Te2-  Te141  1  0.25441445  0.91706031  0.74919802  1
  Te2-  Te142  1  0.58761200  0.25186681  0.07987638  1
  Te2-  Te143  1  0.58433398  0.24756687  0.41278153  1
  Te2-  Te144  1  0.58277131  0.25065593  0.74140588  1
  Te2-  Te145  1  0.58338113  0.59283299  0.08068139  1
  Te2-  Te146  1  0.58677510  0.58133951  0.41441309  1
  Te2-  Te147  1  0.58895249  0.58892206  0.75051454  1
  Te2-  Te148  1  0.58281926  0.91832049  0.08023091  1
  Te2-  Te149  1  0.58883419  0.91472913  0.41630296  1
  Te2-  Te150  1  0.58762820  0.92240835  0.74580835  1
  Te2-  Te151  1  0.92237652  0.25559037  0.07492476  1
  Te2-  Te152  1  0.91937871  0.25786232  0.41470896  1
  Te2-  Te153  1  0.91782513  0.25231797  0.74699210  1
  Te2-  Te154  1  0.91956872  0.58360607  0.08342240  1
  Te2-  Te155  1  0.91860329  0.58465325  0.42039889  1
  Te2-  Te156  1  0.91386305  0.57948727  0.74670543  1
  Te2-  Te157  1  0.91839847  0.91759345  0.07649325  1
  Te2-  Te158  1  0.92527716  0.92280045  0.40941812  1
  Te2-  Te159  1  0.92429878  0.91663392  0.74523526  1
  Te2-  Te160  1  0.25056618  0.08259238  0.25262392  1
  Te2-  Te161  1  0.25126675  0.08254482  0.58807730  1
  Te2-  Te162  1  0.25169055  0.07949331  0.91816421  1
  Te2-  Te163  1  0.25749558  0.41374939  0.25632810  1
  Te2-  Te164  1  0.25670155  0.41633892  0.59401255  1
  Te2-  Te165  1  0.25354792  0.41426796  0.91781487  1
  Te2-  Te166  1  0.24978414  0.74799161  0.25016948  1
  Te2-  Te167  1  0.25552795  0.74907172  0.58365094  1
  Te2-  Te168  1  0.25267018  0.74548149  0.92165380  1
  Te2-  Te169  1  0.58623178  0.08098743  0.24848061  1
  Te2-  Te170  1  0.58383372  0.07675795  0.58111424  1
  Te2-  Te171  1  0.58136532  0.08122013  0.92061660  1
  Te2-  Te172  1  0.58548666  0.41650612  0.25090180  1
  Te2-  Te173  1  0.58541214  0.40478820  0.58750629  1
  Te2-  Te174  1  0.58857686  0.41159311  0.92534889  1
  Te2-  Te175  1  0.58329312  0.74866761  0.25179118  1
  Te2-  Te176  1  0.59371347  0.74394749  0.59016463  1
  Te2-  Te177  1  0.58933856  0.75267874  0.92066131  1
  Te2-  Te178  1  0.92010681  0.08127930  0.25233795  1
  Te2-  Te179  1  0.92535365  0.08140633  0.58183344  1
  Te2-  Te180  1  0.91792581  0.07799773  0.91671002  1
  Te2-  Te181  1  0.91787568  0.41654982  0.26002877  1
  Te2-  Te182  1  0.91786712  0.41150969  0.59118204  1
  Te2-  Te183  1  0.91781589  0.41152240  0.92080368  1
  Te2-  Te184  1  0.91634140  0.74402679  0.24783343  1
  Te2-  Te185  1  0.92386103  0.75141396  0.58190717  1
  Te2-  Te186  1  0.91726522  0.74376711  0.91715772  1
  Te2-  Te187  1  0.07844600  0.26185375  0.25370230  1
  Te2-  Te188  1  0.07896365  0.25600294  0.58938330  1
  Te2-  Te189  1  0.08117330  0.25085177  0.91973400  1
  Te2-  Te190  1  0.08137357  0.58195402  0.25473107  1
  Te2-  Te191  1  0.08305104  0.58871571  0.58773824  1
  Te2-  Te192  1  0.07720405  0.58324475  0.92229596  1
  Te2-  Te193  1  0.08168117  0.92109191  0.25093067  1
  Te2-  Te194  1  0.08570079  0.91973920  0.58301923  1
  Te2-  Te195  1  0.08071088  0.91998543  0.91784820  1
  Te2-  Te196  1  0.41660237  0.25310530  0.25197374  1
  Te2-  Te197  1  0.41400835  0.25001806  0.58580971  1
  Te2-  Te198  1  0.41004674  0.25465926  0.91754600  1
  Te2-  Te199  1  0.41188799  0.58558302  0.25161690  1
  Te2-  Te200  1  0.41535116  0.58236757  0.58729835  1
  Te2-  Te201  1  0.41633434  0.58539030  0.92287430  1
  Te2-  Te202  1  0.41202304  0.92004654  0.25179074  1
  Te2-  Te203  1  0.41849575  0.91253160  0.59064963  1
  Te2-  Te204  1  0.41494233  0.92453449  0.91803517  1
  Te2-  Te205  1  0.74880176  0.25366966  0.24852416  1
  Te2-  Te206  1  0.74725804  0.24678820  0.58803108  1
  Te2-  Te207  1  0.74180457  0.24789927  0.91849981  1
  Te2-  Te208  1  0.74614639  0.58467362  0.25583550  1
  Te2-  Te209  1  0.74730389  0.59030306  0.59012685  1
  Te2-  Te210  1  0.74437151  0.58359941  0.91702249  1
  Te2-  Te211  1  0.74587524  0.91863704  0.24763136  1
  Te2-  Te212  1  0.75243560  0.92412929  0.58120817  1
  Te2-  Te213  1  0.75173398  0.91955313  0.91508183  1
  Te2-  Te214  1  0.07532443  0.08668035  0.08498206  1
  Te2-  Te215  1  0.08416965  0.08485446  0.41284395  1
  Te2-  Te216  1  0.08514673  0.08013065  0.74393337  1
  Te2-  Te217  1  0.08053293  0.41121241  0.08111169  1
  Te2-  Te218  1  0.07682800  0.41750013  0.41644306  1
  Te2-  Te219  1  0.07700455  0.41292360  0.75180315  1
  Te2-  Te220  1  0.07757013  0.74571070  0.08231182  1
  Te2-  Te221  1  0.08477438  0.74785397  0.41326157  1
  Te2-  Te222  1  0.08372987  0.74801018  0.74487063  1
  Te2-  Te223  1  0.41297442  0.08086051  0.07939932  1
  Te2-  Te224  1  0.41116558  0.07749702  0.41111691  1
  Te2-  Te225  1  0.40813463  0.08027980  0.74635799  1
  Te2-  Te226  1  0.41271947  0.41303472  0.07863968  1
  Te2-  Te227  1  0.41724086  0.41205999  0.41272541  1
  Te2-  Te228  1  0.41619877  0.41718083  0.75147510  1
  Te2-  Te229  1  0.40965470  0.74841687  0.08191707  1
  Te2-  Te230  1  0.41924782  0.74214884  0.41779959  1
  Te2-  Te231  1  0.41279581  0.74858698  0.74904253  1
  Te2-  Te232  1  0.75187061  0.08090695  0.07884829  1
  Te2-  Te233  1  0.75095084  0.08376136  0.41259311  1
  Te2-  Te234  1  0.74356607  0.07797264  0.74365725  1
  Te2-  Te235  1  0.74584709  0.41104512  0.08181177  1
  Te2-  Te236  1  0.74577287  0.41461527  0.41828575  1
  Te2-  Te237  1  0.74339232  0.40484512  0.74903750  1
  Te2-  Te238  1  0.74429644  0.74777918  0.07660800  1
  Te2-  Te239  1  0.75302825  0.75155659  0.40843320  1
  Te2-  Te240  1  0.74927612  0.74687190  0.74473073  1
