# generated using pymatgen
data_Ti27(Cu53Te54)2
_symmetry_space_group_name_H-M   'P 1'
_cell_length_a   17.87218726
_cell_length_b   17.87163740
_cell_length_c   17.87685353
_cell_angle_alpha   89.99872667
_cell_angle_beta   90.02844302
_cell_angle_gamma   90.02994502
_symmetry_Int_Tables_number   1
_chemical_formula_structural   Ti27(Cu53Te54)2
_chemical_formula_sum   'Ti27 Cu106 Te108'
_cell_volume   5709.95938837
_cell_formula_units_Z   1
loop_
 _symmetry_equiv_pos_site_id
 _symmetry_equiv_pos_as_xyz
  1  'x, y, z'
loop_
 _atom_type_symbol
 _atom_type_oxidation_number
  Ti4+  4.0
  Cu+  1.0
  Te2-  -2.0
loop_
 _atom_site_type_symbol
 _atom_site_label
 _atom_site_symmetry_multiplicity
 _atom_site_fract_x
 _atom_site_fract_y
 _atom_site_fract_z
 _atom_site_occupancy
  Ti4+  Ti0  1  0.16681013  0.16817218  0.16749609  1
  Ti4+  Ti1  1  0.16393225  0.16518857  0.49956861  1
  Ti4+  Ti2  1  0.16816851  0.16823801  0.83168218  1
  Ti4+  Ti3  1  0.16471691  0.50229619  0.16860150  1
  Ti4+  Ti4  1  0.16296113  0.50143577  0.50343842  1
  Ti4+  Ti5  1  0.16791626  0.49908462  0.83315636  1
  Ti4+  Ti6  1  0.16769410  0.83261859  0.16482477  1
  Ti4+  Ti7  1  0.16801509  0.83167799  0.50041058  1
  Ti4+  Ti8  1  0.16863957  0.83218456  0.83524278  1
  Ti4+  Ti9  1  0.50075242  0.16592108  0.16787742  1
  Ti4+  Ti10  1  0.50196098  0.16469231  0.50238854  1
  Ti4+  Ti11  1  0.49729929  0.16870245  0.83719905  1
  Ti4+  Ti12  1  0.50237454  0.49839171  0.17027165  1
  Ti4+  Ti13  1  0.49931223  0.50300489  0.50329146  1
  Ti4+  Ti14  1  0.49898266  0.49930648  0.83391750  1
  Ti4+  Ti15  1  0.50130874  0.83235249  0.16492140  1
  Ti4+  Ti16  1  0.49955478  0.83482538  0.49671657  1
  Ti4+  Ti17  1  0.49969422  0.83362523  0.83163866  1
  Ti4+  Ti18  1  0.83365645  0.16519462  0.16652080  1
  Ti4+  Ti19  1  0.83290058  0.16703336  0.49684854  1
  Ti4+  Ti20  1  0.83356921  0.16836834  0.83322164  1
  Ti4+  Ti21  1  0.83199173  0.49827960  0.16524086  1
  Ti4+  Ti22  1  0.83459697  0.50084929  0.49902119  1
  Ti4+  Ti23  1  0.83492997  0.50188916  0.83207086  1
  Ti4+  Ti24  1  0.83406485  0.83191379  0.16638569  1
  Ti4+  Ti25  1  0.83550303  0.83259974  0.49884545  1
  Ti4+  Ti26  1  0.83077115  0.83457973  0.83283869  1
  Cu+  Cu27  1  0.16954482  0.16986130  0.00050220  1
  Cu+  Cu28  1  0.16693090  0.16846318  0.33206268  1
  Cu+  Cu29  1  0.16377236  0.16329886  0.66345665  1
  Cu+  Cu30  1  0.16368543  0.50447636  0.00352103  1
  Cu+  Cu31  1  0.16252454  0.50396604  0.33753649  1
  Cu+  Cu32  1  0.16421765  0.49355825  0.66737882  1
  Cu+  Cu33  1  0.16806993  0.83423739  -0.00014886  1
  Cu+  Cu34  1  0.16959780  0.83092847  0.33068967  1
  Cu+  Cu35  1  0.17131967  0.82802060  0.67110531  1
  Cu+  Cu36  1  0.49816162  0.16648300  0.00224639  1
  Cu+  Cu37  1  0.50250170  0.16529180  0.33336866  1
  Cu+  Cu38  1  0.50015596  0.16397457  0.67202755  1
  Cu+  Cu39  1  0.50128187  0.49900481  0.00312704  1
  Cu+  Cu40  1  0.50180340  0.49992828  0.33918046  1
  Cu+  Cu41  1  0.49993715  0.50289855  0.66599926  1
  Cu+  Cu42  1  0.49863336  0.83142194  -0.00257469  1
  Cu+  Cu43  1  0.50008294  0.83439840  0.32998116  1
  Cu+  Cu44  1  0.49933654  0.83963958  0.66030675  1
  Cu+  Cu45  1  0.83441521  0.16657320  0.00063644  1
  Cu+  Cu46  1  0.83627297  0.16293391  0.33305773  1
  Cu+  Cu47  1  0.82986211  0.17078376  0.66385102  1
  Cu+  Cu48  1  0.83038697  0.49636294  -0.00545843  1
  Cu+  Cu49  1  0.83650286  0.49585353  0.32864729  1
  Cu+  Cu50  1  0.83148017  0.50946239  0.66896522  1
  Cu+  Cu51  1  0.83028205  0.83588009  0.00065137  1
  Cu+  Cu52  1  0.83206252  0.82735520  0.33207747  1
  Cu+  Cu53  1  0.83494840  0.83466568  0.66815773  1
  Cu+  Cu54  1  0.16944779  0.00272189  0.16574099  1
  Cu+  Cu55  1  0.16283022  -0.00383255  0.49834935  1
  Cu+  Cu56  1  0.16762649  0.00010409  0.83350362  1
  Cu+  Cu57  1  0.16462136  0.33711902  0.16979212  1
  Cu+  Cu58  1  0.16259516  0.33081243  0.50610934  1
  Cu+  Cu59  1  0.17554688  0.33352637  0.83376066  1
  Cu+  Cu60  1  0.16244091  0.66563503  0.16251732  1
  Cu+  Cu61  1  0.16378899  0.67004334  0.50095474  1
  Cu+  Cu62  1  0.17236585  0.66832011  0.82983027  1
  Cu+  Cu63  1  0.50057998  -0.00106686  0.16554279  1
  Cu+  Cu64  1  0.50536539  -0.00197695  0.50037843  1
  Cu+  Cu65  1  0.50002754  0.00370171  0.83064704  1
  Cu+  Cu66  1  0.50249619  0.33121330  0.16700200  1
  Cu+  Cu67  1  0.49982576  0.33613432  0.50423210  1
  Cu+  Cu68  1  0.49345078  0.32989594  0.83190912  1
  Cu+  Cu69  1  0.50188249  0.66278619  0.16697961  1
  Cu+  Cu70  1  0.49689656  0.66834364  0.50111971  1
  Cu+  Cu71  1  0.49525349  0.66750680  0.83630151  1
  Cu+  Cu72  1  0.83179902  -0.00384966  0.16401546  1
  Cu+  Cu73  1  0.83642648  0.00199075  0.49555317  1
  Cu+  Cu74  1  0.83300675  0.00175743  0.83538153  1
  Cu+  Cu75  1  0.83062958  0.33067555  0.16805355  1
  Cu+  Cu76  1  0.83651910  0.33473022  0.49586934  1
  Cu+  Cu77  1  0.83518029  0.33456007  0.83366329  1
  Cu+  Cu78  1  0.83264062  0.66714473  0.17074116  1
  Cu+  Cu79  1  0.83690898  0.66486568  0.50411578  1
  Cu+  Cu80  1  0.83074187  0.66841860  0.82846320  1
  Cu+  Cu81  1  0.00158446  0.16686412  0.16638279  1
  Cu+  Cu82  1  -0.00437467  0.16340342  0.49540266  1
  Cu+  Cu83  1  0.00097138  0.16835980  0.83175580  1
  Cu+  Cu84  1  -0.00082933  0.50789427  0.16399269  1
  Cu+  Cu85  1  -0.00042042  0.50007260  0.50205804  1
  Cu+  Cu86  1  0.00163745  0.50128608  0.83288052  1
  Cu+  Cu87  1  0.00033028  0.83215044  0.16698427  1
  Cu+  Cu88  1  0.00561955  0.83532146  0.50053917  1
  Cu+  Cu89  1  -0.00282892  0.83526371  0.83645495  1
  Cu+  Cu90  1  0.33513769  0.16777196  0.16786773  1
  Cu+  Cu91  1  0.33108964  0.16535461  0.50125782  1
  Cu+  Cu92  1  0.33166131  0.17804819  0.83744075  1
  Cu+  Cu93  1  0.33321219  0.50002789  0.17316507  1
  Cu+  Cu94  1  0.33489106  0.50417077  0.50426380  1
  Cu+  Cu95  1  0.33108664  0.49642511  0.83185445  1
  Cu+  Cu96  1  0.33375431  0.83254209  0.16429766  1
  Cu+  Cu97  1  0.33285011  0.82951949  0.49513119  1
  Cu+  Cu98  1  0.33614724  0.82777586  0.83493221  1
  Cu+  Cu99  1  0.66782518  0.16560736  0.16811315  1
  Cu+  Cu100  1  0.66702262  0.16425785  0.49813348  1
  Cu+  Cu101  1  0.66564864  0.16689019  0.83621245  1
  Cu+  Cu102  1  0.66575534  0.49092256  0.16616066  1
  Cu+  Cu103  1  0.66198083  0.49872075  0.49737397  1
  Cu+  Cu104  1  0.66885172  0.50036060  0.83286062  1
  Cu+  Cu105  1  0.66877486  0.83386683  0.16528164  1
  Cu+  Cu106  1  0.66868138  0.83505961  0.49934523  1
  Cu+  Cu107  1  0.66515722  0.83391052  0.83205236  1
  Cu+  Cu108  1  0.58962152  0.06925678  0.40174720  1
  Cu+  Cu109  1  0.40659962  0.73761138  0.93101197  1
  Cu+  Cu110  1  0.73804509  0.92693750  0.07177708  1
  Cu+  Cu111  1  0.06869385  0.59697566  0.06702657  1
  Cu+  Cu112  1  0.73621904  0.74094822  0.25953985  1
  Cu+  Cu113  1  0.07236256  0.59541833  0.41069125  1
  Cu+  Cu114  1  0.92502224  0.59467173  0.25657176  1
  Cu+  Cu115  1  0.25994313  0.40623255  0.73584819  1
  Cu+  Cu116  1  0.25919025  0.26358367  0.93558300  1
  Cu+  Cu117  1  0.06848910  0.40013857  0.59672269  1
  Cu+  Cu118  1  0.26215588  0.73970124  0.39989265  1
  Cu+  Cu119  1  0.92811565  0.59132676  0.59704772  1
  Cu+  Cu120  1  0.08185440  0.92444920  0.40039129  1
  Cu+  Cu121  1  0.07299041  0.74877966  0.60088478  1
  Cu+  Cu122  1  0.92981480  0.40663605  0.40208013  1
  Cu+  Cu123  1  0.59646830  0.07721752  0.74767410  1
  Cu+  Cu124  1  0.40689482  0.25465003  0.73587749  1
  Cu+  Cu125  1  0.92682989  0.07002529  0.40146454  1
  Cu+  Cu126  1  0.74097941  0.40116276  0.25957015  1
  Cu+  Cu127  1  0.58625295  0.40171374  0.06985788  1
  Cu+  Cu128  1  0.26741746  0.73987886  0.73966765  1
  Cu+  Cu129  1  0.73975278  0.40411046  0.91704626  1
  Cu+  Cu130  1  0.59925502  0.92346088  0.59096577  1
  Cu+  Cu131  1  0.58620929  0.40440475  0.41213307  1
  Cu+  Cu132  1  0.73458057  0.59747278  0.74143565  1
  Te2-  Te133  1  0.25405998  0.25745746  0.08596536  1
  Te2-  Te134  1  0.24942496  0.25295509  0.41769865  1
  Te2-  Te135  1  0.25317498  0.25361251  0.73695205  1
  Te2-  Te136  1  0.25486346  0.58433744  0.08454261  1
  Te2-  Te137  1  0.25271184  0.58627389  0.41771422  1
  Te2-  Te138  1  0.25364083  0.58405768  0.74343140  1
  Te2-  Te139  1  0.25256287  0.91879785  0.08114268  1
  Te2-  Te140  1  0.25240374  0.91907871  0.41315842  1
  Te2-  Te141  1  0.25489856  0.91729510  0.75009904  1
  Te2-  Te142  1  0.58872100  0.24979257  0.07981675  1
  Te2-  Te143  1  0.58547084  0.25269916  0.41603878  1
  Te2-  Te144  1  0.58596905  0.25336999  0.74989918  1
  Te2-  Te145  1  0.58888173  0.58314449  0.08347481  1
  Te2-  Te146  1  0.58464735  0.59041264  0.41680742  1
  Te2-  Te147  1  0.58293497  0.58752532  0.74989543  1
  Te2-  Te148  1  0.58500787  0.91863620  0.07757754  1
  Te2-  Te149  1  0.58937976  0.91742411  0.40852743  1
  Te2-  Te150  1  0.58785176  0.92172648  0.74509439  1
  Te2-  Te151  1  0.91816277  0.25200176  0.08267298  1
  Te2-  Te152  1  0.92112425  0.25361168  0.40934742  1
  Te2-  Te153  1  0.91813549  0.25313068  0.74660996  1
  Te2-  Te154  1  0.91293770  0.58725101  0.07539643  1
  Te2-  Te155  1  0.91974259  0.58904914  0.41041424  1
  Te2-  Te156  1  0.92488555  0.59061194  0.74888926  1
  Te2-  Te157  1  0.92114141  0.91741440  0.08076219  1
  Te2-  Te158  1  0.92194866  0.91606673  0.40973357  1
  Te2-  Te159  1  0.91821373  0.92072069  0.74970806  1
  Te2-  Te160  1  0.25339614  0.08292584  0.25283746  1
  Te2-  Te161  1  0.24899286  0.07744302  0.58293873  1
  Te2-  Te162  1  0.25361284  0.08304146  0.91725081  1
  Te2-  Te163  1  0.24810781  0.41804520  0.25737891  1
  Te2-  Te164  1  0.25455823  0.41341461  0.58308722  1
  Te2-  Te165  1  0.25250864  0.41816466  0.92641734  1
  Te2-  Te166  1  0.25368696  0.74345682  0.24800012  1
  Te2-  Te167  1  0.25697361  0.74367737  0.58617310  1
  Te2-  Te168  1  0.25338964  0.74435111  0.92404100  1
  Te2-  Te169  1  0.58803757  0.07745731  0.25069902  1
  Te2-  Te170  1  0.58981955  0.07967172  0.59129545  1
  Te2-  Te171  1  0.58371438  0.08139367  0.92181837  1
  Te2-  Te172  1  0.58709571  0.40835783  0.25919199  1
  Te2-  Te173  1  0.58651179  0.41603488  0.58940195  1
  Te2-  Te174  1  0.58499981  0.40995239  0.91692327  1
  Te2-  Te175  1  0.58605176  0.74629048  0.25232391  1
  Te2-  Te176  1  0.58503611  0.74969106  0.58344906  1
  Te2-  Te177  1  0.58588261  0.74766115  0.91691791  1
  Te2-  Te178  1  0.92062728  0.07638051  0.24849353  1
  Te2-  Te179  1  0.91616103  0.08279813  0.58643393  1
  Te2-  Te180  1  0.92005864  0.08361636  0.91815556  1
  Te2-  Te181  1  0.92452939  0.41124704  0.24677563  1
  Te2-  Te182  1  0.91603580  0.41544675  0.59072493  1
  Te2-  Te183  1  0.92235190  0.41551423  0.91778297  1
  Te2-  Te184  1  0.92424986  0.74698685  0.25447372  1
  Te2-  Te185  1  0.92169013  0.74855721  0.58880525  1
  Te2-  Te186  1  0.91408746  0.74852348  0.91854655  1
  Te2-  Te187  1  0.08002649  0.25322875  0.25292357  1
  Te2-  Te188  1  0.07403521  0.24745457  0.58642994  1
  Te2-  Te189  1  0.08334066  0.25451419  0.91658596  1
  Te2-  Te190  1  0.07820560  0.59187806  0.25636991  1
  Te2-  Te191  1  0.07975692  0.59000793  0.59344387  1
  Te2-  Te192  1  0.08244280  0.58965867  0.91525083  1
  Te2-  Te193  1  0.08209194  0.91982259  0.24952628  1
  Te2-  Te194  1  0.08510494  0.91644339  0.59237660  1
  Te2-  Te195  1  0.08289849  0.91873408  0.91886978  1
  Te2-  Te196  1  0.41691442  0.25181430  0.25415097  1
  Te2-  Te197  1  0.41469647  0.25115094  0.58498104  1
  Te2-  Te198  1  0.41396509  0.25767727  0.92846371  1
  Te2-  Te199  1  0.41764547  0.58404932  0.25577904  1
  Te2-  Te200  1  0.41351990  0.58964694  0.58916108  1
  Te2-  Te201  1  0.41185299  0.58120204  0.92114231  1
  Te2-  Te202  1  0.41459197  0.91777597  0.24900411  1
  Te2-  Te203  1  0.40987830  0.92009474  0.57908848  1
  Te2-  Te204  1  0.41530387  0.92084841  0.91589418  1
  Te2-  Te205  1  0.74708136  0.24872752  0.25610919  1
  Te2-  Te206  1  0.74747468  0.25510859  0.58016182  1
  Te2-  Te207  1  0.74666762  0.25214478  0.92063639  1
  Te2-  Te208  1  0.74440322  0.58311371  0.25318230  1
  Te2-  Te209  1  0.74258201  0.58583258  0.58205882  1
  Te2-  Te210  1  0.74819513  0.58836515  0.91840616  1
  Te2-  Te211  1  0.74889123  0.91816618  0.25447652  1
  Te2-  Te212  1  0.75312004  0.92106426  0.58417130  1
  Te2-  Te213  1  0.74385708  0.92163641  0.91766129  1
  Te2-  Te214  1  0.08349536  0.08309681  0.07951603  1
  Te2-  Te215  1  0.07959536  0.07880682  0.40870373  1
  Te2-  Te216  1  0.08165189  0.08076122  0.74896536  1
  Te2-  Te217  1  0.07873948  0.41677161  0.08300669  1
  Te2-  Te218  1  0.08078886  0.41135477  0.41518313  1
  Te2-  Te219  1  0.07873740  0.40942119  0.75127016  1
  Te2-  Te220  1  0.07857142  0.74936244  0.07717789  1
  Te2-  Te221  1  0.07809406  0.74759048  0.40993256  1
  Te2-  Te222  1  0.07676736  0.74687366  0.75234134  1
  Te2-  Te223  1  0.41425807  0.08070982  0.08258314  1
  Te2-  Te224  1  0.41616488  0.08077597  0.41691265  1
  Te2-  Te225  1  0.40709300  0.08465534  0.75237696  1
  Te2-  Te226  1  0.41378486  0.41503731  0.08583995  1
  Te2-  Te227  1  0.41208799  0.41618790  0.41846364  1
  Te2-  Te228  1  0.41372165  0.41412370  0.74315057  1
  Te2-  Te229  1  0.41477004  0.74381992  0.08218983  1
  Te2-  Te230  1  0.41602984  0.74596042  0.40918632  1
  Te2-  Te231  1  0.41821601  0.74730523  0.74041598  1
  Te2-  Te232  1  0.74640389  0.08107250  0.07927659  1
  Te2-  Te233  1  0.74593128  0.07817654  0.41087902  1
  Te2-  Te234  1  0.74862299  0.08173075  0.74695047  1
  Te2-  Te235  1  0.74692021  0.40862304  0.07639908  1
  Te2-  Te236  1  0.74610068  0.41375087  0.41278431  1
  Te2-  Te237  1  0.74998766  0.41493583  0.74474082  1
  Te2-  Te238  1  0.74851307  0.74440134  0.08073451  1
  Te2-  Te239  1  0.74770932  0.74389710  0.41777466  1
  Te2-  Te240  1  0.74388201  0.75020501  0.74284379  1
