# generated using pymatgen
data_Ti27(Cu53Te54)2
_symmetry_space_group_name_H-M   'P 1'
_cell_length_a   17.87974552
_cell_length_b   17.87790879
_cell_length_c   17.87788295
_cell_angle_alpha   90.01020814
_cell_angle_beta   90.01275007
_cell_angle_gamma   90.00263733
_symmetry_Int_Tables_number   1
_chemical_formula_structural   Ti27(Cu53Te54)2
_chemical_formula_sum   'Ti27 Cu106 Te108'
_cell_volume   5714.70902300
_cell_formula_units_Z   1
loop_
 _symmetry_equiv_pos_site_id
 _symmetry_equiv_pos_as_xyz
  1  'x, y, z'
loop_
 _atom_type_symbol
 _atom_type_oxidation_number
  Ti4+  4.0
  Cu+  1.0
  Te2-  -2.0
loop_
 _atom_site_type_symbol
 _atom_site_label
 _atom_site_symmetry_multiplicity
 _atom_site_fract_x
 _atom_site_fract_y
 _atom_site_fract_z
 _atom_site_occupancy
  Ti4+  Ti0  1  0.16731602  0.16662412  0.16501397  1
  Ti4+  Ti1  1  0.16724478  0.16824899  0.49716831  1
  Ti4+  Ti2  1  0.16508247  0.16664754  0.83125868  1
  Ti4+  Ti3  1  0.16457245  0.49755676  0.16565331  1
  Ti4+  Ti4  1  0.16679294  0.50049503  0.50171836  1
  Ti4+  Ti5  1  0.16556817  0.50068678  0.83390072  1
  Ti4+  Ti6  1  0.16969228  0.83200135  0.16665978  1
  Ti4+  Ti7  1  0.16594671  0.83563585  0.49872141  1
  Ti4+  Ti8  1  0.16578195  0.83557708  0.83342406  1
  Ti4+  Ti9  1  0.50083404  0.16844103  0.15984139  1
  Ti4+  Ti10  1  0.49915816  0.16793305  0.50115284  1
  Ti4+  Ti11  1  0.50156599  0.16850109  0.83403344  1
  Ti4+  Ti12  1  0.49806454  0.49836491  0.16774062  1
  Ti4+  Ti13  1  0.50116205  0.49943477  0.50076238  1
  Ti4+  Ti14  1  0.50216766  0.50093021  0.83167534  1
  Ti4+  Ti15  1  0.50116227  0.83571878  0.16955735  1
  Ti4+  Ti16  1  0.49444458  0.83370805  0.49883468  1
  Ti4+  Ti17  1  0.50007153  0.83561263  0.83540019  1
  Ti4+  Ti18  1  0.83344726  0.16635646  0.17178280  1
  Ti4+  Ti19  1  0.83349878  0.16523694  0.50209977  1
  Ti4+  Ti20  1  0.83279439  0.16265063  0.83394045  1
  Ti4+  Ti21  1  0.83258428  0.50001184  0.16737090  1
  Ti4+  Ti22  1  0.83648067  0.50160595  0.50222449  1
  Ti4+  Ti23  1  0.83385538  0.49853640  0.83364439  1
  Ti4+  Ti24  1  0.83742706  0.83304838  0.16723446  1
  Ti4+  Ti25  1  0.83111535  0.83090140  0.49801815  1
  Ti4+  Ti26  1  0.83396591  0.83297808  0.83346610  1
  Cu+  Cu27  1  0.16409195  0.16427925  -0.00157212  1
  Cu+  Cu28  1  0.16844781  0.16743145  0.33213713  1
  Cu+  Cu29  1  0.16735102  0.16858498  0.65914455  1
  Cu+  Cu30  1  0.16225341  0.49628296  -0.00062502  1
  Cu+  Cu31  1  0.16636430  0.49820278  0.33363969  1
  Cu+  Cu32  1  0.16774473  0.50253757  0.66915403  1
  Cu+  Cu33  1  0.16461953  0.83010545  -0.00337773  1
  Cu+  Cu34  1  0.17384484  0.83461209  0.33352246  1
  Cu+  Cu35  1  0.16518216  0.83860662  0.66781840  1
  Cu+  Cu36  1  0.49224263  0.17222920  -0.00560307  1
  Cu+  Cu37  1  0.50285996  0.16779649  0.33100349  1
  Cu+  Cu38  1  0.49835257  0.16702127  0.67098798  1
  Cu+  Cu39  1  0.50006172  0.49868221  0.00135758  1
  Cu+  Cu40  1  0.49695855  0.49869623  0.33438385  1
  Cu+  Cu41  1  0.50630634  0.49835582  0.66570363  1
  Cu+  Cu42  1  0.50326015  0.84075632  0.00232226  1
  Cu+  Cu43  1  0.49671913  0.82837473  0.33458098  1
  Cu+  Cu44  1  0.49348692  0.83641459  0.66547210  1
  Cu+  Cu45  1  0.83303211  0.16556832  0.00587112  1
  Cu+  Cu46  1  0.83411386  0.16451082  0.33821085  1
  Cu+  Cu47  1  0.83448780  0.16230612  0.66919642  1
  Cu+  Cu48  1  0.83158108  0.49909627  -0.00188954  1
  Cu+  Cu49  1  0.83792748  0.50430240  0.33340159  1
  Cu+  Cu50  1  0.83305351  0.50309700  0.67015801  1
  Cu+  Cu51  1  0.83671459  0.83437849  0.00309902  1
  Cu+  Cu52  1  0.83221051  0.82883448  0.33010567  1
  Cu+  Cu53  1  0.83219667  0.83157863  0.66259704  1
  Cu+  Cu54  1  0.17186424  -0.00061186  0.16763039  1
  Cu+  Cu55  1  0.16271755  0.00383376  0.49945626  1
  Cu+  Cu56  1  0.16380655  0.00118891  0.83528764  1
  Cu+  Cu57  1  0.16521605  0.33229894  0.16507236  1
  Cu+  Cu58  1  0.17044234  0.33407779  0.49963904  1
  Cu+  Cu59  1  0.16464900  0.33621980  0.83383024  1
  Cu+  Cu60  1  0.16571764  0.66210915  0.16336812  1
  Cu+  Cu61  1  0.16672672  0.66722822  0.50045963  1
  Cu+  Cu62  1  0.16423002  0.66946290  0.83469402  1
  Cu+  Cu63  1  0.49811498  -0.00111703  0.15875917  1
  Cu+  Cu64  1  0.49384852  0.00034048  0.50019110  1
  Cu+  Cu65  1  0.50825334  -0.00110442  0.84062702  1
  Cu+  Cu66  1  0.50314300  0.33333182  0.16247665  1
  Cu+  Cu67  1  0.50132960  0.33443630  0.50047365  1
  Cu+  Cu68  1  0.50492568  0.33695097  0.82720851  1
  Cu+  Cu69  1  0.49655389  0.66628934  0.17134745  1
  Cu+  Cu70  1  0.50079905  0.66693793  0.49937115  1
  Cu+  Cu71  1  0.49994836  0.66981126  0.83542342  1
  Cu+  Cu72  1  0.83783366  -0.00010780  0.16862860  1
  Cu+  Cu73  1  0.83094284  -0.00481145  0.49834679  1
  Cu+  Cu74  1  0.83577364  -0.00007703  0.83017934  1
  Cu+  Cu75  1  0.82866631  0.33131836  0.16852303  1
  Cu+  Cu76  1  0.83683262  0.33328859  0.50492242  1
  Cu+  Cu77  1  0.83497701  0.33015485  0.83525681  1
  Cu+  Cu78  1  0.83767801  0.66678740  0.17135096  1
  Cu+  Cu79  1  0.83118193  0.66340583  0.49636993  1
  Cu+  Cu80  1  0.83280319  0.66471109  0.83162674  1
  Cu+  Cu81  1  -0.00061340  0.16455390  0.16862663  1
  Cu+  Cu82  1  0.00182490  0.16412130  0.50107252  1
  Cu+  Cu83  1  -0.00224726  0.15928487  0.83457210  1
  Cu+  Cu84  1  -0.00332041  0.50149462  0.16809456  1
  Cu+  Cu85  1  0.00304636  0.49884533  0.50303983  1
  Cu+  Cu86  1  0.00089395  0.49529992  0.83692958  1
  Cu+  Cu87  1  0.00356910  0.83380356  0.16501903  1
  Cu+  Cu88  1  -0.00241038  0.83252285  0.49792669  1
  Cu+  Cu89  1  0.00105893  0.83259553  0.83551556  1
  Cu+  Cu90  1  0.33356094  0.16738062  0.15884942  1
  Cu+  Cu91  1  0.33150776  0.17137993  0.50043836  1
  Cu+  Cu92  1  0.33723953  0.16987973  0.83018717  1
  Cu+  Cu93  1  0.32875809  0.49898677  0.16717033  1
  Cu+  Cu94  1  0.33688549  0.50091516  0.50219609  1
  Cu+  Cu95  1  0.33187691  0.50215925  0.83523260  1
  Cu+  Cu96  1  0.33402837  0.83850108  0.17435859  1
  Cu+  Cu97  1  0.32776265  0.83178743  0.49640662  1
  Cu+  Cu98  1  0.32980598  0.83592745  0.83042538  1
  Cu+  Cu99  1  0.66976792  0.17215705  0.16800662  1
  Cu+  Cu100  1  0.66851425  0.16660140  0.50372378  1
  Cu+  Cu101  1  0.66291725  0.16314182  0.83460231  1
  Cu+  Cu102  1  0.66006271  0.49699192  0.16571148  1
  Cu+  Cu103  1  0.67062194  0.50183464  0.50071213  1
  Cu+  Cu104  1  0.67026936  0.50020507  0.82488985  1
  Cu+  Cu105  1  0.67350915  0.83071703  0.16872779  1
  Cu+  Cu106  1  0.66023765  0.83319628  0.49742147  1
  Cu+  Cu107  1  0.66580788  0.83626447  0.83672422  1
  Cu+  Cu108  1  0.07395584  0.07303449  0.58895065  1
  Cu+  Cu109  1  0.59188103  0.41093072  0.07191286  1
  Cu+  Cu110  1  0.74275969  0.73849444  0.25461248  1
  Cu+  Cu111  1  0.60070696  0.40748593  0.73325239  1
  Cu+  Cu112  1  0.74025657  0.59825897  0.74064476  1
  Cu+  Cu113  1  0.40093943  0.26532938  0.07645571  1
  Cu+  Cu114  1  0.59405813  0.25847438  0.26347572  1
  Cu+  Cu115  1  0.07186312  0.40276046  0.92862060  1
  Cu+  Cu116  1  0.40194103  0.91753608  0.07343701  1
  Cu+  Cu117  1  0.07081833  0.73768923  0.92577244  1
  Cu+  Cu118  1  0.40870399  0.26550496  0.74199365  1
  Cu+  Cu119  1  0.73916655  0.58299193  0.40363912  1
  Cu+  Cu120  1  0.40511090  0.07222776  0.91680355  1
  Cu+  Cu121  1  0.25883165  0.26443236  0.58990511  1
  Cu+  Cu122  1  0.58984767  0.74013301  0.41002198  1
  Cu+  Cu123  1  0.59534219  0.26529041  0.91564927  1
  Cu+  Cu124  1  0.26104792  0.93367000  0.26408826  1
  Cu+  Cu125  1  0.58681679  0.06905443  0.73715432  1
  Cu+  Cu126  1  0.92716436  0.06946820  0.73866851  1
  Cu+  Cu127  1  0.93207932  0.59548136  0.26250143  1
  Cu+  Cu128  1  0.07032620  0.07233236  0.93112577  1
  Cu+  Cu129  1  0.40530597  0.73748741  0.25790542  1
  Cu+  Cu130  1  0.60176736  0.92576839  0.93281924  1
  Cu+  Cu131  1  0.74831615  0.25928515  0.07238062  1
  Cu+  Cu132  1  0.25173063  0.73391140  0.40728470  1
  Te2-  Te133  1  0.24887951  0.25427306  0.07532191  1
  Te2-  Te134  1  0.25343424  0.25446594  0.41073676  1
  Te2-  Te135  1  0.25128054  0.25532356  0.74633685  1
  Te2-  Te136  1  0.25002788  0.58183886  0.07838064  1
  Te2-  Te137  1  0.25407844  0.58288348  0.41398667  1
  Te2-  Te138  1  0.25125823  0.58828026  0.75082365  1
  Te2-  Te139  1  0.25123571  0.91780204  0.07647024  1
  Te2-  Te140  1  0.25324273  0.92690688  0.41591393  1
  Te2-  Te141  1  0.25014478  0.92337756  0.74788551  1
  Te2-  Te142  1  0.59127699  0.25521457  0.07160816  1
  Te2-  Te143  1  0.58794482  0.25236249  0.41730021  1
  Te2-  Te144  1  0.59206505  0.25329447  0.74351761  1
  Te2-  Te145  1  0.58152207  0.58807840  0.08308717  1
  Te2-  Te146  1  0.58589300  0.58520949  0.41043925  1
  Te2-  Te147  1  0.58486396  0.59154576  0.74656706  1
  Te2-  Te148  1  0.59485314  0.91940624  0.08582982  1
  Te2-  Te149  1  0.57941446  0.92060511  0.41313327  1
  Te2-  Te150  1  0.58579270  0.91746644  0.74401164  1
  Te2-  Te151  1  0.91927564  0.25232866  0.08488352  1
  Te2-  Te152  1  0.91966934  0.25091752  0.41820045  1
  Te2-  Te153  1  0.91932725  0.24884410  0.75029764  1
  Te2-  Te154  1  0.91585414  0.58478677  0.07948375  1
  Te2-  Te155  1  0.92623098  0.58740615  0.41660979  1
  Te2-  Te156  1  0.92290265  0.58355797  0.75115054  1
  Te2-  Te157  1  0.92247012  0.91993090  0.08251369  1
  Te2-  Te158  1  0.91605726  0.91556222  0.41195728  1
  Te2-  Te159  1  0.92056042  0.91532014  0.74495448  1
  Te2-  Te160  1  0.25746312  0.08497933  0.25163775  1
  Te2-  Te161  1  0.25437818  0.08031772  0.58333011  1
  Te2-  Te162  1  0.25318744  0.08308976  0.91673919  1
  Te2-  Te163  1  0.24977374  0.41237563  0.25168633  1
  Te2-  Te164  1  0.25481482  0.41730387  0.58873237  1
  Te2-  Te165  1  0.25258725  0.41455005  0.91908807  1
  Te2-  Te166  1  0.25359489  0.73970053  0.25152057  1
  Te2-  Te167  1  0.24886268  0.75063099  0.58785880  1
  Te2-  Te168  1  0.25386866  0.74899144  0.91707687  1
  Te2-  Te169  1  0.58385113  0.08141014  0.24558306  1
  Te2-  Te170  1  0.58368806  0.07982700  0.58523566  1
  Te2-  Te171  1  0.58867063  0.08208066  0.92884879  1
  Te2-  Te172  1  0.58443346  0.41271997  0.25683970  1
  Te2-  Te173  1  0.59163733  0.41246084  0.58266045  1
  Te2-  Te174  1  0.59185197  0.41698374  0.91862564  1
  Te2-  Te175  1  0.58800040  0.74458336  0.25356689  1
  Te2-  Te176  1  0.58077241  0.75067969  0.58710792  1
  Te2-  Te177  1  0.58448980  0.74971732  0.92200570  1
  Te2-  Te178  1  0.91972465  0.08106314  0.25596981  1
  Te2-  Te179  1  0.91908937  0.07368294  0.58577550  1
  Te2-  Te180  1  0.91589101  0.07788710  0.92549019  1
  Te2-  Te181  1  0.91618678  0.41240750  0.25196396  1
  Te2-  Te182  1  0.91984178  0.41725431  0.58946961  1
  Te2-  Te183  1  0.91739247  0.41043446  0.92240978  1
  Te2-  Te184  1  0.92722882  0.74844002  0.25470985  1
  Te2-  Te185  1  0.91728088  0.74548447  0.58218109  1
  Te2-  Te186  1  0.91707143  0.74550241  0.92013235  1
  Te2-  Te187  1  0.08212304  0.25045598  0.25077502  1
  Te2-  Te188  1  0.08000448  0.25570927  0.58290141  1
  Te2-  Te189  1  0.07794489  0.25038679  0.91768425  1
  Te2-  Te190  1  0.08237721  0.58564769  0.25407913  1
  Te2-  Te191  1  0.08260283  0.58710086  0.58686502  1
  Te2-  Te192  1  0.07814928  0.58626626  0.92087214  1
  Te2-  Te193  1  0.08465622  0.91730628  0.25206895  1
  Te2-  Te194  1  0.07716111  0.91879367  0.58470870  1
  Te2-  Te195  1  0.07803947  0.92100525  0.92221173  1
  Te2-  Te196  1  0.41513358  0.25154865  0.24743628  1
  Te2-  Te197  1  0.41434323  0.25664099  0.58869661  1
  Te2-  Te198  1  0.41130786  0.26320726  0.91535279  1
  Te2-  Te199  1  0.40998930  0.58219526  0.25424945  1
  Te2-  Te200  1  0.41824079  0.58539371  0.58723446  1
  Te2-  Te201  1  0.41739175  0.58453735  0.91860778  1
  Te2-  Te202  1  0.41796811  0.92629978  0.25758504  1
  Te2-  Te203  1  0.40775770  0.91856239  0.58335535  1
  Te2-  Te204  1  0.40827685  0.92050206  0.91983808  1
  Te2-  Te205  1  0.74838919  0.25369918  0.26136376  1
  Te2-  Te206  1  0.75044272  0.25103062  0.58892045  1
  Te2-  Te207  1  0.74779987  0.25223967  0.91956249  1
  Te2-  Te208  1  0.74079449  0.58470545  0.25145874  1
  Te2-  Te209  1  0.74732192  0.58837526  0.58835696  1
  Te2-  Te210  1  0.74625737  0.58431702  0.91808381  1
  Te2-  Te211  1  0.75092828  0.92023853  0.25232512  1
  Te2-  Te212  1  0.74437018  0.91546402  0.58278832  1
  Te2-  Te213  1  0.75228399  0.92108785  0.92123657  1
  Te2-  Te214  1  0.08024258  0.07750226  0.08355293  1
  Te2-  Te215  1  0.08085549  0.08271968  0.40993808  1
  Te2-  Te216  1  0.08159758  0.07896908  0.74256171  1
  Te2-  Te217  1  0.07507088  0.41158043  0.08246537  1
  Te2-  Te218  1  0.08248716  0.41393999  0.41636212  1
  Te2-  Te219  1  0.08089417  0.41527378  0.74554874  1
  Te2-  Te220  1  0.08131221  0.74579563  0.08154401  1
  Te2-  Te221  1  0.08244124  0.74932216  0.41216455  1
  Te2-  Te222  1  0.08103240  0.75017086  0.74607547  1
  Te2-  Te223  1  0.41062082  0.07820740  0.07430545  1
  Te2-  Te224  1  0.41414273  0.08692488  0.41380401  1
  Te2-  Te225  1  0.41702206  0.07499176  0.75111952  1
  Te2-  Te226  1  0.40956542  0.41570535  0.07967527  1
  Te2-  Te227  1  0.41444809  0.41360307  0.41661047  1
  Te2-  Te228  1  0.41199145  0.41857298  0.74583935  1
  Te2-  Te229  1  0.41528399  0.75198477  0.08253333  1
  Te2-  Te230  1  0.40768731  0.74152412  0.41312523  1
  Te2-  Te231  1  0.41444849  0.75030301  0.75044436  1
  Te2-  Te232  1  0.74826113  0.07903017  0.08631701  1
  Te2-  Te233  1  0.74666511  0.08039213  0.41725813  1
  Te2-  Te234  1  0.74391553  0.07822108  0.74753348  1
  Te2-  Te235  1  0.74560297  0.41373429  0.07846188  1
  Te2-  Te236  1  0.75310367  0.41503084  0.41555532  1
  Te2-  Te237  1  0.75228889  0.40757118  0.74499390  1
  Te2-  Te238  1  0.75207332  0.74544948  0.08124233  1
  Te2-  Te239  1  0.74301449  0.74260068  0.41023414  1
  Te2-  Te240  1  0.74547369  0.75062483  0.74782584  1
