# generated using pymatgen
data_Ti27(Cu53Te54)2
_symmetry_space_group_name_H-M   'P 1'
_cell_length_a   17.88282332
_cell_length_b   17.89091649
_cell_length_c   17.88365599
_cell_angle_alpha   89.99220465
_cell_angle_beta   89.93401533
_cell_angle_gamma   90.03195375
_symmetry_Int_Tables_number   1
_chemical_formula_structural   Ti27(Cu53Te54)2
_chemical_formula_sum   'Ti27 Cu106 Te108'
_cell_volume   5721.69392152
_cell_formula_units_Z   1
loop_
 _symmetry_equiv_pos_site_id
 _symmetry_equiv_pos_as_xyz
  1  'x, y, z'
loop_
 _atom_type_symbol
 _atom_type_oxidation_number
  Ti4+  4.0
  Cu+  1.0
  Te2-  -2.0
loop_
 _atom_site_type_symbol
 _atom_site_label
 _atom_site_symmetry_multiplicity
 _atom_site_fract_x
 _atom_site_fract_y
 _atom_site_fract_z
 _atom_site_occupancy
  Ti4+  Ti0  1  0.16723849  0.16685170  0.16595715  1
  Ti4+  Ti1  1  0.16554504  0.17130302  0.50028968  1
  Ti4+  Ti2  1  0.16854251  0.16839951  0.83339587  1
  Ti4+  Ti3  1  0.17038224  0.50216395  0.16398834  1
  Ti4+  Ti4  1  0.16543900  0.50356682  0.50194102  1
  Ti4+  Ti5  1  0.16528923  0.49928689  0.83499704  1
  Ti4+  Ti6  1  0.16559043  0.83553376  0.16985685  1
  Ti4+  Ti7  1  0.16691161  0.83683958  0.50110208  1
  Ti4+  Ti8  1  0.16782448  0.83308886  0.83661930  1
  Ti4+  Ti9  1  0.50187827  0.16923924  0.16695439  1
  Ti4+  Ti10  1  0.49771539  0.16524523  0.50104639  1
  Ti4+  Ti11  1  0.50003230  0.16366215  0.83338527  1
  Ti4+  Ti12  1  0.49720083  0.50208890  0.16584958  1
  Ti4+  Ti13  1  0.50010586  0.49709289  0.49599705  1
  Ti4+  Ti14  1  0.50159088  0.49945883  0.83169551  1
  Ti4+  Ti15  1  0.50281427  0.83294801  0.16676616  1
  Ti4+  Ti16  1  0.49573438  0.83081451  0.49915228  1
  Ti4+  Ti17  1  0.50129019  0.83010184  0.83446086  1
  Ti4+  Ti18  1  0.83248422  0.16573350  0.16471846  1
  Ti4+  Ti19  1  0.83297138  0.16343730  0.49862381  1
  Ti4+  Ti20  1  0.83431259  0.16542619  0.83234184  1
  Ti4+  Ti21  1  0.83396894  0.50028820  0.16776531  1
  Ti4+  Ti22  1  0.83116181  0.50144938  0.50146360  1
  Ti4+  Ti23  1  0.83463421  0.49393122  0.83518540  1
  Ti4+  Ti24  1  0.83424946  0.83247866  0.16580514  1
  Ti4+  Ti25  1  0.82978495  0.83355720  0.50107227  1
  Ti4+  Ti26  1  0.83661957  0.83380704  0.83334146  1
  Cu+  Cu27  1  0.16859605  0.16366338  0.00079023  1
  Cu+  Cu28  1  0.16482337  0.16922931  0.33018806  1
  Cu+  Cu29  1  0.16438321  0.17241596  0.66808933  1
  Cu+  Cu30  1  0.17426023  0.50113405  -0.00221390  1
  Cu+  Cu31  1  0.16766139  0.50148410  0.33229834  1
  Cu+  Cu32  1  0.16287814  0.50175593  0.66788823  1
  Cu+  Cu33  1  0.16730851  0.83303113  0.00599446  1
  Cu+  Cu34  1  0.16512036  0.83779924  0.33659920  1
  Cu+  Cu35  1  0.16633689  0.83271552  0.66873696  1
  Cu+  Cu36  1  0.50608001  0.16748313  -0.00017450  1
  Cu+  Cu37  1  0.49807491  0.16801099  0.33452810  1
  Cu+  Cu38  1  0.49651338  0.16446895  0.66947490  1
  Cu+  Cu39  1  0.50005725  0.50052994  -0.00074483  1
  Cu+  Cu40  1  0.49394761  0.50505798  0.33291751  1
  Cu+  Cu41  1  0.50370718  0.49786543  0.66100107  1
  Cu+  Cu42  1  0.50871923  0.82820600  -0.00081260  1
  Cu+  Cu43  1  0.49611347  0.82903448  0.33185638  1
  Cu+  Cu44  1  0.49507611  0.83220351  0.66995533  1
  Cu+  Cu45  1  0.83667181  0.16702233  -0.00291908  1
  Cu+  Cu46  1  0.83077391  0.16352687  0.33142948  1
  Cu+  Cu47  1  0.83280186  0.16211160  0.65963775  1
  Cu+  Cu48  1  0.83603618  0.49873072  0.00188869  1
  Cu+  Cu49  1  0.83402355  0.50020907  0.33456133  1
  Cu+  Cu50  1  0.82820388  0.49721371  0.67185544  1
  Cu+  Cu51  1  0.83529370  0.83673182  0.00061177  1
  Cu+  Cu52  1  0.83039078  0.83293185  0.33300487  1
  Cu+  Cu53  1  0.83335501  0.83976137  0.66604855  1
  Cu+  Cu54  1  0.16573221  0.00101277  0.16992346  1
  Cu+  Cu55  1  0.16531442  0.00624321  0.50192581  1
  Cu+  Cu56  1  0.16874654  0.00336408  0.83536936  1
  Cu+  Cu57  1  0.16942689  0.33261794  0.16339578  1
  Cu+  Cu58  1  0.16859233  0.34192370  0.49920278  1
  Cu+  Cu59  1  0.16185062  0.33191846  0.83070339  1
  Cu+  Cu60  1  0.17049813  0.67099556  0.16510100  1
  Cu+  Cu61  1  0.16577918  0.67168689  0.50313198  1
  Cu+  Cu62  1  0.16669978  0.66546608  0.83810330  1
  Cu+  Cu63  1  0.50517209  0.00571545  0.16641698  1
  Cu+  Cu64  1  0.49523682  -0.00289230  0.49953552  1
  Cu+  Cu65  1  0.49643206  -0.00699080  0.83341910  1
  Cu+  Cu66  1  0.49918939  0.33699556  0.16760876  1
  Cu+  Cu67  1  0.49576768  0.32790993  0.49611998  1
  Cu+  Cu68  1  0.50172302  0.33271857  0.83188429  1
  Cu+  Cu69  1  0.49984577  0.66940665  0.16861046  1
  Cu+  Cu70  1  0.50171846  0.66296077  0.49350659  1
  Cu+  Cu71  1  0.50389830  0.66656691  0.83228365  1
  Cu+  Cu72  1  0.83078386  -0.00143327  0.16380388  1
  Cu+  Cu73  1  0.83092809  -0.00155717  0.50636254  1
  Cu+  Cu74  1  0.83603650  -0.00325286  0.83069977  1
  Cu+  Cu75  1  0.83266214  0.33490546  0.16679137  1
  Cu+  Cu76  1  0.83214542  0.33367670  0.49880860  1
  Cu+  Cu77  1  0.83795724  0.32831092  0.83712153  1
  Cu+  Cu78  1  0.83545582  0.66579785  0.16807968  1
  Cu+  Cu79  1  0.83046764  0.66783144  0.50274603  1
  Cu+  Cu80  1  0.83618826  0.66246347  0.83637439  1
  Cu+  Cu81  1  0.00092692  0.16515633  0.16542315  1
  Cu+  Cu82  1  -0.00171148  0.17103079  0.50037572  1
  Cu+  Cu83  1  0.00297847  0.17025186  0.83242710  1
  Cu+  Cu84  1  0.00357482  0.49920244  0.16778009  1
  Cu+  Cu85  1  -0.00023653  0.50421670  0.50231978  1
  Cu+  Cu86  1  -0.00292956  0.49840210  0.83959337  1
  Cu+  Cu87  1  0.00048108  0.83384747  0.17062993  1
  Cu+  Cu88  1  -0.00130766  0.83736214  0.50201854  1
  Cu+  Cu89  1  0.00282007  0.83401253  0.83864745  1
  Cu+  Cu90  1  0.33454973  0.16625287  0.16873551  1
  Cu+  Cu91  1  0.33191122  0.17020543  0.49983315  1
  Cu+  Cu92  1  0.33581400  0.16864300  0.83075649  1
  Cu+  Cu93  1  0.33133844  0.49778277  0.16054301  1
  Cu+  Cu94  1  0.32952964  0.49701333  0.49492337  1
  Cu+  Cu95  1  0.33402117  0.49923745  0.83338632  1
  Cu+  Cu96  1  0.33256185  0.83346260  0.16995298  1
  Cu+  Cu97  1  0.33036314  0.83793395  0.49692851  1
  Cu+  Cu98  1  0.33689612  0.83323240  0.83533532  1
  Cu+  Cu99  1  0.66551636  0.16556503  0.16325937  1
  Cu+  Cu100  1  0.66588731  0.15921960  0.50054760  1
  Cu+  Cu101  1  0.66200803  0.16494979  0.83672135  1
  Cu+  Cu102  1  0.66745614  0.50246915  0.16842328  1
  Cu+  Cu103  1  0.66505122  0.49932296  0.50389614  1
  Cu+  Cu104  1  0.67154885  0.49598169  0.82812762  1
  Cu+  Cu105  1  0.67112670  0.83164806  0.16026523  1
  Cu+  Cu106  1  0.65917246  0.82661630  0.49825190  1
  Cu+  Cu107  1  0.66996749  0.83206759  0.83094782  1
  Cu+  Cu108  1  0.93200007  0.25658082  0.92977239  1
  Cu+  Cu109  1  0.74241739  0.92757998  0.07189198  1
  Cu+  Cu110  1  0.40938285  0.26363818  0.74274628  1
  Cu+  Cu111  1  0.40033212  0.59175863  0.41127900  1
  Cu+  Cu112  1  0.40227383  0.74000044  0.25671301  1
  Cu+  Cu113  1  0.92394886  0.26602760  0.58400820  1
  Cu+  Cu114  1  0.93162058  0.92728431  0.93004430  1
  Cu+  Cu115  1  0.93110724  0.92651725  0.59213829  1
  Cu+  Cu116  1  0.59417779  0.73675402  0.40262647  1
  Cu+  Cu117  1  0.59318862  0.07569032  0.07057420  1
  Cu+  Cu118  1  0.92487388  0.59291179  0.93121168  1
  Cu+  Cu119  1  0.73947101  0.92703083  0.74114855  1
  Cu+  Cu120  1  0.40517540  0.25586724  0.40286620  1
  Cu+  Cu121  1  0.26643741  0.59429033  0.91979467  1
  Cu+  Cu122  1  0.58889538  0.59388040  0.58999609  1
  Cu+  Cu123  1  0.26242702  0.74792249  0.07518937  1
  Cu+  Cu124  1  0.07123051  0.26189136  0.73881095  1
  Cu+  Cu125  1  0.40217234  0.92250312  0.74088354  1
  Cu+  Cu126  1  0.25736234  0.39965743  0.06674485  1
  Cu+  Cu127  1  0.25441003  0.40913935  0.40186189  1
  Cu+  Cu128  1  0.73406731  0.07265880  0.59239491  1
  Cu+  Cu129  1  0.58987331  0.26468251  0.92745442  1
  Cu+  Cu130  1  0.74497270  0.59368131  0.74643007  1
  Cu+  Cu131  1  0.40645792  0.92822909  0.40185522  1
  Cu+  Cu132  1  0.59913538  0.73604634  0.07103042  1
  Te2-  Te133  1  0.25668034  0.24934058  0.07845110  1
  Te2-  Te134  1  0.25131286  0.25592084  0.41026414  1
  Te2-  Te135  1  0.25451963  0.25641460  0.74652942  1
  Te2-  Te136  1  0.25837763  0.59231341  0.07722749  1
  Te2-  Te137  1  0.24887249  0.59164020  0.41340342  1
  Te2-  Te138  1  0.25042777  0.58491536  0.74915468  1
  Te2-  Te139  1  0.25311899  0.92140076  0.08485458  1
  Te2-  Te140  1  0.25036977  0.92624133  0.41346090  1
  Te2-  Te141  1  0.25131109  0.91931014  0.74973395  1
  Te2-  Te142  1  0.58803201  0.25911400  0.08190649  1
  Te2-  Te143  1  0.58762565  0.24773869  0.41665089  1
  Te2-  Te144  1  0.58644497  0.24921152  0.74570710  1
  Te2-  Te145  1  0.58576241  0.58589207  0.08098367  1
  Te2-  Te146  1  0.59083442  0.58237555  0.40905914  1
  Te2-  Te147  1  0.58850884  0.58585980  0.74515402  1
  Te2-  Te148  1  0.58817230  0.92144313  0.07828885  1
  Te2-  Te149  1  0.58139713  0.91715984  0.41331943  1
  Te2-  Te150  1  0.58610921  0.91734103  0.74632832  1
  Te2-  Te151  1  0.92019126  0.25328426  0.08208986  1
  Te2-  Te152  1  0.91559756  0.25130522  0.41134175  1
  Te2-  Te153  1  0.91815817  0.25180996  0.74138170  1
  Te2-  Te154  1  0.92286258  0.58619653  0.08309620  1
  Te2-  Te155  1  0.91633936  0.58708898  0.41756899  1
  Te2-  Te156  1  0.91998416  0.58151225  0.74820882  1
  Te2-  Te157  1  0.92404214  0.92061387  0.08261770  1
  Te2-  Te158  1  0.91387205  0.91908969  0.41504834  1
  Te2-  Te159  1  0.92625622  0.91924709  0.74705082  1
  Te2-  Te160  1  0.25218808  0.08234353  0.25320962  1
  Te2-  Te161  1  0.25001297  0.08745519  0.58673125  1
  Te2-  Te162  1  0.25587648  0.08360892  0.91785984  1
  Te2-  Te163  1  0.25387030  0.41381833  0.25072281  1
  Te2-  Te164  1  0.25210186  0.41882645  0.58962297  1
  Te2-  Te165  1  0.25403103  0.40835170  0.91487886  1
  Te2-  Te166  1  0.25026171  0.74872761  0.25912218  1
  Te2-  Te167  1  0.25318196  0.75149266  0.58587028  1
  Te2-  Te168  1  0.25633045  0.74785149  0.92200707  1
  Te2-  Te169  1  0.58663218  0.08482909  0.25572946  1
  Te2-  Te170  1  0.58020920  0.07638836  0.58781263  1
  Te2-  Te171  1  0.58515829  0.07267395  0.91735102  1
  Te2-  Te172  1  0.58230438  0.41952697  0.25273856  1
  Te2-  Te173  1  0.58310914  0.40731751  0.58059441  1
  Te2-  Te174  1  0.58821834  0.41642993  0.91825643  1
  Te2-  Te175  1  0.59144903  0.74766861  0.25178709  1
  Te2-  Te176  1  0.57981410  0.74599868  0.58917245  1
  Te2-  Te177  1  0.59312365  0.74332771  0.91649536  1
  Te2-  Te178  1  0.91682529  0.07998918  0.24902483  1
  Te2-  Te179  1  0.92472400  0.07822168  0.58599530  1
  Te2-  Te180  1  0.92242006  0.07988751  0.91651120  1
  Te2-  Te181  1  0.91962251  0.41510271  0.25240625  1
  Te2-  Te182  1  0.91816859  0.41756186  0.58766037  1
  Te2-  Te183  1  0.92140860  0.40880029  0.92462934  1
  Te2-  Te184  1  0.91811021  0.74874455  0.25381565  1
  Te2-  Te185  1  0.91659287  0.74965557  0.58643529  1
  Te2-  Te186  1  0.92039539  0.74673571  0.92172212  1
  Te2-  Te187  1  0.08081546  0.25434969  0.24843126  1
  Te2-  Te188  1  0.07979324  0.26130963  0.58496886  1
  Te2-  Te189  1  0.08339015  0.25288756  0.92446730  1
  Te2-  Te190  1  0.08543996  0.58711349  0.24958322  1
  Te2-  Te191  1  0.08046136  0.58953123  0.58744880  1
  Te2-  Te192  1  0.07982355  0.58511923  0.92330195  1
  Te2-  Te193  1  0.07962080  0.92103753  0.25480030  1
  Te2-  Te194  1  0.08321077  0.92280382  0.58913671  1
  Te2-  Te195  1  0.08544793  0.92146195  0.92350074  1
  Te2-  Te196  1  0.41335741  0.25509613  0.25119709  1
  Te2-  Te197  1  0.41222227  0.25263496  0.58860198  1
  Te2-  Te198  1  0.41655326  0.25135104  0.92035027  1
  Te2-  Te199  1  0.40667117  0.58766612  0.25096698  1
  Te2-  Te200  1  0.41332776  0.58275541  0.58113118  1
  Te2-  Te201  1  0.41789866  0.58692179  0.91788094  1
  Te2-  Te202  1  0.41627497  0.92332687  0.24910350  1
  Te2-  Te203  1  0.41107071  0.91807265  0.58730374  1
  Te2-  Te204  1  0.41759437  0.91374709  0.92526551  1
  Te2-  Te205  1  0.74742925  0.25041203  0.24959841  1
  Te2-  Te206  1  0.74537274  0.25021857  0.58321996  1
  Te2-  Te207  1  0.74627159  0.24998494  0.91888058  1
  Te2-  Te208  1  0.74933368  0.58631391  0.25347768  1
  Te2-  Te209  1  0.74455106  0.58837525  0.59015678  1
  Te2-  Te210  1  0.74732556  0.58121723  0.91988994  1
  Te2-  Te211  1  0.74651718  0.91758158  0.25105430  1
  Te2-  Te212  1  0.73567203  0.91750141  0.58654807  1
  Te2-  Te213  1  0.74654460  0.92021042  0.91820414  1
  Te2-  Te214  1  0.08237477  0.07982170  0.08119789  1
  Te2-  Te215  1  0.08058352  0.08647084  0.41522621  1
  Te2-  Te216  1  0.08275778  0.08165199  0.74840649  1
  Te2-  Te217  1  0.08500302  0.41673722  0.07924339  1
  Te2-  Te218  1  0.07875331  0.41946966  0.41440648  1
  Te2-  Te219  1  0.07619882  0.41648087  0.74794416  1
  Te2-  Te220  1  0.07887335  0.74891994  0.08429331  1
  Te2-  Te221  1  0.07991121  0.75199933  0.41740945  1
  Te2-  Te222  1  0.08255385  0.74769221  0.75223427  1
  Te2-  Te223  1  0.41635365  0.08380411  0.08084936  1
  Te2-  Te224  1  0.41031533  0.08092512  0.41347187  1
  Te2-  Te225  1  0.41209804  0.07602089  0.74793012  1
  Te2-  Te226  1  0.41492809  0.41327728  0.07746370  1
  Te2-  Te227  1  0.41139906  0.41005083  0.40833692  1
  Te2-  Te228  1  0.41530317  0.41647080  0.74481724  1
  Te2-  Te229  1  0.41558685  0.74887370  0.07930776  1
  Te2-  Te230  1  0.40645829  0.74372093  0.41259211  1
  Te2-  Te231  1  0.41364492  0.74343342  0.75010632  1
  Te2-  Te232  1  0.74697315  0.08043010  0.07377884  1
  Te2-  Te233  1  0.74804493  0.07614507  0.41336639  1
  Te2-  Te234  1  0.74471127  0.08001257  0.74740125  1
  Te2-  Te235  1  0.74712113  0.41619266  0.08220769  1
  Te2-  Te236  1  0.74717223  0.41592849  0.41597617  1
  Te2-  Te237  1  0.75016776  0.40389025  0.74976893  1
  Te2-  Te238  1  0.75239470  0.74229370  0.07676903  1
  Te2-  Te239  1  0.74663860  0.74556827  0.41359832  1
  Te2-  Te240  1  0.75210296  0.74617174  0.74707144  1
