# generated using pymatgen
data_Ti27(Cu53Te54)2
_symmetry_space_group_name_H-M   'P 1'
_cell_length_a   17.89912352
_cell_length_b   17.89561616
_cell_length_c   17.89318919
_cell_angle_alpha   90.01522608
_cell_angle_beta   90.07585024
_cell_angle_gamma   89.97216121
_symmetry_Int_Tables_number   1
_chemical_formula_structural   Ti27(Cu53Te54)2
_chemical_formula_sum   'Ti27 Cu106 Te108'
_cell_volume   5731.46609669
_cell_formula_units_Z   1
loop_
 _symmetry_equiv_pos_site_id
 _symmetry_equiv_pos_as_xyz
  1  'x, y, z'
loop_
 _atom_type_symbol
 _atom_type_oxidation_number
  Ti4+  4.0
  Cu+  1.0
  Te2-  -2.0
loop_
 _atom_site_type_symbol
 _atom_site_label
 _atom_site_symmetry_multiplicity
 _atom_site_fract_x
 _atom_site_fract_y
 _atom_site_fract_z
 _atom_site_occupancy
  Ti4+  Ti0  1  0.16843891  0.16527670  0.16526957  1
  Ti4+  Ti1  1  0.16763367  0.16502875  0.49769143  1
  Ti4+  Ti2  1  0.16692702  0.16564244  0.83287914  1
  Ti4+  Ti3  1  0.16666907  0.49792293  0.16892533  1
  Ti4+  Ti4  1  0.16715393  0.49855971  0.50041751  1
  Ti4+  Ti5  1  0.16542124  0.50083550  0.83339409  1
  Ti4+  Ti6  1  0.16520099  0.83408975  0.16780573  1
  Ti4+  Ti7  1  0.16720040  0.83860440  0.49906676  1
  Ti4+  Ti8  1  0.16763465  0.82953143  0.83091488  1
  Ti4+  Ti9  1  0.50024418  0.16650385  0.16391611  1
  Ti4+  Ti10  1  0.50363133  0.16874610  0.50244258  1
  Ti4+  Ti11  1  0.49923037  0.16614509  0.83291851  1
  Ti4+  Ti12  1  0.50053682  0.49685582  0.16877698  1
  Ti4+  Ti13  1  0.49908434  0.50430273  0.50260503  1
  Ti4+  Ti14  1  0.49905728  0.50041536  0.83265708  1
  Ti4+  Ti15  1  0.49822102  0.83252283  0.16774335  1
  Ti4+  Ti16  1  0.50173102  0.83947535  0.49859538  1
  Ti4+  Ti17  1  0.49914841  0.83069181  0.83206652  1
  Ti4+  Ti18  1  0.83212187  0.16656805  0.16529607  1
  Ti4+  Ti19  1  0.83390944  0.16685954  0.50187283  1
  Ti4+  Ti20  1  0.83526254  0.16524536  0.83557680  1
  Ti4+  Ti21  1  0.83151081  0.49709261  0.16515449  1
  Ti4+  Ti22  1  0.83311300  0.50131888  0.50008394  1
  Ti4+  Ti23  1  0.83286445  0.50268640  0.83071776  1
  Ti4+  Ti24  1  0.83002513  0.83499828  0.16511780  1
  Ti4+  Ti25  1  0.83484043  0.83459508  0.49895961  1
  Ti4+  Ti26  1  0.83268510  0.82879546  0.83856066  1
  Cu+  Cu27  1  0.16776813  0.16349509  -0.00324763  1
  Cu+  Cu28  1  0.17015565  0.16616182  0.33075515  1
  Cu+  Cu29  1  0.16580142  0.16359408  0.66660686  1
  Cu+  Cu30  1  0.16880808  0.49892543  0.00418711  1
  Cu+  Cu31  1  0.16642436  0.49749900  0.33486254  1
  Cu+  Cu32  1  0.16628902  0.50139766  0.66582554  1
  Cu+  Cu33  1  0.16607769  0.83140156  -0.00091968  1
  Cu+  Cu34  1  0.16709009  0.84413129  0.33319672  1
  Cu+  Cu35  1  0.16515449  0.83204009  0.66293489  1
  Cu+  Cu36  1  0.49549273  0.16900096  -0.00141101  1
  Cu+  Cu37  1  0.50424553  0.17095538  0.33108603  1
  Cu+  Cu38  1  0.49906519  0.16455806  0.66825237  1
  Cu+  Cu39  1  0.50315322  0.49615332  0.00317882  1
  Cu+  Cu40  1  0.50414563  0.49836413  0.33841459  1
  Cu+  Cu41  1  0.49271537  0.50391797  0.66731369  1
  Cu+  Cu42  1  0.49464653  0.82881622  0.00118543  1
  Cu+  Cu43  1  0.50397850  0.83579142  0.33574250  1
  Cu+  Cu44  1  0.50333260  0.83720005  0.66113708  1
  Cu+  Cu45  1  0.83245462  0.16088023  0.00045795  1
  Cu+  Cu46  1  0.83338842  0.16710929  0.33525721  1
  Cu+  Cu47  1  0.83370153  0.16666745  0.66944826  1
  Cu+  Cu48  1  0.82918891  0.50110447  -0.00478669  1
  Cu+  Cu49  1  0.83115031  0.49931426  0.33110334  1
  Cu+  Cu50  1  0.83237630  0.50208633  0.66733364  1
  Cu+  Cu51  1  0.83098952  0.82554226  0.00479486  1
  Cu+  Cu52  1  0.83140159  0.83681203  0.32855259  1
  Cu+  Cu53  1  0.83649684  0.83279866  0.66962461  1
  Cu+  Cu54  1  0.17047931  -0.00239172  0.16993039  1
  Cu+  Cu55  1  0.16021016  0.00305299  0.49824012  1
  Cu+  Cu56  1  0.16908467  -0.00397546  0.82989129  1
  Cu+  Cu57  1  0.16692717  0.33246712  0.16681358  1
  Cu+  Cu58  1  0.17020543  0.33069718  0.49877452  1
  Cu+  Cu59  1  0.16680627  0.33234945  0.83223654  1
  Cu+  Cu60  1  0.16685511  0.66290616  0.17062990  1
  Cu+  Cu61  1  0.16869236  0.66627165  0.49817059  1
  Cu+  Cu62  1  0.16281779  0.66773303  0.83527574  1
  Cu+  Cu63  1  0.49900893  0.00042310  0.16525528  1
  Cu+  Cu64  1  0.50394577  0.00450459  0.50568386  1
  Cu+  Cu65  1  0.50121837  -0.00307634  0.83063555  1
  Cu+  Cu66  1  0.50302420  0.32953288  0.16301032  1
  Cu+  Cu67  1  0.50123227  0.33835053  0.50279749  1
  Cu+  Cu68  1  0.50183371  0.33051607  0.83158688  1
  Cu+  Cu69  1  0.49738797  0.66444295  0.17158172  1
  Cu+  Cu70  1  0.49990679  0.67606756  0.49841274  1
  Cu+  Cu71  1  0.49376935  0.66458899  0.83286259  1
  Cu+  Cu72  1  0.83457401  0.00276542  0.16113597  1
  Cu+  Cu73  1  0.83497887  0.00142875  0.49979762  1
  Cu+  Cu74  1  0.83071708  -0.00086974  0.84251904  1
  Cu+  Cu75  1  0.83343965  0.33087818  0.16419576  1
  Cu+  Cu76  1  0.83341243  0.33108693  0.50195952  1
  Cu+  Cu77  1  0.83549844  0.33526610  0.83081691  1
  Cu+  Cu78  1  0.82809198  0.66452563  0.16473814  1
  Cu+  Cu79  1  0.83411046  0.66624609  0.49844912  1
  Cu+  Cu80  1  0.83362648  0.66545032  0.83377011  1
  Cu+  Cu81  1  0.00051138  0.16361828  0.16430265  1
  Cu+  Cu82  1  -0.00065309  0.16355749  0.50083443  1
  Cu+  Cu83  1  0.00268837  0.16793399  0.83442163  1
  Cu+  Cu84  1  0.00205889  0.49743310  0.16806433  1
  Cu+  Cu85  1  -0.00021730  0.49985430  0.49855822  1
  Cu+  Cu86  1  -0.00178138  0.50274548  0.82921479  1
  Cu+  Cu87  1  -0.00366331  0.83407487  0.16459523  1
  Cu+  Cu88  1  0.00373381  0.83780167  0.49772560  1
  Cu+  Cu89  1  0.00105337  0.82602293  0.83292630  1
  Cu+  Cu90  1  0.33644630  0.16884111  0.16129639  1
  Cu+  Cu91  1  0.33682059  0.16506880  0.50102412  1
  Cu+  Cu92  1  0.33018470  0.16582530  0.83174199  1
  Cu+  Cu93  1  0.33223900  0.49682333  0.17118055  1
  Cu+  Cu94  1  0.33228020  0.50061692  0.50547914  1
  Cu+  Cu95  1  0.33170084  0.50283002  0.83208399  1
  Cu+  Cu96  1  0.33071631  0.83523189  0.17018178  1
  Cu+  Cu97  1  0.33455799  0.83954863  0.49907494  1
  Cu+  Cu98  1  0.33422796  0.82827494  0.83309762  1
  Cu+  Cu99  1  0.66480345  0.17026931  0.16836751  1
  Cu+  Cu100  1  0.67203363  0.16867039  0.50059327  1
  Cu+  Cu101  1  0.66659702  0.16410747  0.83629187  1
  Cu+  Cu102  1  0.66493055  0.49502783  0.16224943  1
  Cu+  Cu103  1  0.66508123  0.50195195  0.50063323  1
  Cu+  Cu104  1  0.66890832  0.50284862  0.83133229  1
  Cu+  Cu105  1  0.66274116  0.83808518  0.16836253  1
  Cu+  Cu106  1  0.66771586  0.83905773  0.49729658  1
  Cu+  Cu107  1  0.66656530  0.82857608  0.83683700  1
  Cu+  Cu108  1  0.40305776  0.26111067  0.06909561  1
  Cu+  Cu109  1  0.40601505  0.07645307  0.59516051  1
  Cu+  Cu110  1  0.73767313  0.59479799  0.73627774  1
  Cu+  Cu111  1  0.59559320  0.25897735  0.26060620  1
  Cu+  Cu112  1  0.92679838  0.40482552  0.73731723  1
  Cu+  Cu113  1  0.40708982  0.74788079  0.58620984  1
  Cu+  Cu114  1  0.59513746  0.40788876  0.41472527  1
  Cu+  Cu115  1  0.92800259  0.73355366  0.08929563  1
  Cu+  Cu116  1  0.73460138  0.74068197  0.93298182  1
  Cu+  Cu117  1  0.06888764  0.07916209  0.59787142  1
  Cu+  Cu118  1  0.73413408  0.07126673  0.92859502  1
  Cu+  Cu119  1  0.93194426  0.07466591  0.07292301  1
  Cu+  Cu120  1  0.59729610  0.74555672  0.40654729  1
  Cu+  Cu121  1  0.07675373  0.74274170  0.93020848  1
  Cu+  Cu122  1  0.40513779  0.40598639  0.59364561  1
  Cu+  Cu123  1  0.06914841  0.93079558  0.40253866  1
  Cu+  Cu124  1  0.26532993  0.92999470  0.26154416  1
  Cu+  Cu125  1  0.92907686  0.58328975  0.92909083  1
  Cu+  Cu126  1  0.07400918  0.73719070  0.58038927  1
  Cu+  Cu127  1  0.40522956  0.73730644  0.93192302  1
  Cu+  Cu128  1  0.74303099  0.40485119  0.91836862  1
  Cu+  Cu129  1  0.39985842  0.59365402  0.74168607  1
  Cu+  Cu130  1  0.60046153  0.93055447  0.59284422  1
  Cu+  Cu131  1  0.92583801  0.74233583  0.73852898  1
  Cu+  Cu132  1  0.59266604  0.40254776  0.07036361  1
  Te2-  Te133  1  0.25026459  0.25293532  0.07739487  1
  Te2-  Te134  1  0.25545758  0.24927762  0.41446330  1
  Te2-  Te135  1  0.25053002  0.25105119  0.74566898  1
  Te2-  Te136  1  0.25385476  0.58428218  0.08510682  1
  Te2-  Te137  1  0.25254407  0.58300208  0.41524161  1
  Te2-  Te138  1  0.24872466  0.58916329  0.74671157  1
  Te2-  Te139  1  0.25092821  0.91665101  0.07936728  1
  Te2-  Te140  1  0.25530064  0.92746044  0.41576442  1
  Te2-  Te141  1  0.25316636  0.91373485  0.74595876  1
  Te2-  Te142  1  0.58939349  0.25054420  0.07373846  1
  Te2-  Te143  1  0.59056940  0.25565665  0.41624120  1
  Te2-  Te144  1  0.58680073  0.24887620  0.74855301  1
  Te2-  Te145  1  0.58348847  0.58624348  0.08376239  1
  Te2-  Te146  1  0.58595680  0.59086082  0.41592669  1
  Te2-  Te147  1  0.58389050  0.58756699  0.74627153  1
  Te2-  Te148  1  0.58020695  0.91666772  0.07945357  1
  Te2-  Te149  1  0.58724417  0.92708261  0.41323261  1
  Te2-  Te150  1  0.58955286  0.91692358  0.74891212  1
  Te2-  Te151  1  0.91860944  0.25022341  0.07896409  1
  Te2-  Te152  1  0.91949066  0.25144532  0.41625354  1
  Te2-  Te153  1  0.92134063  0.25141267  0.74804037  1
  Te2-  Te154  1  0.92081738  0.58311757  0.08092946  1
  Te2-  Te155  1  0.91749416  0.58382535  0.41276787  1
  Te2-  Te156  1  0.92159493  0.58979480  0.74212529  1
  Te2-  Te157  1  0.91821362  0.91913714  0.07621272  1
  Te2-  Te158  1  0.91761709  0.92086052  0.41134847  1
  Te2-  Te159  1  0.91693680  0.91762067  0.75599897  1
  Te2-  Te160  1  0.25836650  0.08288650  0.25111349  1
  Te2-  Te161  1  0.25282225  0.07855791  0.58552293  1
  Te2-  Te162  1  0.25228418  0.07775300  0.91631715  1
  Te2-  Te163  1  0.25112485  0.41121332  0.25455699  1
  Te2-  Te164  1  0.25162358  0.41179694  0.58916874  1
  Te2-  Te165  1  0.25088271  0.41620321  0.91705032  1
  Te2-  Te166  1  0.24832757  0.74942982  0.25533602  1
  Te2-  Te167  1  0.25384496  0.74955702  0.58311996  1
  Te2-  Te168  1  0.25336190  0.74394952  0.92049545  1
  Te2-  Te169  1  0.58562899  0.08058554  0.25082306  1
  Te2-  Te170  1  0.59305657  0.08495393  0.58954198  1
  Te2-  Te171  1  0.58158704  0.07855766  0.92080384  1
  Te2-  Te172  1  0.58959377  0.41134783  0.25611068  1
  Te2-  Te173  1  0.58527102  0.41984968  0.59074227  1
  Te2-  Te174  1  0.58754617  0.41219453  0.91654812  1
  Te2-  Te175  1  0.58628933  0.74726290  0.25291053  1
  Te2-  Te176  1  0.59035602  0.75110319  0.58372631  1
  Te2-  Te177  1  0.58190067  0.74289935  0.92057231  1
  Te2-  Te178  1  0.91694841  0.08194384  0.25189335  1
  Te2-  Te179  1  0.91808575  0.07907497  0.58948119  1
  Te2-  Te180  1  0.92475787  0.07910981  0.91978865  1
  Te2-  Te181  1  0.91672781  0.41346498  0.25010387  1
  Te2-  Te182  1  0.91912670  0.41472596  0.58527275  1
  Te2-  Te183  1  0.92080546  0.41649098  0.91849425  1
  Te2-  Te184  1  0.91544304  0.74698404  0.25043056  1
  Te2-  Te185  1  0.92137977  0.74687818  0.58380765  1
  Te2-  Te186  1  0.92333151  0.74059620  0.92751282  1
  Te2-  Te187  1  0.08207798  0.24887552  0.24950593  1
  Te2-  Te188  1  0.08266424  0.25059462  0.58358851  1
  Te2-  Te189  1  0.08296595  0.25224739  0.91915961  1
  Te2-  Te190  1  0.08045298  0.58306360  0.25489448  1
  Te2-  Te191  1  0.07951014  0.58542973  0.58487945  1
  Te2-  Te192  1  0.08082018  0.58521983  0.92385399  1
  Te2-  Te193  1  0.07467573  0.92210628  0.24925520  1
  Te2-  Te194  1  0.07928093  0.92290992  0.58915300  1
  Te2-  Te195  1  0.08210611  0.91600696  0.91542674  1
  Te2-  Te196  1  0.41482956  0.25285812  0.25115744  1
  Te2-  Te197  1  0.41527400  0.25381901  0.58770151  1
  Te2-  Te198  1  0.41092336  0.25418034  0.91535440  1
  Te2-  Te199  1  0.41594521  0.57999842  0.25607814  1
  Te2-  Te200  1  0.41019259  0.59419708  0.58601637  1
  Te2-  Te201  1  0.41341817  0.58186460  0.92415162  1
  Te2-  Te202  1  0.41659267  0.92115554  0.25469717  1
  Te2-  Te203  1  0.41236916  0.92440222  0.58762353  1
  Te2-  Te204  1  0.41444926  0.91691409  0.91614321  1
  Te2-  Te205  1  0.74893760  0.25414459  0.25395382  1
  Te2-  Te206  1  0.74944071  0.25265911  0.58916131  1
  Te2-  Te207  1  0.74895152  0.25250607  0.91957793  1
  Te2-  Te208  1  0.74512753  0.58136961  0.24858911  1
  Te2-  Te209  1  0.74605683  0.58897633  0.58435416  1
  Te2-  Te210  1  0.74243942  0.58972496  0.92097660  1
  Te2-  Te211  1  0.74738146  0.92360879  0.24883904  1
  Te2-  Te212  1  0.75247969  0.92014170  0.58775759  1
  Te2-  Te213  1  0.74495922  0.91490871  0.92450125  1
  Te2-  Te214  1  0.08523708  0.07674859  0.07978112  1
  Te2-  Te215  1  0.07856057  0.08332508  0.40752582  1
  Te2-  Te216  1  0.07927526  0.07773344  0.74943561  1
  Te2-  Te217  1  0.08160149  0.41296782  0.08148675  1
  Te2-  Te218  1  0.08213597  0.41250504  0.41675689  1
  Te2-  Te219  1  0.08119649  0.41450212  0.74627996  1
  Te2-  Te220  1  0.08066447  0.74268834  0.08293193  1
  Te2-  Te221  1  0.08489433  0.75062283  0.41214726  1
  Te2-  Te222  1  0.08018947  0.74250300  0.74089734  1
  Te2-  Te223  1  0.41445418  0.07927447  0.07855095  1
  Te2-  Te224  1  0.42164328  0.08446348  0.41393325  1
  Te2-  Te225  1  0.41248271  0.07841233  0.74889421  1
  Te2-  Te226  1  0.41165964  0.41352588  0.08139852  1
  Te2-  Te227  1  0.41294654  0.41714180  0.41728750  1
  Te2-  Te228  1  0.41227446  0.41202920  0.74928193  1
  Te2-  Te229  1  0.40964138  0.74444756  0.08663579  1
  Te2-  Te230  1  0.41206033  0.75378007  0.41248335  1
  Te2-  Te231  1  0.41278488  0.74740888  0.74069825  1
  Te2-  Te232  1  0.74085579  0.08055406  0.08177176  1
  Te2-  Te233  1  0.74881680  0.08126708  0.41513780  1
  Te2-  Te234  1  0.74993543  0.07937457  0.75087800  1
  Te2-  Te235  1  0.74704483  0.40908547  0.07576889  1
  Te2-  Te236  1  0.74820468  0.41361774  0.41536107  1
  Te2-  Te237  1  0.74590264  0.41374484  0.74536417  1
  Te2-  Te238  1  0.73830954  0.74606204  0.08464430  1
  Te2-  Te239  1  0.74999044  0.74947524  0.41209132  1
  Te2-  Te240  1  0.74598790  0.74799956  0.74581375  1
