# generated using pymatgen
data_Ti27(Cu53Te54)2
_symmetry_space_group_name_H-M   'P 1'
_cell_length_a   17.91654038
_cell_length_b   17.92578912
_cell_length_c   17.91901751
_cell_angle_alpha   89.93285337
_cell_angle_beta   89.90746785
_cell_angle_gamma   90.04276393
_symmetry_Int_Tables_number   1
_chemical_formula_structural   Ti27(Cu53Te54)2
_chemical_formula_sum   'Ti27 Cu106 Te108'
_cell_volume   5755.00417964
_cell_formula_units_Z   1
loop_
 _symmetry_equiv_pos_site_id
 _symmetry_equiv_pos_as_xyz
  1  'x, y, z'
loop_
 _atom_type_symbol
 _atom_type_oxidation_number
  Ti4+  4.0
  Cu+  1.0
  Te2-  -2.0
loop_
 _atom_site_type_symbol
 _atom_site_label
 _atom_site_symmetry_multiplicity
 _atom_site_fract_x
 _atom_site_fract_y
 _atom_site_fract_z
 _atom_site_occupancy
  Ti4+  Ti0  1  0.16553928  0.16566148  0.16633436  1
  Ti4+  Ti1  1  0.16624577  0.16727836  0.50107591  1
  Ti4+  Ti2  1  0.16769897  0.16502384  0.83584093  1
  Ti4+  Ti3  1  0.16796626  0.49731807  0.16816681  1
  Ti4+  Ti4  1  0.16795388  0.50290242  0.49874181  1
  Ti4+  Ti5  1  0.16799282  0.49820006  0.83361134  1
  Ti4+  Ti6  1  0.16505261  0.83117952  0.16632881  1
  Ti4+  Ti7  1  0.16336588  0.83484398  0.50177481  1
  Ti4+  Ti8  1  0.16877701  0.82980905  0.83622028  1
  Ti4+  Ti9  1  0.49887362  0.16630458  0.16711016  1
  Ti4+  Ti10  1  0.49849968  0.16478859  0.50077477  1
  Ti4+  Ti11  1  0.49991214  0.16463781  0.83359573  1
  Ti4+  Ti12  1  0.50152868  0.49691872  0.16370613  1
  Ti4+  Ti13  1  0.49737906  0.49942604  0.49773299  1
  Ti4+  Ti14  1  0.50425924  0.49647669  0.83188847  1
  Ti4+  Ti15  1  0.50234539  0.83328994  0.16772229  1
  Ti4+  Ti16  1  0.49859423  0.82988658  0.49792460  1
  Ti4+  Ti17  1  0.50127496  0.83250231  0.83191767  1
  Ti4+  Ti18  1  0.83201380  0.16911481  0.16698865  1
  Ti4+  Ti19  1  0.83305522  0.16761559  0.49844066  1
  Ti4+  Ti20  1  0.83473606  0.16809168  0.83065516  1
  Ti4+  Ti21  1  0.83287236  0.50078875  0.16606568  1
  Ti4+  Ti22  1  0.83114829  0.49822772  0.50177125  1
  Ti4+  Ti23  1  0.83327773  0.50658533  0.83474316  1
  Ti4+  Ti24  1  0.83207455  0.83646428  0.16808757  1
  Ti4+  Ti25  1  0.83297009  0.83174406  0.50188263  1
  Ti4+  Ti26  1  0.83413035  0.83998688  0.83425778  1
  Cu+  Cu27  1  0.16602921  0.16399557  -0.00074638  1
  Cu+  Cu28  1  0.16699082  0.16555125  0.33426792  1
  Cu+  Cu29  1  0.16679292  0.16667146  0.66735761  1
  Cu+  Cu30  1  0.16825124  0.49733623  0.00049922  1
  Cu+  Cu31  1  0.16870696  0.49871633  0.33297746  1
  Cu+  Cu32  1  0.16777319  0.50001480  0.66423326  1
  Cu+  Cu33  1  0.16877000  0.82848264  0.00027736  1
  Cu+  Cu34  1  0.16386093  0.83201168  0.33314162  1
  Cu+  Cu35  1  0.16365973  0.83532880  0.67047642  1
  Cu+  Cu36  1  0.49529232  0.16610938  0.00132060  1
  Cu+  Cu37  1  0.49825844  0.16624161  0.33750348  1
  Cu+  Cu38  1  0.49960072  0.16291051  0.66662314  1
  Cu+  Cu39  1  0.51099470  0.49213468  -0.00185211  1
  Cu+  Cu40  1  0.49646489  0.49879381  0.32850577  1
  Cu+  Cu41  1  0.49876765  0.50217580  0.66712658  1
  Cu+  Cu42  1  0.50344929  0.83428438  -0.00042606  1
  Cu+  Cu43  1  0.50269548  0.83378990  0.33148601  1
  Cu+  Cu44  1  0.49819523  0.82828915  0.66352011  1
  Cu+  Cu45  1  0.83524673  0.16667158  -0.00018472  1
  Cu+  Cu46  1  0.83420927  0.17165497  0.33278340  1
  Cu+  Cu47  1  0.83512314  0.16971893  0.66305850  1
  Cu+  Cu48  1  0.82612805  0.50930819  0.00204553  1
  Cu+  Cu49  1  0.82844388  0.49402040  0.33305028  1
  Cu+  Cu50  1  0.83670030  0.50385532  0.66807581  1
  Cu+  Cu51  1  0.83432003  0.83433742  0.00335575  1
  Cu+  Cu52  1  0.82947254  0.83291891  0.33484252  1
  Cu+  Cu53  1  0.83595744  0.83989234  0.66739787  1
  Cu+  Cu54  1  0.16605225  -0.00244076  0.16689827  1
  Cu+  Cu55  1  0.16375315  0.00294159  0.50189956  1
  Cu+  Cu56  1  0.16898956  -0.00260668  0.83595685  1
  Cu+  Cu57  1  0.16747880  0.33214274  0.16800780  1
  Cu+  Cu58  1  0.16892568  0.33674960  0.49941307  1
  Cu+  Cu59  1  0.16650713  0.33167841  0.83493677  1
  Cu+  Cu60  1  0.16613269  0.66197442  0.16651365  1
  Cu+  Cu61  1  0.16787514  0.67275732  0.49683700  1
  Cu+  Cu62  1  0.16926937  0.66420843  0.83693659  1
  Cu+  Cu63  1  0.50163491  -0.00049497  0.17172575  1
  Cu+  Cu64  1  0.49799037  -0.00098803  0.49954813  1
  Cu+  Cu65  1  0.50230458  -0.00103418  0.83504852  1
  Cu+  Cu66  1  0.49506003  0.33162119  0.16123787  1
  Cu+  Cu67  1  0.49685740  0.32989650  0.50029413  1
  Cu+  Cu68  1  0.50274080  0.32977326  0.83285317  1
  Cu+  Cu69  1  0.50482469  0.66744434  0.16694126  1
  Cu+  Cu70  1  0.49773375  0.66222298  0.49585583  1
  Cu+  Cu71  1  0.50031040  0.66388423  0.83059725  1
  Cu+  Cu72  1  0.83235588  0.00500736  0.16448335  1
  Cu+  Cu73  1  0.83317830  0.00104521  0.49961103  1
  Cu+  Cu74  1  0.82941313  0.00190105  0.83066135  1
  Cu+  Cu75  1  0.83303648  0.33376780  0.17410520  1
  Cu+  Cu76  1  0.83255798  0.33135703  0.50184671  1
  Cu+  Cu77  1  0.83431032  0.33900810  0.83458311  1
  Cu+  Cu78  1  0.83181880  0.67107683  0.16352305  1
  Cu+  Cu79  1  0.83360053  0.66247526  0.50223847  1
  Cu+  Cu80  1  0.83510416  0.67696217  0.83144354  1
  Cu+  Cu81  1  -0.00291505  0.16719112  0.16501229  1
  Cu+  Cu82  1  0.00029459  0.17014583  0.50010230  1
  Cu+  Cu83  1  0.00497532  0.16973558  0.83089523  1
  Cu+  Cu84  1  0.00537912  0.50296284  0.16287839  1
  Cu+  Cu85  1  0.00142900  0.50189765  0.50043595  1
  Cu+  Cu86  1  -0.00272219  0.49813986  0.83297654  1
  Cu+  Cu87  1  -0.00254507  0.83061340  0.16574430  1
  Cu+  Cu88  1  -0.00270905  0.83574783  0.50543726  1
  Cu+  Cu89  1  0.00469432  0.83472192  0.83133828  1
  Cu+  Cu90  1  0.33279622  0.16764164  0.16425997  1
  Cu+  Cu91  1  0.33285513  0.16583211  0.50089427  1
  Cu+  Cu92  1  0.33263099  0.16282346  0.83481359  1
  Cu+  Cu93  1  0.33358410  0.49235744  0.16788414  1
  Cu+  Cu94  1  0.33394933  0.50396058  0.49369032  1
  Cu+  Cu95  1  0.33777115  0.49870491  0.83133721  1
  Cu+  Cu96  1  0.33492524  0.83073315  0.16592661  1
  Cu+  Cu97  1  0.32926624  0.83080527  0.49725417  1
  Cu+  Cu98  1  0.33389508  0.82727892  0.83583600  1
  Cu+  Cu99  1  0.66580898  0.16659616  0.16791113  1
  Cu+  Cu100  1  0.66522683  0.16415087  0.49865425  1
  Cu+  Cu101  1  0.66768755  0.16520656  0.83351105  1
  Cu+  Cu102  1  0.66778119  0.49716050  0.16582805  1
  Cu+  Cu103  1  0.66300062  0.49943536  0.50164123  1
  Cu+  Cu104  1  0.66783224  0.50483587  0.83960669  1
  Cu+  Cu105  1  0.66548310  0.83927759  0.17278421  1
  Cu+  Cu106  1  0.66687618  0.82804992  0.49912548  1
  Cu+  Cu107  1  0.66539109  0.84457532  0.83583241  1
  Cu+  Cu108  1  0.25692965  0.74758661  0.40238147  1
  Cu+  Cu109  1  0.08145034  0.92789272  0.74480065  1
  Cu+  Cu110  1  0.58567947  0.59623759  0.92533834  1
  Cu+  Cu111  1  0.40046237  0.25668396  0.06853237  1
  Cu+  Cu112  1  0.08344981  0.59050236  0.06983782  1
  Cu+  Cu113  1  0.92193745  0.40983120  0.74259923  1
  Cu+  Cu114  1  0.40493139  0.40201025  0.25999170  1
  Cu+  Cu115  1  0.92561913  0.74155725  0.07443558  1
  Cu+  Cu116  1  0.73949311  0.40445266  0.26344508  1
  Cu+  Cu117  1  0.40525144  0.59148627  0.74064938  1
  Cu+  Cu118  1  0.08686231  0.26235347  0.73866554  1
  Cu+  Cu119  1  0.93102639  0.59103978  0.58929252  1
  Cu+  Cu120  1  0.92690030  0.25915298  0.58984761  1
  Cu+  Cu121  1  0.40723147  0.59254383  0.39869518  1
  Cu+  Cu122  1  0.92966201  0.75018918  0.74059143  1
  Cu+  Cu123  1  0.59793870  0.39993319  0.07240832  1
  Cu+  Cu124  1  0.73563934  0.92809104  0.73573093  1
  Cu+  Cu125  1  0.92497190  0.93091812  0.58850681  1
  Cu+  Cu126  1  0.59012716  0.93109853  0.93009469  1
  Cu+  Cu127  1  0.58953938  0.59085954  0.59268605  1
  Cu+  Cu128  1  0.93108968  0.26015943  0.25794525  1
  Cu+  Cu129  1  0.59351227  0.93290140  0.26484549  1
  Cu+  Cu130  1  0.73891236  0.60074989  0.07857445  1
  Cu+  Cu131  1  0.59298026  0.59107239  0.25764937  1
  Cu+  Cu132  1  0.92694916  0.07697176  0.06993998  1
  Te2-  Te133  1  0.24966511  0.25265641  0.07863687  1
  Te2-  Te134  1  0.25147225  0.25133396  0.41581640  1
  Te2-  Te135  1  0.25365846  0.25072270  0.74930196  1
  Te2-  Te136  1  0.25540990  0.58184959  0.08242147  1
  Te2-  Te137  1  0.25275030  0.59058769  0.40876302  1
  Te2-  Te138  1  0.25235133  0.58468683  0.74768217  1
  Te2-  Te139  1  0.25116818  0.91509139  0.08248185  1
  Te2-  Te140  1  0.24756424  0.92036396  0.41528072  1
  Te2-  Te141  1  0.25517818  0.91565410  0.75083673  1
  Te2-  Te142  1  0.58687632  0.24954086  0.07931739  1
  Te2-  Te143  1  0.58435764  0.25173528  0.41574389  1
  Te2-  Te144  1  0.58573350  0.24794008  0.74713019  1
  Te2-  Te145  1  0.58836476  0.58878832  0.07786903  1
  Te2-  Te146  1  0.58653996  0.58369277  0.40977311  1
  Te2-  Te147  1  0.59078670  0.58602551  0.74616909  1
  Te2-  Te148  1  0.58714155  0.92195316  0.08196826  1
  Te2-  Te149  1  0.58684465  0.91801131  0.41653012  1
  Te2-  Te150  1  0.58211016  0.91998961  0.74098160  1
  Te2-  Te151  1  0.91688596  0.25674926  0.08125624  1
  Te2-  Te152  1  0.92067431  0.25645513  0.41326579  1
  Te2-  Te153  1  0.92305090  0.25677064  0.74529899  1
  Te2-  Te154  1  0.92120811  0.58817049  0.07891105  1
  Te2-  Te155  1  0.91503519  0.58088072  0.41264997  1
  Te2-  Te156  1  0.92222823  0.59290591  0.74788396  1
  Te2-  Te157  1  0.91966072  0.92228179  0.08175847  1
  Te2-  Te158  1  0.91719850  0.91727761  0.41472046  1
  Te2-  Te159  1  0.92414800  0.92657530  0.74757207  1
  Te2-  Te160  1  0.25109170  0.08157099  0.25002790  1
  Te2-  Te161  1  0.25084694  0.08167694  0.58651811  1
  Te2-  Te162  1  0.25229951  0.07858803  0.92060175  1
  Te2-  Te163  1  0.25214067  0.40924342  0.25600488  1
  Te2-  Te164  1  0.25502873  0.41830908  0.58224365  1
  Te2-  Te165  1  0.25404979  0.41413812  0.91721495  1
  Te2-  Te166  1  0.25181368  0.74518461  0.25019542  1
  Te2-  Te167  1  0.24866970  0.75087733  0.58904345  1
  Te2-  Te168  1  0.25409103  0.74339128  0.92159972  1
  Te2-  Te169  1  0.58595381  0.08398506  0.25627631  1
  Te2-  Te170  1  0.58468197  0.07857792  0.58456789  1
  Te2-  Te171  1  0.58670508  0.08235927  0.92234532  1
  Te2-  Te172  1  0.58464054  0.40818684  0.25176089  1
  Te2-  Te173  1  0.58051015  0.41315874  0.58482826  1
  Te2-  Te174  1  0.59341904  0.40603795  0.91546472  1
  Te2-  Te175  1  0.58940769  0.74598423  0.25486847  1
  Te2-  Te176  1  0.58446128  0.74344319  0.58340730  1
  Te2-  Te177  1  0.58831738  0.74813219  0.91755147  1
  Te2-  Te178  1  0.91689055  0.08250708  0.25367632  1
  Te2-  Te179  1  0.92065780  0.08214482  0.58522854  1
  Te2-  Te180  1  0.92068896  0.08194569  0.91470974  1
  Te2-  Te181  1  0.92367136  0.41830438  0.25178657  1
  Te2-  Te182  1  0.92165974  0.41289087  0.58726138  1
  Te2-  Te183  1  0.91413229  0.42123036  0.92434549  1
  Te2-  Te184  1  0.91517798  0.74854941  0.25370321  1
  Te2-  Te185  1  0.92030045  0.74402481  0.58906645  1
  Te2-  Te186  1  0.92123426  0.75216682  0.92031130  1
  Te2-  Te187  1  0.08151410  0.25176378  0.25324908  1
  Te2-  Te188  1  0.08097080  0.25819514  0.58704109  1
  Te2-  Te189  1  0.08151815  0.25165673  0.92171053  1
  Te2-  Te190  1  0.08238598  0.58356843  0.25494350  1
  Te2-  Te191  1  0.08389881  0.58957870  0.58535416  1
  Te2-  Te192  1  0.08034739  0.58290484  0.91775989  1
  Te2-  Te193  1  0.07936227  0.91557026  0.25059520  1
  Te2-  Te194  1  0.07822454  0.92409357  0.58996216  1
  Te2-  Te195  1  0.08322017  0.91600955  0.92208544  1
  Te2-  Te196  1  0.41278612  0.25032697  0.25469259  1
  Te2-  Te197  1  0.41357526  0.24955767  0.58756579  1
  Te2-  Te198  1  0.41226664  0.25237011  0.91699893  1
  Te2-  Te199  1  0.41203342  0.58726850  0.24582352  1
  Te2-  Te200  1  0.41072120  0.58658434  0.58555863  1
  Te2-  Te201  1  0.41999855  0.58022025  0.92161591  1
  Te2-  Te202  1  0.41335780  0.91643504  0.25248486  1
  Te2-  Te203  1  0.41348414  0.91364148  0.58190775  1
  Te2-  Te204  1  0.41485899  0.91583020  0.91786986  1
  Te2-  Te205  1  0.74181679  0.25266375  0.25549856  1
  Te2-  Te206  1  0.74448400  0.25083784  0.58427562  1
  Te2-  Te207  1  0.75107128  0.25183640  0.91642593  1
  Te2-  Te208  1  0.74837719  0.58797111  0.25363639  1
  Te2-  Te209  1  0.74496782  0.58458658  0.58774704  1
  Te2-  Te210  1  0.74632211  0.59794507  0.91932162  1
  Te2-  Te211  1  0.74915696  0.92470231  0.25546385  1
  Te2-  Te212  1  0.74412597  0.91960049  0.58329897  1
  Te2-  Te213  1  0.74934925  0.92431700  0.92521399  1
  Te2-  Te214  1  0.08002917  0.07923588  0.08102550  1
  Te2-  Te215  1  0.07972898  0.08316648  0.41576641  1
  Te2-  Te216  1  0.08218021  0.07906547  0.74793449  1
  Te2-  Te217  1  0.08282215  0.41128116  0.08149539  1
  Te2-  Te218  1  0.08195384  0.41673467  0.41565430  1
  Te2-  Te219  1  0.08025424  0.41466559  0.74518063  1
  Te2-  Te220  1  0.07932160  0.74355597  0.07829343  1
  Te2-  Te221  1  0.07512042  0.75107785  0.41701988  1
  Te2-  Te222  1  0.08325589  0.74162328  0.74833811  1
  Te2-  Te223  1  0.41518633  0.07728932  0.08451430  1
  Te2-  Te224  1  0.41214263  0.07969349  0.41529437  1
  Te2-  Te225  1  0.41511596  0.07853098  0.74996319  1
  Te2-  Te226  1  0.41251029  0.41421595  0.07360307  1
  Te2-  Te227  1  0.41209117  0.41066628  0.41318741  1
  Te2-  Te228  1  0.41792911  0.41107030  0.74730377  1
  Te2-  Te229  1  0.41909626  0.74768030  0.08092556  1
  Te2-  Te230  1  0.41249127  0.74609197  0.40825824  1
  Te2-  Te231  1  0.41386345  0.74561366  0.74719130  1
  Te2-  Te232  1  0.74571976  0.08422837  0.08011101  1
  Te2-  Te233  1  0.74975284  0.08232598  0.41288800  1
  Te2-  Te234  1  0.74784262  0.08401473  0.74354735  1
  Te2-  Te235  1  0.75079165  0.41052396  0.07874087  1
  Te2-  Te236  1  0.74336224  0.41116483  0.41818105  1
  Te2-  Te237  1  0.74804855  0.42076194  0.75016549  1
  Te2-  Te238  1  0.74143016  0.75376985  0.08169608  1
  Te2-  Te239  1  0.75002120  0.74425412  0.41665734  1
  Te2-  Te240  1  0.74560539  0.75659033  0.74926111  1
