# generated using pymatgen
data_Ti27(Cu53Te54)2
_symmetry_space_group_name_H-M   'P 1'
_cell_length_a   17.90961349
_cell_length_b   17.90264995
_cell_length_c   17.90603738
_cell_angle_alpha   89.95856229
_cell_angle_beta   90.00056093
_cell_angle_gamma   90.03523518
_symmetry_Int_Tables_number   1
_chemical_formula_structural   Ti27(Cu53Te54)2
_chemical_formula_sum   'Ti27 Cu106 Te108'
_cell_volume   5741.20196094
_cell_formula_units_Z   1
loop_
 _symmetry_equiv_pos_site_id
 _symmetry_equiv_pos_as_xyz
  1  'x, y, z'
loop_
 _atom_type_symbol
 _atom_type_oxidation_number
  Ti4+  4.0
  Cu+  1.0
  Te2-  -2.0
loop_
 _atom_site_type_symbol
 _atom_site_label
 _atom_site_symmetry_multiplicity
 _atom_site_fract_x
 _atom_site_fract_y
 _atom_site_fract_z
 _atom_site_occupancy
  Ti4+  Ti0  1  0.16242458  0.17015318  0.16807187  1
  Ti4+  Ti1  1  0.16800303  0.16561234  0.50114357  1
  Ti4+  Ti2  1  0.17018202  0.16441520  0.83330046  1
  Ti4+  Ti3  1  0.16859421  0.50167972  0.16608023  1
  Ti4+  Ti4  1  0.16227376  0.49956093  0.50404668  1
  Ti4+  Ti5  1  0.16730970  0.49998214  0.83518898  1
  Ti4+  Ti6  1  0.16765878  0.83357377  0.16785432  1
  Ti4+  Ti7  1  0.16456009  0.83124134  0.50035349  1
  Ti4+  Ti8  1  0.16378075  0.83398529  0.83226701  1
  Ti4+  Ti9  1  0.49495268  0.16558729  0.16536255  1
  Ti4+  Ti10  1  0.50076244  0.16781078  0.49914203  1
  Ti4+  Ti11  1  0.50415025  0.16587422  0.83467111  1
  Ti4+  Ti12  1  0.50212079  0.49978667  0.16694624  1
  Ti4+  Ti13  1  0.49418205  0.50129572  0.50110967  1
  Ti4+  Ti14  1  0.50020364  0.50104051  0.83179935  1
  Ti4+  Ti15  1  0.49980310  0.83153762  0.16718004  1
  Ti4+  Ti16  1  0.50064689  0.83188150  0.50319453  1
  Ti4+  Ti17  1  0.50201577  0.83506311  0.83408759  1
  Ti4+  Ti18  1  0.82999201  0.16720842  0.16714180  1
  Ti4+  Ti19  1  0.83635691  0.16365933  0.50059767  1
  Ti4+  Ti20  1  0.83578199  0.16602950  0.83263484  1
  Ti4+  Ti21  1  0.83340663  0.50461011  0.16344761  1
  Ti4+  Ti22  1  0.83399092  0.50080790  0.49464148  1
  Ti4+  Ti23  1  0.83311702  0.49849410  0.83188246  1
  Ti4+  Ti24  1  0.83314332  0.83390245  0.16525053  1
  Ti4+  Ti25  1  0.83233350  0.83072900  0.50024784  1
  Ti4+  Ti26  1  0.83506626  0.83499528  0.83339612  1
  Cu+  Cu27  1  0.16657476  0.16548559  0.00341398  1
  Cu+  Cu28  1  0.16300832  0.17040993  0.33353614  1
  Cu+  Cu29  1  0.17213803  0.16500522  0.66508611  1
  Cu+  Cu30  1  0.16925865  0.49909442  0.00028371  1
  Cu+  Cu31  1  0.16645753  0.49877165  0.33344872  1
  Cu+  Cu32  1  0.16589839  0.50279092  0.67089690  1
  Cu+  Cu33  1  0.16701581  0.83408926  0.00067913  1
  Cu+  Cu34  1  0.16863355  0.83327578  0.33078089  1
  Cu+  Cu35  1  0.15687411  0.83012589  0.66538756  1
  Cu+  Cu36  1  0.49948558  0.15915385  0.00202153  1
  Cu+  Cu37  1  0.49697080  0.16882862  0.32964417  1
  Cu+  Cu38  1  0.50421023  0.16955584  0.66817913  1
  Cu+  Cu39  1  0.49802417  0.50203630  -0.00062578  1
  Cu+  Cu40  1  0.49809593  0.49679785  0.33661732  1
  Cu+  Cu41  1  0.49818776  0.50353426  0.66439454  1
  Cu+  Cu42  1  0.50223850  0.83043492  0.00255530  1
  Cu+  Cu43  1  0.49767404  0.83345625  0.33818808  1
  Cu+  Cu44  1  0.50396204  0.83222819  0.67077813  1
  Cu+  Cu45  1  0.82962927  0.16493700  -0.00136207  1
  Cu+  Cu46  1  0.83093775  0.16688767  0.33728282  1
  Cu+  Cu47  1  0.83870119  0.16566900  0.66479227  1
  Cu+  Cu48  1  0.83734090  0.50465162  -0.00432361  1
  Cu+  Cu49  1  0.83133563  0.50073040  0.32623962  1
  Cu+  Cu50  1  0.83386235  0.49822813  0.66401519  1
  Cu+  Cu51  1  0.83889309  0.83799005  -0.00269997  1
  Cu+  Cu52  1  0.83183267  0.82892917  0.33255199  1
  Cu+  Cu53  1  0.83139481  0.83302656  0.66744663  1
  Cu+  Cu54  1  0.16292841  0.00280803  0.16744330  1
  Cu+  Cu55  1  0.16839343  0.00154572  0.50000300  1
  Cu+  Cu56  1  0.16755141  -0.00534256  0.83146353  1
  Cu+  Cu57  1  0.16356907  0.33552385  0.16950346  1
  Cu+  Cu58  1  0.16655499  0.33225398  0.50139761  1
  Cu+  Cu59  1  0.17048243  0.33397909  0.83435583  1
  Cu+  Cu60  1  0.17060632  0.66914721  0.16673226  1
  Cu+  Cu61  1  0.15791943  0.66541697  0.50889246  1
  Cu+  Cu62  1  0.16367002  0.66761964  0.83382602  1
  Cu+  Cu63  1  0.49786027  -0.00044703  0.16563019  1
  Cu+  Cu64  1  0.49693711  -0.00207049  0.50013343  1
  Cu+  Cu65  1  0.50243577  0.00380068  0.83441042  1
  Cu+  Cu66  1  0.49864663  0.32976737  0.16995687  1
  Cu+  Cu67  1  0.49787524  0.33822567  0.49685941  1
  Cu+  Cu68  1  0.49946870  0.33174090  0.83092475  1
  Cu+  Cu69  1  0.50239553  0.66487195  0.16124318  1
  Cu+  Cu70  1  0.49940041  0.66428952  0.50817126  1
  Cu+  Cu71  1  0.50260283  0.66981809  0.83109067  1
  Cu+  Cu72  1  0.83172505  -0.00115667  0.16875527  1
  Cu+  Cu73  1  0.83649024  -0.00309063  0.50195237  1
  Cu+  Cu74  1  0.83548769  0.00037987  0.83772824  1
  Cu+  Cu75  1  0.83238653  0.33621616  0.16288282  1
  Cu+  Cu76  1  0.83459219  0.33028340  0.49767655  1
  Cu+  Cu77  1  0.83473691  0.33263348  0.82982717  1
  Cu+  Cu78  1  0.82989809  0.67103744  0.16656710  1
  Cu+  Cu79  1  0.83790424  0.66804617  0.49227521  1
  Cu+  Cu80  1  0.83604499  0.66341825  0.83549781  1
  Cu+  Cu81  1  -0.00338462  0.16936422  0.16906003  1
  Cu+  Cu82  1  0.00275212  0.16576997  0.50143401  1
  Cu+  Cu83  1  0.00338498  0.16545293  0.83218434  1
  Cu+  Cu84  1  0.00009702  0.50460830  0.16353810  1
  Cu+  Cu85  1  0.00108252  0.50484947  0.49339682  1
  Cu+  Cu86  1  -0.00034546  0.50038625  0.83528437  1
  Cu+  Cu87  1  0.00448026  0.83574338  0.16442283  1
  Cu+  Cu88  1  -0.00262749  0.82515150  0.50207285  1
  Cu+  Cu89  1  -0.00066038  0.84227782  0.83153000  1
  Cu+  Cu90  1  0.32550706  0.16648187  0.16371747  1
  Cu+  Cu91  1  0.33352851  0.16782990  0.50185299  1
  Cu+  Cu92  1  0.33941466  0.16807338  0.83453889  1
  Cu+  Cu93  1  0.33725461  0.50365249  0.16584921  1
  Cu+  Cu94  1  0.32280576  0.49966426  0.50354498  1
  Cu+  Cu95  1  0.33369361  0.50033333  0.83308939  1
  Cu+  Cu96  1  0.33329779  0.83382971  0.16852953  1
  Cu+  Cu97  1  0.33623172  0.83362292  0.50084435  1
  Cu+  Cu98  1  0.33105681  0.83663935  0.83300407  1
  Cu+  Cu99  1  0.65969920  0.16744282  0.16483972  1
  Cu+  Cu100  1  0.67179001  0.16579635  0.49957858  1
  Cu+  Cu101  1  0.67209279  0.16016431  0.83408672  1
  Cu+  Cu102  1  0.67041705  0.49815882  0.16801333  1
  Cu+  Cu103  1  0.66527638  0.50135360  0.49915994  1
  Cu+  Cu104  1  0.66811189  0.49679013  0.83062229  1
  Cu+  Cu105  1  0.66686785  0.82726655  0.16617884  1
  Cu+  Cu106  1  0.66656167  0.83290179  0.50223683  1
  Cu+  Cu107  1  0.66664346  0.83345717  0.83105049  1
  Cu+  Cu108  1  0.74421712  0.25638628  0.41205242  1
  Cu+  Cu109  1  0.40799750  0.07395365  0.92289716  1
  Cu+  Cu110  1  0.40932334  0.25997072  0.73892956  1
  Cu+  Cu111  1  0.73551349  0.74352167  0.26358730  1
  Cu+  Cu112  1  0.59189927  0.07015686  0.08027682  1
  Cu+  Cu113  1  0.74694480  0.40611497  0.25255454  1
  Cu+  Cu114  1  0.59673789  0.74017568  0.74163097  1
  Cu+  Cu115  1  0.59211403  0.41367585  0.41157229  1
  Cu+  Cu116  1  0.59659355  0.58900021  0.59060658  1
  Cu+  Cu117  1  0.25035905  0.07363697  0.07875076  1
  Cu+  Cu118  1  0.93071920  0.59412723  0.92440776  1
  Cu+  Cu119  1  0.25060133  0.40465702  0.40632270  1
  Cu+  Cu120  1  0.58881406  0.25518402  0.25666098  1
  Cu+  Cu121  1  0.25362063  0.59633410  0.59840522  1
  Cu+  Cu122  1  0.07206338  0.93045368  0.73346915  1
  Cu+  Cu123  1  0.40559393  0.92698642  0.40759341  1
  Cu+  Cu124  1  0.59831239  0.73454406  0.07282603  1
  Cu+  Cu125  1  0.92834266  0.93196720  0.92948107  1
  Cu+  Cu126  1  0.40605051  0.59347848  0.06995926  1
  Cu+  Cu127  1  0.06513417  0.73571809  0.59970936  1
  Cu+  Cu128  1  0.59980841  0.07977490  0.73445604  1
  Cu+  Cu129  1  0.74491252  0.07039423  0.92780566  1
  Cu+  Cu130  1  0.26155873  0.91687141  0.92830650  1
  Cu+  Cu131  1  0.08210528  0.59334136  0.40115889  1
  Cu+  Cu132  1  0.92896364  0.74565707  0.39905411  1
  Te2-  Te133  1  0.24814896  0.25699072  0.08129651  1
  Te2-  Te134  1  0.25326750  0.25213672  0.41365517  1
  Te2-  Te135  1  0.25519409  0.25166259  0.74839844  1
  Te2-  Te136  1  0.25369462  0.58780991  0.07944185  1
  Te2-  Te137  1  0.24647431  0.58954458  0.41746782  1
  Te2-  Te138  1  0.25278548  0.58956767  0.75056326  1
  Te2-  Te139  1  0.25487547  0.92120840  0.08132523  1
  Te2-  Te140  1  0.25146032  0.91744351  0.41542427  1
  Te2-  Te141  1  0.24969676  0.91587221  0.74147598  1
  Te2-  Te142  1  0.58102280  0.25316565  0.07824501  1
  Te2-  Te143  1  0.58779466  0.25524071  0.41187255  1
  Te2-  Te144  1  0.59234816  0.25178243  0.75073936  1
  Te2-  Te145  1  0.59119864  0.58224310  0.07863216  1
  Te2-  Te146  1  0.58151014  0.58733793  0.41467299  1
  Te2-  Te147  1  0.58945468  0.58594283  0.74533376  1
  Te2-  Te148  1  0.58714653  0.91765161  0.08193824  1
  Te2-  Te149  1  0.58609983  0.91765704  0.41704181  1
  Te2-  Te150  1  0.58772426  0.92350528  0.74794119  1
  Te2-  Te151  1  0.91424165  0.25065237  0.08100602  1
  Te2-  Te152  1  0.92248120  0.24998245  0.41441819  1
  Te2-  Te153  1  0.92181239  0.25071912  0.74742579  1
  Te2-  Te154  1  0.91977832  0.59214234  0.07950335  1
  Te2-  Te155  1  0.92008693  0.58690413  0.40478113  1
  Te2-  Te156  1  0.91930555  0.58363592  0.74569478  1
  Te2-  Te157  1  0.92118201  0.92261311  0.08301883  1
  Te2-  Te158  1  0.91849592  0.91469015  0.41456665  1
  Te2-  Te159  1  0.91675095  0.92265172  0.74319911  1
  Te2-  Te160  1  0.24791918  0.08330402  0.25454908  1
  Te2-  Te161  1  0.25558158  0.07953739  0.58500500  1
  Te2-  Te162  1  0.25522850  0.07625360  0.92155742  1
  Te2-  Te163  1  0.25466492  0.41565419  0.25075952  1
  Te2-  Te164  1  0.24734243  0.41272764  0.59145547  1
  Te2-  Te165  1  0.25467267  0.41516291  0.91915887  1
  Te2-  Te166  1  0.25466580  0.74805635  0.25289695  1
  Te2-  Te167  1  0.25249182  0.74999891  0.58794479  1
  Te2-  Te168  1  0.25062489  0.74834406  0.91785242  1
  Te2-  Te169  1  0.58232107  0.07945418  0.25283252  1
  Te2-  Te170  1  0.58650255  0.08089537  0.58213013  1
  Te2-  Te171  1  0.59161451  0.07580141  0.92453856  1
  Te2-  Te172  1  0.58846561  0.41110904  0.25577367  1
  Te2-  Te173  1  0.58345200  0.41498243  0.58606546  1
  Te2-  Te174  1  0.58339622  0.41556983  0.91674149  1
  Te2-  Te175  1  0.58198958  0.74535832  0.25582540  1
  Te2-  Te176  1  0.59018017  0.74494062  0.58950236  1
  Te2-  Te177  1  0.58822629  0.74732010  0.92005069  1
  Te2-  Te178  1  0.91442628  0.08312033  0.25314655  1
  Te2-  Te179  1  0.92291919  0.07852109  0.58537691  1
  Te2-  Te180  1  0.92399637  0.08291769  0.92204022  1
  Te2-  Te181  1  0.91985994  0.41710448  0.24755478  1
  Te2-  Te182  1  0.91848975  0.41678107  0.57822803  1
  Te2-  Te183  1  0.91845624  0.41215556  0.91797774  1
  Te2-  Te184  1  0.92306810  0.74777246  0.24755716  1
  Te2-  Te185  1  0.91510366  0.74269409  0.59044643  1
  Te2-  Te186  1  0.92278000  0.74930864  0.91799529  1
  Te2-  Te187  1  0.07695584  0.25546933  0.25394346  1
  Te2-  Te188  1  0.08326769  0.25050022  0.58735603  1
  Te2-  Te189  1  0.08550670  0.24981476  0.91753363  1
  Te2-  Te190  1  0.08186307  0.58827997  0.24955292  1
  Te2-  Te191  1  0.07184255  0.58303284  0.59368693  1
  Te2-  Te192  1  0.08234171  0.58642473  0.92196542  1
  Te2-  Te193  1  0.08198004  0.91957977  0.25281745  1
  Te2-  Te194  1  0.07702400  0.92073401  0.58070525  1
  Te2-  Te195  1  0.08032002  0.92200690  0.92307817  1
  Te2-  Te196  1  0.40723443  0.25075778  0.25019082  1
  Te2-  Te197  1  0.41633097  0.25432728  0.58469913  1
  Te2-  Te198  1  0.41897038  0.25181537  0.92272764  1
  Te2-  Te199  1  0.41915503  0.58546771  0.25345692  1
  Te2-  Te200  1  0.40644923  0.58660942  0.58852201  1
  Te2-  Te201  1  0.41483885  0.58888505  0.91580067  1
  Te2-  Te202  1  0.41449103  0.91892620  0.25300217  1
  Te2-  Te203  1  0.41633766  0.91684200  0.59035731  1
  Te2-  Te204  1  0.41543263  0.91974695  0.92300710  1
  Te2-  Te205  1  0.74323330  0.25446665  0.25464870  1
  Te2-  Te206  1  0.75060894  0.25117964  0.58687324  1
  Te2-  Te207  1  0.74921055  0.25257487  0.91598889  1
  Te2-  Te208  1  0.74501491  0.59058825  0.25185816  1
  Te2-  Te209  1  0.75153784  0.58654947  0.58179700  1
  Te2-  Te210  1  0.74508118  0.58439516  0.91668125  1
  Te2-  Te211  1  0.74638231  0.91644574  0.25222424  1
  Te2-  Te212  1  0.74832273  0.91774735  0.58550123  1
  Te2-  Te213  1  0.74520563  0.91763170  0.91998210  1
  Te2-  Te214  1  0.07595699  0.08334645  0.08271151  1
  Te2-  Te215  1  0.08229217  0.08172092  0.41466643  1
  Te2-  Te216  1  0.08396052  0.08098703  0.74592113  1
  Te2-  Te217  1  0.08151050  0.41721880  0.08190311  1
  Te2-  Te218  1  0.08003089  0.41182576  0.41455490  1
  Te2-  Te219  1  0.08211603  0.41433160  0.75134656  1
  Te2-  Te220  1  0.08359403  0.74827210  0.08091126  1
  Te2-  Te221  1  0.08090924  0.74602780  0.40866727  1
  Te2-  Te222  1  0.07388036  0.74487915  0.75073195  1
  Te2-  Te223  1  0.40664028  0.07608258  0.08026770  1
  Te2-  Te224  1  0.41377562  0.08320005  0.41399529  1
  Te2-  Te225  1  0.41650420  0.08074535  0.74640018  1
  Te2-  Te226  1  0.41715439  0.41353040  0.08314522  1
  Te2-  Te227  1  0.40555291  0.41530871  0.41458373  1
  Te2-  Te228  1  0.41401846  0.41591667  0.74583294  1
  Te2-  Te229  1  0.41123308  0.74798201  0.08016183  1
  Te2-  Te230  1  0.41593387  0.74363178  0.41923663  1
  Te2-  Te231  1  0.41327924  0.75138504  0.75040281  1
  Te2-  Te232  1  0.74443428  0.07794738  0.08217252  1
  Te2-  Te233  1  0.74939695  0.07586193  0.41607967  1
  Te2-  Te234  1  0.75298773  0.07782126  0.74311580  1
  Te2-  Te235  1  0.74971518  0.41828051  0.07607464  1
  Te2-  Te236  1  0.74574400  0.41229749  0.40971399  1
  Te2-  Te237  1  0.74885371  0.41280884  0.74446867  1
  Te2-  Te238  1  0.75077829  0.74858451  0.07357442  1
  Te2-  Te239  1  0.74234716  0.74505625  0.41500521  1
  Te2-  Te240  1  0.75054574  0.74541464  0.74953687  1
