# generated using pymatgen
data_Ti27(Cu53Te54)2
_symmetry_space_group_name_H-M   'P 1'
_cell_length_a   17.89283078
_cell_length_b   17.88574866
_cell_length_c   17.89235798
_cell_angle_alpha   90.04474600
_cell_angle_beta   90.00871525
_cell_angle_gamma   90.00241606
_symmetry_Int_Tables_number   1
_chemical_formula_structural   Ti27(Cu53Te54)2
_chemical_formula_sum   'Ti27 Cu106 Te108'
_cell_volume   5726.02999575
_cell_formula_units_Z   1
loop_
 _symmetry_equiv_pos_site_id
 _symmetry_equiv_pos_as_xyz
  1  'x, y, z'
loop_
 _atom_type_symbol
 _atom_type_oxidation_number
  Ti4+  4.0
  Cu+  1.0
  Te2-  -2.0
loop_
 _atom_site_type_symbol
 _atom_site_label
 _atom_site_symmetry_multiplicity
 _atom_site_fract_x
 _atom_site_fract_y
 _atom_site_fract_z
 _atom_site_occupancy
  Ti4+  Ti0  1  0.16551373  0.16156230  0.16379004  1
  Ti4+  Ti1  1  0.17010444  0.16672185  0.50235270  1
  Ti4+  Ti2  1  0.16519292  0.16785917  0.82656538  1
  Ti4+  Ti3  1  0.16532934  0.49769328  0.16522254  1
  Ti4+  Ti4  1  0.16748822  0.49967239  0.49715918  1
  Ti4+  Ti5  1  0.16576195  0.49990089  0.83433602  1
  Ti4+  Ti6  1  0.16191986  0.83202367  0.17068703  1
  Ti4+  Ti7  1  0.17201255  0.83233266  0.50077037  1
  Ti4+  Ti8  1  0.16702704  0.83308398  0.83386491  1
  Ti4+  Ti9  1  0.49993827  0.16639252  0.16790207  1
  Ti4+  Ti10  1  0.49934829  0.17106679  0.49824497  1
  Ti4+  Ti11  1  0.49638083  0.16691166  0.83531470  1
  Ti4+  Ti12  1  0.49947546  0.50001905  0.16538384  1
  Ti4+  Ti13  1  0.49784051  0.50135541  0.49930198  1
  Ti4+  Ti14  1  0.49963127  0.49968639  0.83274759  1
  Ti4+  Ti15  1  0.50060855  0.83419497  0.16964252  1
  Ti4+  Ti16  1  0.50387154  0.83473248  0.50002882  1
  Ti4+  Ti17  1  0.50179880  0.83504515  0.83372743  1
  Ti4+  Ti18  1  0.83433968  0.16683770  0.17293625  1
  Ti4+  Ti19  1  0.83397491  0.16791118  0.50175116  1
  Ti4+  Ti20  1  0.82952697  0.16490705  0.83380958  1
  Ti4+  Ti21  1  0.83375067  0.50183576  0.16603100  1
  Ti4+  Ti22  1  0.83457129  0.49881822  0.50050078  1
  Ti4+  Ti23  1  0.83362964  0.49909429  0.83321835  1
  Ti4+  Ti24  1  0.83257815  0.83604388  0.16634347  1
  Ti4+  Ti25  1  0.83409753  0.82870196  0.50074907  1
  Ti4+  Ti26  1  0.83538844  0.83447608  0.83139690  1
  Cu+  Cu27  1  0.16430134  0.16499455  -0.00888345  1
  Cu+  Cu28  1  0.16860648  0.16559084  0.33245362  1
  Cu+  Cu29  1  0.17188828  0.16124676  0.66442091  1
  Cu+  Cu30  1  0.16401652  0.50099614  0.00264818  1
  Cu+  Cu31  1  0.16750771  0.49683353  0.33005179  1
  Cu+  Cu32  1  0.16562678  0.49895257  0.66646975  1
  Cu+  Cu33  1  0.16326122  0.83189835  0.00298206  1
  Cu+  Cu34  1  0.17338225  0.83300032  0.33423560  1
  Cu+  Cu35  1  0.16879100  0.83269587  0.66835333  1
  Cu+  Cu36  1  0.49726283  0.16834300  0.00410796  1
  Cu+  Cu37  1  0.49776732  0.17238598  0.33326205  1
  Cu+  Cu38  1  0.49699375  0.16783035  0.66742385  1
  Cu+  Cu39  1  0.49807677  0.49758018  -0.00138290  1
  Cu+  Cu40  1  0.49957479  0.50155358  0.33083761  1
  Cu+  Cu41  1  0.50066070  0.49994009  0.66610033  1
  Cu+  Cu42  1  0.50153463  0.83360908  0.00144266  1
  Cu+  Cu43  1  0.50660690  0.84112454  0.33387440  1
  Cu+  Cu44  1  0.50148865  0.83156701  0.66620800  1
  Cu+  Cu45  1  0.83021960  0.16702413  0.00400087  1
  Cu+  Cu46  1  0.83119473  0.17167109  0.34070241  1
  Cu+  Cu47  1  0.83301014  0.16623386  0.66728442  1
  Cu+  Cu48  1  0.83289580  0.50157950  -0.00149775  1
  Cu+  Cu49  1  0.83570382  0.50171335  0.33273505  1
  Cu+  Cu50  1  0.83286984  0.49740441  0.66725925  1
  Cu+  Cu51  1  0.83308731  0.83450534  -0.00379089  1
  Cu+  Cu52  1  0.83030321  0.83055550  0.33315583  1
  Cu+  Cu53  1  0.83625856  0.82989235  0.66706205  1
  Cu+  Cu54  1  0.15756208  -0.00236373  0.17229185  1
  Cu+  Cu55  1  0.17132413  0.00030955  0.50210886  1
  Cu+  Cu56  1  0.16265186  -0.00113139  0.82854283  1
  Cu+  Cu57  1  0.16669157  0.32976489  0.16204816  1
  Cu+  Cu58  1  0.16536579  0.33645360  0.50121054  1
  Cu+  Cu59  1  0.16705208  0.33364533  0.83120397  1
  Cu+  Cu60  1  0.16112896  0.66233512  0.16320321  1
  Cu+  Cu61  1  0.17455383  0.66317339  0.50139140  1
  Cu+  Cu62  1  0.16899836  0.66756201  0.83714522  1
  Cu+  Cu63  1  0.50365976  0.00149416  0.17117067  1
  Cu+  Cu64  1  0.50001811  0.00159013  0.49815749  1
  Cu+  Cu65  1  0.50370506  0.00057721  0.83311538  1
  Cu+  Cu66  1  0.50154782  0.33322877  0.16710815  1
  Cu+  Cu67  1  0.49681050  0.33729191  0.49480594  1
  Cu+  Cu68  1  0.49130350  0.33485378  0.83742922  1
  Cu+  Cu69  1  0.49870461  0.66540618  0.16450364  1
  Cu+  Cu70  1  0.49900704  0.66905734  0.50007690  1
  Cu+  Cu71  1  0.50315620  0.66638449  0.83285389  1
  Cu+  Cu72  1  0.84191502  0.00166836  0.17146981  1
  Cu+  Cu73  1  0.83364631  -0.00161003  0.50056717  1
  Cu+  Cu74  1  0.83121764  -0.00171534  0.82592664  1
  Cu+  Cu75  1  0.83432827  0.33586257  0.16797219  1
  Cu+  Cu76  1  0.83308415  0.33215442  0.49866071  1
  Cu+  Cu77  1  0.83011677  0.33259851  0.83818766  1
  Cu+  Cu78  1  0.83040319  0.67081662  0.16700320  1
  Cu+  Cu79  1  0.83418918  0.66158776  0.50112459  1
  Cu+  Cu80  1  0.83738205  0.66683912  0.83215887  1
  Cu+  Cu81  1  -0.00275460  0.15842220  0.16806219  1
  Cu+  Cu82  1  0.00232504  0.16773587  0.50406371  1
  Cu+  Cu83  1  -0.00341367  0.16351165  0.83277152  1
  Cu+  Cu84  1  0.00034667  0.50187282  0.16289977  1
  Cu+  Cu85  1  0.00239122  0.49581609  0.50072574  1
  Cu+  Cu86  1  -0.00192366  0.50031563  0.83540493  1
  Cu+  Cu87  1  -0.00153752  0.84201607  0.16704253  1
  Cu+  Cu88  1  0.00270303  0.82822434  0.49945655  1
  Cu+  Cu89  1  -0.00020612  0.83124582  0.82692097  1
  Cu+  Cu90  1  0.33309666  0.16351980  0.16376042  1
  Cu+  Cu91  1  0.33781108  0.16978599  0.49891608  1
  Cu+  Cu92  1  0.33217621  0.17291336  0.82314486  1
  Cu+  Cu93  1  0.33144458  0.49808033  0.16657436  1
  Cu+  Cu94  1  0.32966052  0.50468964  0.50003660  1
  Cu+  Cu95  1  0.33415533  0.49719417  0.83738458  1
  Cu+  Cu96  1  0.32919265  0.83190833  0.17095156  1
  Cu+  Cu97  1  0.34132310  0.83281155  0.50043910  1
  Cu+  Cu98  1  0.33597773  0.83459880  0.83789254  1
  Cu+  Cu99  1  0.66731020  0.16822832  0.17108364  1
  Cu+  Cu100  1  0.66950687  0.17239391  0.49906184  1
  Cu+  Cu101  1  0.66127742  0.16478786  0.83500194  1
  Cu+  Cu102  1  0.66547882  0.50132850  0.16453477  1
  Cu+  Cu103  1  0.66455889  0.50003541  0.49953366  1
  Cu+  Cu104  1  0.66696644  0.49981274  0.83246600  1
  Cu+  Cu105  1  0.66686422  0.83293084  0.17284450  1
  Cu+  Cu106  1  0.66789540  0.83060590  0.49904371  1
  Cu+  Cu107  1  0.66884433  0.83611279  0.83283315  1
  Cu+  Cu108  1  0.92747267  0.73331516  0.73743437  1
  Cu+  Cu109  1  0.58969641  0.07881988  0.73901675  1
  Cu+  Cu110  1  0.73748944  0.73727817  0.26087669  1
  Cu+  Cu111  1  0.91807727  0.07670430  0.07166027  1
  Cu+  Cu112  1  0.25669790  0.58795020  0.59944435  1
  Cu+  Cu113  1  0.07543035  0.92067663  0.73540555  1
  Cu+  Cu114  1  0.26079684  0.06824645  0.74598289  1
  Cu+  Cu115  1  0.07293457  0.40840116  0.59557930  1
  Cu+  Cu116  1  0.73844622  0.91817460  0.73476265  1
  Cu+  Cu117  1  0.07615278  0.92351773  0.07206475  1
  Cu+  Cu118  1  0.92152466  0.07855499  0.73815471  1
  Cu+  Cu119  1  0.06940487  0.59118485  0.07081775  1
  Cu+  Cu120  1  0.07308530  0.07883424  0.26612432  1
  Cu+  Cu121  1  0.25896326  0.92755354  0.25443889  1
  Cu+  Cu122  1  0.07285659  0.07051526  0.58435593  1
  Cu+  Cu123  1  0.40363139  0.26660803  0.40103396  1
  Cu+  Cu124  1  0.59790017  0.93316872  0.25929919  1
  Cu+  Cu125  1  0.40208241  0.40672244  0.93215524  1
  Cu+  Cu126  1  0.07366287  0.07477703  0.91933731  1
  Cu+  Cu127  1  0.92326079  0.92106899  0.26806240  1
  Cu+  Cu128  1  0.41021615  0.92684124  0.40665759  1
  Cu+  Cu129  1  0.41368313  0.73958663  0.59618829  1
  Cu+  Cu130  1  0.40964310  0.26697043  0.73615033  1
  Cu+  Cu131  1  0.41360535  0.07329643  0.59197556  1
  Cu+  Cu132  1  0.73907455  0.26616944  0.40764451  1
  Te2-  Te133  1  0.24941635  0.24567899  0.07710786  1
  Te2-  Te134  1  0.25101217  0.25405822  0.41391288  1
  Te2-  Te135  1  0.24998879  0.25840423  0.74060381  1
  Te2-  Te136  1  0.25277612  0.58497200  0.08112290  1
  Te2-  Te137  1  0.25234153  0.58462641  0.40781999  1
  Te2-  Te138  1  0.25368338  0.58532746  0.75143788  1
  Te2-  Te139  1  0.24783559  0.91903702  0.08502537  1
  Te2-  Te140  1  0.25692874  0.92154574  0.41513045  1
  Te2-  Te141  1  0.25683181  0.91658620  0.74763184  1
  Te2-  Te142  1  0.58632249  0.25105206  0.08318069  1
  Te2-  Te143  1  0.58621701  0.25709309  0.41247342  1
  Te2-  Te144  1  0.58118064  0.25483768  0.75087264  1
  Te2-  Te145  1  0.58374238  0.58492496  0.07839742  1
  Te2-  Te146  1  0.58316766  0.58616853  0.41495992  1
  Te2-  Te147  1  0.58590852  0.58445297  0.74694460  1
  Te2-  Te148  1  0.58711766  0.91810835  0.08435898  1
  Te2-  Te149  1  0.59338254  0.92405771  0.41696576  1
  Te2-  Te150  1  0.58684287  0.92092045  0.74265087  1
  Te2-  Te151  1  0.91880964  0.25074852  0.08500397  1
  Te2-  Te152  1  0.92388100  0.25239841  0.41786230  1
  Te2-  Te153  1  0.91539818  0.25248303  0.75086367  1
  Te2-  Te154  1  0.91622963  0.59035611  0.07898618  1
  Te2-  Te155  1  0.92182062  0.58327216  0.41633256  1
  Te2-  Te156  1  0.92120313  0.58291428  0.74481131  1
  Te2-  Te157  1  0.91925877  0.92210462  0.07409063  1
  Te2-  Te158  1  0.91997561  0.91603609  0.41806410  1
  Te2-  Te159  1  0.92314192  0.92248504  0.74043560  1
  Te2-  Te160  1  0.25401833  0.07958708  0.25207138  1
  Te2-  Te161  1  0.26104220  0.07768849  0.58586379  1
  Te2-  Te162  1  0.25359194  0.08215719  0.91039557  1
  Te2-  Te163  1  0.25064777  0.41011217  0.24912663  1
  Te2-  Te164  1  0.25445397  0.41452031  0.58550035  1
  Te2-  Te165  1  0.24845841  0.41287460  0.92205225  1
  Te2-  Te166  1  0.24793613  0.74151015  0.25011489  1
  Te2-  Te167  1  0.25769834  0.74744610  0.58904350  1
  Te2-  Te168  1  0.25183253  0.75090629  0.92205224  1
  Te2-  Te169  1  0.58730150  0.08503657  0.25848147  1
  Te2-  Te170  1  0.58735345  0.08484425  0.58319742  1
  Te2-  Te171  1  0.58155774  0.08260271  0.92329741  1
  Te2-  Te172  1  0.58575164  0.41593728  0.25148267  1
  Te2-  Te173  1  0.58276460  0.41457641  0.58296781  1
  Te2-  Te174  1  0.58558173  0.41324160  0.91719311  1
  Te2-  Te175  1  0.58354407  0.74396388  0.25518687  1
  Te2-  Te176  1  0.58806394  0.74646818  0.58581193  1
  Te2-  Te177  1  0.58724901  0.75012081  0.91782855  1
  Te2-  Te178  1  0.91963007  0.08071756  0.26652739  1
  Te2-  Te179  1  0.91976428  0.07691582  0.58629989  1
  Te2-  Te180  1  0.91602934  0.07640161  0.91970193  1
  Te2-  Te181  1  0.92068891  0.41756624  0.25046959  1
  Te2-  Te182  1  0.91871083  0.41095258  0.58703090  1
  Te2-  Te183  1  0.91822905  0.41383608  0.92021948  1
  Te2-  Te184  1  0.92073201  0.75014003  0.25033388  1
  Te2-  Te185  1  0.92187781  0.74292495  0.58474333  1
  Te2-  Te186  1  0.92082820  0.74953027  0.91852850  1
  Te2-  Te187  1  0.08166346  0.24849919  0.24874596  1
  Te2-  Te188  1  0.08379423  0.25272561  0.58923988  1
  Te2-  Te189  1  0.07878833  0.25261827  0.91322750  1
  Te2-  Te190  1  0.08017086  0.58307752  0.25345779  1
  Te2-  Te191  1  0.08187320  0.58659740  0.58404626  1
  Te2-  Te192  1  0.07951639  0.58724961  0.91857144  1
  Te2-  Te193  1  0.07628291  0.91965887  0.26524263  1
  Te2-  Te194  1  0.08093980  0.91728478  0.58424811  1
  Te2-  Te195  1  0.07658268  0.91898827  0.91864790  1
  Te2-  Te196  1  0.41007919  0.25430493  0.24921717  1
  Te2-  Te197  1  0.41391346  0.25880643  0.58527170  1
  Te2-  Te198  1  0.40754007  0.24959945  0.92300140  1
  Te2-  Te199  1  0.41281610  0.58520775  0.24997115  1
  Te2-  Te200  1  0.41245128  0.58761996  0.58905103  1
  Te2-  Te201  1  0.41551577  0.58753915  0.91826362  1
  Te2-  Te202  1  0.41145720  0.92301260  0.25430629  1
  Te2-  Te203  1  0.41652050  0.92085147  0.58914764  1
  Te2-  Te204  1  0.41822694  0.92057647  0.92000079  1
  Te2-  Te205  1  0.74788850  0.25638811  0.25439528  1
  Te2-  Te206  1  0.74904030  0.25388804  0.58889628  1
  Te2-  Te207  1  0.74463452  0.24865469  0.92059091  1
  Te2-  Te208  1  0.74619999  0.58565427  0.25299404  1
  Te2-  Te209  1  0.74753153  0.58225083  0.58587709  1
  Te2-  Te210  1  0.74876224  0.58700117  0.91625809  1
  Te2-  Te211  1  0.74929206  0.92445242  0.25501894  1
  Te2-  Te212  1  0.74830815  0.91674425  0.58434909  1
  Te2-  Te213  1  0.74940053  0.92138522  0.91774783  1
  Te2-  Te214  1  0.07648717  0.07612855  0.07330947  1
  Te2-  Te215  1  0.08268979  0.08024170  0.41780431  1
  Te2-  Te216  1  0.07515466  0.07771343  0.73844155  1
  Te2-  Te217  1  0.07911914  0.41091944  0.07961793  1
  Te2-  Te218  1  0.08179809  0.41308425  0.41096660  1
  Te2-  Te219  1  0.07866125  0.41449420  0.74904970  1
  Te2-  Te220  1  0.07434815  0.74814049  0.08226221  1
  Te2-  Te221  1  0.08864356  0.74620884  0.41666399  1
  Te2-  Te222  1  0.08434488  0.74272934  0.74602364  1
  Te2-  Te223  1  0.41660936  0.07785669  0.08318216  1
  Te2-  Te224  1  0.41409265  0.08233571  0.41048454  1
  Te2-  Te225  1  0.41213297  0.07471709  0.74628142  1
  Te2-  Te226  1  0.41230713  0.41141030  0.08227519  1
  Te2-  Te227  1  0.40943926  0.41931251  0.41114980  1
  Te2-  Te228  1  0.41077345  0.41671072  0.74352069  1
  Te2-  Te229  1  0.41369301  0.75177264  0.08381976  1
  Te2-  Te230  1  0.41957147  0.75045215  0.40967185  1
  Te2-  Te231  1  0.41426341  0.74748877  0.75043934  1
  Te2-  Te232  1  0.74861005  0.08000672  0.08854758  1
  Te2-  Te233  1  0.74785447  0.08013494  0.41770492  1
  Te2-  Te234  1  0.74184917  0.08036926  0.74327907  1
  Te2-  Te235  1  0.74908623  0.41598864  0.08127723  1
  Te2-  Te236  1  0.74690698  0.41682585  0.41242261  1
  Te2-  Te237  1  0.74790431  0.41256162  0.74911586  1
  Te2-  Te238  1  0.74664711  0.75247095  0.07944247  1
  Te2-  Te239  1  0.74760889  0.74261943  0.41548614  1
  Te2-  Te240  1  0.74791840  0.74686657  0.74856189  1
