# generated using pymatgen
data_Ti27(Cu53Te54)2
_symmetry_space_group_name_H-M   'P 1'
_cell_length_a   17.91421650
_cell_length_b   17.92980916
_cell_length_c   17.92321818
_cell_angle_alpha   90.05376264
_cell_angle_beta   89.94590772
_cell_angle_gamma   90.04742563
_symmetry_Int_Tables_number   1
_chemical_formula_structural   Ti27(Cu53Te54)2
_chemical_formula_sum   'Ti27 Cu106 Te108'
_cell_volume   5756.90342686
_cell_formula_units_Z   1
loop_
 _symmetry_equiv_pos_site_id
 _symmetry_equiv_pos_as_xyz
  1  'x, y, z'
loop_
 _atom_type_symbol
 _atom_type_oxidation_number
  Ti4+  4.0
  Cu+  1.0
  Te2-  -2.0
loop_
 _atom_site_type_symbol
 _atom_site_label
 _atom_site_symmetry_multiplicity
 _atom_site_fract_x
 _atom_site_fract_y
 _atom_site_fract_z
 _atom_site_occupancy
  Ti4+  Ti0  1  0.16360807  0.16571558  0.16766193  1
  Ti4+  Ti1  1  0.16807982  0.16678232  0.49931636  1
  Ti4+  Ti2  1  0.16524159  0.16424761  0.83613853  1
  Ti4+  Ti3  1  0.16625926  0.49879652  0.16856788  1
  Ti4+  Ti4  1  0.16850514  0.49999819  0.50114460  1
  Ti4+  Ti5  1  0.16891277  0.49431404  0.83424378  1
  Ti4+  Ti6  1  0.16506065  0.83351110  0.16702044  1
  Ti4+  Ti7  1  0.16658144  0.83300723  0.49956355  1
  Ti4+  Ti8  1  0.16158133  0.83032712  0.83405328  1
  Ti4+  Ti9  1  0.49665655  0.16793949  0.16097972  1
  Ti4+  Ti10  1  0.50071035  0.16421951  0.49944308  1
  Ti4+  Ti11  1  0.50083259  0.16524459  0.83213383  1
  Ti4+  Ti12  1  0.50115477  0.49750397  0.16763878  1
  Ti4+  Ti13  1  0.50196096  0.49841193  0.49942468  1
  Ti4+  Ti14  1  0.50182753  0.49986912  0.83168893  1
  Ti4+  Ti15  1  0.50315514  0.83532625  0.16521404  1
  Ti4+  Ti16  1  0.50012885  0.83396435  0.49978201  1
  Ti4+  Ti17  1  0.49810692  0.83408602  0.83452587  1
  Ti4+  Ti18  1  0.82707689  0.17159134  0.16513616  1
  Ti4+  Ti19  1  0.83445743  0.16483654  0.50060348  1
  Ti4+  Ti20  1  0.83715104  0.17038303  0.83509376  1
  Ti4+  Ti21  1  0.82861456  0.50332514  0.16551433  1
  Ti4+  Ti22  1  0.83217811  0.50198208  0.50221862  1
  Ti4+  Ti23  1  0.83571247  0.49849468  0.83049823  1
  Ti4+  Ti24  1  0.83447719  0.83377716  0.16648191  1
  Ti4+  Ti25  1  0.83837993  0.83497698  0.49928968  1
  Ti4+  Ti26  1  0.83662159  0.83480100  0.83345215  1
  Cu+  Cu27  1  0.16364861  0.15964286  0.00195448  1
  Cu+  Cu28  1  0.16812532  0.16763460  0.33224648  1
  Cu+  Cu29  1  0.16628098  0.16487105  0.66469531  1
  Cu+  Cu30  1  0.16953728  0.49435541  0.00167739  1
  Cu+  Cu31  1  0.16700355  0.50237350  0.33580148  1
  Cu+  Cu32  1  0.16925770  0.49961102  0.66830908  1
  Cu+  Cu33  1  0.16463305  0.83051554  0.00062493  1
  Cu+  Cu34  1  0.16626996  0.83428657  0.33250142  1
  Cu+  Cu35  1  0.16111956  0.83170837  0.66550757  1
  Cu+  Cu36  1  0.50067901  0.16290248  -0.00381112  1
  Cu+  Cu37  1  0.49847000  0.16477296  0.33064379  1
  Cu+  Cu38  1  0.49907123  0.16486383  0.66505738  1
  Cu+  Cu39  1  0.50205345  0.49825318  -0.00129628  1
  Cu+  Cu40  1  0.49970817  0.49781094  0.33146487  1
  Cu+  Cu41  1  0.50606417  0.49763316  0.66647719  1
  Cu+  Cu42  1  0.49643001  0.83654835  0.00120488  1
  Cu+  Cu43  1  0.50139484  0.83497576  0.33404425  1
  Cu+  Cu44  1  0.49835304  0.83365720  0.66856716  1
  Cu+  Cu45  1  0.83278286  0.17831360  0.00108008  1
  Cu+  Cu46  1  0.82499156  0.17095432  0.33993479  1
  Cu+  Cu47  1  0.83668775  0.16478354  0.66511225  1
  Cu+  Cu48  1  0.83140127  0.50383248  -0.00293094  1
  Cu+  Cu49  1  0.83017859  0.50081350  0.33381090  1
  Cu+  Cu50  1  0.83187381  0.50037702  0.66882715  1
  Cu+  Cu51  1  0.83781163  0.83382753  0.00087075  1
  Cu+  Cu52  1  0.84000823  0.83528206  0.33152457  1
  Cu+  Cu53  1  0.83846695  0.83402039  0.66660731  1
  Cu+  Cu54  1  0.16568703  0.00080281  0.16677800  1
  Cu+  Cu55  1  0.16784715  0.00239330  0.49798544  1
  Cu+  Cu56  1  0.15832249  -0.00207356  0.83611214  1
  Cu+  Cu57  1  0.16510729  0.33207909  0.16763381  1
  Cu+  Cu58  1  0.16993012  0.33424926  0.50121816  1
  Cu+  Cu59  1  0.16729126  0.32900645  0.83249531  1
  Cu+  Cu60  1  0.16823206  0.66509573  0.16867714  1
  Cu+  Cu61  1  0.16555364  0.66473452  0.49894561  1
  Cu+  Cu62  1  0.16651276  0.65948058  0.83514715  1
  Cu+  Cu63  1  0.49849814  0.00060274  0.15677064  1
  Cu+  Cu64  1  0.49917621  -0.00063521  0.49966882  1
  Cu+  Cu65  1  0.49942873  -0.00087581  0.83470468  1
  Cu+  Cu66  1  0.49753761  0.33290901  0.17144832  1
  Cu+  Cu67  1  0.50044291  0.33082423  0.49847236  1
  Cu+  Cu68  1  0.50271944  0.33219263  0.83085470  1
  Cu+  Cu69  1  0.50499279  0.66579660  0.16710167  1
  Cu+  Cu70  1  0.50019114  0.66953415  0.49895375  1
  Cu+  Cu71  1  0.49707478  0.66950639  0.83572946  1
  Cu+  Cu72  1  0.82796465  0.00075990  0.16543513  1
  Cu+  Cu73  1  0.83837743  -0.00040363  0.50076395  1
  Cu+  Cu74  1  0.83687167  0.00364091  0.83686958  1
  Cu+  Cu75  1  0.82246413  0.33767158  0.16308175  1
  Cu+  Cu76  1  0.83299978  0.33176479  0.50148884  1
  Cu+  Cu77  1  0.84475896  0.33329013  0.83539701  1
  Cu+  Cu78  1  0.83044891  0.67140364  0.16555082  1
  Cu+  Cu79  1  0.83505850  0.66757688  0.50099298  1
  Cu+  Cu80  1  0.83571872  0.66851277  0.83008055  1
  Cu+  Cu81  1  -0.00274812  0.16771330  0.16919437  1
  Cu+  Cu82  1  -0.00078913  0.16624030  0.49971399  1
  Cu+  Cu83  1  0.00321042  0.17029504  0.84021680  1
  Cu+  Cu84  1  -0.00302561  0.50141770  0.16657263  1
  Cu+  Cu85  1  0.00103390  0.50280676  0.49784773  1
  Cu+  Cu86  1  0.00220322  0.49407650  0.82988881  1
  Cu+  Cu87  1  -0.00410663  0.83351165  0.16708627  1
  Cu+  Cu88  1  0.00707723  0.83388666  0.49836885  1
  Cu+  Cu89  1  -0.00097930  0.83360494  0.82658996  1
  Cu+  Cu90  1  0.32792674  0.16504506  0.16444794  1
  Cu+  Cu91  1  0.33422495  0.16661828  0.49805861  1
  Cu+  Cu92  1  0.33348349  0.16200537  0.83502097  1
  Cu+  Cu93  1  0.33418904  0.49631342  0.16893433  1
  Cu+  Cu94  1  0.33514018  0.49806487  0.50023724  1
  Cu+  Cu95  1  0.33566447  0.49562574  0.83586515  1
  Cu+  Cu96  1  0.33506767  0.83603869  0.16518274  1
  Cu+  Cu97  1  0.33368812  0.83247353  0.50046000  1
  Cu+  Cu98  1  0.32888601  0.83149998  0.83560412  1
  Cu+  Cu99  1  0.66110981  0.17307076  0.15714644  1
  Cu+  Cu100  1  0.66790162  0.16227627  0.50112979  1
  Cu+  Cu101  1  0.66921976  0.16756385  0.83398899  1
  Cu+  Cu102  1  0.66516546  0.50041162  0.17268088  1
  Cu+  Cu103  1  0.66282940  0.50663211  0.50711318  1
  Cu+  Cu104  1  0.66678967  0.49672840  0.82370398  1
  Cu+  Cu105  1  0.67309154  0.83416693  0.16617770  1
  Cu+  Cu106  1  0.66823626  0.83525620  0.49946128  1
  Cu+  Cu107  1  0.66420256  0.83457748  0.83670278  1
  Cu+  Cu108  1  0.08102308  0.25445118  0.73630946  1
  Cu+  Cu109  1  0.07815738  0.73637917  0.58885201  1
  Cu+  Cu110  1  0.07296042  0.06869523  0.93219923  1
  Cu+  Cu111  1  0.07452908  0.92790589  0.73779993  1
  Cu+  Cu112  1  0.57908502  0.60186297  0.59634342  1
  Cu+  Cu113  1  0.58803488  0.59469959  0.26053911  1
  Cu+  Cu114  1  0.58604000  0.25293906  0.26051810  1
  Cu+  Cu115  1  0.40115807  0.92663107  0.07131702  1
  Cu+  Cu116  1  0.40160347  0.40540508  0.26142679  1
  Cu+  Cu117  1  0.59081956  0.39934341  0.73726328  1
  Cu+  Cu118  1  0.93320296  0.26508360  0.93358619  1
  Cu+  Cu119  1  0.92327493  0.93467386  0.25468765  1
  Cu+  Cu120  1  0.74344963  0.40960153  0.26424545  1
  Cu+  Cu121  1  0.73322049  0.26846050  0.06810132  1
  Cu+  Cu122  1  0.07873978  0.58638121  0.74496631  1
  Cu+  Cu123  1  0.74391524  0.74751163  0.26430899  1
  Cu+  Cu124  1  0.73743098  0.59910683  0.74776089  1
  Cu+  Cu125  1  0.92799714  0.73881788  0.07415265  1
  Cu+  Cu126  1  0.07269585  0.59077467  0.40311715  1
  Cu+  Cu127  1  0.73591141  0.26264199  0.42449982  1
  Cu+  Cu128  1  0.92695142  0.40641192  0.73518168  1
  Cu+  Cu129  1  0.08630008  0.93316575  0.40319158  1
  Cu+  Cu130  1  0.59057786  0.07366137  0.06867425  1
  Cu+  Cu131  1  0.92232828  0.74086783  0.73721274  1
  Cu+  Cu132  1  0.74553651  0.92299339  0.06903232  1
  Te2-  Te133  1  0.24753478  0.24996429  0.07990256  1
  Te2-  Te134  1  0.25248079  0.25228654  0.41441867  1
  Te2-  Te135  1  0.25293470  0.24669229  0.74920820  1
  Te2-  Te136  1  0.25282534  0.58202770  0.08371010  1
  Te2-  Te137  1  0.25533603  0.58568605  0.41700291  1
  Te2-  Te138  1  0.25567522  0.58157680  0.75094281  1
  Te2-  Te139  1  0.24851866  0.91909209  0.07973145  1
  Te2-  Te140  1  0.25310901  0.91791133  0.41435007  1
  Te2-  Te141  1  0.24623229  0.91678431  0.74980182  1
  Te2-  Te142  1  0.57908591  0.25974370  0.07320983  1
  Te2-  Te143  1  0.58723077  0.25249038  0.41266546  1
  Te2-  Te144  1  0.58813463  0.24850285  0.74468107  1
  Te2-  Te145  1  0.58700784  0.58253627  0.08057223  1
  Te2-  Te146  1  0.58592627  0.58693414  0.41289080  1
  Te2-  Te147  1  0.58599982  0.59426323  0.74670344  1
  Te2-  Te148  1  0.59188550  0.91923390  0.07630765  1
  Te2-  Te149  1  0.58612611  0.91969650  0.41517549  1
  Te2-  Te150  1  0.58471772  0.91842291  0.74923305  1
  Te2-  Te151  1  0.91937435  0.25858420  0.08695093  1
  Te2-  Te152  1  0.91927865  0.25274068  0.41446705  1
  Te2-  Te153  1  0.92471568  0.25190786  0.74235843  1
  Te2-  Te154  1  0.91694163  0.58686759  0.07985467  1
  Te2-  Te155  1  0.91645790  0.58604414  0.41308471  1
  Te2-  Te156  1  0.92377780  0.58654227  0.74373440  1
  Te2-  Te157  1  0.92031168  0.92439901  0.08097568  1
  Te2-  Te158  1  0.92523608  0.92182483  0.41326474  1
  Te2-  Te159  1  0.91925530  0.92544926  0.74666290  1
  Te2-  Te160  1  0.25079361  0.08033783  0.25202156  1
  Te2-  Te161  1  0.25274727  0.08114337  0.58439747  1
  Te2-  Te162  1  0.25041535  0.07641193  0.91880171  1
  Te2-  Te163  1  0.24988264  0.41216666  0.25606258  1
  Te2-  Te164  1  0.25386032  0.41529349  0.58660970  1
  Te2-  Te165  1  0.25369745  0.40888800  0.91888582  1
  Te2-  Te166  1  0.25281678  0.75089458  0.25076256  1
  Te2-  Te167  1  0.25124896  0.74791477  0.58596450  1
  Te2-  Te168  1  0.24752297  0.74518677  0.91833052  1
  Te2-  Te169  1  0.58444081  0.08237410  0.24475624  1
  Te2-  Te170  1  0.58505970  0.07941754  0.58526634  1
  Te2-  Te171  1  0.58939759  0.07853557  0.91628011  1
  Te2-  Te172  1  0.58908347  0.40900945  0.25752228  1
  Te2-  Te173  1  0.58852081  0.40867938  0.58379270  1
  Te2-  Te174  1  0.58836942  0.41506018  0.91612788  1
  Te2-  Te175  1  0.58909127  0.74961008  0.25475471  1
  Te2-  Te176  1  0.58762541  0.75121839  0.58751641  1
  Te2-  Te177  1  0.58290208  0.74962707  0.92144552  1
  Te2-  Te178  1  0.91067564  0.08718903  0.25329048  1
  Te2-  Te179  1  0.92192751  0.08059296  0.58564948  1
  Te2-  Te180  1  0.91841866  0.08432093  0.92532006  1
  Te2-  Te181  1  0.91282993  0.41566133  0.24926729  1
  Te2-  Te182  1  0.91965552  0.41521153  0.58317445  1
  Te2-  Te183  1  0.92230472  0.41824408  0.92465050  1
  Te2-  Te184  1  0.92055055  0.74366288  0.25294744  1
  Te2-  Te185  1  0.92394639  0.74571196  0.58469922  1
  Te2-  Te186  1  0.92227427  0.74709549  0.91861173  1
  Te2-  Te187  1  0.07993604  0.25199825  0.25361413  1
  Te2-  Te188  1  0.08047936  0.25347770  0.58316888  1
  Te2-  Te189  1  0.08461907  0.25593983  0.92649089  1
  Te2-  Te190  1  0.07895808  0.58629728  0.25222866  1
  Te2-  Te191  1  0.07865310  0.58459434  0.59011817  1
  Te2-  Te192  1  0.08181579  0.57769328  0.92033446  1
  Te2-  Te193  1  0.07783296  0.92226530  0.25220168  1
  Te2-  Te194  1  0.08065303  0.92398496  0.58550475  1
  Te2-  Te195  1  0.07457167  0.91429555  0.92340314  1
  Te2-  Te196  1  0.40852817  0.24945043  0.25213201  1
  Te2-  Te197  1  0.41568626  0.25031330  0.58369578  1
  Te2-  Te198  1  0.41611317  0.25114015  0.91626070  1
  Te2-  Te199  1  0.41556529  0.58622908  0.25155506  1
  Te2-  Te200  1  0.41721070  0.58335729  0.58526459  1
  Te2-  Te201  1  0.41636423  0.58263548  0.91863998  1
  Te2-  Te202  1  0.41882117  0.92093464  0.25036609  1
  Te2-  Te203  1  0.41434788  0.91809545  0.58538093  1
  Te2-  Te204  1  0.40960937  0.92059038  0.91867377  1
  Te2-  Te205  1  0.74030243  0.25532740  0.25624896  1
  Te2-  Te206  1  0.74775758  0.24991041  0.58795169  1
  Te2-  Te207  1  0.74655804  0.25894738  0.91550821  1
  Te2-  Te208  1  0.74545153  0.59164943  0.25604006  1
  Te2-  Te209  1  0.74796549  0.59063054  0.58980854  1
  Te2-  Te210  1  0.74716968  0.58567365  0.91219276  1
  Te2-  Te211  1  0.74775570  0.92017996  0.25669048  1
  Te2-  Te212  1  0.75300472  0.91749809  0.58481920  1
  Te2-  Te213  1  0.74970805  0.92049895  0.91759786  1
  Te2-  Te214  1  0.07455719  0.07787398  0.08470079  1
  Te2-  Te215  1  0.08010091  0.08381611  0.41160260  1
  Te2-  Te216  1  0.07680994  0.08181986  0.74654949  1
  Te2-  Te217  1  0.08004383  0.41476586  0.08417457  1
  Te2-  Te218  1  0.08272707  0.41425651  0.41631460  1
  Te2-  Te219  1  0.08222000  0.40769722  0.74233117  1
  Te2-  Te220  1  0.08086211  0.74541786  0.08309161  1
  Te2-  Te221  1  0.08091331  0.74464265  0.41003886  1
  Te2-  Te222  1  0.07758719  0.73902621  0.74517642  1
  Te2-  Te223  1  0.40788520  0.08230105  0.07568750  1
  Te2-  Te224  1  0.41549937  0.08073060  0.41300348  1
  Te2-  Te225  1  0.41546225  0.07976795  0.74828891  1
  Te2-  Te226  1  0.41607204  0.41326224  0.08055745  1
  Te2-  Te227  1  0.41453023  0.41212645  0.41441313  1
  Te2-  Te228  1  0.41643243  0.41435961  0.74631810  1
  Te2-  Te229  1  0.41786491  0.74604317  0.08425124  1
  Te2-  Te230  1  0.41481574  0.74863427  0.41337096  1
  Te2-  Te231  1  0.41200117  0.74925358  0.74937544  1
  Te2-  Te232  1  0.74632609  0.08279558  0.07489867  1
  Te2-  Te233  1  0.74856308  0.07562951  0.41691570  1
  Te2-  Te234  1  0.75285850  0.08372019  0.75062386  1
  Te2-  Te235  1  0.74105844  0.42150415  0.07495347  1
  Te2-  Te236  1  0.74257981  0.41683963  0.41851878  1
  Te2-  Te237  1  0.75158841  0.40614368  0.74615234  1
  Te2-  Te238  1  0.74706624  0.74817833  0.07571780  1
  Te2-  Te239  1  0.75073994  0.74960261  0.41589243  1
  Te2-  Te240  1  0.74654638  0.75273616  0.74754149  1
