# generated using pymatgen
data_Ti27(Cu53Te54)2
_symmetry_space_group_name_H-M   'P 1'
_cell_length_a   17.89275121
_cell_length_b   17.89727574
_cell_length_c   17.88939025
_cell_angle_alpha   89.96300765
_cell_angle_beta   89.99735259
_cell_angle_gamma   89.98620930
_symmetry_Int_Tables_number   1
_chemical_formula_structural   Ti27(Cu53Te54)2
_chemical_formula_sum   'Ti27 Cu106 Te108'
_cell_volume   5728.74494705
_cell_formula_units_Z   1
loop_
 _symmetry_equiv_pos_site_id
 _symmetry_equiv_pos_as_xyz
  1  'x, y, z'
loop_
 _atom_type_symbol
 _atom_type_oxidation_number
  Ti4+  4.0
  Cu+  1.0
  Te2-  -2.0
loop_
 _atom_site_type_symbol
 _atom_site_label
 _atom_site_symmetry_multiplicity
 _atom_site_fract_x
 _atom_site_fract_y
 _atom_site_fract_z
 _atom_site_occupancy
  Ti4+  Ti0  1  0.16476498  0.16627091  0.16801847  1
  Ti4+  Ti1  1  0.16654862  0.16447529  0.49968919  1
  Ti4+  Ti2  1  0.16946593  0.16988678  0.83163532  1
  Ti4+  Ti3  1  0.16661889  0.49814376  0.16706512  1
  Ti4+  Ti4  1  0.17045162  0.50038237  0.49780879  1
  Ti4+  Ti5  1  0.16525652  0.50097706  0.83152979  1
  Ti4+  Ti6  1  0.16656684  0.83221675  0.16565790  1
  Ti4+  Ti7  1  0.16563091  0.82957503  0.49954879  1
  Ti4+  Ti8  1  0.16580697  0.83567665  0.83390656  1
  Ti4+  Ti9  1  0.49631863  0.16710626  0.16524509  1
  Ti4+  Ti10  1  0.50187417  0.16700837  0.50059678  1
  Ti4+  Ti11  1  0.50318369  0.16732835  0.82948085  1
  Ti4+  Ti12  1  0.50064667  0.50067498  0.16768251  1
  Ti4+  Ti13  1  0.50123750  0.50191062  0.50334108  1
  Ti4+  Ti14  1  0.49777294  0.49923799  0.83634526  1
  Ti4+  Ti15  1  0.50178734  0.83193025  0.16835453  1
  Ti4+  Ti16  1  0.49826953  0.83599305  0.49933896  1
  Ti4+  Ti17  1  0.49747904  0.83285925  0.83375845  1
  Ti4+  Ti18  1  0.82737393  0.16959238  0.16599612  1
  Ti4+  Ti19  1  0.83330146  0.16534575  0.49887056  1
  Ti4+  Ti20  1  0.83335849  0.16264719  0.83216617  1
  Ti4+  Ti21  1  0.83807665  0.49987360  0.16665215  1
  Ti4+  Ti22  1  0.83326625  0.50119391  0.49983243  1
  Ti4+  Ti23  1  0.83117538  0.49715231  0.83473633  1
  Ti4+  Ti24  1  0.83429757  0.83613834  0.16653155  1
  Ti4+  Ti25  1  0.83200179  0.83318069  0.50011222  1
  Ti4+  Ti26  1  0.83148631  0.82983453  0.83388391  1
  Cu+  Cu27  1  0.16582342  0.16975873  -0.00095204  1
  Cu+  Cu28  1  0.16558818  0.16124798  0.33614356  1
  Cu+  Cu29  1  0.17081850  0.17293382  0.66350302  1
  Cu+  Cu30  1  0.16437646  0.50047727  0.00009053  1
  Cu+  Cu31  1  0.16653121  0.50331707  0.33279139  1
  Cu+  Cu32  1  0.17069423  0.49619521  0.66623637  1
  Cu+  Cu33  1  0.16837028  0.83554179  -0.00149705  1
  Cu+  Cu34  1  0.16499767  0.82863319  0.33171373  1
  Cu+  Cu35  1  0.16691672  0.83370656  0.66795407  1
  Cu+  Cu36  1  0.49884896  0.16633409  -0.00247675  1
  Cu+  Cu37  1  0.49881869  0.16680231  0.33271509  1
  Cu+  Cu38  1  0.50721208  0.16387051  0.66480008  1
  Cu+  Cu39  1  0.49869353  0.50293744  0.00146100  1
  Cu+  Cu40  1  0.50033308  0.49992653  0.33509473  1
  Cu+  Cu41  1  0.49915898  0.50170294  0.67423110  1
  Cu+  Cu42  1  0.49770418  0.83561167  0.00403950  1
  Cu+  Cu43  1  0.50499112  0.83018666  0.33499079  1
  Cu+  Cu44  1  0.49438017  0.83204857  0.66313251  1
  Cu+  Cu45  1  0.83147340  0.16210047  0.00185011  1
  Cu+  Cu46  1  0.82836857  0.17228150  0.33196308  1
  Cu+  Cu47  1  0.83356486  0.16380951  0.66594744  1
  Cu+  Cu48  1  0.83723135  0.49939408  -0.00233005  1
  Cu+  Cu49  1  0.83508663  0.50041763  0.33336027  1
  Cu+  Cu50  1  0.83083216  0.49786671  0.66535409  1
  Cu+  Cu51  1  0.83591146  0.83378370  0.00023967  1
  Cu+  Cu52  1  0.83221018  0.83740485  0.33255895  1
  Cu+  Cu53  1  0.82897437  0.82889561  0.66636651  1
  Cu+  Cu54  1  0.16402965  -0.00150535  0.16699893  1
  Cu+  Cu55  1  0.16849160  -0.00610802  0.50046226  1
  Cu+  Cu56  1  0.16623496  0.00680153  0.83300663  1
  Cu+  Cu57  1  0.16328925  0.33287721  0.17002391  1
  Cu+  Cu58  1  0.17032038  0.32945804  0.50033523  1
  Cu+  Cu59  1  0.16880335  0.33722641  0.82868231  1
  Cu+  Cu60  1  0.16758423  0.66450031  0.16626401  1
  Cu+  Cu61  1  0.16559937  0.66360028  0.49588562  1
  Cu+  Cu62  1  0.16448971  0.67215554  0.83308205  1
  Cu+  Cu63  1  0.49608775  -0.00419043  0.16460466  1
  Cu+  Cu64  1  0.49801007  0.00719339  0.49933064  1
  Cu+  Cu65  1  0.50103995  0.00113598  0.83105305  1
  Cu+  Cu66  1  0.49807375  0.33477499  0.16802570  1
  Cu+  Cu67  1  0.50551643  0.33112450  0.50699771  1
  Cu+  Cu68  1  0.50504137  0.33567660  0.82825754  1
  Cu+  Cu69  1  0.50336675  0.66832928  0.16828942  1
  Cu+  Cu70  1  0.49754995  0.67031243  0.49958640  1
  Cu+  Cu71  1  0.49621829  0.66357128  0.83676877  1
  Cu+  Cu72  1  0.83080295  0.00568291  0.16307156  1
  Cu+  Cu73  1  0.83019274  -0.00222611  0.50082520  1
  Cu+  Cu74  1  0.83281758  -0.00736388  0.83566357  1
  Cu+  Cu75  1  0.83552318  0.33182643  0.17029665  1
  Cu+  Cu76  1  0.83353048  0.33716843  0.49753097  1
  Cu+  Cu77  1  0.83107832  0.32757695  0.83319019  1
  Cu+  Cu78  1  0.83672925  0.66998005  0.16491748  1
  Cu+  Cu79  1  0.83225868  0.66746522  0.50019245  1
  Cu+  Cu80  1  0.83110548  0.66185560  0.83567256  1
  Cu+  Cu81  1  -0.00660483  0.17201652  0.16719308  1
  Cu+  Cu82  1  0.00073507  0.16273411  0.49823398  1
  Cu+  Cu83  1  0.00406362  0.16598483  0.83368251  1
  Cu+  Cu84  1  0.00811680  0.49641297  0.16690507  1
  Cu+  Cu85  1  -0.00035340  0.50085739  0.49801207  1
  Cu+  Cu86  1  -0.00257062  0.49752689  0.83351250  1
  Cu+  Cu87  1  -0.00122090  0.83110953  0.16412733  1
  Cu+  Cu88  1  -0.00275872  0.83054476  0.49916135  1
  Cu+  Cu89  1  -0.00108437  0.83708466  0.83529115  1
  Cu+  Cu90  1  0.33002310  0.16621827  0.16695831  1
  Cu+  Cu91  1  0.33317226  0.16768538  0.50375510  1
  Cu+  Cu92  1  0.33891954  0.16862546  0.83344358  1
  Cu+  Cu93  1  0.33100931  0.50021342  0.17159909  1
  Cu+  Cu94  1  0.34167044  0.50296058  0.49626064  1
  Cu+  Cu95  1  0.32940083  0.50001995  0.83055451  1
  Cu+  Cu96  1  0.33632338  0.83275009  0.16657734  1
  Cu+  Cu97  1  0.32846583  0.83377306  0.50611638  1
  Cu+  Cu98  1  0.33013077  0.83536037  0.83287334  1
  Cu+  Cu99  1  0.66244445  0.16912472  0.16640956  1
  Cu+  Cu100  1  0.66749035  0.16742078  0.49761094  1
  Cu+  Cu101  1  0.66848441  0.16131919  0.82739738  1
  Cu+  Cu102  1  0.67038745  0.49877558  0.16614969  1
  Cu+  Cu103  1  0.67021202  0.50158422  0.50159067  1
  Cu+  Cu104  1  0.66376077  0.49711081  0.83871269  1
  Cu+  Cu105  1  0.66856832  0.83520805  0.16901263  1
  Cu+  Cu106  1  0.66579810  0.83542540  0.49549573  1
  Cu+  Cu107  1  0.66573499  0.82861816  0.83321118  1
  Cu+  Cu108  1  0.40259938  0.73964715  0.58974489  1
  Cu+  Cu109  1  0.25353018  0.92458143  0.59728707  1
  Cu+  Cu110  1  0.92274109  0.25820380  0.26398252  1
  Cu+  Cu111  1  0.06909137  0.59256624  0.40816200  1
  Cu+  Cu112  1  0.59706600  0.73820547  0.41047293  1
  Cu+  Cu113  1  0.60168014  0.25882359  0.59000215  1
  Cu+  Cu114  1  0.59850323  0.06465425  0.74098999  1
  Cu+  Cu115  1  0.26042680  0.59547113  0.25717507  1
  Cu+  Cu116  1  0.40047612  0.59609961  0.74926227  1
  Cu+  Cu117  1  0.92759867  0.58920629  0.91945595  1
  Cu+  Cu118  1  0.92479003  0.74122166  0.07405173  1
  Cu+  Cu119  1  0.26258547  0.26278162  0.58885982  1
  Cu+  Cu120  1  0.40397171  0.92365385  0.07568047  1
  Cu+  Cu121  1  0.59667992  0.41420136  0.74210519  1
  Cu+  Cu122  1  0.59569083  0.08120992  0.39996876  1
  Cu+  Cu123  1  0.08094484  0.40427760  0.26619469  1
  Cu+  Cu124  1  0.26029997  0.40749251  0.73838809  1
  Cu+  Cu125  1  0.41231399  0.07586905  0.92474125  1
  Cu+  Cu126  1  0.92523926  0.92442820  0.92633135  1
  Cu+  Cu127  1  0.59067401  0.59402906  0.92884441  1
  Cu+  Cu128  1  0.41621816  0.59704423  0.40416785  1
  Cu+  Cu129  1  0.07768534  0.07919279  0.92664924  1
  Cu+  Cu130  1  0.92573508  0.07998207  0.08044047  1
  Cu+  Cu131  1  0.08209561  0.59457947  0.07074367  1
  Cu+  Cu132  1  0.40628810  0.07942627  0.59337885  1
  Te2-  Te133  1  0.24890090  0.25305914  0.08390508  1
  Te2-  Te134  1  0.25347556  0.24853097  0.41271531  1
  Te2-  Te135  1  0.25939716  0.25507681  0.74550054  1
  Te2-  Te136  1  0.25330537  0.58385782  0.07984032  1
  Te2-  Te137  1  0.25886193  0.58856624  0.41185652  1
  Te2-  Te138  1  0.24857041  0.59132404  0.74565667  1
  Te2-  Te139  1  0.25160802  0.92016153  0.08132674  1
  Te2-  Te140  1  0.25114912  0.91374078  0.41180080  1
  Te2-  Te141  1  0.25207944  0.92340063  0.74914167  1
  Te2-  Te142  1  0.58082056  0.25258190  0.08053606  1
  Te2-  Te143  1  0.58541929  0.25391710  0.41250559  1
  Te2-  Te144  1  0.59265966  0.25528352  0.74372624  1
  Te2-  Te145  1  0.58837588  0.58657636  0.08291019  1
  Te2-  Te146  1  0.58758498  0.58609216  0.41569292  1
  Te2-  Te147  1  0.58734401  0.58680972  0.75192200  1
  Te2-  Te148  1  0.58765909  0.91824322  0.08221995  1
  Te2-  Te149  1  0.58374593  0.92445924  0.41404903  1
  Te2-  Te150  1  0.58479010  0.91366817  0.74558387  1
  Te2-  Te151  1  0.91498511  0.25411101  0.07673553  1
  Te2-  Te152  1  0.92010735  0.25287665  0.41598419  1
  Te2-  Te153  1  0.91880861  0.24823121  0.74848653  1
  Te2-  Te154  1  0.92602696  0.58678463  0.07836709  1
  Te2-  Te155  1  0.91792241  0.58858975  0.41269487  1
  Te2-  Te156  1  0.91605140  0.58255734  0.74747341  1
  Te2-  Te157  1  0.92284259  0.92465067  0.07986891  1
  Te2-  Te158  1  0.91802698  0.91905195  0.41558000  1
  Te2-  Te159  1  0.91547053  0.91465405  0.74563545  1
  Te2-  Te160  1  0.24955783  0.07950385  0.25115666  1
  Te2-  Te161  1  0.25281472  0.07679550  0.58929080  1
  Te2-  Te162  1  0.25548654  0.08409678  0.91963071  1
  Te2-  Te163  1  0.25136302  0.41166377  0.25542835  1
  Te2-  Te164  1  0.26009167  0.41493360  0.58283863  1
  Te2-  Te165  1  0.25046161  0.41680106  0.91963250  1
  Te2-  Te166  1  0.25402326  0.74774867  0.25131678  1
  Te2-  Te167  1  0.24901441  0.74093593  0.58864299  1
  Te2-  Te168  1  0.25193336  0.74924126  0.91860936  1
  Te2-  Te169  1  0.58295037  0.07923124  0.24872990  1
  Te2-  Te170  1  0.59280774  0.07646146  0.58576391  1
  Te2-  Te171  1  0.58690904  0.08101158  0.91786260  1
  Te2-  Te172  1  0.58609538  0.41609820  0.25223769  1
  Te2-  Te173  1  0.59005925  0.41705545  0.58958559  1
  Te2-  Te174  1  0.58244992  0.41195048  0.92411476  1
  Te2-  Te175  1  0.59118319  0.74572691  0.25362395  1
  Te2-  Te176  1  0.58580765  0.75032280  0.58411493  1
  Te2-  Te177  1  0.58168756  0.74853636  0.92132518  1
  Te2-  Te178  1  0.91456831  0.08345110  0.25323714  1
  Te2-  Te179  1  0.91787592  0.07928425  0.58352669  1
  Te2-  Te180  1  0.92200843  0.07738601  0.92113619  1
  Te2-  Te181  1  0.92336066  0.41386476  0.25591358  1
  Te2-  Te182  1  0.91938990  0.41550094  0.58458646  1
  Te2-  Te183  1  0.91787148  0.40876983  0.91709687  1
  Te2-  Te184  1  0.91847968  0.75055508  0.25409041  1
  Te2-  Te185  1  0.91712166  0.74709611  0.58569075  1
  Te2-  Te186  1  0.92248103  0.74334215  0.92005455  1
  Te2-  Te187  1  0.07833793  0.25030605  0.25834848  1
  Te2-  Te188  1  0.07924208  0.25138289  0.58283540  1
  Te2-  Te189  1  0.08362764  0.25678225  0.91560500  1
  Te2-  Te190  1  0.07785863  0.58978238  0.25407620  1
  Te2-  Te191  1  0.08473221  0.58164010  0.58547070  1
  Te2-  Te192  1  0.07964598  0.58909176  0.91765718  1
  Te2-  Te193  1  0.08005735  0.91537219  0.25102072  1
  Te2-  Te194  1  0.07925358  0.91489771  0.58430310  1
  Te2-  Te195  1  0.08114422  0.92360142  0.92211226  1
  Te2-  Te196  1  0.41265277  0.25135061  0.25178270  1
  Te2-  Te197  1  0.41598328  0.25354435  0.59053446  1
  Te2-  Te198  1  0.41964958  0.25645015  0.91500991  1
  Te2-  Te199  1  0.41481184  0.58992976  0.25388411  1
  Te2-  Te200  1  0.41343756  0.58745053  0.59196541  1
  Te2-  Te201  1  0.40757281  0.58392533  0.92085420  1
  Te2-  Te202  1  0.41578865  0.91580269  0.25625389  1
  Te2-  Te203  1  0.41139473  0.92458661  0.58754575  1
  Te2-  Te204  1  0.41170246  0.92087780  0.91868723  1
  Te2-  Te205  1  0.74105472  0.25618629  0.25171087  1
  Te2-  Te206  1  0.75137660  0.25368665  0.58535755  1
  Te2-  Te207  1  0.74691304  0.24521978  0.91721485  1
  Te2-  Te208  1  0.75278420  0.58578844  0.24878754  1
  Te2-  Te209  1  0.74848900  0.58716090  0.58665201  1
  Te2-  Te210  1  0.74486361  0.58401312  0.92295047  1
  Te2-  Te211  1  0.74946543  0.92301646  0.25040025  1
  Te2-  Te212  1  0.74501150  0.91660668  0.58596852  1
  Te2-  Te213  1  0.74442976  0.91437935  0.91996388  1
  Te2-  Te214  1  0.07855394  0.08067824  0.08104042  1
  Te2-  Te215  1  0.08234666  0.07555469  0.41697369  1
  Te2-  Te216  1  0.08471636  0.08602527  0.74292440  1
  Te2-  Te217  1  0.08251893  0.41046206  0.07820717  1
  Te2-  Te218  1  0.08305847  0.41105636  0.41702694  1
  Te2-  Te219  1  0.07875425  0.41592897  0.74580220  1
  Te2-  Te220  1  0.08141558  0.74723101  0.07603238  1
  Te2-  Te221  1  0.07780441  0.74584291  0.41238045  1
  Te2-  Te222  1  0.07882503  0.75184756  0.74875307  1
  Te2-  Te223  1  0.40920386  0.07975821  0.07891106  1
  Te2-  Te224  1  0.41088307  0.08488623  0.41402753  1
  Te2-  Te225  1  0.41367880  0.08086555  0.74484615  1
  Te2-  Te226  1  0.41305848  0.41790379  0.08405785  1
  Te2-  Te227  1  0.42153485  0.41032356  0.41855390  1
  Te2-  Te228  1  0.41197560  0.41131891  0.74656491  1
  Te2-  Te229  1  0.41562630  0.74508131  0.08229745  1
  Te2-  Te230  1  0.40876062  0.75162498  0.41333115  1
  Te2-  Te231  1  0.40954998  0.74773485  0.74779726  1
  Te2-  Te232  1  0.74024076  0.08239854  0.08064079  1
  Te2-  Te233  1  0.74830689  0.07997359  0.41136522  1
  Te2-  Te234  1  0.75133279  0.07341225  0.74512804  1
  Te2-  Te235  1  0.75370829  0.41472810  0.08236589  1
  Te2-  Te236  1  0.74719459  0.41663407  0.41279859  1
  Te2-  Te237  1  0.74700592  0.41109550  0.74791402  1
  Te2-  Te238  1  0.74813925  0.75020026  0.08144615  1
  Te2-  Te239  1  0.74859695  0.74732498  0.41086450  1
  Te2-  Te240  1  0.74695979  0.74300878  0.74966561  1
