# generated using pymatgen
data_Ti27(Cu53Te54)2
_symmetry_space_group_name_H-M   'P 1'
_cell_length_a   17.87348557
_cell_length_b   17.87357016
_cell_length_c   17.87503979
_cell_angle_alpha   90.00965762
_cell_angle_beta   90.03300289
_cell_angle_gamma   89.99830710
_symmetry_Int_Tables_number   1
_chemical_formula_structural   Ti27(Cu53Te54)2
_chemical_formula_sum   'Ti27 Cu106 Te108'
_cell_volume   5710.41277250
_cell_formula_units_Z   1
loop_
 _symmetry_equiv_pos_site_id
 _symmetry_equiv_pos_as_xyz
  1  'x, y, z'
loop_
 _atom_type_symbol
 _atom_type_oxidation_number
  Ti4+  4.0
  Cu+  1.0
  Te2-  -2.0
loop_
 _atom_site_type_symbol
 _atom_site_label
 _atom_site_symmetry_multiplicity
 _atom_site_fract_x
 _atom_site_fract_y
 _atom_site_fract_z
 _atom_site_occupancy
  Ti4+  Ti0  1  0.16551447  0.16617710  0.16546565  1
  Ti4+  Ti1  1  0.16671574  0.16747961  0.49563116  1
  Ti4+  Ti2  1  0.16780472  0.16728129  0.83314857  1
  Ti4+  Ti3  1  0.16555406  0.50095312  0.16678222  1
  Ti4+  Ti4  1  0.16779276  0.49963033  0.49832976  1
  Ti4+  Ti5  1  0.16493977  0.50204214  0.83318820  1
  Ti4+  Ti6  1  0.16729436  0.83280222  0.16789851  1
  Ti4+  Ti7  1  0.16748486  0.83533145  0.50042072  1
  Ti4+  Ti8  1  0.16920448  0.83252092  0.83616310  1
  Ti4+  Ti9  1  0.49693848  0.16792071  0.16630576  1
  Ti4+  Ti10  1  0.49866174  0.16637161  0.50126987  1
  Ti4+  Ti11  1  0.50172153  0.16534238  0.83328243  1
  Ti4+  Ti12  1  0.49949654  0.50125320  0.16879791  1
  Ti4+  Ti13  1  0.50062379  0.49695605  0.50275949  1
  Ti4+  Ti14  1  0.49794661  0.49780825  0.83431406  1
  Ti4+  Ti15  1  0.49759453  0.83376125  0.16473536  1
  Ti4+  Ti16  1  0.50333214  0.83500799  0.50006671  1
  Ti4+  Ti17  1  0.49940624  0.82955267  0.83454205  1
  Ti4+  Ti18  1  0.83194139  0.16727812  0.16413501  1
  Ti4+  Ti19  1  0.83611051  0.16644623  0.50100033  1
  Ti4+  Ti20  1  0.82915297  0.17181378  0.83269912  1
  Ti4+  Ti21  1  0.83280948  0.50012194  0.16767914  1
  Ti4+  Ti22  1  0.83561339  0.49867432  0.50246340  1
  Ti4+  Ti23  1  0.83538097  0.50045070  0.83602606  1
  Ti4+  Ti24  1  0.83233261  0.83163559  0.16328901  1
  Ti4+  Ti25  1  0.83322152  0.83375791  0.49648125  1
  Ti4+  Ti26  1  0.83429594  0.83498263  0.83099705  1
  Cu+  Cu27  1  0.16624816  0.16466692  0.00071951  1
  Cu+  Cu28  1  0.16730398  0.16763512  0.32907770  1
  Cu+  Cu29  1  0.16803110  0.16833709  0.66440110  1
  Cu+  Cu30  1  0.15995943  0.50451413  -0.00081180  1
  Cu+  Cu31  1  0.16957131  0.50341545  0.33080697  1
  Cu+  Cu32  1  0.16526702  0.50086616  0.66500833  1
  Cu+  Cu33  1  0.17055115  0.83040366  0.00309942  1
  Cu+  Cu34  1  0.16421667  0.83646006  0.33487670  1
  Cu+  Cu35  1  0.17262553  0.83338114  0.67209284  1
  Cu+  Cu36  1  0.50311667  0.16444896  0.00113634  1
  Cu+  Cu37  1  0.49584525  0.16935113  0.33322426  1
  Cu+  Cu38  1  0.50512127  0.16804131  0.66611522  1
  Cu+  Cu39  1  0.49810061  0.50094484  0.00336995  1
  Cu+  Cu40  1  0.50140013  0.50041105  0.33337049  1
  Cu+  Cu41  1  0.49706784  0.49461691  0.66896693  1
  Cu+  Cu42  1  0.49575902  0.83021899  0.00114100  1
  Cu+  Cu43  1  0.49862358  0.84003536  0.33560620  1
  Cu+  Cu44  1  0.50005116  0.82920315  0.66423875  1
  Cu+  Cu45  1  0.83012589  0.17180933  -0.00480924  1
  Cu+  Cu46  1  0.83290231  0.16723084  0.33181308  1
  Cu+  Cu47  1  0.83770405  0.16701183  0.67110371  1
  Cu+  Cu48  1  0.83243434  0.49466792  0.00170698  1
  Cu+  Cu49  1  0.83443644  0.50015380  0.33934464  1
  Cu+  Cu50  1  0.83541895  0.49919671  0.66867103  1
  Cu+  Cu51  1  0.83199828  0.83301734  -0.00428009  1
  Cu+  Cu52  1  0.83053408  0.83001052  0.32710118  1
  Cu+  Cu53  1  0.83548542  0.83480155  0.66351497  1
  Cu+  Cu54  1  0.16520033  0.00272499  0.16826481  1
  Cu+  Cu55  1  0.16138944  0.00103747  0.49601893  1
  Cu+  Cu56  1  0.16775673  -0.00240327  0.83738704  1
  Cu+  Cu57  1  0.16629178  0.33127193  0.16675712  1
  Cu+  Cu58  1  0.16820135  0.33322263  0.49678610  1
  Cu+  Cu59  1  0.16596619  0.33549296  0.83149524  1
  Cu+  Cu60  1  0.16798179  0.66381803  0.16793199  1
  Cu+  Cu61  1  0.16854715  0.66595412  0.49945060  1
  Cu+  Cu62  1  0.16897483  0.66747808  0.83079519  1
  Cu+  Cu63  1  0.49673757  0.00245481  0.16303614  1
  Cu+  Cu64  1  0.49995853  -0.00133845  0.49630513  1
  Cu+  Cu65  1  0.50059012  -0.00323811  0.83144805  1
  Cu+  Cu66  1  0.49757444  0.33643786  0.16888489  1
  Cu+  Cu67  1  0.49694167  0.33078670  0.50556223  1
  Cu+  Cu68  1  0.50052715  0.33060981  0.83307306  1
  Cu+  Cu69  1  0.50294340  0.66627585  0.16611433  1
  Cu+  Cu70  1  0.50164840  0.66838794  0.50267473  1
  Cu+  Cu71  1  0.49858179  0.66199499  0.83684657  1
  Cu+  Cu72  1  0.83312221  -0.00274593  0.16226845  1
  Cu+  Cu73  1  0.83666139  -0.00124325  0.50130227  1
  Cu+  Cu74  1  0.83026411  0.00439568  0.82800895  1
  Cu+  Cu75  1  0.83536506  0.33402582  0.16447260  1
  Cu+  Cu76  1  0.83948954  0.33415303  0.50011794  1
  Cu+  Cu77  1  0.83168663  0.33613591  0.84407779  1
  Cu+  Cu78  1  0.82935936  0.66860843  0.17043361  1
  Cu+  Cu79  1  0.83038540  0.66368614  0.49823672  1
  Cu+  Cu80  1  0.83469718  0.66771203  0.83265564  1
  Cu+  Cu81  1  0.00061602  0.16467204  0.16623915  1
  Cu+  Cu82  1  0.00510412  0.16370568  0.50161801  1
  Cu+  Cu83  1  -0.00042529  0.17194291  0.82958539  1
  Cu+  Cu84  1  -0.00068961  0.50077835  0.16189711  1
  Cu+  Cu85  1  0.00085822  0.49580269  0.49877476  1
  Cu+  Cu86  1  0.00204911  0.50286064  0.83257614  1
  Cu+  Cu87  1  -0.00277747  0.83474875  0.16573690  1
  Cu+  Cu88  1  -0.00093758  0.83946961  0.49705812  1
  Cu+  Cu89  1  0.00391339  0.83704083  0.83400147  1
  Cu+  Cu90  1  0.32965290  0.16737174  0.16714285  1
  Cu+  Cu91  1  0.33255065  0.16982612  0.49443274  1
  Cu+  Cu92  1  0.33523781  0.16586790  0.83174128  1
  Cu+  Cu93  1  0.33352705  0.50400812  0.17181744  1
  Cu+  Cu94  1  0.33474566  0.49644239  0.50301232  1
  Cu+  Cu95  1  0.33000198  0.49940219  0.83354767  1
  Cu+  Cu96  1  0.33111757  0.83364107  0.16226343  1
  Cu+  Cu97  1  0.33821658  0.83569146  0.50207422  1
  Cu+  Cu98  1  0.33391436  0.82537504  0.83475387  1
  Cu+  Cu99  1  0.66365984  0.16783575  0.16517431  1
  Cu+  Cu100  1  0.66802030  0.16720885  0.50425378  1
  Cu+  Cu101  1  0.66706170  0.16468291  0.83649514  1
  Cu+  Cu102  1  0.66434724  0.50114117  0.16944192  1
  Cu+  Cu103  1  0.66910168  0.49952517  0.50187330  1
  Cu+  Cu104  1  0.66434851  0.49858595  0.83632043  1
  Cu+  Cu105  1  0.66468170  0.82886550  0.16389041  1
  Cu+  Cu106  1  0.66642262  0.83355760  0.49808267  1
  Cu+  Cu107  1  0.66921639  0.83089273  0.83307877  1
  Cu+  Cu108  1  0.40894315  0.73915088  0.58824031  1
  Cu+  Cu109  1  0.59301367  0.07476755  0.07667933  1
  Cu+  Cu110  1  0.40292112  0.93126468  0.07018278  1
  Cu+  Cu111  1  0.59890330  0.25979986  0.59358966  1
  Cu+  Cu112  1  0.25664686  0.73455182  0.07766800  1
  Cu+  Cu113  1  0.08452560  0.07434686  0.59566133  1
  Cu+  Cu114  1  0.40789953  0.26458007  0.40422853  1
  Cu+  Cu115  1  0.74565968  0.73757705  0.92049434  1
  Cu+  Cu116  1  0.40687056  0.73374978  0.92853966  1
  Cu+  Cu117  1  0.92878974  0.40582280  0.07498722  1
  Cu+  Cu118  1  0.93043285  0.40329563  0.40819185  1
  Cu+  Cu119  1  0.92620710  0.92198008  0.59299081  1
  Cu+  Cu120  1  0.40557145  0.92707141  0.40745906  1
  Cu+  Cu121  1  0.74387285  0.07223127  0.92471439  1
  Cu+  Cu122  1  0.93166578  0.25902991  0.92270520  1
  Cu+  Cu123  1  0.25988421  0.73689057  0.73880531  1
  Cu+  Cu124  1  0.26286721  0.59578015  0.26337918  1
  Cu+  Cu125  1  0.73222772  0.40917757  0.92999857  1
  Cu+  Cu126  1  0.06818634  0.59706250  0.07242686  1
  Cu+  Cu127  1  0.73409135  0.74264392  0.25957668  1
  Cu+  Cu128  1  0.73776599  0.58859419  0.41017172  1
  Cu+  Cu129  1  0.40270508  0.40137323  0.59873576  1
  Cu+  Cu130  1  0.06812379  0.92834848  0.40181302  1
  Cu+  Cu131  1  0.92787910  0.07720364  0.74868020  1
  Cu+  Cu132  1  0.59242952  0.73719132  0.07277300  1
  Te2-  Te133  1  0.25108875  0.25241671  0.07970199  1
  Te2-  Te134  1  0.25172237  0.25523392  0.40842101  1
  Te2-  Te135  1  0.25216929  0.25198977  0.74785628  1
  Te2-  Te136  1  0.25514695  0.58326766  0.07793962  1
  Te2-  Te137  1  0.25711440  0.58631978  0.41597616  1
  Te2-  Te138  1  0.25351697  0.58432001  0.74443738  1
  Te2-  Te139  1  0.24964199  0.92392713  0.08106392  1
  Te2-  Te140  1  0.25384033  0.92053320  0.41492915  1
  Te2-  Te141  1  0.25667543  0.91970237  0.75308397  1
  Te2-  Te142  1  0.58190513  0.25591119  0.08251738  1
  Te2-  Te143  1  0.58487529  0.25207592  0.41641246  1
  Te2-  Te144  1  0.58983589  0.25293535  0.74934620  1
  Te2-  Te145  1  0.58792697  0.58471751  0.07968446  1
  Te2-  Te146  1  0.58408127  0.58566669  0.41678447  1
  Te2-  Te147  1  0.58392739  0.58212468  0.74899473  1
  Te2-  Te148  1  0.58589645  0.91877301  0.07888575  1
  Te2-  Te149  1  0.58980101  0.92138428  0.41301608  1
  Te2-  Te150  1  0.58472937  0.91311783  0.74791763  1
  Te2-  Te151  1  0.92231932  0.25194068  0.07829810  1
  Te2-  Te152  1  0.92311272  0.24905345  0.41323151  1
  Te2-  Te153  1  0.91607119  0.26147189  0.74960411  1
  Te2-  Te154  1  0.91383286  0.58955052  0.07975128  1
  Te2-  Te155  1  0.92224348  0.58646030  0.41649465  1
  Te2-  Te156  1  0.91890735  0.58637125  0.74876290  1
  Te2-  Te157  1  0.91802353  0.91701033  0.07696714  1
  Te2-  Te158  1  0.91519528  0.92068052  0.40554531  1
  Te2-  Te159  1  0.92311353  0.92229862  0.74672010  1
  Te2-  Te160  1  0.25226866  0.08047515  0.25213087  1
  Te2-  Te161  1  0.25234150  0.08129299  0.58092822  1
  Te2-  Te162  1  0.25318705  0.08249767  0.91806046  1
  Te2-  Te163  1  0.25135798  0.41360284  0.25069554  1
  Te2-  Te164  1  0.25028074  0.41211293  0.58729954  1
  Te2-  Te165  1  0.24778536  0.41675415  0.92066418  1
  Te2-  Te166  1  0.25330803  0.74940903  0.25672524  1
  Te2-  Te167  1  0.25495457  0.74611280  0.58523242  1
  Te2-  Te168  1  0.25382200  0.74049722  0.92396175  1
  Te2-  Te169  1  0.58187477  0.08238147  0.25269506  1
  Te2-  Te170  1  0.58463476  0.07797618  0.58395619  1
  Te2-  Te171  1  0.58677487  0.07475019  0.92019853  1
  Te2-  Te172  1  0.58527467  0.41437594  0.25343201  1
  Te2-  Te173  1  0.58944694  0.41301324  0.58811666  1
  Te2-  Te174  1  0.58119353  0.41241559  0.92314114  1
  Te2-  Te175  1  0.58116745  0.74929092  0.25660698  1
  Te2-  Te176  1  0.59019401  0.74760556  0.58554538  1
  Te2-  Te177  1  0.58883919  0.74349364  0.92030858  1
  Te2-  Te178  1  0.91534979  0.08071385  0.24876899  1
  Te2-  Te179  1  0.92435574  0.07870239  0.58960473  1
  Te2-  Te180  1  0.91792990  0.08328842  0.91664734  1
  Te2-  Te181  1  0.91979692  0.41553431  0.25356610  1
  Te2-  Te182  1  0.92200874  0.41389069  0.58974389  1
  Te2-  Te183  1  0.92787488  0.41531194  0.92194110  1
  Te2-  Te184  1  0.92072385  0.74744696  0.25004082  1
  Te2-  Te185  1  0.91922416  0.74756547  0.58033994  1
  Te2-  Te186  1  0.92117275  0.75025389  0.91601253  1
  Te2-  Te187  1  0.07916205  0.25236688  0.25099231  1
  Te2-  Te188  1  0.08300119  0.25459512  0.58324777  1
  Te2-  Te189  1  0.08349177  0.25332286  0.91934774  1
  Te2-  Te190  1  0.07771885  0.58615603  0.25178181  1
  Te2-  Te191  1  0.08107827  0.58466067  0.58221682  1
  Te2-  Te192  1  0.07809792  0.59251706  0.91706000  1
  Te2-  Te193  1  0.07891412  0.92028274  0.24986010  1
  Te2-  Te194  1  0.08255875  0.91905662  0.59260807  1
  Te2-  Te195  1  0.08401738  0.91708202  0.92371396  1
  Te2-  Te196  1  0.41008786  0.25519395  0.25085587  1
  Te2-  Te197  1  0.40872942  0.24869607  0.59106610  1
  Te2-  Te198  1  0.41661075  0.24904262  0.91940705  1
  Te2-  Te199  1  0.41669593  0.59050664  0.25637201  1
  Te2-  Te200  1  0.41464199  0.58495174  0.58740227  1
  Te2-  Te201  1  0.41048544  0.58195578  0.92186834  1
  Te2-  Te202  1  0.41088996  0.92064302  0.25052672  1
  Te2-  Te203  1  0.41789169  0.92175445  0.58844557  1
  Te2-  Te204  1  0.41261227  0.91867432  0.91726216  1
  Te2-  Te205  1  0.74796048  0.25257865  0.24933073  1
  Te2-  Te206  1  0.75364616  0.25423397  0.58791706  1
  Te2-  Te207  1  0.73826722  0.25648928  0.92284600  1
  Te2-  Te208  1  0.74450445  0.58530923  0.25585049  1
  Te2-  Te209  1  0.74909377  0.58424672  0.58955060  1
  Te2-  Te210  1  0.74763613  0.58550293  0.92127778  1
  Te2-  Te211  1  0.74533506  0.91828709  0.24713060  1
  Te2-  Te212  1  0.74729588  0.91832356  0.58323700  1
  Te2-  Te213  1  0.74709258  0.92127208  0.91688966  1
  Te2-  Te214  1  0.07978588  0.07938643  0.07988563  1
  Te2-  Te215  1  0.07857017  0.08222245  0.40632858  1
  Te2-  Te216  1  0.08138608  0.07823183  0.74811001  1
  Te2-  Te217  1  0.08204037  0.41089346  0.07959877  1
  Te2-  Te218  1  0.08415171  0.41394319  0.40938666  1
  Te2-  Te219  1  0.08062192  0.41631246  0.74676131  1
  Te2-  Te220  1  0.07911304  0.74817321  0.08224833  1
  Te2-  Te221  1  0.08179238  0.74874332  0.41705365  1
  Te2-  Te222  1  0.08130653  0.74972185  0.74832911  1
  Te2-  Te223  1  0.40843605  0.08366368  0.07777209  1
  Te2-  Te224  1  0.41239242  0.08001607  0.41231667  1
  Te2-  Te225  1  0.41770947  0.08136791  0.74619310  1
  Te2-  Te226  1  0.41170541  0.41734100  0.08456196  1
  Te2-  Te227  1  0.41484727  0.41473328  0.41277181  1
  Te2-  Te228  1  0.41020778  0.40995969  0.75132904  1
  Te2-  Te229  1  0.41060153  0.73989641  0.08161298  1
  Te2-  Te230  1  0.41616883  0.74793491  0.41385018  1
  Te2-  Te231  1  0.41521436  0.74121499  0.74507021  1
  Te2-  Te232  1  0.74612907  0.07919867  0.07780804  1
  Te2-  Te233  1  0.74993273  0.08293477  0.41763260  1
  Te2-  Te234  1  0.74363958  0.08431601  0.74370650  1
  Te2-  Te235  1  0.74255833  0.41366366  0.08437955  1
  Te2-  Te236  1  0.74804411  0.41140548  0.41639669  1
  Te2-  Te237  1  0.75007321  0.41495770  0.75117255  1
  Te2-  Te238  1  0.74601256  0.74288750  0.07493159  1
  Te2-  Te239  1  0.74365967  0.74573491  0.41207114  1
  Te2-  Te240  1  0.75071040  0.74859375  0.74418815  1
