# generated using pymatgen
data_Ti27(Cu53Te54)2
_symmetry_space_group_name_H-M   'P 1'
_cell_length_a   17.87915054
_cell_length_b   17.87579261
_cell_length_c   17.87827303
_cell_angle_alpha   89.99484195
_cell_angle_beta   90.02009612
_cell_angle_gamma   90.00738851
_symmetry_Int_Tables_number   1
_chemical_formula_structural   Ti27(Cu53Te54)2
_chemical_formula_sum   'Ti27 Cu106 Te108'
_cell_volume   5713.96692043
_cell_formula_units_Z   1
loop_
 _symmetry_equiv_pos_site_id
 _symmetry_equiv_pos_as_xyz
  1  'x, y, z'
loop_
 _atom_type_symbol
 _atom_type_oxidation_number
  Ti4+  4.0
  Cu+  1.0
  Te2-  -2.0
loop_
 _atom_site_type_symbol
 _atom_site_label
 _atom_site_symmetry_multiplicity
 _atom_site_fract_x
 _atom_site_fract_y
 _atom_site_fract_z
 _atom_site_occupancy
  Ti4+  Ti0  1  0.16435491  0.16733551  0.16715534  1
  Ti4+  Ti1  1  0.16648516  0.16551298  0.49761500  1
  Ti4+  Ti2  1  0.16607171  0.16840962  0.83405161  1
  Ti4+  Ti3  1  0.16799473  0.50069759  0.16443692  1
  Ti4+  Ti4  1  0.16782767  0.49570275  0.50018250  1
  Ti4+  Ti5  1  0.16439448  0.50060436  0.83102415  1
  Ti4+  Ti6  1  0.17026091  0.83286243  0.16950492  1
  Ti4+  Ti7  1  0.16619470  0.83470497  0.50282715  1
  Ti4+  Ti8  1  0.16378006  0.83630471  0.83634748  1
  Ti4+  Ti9  1  0.49866702  0.16508778  0.16695300  1
  Ti4+  Ti10  1  0.50312718  0.16741468  0.49908441  1
  Ti4+  Ti11  1  0.50046964  0.16885657  0.83297438  1
  Ti4+  Ti12  1  0.50107823  0.49858006  0.17046941  1
  Ti4+  Ti13  1  0.49326509  0.50104813  0.49924813  1
  Ti4+  Ti14  1  0.49955684  0.49912669  0.83232996  1
  Ti4+  Ti15  1  0.49983616  0.83115965  0.16311940  1
  Ti4+  Ti16  1  0.50421518  0.83325550  0.50003241  1
  Ti4+  Ti17  1  0.49867642  0.83498053  0.83290932  1
  Ti4+  Ti18  1  0.83142342  0.16490631  0.16580542  1
  Ti4+  Ti19  1  0.83398343  0.16595476  0.50213848  1
  Ti4+  Ti20  1  0.83352726  0.16689616  0.83104704  1
  Ti4+  Ti21  1  0.83419645  0.50041912  0.16855772  1
  Ti4+  Ti22  1  0.83346429  0.50202515  0.50283470  1
  Ti4+  Ti23  1  0.83281064  0.49945171  0.83408344  1
  Ti4+  Ti24  1  0.83610879  0.83321231  0.16459086  1
  Ti4+  Ti25  1  0.83577525  0.83415587  0.49655366  1
  Ti4+  Ti26  1  0.83255460  0.83480460  0.83463093  1
  Cu+  Cu27  1  0.16673487  0.16842874  0.00097793  1
  Cu+  Cu28  1  0.16288882  0.16468923  0.32955710  1
  Cu+  Cu29  1  0.16588016  0.16823582  0.66294980  1
  Cu+  Cu30  1  0.16132486  0.49978533  -0.00704649  1
  Cu+  Cu31  1  0.16740168  0.49727326  0.32890480  1
  Cu+  Cu32  1  0.17344336  0.49581480  0.66816322  1
  Cu+  Cu33  1  0.16526327  0.83611139  0.00402794  1
  Cu+  Cu34  1  0.16825327  0.83082394  0.33834404  1
  Cu+  Cu35  1  0.16411219  0.83464232  0.67293237  1
  Cu+  Cu36  1  0.49980944  0.16725022  -0.00073526  1
  Cu+  Cu37  1  0.50235020  0.17094429  0.33018062  1
  Cu+  Cu38  1  0.50610246  0.16280427  0.66943136  1
  Cu+  Cu39  1  0.49919597  0.49827875  0.00121999  1
  Cu+  Cu40  1  0.50237787  0.49403864  0.33826682  1
  Cu+  Cu41  1  0.49533543  0.50261472  0.66303393  1
  Cu+  Cu42  1  0.49603507  0.83641098  -0.00230613  1
  Cu+  Cu43  1  0.50555056  0.83172321  0.33316950  1
  Cu+  Cu44  1  0.49844339  0.83304231  0.66404976  1
  Cu+  Cu45  1  0.83197352  0.16667946  -0.00281237  1
  Cu+  Cu46  1  0.83448843  0.16227833  0.33609335  1
  Cu+  Cu47  1  0.82896458  0.17109298  0.66889447  1
  Cu+  Cu48  1  0.83303429  0.50132389  0.00338944  1
  Cu+  Cu49  1  0.83533576  0.50362471  0.33664538  1
  Cu+  Cu50  1  0.83640801  0.49756420  0.66960007  1
  Cu+  Cu51  1  0.83080238  0.83757766  0.00097028  1
  Cu+  Cu52  1  0.83428428  0.83056924  0.32651310  1
  Cu+  Cu53  1  0.83586996  0.83578427  0.66689452  1
  Cu+  Cu54  1  0.16317327  0.00062351  0.16659473  1
  Cu+  Cu55  1  0.16798268  0.00002872  0.50144766  1
  Cu+  Cu56  1  0.16507119  0.00348282  0.83736405  1
  Cu+  Cu57  1  0.16072096  0.33296230  0.16732882  1
  Cu+  Cu58  1  0.16679533  0.33117085  0.49335494  1
  Cu+  Cu59  1  0.16381755  0.33389109  0.83374835  1
  Cu+  Cu60  1  0.17923174  0.66612006  0.16852698  1
  Cu+  Cu61  1  0.16544254  0.66495133  0.50259879  1
  Cu+  Cu62  1  0.16447545  0.67139755  0.83180463  1
  Cu+  Cu63  1  0.49543029  -0.00182225  0.16390494  1
  Cu+  Cu64  1  0.50544474  -0.00108636  0.49721702  1
  Cu+  Cu65  1  0.50202898  0.00347916  0.83114540  1
  Cu+  Cu66  1  0.50280842  0.33140240  0.17291870  1
  Cu+  Cu67  1  0.49248617  0.33035287  0.49174469  1
  Cu+  Cu68  1  0.49986330  0.33370011  0.83593387  1
  Cu+  Cu69  1  0.49720680  0.66137862  0.16468247  1
  Cu+  Cu70  1  0.49926219  0.66862061  0.50635979  1
  Cu+  Cu71  1  0.49935149  0.66691447  0.83286193  1
  Cu+  Cu72  1  0.83132572  -0.00142109  0.16179275  1
  Cu+  Cu73  1  0.84348767  0.00047500  0.49848791  1
  Cu+  Cu74  1  0.83273737  0.00090356  0.83545869  1
  Cu+  Cu75  1  0.83303667  0.33321017  0.16868435  1
  Cu+  Cu76  1  0.83333708  0.33333922  0.50250686  1
  Cu+  Cu77  1  0.83445842  0.33324347  0.82714063  1
  Cu+  Cu78  1  0.83605684  0.66719241  0.17022438  1
  Cu+  Cu79  1  0.82956804  0.66868909  0.50083047  1
  Cu+  Cu80  1  0.83286615  0.66630044  0.83573856  1
  Cu+  Cu81  1  -0.00339391  0.16774444  0.16568893  1
  Cu+  Cu82  1  -0.00101446  0.16272458  0.49673561  1
  Cu+  Cu83  1  0.00095074  0.16622803  0.83313504  1
  Cu+  Cu84  1  0.00022107  0.49864414  0.16861640  1
  Cu+  Cu85  1  0.00098268  0.50172263  0.50082565  1
  Cu+  Cu86  1  -0.00237881  0.49560894  0.83328397  1
  Cu+  Cu87  1  0.00515284  0.83708119  0.16500302  1
  Cu+  Cu88  1  -0.00038024  0.83872665  0.50276839  1
  Cu+  Cu89  1  -0.00222054  0.83483204  0.83951828  1
  Cu+  Cu90  1  0.32799333  0.16432842  0.16524245  1
  Cu+  Cu91  1  0.33558938  0.16845459  0.49717371  1
  Cu+  Cu92  1  0.33421745  0.16897947  0.83523647  1
  Cu+  Cu93  1  0.33662626  0.50752561  0.16719003  1
  Cu+  Cu94  1  0.32808660  0.49356079  0.50438941  1
  Cu+  Cu95  1  0.33192878  0.50047555  0.82974308  1
  Cu+  Cu96  1  0.33455479  0.82936288  0.16253436  1
  Cu+  Cu97  1  0.33775325  0.83314596  0.50078598  1
  Cu+  Cu98  1  0.33039336  0.83582553  0.83359924  1
  Cu+  Cu99  1  0.66441495  0.16387145  0.16872229  1
  Cu+  Cu100  1  0.67073156  0.16575371  0.50318539  1
  Cu+  Cu101  1  0.66659878  0.16703234  0.82685652  1
  Cu+  Cu102  1  0.66845625  0.49908843  0.16904834  1
  Cu+  Cu103  1  0.66484619  0.50497037  0.50061549  1
  Cu+  Cu104  1  0.66524830  0.50146768  0.83500858  1
  Cu+  Cu105  1  0.66914787  0.83197961  0.16366619  1
  Cu+  Cu106  1  0.67217437  0.83065172  0.49890983  1
  Cu+  Cu107  1  0.66451561  0.83362428  0.83375614  1
  Cu+  Cu108  1  0.26415882  0.59366885  0.26446620  1
  Cu+  Cu109  1  0.73710816  0.92737211  0.07232086  1
  Cu+  Cu110  1  0.73540958  0.26550446  0.74147916  1
  Cu+  Cu111  1  0.73831485  0.73861333  0.25334940  1
  Cu+  Cu112  1  0.40347515  0.25151367  0.39951051  1
  Cu+  Cu113  1  0.92944103  0.07245610  0.40120844  1
  Cu+  Cu114  1  0.59203907  0.59045036  0.59324491  1
  Cu+  Cu115  1  0.06980047  0.40561356  0.25942086  1
  Cu+  Cu116  1  0.74913567  0.74543102  0.59775001  1
  Cu+  Cu117  1  0.40495074  0.93012506  0.07094702  1
  Cu+  Cu118  1  0.92743383  0.40433633  0.73656279  1
  Cu+  Cu119  1  0.25690225  0.74118153  0.07029848  1
  Cu+  Cu120  1  0.41191726  0.39960145  0.59273612  1
  Cu+  Cu121  1  0.25231650  0.40302688  0.39793634  1
  Cu+  Cu122  1  0.25071581  0.59301337  0.59503745  1
  Cu+  Cu123  1  0.07359612  0.93025934  0.07540286  1
  Cu+  Cu124  1  0.25759953  0.74810641  0.74410513  1
  Cu+  Cu125  1  0.41100416  0.58725308  0.06869427  1
  Cu+  Cu126  1  0.59714233  0.40720372  0.41902344  1
  Cu+  Cu127  1  0.40693255  0.74563712  0.59235154  1
  Cu+  Cu128  1  0.06877311  0.40404279  0.92430411  1
  Cu+  Cu129  1  0.92697765  0.92886034  0.59836511  1
  Cu+  Cu130  1  0.59872142  0.25715637  0.25655465  1
  Cu+  Cu131  1  0.59701594  0.06931005  0.74043343  1
  Cu+  Cu132  1  0.26123730  0.40112816  0.74975230  1
  Te2-  Te133  1  0.24939601  0.25429177  0.08263623  1
  Te2-  Te134  1  0.25205043  0.25040636  0.40628112  1
  Te2-  Te135  1  0.25280175  0.25124200  0.74652533  1
  Te2-  Te136  1  0.25401977  0.58411795  0.07099360  1
  Te2-  Te137  1  0.25255561  0.58528076  0.41502037  1
  Te2-  Te138  1  0.25414263  0.59132137  0.74779493  1
  Te2-  Te139  1  0.25393965  0.92285070  0.08164824  1
  Te2-  Te140  1  0.25379457  0.91721030  0.41794527  1
  Te2-  Te141  1  0.24921552  0.92331625  0.75057346  1
  Te2-  Te142  1  0.58474406  0.25147241  0.08212267  1
  Te2-  Te143  1  0.59356299  0.25352261  0.41351300  1
  Te2-  Te144  1  0.58410624  0.25878236  0.74502111  1
  Te2-  Te145  1  0.58695773  0.58190309  0.08255271  1
  Te2-  Te146  1  0.58095442  0.58900744  0.41572893  1
  Te2-  Te147  1  0.58471795  0.58593769  0.74689922  1
  Te2-  Te148  1  0.58544150  0.91923357  0.07885210  1
  Te2-  Te149  1  0.59061664  0.91691267  0.41389882  1
  Te2-  Te150  1  0.58588924  0.91730278  0.74502187  1
  Te2-  Te151  1  0.91487323  0.25187097  0.08077295  1
  Te2-  Te152  1  0.91739937  0.25286511  0.41556609  1
  Te2-  Te153  1  0.92414431  0.25111998  0.74457970  1
  Te2-  Te154  1  0.92013784  0.58566423  0.08376982  1
  Te2-  Te155  1  0.91905753  0.58814177  0.41891557  1
  Te2-  Te156  1  0.91898423  0.58676274  0.75026658  1
  Te2-  Te157  1  0.92182439  0.92129485  0.07801673  1
  Te2-  Te158  1  0.92229473  0.91694447  0.40630982  1
  Te2-  Te159  1  0.92052602  0.92137143  0.75102237  1
  Te2-  Te160  1  0.24967623  0.07941342  0.25144095  1
  Te2-  Te161  1  0.25421422  0.08378001  0.58319751  1
  Te2-  Te162  1  0.25220668  0.08430096  0.91988016  1
  Te2-  Te163  1  0.25657665  0.41163196  0.24587054  1
  Te2-  Te164  1  0.25253362  0.40236520  0.58916147  1
  Te2-  Te165  1  0.25273290  0.41559715  0.91716955  1
  Te2-  Te166  1  0.25869459  0.74903801  0.25915057  1
  Te2-  Te167  1  0.25359186  0.74748067  0.59015973  1
  Te2-  Te168  1  0.25152744  0.74842008  0.92033700  1
  Te2-  Te169  1  0.58181891  0.07628917  0.25206579  1
  Te2-  Te170  1  0.58880204  0.07908167  0.58421196  1
  Te2-  Te171  1  0.58747172  0.08409589  0.91845851  1
  Te2-  Te172  1  0.59130579  0.41246173  0.25732494  1
  Te2-  Te173  1  0.58060956  0.41221556  0.58157985  1
  Te2-  Te174  1  0.58448131  0.41585199  0.91936566  1
  Te2-  Te175  1  0.58496806  0.74432658  0.24843246  1
  Te2-  Te176  1  0.59242743  0.74680746  0.59017793  1
  Te2-  Te177  1  0.58268353  0.74901205  0.91856605  1
  Te2-  Te178  1  0.91879470  0.07748918  0.24903736  1
  Te2-  Te179  1  0.92094145  0.08375490  0.59253434  1
  Te2-  Te180  1  0.91882471  0.08226225  0.91795000  1
  Te2-  Te181  1  0.91770477  0.41334409  0.25652655  1
  Te2-  Te182  1  0.92157079  0.41354445  0.58426162  1
  Te2-  Te183  1  0.91535167  0.41120043  0.92254710  1
  Te2-  Te184  1  0.92630924  0.74968770  0.24922752  1
  Te2-  Te185  1  0.91962055  0.74729755  0.58461088  1
  Te2-  Te186  1  0.91526474  0.74933853  0.92193155  1
  Te2-  Te187  1  0.07527651  0.25186538  0.25392259  1
  Te2-  Te188  1  0.08014373  0.25174041  0.57995405  1
  Te2-  Te189  1  0.07820798  0.25234798  0.92100556  1
  Te2-  Te190  1  0.08466327  0.58815598  0.25014948  1
  Te2-  Te191  1  0.08366213  0.58095013  0.58889005  1
  Te2-  Te192  1  0.07812159  0.58827840  0.91426581  1
  Te2-  Te193  1  0.08476961  0.91725271  0.25642047  1
  Te2-  Te194  1  0.08265876  0.92204229  0.58989216  1
  Te2-  Te195  1  0.07867490  0.92297252  0.92231700  1
  Te2-  Te196  1  0.40810774  0.25213733  0.24935263  1
  Te2-  Te197  1  0.41639896  0.24800562  0.58964209  1
  Te2-  Te198  1  0.41458295  0.25367350  0.92017173  1
  Te2-  Te199  1  0.41798999  0.58618251  0.26107989  1
  Te2-  Te200  1  0.40534594  0.58949057  0.58778826  1
  Te2-  Te201  1  0.41282130  0.58499769  0.91625341  1
  Te2-  Te202  1  0.41549804  0.91320061  0.25194244  1
  Te2-  Te203  1  0.41775349  0.92218170  0.58297275  1
  Te2-  Te204  1  0.41220218  0.92389680  0.91557765  1
  Te2-  Te205  1  0.74988312  0.25020405  0.25562045  1
  Te2-  Te206  1  0.74580552  0.25594872  0.58629482  1
  Te2-  Te207  1  0.74734446  0.25283946  0.91496865  1
  Te2-  Te208  1  0.74727349  0.58561548  0.25545699  1
  Te2-  Te209  1  0.74714259  0.58660066  0.59194438  1
  Te2-  Te210  1  0.74771590  0.58478089  0.91998238  1
  Te2-  Te211  1  0.74804817  0.91926769  0.25038719  1
  Te2-  Te212  1  0.75108053  0.92161971  0.58208217  1
  Te2-  Te213  1  0.74405569  0.92158221  0.91818193  1
  Te2-  Te214  1  0.07805508  0.08332845  0.07931877  1
  Te2-  Te215  1  0.08223897  0.07683771  0.41211819  1
  Te2-  Te216  1  0.08280404  0.08276294  0.74735098  1
  Te2-  Te217  1  0.07928291  0.41524109  0.07882483  1
  Te2-  Te218  1  0.07747822  0.41439489  0.41285844  1
  Te2-  Te219  1  0.07988508  0.41263521  0.74274132  1
  Te2-  Te220  1  0.08558255  0.74371401  0.08531792  1
  Te2-  Te221  1  0.08066593  0.74818093  0.41972707  1
  Te2-  Te222  1  0.07529673  0.75117565  0.75109509  1
  Te2-  Te223  1  0.41136024  0.08283293  0.07792299  1
  Te2-  Te224  1  0.41948364  0.08162004  0.41303718  1
  Te2-  Te225  1  0.41277067  0.08364074  0.74800954  1
  Te2-  Te226  1  0.41579277  0.41233029  0.08610523  1
  Te2-  Te227  1  0.40536652  0.41235939  0.40823735  1
  Te2-  Te228  1  0.41367035  0.41073449  0.74577346  1
  Te2-  Te229  1  0.41352725  0.74207287  0.07502488  1
  Te2-  Te230  1  0.41827097  0.74771655  0.41408450  1
  Te2-  Te231  1  0.41233747  0.74615991  0.74707970  1
  Te2-  Te232  1  0.74397207  0.08214788  0.07773990  1
  Te2-  Te233  1  0.74842941  0.07806846  0.41790313  1
  Te2-  Te234  1  0.74902780  0.07626433  0.74479312  1
  Te2-  Te235  1  0.74852352  0.41444936  0.08354041  1
  Te2-  Te236  1  0.74924452  0.41601531  0.41630663  1
  Te2-  Te237  1  0.74259539  0.41700420  0.74610891  1
  Te2-  Te238  1  0.75072594  0.74464494  0.07976103  1
  Te2-  Te239  1  0.74864972  0.74656035  0.40907527  1
  Te2-  Te240  1  0.74763307  0.74781913  0.74958724  1
