# generated using pymatgen
data_Ti27(Cu53Te54)2
_symmetry_space_group_name_H-M   'P 1'
_cell_length_a   17.92255964
_cell_length_b   17.93125784
_cell_length_c   17.92592972
_cell_angle_alpha   89.97934905
_cell_angle_beta   89.97332782
_cell_angle_gamma   90.01024262
_symmetry_Int_Tables_number   1
_chemical_formula_structural   Ti27(Cu53Te54)2
_chemical_formula_sum   'Ti27 Cu106 Te108'
_cell_volume   5760.92732951
_cell_formula_units_Z   1
loop_
 _symmetry_equiv_pos_site_id
 _symmetry_equiv_pos_as_xyz
  1  'x, y, z'
loop_
 _atom_type_symbol
 _atom_type_oxidation_number
  Ti4+  4.0
  Cu+  1.0
  Te2-  -2.0
loop_
 _atom_site_type_symbol
 _atom_site_label
 _atom_site_symmetry_multiplicity
 _atom_site_fract_x
 _atom_site_fract_y
 _atom_site_fract_z
 _atom_site_occupancy
  Ti4+  Ti0  1  0.16459850  0.16551657  0.16453161  1
  Ti4+  Ti1  1  0.16298314  0.16882233  0.50191530  1
  Ti4+  Ti2  1  0.16576681  0.16199904  0.82927445  1
  Ti4+  Ti3  1  0.16722036  0.50303766  0.16418565  1
  Ti4+  Ti4  1  0.16794010  0.49911514  0.49529235  1
  Ti4+  Ti5  1  0.17070684  0.49470967  0.83248305  1
  Ti4+  Ti6  1  0.16593332  0.83368134  0.16715728  1
  Ti4+  Ti7  1  0.16615961  0.83325124  0.49949327  1
  Ti4+  Ti8  1  0.16700050  0.83024183  0.83091764  1
  Ti4+  Ti9  1  0.49730081  0.16748071  0.16422510  1
  Ti4+  Ti10  1  0.49745794  0.16706438  0.49990926  1
  Ti4+  Ti11  1  0.49932174  0.16452670  0.83786884  1
  Ti4+  Ti12  1  0.49862006  0.50184345  0.16543276  1
  Ti4+  Ti13  1  0.50140007  0.49872844  0.49788590  1
  Ti4+  Ti14  1  0.49952275  0.50071049  0.83208351  1
  Ti4+  Ti15  1  0.50013037  0.83625699  0.16765373  1
  Ti4+  Ti16  1  0.49933660  0.83327995  0.49776241  1
  Ti4+  Ti17  1  0.50101638  0.83473421  0.83040347  1
  Ti4+  Ti18  1  0.83453083  0.16388656  0.16744969  1
  Ti4+  Ti19  1  0.83271649  0.16818801  0.50171616  1
  Ti4+  Ti20  1  0.83015057  0.16938281  0.83721413  1
  Ti4+  Ti21  1  0.83432551  0.49853006  0.16575094  1
  Ti4+  Ti22  1  0.83522278  0.50051130  0.49827948  1
  Ti4+  Ti23  1  0.83695266  0.50203385  0.83190082  1
  Ti4+  Ti24  1  0.83839507  0.83133888  0.17104802  1
  Ti4+  Ti25  1  0.83379031  0.83625624  0.50294679  1
  Ti4+  Ti26  1  0.83312535  0.83223546  0.83765135  1
  Cu+  Cu27  1  0.16547392  0.16418797  -0.00369352  1
  Cu+  Cu28  1  0.16540688  0.16878610  0.33275611  1
  Cu+  Cu29  1  0.15687799  0.16509463  0.66556326  1
  Cu+  Cu30  1  0.17730721  0.49649608  0.00024526  1
  Cu+  Cu31  1  0.16930500  0.50506121  0.32821683  1
  Cu+  Cu32  1  0.16792741  0.49596522  0.66303899  1
  Cu+  Cu33  1  0.16628719  0.83201029  -0.00155678  1
  Cu+  Cu34  1  0.16552609  0.83366470  0.33427410  1
  Cu+  Cu35  1  0.16665261  0.82949597  0.66508790  1
  Cu+  Cu36  1  0.50212989  0.16031929  -0.00048785  1
  Cu+  Cu37  1  0.49554365  0.16888717  0.33214563  1
  Cu+  Cu38  1  0.49569003  0.16585865  0.66940358  1
  Cu+  Cu39  1  0.49628081  0.50281889  -0.00127021  1
  Cu+  Cu40  1  0.49965066  0.49945120  0.33272750  1
  Cu+  Cu41  1  0.50184441  0.49899822  0.66370945  1
  Cu+  Cu42  1  0.50255833  0.83383510  -0.00125879  1
  Cu+  Cu43  1  0.49582074  0.83805194  0.33433446  1
  Cu+  Cu44  1  0.50533150  0.83708795  0.66113781  1
  Cu+  Cu45  1  0.83161356  0.16702749  0.00494796  1
  Cu+  Cu46  1  0.83179247  0.16549774  0.33503392  1
  Cu+  Cu47  1  0.82989713  0.17051306  0.66865335  1
  Cu+  Cu48  1  0.83446427  0.50033988  -0.00233015  1
  Cu+  Cu49  1  0.83705873  0.49714784  0.33240001  1
  Cu+  Cu50  1  0.83566928  0.50573226  0.66548547  1
  Cu+  Cu51  1  0.83369005  0.82896705  0.00809990  1
  Cu+  Cu52  1  0.84161922  0.83423317  0.33799794  1
  Cu+  Cu53  1  0.83180058  0.83399399  0.67262641  1
  Cu+  Cu54  1  0.16576586  0.00004441  0.16633231  1
  Cu+  Cu55  1  0.16314451  0.00165708  0.50254573  1
  Cu+  Cu56  1  0.16566755  -0.00561584  0.82839876  1
  Cu+  Cu57  1  0.16239309  0.33268653  0.16395533  1
  Cu+  Cu58  1  0.16169002  0.33710533  0.50188289  1
  Cu+  Cu59  1  0.16921476  0.32416790  0.82889664  1
  Cu+  Cu60  1  0.16763307  0.66799884  0.16948919  1
  Cu+  Cu61  1  0.16773124  0.66492817  0.49775993  1
  Cu+  Cu62  1  0.17018304  0.66275547  0.83250814  1
  Cu+  Cu63  1  0.50031642  0.00290967  0.16471797  1
  Cu+  Cu64  1  0.49678081  0.00131280  0.49666929  1
  Cu+  Cu65  1  0.50299234  -0.00369300  0.84196719  1
  Cu+  Cu66  1  0.49741221  0.33463495  0.16645417  1
  Cu+  Cu67  1  0.50053801  0.33379253  0.50020065  1
  Cu+  Cu68  1  0.49473636  0.33321526  0.83593975  1
  Cu+  Cu69  1  0.50064835  0.66993371  0.16683455  1
  Cu+  Cu70  1  0.50061512  0.66499513  0.49743372  1
  Cu+  Cu71  1  0.50068746  0.66981770  0.82709215  1
  Cu+  Cu72  1  0.84129983  -0.00295968  0.16779828  1
  Cu+  Cu73  1  0.83168590  0.00386328  0.50376081  1
  Cu+  Cu74  1  0.82701834  0.00123884  0.83688570  1
  Cu+  Cu75  1  0.83264142  0.33104474  0.16644317  1
  Cu+  Cu76  1  0.83630377  0.33396842  0.49757809  1
  Cu+  Cu77  1  0.83021426  0.34010075  0.83851260  1
  Cu+  Cu78  1  0.83758843  0.66408256  0.16911146  1
  Cu+  Cu79  1  0.83440054  0.66872496  0.49830312  1
  Cu+  Cu80  1  0.83945438  0.66740393  0.83244107  1
  Cu+  Cu81  1  0.00056915  0.16151180  0.16415219  1
  Cu+  Cu82  1  -0.00126497  0.16474496  0.50468358  1
  Cu+  Cu83  1  -0.00324098  0.16540776  0.82949545  1
  Cu+  Cu84  1  0.00159054  0.50003947  0.16537434  1
  Cu+  Cu85  1  -0.00007648  0.49553520  0.49489946  1
  Cu+  Cu86  1  0.00327748  0.49911496  0.83168637  1
  Cu+  Cu87  1  -0.00053144  0.83197700  0.17105050  1
  Cu+  Cu88  1  -0.00058679  0.83155610  0.49924054  1
  Cu+  Cu89  1  -0.00020121  0.82820480  0.83220965  1
  Cu+  Cu90  1  0.33129283  0.16678457  0.16544934  1
  Cu+  Cu91  1  0.32911896  0.16862346  0.50132807  1
  Cu+  Cu92  1  0.33553111  0.16492847  0.83529656  1
  Cu+  Cu93  1  0.33059027  0.50557303  0.16704521  1
  Cu+  Cu94  1  0.33691367  0.49953323  0.49562566  1
  Cu+  Cu95  1  0.33405431  0.49846743  0.83699347  1
  Cu+  Cu96  1  0.33418186  0.83529394  0.16562397  1
  Cu+  Cu97  1  0.33347947  0.83404214  0.49496518  1
  Cu+  Cu98  1  0.33403711  0.83105098  0.82749088  1
  Cu+  Cu99  1  0.66547836  0.16557770  0.16411423  1
  Cu+  Cu100  1  0.66515250  0.16847896  0.50058889  1
  Cu+  Cu101  1  0.66380257  0.17138438  0.83967903  1
  Cu+  Cu102  1  0.66503572  0.50181377  0.16511639  1
  Cu+  Cu103  1  0.66767053  0.50053075  0.49898459  1
  Cu+  Cu104  1  0.66861561  0.50216010  0.83095703  1
  Cu+  Cu105  1  0.67045802  0.83470923  0.17162541  1
  Cu+  Cu106  1  0.66513583  0.83681438  0.50347895  1
  Cu+  Cu107  1  0.66885643  0.83845102  0.83200817  1
  Cu+  Cu108  1  0.58691615  0.26273623  0.92655773  1
  Cu+  Cu109  1  0.92976415  0.92850650  0.26762240  1
  Cu+  Cu110  1  0.93024996  0.07291584  0.07201830  1
  Cu+  Cu111  1  0.40827207  0.40952297  0.92794237  1
  Cu+  Cu112  1  0.74583520  0.92168424  0.08324222  1
  Cu+  Cu113  1  0.73845659  0.26166009  0.08409909  1
  Cu+  Cu114  1  0.92729536  0.40211814  0.40257642  1
  Cu+  Cu115  1  0.92990583  0.73493736  0.07758562  1
  Cu+  Cu116  1  0.40223322  0.93001421  0.40563255  1
  Cu+  Cu117  1  0.06845160  0.06741019  0.59090788  1
  Cu+  Cu118  1  0.26136526  0.40279408  0.08987498  1
  Cu+  Cu119  1  0.26047797  0.59551245  0.92454053  1
  Cu+  Cu120  1  0.25589789  0.24998621  0.92550162  1
  Cu+  Cu121  1  0.40186999  0.06602290  0.92500408  1
  Cu+  Cu122  1  0.07084342  0.41541602  0.59334713  1
  Cu+  Cu123  1  0.74473443  0.93090072  0.74108839  1
  Cu+  Cu124  1  0.40992947  0.26018452  0.73857708  1
  Cu+  Cu125  1  0.06643204  0.25707553  0.74232173  1
  Cu+  Cu126  1  0.92887697  0.73914521  0.41048620  1
  Cu+  Cu127  1  0.59350085  0.07331149  0.07804982  1
  Cu+  Cu128  1  0.59029882  0.93276477  0.58373370  1
  Cu+  Cu129  1  0.59612133  0.91784369  0.92815862  1
  Cu+  Cu130  1  0.92794228  0.74046783  0.74058490  1
  Cu+  Cu131  1  0.73922108  0.42022393  0.92695802  1
  Cu+  Cu132  1  0.26140220  0.59922050  0.26204405  1
  Te2-  Te133  1  0.25275485  0.25151173  0.07814138  1
  Te2-  Te134  1  0.24734079  0.25411445  0.41694121  1
  Te2-  Te135  1  0.25523780  0.24584649  0.74208784  1
  Te2-  Te136  1  0.25455302  0.59292325  0.07856108  1
  Te2-  Te137  1  0.25589431  0.58723632  0.41302261  1
  Te2-  Te138  1  0.25347296  0.57966139  0.74508587  1
  Te2-  Te139  1  0.24993258  0.91771074  0.08108110  1
  Te2-  Te140  1  0.24863177  0.92281359  0.41393127  1
  Te2-  Te141  1  0.25164410  0.91527482  0.74423326  1
  Te2-  Te142  1  0.58472630  0.25760961  0.07869620  1
  Te2-  Te143  1  0.58256355  0.25067290  0.41442348  1
  Te2-  Te144  1  0.58223022  0.25221181  0.75044523  1
  Te2-  Te145  1  0.58319242  0.58691165  0.08024782  1
  Te2-  Te146  1  0.58644706  0.58450228  0.41235171  1
  Te2-  Te147  1  0.58497161  0.58419346  0.74666745  1
  Te2-  Te148  1  0.59095549  0.92139699  0.08027772  1
  Te2-  Te149  1  0.58686563  0.92083761  0.41340176  1
  Te2-  Te150  1  0.58778013  0.92506527  0.74442846  1
  Te2-  Te151  1  0.92048169  0.25104100  0.08234426  1
  Te2-  Te152  1  0.92150926  0.24948181  0.41343170  1
  Te2-  Te153  1  0.91244416  0.25631463  0.75082672  1
  Te2-  Te154  1  0.92071890  0.58325576  0.07912033  1
  Te2-  Te155  1  0.92122967  0.58677680  0.41215410  1
  Te2-  Te156  1  0.92523690  0.58656420  0.74570322  1
  Te2-  Te157  1  0.92545188  0.91769291  0.07851419  1
  Te2-  Te158  1  0.92127788  0.92567790  0.42065058  1
  Te2-  Te159  1  0.91706095  0.92095528  0.75340609  1
  Te2-  Te160  1  0.24961865  0.08280040  0.25108144  1
  Te2-  Te161  1  0.24896083  0.08356672  0.58684557  1
  Te2-  Te162  1  0.24942270  0.07434320  0.91729712  1
  Te2-  Te163  1  0.25131661  0.41307903  0.24953916  1
  Te2-  Te164  1  0.25538659  0.41516795  0.58038869  1
  Te2-  Te165  1  0.25605189  0.40351077  0.91973294  1
  Te2-  Te166  1  0.25439584  0.75107629  0.25383386  1
  Te2-  Te167  1  0.25279327  0.74777809  0.58138067  1
  Te2-  Te168  1  0.25494329  0.74800531  0.91789516  1
  Te2-  Te169  1  0.58308511  0.08446652  0.25218052  1
  Te2-  Te170  1  0.58362002  0.08372078  0.58710410  1
  Te2-  Te171  1  0.59386226  0.07585152  0.92286377  1
  Te2-  Te172  1  0.58372481  0.41597475  0.24914184  1
  Te2-  Te173  1  0.58737455  0.41398398  0.58392846  1
  Te2-  Te174  1  0.58689238  0.41593380  0.92151010  1
  Te2-  Te175  1  0.58396543  0.75270385  0.25371775  1
  Te2-  Te176  1  0.58538924  0.74566479  0.58252006  1
  Te2-  Te177  1  0.58667987  0.74852448  0.91511650  1
  Te2-  Te178  1  0.92122714  0.08164155  0.25704809  1
  Te2-  Te179  1  0.91573876  0.08181834  0.59193467  1
  Te2-  Te180  1  0.91666695  0.08163227  0.91867991  1
  Te2-  Te181  1  0.92145315  0.41113388  0.24857051  1
  Te2-  Te182  1  0.91825769  0.41438741  0.58826982  1
  Te2-  Te183  1  0.92308427  0.41646664  0.91883885  1
  Te2-  Te184  1  0.92329180  0.74216097  0.25715978  1
  Te2-  Te185  1  0.91794413  0.74880783  0.58867807  1
  Te2-  Te186  1  0.92026021  0.74633285  0.92387217  1
  Te2-  Te187  1  0.07911930  0.25068225  0.24852790  1
  Te2-  Te188  1  0.07377912  0.25845029  0.58821118  1
  Te2-  Te189  1  0.07955597  0.24881561  0.91546526  1
  Te2-  Te190  1  0.07932419  0.58656881  0.25013852  1
  Te2-  Te191  1  0.08178104  0.58276087  0.58190508  1
  Te2-  Te192  1  0.08676860  0.57967755  0.91869803  1
  Te2-  Te193  1  0.08153204  0.92036770  0.25418565  1
  Te2-  Te194  1  0.07861933  0.91538659  0.58732166  1
  Te2-  Te195  1  0.08093394  0.91514472  0.91558032  1
  Te2-  Te196  1  0.41198562  0.25261075  0.24914335  1
  Te2-  Te197  1  0.41245588  0.25376222  0.58536462  1
  Te2-  Te198  1  0.41152529  0.25252268  0.92770616  1
  Te2-  Te199  1  0.41542079  0.58816969  0.25268953  1
  Te2-  Te200  1  0.41570306  0.58411546  0.58338189  1
  Te2-  Te201  1  0.41547824  0.59145799  0.91636025  1
  Te2-  Te202  1  0.41296979  0.92384758  0.24980059  1
  Te2-  Te203  1  0.41263116  0.91900796  0.58401863  1
  Te2-  Te204  1  0.41020371  0.91406166  0.91973298  1
  Te2-  Te205  1  0.74679415  0.24936715  0.25191645  1
  Te2-  Te206  1  0.74753013  0.25526292  0.58398500  1
  Te2-  Te207  1  0.74470819  0.25772601  0.92594920  1
  Te2-  Te208  1  0.75036832  0.58225450  0.25157494  1
  Te2-  Te209  1  0.74959840  0.58672523  0.58225849  1
  Te2-  Te210  1  0.75033847  0.58826058  0.91676971  1
  Te2-  Te211  1  0.75332466  0.91917255  0.25670206  1
  Te2-  Te212  1  0.74657935  0.92353606  0.58961856  1
  Te2-  Te213  1  0.74817176  0.91954023  0.92792392  1
  Te2-  Te214  1  0.08241822  0.07731353  0.07643831  1
  Te2-  Te215  1  0.07985400  0.08346223  0.41479691  1
  Te2-  Te216  1  0.07599337  0.07457137  0.74716418  1
  Te2-  Te217  1  0.08177791  0.41717997  0.07766359  1
  Te2-  Te218  1  0.08333509  0.41405602  0.40507925  1
  Te2-  Te219  1  0.08123727  0.41036100  0.74698590  1
  Te2-  Te220  1  0.08176971  0.74656685  0.08162865  1
  Te2-  Te221  1  0.08164865  0.74566301  0.41350552  1
  Te2-  Te222  1  0.08279111  0.74177147  0.74591066  1
  Te2-  Te223  1  0.40969683  0.07932189  0.07955648  1
  Te2-  Te224  1  0.40929490  0.08408673  0.41328247  1
  Te2-  Te225  1  0.41688372  0.07519736  0.75292540  1
  Te2-  Te226  1  0.41120284  0.41357633  0.07993589  1
  Te2-  Te227  1  0.41607491  0.41240233  0.41243816  1
  Te2-  Te228  1  0.41347872  0.41535775  0.74505547  1
  Te2-  Te229  1  0.41722856  0.75160296  0.08129454  1
  Te2-  Te230  1  0.41479817  0.74607093  0.41256586  1
  Te2-  Te231  1  0.41846929  0.75164696  0.74132316  1
  Te2-  Te232  1  0.74720395  0.07482747  0.08040817  1
  Te2-  Te233  1  0.74664871  0.08254290  0.41733518  1
  Te2-  Te234  1  0.74329961  0.08656281  0.75085131  1
  Te2-  Te235  1  0.74479780  0.41448219  0.07974912  1
  Te2-  Te236  1  0.74891620  0.41492266  0.41392219  1
  Te2-  Te237  1  0.75043332  0.41802012  0.74509496  1
  Te2-  Te238  1  0.74780256  0.74466487  0.08861654  1
  Te2-  Te239  1  0.74782201  0.75377905  0.41680367  1
  Te2-  Te240  1  0.74697200  0.74622560  0.75221292  1
