# generated using pymatgen
data_Ti27(Cu53Te54)2
_symmetry_space_group_name_H-M   'P 1'
_cell_length_a   17.87283987
_cell_length_b   17.87317001
_cell_length_c   17.87202649
_cell_angle_alpha   89.98796136
_cell_angle_beta   89.98812566
_cell_angle_gamma   90.00317275
_symmetry_Int_Tables_number   1
_chemical_formula_structural   Ti27(Cu53Te54)2
_chemical_formula_sum   'Ti27 Cu106 Te108'
_cell_volume   5709.11683316
_cell_formula_units_Z   1
loop_
 _symmetry_equiv_pos_site_id
 _symmetry_equiv_pos_as_xyz
  1  'x, y, z'
loop_
 _atom_type_symbol
 _atom_type_oxidation_number
  Ti4+  4.0
  Cu+  1.0
  Te2-  -2.0
loop_
 _atom_site_type_symbol
 _atom_site_label
 _atom_site_symmetry_multiplicity
 _atom_site_fract_x
 _atom_site_fract_y
 _atom_site_fract_z
 _atom_site_occupancy
  Ti4+  Ti0  1  0.16749093  0.16509380  0.16695936  1
  Ti4+  Ti1  1  0.16978836  0.16519645  0.49949659  1
  Ti4+  Ti2  1  0.16695053  0.16339175  0.83484434  1
  Ti4+  Ti3  1  0.16643745  0.49819700  0.16563326  1
  Ti4+  Ti4  1  0.16526387  0.49733351  0.49863474  1
  Ti4+  Ti5  1  0.16580288  0.49944537  0.83431080  1
  Ti4+  Ti6  1  0.16794956  0.83358340  0.16433012  1
  Ti4+  Ti7  1  0.16111000  0.83410146  0.49821119  1
  Ti4+  Ti8  1  0.16794265  0.83348398  0.82929499  1
  Ti4+  Ti9  1  0.50056553  0.16653739  0.16779950  1
  Ti4+  Ti10  1  0.49781879  0.16936798  0.50268801  1
  Ti4+  Ti11  1  0.50209670  0.16391952  0.83475135  1
  Ti4+  Ti12  1  0.49916235  0.50186737  0.16512640  1
  Ti4+  Ti13  1  0.50095795  0.49941273  0.49568173  1
  Ti4+  Ti14  1  0.49960147  0.50072611  0.83241589  1
  Ti4+  Ti15  1  0.50351997  0.83134911  0.16885597  1
  Ti4+  Ti16  1  0.49871752  0.83174423  0.49847126  1
  Ti4+  Ti17  1  0.50207704  0.83571917  0.83530398  1
  Ti4+  Ti18  1  0.83406738  0.16787166  0.16719247  1
  Ti4+  Ti19  1  0.83217042  0.16825165  0.50032552  1
  Ti4+  Ti20  1  0.83459437  0.16602012  0.83340250  1
  Ti4+  Ti21  1  0.83425446  0.49873969  0.16692631  1
  Ti4+  Ti22  1  0.83516636  0.50456396  0.49853254  1
  Ti4+  Ti23  1  0.83020747  0.49909444  0.83352668  1
  Ti4+  Ti24  1  0.83565922  0.83467263  0.16567846  1
  Ti4+  Ti25  1  0.83224896  0.83231769  0.50651400  1
  Ti4+  Ti26  1  0.83200660  0.83408509  0.83271567  1
  Cu+  Cu27  1  0.16402349  0.16881269  0.00387035  1
  Cu+  Cu28  1  0.16679417  0.16304882  0.33214576  1
  Cu+  Cu29  1  0.17260779  0.16113868  0.66811775  1
  Cu+  Cu30  1  0.16534521  0.49945793  -0.00132210  1
  Cu+  Cu31  1  0.16719426  0.49646152  0.33205762  1
  Cu+  Cu32  1  0.16475611  0.49977941  0.67168356  1
  Cu+  Cu33  1  0.16992152  0.83428127  -0.00202950  1
  Cu+  Cu34  1  0.16592956  0.83403622  0.32981596  1
  Cu+  Cu35  1  0.15808338  0.83892691  0.66269381  1
  Cu+  Cu36  1  0.50137801  0.16409328  0.00236558  1
  Cu+  Cu37  1  0.50048657  0.16700147  0.33535011  1
  Cu+  Cu38  1  0.49403864  0.16925843  0.67314812  1
  Cu+  Cu39  1  0.50090123  0.50224565  -0.00240309  1
  Cu+  Cu40  1  0.50307128  0.50584857  0.32825929  1
  Cu+  Cu41  1  0.49898305  0.49995342  0.66348889  1
  Cu+  Cu42  1  0.50503373  0.83570897  0.00248782  1
  Cu+  Cu43  1  0.49930423  0.82389536  0.33345659  1
  Cu+  Cu44  1  0.50041783  0.83692359  0.66488153  1
  Cu+  Cu45  1  0.83550816  0.16364373  -0.00106415  1
  Cu+  Cu46  1  0.83283114  0.16727773  0.33235486  1
  Cu+  Cu47  1  0.83188823  0.17120839  0.66779341  1
  Cu+  Cu48  1  0.83122472  0.49925442  0.00113880  1
  Cu+  Cu49  1  0.83904341  0.49974757  0.33405106  1
  Cu+  Cu50  1  0.83058074  0.50003826  0.66301044  1
  Cu+  Cu51  1  0.83692812  0.83181464  0.00077684  1
  Cu+  Cu52  1  0.83575236  0.83625226  0.33150430  1
  Cu+  Cu53  1  0.82674430  0.82942837  0.67221628  1
  Cu+  Cu54  1  0.16947078  -0.00005744  0.16568806  1
  Cu+  Cu55  1  0.16634114  -0.00181423  0.50152749  1
  Cu+  Cu56  1  0.17087967  -0.00146732  0.82861842  1
  Cu+  Cu57  1  0.16365392  0.32956924  0.16491760  1
  Cu+  Cu58  1  0.17373842  0.33213408  0.49629450  1
  Cu+  Cu59  1  0.16479331  0.33620239  0.83732281  1
  Cu+  Cu60  1  0.16702785  0.66697392  0.16422205  1
  Cu+  Cu61  1  0.15800202  0.66303153  0.49813623  1
  Cu+  Cu62  1  0.16690294  0.66309030  0.83430167  1
  Cu+  Cu63  1  0.50038699  -0.00052346  0.16911769  1
  Cu+  Cu64  1  0.50164158  0.00448757  0.49886060  1
  Cu+  Cu65  1  0.50481101  -0.00118997  0.84177692  1
  Cu+  Cu66  1  0.49841387  0.33381780  0.16484180  1
  Cu+  Cu67  1  0.49430835  0.33737824  0.50313509  1
  Cu+  Cu68  1  0.49958694  0.33201319  0.83304533  1
  Cu+  Cu69  1  0.50094268  0.66641200  0.17355436  1
  Cu+  Cu70  1  0.50138927  0.66596365  0.49173681  1
  Cu+  Cu71  1  0.50184166  0.66717798  0.83289023  1
  Cu+  Cu72  1  0.83707446  0.00110236  0.16589352  1
  Cu+  Cu73  1  0.83235211  0.00176333  0.50312147  1
  Cu+  Cu74  1  0.83088439  0.00010084  0.83245129  1
  Cu+  Cu75  1  0.83227290  0.33333324  0.16762452  1
  Cu+  Cu76  1  0.83457047  0.33525633  0.50011911  1
  Cu+  Cu77  1  0.83192965  0.33183070  0.83085627  1
  Cu+  Cu78  1  0.83492924  0.66619192  0.16612785  1
  Cu+  Cu79  1  0.83401601  0.67293978  0.50141658  1
  Cu+  Cu80  1  0.83185926  0.66592937  0.83349424  1
  Cu+  Cu81  1  0.00098055  0.16803580  0.16368381  1
  Cu+  Cu82  1  0.00306761  0.16647643  0.50164773  1
  Cu+  Cu83  1  -0.00228799  0.16468048  0.83544193  1
  Cu+  Cu84  1  -0.00131244  0.49846144  0.16705766  1
  Cu+  Cu85  1  -0.00068202  0.50222475  0.49074698  1
  Cu+  Cu86  1  -0.00024457  0.49891795  0.83492510  1
  Cu+  Cu87  1  0.00274898  0.83422608  0.16427221  1
  Cu+  Cu88  1  -0.00068184  0.82479988  0.50446803  1
  Cu+  Cu89  1  0.00013678  0.83451107  0.82535843  1
  Cu+  Cu90  1  0.33451748  0.16539531  0.16836447  1
  Cu+  Cu91  1  0.33129173  0.17261993  0.50528070  1
  Cu+  Cu92  1  0.33407255  0.15940317  0.83246163  1
  Cu+  Cu93  1  0.33203715  0.49900218  0.16360961  1
  Cu+  Cu94  1  0.33286372  0.49376514  0.49473441  1
  Cu+  Cu95  1  0.33084229  0.49992893  0.83393558  1
  Cu+  Cu96  1  0.33714526  0.83021165  0.16650076  1
  Cu+  Cu97  1  0.32864528  0.83370539  0.49782124  1
  Cu+  Cu98  1  0.33493525  0.83520405  0.83555369  1
  Cu+  Cu99  1  0.66759718  0.16772985  0.16705357  1
  Cu+  Cu100  1  0.66272776  0.16566415  0.49783056  1
  Cu+  Cu101  1  0.66974666  0.16715077  0.83314414  1
  Cu+  Cu102  1  0.66801079  0.50214323  0.16644785  1
  Cu+  Cu103  1  0.67114570  0.50198440  0.50182714  1
  Cu+  Cu104  1  0.66175571  0.50218492  0.83354185  1
  Cu+  Cu105  1  0.67397353  0.83384782  0.16639220  1
  Cu+  Cu106  1  0.66202759  0.83205197  0.50642095  1
  Cu+  Cu107  1  0.66661866  0.84107703  0.83579190  1
  Cu+  Cu108  1  0.92798077  0.73245138  0.75035017  1
  Cu+  Cu109  1  0.40432820  0.41627194  0.59482532  1
  Cu+  Cu110  1  0.58939453  0.93276503  0.58998869  1
  Cu+  Cu111  1  0.06977402  0.26156971  0.07340248  1
  Cu+  Cu112  1  0.59742445  0.74112060  0.40764271  1
  Cu+  Cu113  1  0.59366557  0.07684757  0.40376929  1
  Cu+  Cu114  1  0.92364894  0.40211196  0.40611717  1
  Cu+  Cu115  1  0.40138475  0.73746357  0.25963841  1
  Cu+  Cu116  1  0.73843530  0.92981101  0.74207813  1
  Cu+  Cu117  1  0.25872448  0.92642988  0.92867678  1
  Cu+  Cu118  1  0.60074097  0.59133357  0.25746129  1
  Cu+  Cu119  1  0.74360434  0.40708227  0.58809508  1
  Cu+  Cu120  1  0.06954240  0.93246383  0.73944663  1
  Cu+  Cu121  1  0.26371214  0.40428753  0.39968587  1
  Cu+  Cu122  1  0.73145909  0.74101276  0.60050149  1
  Cu+  Cu123  1  0.92588558  0.75088907  0.40143872  1
  Cu+  Cu124  1  0.24836719  0.26325915  0.59957256  1
  Cu+  Cu125  1  0.07723979  0.59067811  0.39864687  1
  Cu+  Cu126  1  0.40222108  0.26130186  0.75526605  1
  Cu+  Cu127  1  0.25899095  0.92146899  0.58686562  1
  Cu+  Cu128  1  0.07857700  0.73282345  0.59566667  1
  Cu+  Cu129  1  0.74008141  0.26145502  0.74290740  1
  Cu+  Cu130  1  0.59174375  0.59525020  0.92676643  1
  Cu+  Cu131  1  0.59901735  0.93015003  0.93552932  1
  Cu+  Cu132  1  0.26571568  0.06937861  0.73969520  1
  Te2-  Te133  1  0.25510235  0.25105781  0.08198935  1
  Te2-  Te134  1  0.25557555  0.24963108  0.40772827  1
  Te2-  Te135  1  0.25178125  0.25583808  0.75139083  1
  Te2-  Te136  1  0.25047928  0.58430261  0.07977068  1
  Te2-  Te137  1  0.25090363  0.58581478  0.41573529  1
  Te2-  Te138  1  0.25240808  0.58553866  0.74756762  1
  Te2-  Te139  1  0.25742724  0.91911505  0.08173511  1
  Te2-  Te140  1  0.24865890  0.91858403  0.41197789  1
  Te2-  Te141  1  0.25872773  0.91660929  0.73984540  1
  Te2-  Te142  1  0.58534997  0.25221606  0.08169157  1
  Te2-  Te143  1  0.58144810  0.25679827  0.41762685  1
  Te2-  Te144  1  0.58711990  0.25269736  0.74772298  1
  Te2-  Te145  1  0.58650320  0.58932656  0.08060070  1
  Te2-  Te146  1  0.59327415  0.58595419  0.41179259  1
  Te2-  Te147  1  0.58300069  0.58568190  0.74309491  1
  Te2-  Te148  1  0.59019805  0.92114004  0.08600502  1
  Te2-  Te149  1  0.58579268  0.91823892  0.41239139  1
  Te2-  Te150  1  0.58554183  0.92464845  0.74493676  1
  Te2-  Te151  1  0.91761075  0.25481317  0.07809251  1
  Te2-  Te152  1  0.92062501  0.25043794  0.41479735  1
  Te2-  Te153  1  0.92161617  0.25223946  0.74820867  1
  Te2-  Te154  1  0.91911053  0.58401051  0.08048142  1
  Te2-  Te155  1  0.91983877  0.59530717  0.40998868  1
  Te2-  Te156  1  0.91800273  0.58173915  0.74681720  1
  Te2-  Te157  1  0.92134845  0.91936791  0.07955685  1
  Te2-  Te158  1  0.91887599  0.91687983  0.42131315  1
  Te2-  Te159  1  0.91588523  0.92268214  0.74315800  1
  Te2-  Te160  1  0.25408278  0.07914702  0.25259535  1
  Te2-  Te161  1  0.25828112  0.07555252  0.58597815  1
  Te2-  Te162  1  0.25197144  0.08002278  0.92368829  1
  Te2-  Te163  1  0.25285645  0.41026107  0.24876506  1
  Te2-  Te164  1  0.25210743  0.41477561  0.59179845  1
  Te2-  Te165  1  0.25261414  0.41419462  0.92071418  1
  Te2-  Te166  1  0.25077504  0.74577998  0.25243443  1
  Te2-  Te167  1  0.24527267  0.74673612  0.58396822  1
  Te2-  Te168  1  0.25189891  0.74714682  0.91556216  1
  Te2-  Te169  1  0.58800466  0.08011452  0.25317714  1
  Te2-  Te170  1  0.58421293  0.08515525  0.59199339  1
  Te2-  Te171  1  0.59171805  0.08302342  0.92288417  1
  Te2-  Te172  1  0.58489426  0.41481258  0.24929965  1
  Te2-  Te173  1  0.58757371  0.41527807  0.58453578  1
  Te2-  Te174  1  0.58358820  0.41243236  0.91798590  1
  Te2-  Te175  1  0.59632389  0.74588693  0.25405888  1
  Te2-  Te176  1  0.57956198  0.74130364  0.58912878  1
  Te2-  Te177  1  0.58893374  0.74914228  0.91972377  1
  Te2-  Te178  1  0.92116147  0.08342614  0.25179635  1
  Te2-  Te179  1  0.91756440  0.08479032  0.58684288  1
  Te2-  Te180  1  0.91873938  0.07710611  0.91817718  1
  Te2-  Te181  1  0.92161587  0.41096575  0.25224876  1
  Te2-  Te182  1  0.92210840  0.41838219  0.58347432  1
  Te2-  Te183  1  0.91475894  0.41411198  0.91749412  1
  Te2-  Te184  1  0.92236033  0.74733518  0.24985186  1
  Te2-  Te185  1  0.91970782  0.74415549  0.59551559  1
  Te2-  Te186  1  0.92134588  0.74901851  0.91565703  1
  Te2-  Te187  1  0.08095773  0.24978484  0.25430414  1
  Te2-  Te188  1  0.08699132  0.25146569  0.58662780  1
  Te2-  Te189  1  0.07965635  0.25131483  0.91786927  1
  Te2-  Te190  1  0.08059242  0.58569085  0.24951659  1
  Te2-  Te191  1  0.07671360  0.57972756  0.58853703  1
  Te2-  Te192  1  0.07932774  0.58551263  0.91960539  1
  Te2-  Te193  1  0.08225530  0.91979685  0.24965174  1
  Te2-  Te194  1  0.07119900  0.92449048  0.58239846  1
  Te2-  Te195  1  0.08138461  0.91814704  0.91389846  1
  Te2-  Te196  1  0.41556958  0.25215878  0.25294722  1
  Te2-  Te197  1  0.40950475  0.25786006  0.59292939  1
  Te2-  Te198  1  0.41404640  0.24807950  0.91934656  1
  Te2-  Te199  1  0.40777202  0.58481607  0.25292043  1
  Te2-  Te200  1  0.41350034  0.58531563  0.57863628  1
  Te2-  Te201  1  0.41353584  0.58664367  0.91688095  1
  Te2-  Te202  1  0.41749879  0.91621707  0.25441789  1
  Te2-  Te203  1  0.41302796  0.92023828  0.58273658  1
  Te2-  Te204  1  0.41447576  0.91979348  0.92368205  1
  Te2-  Te205  1  0.74729630  0.25284885  0.25300092  1
  Te2-  Te206  1  0.74274800  0.25450333  0.58510322  1
  Te2-  Te207  1  0.74973127  0.25130220  0.92057799  1
  Te2-  Te208  1  0.75220729  0.58673204  0.25485276  1
  Te2-  Te209  1  0.74712762  0.59116026  0.58640950  1
  Te2-  Te210  1  0.74669920  0.58668378  0.92019806  1
  Te2-  Te211  1  0.75140459  0.92135633  0.25236304  1
  Te2-  Te212  1  0.74418762  0.92386623  0.58887439  1
  Te2-  Te213  1  0.75112662  0.92085809  0.92502498  1
  Te2-  Te214  1  0.08151908  0.07812249  0.08123789  1
  Te2-  Te215  1  0.08252745  0.08003789  0.41614279  1
  Te2-  Te216  1  0.07826765  0.08231965  0.74616314  1
  Te2-  Te217  1  0.07894119  0.41451053  0.07930707  1
  Te2-  Te218  1  0.08021601  0.40784377  0.41275513  1
  Te2-  Te219  1  0.07914305  0.41263247  0.74919807  1
  Te2-  Te220  1  0.08300332  0.74892270  0.07764803  1
  Te2-  Te221  1  0.07843560  0.74646242  0.40598501  1
  Te2-  Te222  1  0.08177108  0.74047258  0.74563921  1
  Te2-  Te223  1  0.41531504  0.07963087  0.08308191  1
  Te2-  Te224  1  0.41159366  0.08454462  0.41788901  1
  Te2-  Te225  1  0.41814398  0.07180982  0.74935670  1
  Te2-  Te226  1  0.41535047  0.41605888  0.07848968  1
  Te2-  Te227  1  0.41773946  0.41408597  0.40489268  1
  Te2-  Te228  1  0.41037684  0.41384840  0.74686597  1
  Te2-  Te229  1  0.42046457  0.74656934  0.08048247  1
  Te2-  Te230  1  0.40688320  0.74485905  0.41558904  1
  Te2-  Te231  1  0.41686441  0.75119670  0.74876806  1
  Te2-  Te232  1  0.74908193  0.08173937  0.08232392  1
  Te2-  Te233  1  0.74846654  0.08022829  0.41398994  1
  Te2-  Te234  1  0.74619373  0.08120624  0.74462060  1
  Te2-  Te235  1  0.74649118  0.41438605  0.08238568  1
  Te2-  Te236  1  0.74907671  0.41695606  0.41342244  1
  Te2-  Te237  1  0.74191334  0.41473146  0.74513814  1
  Te2-  Te238  1  0.75103782  0.74689266  0.08015162  1
  Te2-  Te239  1  0.74726054  0.75198938  0.41380017  1
  Te2-  Te240  1  0.73861743  0.74446386  0.75311653  1
