# generated using pymatgen
data_Ti27(Cu53Te54)2
_symmetry_space_group_name_H-M   'P 1'
_cell_length_a   17.92833410
_cell_length_b   17.92248580
_cell_length_c   17.91778952
_cell_angle_alpha   89.98259307
_cell_angle_beta   90.03759297
_cell_angle_gamma   90.00234764
_symmetry_Int_Tables_number   1
_chemical_formula_structural   Ti27(Cu53Te54)2
_chemical_formula_sum   'Ti27 Cu106 Te108'
_cell_volume   5757.34823296
_cell_formula_units_Z   1
loop_
 _symmetry_equiv_pos_site_id
 _symmetry_equiv_pos_as_xyz
  1  'x, y, z'
loop_
 _atom_type_symbol
 _atom_type_oxidation_number
  Ti4+  4.0
  Cu+  1.0
  Te2-  -2.0
loop_
 _atom_site_type_symbol
 _atom_site_label
 _atom_site_symmetry_multiplicity
 _atom_site_fract_x
 _atom_site_fract_y
 _atom_site_fract_z
 _atom_site_occupancy
  Ti4+  Ti0  1  0.16679972  0.16723653  0.16618494  1
  Ti4+  Ti1  1  0.16503325  0.16802162  0.49934120  1
  Ti4+  Ti2  1  0.16703829  0.16718097  0.83309527  1
  Ti4+  Ti3  1  0.16767261  0.49964495  0.16919055  1
  Ti4+  Ti4  1  0.16421663  0.49900570  0.50045480  1
  Ti4+  Ti5  1  0.16576153  0.50104882  0.83460097  1
  Ti4+  Ti6  1  0.16933845  0.83568208  0.16515269  1
  Ti4+  Ti7  1  0.16486693  0.83378912  0.49670453  1
  Ti4+  Ti8  1  0.16947614  0.83498328  0.83018159  1
  Ti4+  Ti9  1  0.50396953  0.16723419  0.16656508  1
  Ti4+  Ti10  1  0.49502537  0.16271477  0.49873666  1
  Ti4+  Ti11  1  0.50175345  0.17112032  0.83088747  1
  Ti4+  Ti12  1  0.50405052  0.50226558  0.16729069  1
  Ti4+  Ti13  1  0.49663973  0.49787316  0.49956179  1
  Ti4+  Ti14  1  0.49593837  0.50232841  0.83818321  1
  Ti4+  Ti15  1  0.50231566  0.83315613  0.16726383  1
  Ti4+  Ti16  1  0.50164955  0.83247191  0.50085744  1
  Ti4+  Ti17  1  0.49929821  0.83538781  0.83462021  1
  Ti4+  Ti18  1  0.83511395  0.16837605  0.16578738  1
  Ti4+  Ti19  1  0.83090542  0.16469126  0.50168472  1
  Ti4+  Ti20  1  0.83065766  0.16162671  0.83210518  1
  Ti4+  Ti21  1  0.83927402  0.50190787  0.16983067  1
  Ti4+  Ti22  1  0.82930278  0.49975798  0.50371393  1
  Ti4+  Ti23  1  0.83535045  0.49857631  0.83728620  1
  Ti4+  Ti24  1  0.83607435  0.83301314  0.16428996  1
  Ti4+  Ti25  1  0.82644628  0.83164693  0.50048786  1
  Ti4+  Ti26  1  0.83571803  0.83126950  0.83190613  1
  Cu+  Cu27  1  0.16792325  0.16682700  0.00108034  1
  Cu+  Cu28  1  0.16590733  0.16504885  0.33184895  1
  Cu+  Cu29  1  0.16714062  0.17071803  0.66713176  1
  Cu+  Cu30  1  0.16766717  0.50203671  0.00071632  1
  Cu+  Cu31  1  0.16580593  0.49534898  0.33487568  1
  Cu+  Cu32  1  0.16257257  0.50183143  0.66896369  1
  Cu+  Cu33  1  0.17225846  0.83832857  -0.00334650  1
  Cu+  Cu34  1  0.16312246  0.83212589  0.33021922  1
  Cu+  Cu35  1  0.16736028  0.83381927  0.66334104  1
  Cu+  Cu36  1  0.50283769  0.16974383  -0.00098945  1
  Cu+  Cu37  1  0.50214320  0.16136975  0.33437428  1
  Cu+  Cu38  1  0.50031614  0.17295036  0.66289310  1
  Cu+  Cu39  1  0.49610670  0.50790454  0.00456833  1
  Cu+  Cu40  1  0.49771507  0.49518440  0.32933707  1
  Cu+  Cu41  1  0.49667420  0.50060394  0.66974288  1
  Cu+  Cu42  1  0.50058235  0.83525775  -0.00025512  1
  Cu+  Cu43  1  0.50286784  0.83360965  0.33470581  1
  Cu+  Cu44  1  0.49916588  0.83425488  0.66886229  1
  Cu+  Cu45  1  0.83587389  0.16476137  -0.00267110  1
  Cu+  Cu46  1  0.83467047  0.16833149  0.33163455  1
  Cu+  Cu47  1  0.82586969  0.15979671  0.66489964  1
  Cu+  Cu48  1  0.84378378  0.50715191  0.00186039  1
  Cu+  Cu49  1  0.83459627  0.49508567  0.34057055  1
  Cu+  Cu50  1  0.82912806  0.49914474  0.66957160  1
  Cu+  Cu51  1  0.83938918  0.83147894  -0.00064999  1
  Cu+  Cu52  1  0.82811249  0.83072620  0.32985707  1
  Cu+  Cu53  1  0.82890480  0.83468454  0.66580338  1
  Cu+  Cu54  1  0.16754039  0.00147289  0.16413821  1
  Cu+  Cu55  1  0.16464501  0.00113701  0.49666306  1
  Cu+  Cu56  1  0.17268165  0.00034615  0.83304268  1
  Cu+  Cu57  1  0.16580132  0.33134860  0.16946681  1
  Cu+  Cu58  1  0.17054773  0.33363671  0.50027940  1
  Cu+  Cu59  1  0.16390421  0.33600565  0.83432355  1
  Cu+  Cu60  1  0.16645632  0.67002597  0.16936740  1
  Cu+  Cu61  1  0.16345862  0.66641839  0.49813157  1
  Cu+  Cu62  1  0.16717903  0.66930031  0.83124302  1
  Cu+  Cu63  1  0.50371775  0.00074470  0.16668239  1
  Cu+  Cu64  1  0.49694167  -0.00333954  0.49146094  1
  Cu+  Cu65  1  0.50055986  0.00641639  0.83302632  1
  Cu+  Cu66  1  0.50570443  0.33184310  0.16829791  1
  Cu+  Cu67  1  0.49519557  0.32986256  0.50174052  1
  Cu+  Cu68  1  0.50218457  0.34014878  0.83203330  1
  Cu+  Cu69  1  0.50114161  0.66643591  0.16324968  1
  Cu+  Cu70  1  0.50207401  0.66402338  0.50065632  1
  Cu+  Cu71  1  0.49644592  0.66944527  0.83695734  1
  Cu+  Cu72  1  0.83776142  0.00006851  0.16359448  1
  Cu+  Cu73  1  0.82988730  -0.00156464  0.50656285  1
  Cu+  Cu74  1  0.83037308  -0.00574028  0.82758057  1
  Cu+  Cu75  1  0.83722110  0.33780864  0.16764425  1
  Cu+  Cu76  1  0.83243325  0.33359595  0.50036614  1
  Cu+  Cu77  1  0.83619600  0.32682068  0.83755038  1
  Cu+  Cu78  1  0.83216644  0.66709678  0.16576789  1
  Cu+  Cu79  1  0.82337208  0.66535178  0.50523320  1
  Cu+  Cu80  1  0.83894794  0.66434765  0.83738463  1
  Cu+  Cu81  1  0.00099686  0.16648332  0.16400992  1
  Cu+  Cu82  1  0.00111278  0.16781396  0.50113059  1
  Cu+  Cu83  1  -0.00061802  0.16334113  0.83379453  1
  Cu+  Cu84  1  0.00374759  0.49486833  0.16984242  1
  Cu+  Cu85  1  -0.00502195  0.49915946  0.50187743  1
  Cu+  Cu86  1  0.00073001  0.50344705  0.83803539  1
  Cu+  Cu87  1  0.00347891  0.83174087  0.16603259  1
  Cu+  Cu88  1  -0.00530214  0.83552611  0.49837923  1
  Cu+  Cu89  1  0.00582593  0.83182741  0.82930621  1
  Cu+  Cu90  1  0.33620747  0.16816136  0.16549145  1
  Cu+  Cu91  1  0.32467393  0.16349723  0.49785945  1
  Cu+  Cu92  1  0.33664023  0.17005411  0.83212508  1
  Cu+  Cu93  1  0.33734821  0.50383459  0.16833296  1
  Cu+  Cu94  1  0.33123016  0.49735834  0.49691257  1
  Cu+  Cu95  1  0.32996023  0.50208189  0.83769407  1
  Cu+  Cu96  1  0.33447965  0.83452623  0.16726501  1
  Cu+  Cu97  1  0.33388710  0.83579583  0.49822976  1
  Cu+  Cu98  1  0.33303722  0.84013588  0.83493198  1
  Cu+  Cu99  1  0.66983251  0.16884575  0.16575859  1
  Cu+  Cu100  1  0.66271508  0.15921204  0.50106859  1
  Cu+  Cu101  1  0.66799884  0.17121366  0.82562758  1
  Cu+  Cu102  1  0.67457122  0.50357360  0.16847075  1
  Cu+  Cu103  1  0.66306830  0.50049140  0.50188762  1
  Cu+  Cu104  1  0.66208292  0.49819674  0.83763376  1
  Cu+  Cu105  1  0.66908696  0.83107051  0.16587307  1
  Cu+  Cu106  1  0.66331594  0.82186632  0.50135400  1
  Cu+  Cu107  1  0.66552748  0.83276284  0.83292940  1
  Cu+  Cu108  1  0.92964546  0.24856828  0.92505874  1
  Cu+  Cu109  1  0.59400179  0.07072100  0.40371000  1
  Cu+  Cu110  1  0.59091457  0.41849505  0.74102801  1
  Cu+  Cu111  1  0.26299708  0.93092962  0.92828969  1
  Cu+  Cu112  1  0.59220637  0.25902878  0.58124301  1
  Cu+  Cu113  1  0.92477630  0.40308848  0.41750115  1
  Cu+  Cu114  1  0.92746758  0.92365289  0.59224444  1
  Cu+  Cu115  1  0.26063445  0.40707793  0.40854623  1
  Cu+  Cu116  1  0.73974785  0.74147000  0.25408138  1
  Cu+  Cu117  1  0.25354040  0.26426344  0.59955990  1
  Cu+  Cu118  1  0.58406662  0.73214136  0.40475146  1
  Cu+  Cu119  1  0.73771793  0.73498353  0.59909540  1
  Cu+  Cu120  1  0.93383784  0.59834138  0.92715839  1
  Cu+  Cu121  1  0.24855713  0.07074056  0.40205162  1
  Cu+  Cu122  1  0.74414841  0.40766837  0.26164460  1
  Cu+  Cu123  1  0.40908824  0.40205458  0.24671577  1
  Cu+  Cu124  1  0.74400981  0.59262682  0.07286563  1
  Cu+  Cu125  1  0.40428968  0.91765388  0.40315540  1
  Cu+  Cu126  1  0.07367618  0.74169497  0.25880390  1
  Cu+  Cu127  1  0.07884723  0.40110746  0.26143080  1
  Cu+  Cu128  1  0.92996616  0.40773439  0.07479810  1
  Cu+  Cu129  1  0.75210437  0.26202789  0.73887859  1
  Cu+  Cu130  1  0.73295679  0.07171791  0.59224196  1
  Cu+  Cu131  1  0.40309672  0.59764756  0.07557314  1
  Cu+  Cu132  1  0.73446344  0.91902358  0.74308586  1
  Te2-  Te133  1  0.25235983  0.25330045  0.08260510  1
  Te2-  Te134  1  0.25221160  0.25360360  0.40888041  1
  Te2-  Te135  1  0.25279091  0.25652303  0.75085737  1
  Te2-  Te136  1  0.25098680  0.58761861  0.08367736  1
  Te2-  Te137  1  0.24901309  0.58469584  0.41400641  1
  Te2-  Te138  1  0.25109970  0.58531658  0.74840240  1
  Te2-  Te139  1  0.25724079  0.92310543  0.08133771  1
  Te2-  Te140  1  0.25115320  0.91908880  0.40813616  1
  Te2-  Te141  1  0.25359071  0.92018915  0.74222509  1
  Te2-  Te142  1  0.58843961  0.25309624  0.08107331  1
  Te2-  Te143  1  0.58369160  0.25031014  0.41662884  1
  Te2-  Te144  1  0.58856082  0.26054288  0.74124422  1
  Te2-  Te145  1  0.59123022  0.58796636  0.08116409  1
  Te2-  Te146  1  0.58367063  0.58028865  0.41172703  1
  Te2-  Te147  1  0.58230871  0.58702130  0.75202904  1
  Te2-  Te148  1  0.58717801  0.91687195  0.08268016  1
  Te2-  Te149  1  0.59256818  0.91741029  0.41435189  1
  Te2-  Te150  1  0.58341742  0.92183341  0.74766209  1
  Te2-  Te151  1  0.92251771  0.25420121  0.07869403  1
  Te2-  Te152  1  0.91807307  0.24987056  0.41629339  1
  Te2-  Te153  1  0.91617068  0.24613011  0.74398400  1
  Te2-  Te154  1  0.92898273  0.59078517  0.08636903  1
  Te2-  Te155  1  0.91307626  0.58869628  0.42040116  1
  Te2-  Te156  1  0.91784536  0.58220492  0.74790503  1
  Te2-  Te157  1  0.92281244  0.91722294  0.08062616  1
  Te2-  Te158  1  0.90934751  0.91768413  0.41373764  1
  Te2-  Te159  1  0.92257701  0.91717066  0.74547266  1
  Te2-  Te160  1  0.25465011  0.08070037  0.24960492  1
  Te2-  Te161  1  0.24738281  0.07938487  0.58663264  1
  Te2-  Te162  1  0.25632783  0.08500763  0.91903526  1
  Te2-  Te163  1  0.25673359  0.41164476  0.25310358  1
  Te2-  Te164  1  0.25160945  0.41730359  0.58987279  1
  Te2-  Te165  1  0.25021291  0.41469287  0.92071929  1
  Te2-  Te166  1  0.25433169  0.74992841  0.25272281  1
  Te2-  Te167  1  0.25108892  0.74957344  0.57962127  1
  Te2-  Te168  1  0.25396071  0.74851523  0.91666539  1
  Te2-  Te169  1  0.59126953  0.07998529  0.25133852  1
  Te2-  Te170  1  0.57817581  0.07470230  0.58753941  1
  Te2-  Te171  1  0.58805956  0.08737062  0.91507540  1
  Te2-  Te172  1  0.59176515  0.41487003  0.25210767  1
  Te2-  Te173  1  0.58381472  0.41321194  0.58693113  1
  Te2-  Te174  1  0.58063526  0.41807497  0.92691383  1
  Te2-  Te175  1  0.58721400  0.74322311  0.25273591  1
  Te2-  Te176  1  0.58252122  0.74355148  0.59280514  1
  Te2-  Te177  1  0.58504112  0.74956454  0.91899237  1
  Te2-  Te178  1  0.91945188  0.08284145  0.25041797  1
  Te2-  Te179  1  0.92096558  0.08116420  0.58680324  1
  Te2-  Te180  1  0.91645780  0.07450842  0.91518142  1
  Te2-  Te181  1  0.92403210  0.41131087  0.25989379  1
  Te2-  Te182  1  0.91511818  0.41402734  0.58958486  1
  Te2-  Te183  1  0.92355631  0.40995930  0.92064139  1
  Te2-  Te184  1  0.92042273  0.74646308  0.25274350  1
  Te2-  Te185  1  0.91460565  0.74751767  0.58437976  1
  Te2-  Te186  1  0.92569594  0.74942991  0.91837545  1
  Te2-  Te187  1  0.07830192  0.24977988  0.25436305  1
  Te2-  Te188  1  0.08052771  0.25529150  0.58517364  1
  Te2-  Te189  1  0.08149906  0.25192095  0.91992370  1
  Te2-  Te190  1  0.08178516  0.58565779  0.25484657  1
  Te2-  Te191  1  0.07911302  0.58459331  0.58371600  1
  Te2-  Te192  1  0.08405259  0.59059065  0.92186469  1
  Te2-  Te193  1  0.08208778  0.92152051  0.24947144  1
  Te2-  Te194  1  0.08082118  0.91993132  0.58314510  1
  Te2-  Te195  1  0.08265564  0.92021976  0.91557937  1
  Te2-  Te196  1  0.41707039  0.25024894  0.25483333  1
  Te2-  Te197  1  0.40651320  0.24985040  0.58311362  1
  Te2-  Te198  1  0.41837899  0.25547580  0.91678671  1
  Te2-  Te199  1  0.41818716  0.58909175  0.25334644  1
  Te2-  Te200  1  0.41289734  0.58344311  0.58339247  1
  Te2-  Te201  1  0.40895826  0.59057480  0.92179291  1
  Te2-  Te202  1  0.41673275  0.92000155  0.25164015  1
  Te2-  Te203  1  0.41569868  0.91877710  0.58523276  1
  Te2-  Te204  1  0.41691789  0.92494588  0.92058704  1
  Te2-  Te205  1  0.74959720  0.25466729  0.25204887  1
  Te2-  Te206  1  0.74421670  0.25566988  0.58547899  1
  Te2-  Te207  1  0.74635059  0.24857175  0.91967811  1
  Te2-  Te208  1  0.75249500  0.58657028  0.25926952  1
  Te2-  Te209  1  0.74025396  0.58231587  0.59166975  1
  Te2-  Te210  1  0.74689121  0.58504056  0.91932386  1
  Te2-  Te211  1  0.74976730  0.92061539  0.24740302  1
  Te2-  Te212  1  0.73588981  0.91848465  0.58673494  1
  Te2-  Te213  1  0.75073241  0.91470416  0.91951077  1
  Te2-  Te214  1  0.08217832  0.08196884  0.08003163  1
  Te2-  Te215  1  0.07809314  0.08226496  0.41327480  1
  Te2-  Te216  1  0.08399028  0.08199763  0.74794120  1
  Te2-  Te217  1  0.08467432  0.41320230  0.07964208  1
  Te2-  Te218  1  0.07643432  0.40940596  0.41563712  1
  Te2-  Te219  1  0.07790013  0.41684370  0.75046955  1
  Te2-  Te220  1  0.08655009  0.75078828  0.07695430  1
  Te2-  Te221  1  0.07616888  0.74815475  0.41409370  1
  Te2-  Te222  1  0.08446846  0.74806044  0.74373943  1
  Te2-  Te223  1  0.41907910  0.08329531  0.08116533  1
  Te2-  Te224  1  0.40706410  0.07822300  0.40909965  1
  Te2-  Te225  1  0.41679792  0.08640686  0.74563903  1
  Te2-  Te226  1  0.41726996  0.41378753  0.08448529  1
  Te2-  Te227  1  0.41369572  0.40911327  0.41169482  1
  Te2-  Te228  1  0.40975165  0.41771478  0.75147082  1
  Te2-  Te229  1  0.41461569  0.75037433  0.08041069  1
  Te2-  Te230  1  0.41563924  0.74661356  0.41482987  1
  Te2-  Te231  1  0.41254972  0.75128363  0.75047598  1
  Te2-  Te232  1  0.75112486  0.08271103  0.08118478  1
  Te2-  Te233  1  0.74928944  0.07939703  0.41177594  1
  Te2-  Te234  1  0.73992511  0.07371789  0.74501837  1
  Te2-  Te235  1  0.75415671  0.41921977  0.07926425  1
  Te2-  Te236  1  0.74147860  0.41209086  0.41762942  1
  Te2-  Te237  1  0.74673943  0.41295258  0.75132984  1
  Te2-  Te238  1  0.74876234  0.74746910  0.07580103  1
  Te2-  Te239  1  0.74293947  0.74175344  0.40994314  1
  Te2-  Te240  1  0.74812886  0.74225184  0.75103796  1
