# generated using pymatgen
data_Ti27(Cu53Te54)2
_symmetry_space_group_name_H-M   'P 1'
_cell_length_a   17.88139494
_cell_length_b   17.88015861
_cell_length_c   17.88546274
_cell_angle_alpha   89.93755282
_cell_angle_beta   89.97044484
_cell_angle_gamma   90.01588647
_symmetry_Int_Tables_number   1
_chemical_formula_structural   Ti27(Cu53Te54)2
_chemical_formula_sum   'Ti27 Cu106 Te108'
_cell_volume   5718.37472047
_cell_formula_units_Z   1
loop_
 _symmetry_equiv_pos_site_id
 _symmetry_equiv_pos_as_xyz
  1  'x, y, z'
loop_
 _atom_type_symbol
 _atom_type_oxidation_number
  Ti4+  4.0
  Cu+  1.0
  Te2-  -2.0
loop_
 _atom_site_type_symbol
 _atom_site_label
 _atom_site_symmetry_multiplicity
 _atom_site_fract_x
 _atom_site_fract_y
 _atom_site_fract_z
 _atom_site_occupancy
  Ti4+  Ti0  1  0.16336795  0.16549079  0.17326201  1
  Ti4+  Ti1  1  0.16228852  0.16499834  0.50149762  1
  Ti4+  Ti2  1  0.16478387  0.16797324  0.83948074  1
  Ti4+  Ti3  1  0.16789664  0.50323051  0.16414224  1
  Ti4+  Ti4  1  0.16594008  0.49970166  0.49741515  1
  Ti4+  Ti5  1  0.16854357  0.49958792  0.82747384  1
  Ti4+  Ti6  1  0.16215695  0.83410054  0.16979601  1
  Ti4+  Ti7  1  0.16974815  0.83402420  0.49898151  1
  Ti4+  Ti8  1  0.17040712  0.83354338  0.83270866  1
  Ti4+  Ti9  1  0.49731143  0.16518054  0.16733900  1
  Ti4+  Ti10  1  0.50059081  0.16636504  0.50096536  1
  Ti4+  Ti11  1  0.49914563  0.16220127  0.83646218  1
  Ti4+  Ti12  1  0.50068175  0.49607597  0.16681527  1
  Ti4+  Ti13  1  0.50280590  0.49884740  0.49963177  1
  Ti4+  Ti14  1  0.49925102  0.49937514  0.83326046  1
  Ti4+  Ti15  1  0.50264977  0.83166858  0.16666470  1
  Ti4+  Ti16  1  0.50032563  0.83687895  0.49755904  1
  Ti4+  Ti17  1  0.49744887  0.83492829  0.83365122  1
  Ti4+  Ti18  1  0.83431720  0.16612854  0.16562872  1
  Ti4+  Ti19  1  0.83265999  0.16844215  0.49811712  1
  Ti4+  Ti20  1  0.83667848  0.16506986  0.83293566  1
  Ti4+  Ti21  1  0.83344147  0.50074854  0.16551348  1
  Ti4+  Ti22  1  0.82899705  0.50131634  0.50066142  1
  Ti4+  Ti23  1  0.83270013  0.49929116  0.83211512  1
  Ti4+  Ti24  1  0.83181542  0.83342099  0.16540597  1
  Ti4+  Ti25  1  0.83310262  0.83373696  0.50096804  1
  Ti4+  Ti26  1  0.83386489  0.83222345  0.83223236  1
  Cu+  Cu27  1  0.16265062  0.16795653  0.00733972  1
  Cu+  Cu28  1  0.15750943  0.15989573  0.33762675  1
  Cu+  Cu29  1  0.16336234  0.16895639  0.67235422  1
  Cu+  Cu30  1  0.16844059  0.50121647  -0.00609370  1
  Cu+  Cu31  1  0.16509745  0.50046873  0.33008531  1
  Cu+  Cu32  1  0.17096067  0.50066166  0.65803544  1
  Cu+  Cu33  1  0.16703066  0.83279840  0.00385517  1
  Cu+  Cu34  1  0.16878095  0.83804210  0.33244279  1
  Cu+  Cu35  1  0.17019960  0.83105752  0.66620215  1
  Cu+  Cu36  1  0.49677594  0.15731559  0.00233796  1
  Cu+  Cu37  1  0.49897912  0.16655677  0.33286894  1
  Cu+  Cu38  1  0.49990568  0.16630802  0.66587090  1
  Cu+  Cu39  1  0.49861353  0.49778449  0.00073287  1
  Cu+  Cu40  1  0.50474913  0.49969239  0.33132572  1
  Cu+  Cu41  1  0.49899916  0.49829683  0.66790678  1
  Cu+  Cu42  1  0.50071548  0.83642021  -0.00233871  1
  Cu+  Cu43  1  0.50479703  0.82878663  0.33473329  1
  Cu+  Cu44  1  0.49835593  0.84087176  0.66389518  1
  Cu+  Cu45  1  0.84097713  0.16496039  -0.00191566  1
  Cu+  Cu46  1  0.83425321  0.17230443  0.33060717  1
  Cu+  Cu47  1  0.83491262  0.16454158  0.66413501  1
  Cu+  Cu48  1  0.83386137  0.49895690  0.00105060  1
  Cu+  Cu49  1  0.83197657  0.49932227  0.33456232  1
  Cu+  Cu50  1  0.82592513  0.50321811  0.66711860  1
  Cu+  Cu51  1  0.83240524  0.83053772  -0.00216889  1
  Cu+  Cu52  1  0.82970258  0.83739757  0.33325441  1
  Cu+  Cu53  1  0.83348769  0.83153374  0.66810544  1
  Cu+  Cu54  1  0.16174705  -0.00225894  0.18015723  1
  Cu+  Cu55  1  0.17047255  0.00054454  0.49925122  1
  Cu+  Cu56  1  0.16944844  0.00382622  0.83464656  1
  Cu+  Cu57  1  0.16525547  0.33942425  0.16742047  1
  Cu+  Cu58  1  0.16125697  0.33323546  0.49760367  1
  Cu+  Cu59  1  0.16104587  0.33168910  0.82973544  1
  Cu+  Cu60  1  0.16681435  0.67130580  0.16297557  1
  Cu+  Cu61  1  0.16834427  0.66537988  0.49926903  1
  Cu+  Cu62  1  0.17345817  0.66630536  0.82987613  1
  Cu+  Cu63  1  0.50244742  0.00230889  0.16399353  1
  Cu+  Cu64  1  0.50486071  0.00001306  0.50326568  1
  Cu+  Cu65  1  0.49263372  -0.00301569  0.84053630  1
  Cu+  Cu66  1  0.49825494  0.33018989  0.16672764  1
  Cu+  Cu67  1  0.50001324  0.33100017  0.49950149  1
  Cu+  Cu68  1  0.49996653  0.33167602  0.83489363  1
  Cu+  Cu69  1  0.50210969  0.66029674  0.16922695  1
  Cu+  Cu70  1  0.50293795  0.67053537  0.49693905  1
  Cu+  Cu71  1  0.49907343  0.66895222  0.83249690  1
  Cu+  Cu72  1  0.83553059  0.00014015  0.16091474  1
  Cu+  Cu73  1  0.83096459  0.00104492  0.49509148  1
  Cu+  Cu74  1  0.83554161  -0.00200541  0.83111911  1
  Cu+  Cu75  1  0.83429722  0.33489569  0.16795784  1
  Cu+  Cu76  1  0.82731905  0.33763474  0.50224331  1
  Cu+  Cu77  1  0.83789815  0.33132116  0.83541886  1
  Cu+  Cu78  1  0.83218403  0.66787028  0.16612676  1
  Cu+  Cu79  1  0.83508067  0.66503498  0.50537353  1
  Cu+  Cu80  1  0.82948457  0.66617775  0.83042576  1
  Cu+  Cu81  1  -0.00364043  0.16235289  0.17321870  1
  Cu+  Cu82  1  -0.00169774  0.17165813  0.49649836  1
  Cu+  Cu83  1  -0.00029238  0.17532395  0.83859986  1
  Cu+  Cu84  1  0.00175522  0.50312169  0.16409089  1
  Cu+  Cu85  1  -0.00505522  0.50157837  0.50080429  1
  Cu+  Cu86  1  0.00310059  0.49687112  0.82792658  1
  Cu+  Cu87  1  -0.00421168  0.83326453  0.16753122  1
  Cu+  Cu88  1  0.00406512  0.83161789  0.50042723  1
  Cu+  Cu89  1  0.00142964  0.83252393  0.83532516  1
  Cu+  Cu90  1  0.33179699  0.16789607  0.16980405  1
  Cu+  Cu91  1  0.33350212  0.16496532  0.50178644  1
  Cu+  Cu92  1  0.33220175  0.15921922  0.84091369  1
  Cu+  Cu93  1  0.33731529  0.50119543  0.16189306  1
  Cu+  Cu94  1  0.33546246  0.49887304  0.49707135  1
  Cu+  Cu95  1  0.33288916  0.50041316  0.83395911  1
  Cu+  Cu96  1  0.33384329  0.83306313  0.16791924  1
  Cu+  Cu97  1  0.33654323  0.83370556  0.49802027  1
  Cu+  Cu98  1  0.33392132  0.83361899  0.82521684  1
  Cu+  Cu99  1  0.66502570  0.16534296  0.16331307  1
  Cu+  Cu100  1  0.66539597  0.16644756  0.49860181  1
  Cu+  Cu101  1  0.67104750  0.16407413  0.83303742  1
  Cu+  Cu102  1  0.66680953  0.49712457  0.16892963  1
  Cu+  Cu103  1  0.66811648  0.49480867  0.50496847  1
  Cu+  Cu104  1  0.66596743  0.50136042  0.83110727  1
  Cu+  Cu105  1  0.67018772  0.83220609  0.16645064  1
  Cu+  Cu106  1  0.66775725  0.84014091  0.49620050  1
  Cu+  Cu107  1  0.66494455  0.83448322  0.83448173  1
  Cu+  Cu108  1  0.26013244  0.74819955  0.07760776  1
  Cu+  Cu109  1  0.59853430  0.74042089  0.41230656  1
  Cu+  Cu110  1  0.07013255  0.25966842  0.73989021  1
  Cu+  Cu111  1  0.25828391  0.59213348  0.92308838  1
  Cu+  Cu112  1  0.59760133  0.92277341  0.92670456  1
  Cu+  Cu113  1  0.59727855  0.58830947  0.25905289  1
  Cu+  Cu114  1  0.92667991  0.26590919  0.93082734  1
  Cu+  Cu115  1  0.07541131  0.26374621  0.40617812  1
  Cu+  Cu116  1  0.26152903  0.73861260  0.73627994  1
  Cu+  Cu117  1  0.92354547  0.26599110  0.25973678  1
  Cu+  Cu118  1  0.73844255  0.40225898  0.59916020  1
  Cu+  Cu119  1  0.26336591  0.07992898  0.40941417  1
  Cu+  Cu120  1  0.26741026  0.59250061  0.58032029  1
  Cu+  Cu121  1  0.59633596  0.07524122  0.07490312  1
  Cu+  Cu122  1  0.59873470  0.92727176  0.59502692  1
  Cu+  Cu123  1  0.26647879  0.92334051  0.25642286  1
  Cu+  Cu124  1  0.39920523  0.06830741  0.93551546  1
  Cu+  Cu125  1  0.92681763  0.59137661  0.59614094  1
  Cu+  Cu126  1  0.06384200  0.06726783  0.26734277  1
  Cu+  Cu127  1  0.25719810  0.08230690  0.74137195  1
  Cu+  Cu128  1  0.40701351  0.92855778  0.73514503  1
  Cu+  Cu129  1  0.93015789  0.06988089  0.06959326  1
  Cu+  Cu130  1  0.73446752  0.59775806  0.74127096  1
  Cu+  Cu131  1  0.41660004  0.59249369  0.07318519  1
  Cu+  Cu132  1  0.74096437  0.93285691  0.40058152  1
  Te2-  Te133  1  0.24794332  0.25141214  0.08778423  1
  Te2-  Te134  1  0.24859727  0.24894726  0.41400148  1
  Te2-  Te135  1  0.25562176  0.24970843  0.75339708  1
  Te2-  Te136  1  0.25671000  0.59091159  0.07604299  1
  Te2-  Te137  1  0.25240432  0.58436621  0.41158445  1
  Te2-  Te138  1  0.25918326  0.58533652  0.73907793  1
  Te2-  Te139  1  0.24880054  0.92289610  0.08626593  1
  Te2-  Te140  1  0.25815667  0.92170557  0.41241657  1
  Te2-  Te141  1  0.25265897  0.92498135  0.74316554  1
  Te2-  Te142  1  0.58171961  0.24997072  0.07859593  1
  Te2-  Te143  1  0.58461513  0.25099188  0.41373597  1
  Te2-  Te144  1  0.58448834  0.24775300  0.75155963  1
  Te2-  Te145  1  0.58762974  0.58253520  0.07950221  1
  Te2-  Te146  1  0.59208447  0.58509377  0.41494917  1
  Te2-  Te147  1  0.58284817  0.58781208  0.74599297  1
  Te2-  Te148  1  0.58961000  0.91895068  0.08067356  1
  Te2-  Te149  1  0.58597081  0.92518050  0.40787738  1
  Te2-  Te150  1  0.58526015  0.92369775  0.74943758  1
  Te2-  Te151  1  0.92313945  0.25458560  0.08295637  1
  Te2-  Te152  1  0.91699570  0.26107655  0.41409512  1
  Te2-  Te153  1  0.91865760  0.25347737  0.74279840  1
  Te2-  Te154  1  0.91767776  0.58700354  0.08069275  1
  Te2-  Te155  1  0.91580195  0.58652759  0.41374433  1
  Te2-  Te156  1  0.92032983  0.58606204  0.74752187  1
  Te2-  Te157  1  0.91991715  0.91644026  0.07656278  1
  Te2-  Te158  1  0.92035366  0.91675184  0.41623099  1
  Te2-  Te159  1  0.92099476  0.91613163  0.74743409  1
  Te2-  Te160  1  0.25583694  0.08002170  0.25770392  1
  Te2-  Te161  1  0.25045790  0.08228588  0.58937103  1
  Te2-  Te162  1  0.24740241  0.07945784  0.93001411  1
  Te2-  Te163  1  0.25369024  0.41876777  0.24962219  1
  Te2-  Te164  1  0.25269422  0.41017844  0.57922147  1
  Te2-  Te165  1  0.25034816  0.41125528  0.91388802  1
  Te2-  Te166  1  0.25150570  0.74749025  0.25408258  1
  Te2-  Te167  1  0.25839376  0.74644865  0.58381029  1
  Te2-  Te168  1  0.25797673  0.74868340  0.92114842  1
  Te2-  Te169  1  0.58591290  0.08145701  0.25314545  1
  Te2-  Te170  1  0.58917536  0.08180608  0.58855105  1
  Te2-  Te171  1  0.59100495  0.07650430  0.92027276  1
  Te2-  Te172  1  0.58612093  0.40853816  0.25181680  1
  Te2-  Te173  1  0.58352027  0.41053179  0.58871292  1
  Te2-  Te174  1  0.58515792  0.41525384  0.91812899  1
  Te2-  Te175  1  0.59056832  0.74493330  0.25175976  1
  Te2-  Te176  1  0.58623499  0.75342473  0.58570985  1
  Te2-  Te177  1  0.58401650  0.74752618  0.91867170  1
  Te2-  Te178  1  0.91371917  0.07543933  0.25777977  1
  Te2-  Te179  1  0.91828156  0.08182196  0.58016012  1
  Te2-  Te180  1  0.92454537  0.07587980  0.91628530  1
  Te2-  Te181  1  0.92175099  0.41839062  0.25318259  1
  Te2-  Te182  1  0.91514391  0.41607144  0.58802141  1
  Te2-  Te183  1  0.92241305  0.41719229  0.91938245  1
  Te2-  Te184  1  0.91468577  0.74918936  0.25360364  1
  Te2-  Te185  1  0.92130445  0.74885427  0.58742088  1
  Te2-  Te186  1  0.91765777  0.74523289  0.91644530  1
  Te2-  Te187  1  0.07820356  0.25815750  0.25466571  1
  Te2-  Te188  1  0.07788104  0.25371383  0.58767717  1
  Te2-  Te189  1  0.08138775  0.25755765  0.92768492  1
  Te2-  Te190  1  0.08289992  0.58868103  0.24893968  1
  Te2-  Te191  1  0.07976196  0.58711161  0.58463789  1
  Te2-  Te192  1  0.08255010  0.58591719  0.91174009  1
  Te2-  Te193  1  0.07100994  0.91565010  0.25894520  1
  Te2-  Te194  1  0.08529884  0.91749817  0.58522228  1
  Te2-  Te195  1  0.08527778  0.91775726  0.91839261  1
  Te2-  Te196  1  0.41319854  0.25178510  0.25372480  1
  Te2-  Te197  1  0.41389240  0.25135016  0.58545765  1
  Te2-  Te198  1  0.41521388  0.24893601  0.92110432  1
  Te2-  Te199  1  0.41377891  0.58291637  0.25440818  1
  Te2-  Te200  1  0.41917737  0.58726645  0.58395011  1
  Te2-  Te201  1  0.41358824  0.58929290  0.91929160  1
  Te2-  Te202  1  0.42048404  0.91825279  0.25271492  1
  Te2-  Te203  1  0.40992764  0.92406056  0.58219442  1
  Te2-  Te204  1  0.40457518  0.91543140  0.92388794  1
  Te2-  Te205  1  0.74487349  0.25179871  0.24794207  1
  Te2-  Te206  1  0.74550713  0.24978606  0.58702525  1
  Te2-  Te207  1  0.75054449  0.24975658  0.91985366  1
  Te2-  Te208  1  0.74882143  0.58657273  0.25345495  1
  Te2-  Te209  1  0.74001656  0.59108179  0.58656240  1
  Te2-  Te210  1  0.74824074  0.58343364  0.91918128  1
  Te2-  Te211  1  0.74591194  0.92393880  0.24874814  1
  Te2-  Te212  1  0.75014802  0.92181358  0.58893605  1
  Te2-  Te213  1  0.74998678  0.92012563  0.91918734  1
  Te2-  Te214  1  0.08087715  0.07731864  0.08558127  1
  Te2-  Te215  1  0.07278085  0.07368629  0.41961379  1
  Te2-  Te216  1  0.07707437  0.08290943  0.75386774  1
  Te2-  Te217  1  0.08284324  0.41884883  0.07832918  1
  Te2-  Te218  1  0.07573353  0.41766348  0.41155333  1
  Te2-  Te219  1  0.08250139  0.41516532  0.73930696  1
  Te2-  Te220  1  0.07634136  0.74962683  0.08118240  1
  Te2-  Te221  1  0.08545679  0.74860819  0.41374663  1
  Te2-  Te222  1  0.08343781  0.74822804  0.74890804  1
  Te2-  Te223  1  0.40603963  0.07647093  0.08555691  1
  Te2-  Te224  1  0.41677380  0.07845824  0.41459856  1
  Te2-  Te225  1  0.41243788  0.07961045  0.74453016  1
  Te2-  Te226  1  0.41429780  0.40987381  0.07983574  1
  Te2-  Te227  1  0.41829722  0.41503651  0.41335669  1
  Te2-  Te228  1  0.41430143  0.41332894  0.74975026  1
  Te2-  Te229  1  0.41648300  0.74738984  0.07978070  1
  Te2-  Te230  1  0.41404082  0.74804998  0.41270104  1
  Te2-  Te231  1  0.41676666  0.74643049  0.74195284  1
  Te2-  Te232  1  0.74928028  0.08111912  0.07651018  1
  Te2-  Te233  1  0.74631588  0.08546828  0.40974589  1
  Te2-  Te234  1  0.75128799  0.08003785  0.74696435  1
  Te2-  Te235  1  0.74838386  0.41383987  0.08166765  1
  Te2-  Te236  1  0.74487197  0.41471223  0.41198224  1
  Te2-  Te237  1  0.74625307  0.40862032  0.75084252  1
  Te2-  Te238  1  0.74742343  0.74698250  0.07965543  1
  Te2-  Te239  1  0.74961736  0.74497894  0.41527415  1
  Te2-  Te240  1  0.74286867  0.74982141  0.74606489  1
