# generated using pymatgen
data_Ti27(Cu53Te54)2
_symmetry_space_group_name_H-M   'P 1'
_cell_length_a   17.87372388
_cell_length_b   17.87394337
_cell_length_c   17.87647897
_cell_angle_alpha   90.00004190
_cell_angle_beta   90.01554735
_cell_angle_gamma   89.98997880
_symmetry_Int_Tables_number   1
_chemical_formula_structural   Ti27(Cu53Te54)2
_chemical_formula_sum   'Ti27 Cu106 Te108'
_cell_volume   5711.06866656
_cell_formula_units_Z   1
loop_
 _symmetry_equiv_pos_site_id
 _symmetry_equiv_pos_as_xyz
  1  'x, y, z'
loop_
 _atom_type_symbol
 _atom_type_oxidation_number
  Ti4+  4.0
  Cu+  1.0
  Te2-  -2.0
loop_
 _atom_site_type_symbol
 _atom_site_label
 _atom_site_symmetry_multiplicity
 _atom_site_fract_x
 _atom_site_fract_y
 _atom_site_fract_z
 _atom_site_occupancy
  Ti4+  Ti0  1  0.16773816  0.16253946  0.16563398  1
  Ti4+  Ti1  1  0.16986349  0.16227265  0.50155964  1
  Ti4+  Ti2  1  0.16312090  0.16940446  0.83915573  1
  Ti4+  Ti3  1  0.16950211  0.50094296  0.16806079  1
  Ti4+  Ti4  1  0.16508553  0.50149821  0.50097648  1
  Ti4+  Ti5  1  0.17106024  0.50010330  0.83468133  1
  Ti4+  Ti6  1  0.16520289  0.83441551  0.16505266  1
  Ti4+  Ti7  1  0.16532028  0.83790795  0.49795415  1
  Ti4+  Ti8  1  0.16552925  0.83308857  0.83344086  1
  Ti4+  Ti9  1  0.50086399  0.16563777  0.16377419  1
  Ti4+  Ti10  1  0.49922010  0.16791747  0.49733955  1
  Ti4+  Ti11  1  0.49990540  0.16798827  0.83077134  1
  Ti4+  Ti12  1  0.49986841  0.49816859  0.16561995  1
  Ti4+  Ti13  1  0.49759033  0.49860821  0.49960701  1
  Ti4+  Ti14  1  0.50092263  0.50290351  0.83445105  1
  Ti4+  Ti15  1  0.50250174  0.83251636  0.16632909  1
  Ti4+  Ti16  1  0.50155431  0.83134187  0.50333523  1
  Ti4+  Ti17  1  0.49923488  0.83419489  0.83032003  1
  Ti4+  Ti18  1  0.83225167  0.16703667  0.16706084  1
  Ti4+  Ti19  1  0.83479941  0.16703890  0.50145455  1
  Ti4+  Ti20  1  0.83337841  0.16491543  0.83403269  1
  Ti4+  Ti21  1  0.83349568  0.50087520  0.16886893  1
  Ti4+  Ti22  1  0.83260460  0.49835960  0.50029419  1
  Ti4+  Ti23  1  0.83562494  0.50029560  0.83465736  1
  Ti4+  Ti24  1  0.83146158  0.83198229  0.16363978  1
  Ti4+  Ti25  1  0.83079225  0.83627185  0.49715828  1
  Ti4+  Ti26  1  0.83152975  0.83411876  0.83101210  1
  Cu+  Cu27  1  0.16303988  0.15841066  0.00174630  1
  Cu+  Cu28  1  0.17021638  0.16229941  0.33439249  1
  Cu+  Cu29  1  0.16798691  0.16639108  0.67264314  1
  Cu+  Cu30  1  0.17562083  0.49849728  0.00300511  1
  Cu+  Cu31  1  0.16872875  0.49760432  0.33677858  1
  Cu+  Cu32  1  0.16430976  0.50555968  0.66620237  1
  Cu+  Cu33  1  0.16424934  0.83242092  0.00001411  1
  Cu+  Cu34  1  0.16378372  0.84177525  0.32982287  1
  Cu+  Cu35  1  0.16542370  0.83485898  0.66592375  1
  Cu+  Cu36  1  0.50040576  0.16716536  -0.00143217  1
  Cu+  Cu37  1  0.49982400  0.16793583  0.32851041  1
  Cu+  Cu38  1  0.49993255  0.17227676  0.66266265  1
  Cu+  Cu39  1  0.49906119  0.49794535  -0.00218903  1
  Cu+  Cu40  1  0.49745865  0.49845001  0.33227066  1
  Cu+  Cu41  1  0.49703977  0.50315055  0.66679188  1
  Cu+  Cu42  1  0.50125013  0.83172012  -0.00273665  1
  Cu+  Cu43  1  0.50234288  0.83324333  0.33784763  1
  Cu+  Cu44  1  0.50653835  0.82734246  0.67073361  1
  Cu+  Cu45  1  0.83597073  0.16749656  -0.00056982  1
  Cu+  Cu46  1  0.83347294  0.16683285  0.33560487  1
  Cu+  Cu47  1  0.83448518  0.16542966  0.66811637  1
  Cu+  Cu48  1  0.83395787  0.50461038  0.00438113  1
  Cu+  Cu49  1  0.83057837  0.49650226  0.33439349  1
  Cu+  Cu50  1  0.83556514  0.49889611  0.66751134  1
  Cu+  Cu51  1  0.82829434  0.83681666  -0.00044420  1
  Cu+  Cu52  1  0.83077189  0.82918749  0.32737530  1
  Cu+  Cu53  1  0.82888779  0.83831913  0.66253104  1
  Cu+  Cu54  1  0.17268336  -0.00257247  0.16471805  1
  Cu+  Cu55  1  0.16965615  -0.00302982  0.49591466  1
  Cu+  Cu56  1  0.16253214  0.00386542  0.83653559  1
  Cu+  Cu57  1  0.16939620  0.33097489  0.16634446  1
  Cu+  Cu58  1  0.16902222  0.33404075  0.50017239  1
  Cu+  Cu59  1  0.15999646  0.33750124  0.84252474  1
  Cu+  Cu60  1  0.16441844  0.66903660  0.16824689  1
  Cu+  Cu61  1  0.16216231  0.67074241  0.49784226  1
  Cu+  Cu62  1  0.16912388  0.66471157  0.83192332  1
  Cu+  Cu63  1  0.50260609  0.00004830  0.16611579  1
  Cu+  Cu64  1  0.49810834  -0.00017244  0.50063057  1
  Cu+  Cu65  1  0.49778057  0.00115519  0.83345352  1
  Cu+  Cu66  1  0.50113949  0.32905633  0.16549847  1
  Cu+  Cu67  1  0.50062563  0.33104420  0.50102980  1
  Cu+  Cu68  1  0.50038596  0.33480255  0.83165105  1
  Cu+  Cu69  1  0.50074908  0.66524475  0.16673690  1
  Cu+  Cu70  1  0.49906266  0.66463013  0.49974843  1
  Cu+  Cu71  1  0.49843732  0.66735563  0.82590962  1
  Cu+  Cu72  1  0.83318512  0.00080865  0.16305961  1
  Cu+  Cu73  1  0.83760158  0.00236245  0.50089502  1
  Cu+  Cu74  1  0.82907580  -0.00263179  0.82761546  1
  Cu+  Cu75  1  0.83180239  0.33600344  0.17108880  1
  Cu+  Cu76  1  0.83446055  0.33274701  0.49884977  1
  Cu+  Cu77  1  0.83705231  0.33152667  0.83553452  1
  Cu+  Cu78  1  0.82716822  0.66574823  0.16551751  1
  Cu+  Cu79  1  0.83111380  0.66501195  0.49840542  1
  Cu+  Cu80  1  0.83662427  0.66638089  0.83586806  1
  Cu+  Cu81  1  0.00028069  0.16704554  0.16826491  1
  Cu+  Cu82  1  0.00214859  0.16635309  0.50152226  1
  Cu+  Cu83  1  -0.00375723  0.16841111  0.84540724  1
  Cu+  Cu84  1  0.00038168  0.50304995  0.17027804  1
  Cu+  Cu85  1  -0.00189114  0.50075600  0.50111983  1
  Cu+  Cu86  1  0.00357855  0.50031845  0.83260724  1
  Cu+  Cu87  1  -0.00281868  0.83194991  0.16425567  1
  Cu+  Cu88  1  -0.00298469  0.84308626  0.49613758  1
  Cu+  Cu89  1  -0.00119496  0.83122928  0.83213199  1
  Cu+  Cu90  1  0.33598438  0.16247234  0.16070900  1
  Cu+  Cu91  1  0.33633493  0.15739600  0.49961716  1
  Cu+  Cu92  1  0.32879235  0.17075881  0.83080290  1
  Cu+  Cu93  1  0.33242470  0.49688471  0.16281200  1
  Cu+  Cu94  1  0.32868547  0.49751762  0.49832387  1
  Cu+  Cu95  1  0.33833426  0.50723460  0.84011710  1
  Cu+  Cu96  1  0.33547153  0.83377119  0.16777404  1
  Cu+  Cu97  1  0.33595127  0.83462215  0.50252084  1
  Cu+  Cu98  1  0.33387136  0.83357246  0.83493582  1
  Cu+  Cu99  1  0.66485516  0.16787462  0.16542996  1
  Cu+  Cu100  1  0.66695862  0.17152586  0.50004467  1
  Cu+  Cu101  1  0.66626112  0.16710735  0.83164401  1
  Cu+  Cu102  1  0.66836730  0.49917916  0.16725751  1
  Cu+  Cu103  1  0.66401961  0.49987214  0.49979560  1
  Cu+  Cu104  1  0.66952128  0.49894019  0.83424910  1
  Cu+  Cu105  1  0.66816373  0.83184739  0.16574281  1
  Cu+  Cu106  1  0.66749936  0.82905365  0.50439423  1
  Cu+  Cu107  1  0.66544033  0.83525132  0.82489180  1
  Cu+  Cu108  1  0.73911341  0.93164532  0.07588726  1
  Cu+  Cu109  1  0.41474833  0.40250330  0.92439473  1
  Cu+  Cu110  1  0.92057591  0.26355555  0.93285021  1
  Cu+  Cu111  1  0.26425291  0.07195946  0.40521246  1
  Cu+  Cu112  1  0.26686998  0.92212002  0.25672656  1
  Cu+  Cu113  1  0.07213685  0.59317451  0.74014706  1
  Cu+  Cu114  1  0.73679228  0.59067928  0.07150637  1
  Cu+  Cu115  1  0.40740597  0.59557642  0.73487172  1
  Cu+  Cu116  1  0.92646943  0.92828153  0.59481045  1
  Cu+  Cu117  1  0.41706300  0.07336834  0.59574605  1
  Cu+  Cu118  1  0.74634051  0.73498160  0.59236259  1
  Cu+  Cu119  1  0.25903455  0.40496203  0.40821200  1
  Cu+  Cu120  1  0.73784143  0.40345226  0.26252799  1
  Cu+  Cu121  1  0.26424061  0.91531636  0.59776224  1
  Cu+  Cu122  1  0.26023611  0.40048138  0.07559421  1
  Cu+  Cu123  1  0.59681007  0.26161164  0.59167549  1
  Cu+  Cu124  1  0.07301329  0.42172089  0.93346243  1
  Cu+  Cu125  1  0.73672418  0.73955287  0.25839881  1
  Cu+  Cu126  1  0.26209015  0.59789041  0.93138560  1
  Cu+  Cu127  1  0.06612502  0.06815489  0.92869839  1
  Cu+  Cu128  1  0.26550395  0.06711254  0.07085307  1
  Cu+  Cu129  1  0.06588877  0.92817409  0.39817600  1
  Cu+  Cu130  1  0.25475425  0.07604015  0.74770790  1
  Cu+  Cu131  1  0.59805873  0.73353998  0.74549293  1
  Cu+  Cu132  1  0.73456259  0.93096357  0.73350757  1
  Te2-  Te133  1  0.25236216  0.24841309  0.07718370  1
  Te2-  Te134  1  0.25544924  0.24949703  0.41560059  1
  Te2-  Te135  1  0.24555151  0.25940106  0.75305562  1
  Te2-  Te136  1  0.25467914  0.59197065  0.08397668  1
  Te2-  Te137  1  0.24995496  0.58925487  0.41567327  1
  Te2-  Te138  1  0.25617769  0.58625680  0.74540369  1
  Te2-  Te139  1  0.25591960  0.91541562  0.07558477  1
  Te2-  Te140  1  0.26081039  0.91934238  0.41044971  1
  Te2-  Te141  1  0.25257163  0.92144562  0.75033678  1
  Te2-  Te142  1  0.58622448  0.25211840  0.07799649  1
  Te2-  Te143  1  0.58469207  0.25289891  0.41067799  1
  Te2-  Te144  1  0.58652964  0.25548709  0.74668169  1
  Te2-  Te145  1  0.58464606  0.58439983  0.07894683  1
  Te2-  Te146  1  0.58248901  0.58336050  0.41374294  1
  Te2-  Te147  1  0.59112342  0.58280429  0.74532526  1
  Te2-  Te148  1  0.58672489  0.91834646  0.07841137  1
  Te2-  Te149  1  0.58697502  0.91758001  0.41987384  1
  Te2-  Te150  1  0.58292882  0.92599645  0.74396756  1
  Te2-  Te151  1  0.91930081  0.25584214  0.08507370  1
  Te2-  Te152  1  0.92101143  0.25094000  0.41556531  1
  Te2-  Te153  1  0.92127606  0.24956296  0.74938922  1
  Te2-  Te154  1  0.92089922  0.58847365  0.08495768  1
  Te2-  Te155  1  0.91659579  0.58413860  0.41402298  1
  Te2-  Te156  1  0.92026585  0.58701116  0.74766694  1
  Te2-  Te157  1  0.91833824  0.91843388  0.07878082  1
  Te2-  Te158  1  0.91262735  0.92177972  0.40464422  1
  Te2-  Te159  1  0.92129648  0.91861546  0.74625916  1
  Te2-  Te160  1  0.25863467  0.07802183  0.25236443  1
  Te2-  Te161  1  0.25504585  0.07417433  0.59254207  1
  Te2-  Te162  1  0.25620787  0.08010515  0.91929768  1
  Te2-  Te163  1  0.25443665  0.41188955  0.25359413  1
  Te2-  Te164  1  0.24943992  0.41621722  0.58954712  1
  Te2-  Te165  1  0.26001536  0.41001023  0.92081528  1
  Te2-  Te166  1  0.24996183  0.75060069  0.25359715  1
  Te2-  Te167  1  0.24970176  0.74932796  0.58342193  1
  Te2-  Te168  1  0.25210873  0.74914367  0.91990968  1
  Te2-  Te169  1  0.58669274  0.08145095  0.25122982  1
  Te2-  Te170  1  0.58560003  0.08253694  0.58428172  1
  Te2-  Te171  1  0.58424023  0.08286696  0.91587529  1
  Te2-  Te172  1  0.58438157  0.41216171  0.25242956  1
  Te2-  Te173  1  0.58418895  0.41553026  0.58846195  1
  Te2-  Te174  1  0.58751043  0.41415791  0.91780031  1
  Te2-  Te175  1  0.58522530  0.74603941  0.25459908  1
  Te2-  Te176  1  0.58789365  0.73950538  0.58777649  1
  Te2-  Te177  1  0.58635413  0.74724759  0.91305642  1
  Te2-  Te178  1  0.91636782  0.08126696  0.25135021  1
  Te2-  Te179  1  0.92299883  0.08209469  0.58881603  1
  Te2-  Te180  1  0.91414841  0.07215038  0.92094213  1
  Te2-  Te181  1  0.92123545  0.41530439  0.25395347  1
  Te2-  Te182  1  0.91885320  0.41344982  0.58541054  1
  Te2-  Te183  1  0.92112561  0.41675122  0.92492689  1
  Te2-  Te184  1  0.91808292  0.74493661  0.24854104  1
  Te2-  Te185  1  0.91837269  0.75181197  0.58158856  1
  Te2-  Te186  1  0.91618252  0.75160907  0.92012398  1
  Te2-  Te187  1  0.08588895  0.24903753  0.25279152  1
  Te2-  Te188  1  0.08637837  0.24955013  0.58544074  1
  Te2-  Te189  1  0.07792807  0.25664817  0.93067098  1
  Te2-  Te190  1  0.08507539  0.58440101  0.25517251  1
  Te2-  Te191  1  0.07725817  0.59061302  0.58447785  1
  Te2-  Te192  1  0.08467051  0.58452483  0.92318088  1
  Te2-  Te193  1  0.07499586  0.92354295  0.24598003  1
  Te2-  Te194  1  0.07987491  0.92403989  0.58778408  1
  Te2-  Te195  1  0.07820666  0.91675657  0.91944119  1
  Te2-  Te196  1  0.41229744  0.25042502  0.24833730  1
  Te2-  Te197  1  0.40862502  0.25252626  0.58238278  1
  Te2-  Te198  1  0.41309045  0.25084933  0.91814557  1
  Te2-  Te199  1  0.41348615  0.58249278  0.24893812  1
  Te2-  Te200  1  0.40947908  0.58614095  0.58245466  1
  Te2-  Te201  1  0.41914539  0.59502552  0.92401339  1
  Te2-  Te202  1  0.41952771  0.91940442  0.25419025  1
  Te2-  Te203  1  0.41689928  0.91802348  0.59324592  1
  Te2-  Te204  1  0.41523766  0.91861893  0.91858841  1
  Te2-  Te205  1  0.74555729  0.25072917  0.25464941  1
  Te2-  Te206  1  0.75033746  0.25467570  0.58857190  1
  Te2-  Te207  1  0.74717345  0.25158808  0.91836317  1
  Te2-  Te208  1  0.74452082  0.58582564  0.25698262  1
  Te2-  Te209  1  0.74622210  0.58282654  0.58790525  1
  Te2-  Te210  1  0.74738194  0.58722693  0.91814916  1
  Te2-  Te211  1  0.74758079  0.92077807  0.25035673  1
  Te2-  Te212  1  0.74285122  0.92603020  0.58166797  1
  Te2-  Te213  1  0.74262834  0.91936602  0.91634254  1
  Te2-  Te214  1  0.07619028  0.07550507  0.08419744  1
  Te2-  Te215  1  0.07923950  0.08020614  0.41379359  1
  Te2-  Te216  1  0.07559225  0.08580971  0.75244228  1
  Te2-  Te217  1  0.08044813  0.41532791  0.08439026  1
  Te2-  Te218  1  0.07971636  0.41395824  0.41646776  1
  Te2-  Te219  1  0.08381985  0.41516923  0.74662360  1
  Te2-  Te220  1  0.07976003  0.74748435  0.08071647  1
  Te2-  Te221  1  0.07856953  0.75420837  0.41199710  1
  Te2-  Te222  1  0.08115124  0.74738412  0.74651074  1
  Te2-  Te223  1  0.41793106  0.07608759  0.07580419  1
  Te2-  Te224  1  0.41786073  0.07753847  0.40740710  1
  Te2-  Te225  1  0.41168478  0.08140445  0.74633976  1
  Te2-  Te226  1  0.41443315  0.40864537  0.07906807  1
  Te2-  Te227  1  0.41355140  0.41083678  0.41355578  1
  Te2-  Te228  1  0.41204074  0.41776078  0.74975712  1
  Te2-  Te229  1  0.41623238  0.74863455  0.08208073  1
  Te2-  Te230  1  0.41502581  0.74858028  0.41686604  1
  Te2-  Te231  1  0.40809721  0.74943869  0.74365067  1
  Te2-  Te232  1  0.74601212  0.08408480  0.07785828  1
  Te2-  Te233  1  0.74759912  0.08269673  0.41743986  1
  Te2-  Te234  1  0.74468130  0.08279489  0.74454902  1
  Te2-  Te235  1  0.74896033  0.41392381  0.08043191  1
  Te2-  Te236  1  0.74397916  0.41120927  0.41637424  1
  Te2-  Te237  1  0.75205071  0.41376239  0.75089463  1
  Te2-  Te238  1  0.74376913  0.74531979  0.07518485  1
  Te2-  Te239  1  0.74507649  0.74644454  0.41268753  1
  Te2-  Te240  1  0.74995871  0.74189205  0.74443403  1
