# generated using pymatgen
data_Ti27(Cu53Te54)2
_symmetry_space_group_name_H-M   'P 1'
_cell_length_a   17.92248778
_cell_length_b   17.92636481
_cell_length_c   17.92665539
_cell_angle_alpha   90.06217193
_cell_angle_beta   90.02876321
_cell_angle_gamma   90.03645361
_symmetry_Int_Tables_number   1
_chemical_formula_structural   Ti27(Cu53Te54)2
_chemical_formula_sum   'Ti27 Cu106 Te108'
_cell_volume   5759.56116426
_cell_formula_units_Z   1
loop_
 _symmetry_equiv_pos_site_id
 _symmetry_equiv_pos_as_xyz
  1  'x, y, z'
loop_
 _atom_type_symbol
 _atom_type_oxidation_number
  Ti4+  4.0
  Cu+  1.0
  Te2-  -2.0
loop_
 _atom_site_type_symbol
 _atom_site_label
 _atom_site_symmetry_multiplicity
 _atom_site_fract_x
 _atom_site_fract_y
 _atom_site_fract_z
 _atom_site_occupancy
  Ti4+  Ti0  1  0.16553882  0.16752988  0.16893300  1
  Ti4+  Ti1  1  0.16800385  0.16869750  0.50110275  1
  Ti4+  Ti2  1  0.16551648  0.17038514  0.83803508  1
  Ti4+  Ti3  1  0.16392631  0.50301091  0.16782174  1
  Ti4+  Ti4  1  0.16592561  0.50011967  0.49851989  1
  Ti4+  Ti5  1  0.16593690  0.49924022  0.83523405  1
  Ti4+  Ti6  1  0.17032524  0.83423960  0.16957445  1
  Ti4+  Ti7  1  0.16859762  0.83348478  0.50150617  1
  Ti4+  Ti8  1  0.16594923  0.83571643  0.83652429  1
  Ti4+  Ti9  1  0.50095816  0.16397781  0.17006383  1
  Ti4+  Ti10  1  0.50242076  0.16901873  0.50225111  1
  Ti4+  Ti11  1  0.49531050  0.16381541  0.83240536  1
  Ti4+  Ti12  1  0.49872588  0.49935412  0.16493898  1
  Ti4+  Ti13  1  0.50270493  0.50103123  0.50038304  1
  Ti4+  Ti14  1  0.50505140  0.49828574  0.83409427  1
  Ti4+  Ti15  1  0.50462201  0.83431966  0.16910906  1
  Ti4+  Ti16  1  0.50317345  0.83457193  0.50440280  1
  Ti4+  Ti17  1  0.49722202  0.82626243  0.83156173  1
  Ti4+  Ti18  1  0.82982575  0.16418529  0.16360467  1
  Ti4+  Ti19  1  0.83679290  0.17039139  0.50120911  1
  Ti4+  Ti20  1  0.83268683  0.16734959  0.83298893  1
  Ti4+  Ti21  1  0.83090260  0.50321954  0.16410377  1
  Ti4+  Ti22  1  0.82887476  0.49842428  0.49429225  1
  Ti4+  Ti23  1  0.83285009  0.50189158  0.83220651  1
  Ti4+  Ti24  1  0.83471942  0.83732168  0.16697266  1
  Ti4+  Ti25  1  0.83902735  0.83621915  0.50024311  1
  Ti4+  Ti26  1  0.83357095  0.83344327  0.83016499  1
  Cu+  Cu27  1  0.16439167  0.17033491  0.00142629  1
  Cu+  Cu28  1  0.16409771  0.17013360  0.33513402  1
  Cu+  Cu29  1  0.16739091  0.17020343  0.66984799  1
  Cu+  Cu30  1  0.16537486  0.49974307  0.00288724  1
  Cu+  Cu31  1  0.16539150  0.50558716  0.33191982  1
  Cu+  Cu32  1  0.16544169  0.49780123  0.66554704  1
  Cu+  Cu33  1  0.16655891  0.83983731  0.00525661  1
  Cu+  Cu34  1  0.17031441  0.83304291  0.33601228  1
  Cu+  Cu35  1  0.16721650  0.83418893  0.66748493  1
  Cu+  Cu36  1  0.49906940  0.16216464  -0.00071267  1
  Cu+  Cu37  1  0.50084422  0.16610504  0.33626901  1
  Cu+  Cu38  1  0.49393048  0.16419913  0.66322790  1
  Cu+  Cu39  1  0.50181011  0.49626402  -0.00427475  1
  Cu+  Cu40  1  0.50450991  0.50243742  0.33130149  1
  Cu+  Cu41  1  0.50206000  0.50348338  0.66971809  1
  Cu+  Cu42  1  0.49887323  0.82885702  -0.00046586  1
  Cu+  Cu43  1  0.50768408  0.83752245  0.33639973  1
  Cu+  Cu44  1  0.49512292  0.82470765  0.66871303  1
  Cu+  Cu45  1  0.83165176  0.16569655  -0.00290557  1
  Cu+  Cu46  1  0.83501711  0.16692977  0.33134099  1
  Cu+  Cu47  1  0.83771641  0.16868805  0.66905645  1
  Cu+  Cu48  1  0.83112326  0.50173901  -0.00030713  1
  Cu+  Cu49  1  0.82636022  0.49837759  0.32620203  1
  Cu+  Cu50  1  0.83190807  0.50149774  0.66207188  1
  Cu+  Cu51  1  0.83326967  0.83636750  -0.00405347  1
  Cu+  Cu52  1  0.83984444  0.83562571  0.33577696  1
  Cu+  Cu53  1  0.83515102  0.83228027  0.66352599  1
  Cu+  Cu54  1  0.16605096  -0.00015851  0.16672060  1
  Cu+  Cu55  1  0.16922831  -0.00095254  0.50136805  1
  Cu+  Cu56  1  0.16769992  0.00517803  0.83809572  1
  Cu+  Cu57  1  0.16401452  0.33672726  0.16896622  1
  Cu+  Cu58  1  0.16586824  0.33364863  0.49622289  1
  Cu+  Cu59  1  0.16392663  0.33402314  0.83687869  1
  Cu+  Cu60  1  0.16966518  0.66790549  0.17245740  1
  Cu+  Cu61  1  0.16534564  0.66597841  0.49992028  1
  Cu+  Cu62  1  0.16605307  0.66698091  0.83790431  1
  Cu+  Cu63  1  0.50949281  -0.00056815  0.17055464  1
  Cu+  Cu64  1  0.50368165  0.00387487  0.50548787  1
  Cu+  Cu65  1  0.49308648  -0.00713823  0.83186243  1
  Cu+  Cu66  1  0.49085564  0.32459214  0.16026671  1
  Cu+  Cu67  1  0.50413128  0.33651023  0.49911513  1
  Cu+  Cu68  1  0.49939716  0.33159036  0.83540576  1
  Cu+  Cu69  1  0.50394263  0.66640127  0.16979091  1
  Cu+  Cu70  1  0.50129777  0.66820557  0.50248654  1
  Cu+  Cu71  1  0.50605089  0.66088651  0.82803851  1
  Cu+  Cu72  1  0.82808071  -0.00216579  0.16145378  1
  Cu+  Cu73  1  0.84223030  0.00396987  0.50077255  1
  Cu+  Cu74  1  0.83312063  0.00074503  0.83004293  1
  Cu+  Cu75  1  0.83118649  0.33336885  0.16418700  1
  Cu+  Cu76  1  0.82438805  0.33133499  0.49338118  1
  Cu+  Cu77  1  0.83197099  0.33302655  0.83413940  1
  Cu+  Cu78  1  0.83413366  0.67310150  0.16390569  1
  Cu+  Cu79  1  0.83724348  0.66535213  0.50014479  1
  Cu+  Cu80  1  0.83616356  0.66856862  0.82945548  1
  Cu+  Cu81  1  -0.00402202  0.16617471  0.16686842  1
  Cu+  Cu82  1  0.00373056  0.17286606  0.49760400  1
  Cu+  Cu83  1  -0.00063898  0.16948871  0.83778418  1
  Cu+  Cu84  1  -0.00289976  0.50487246  0.16510198  1
  Cu+  Cu85  1  -0.00466982  0.50129098  0.49806155  1
  Cu+  Cu86  1  -0.00009676  0.50090081  0.83141050  1
  Cu+  Cu87  1  0.00380540  0.83705394  0.16573139  1
  Cu+  Cu88  1  0.00430597  0.83369789  0.49953889  1
  Cu+  Cu89  1  -0.00027757  0.83732986  0.83557573  1
  Cu+  Cu90  1  0.33378303  0.16553448  0.17159716  1
  Cu+  Cu91  1  0.33508005  0.16963255  0.50254384  1
  Cu+  Cu92  1  0.32683534  0.16478208  0.83259617  1
  Cu+  Cu93  1  0.32709769  0.50003239  0.16479854  1
  Cu+  Cu94  1  0.33291366  0.49965562  0.49937739  1
  Cu+  Cu95  1  0.33521077  0.49905060  0.83700553  1
  Cu+  Cu96  1  0.33827580  0.83289383  0.16993468  1
  Cu+  Cu97  1  0.33501290  0.83274845  0.50304905  1
  Cu+  Cu98  1  0.32862077  0.82723962  0.82840189  1
  Cu+  Cu99  1  0.66306567  0.15940483  0.16384038  1
  Cu+  Cu100  1  0.66988396  0.17066527  0.50195824  1
  Cu+  Cu101  1  0.66375354  0.16523862  0.83087365  1
  Cu+  Cu102  1  0.66523447  0.50114441  0.17068329  1
  Cu+  Cu103  1  0.66385890  0.49205200  0.49591889  1
  Cu+  Cu104  1  0.67116131  0.49912723  0.84172352  1
  Cu+  Cu105  1  0.66809050  0.84189394  0.17045206  1
  Cu+  Cu106  1  0.67547843  0.83507950  0.50480227  1
  Cu+  Cu107  1  0.66481626  0.82839640  0.82932230  1
  Cu+  Cu108  1  0.59495477  0.59502210  0.26143992  1
  Cu+  Cu109  1  0.40383031  0.07471693  0.58363730  1
  Cu+  Cu110  1  0.07535981  0.26367757  0.40484023  1
  Cu+  Cu111  1  0.40349569  0.91999368  0.74222612  1
  Cu+  Cu112  1  0.73813160  0.24440714  0.40053902  1
  Cu+  Cu113  1  0.07435172  0.93007557  0.07595096  1
  Cu+  Cu114  1  0.92662750  0.59123867  0.59128853  1
  Cu+  Cu115  1  0.40457208  0.58050874  0.74165530  1
  Cu+  Cu116  1  0.74920137  0.40234668  0.92793016  1
  Cu+  Cu117  1  0.40385639  0.73634606  0.58378592  1
  Cu+  Cu118  1  0.59709933  0.59279548  0.92825231  1
  Cu+  Cu119  1  0.24929764  0.40596429  0.07548129  1
  Cu+  Cu120  1  0.40115555  0.23808613  0.06983454  1
  Cu+  Cu121  1  0.59862146  0.92989563  0.26939529  1
  Cu+  Cu122  1  0.24753831  0.07574910  0.73962448  1
  Cu+  Cu123  1  0.59494978  0.73620070  0.73995202  1
  Cu+  Cu124  1  0.73928857  0.40259988  0.24969691  1
  Cu+  Cu125  1  0.74220924  0.40526186  0.59417870  1
  Cu+  Cu126  1  0.24101450  0.73454665  0.73889792  1
  Cu+  Cu127  1  0.73798501  0.91855762  0.06516050  1
  Cu+  Cu128  1  0.40653963  0.40400208  0.92010384  1
  Cu+  Cu129  1  0.74903537  0.73860477  0.58903195  1
  Cu+  Cu130  1  0.58247576  0.40390285  0.40000143  1
  Cu+  Cu131  1  0.25858232  0.59555787  0.26224852  1
  Cu+  Cu132  1  0.58807429  0.07199405  0.06806066  1
  Te2-  Te133  1  0.25224505  0.25381058  0.08171304  1
  Te2-  Te134  1  0.25511273  0.25196690  0.41500026  1
  Te2-  Te135  1  0.25109828  0.25701263  0.75097783  1
  Te2-  Te136  1  0.25020797  0.58900512  0.08024456  1
  Te2-  Te137  1  0.25402524  0.58767993  0.41557719  1
  Te2-  Te138  1  0.25191882  0.58364844  0.74679434  1
  Te2-  Te139  1  0.25781247  0.91987103  0.08590249  1
  Te2-  Te140  1  0.25559559  0.91799353  0.41758645  1
  Te2-  Te141  1  0.25122254  0.92322424  0.74680677  1
  Te2-  Te142  1  0.58527381  0.24942814  0.08009343  1
  Te2-  Te143  1  0.58798253  0.25347651  0.41129593  1
  Te2-  Te144  1  0.57901706  0.24861359  0.74757348  1
  Te2-  Te145  1  0.58555842  0.58418368  0.08018471  1
  Te2-  Te146  1  0.58831786  0.58979930  0.41600516  1
  Te2-  Te147  1  0.59678233  0.58157300  0.74556916  1
  Te2-  Te148  1  0.58630031  0.91929170  0.07338936  1
  Te2-  Te149  1  0.59130678  0.92177528  0.42287132  1
  Te2-  Te150  1  0.58181091  0.91468810  0.74638938  1
  Te2-  Te151  1  0.91501944  0.25068430  0.08056860  1
  Te2-  Te152  1  0.92005189  0.25615980  0.41079269  1
  Te2-  Te153  1  0.91985832  0.25459742  0.75141582  1
  Te2-  Te154  1  0.91585567  0.58848338  0.07944335  1
  Te2-  Te155  1  0.91423107  0.58255226  0.40796153  1
  Te2-  Te156  1  0.91968784  0.58563762  0.74484758  1
  Te2-  Te157  1  0.92071297  0.92134353  0.07833452  1
  Te2-  Te158  1  0.92492714  0.92107087  0.41574015  1
  Te2-  Te159  1  0.91888649  0.91839374  0.74624667  1
  Te2-  Te160  1  0.24926150  0.08251600  0.25429295  1
  Te2-  Te161  1  0.25332898  0.07965665  0.58820444  1
  Te2-  Te162  1  0.25154438  0.08414920  0.92562052  1
  Te2-  Te163  1  0.25018362  0.41600073  0.25486685  1
  Te2-  Te164  1  0.25064581  0.41455620  0.58243140  1
  Te2-  Te165  1  0.25276496  0.41215442  0.92159740  1
  Te2-  Te166  1  0.25789451  0.74913888  0.25673520  1
  Te2-  Te167  1  0.25310421  0.74258650  0.58818626  1
  Te2-  Te168  1  0.24946064  0.75120293  0.92365090  1
  Te2-  Te169  1  0.58969652  0.08140174  0.26095930  1
  Te2-  Te170  1  0.59083317  0.08568132  0.58771283  1
  Te2-  Te171  1  0.58190183  0.07604585  0.91364928  1
  Te2-  Te172  1  0.58202531  0.40572939  0.24722439  1
  Te2-  Te173  1  0.58538949  0.41469125  0.59141626  1
  Te2-  Te174  1  0.58985878  0.40763590  0.92088029  1
  Te2-  Te175  1  0.59098540  0.74868073  0.25507153  1
  Te2-  Te176  1  0.59169237  0.74568252  0.58735147  1
  Te2-  Te177  1  0.58698459  0.74503949  0.92051541  1
  Te2-  Te178  1  0.91411518  0.07955328  0.24867082  1
  Te2-  Te179  1  0.92432018  0.08796688  0.58538965  1
  Te2-  Te180  1  0.91740514  0.08042255  0.91750348  1
  Te2-  Te181  1  0.91721710  0.41632508  0.24802944  1
  Te2-  Te182  1  0.91374701  0.41167416  0.57946679  1
  Te2-  Te183  1  0.91760665  0.41720905  0.91813247  1
  Te2-  Te184  1  0.92093057  0.75169036  0.24975774  1
  Te2-  Te185  1  0.92527566  0.74713149  0.58603029  1
  Te2-  Te186  1  0.91816360  0.75005214  0.91711389  1
  Te2-  Te187  1  0.07752967  0.25393998  0.25089432  1
  Te2-  Te188  1  0.08410840  0.25465116  0.58773303  1
  Te2-  Te189  1  0.07865854  0.25539715  0.92287437  1
  Te2-  Te190  1  0.07680941  0.58884174  0.25231549  1
  Te2-  Te191  1  0.07999190  0.58480410  0.58546862  1
  Te2-  Te192  1  0.08099258  0.58431954  0.91981943  1
  Te2-  Te193  1  0.08450069  0.91865898  0.25591488  1
  Te2-  Te194  1  0.08339977  0.91883151  0.58663872  1
  Te2-  Te195  1  0.08053242  0.92348295  0.92064227  1
  Te2-  Te196  1  0.41470211  0.24983629  0.25708666  1
  Te2-  Te197  1  0.41677650  0.25878488  0.58379506  1
  Te2-  Te198  1  0.40931498  0.24984432  0.91947578  1
  Te2-  Te199  1  0.41385441  0.58431755  0.25121672  1
  Te2-  Te200  1  0.41233074  0.58514595  0.58661980  1
  Te2-  Te201  1  0.41831726  0.58734329  0.91887911  1
  Te2-  Te202  1  0.41944712  0.91990348  0.25401570  1
  Te2-  Te203  1  0.41360582  0.92115652  0.58907834  1
  Te2-  Te204  1  0.41075116  0.91024456  0.91833694  1
  Te2-  Te205  1  0.74217244  0.25004229  0.24911255  1
  Te2-  Te206  1  0.74873173  0.25316299  0.59148938  1
  Te2-  Te207  1  0.74320102  0.25058457  0.91906506  1
  Te2-  Te208  1  0.74726182  0.59366471  0.25059507  1
  Te2-  Te209  1  0.74233027  0.58463355  0.58106478  1
  Te2-  Te210  1  0.75133924  0.59307714  0.91992044  1
  Te2-  Te211  1  0.75157646  0.92235305  0.25947135  1
  Te2-  Te212  1  0.75535476  0.92501242  0.58561616  1
  Te2-  Te213  1  0.74408935  0.91925471  0.91195292  1
  Te2-  Te214  1  0.07999586  0.08371006  0.08200704  1
  Te2-  Te215  1  0.08363880  0.08082779  0.41721396  1
  Te2-  Te216  1  0.08046804  0.08429767  0.75108968  1
  Te2-  Te217  1  0.07715197  0.41596862  0.08272544  1
  Te2-  Te218  1  0.07863514  0.41756303  0.41130598  1
  Te2-  Te219  1  0.08191200  0.41490974  0.74945108  1
  Te2-  Te220  1  0.08543775  0.74755420  0.08432991  1
  Te2-  Te221  1  0.08399985  0.74869917  0.41508453  1
  Te2-  Te222  1  0.08067331  0.75000743  0.75080417  1
  Te2-  Te223  1  0.41450257  0.07646270  0.08589843  1
  Te2-  Te224  1  0.41631365  0.08147752  0.41792642  1
  Te2-  Te225  1  0.40769853  0.07772806  0.74522822  1
  Te2-  Te226  1  0.41049785  0.41268454  0.07766791  1
  Te2-  Te227  1  0.41700104  0.41742179  0.41382468  1
  Te2-  Te228  1  0.41578981  0.41396036  0.74751574  1
  Te2-  Te229  1  0.41844170  0.74716465  0.08599908  1
  Te2-  Te230  1  0.41964019  0.75158894  0.41500950  1
  Te2-  Te231  1  0.40714931  0.73602081  0.74488313  1
  Te2-  Te232  1  0.74403704  0.07758029  0.07369355  1
  Te2-  Te233  1  0.75143903  0.08232103  0.41736973  1
  Te2-  Te234  1  0.74835134  0.08302919  0.74576966  1
  Te2-  Te235  1  0.74364379  0.41505605  0.07993646  1
  Te2-  Te236  1  0.74050096  0.40947221  0.40334719  1
  Te2-  Te237  1  0.74671398  0.41489218  0.74732648  1
  Te2-  Te238  1  0.74637667  0.75414191  0.08123796  1
  Te2-  Te239  1  0.75288639  0.74991178  0.41504860  1
  Te2-  Te240  1  0.74845052  0.74381065  0.74268282  1
