# generated using pymatgen
data_Ti27(Cu53Te54)2
_symmetry_space_group_name_H-M   'P 1'
_cell_length_a   17.91833521
_cell_length_b   17.91928762
_cell_length_c   17.91843332
_cell_angle_alpha   89.98640182
_cell_angle_beta   90.05462207
_cell_angle_gamma   89.96745771
_symmetry_Int_Tables_number   1
_chemical_formula_structural   Ti27(Cu53Te54)2
_chemical_formula_sum   'Ti27 Cu106 Te108'
_cell_volume   5753.31499594
_cell_formula_units_Z   1
loop_
 _symmetry_equiv_pos_site_id
 _symmetry_equiv_pos_as_xyz
  1  'x, y, z'
loop_
 _atom_type_symbol
 _atom_type_oxidation_number
  Ti4+  4.0
  Cu+  1.0
  Te2-  -2.0
loop_
 _atom_site_type_symbol
 _atom_site_label
 _atom_site_symmetry_multiplicity
 _atom_site_fract_x
 _atom_site_fract_y
 _atom_site_fract_z
 _atom_site_occupancy
  Ti4+  Ti0  1  0.16807904  0.16670772  0.17205591  1
  Ti4+  Ti1  1  0.16687660  0.16681371  0.50295750  1
  Ti4+  Ti2  1  0.16488561  0.16790531  0.83855586  1
  Ti4+  Ti3  1  0.16301182  0.50533900  0.16750181  1
  Ti4+  Ti4  1  0.16617610  0.49903780  0.49706364  1
  Ti4+  Ti5  1  0.16729288  0.50033007  0.82890942  1
  Ti4+  Ti6  1  0.17264042  0.83368007  0.16644631  1
  Ti4+  Ti7  1  0.16466835  0.83426611  0.50035849  1
  Ti4+  Ti8  1  0.17086048  0.83334417  0.83458791  1
  Ti4+  Ti9  1  0.49976353  0.16702476  0.16939806  1
  Ti4+  Ti10  1  0.50318018  0.16442842  0.50039904  1
  Ti4+  Ti11  1  0.49847498  0.16471604  0.83341172  1
  Ti4+  Ti12  1  0.50014696  0.49869575  0.16862494  1
  Ti4+  Ti13  1  0.50164874  0.49943249  0.50048945  1
  Ti4+  Ti14  1  0.49929655  0.50007652  0.83202613  1
  Ti4+  Ti15  1  0.49812656  0.83350782  0.16599630  1
  Ti4+  Ti16  1  0.50062080  0.83295293  0.49842603  1
  Ti4+  Ti17  1  0.50184294  0.83262733  0.83476470  1
  Ti4+  Ti18  1  0.83160550  0.16746312  0.16496487  1
  Ti4+  Ti19  1  0.83403761  0.16516227  0.49746608  1
  Ti4+  Ti20  1  0.82797969  0.16706290  0.83254137  1
  Ti4+  Ti21  1  0.83226078  0.49639131  0.16244434  1
  Ti4+  Ti22  1  0.83469732  0.49896577  0.49812161  1
  Ti4+  Ti23  1  0.83461620  0.49898974  0.83186968  1
  Ti4+  Ti24  1  0.83261511  0.83259327  0.16250628  1
  Ti4+  Ti25  1  0.83352733  0.83415044  0.49886569  1
  Ti4+  Ti26  1  0.83533411  0.83643054  0.83360955  1
  Cu+  Cu27  1  0.16509564  0.17060494  0.01117158  1
  Cu+  Cu28  1  0.16695836  0.16808618  0.33882101  1
  Cu+  Cu29  1  0.16592322  0.16647656  0.67113012  1
  Cu+  Cu30  1  0.16811239  0.50401783  -0.00307730  1
  Cu+  Cu31  1  0.15741742  0.50895359  0.33567672  1
  Cu+  Cu32  1  0.16682166  0.49874298  0.66195588  1
  Cu+  Cu33  1  0.17852757  0.83782074  -0.00273383  1
  Cu+  Cu34  1  0.17057408  0.82978491  0.33680650  1
  Cu+  Cu35  1  0.16569258  0.83294834  0.66715540  1
  Cu+  Cu36  1  0.49722569  0.16841827  -0.00186118  1
  Cu+  Cu37  1  0.50496353  0.16337678  0.33413812  1
  Cu+  Cu38  1  0.50218339  0.16214099  0.66903775  1
  Cu+  Cu39  1  0.49760097  0.49762170  0.00213467  1
  Cu+  Cu40  1  0.50170366  0.49885509  0.33775079  1
  Cu+  Cu41  1  0.50042259  0.50044336  0.66624419  1
  Cu+  Cu42  1  0.50464974  0.83221871  0.00314629  1
  Cu+  Cu43  1  0.49664123  0.83302502  0.33086201  1
  Cu+  Cu44  1  0.49972422  0.83370143  0.66468086  1
  Cu+  Cu45  1  0.82571737  0.17036940  -0.00199304  1
  Cu+  Cu46  1  0.83516473  0.16466011  0.33076569  1
  Cu+  Cu47  1  0.82675086  0.16452845  0.66129157  1
  Cu+  Cu48  1  0.82849945  0.49234612  -0.00562867  1
  Cu+  Cu49  1  0.83787876  0.49382155  0.33195036  1
  Cu+  Cu50  1  0.83513484  0.49980351  0.66583893  1
  Cu+  Cu51  1  0.83296208  0.83192819  -0.00247550  1
  Cu+  Cu52  1  0.83217033  0.83316909  0.33164772  1
  Cu+  Cu53  1  0.83785986  0.84001454  0.66724067  1
  Cu+  Cu54  1  0.17577722  0.00142609  0.16771381  1
  Cu+  Cu55  1  0.16441969  0.00168883  0.50329150  1
  Cu+  Cu56  1  0.17110976  0.00132689  0.83478659  1
  Cu+  Cu57  1  0.16542926  0.33554273  0.17065366  1
  Cu+  Cu58  1  0.16623590  0.33114489  0.50114723  1
  Cu+  Cu59  1  0.16024722  0.33863608  0.83901800  1
  Cu+  Cu60  1  0.16485941  0.67367776  0.16692388  1
  Cu+  Cu61  1  0.16638652  0.66674783  0.49647994  1
  Cu+  Cu62  1  0.17170405  0.66296444  0.83310847  1
  Cu+  Cu63  1  0.49359023  0.00225800  0.17147454  1
  Cu+  Cu64  1  0.50378428  -0.00251312  0.49455538  1
  Cu+  Cu65  1  0.50192415  -0.00142679  0.83116554  1
  Cu+  Cu66  1  0.50136236  0.33289864  0.17218152  1
  Cu+  Cu67  1  0.50201475  0.33363061  0.50325152  1
  Cu+  Cu68  1  0.49781810  0.33208235  0.83166963  1
  Cu+  Cu69  1  0.49864859  0.66433750  0.16650963  1
  Cu+  Cu70  1  0.50165473  0.66412194  0.50089482  1
  Cu+  Cu71  1  0.49933110  0.66589694  0.83325848  1
  Cu+  Cu72  1  0.83254072  -0.00146218  0.16337806  1
  Cu+  Cu73  1  0.83540293  -0.00226306  0.50350222  1
  Cu+  Cu74  1  0.83021116  0.00233921  0.83472361  1
  Cu+  Cu75  1  0.82794003  0.32967546  0.16060709  1
  Cu+  Cu76  1  0.83713133  0.33356932  0.49467778  1
  Cu+  Cu77  1  0.83170427  0.33155059  0.83433679  1
  Cu+  Cu78  1  0.83285074  0.66223774  0.16082750  1
  Cu+  Cu79  1  0.83233178  0.66917845  0.50043882  1
  Cu+  Cu80  1  0.83658581  0.66833234  0.83249505  1
  Cu+  Cu81  1  0.00284434  0.16686511  0.16718692  1
  Cu+  Cu82  1  0.00302386  0.16771821  0.50150092  1
  Cu+  Cu83  1  -0.00510614  0.17224528  0.83531340  1
  Cu+  Cu84  1  -0.00723620  0.50528847  0.16790720  1
  Cu+  Cu85  1  -0.00158009  0.49496092  0.49381953  1
  Cu+  Cu86  1  0.00220814  0.49740608  0.82898479  1
  Cu+  Cu87  1  0.00402188  0.83570774  0.16267690  1
  Cu+  Cu88  1  -0.00459849  0.83885913  0.50325118  1
  Cu+  Cu89  1  0.00441650  0.83572964  0.83229803  1
  Cu+  Cu90  1  0.33435743  0.16371450  0.17209770  1
  Cu+  Cu91  1  0.33418295  0.16732594  0.50450755  1
  Cu+  Cu92  1  0.33015999  0.16503506  0.83180844  1
  Cu+  Cu93  1  0.33270668  0.50018440  0.16874133  1
  Cu+  Cu94  1  0.33626902  0.49889886  0.49889121  1
  Cu+  Cu95  1  0.33362412  0.50190469  0.82942410  1
  Cu+  Cu96  1  0.33652844  0.82617269  0.16704698  1
  Cu+  Cu97  1  0.33166310  0.83385263  0.49844456  1
  Cu+  Cu98  1  0.33693604  0.83739964  0.83485637  1
  Cu+  Cu99  1  0.66374762  0.17367568  0.16782153  1
  Cu+  Cu100  1  0.66922167  0.16014073  0.49615101  1
  Cu+  Cu101  1  0.66191061  0.15931990  0.83244666  1
  Cu+  Cu102  1  0.66667550  0.49754017  0.16572710  1
  Cu+  Cu103  1  0.66782432  0.50039269  0.50033685  1
  Cu+  Cu104  1  0.66440602  0.50030531  0.83136215  1
  Cu+  Cu105  1  0.66319259  0.83310769  0.16165269  1
  Cu+  Cu106  1  0.66694604  0.83191085  0.49748618  1
  Cu+  Cu107  1  0.67080711  0.83164205  0.83599526  1
  Cu+  Cu108  1  0.06963248  0.75720551  0.26270134  1
  Cu+  Cu109  1  0.59865931  0.06717053  0.40322216  1
  Cu+  Cu110  1  0.59247284  0.73468542  0.07908682  1
  Cu+  Cu111  1  0.73300103  0.40728605  0.91501543  1
  Cu+  Cu112  1  0.26229263  0.08031600  0.07779468  1
  Cu+  Cu113  1  0.07399939  0.26489003  0.08789464  1
  Cu+  Cu114  1  0.25644974  0.07502121  0.73897094  1
  Cu+  Cu115  1  0.06727639  0.59798383  0.41999402  1
  Cu+  Cu116  1  0.59103987  0.06742387  0.74012119  1
  Cu+  Cu117  1  0.74132149  0.06951268  0.58792968  1
  Cu+  Cu118  1  0.25884341  0.73976972  0.07050020  1
  Cu+  Cu119  1  0.92895284  0.93000318  0.59814262  1
  Cu+  Cu120  1  0.26417424  0.58639619  0.92335846  1
  Cu+  Cu121  1  0.92873357  0.39930539  0.40215445  1
  Cu+  Cu122  1  0.07367045  0.41996960  0.92864571  1
  Cu+  Cu123  1  0.74569033  0.73750414  0.92232141  1
  Cu+  Cu124  1  0.73202684  0.25795049  0.07214957  1
  Cu+  Cu125  1  0.91058122  0.59629563  0.26167439  1
  Cu+  Cu126  1  0.92114088  0.25829418  0.92614343  1
  Cu+  Cu127  1  0.40529237  0.07533656  0.26567598  1
  Cu+  Cu128  1  0.26671449  0.93116700  0.92337023  1
  Cu+  Cu129  1  0.41508412  0.73363448  0.26160504  1
  Cu+  Cu130  1  0.26248754  0.73745731  0.41512330  1
  Cu+  Cu131  1  0.73622189  0.07286272  0.92819125  1
  Cu+  Cu132  1  0.59329655  0.26353106  0.26455837  1
  Te2-  Te133  1  0.25550021  0.25502340  0.08839179  1
  Te2-  Te134  1  0.25392942  0.25157514  0.41818568  1
  Te2-  Te135  1  0.24672256  0.25575301  0.75442060  1
  Te2-  Te136  1  0.25375723  0.58737131  0.08203310  1
  Te2-  Te137  1  0.25580914  0.58457630  0.41195304  1
  Te2-  Te138  1  0.25239144  0.58485001  0.74113202  1
  Te2-  Te139  1  0.26321621  0.92236756  0.08181522  1
  Te2-  Te140  1  0.24941880  0.92181184  0.41658822  1
  Te2-  Te141  1  0.25516988  0.91932055  0.74466020  1
  Te2-  Te142  1  0.58039077  0.25508482  0.07789400  1
  Te2-  Te143  1  0.58838486  0.25335953  0.41706913  1
  Te2-  Te144  1  0.58495958  0.25075817  0.74920597  1
  Te2-  Te145  1  0.58598577  0.58283802  0.08047837  1
  Te2-  Te146  1  0.58757142  0.58568470  0.41508596  1
  Te2-  Te147  1  0.58460472  0.58602506  0.74769817  1
  Te2-  Te148  1  0.58145221  0.92477611  0.08409641  1
  Te2-  Te149  1  0.58779337  0.91500637  0.40858440  1
  Te2-  Te150  1  0.58864431  0.91482008  0.74708795  1
  Te2-  Te151  1  0.92082576  0.25349051  0.07913496  1
  Te2-  Te152  1  0.92236581  0.24819145  0.41129264  1
  Te2-  Te153  1  0.91212040  0.25010308  0.74377082  1
  Te2-  Te154  1  0.91431167  0.58099948  0.07243528  1
  Te2-  Te155  1  0.91829311  0.59166421  0.41185345  1
  Te2-  Te156  1  0.91975064  0.58463973  0.74789522  1
  Te2-  Te157  1  0.91872264  0.91743941  0.07889922  1
  Te2-  Te158  1  0.91735950  0.91999356  0.41109694  1
  Te2-  Te159  1  0.92249229  0.92532914  0.75144010  1
  Te2-  Te160  1  0.25267302  0.08011113  0.26181304  1
  Te2-  Te161  1  0.25324675  0.07991954  0.58832396  1
  Te2-  Te162  1  0.25420453  0.08347821  0.92640768  1
  Te2-  Te163  1  0.24553789  0.42154256  0.25446927  1
  Te2-  Te164  1  0.25219668  0.41490142  0.58171811  1
  Te2-  Te165  1  0.25459631  0.41612380  0.91819859  1
  Te2-  Te166  1  0.25725425  0.74277853  0.25685247  1
  Te2-  Te167  1  0.25024614  0.74770943  0.58487062  1
  Te2-  Te168  1  0.26038624  0.74350142  0.91753721  1
  Te2-  Te169  1  0.59039084  0.07756603  0.25011509  1
  Te2-  Te170  1  0.58764473  0.07432864  0.58695324  1
  Te2-  Te171  1  0.58264911  0.07760126  0.92403696  1
  Te2-  Te172  1  0.58835864  0.41580199  0.25584058  1
  Te2-  Te173  1  0.58765987  0.41537413  0.58689809  1
  Te2-  Te174  1  0.58220585  0.41238172  0.91923419  1
  Te2-  Te175  1  0.58532233  0.74767687  0.25153730  1
  Te2-  Te176  1  0.58532760  0.74855765  0.58382279  1
  Te2-  Te177  1  0.58796443  0.74385655  0.92065161  1
  Te2-  Te178  1  0.91792294  0.08083905  0.24694186  1
  Te2-  Te179  1  0.92199161  0.08291951  0.58702783  1
  Te2-  Te180  1  0.91525904  0.08416844  0.91988159  1
  Te2-  Te181  1  0.91927424  0.40677039  0.24643293  1
  Te2-  Te182  1  0.91944576  0.41369273  0.58496791  1
  Te2-  Te183  1  0.92244563  0.41144169  0.91939209  1
  Te2-  Te184  1  0.91882692  0.74753782  0.25022430  1
  Te2-  Te185  1  0.91796563  0.74842861  0.58652425  1
  Te2-  Te186  1  0.92255887  0.75062469  0.91697787  1
  Te2-  Te187  1  0.08110274  0.25243475  0.25632493  1
  Te2-  Te188  1  0.08181367  0.25187481  0.58891671  1
  Te2-  Te189  1  0.07764153  0.25577703  0.92687241  1
  Te2-  Te190  1  0.07421288  0.59396376  0.25183327  1
  Te2-  Te191  1  0.07922548  0.58395914  0.58186030  1
  Te2-  Te192  1  0.07899751  0.58647554  0.91550558  1
  Te2-  Te193  1  0.08708259  0.91902821  0.25152996  1
  Te2-  Te194  1  0.08104549  0.92070291  0.58906607  1
  Te2-  Te195  1  0.08534352  0.91904433  0.91966469  1
  Te2-  Te196  1  0.41490022  0.25153606  0.25669749  1
  Te2-  Te197  1  0.41974270  0.24897882  0.58719507  1
  Te2-  Te198  1  0.41191637  0.25119358  0.91594196  1
  Te2-  Te199  1  0.41429287  0.58255570  0.25586591  1
  Te2-  Te200  1  0.41489958  0.58501528  0.58504952  1
  Te2-  Te201  1  0.41530923  0.58585501  0.92065538  1
  Te2-  Te202  1  0.40903027  0.91908505  0.25425510  1
  Te2-  Te203  1  0.41557989  0.91880790  0.58161340  1
  Te2-  Te204  1  0.41940972  0.92077268  0.92224385  1
  Te2-  Te205  1  0.74861380  0.25413613  0.25639222  1
  Te2-  Te206  1  0.74792769  0.25372321  0.57796404  1
  Te2-  Te207  1  0.73619776  0.25451284  0.91675553  1
  Te2-  Te208  1  0.74932834  0.58189395  0.25065448  1
  Te2-  Te209  1  0.75071017  0.58432242  0.58429092  1
  Te2-  Te210  1  0.74737666  0.58572685  0.91683905  1
  Te2-  Te211  1  0.74722423  0.91574290  0.24709856  1
  Te2-  Te212  1  0.74375069  0.91726627  0.58666264  1
  Te2-  Te213  1  0.74647803  0.92126596  0.92160012  1
  Te2-  Te214  1  0.08318547  0.07729451  0.08590856  1
  Te2-  Te215  1  0.08127555  0.08151004  0.41634149  1
  Te2-  Te216  1  0.07860147  0.08364627  0.75493352  1
  Te2-  Te217  1  0.07773930  0.41845814  0.08187438  1
  Te2-  Te218  1  0.08203761  0.40893137  0.41031187  1
  Te2-  Te219  1  0.08211359  0.41351069  0.74226509  1
  Te2-  Te220  1  0.08675376  0.75386606  0.07471641  1
  Te2-  Te221  1  0.07235749  0.75018124  0.41479432  1
  Te2-  Te222  1  0.08524165  0.74735112  0.75094167  1
  Te2-  Te223  1  0.41503933  0.08191876  0.07915541  1
  Te2-  Te224  1  0.41291460  0.08055169  0.41695329  1
  Te2-  Te225  1  0.41158791  0.07763448  0.74719626  1
  Te2-  Te226  1  0.41416785  0.41289053  0.08605073  1
  Te2-  Te227  1  0.41655044  0.41170968  0.41573935  1
  Te2-  Te228  1  0.41460876  0.41525230  0.74668434  1
  Te2-  Te229  1  0.41453889  0.74416714  0.07611565  1
  Te2-  Te230  1  0.41422663  0.74339397  0.41416895  1
  Te2-  Te231  1  0.41596606  0.75026600  0.74907353  1
  Te2-  Te232  1  0.74310753  0.08101749  0.08234148  1
  Te2-  Te233  1  0.75190632  0.07546033  0.40941298  1
  Te2-  Te234  1  0.74431928  0.07635142  0.74297945  1
  Te2-  Te235  1  0.74078988  0.41079969  0.07606700  1
  Te2-  Te236  1  0.74732599  0.41481368  0.41328856  1
  Te2-  Te237  1  0.74859787  0.41451292  0.74649759  1
  Te2-  Te238  1  0.74607096  0.74366648  0.07751164  1
  Te2-  Te239  1  0.74862564  0.74797760  0.41304159  1
  Te2-  Te240  1  0.75241619  0.75111226  0.74580919  1
