# generated using pymatgen
data_Ti27(Cu53Te54)2
_symmetry_space_group_name_H-M   'P 1'
_cell_length_a   17.89506369
_cell_length_b   17.89484612
_cell_length_c   17.89857758
_cell_angle_alpha   89.97404068
_cell_angle_beta   90.06206947
_cell_angle_gamma   89.96974809
_symmetry_Int_Tables_number   1
_chemical_formula_structural   Ti27(Cu53Te54)2
_chemical_formula_sum   'Ti27 Cu106 Te108'
_cell_volume   5731.64620803
_cell_formula_units_Z   1
loop_
 _symmetry_equiv_pos_site_id
 _symmetry_equiv_pos_as_xyz
  1  'x, y, z'
loop_
 _atom_type_symbol
 _atom_type_oxidation_number
  Ti4+  4.0
  Cu+  1.0
  Te2-  -2.0
loop_
 _atom_site_type_symbol
 _atom_site_label
 _atom_site_symmetry_multiplicity
 _atom_site_fract_x
 _atom_site_fract_y
 _atom_site_fract_z
 _atom_site_occupancy
  Ti4+  Ti0  1  0.16465861  0.16810968  0.16284984  1
  Ti4+  Ti1  1  0.16940746  0.16686613  0.49849004  1
  Ti4+  Ti2  1  0.16791257  0.16597132  0.83251279  1
  Ti4+  Ti3  1  0.16514764  0.50173287  0.16839769  1
  Ti4+  Ti4  1  0.16575629  0.49649899  0.50220068  1
  Ti4+  Ti5  1  0.16636930  0.50188284  0.83487925  1
  Ti4+  Ti6  1  0.16632814  0.83751424  0.16736701  1
  Ti4+  Ti7  1  0.16720972  0.83183884  0.49926423  1
  Ti4+  Ti8  1  0.16522165  0.83405847  0.83237853  1
  Ti4+  Ti9  1  0.50202176  0.16819313  0.16553287  1
  Ti4+  Ti10  1  0.50081562  0.16486803  0.50284247  1
  Ti4+  Ti11  1  0.50195570  0.16671749  0.83355605  1
  Ti4+  Ti12  1  0.49972773  0.50644167  0.16284919  1
  Ti4+  Ti13  1  0.49416455  0.49483256  0.49981433  1
  Ti4+  Ti14  1  0.50008914  0.49639546  0.83429133  1
  Ti4+  Ti15  1  0.50347153  0.83556182  0.16891082  1
  Ti4+  Ti16  1  0.49911302  0.83213129  0.49949909  1
  Ti4+  Ti17  1  0.49831754  0.83111410  0.83411702  1
  Ti4+  Ti18  1  0.83734209  0.16809398  0.16626859  1
  Ti4+  Ti19  1  0.83378592  0.16881683  0.49952227  1
  Ti4+  Ti20  1  0.83076926  0.16526366  0.83183827  1
  Ti4+  Ti21  1  0.83179270  0.50206159  0.16960430  1
  Ti4+  Ti22  1  0.82902172  0.50207303  0.50336861  1
  Ti4+  Ti23  1  0.83502445  0.49810749  0.83267946  1
  Ti4+  Ti24  1  0.83660517  0.83132205  0.16419245  1
  Ti4+  Ti25  1  0.83314801  0.83179291  0.50229467  1
  Ti4+  Ti26  1  0.83148761  0.83239660  0.83208892  1
  Cu+  Cu27  1  0.17065029  0.16536292  -0.00121171  1
  Cu+  Cu28  1  0.16697504  0.16622851  0.33088471  1
  Cu+  Cu29  1  0.16965022  0.16710512  0.66560501  1
  Cu+  Cu30  1  0.16697494  0.50433662  -0.00030946  1
  Cu+  Cu31  1  0.16312185  0.49589501  0.33357645  1
  Cu+  Cu32  1  0.16840216  0.50402895  0.66889880  1
  Cu+  Cu33  1  0.16407284  0.83970317  -0.00079927  1
  Cu+  Cu34  1  0.16515908  0.83088862  0.33444226  1
  Cu+  Cu35  1  0.16634211  0.83295311  0.66557928  1
  Cu+  Cu36  1  0.50147378  0.17121869  -0.00225858  1
  Cu+  Cu37  1  0.50342235  0.16812649  0.33399585  1
  Cu+  Cu38  1  0.50387725  0.16174830  0.67111908  1
  Cu+  Cu39  1  0.50368516  0.49741986  0.00283419  1
  Cu+  Cu40  1  0.49444883  0.49867425  0.32465629  1
  Cu+  Cu41  1  0.49547683  0.49140951  0.66724120  1
  Cu+  Cu42  1  0.50374046  0.83468307  0.00088266  1
  Cu+  Cu43  1  0.50155489  0.83500066  0.33615752  1
  Cu+  Cu44  1  0.49484214  0.83036391  0.66583446  1
  Cu+  Cu45  1  0.83693365  0.16751783  -0.00141717  1
  Cu+  Cu46  1  0.83396374  0.17089938  0.33391532  1
  Cu+  Cu47  1  0.82926938  0.16470888  0.66320941  1
  Cu+  Cu48  1  0.83304670  0.50119150  0.00032462  1
  Cu+  Cu49  1  0.83319607  0.50130099  0.34227739  1
  Cu+  Cu50  1  0.83077691  0.50140717  0.66674512  1
  Cu+  Cu51  1  0.83465699  0.83232836  -0.00461613  1
  Cu+  Cu52  1  0.83769749  0.83063230  0.33275730  1
  Cu+  Cu53  1  0.83153294  0.82633705  0.66885337  1
  Cu+  Cu54  1  0.16047645  0.00354349  0.15929617  1
  Cu+  Cu55  1  0.16906174  -0.00164460  0.49881691  1
  Cu+  Cu56  1  0.16623973  0.00063728  0.83174085  1
  Cu+  Cu57  1  0.16229190  0.33471713  0.16739078  1
  Cu+  Cu58  1  0.17062839  0.33294604  0.49561626  1
  Cu+  Cu59  1  0.16788089  0.33521902  0.83254619  1
  Cu+  Cu60  1  0.16557121  0.67030623  0.16995470  1
  Cu+  Cu61  1  0.16899173  0.66199779  0.50187401  1
  Cu+  Cu62  1  0.16540651  0.66839118  0.83528113  1
  Cu+  Cu63  1  0.50262839  0.00210860  0.16689152  1
  Cu+  Cu64  1  0.50057628  -0.00340581  0.50083539  1
  Cu+  Cu65  1  0.50314432  -0.00431463  0.83691554  1
  Cu+  Cu66  1  0.50044477  0.33722988  0.16212889  1
  Cu+  Cu67  1  0.49065129  0.32765382  0.50218987  1
  Cu+  Cu68  1  0.50608468  0.33390528  0.83159509  1
  Cu+  Cu69  1  0.50595329  0.66981287  0.16758113  1
  Cu+  Cu70  1  0.49538297  0.66538260  0.49808140  1
  Cu+  Cu71  1  0.49816851  0.66368908  0.83292963  1
  Cu+  Cu72  1  0.84117769  -0.00080372  0.16636535  1
  Cu+  Cu73  1  0.83228143  0.00248963  0.49921642  1
  Cu+  Cu74  1  0.82924332  -0.00159953  0.83056698  1
  Cu+  Cu75  1  0.83836130  0.33620640  0.16318685  1
  Cu+  Cu76  1  0.83263523  0.33582859  0.50006848  1
  Cu+  Cu77  1  0.83508418  0.32806756  0.83717106  1
  Cu+  Cu78  1  0.82611461  0.66654740  0.16743232  1
  Cu+  Cu79  1  0.82597496  0.66744963  0.50885151  1
  Cu+  Cu80  1  0.83534445  0.66726286  0.82820327  1
  Cu+  Cu81  1  0.00267935  0.16413059  0.16787798  1
  Cu+  Cu82  1  0.00120089  0.16982997  0.49989372  1
  Cu+  Cu83  1  0.00039255  0.16634427  0.83116869  1
  Cu+  Cu84  1  -0.00004733  0.49873593  0.17128102  1
  Cu+  Cu85  1  -0.00526938  0.50078253  0.49894465  1
  Cu+  Cu86  1  0.00344014  0.50057500  0.83466560  1
  Cu+  Cu87  1  0.00151803  0.83864160  0.16871710  1
  Cu+  Cu88  1  0.00218518  0.83210873  0.49930427  1
  Cu+  Cu89  1  -0.00289760  0.83162198  0.82934138  1
  Cu+  Cu90  1  0.33031866  0.16790317  0.16075542  1
  Cu+  Cu91  1  0.33513970  0.16668602  0.49883703  1
  Cu+  Cu92  1  0.33596973  0.16716344  0.83386432  1
  Cu+  Cu93  1  0.33347096  0.50564181  0.16722710  1
  Cu+  Cu94  1  0.32962397  0.49289324  0.50628227  1
  Cu+  Cu95  1  0.33213498  0.50017224  0.83585904  1
  Cu+  Cu96  1  0.33727238  0.83839454  0.16779575  1
  Cu+  Cu97  1  0.33385315  0.83163710  0.49778929  1
  Cu+  Cu98  1  0.33187757  0.83297177  0.83373116  1
  Cu+  Cu99  1  0.67280148  0.16710789  0.16600680  1
  Cu+  Cu100  1  0.66966481  0.16600616  0.50356604  1
  Cu+  Cu101  1  0.66220274  0.16544117  0.83242145  1
  Cu+  Cu102  1  0.66558211  0.51335924  0.16292754  1
  Cu+  Cu103  1  0.66369787  0.50058554  0.50093010  1
  Cu+  Cu104  1  0.66742086  0.49657674  0.82995120  1
  Cu+  Cu105  1  0.67154855  0.82984297  0.16596556  1
  Cu+  Cu106  1  0.66479520  0.83051917  0.50457213  1
  Cu+  Cu107  1  0.66232523  0.83558511  0.83725035  1
  Cu+  Cu108  1  0.59198915  0.26157245  0.92570430  1
  Cu+  Cu109  1  0.59616316  0.40909446  0.08233058  1
  Cu+  Cu110  1  0.25876780  0.59497090  0.59703293  1
  Cu+  Cu111  1  0.59378682  0.92510204  0.93197734  1
  Cu+  Cu112  1  0.93225603  0.25170348  0.92426068  1
  Cu+  Cu113  1  0.92928241  0.41685551  0.07274548  1
  Cu+  Cu114  1  0.26308355  0.07331690  0.07084171  1
  Cu+  Cu115  1  0.59844144  0.41011114  0.73436811  1
  Cu+  Cu116  1  0.74191550  0.74614326  0.26318566  1
  Cu+  Cu117  1  0.07116447  0.40460706  0.25969282  1
  Cu+  Cu118  1  0.92186403  0.40597984  0.41468243  1
  Cu+  Cu119  1  0.92348092  0.92629364  0.26411576  1
  Cu+  Cu120  1  0.73204651  0.73810772  0.59936637  1
  Cu+  Cu121  1  0.74266668  0.07136118  0.59051701  1
  Cu+  Cu122  1  0.40196733  0.39838394  0.60006832  1
  Cu+  Cu123  1  0.25858678  0.41122883  0.40402076  1
  Cu+  Cu124  1  0.58775849  0.06472048  0.74205332  1
  Cu+  Cu125  1  0.07031207  0.92774366  0.06613926  1
  Cu+  Cu126  1  0.40782515  0.24850391  0.40312556  1
  Cu+  Cu127  1  0.58861479  0.59441372  0.26472859  1
  Cu+  Cu128  1  0.40682985  0.40652376  0.24364266  1
  Cu+  Cu129  1  0.07647740  0.74051457  0.26132420  1
  Cu+  Cu130  1  0.74277992  0.59592204  0.06573404  1
  Cu+  Cu131  1  0.93051909  0.73689292  0.73915126  1
  Cu+  Cu132  1  0.07895158  0.07503134  0.26308476  1
  Te2-  Te133  1  0.24954044  0.25738496  0.07950292  1
  Te2-  Te134  1  0.25519453  0.25257050  0.40808059  1
  Te2-  Te135  1  0.25346384  0.25182618  0.74907951  1
  Te2-  Te136  1  0.24935976  0.58888460  0.08391862  1
  Te2-  Te137  1  0.25239593  0.57969189  0.41418803  1
  Te2-  Te138  1  0.25458666  0.58920053  0.75094285  1
  Te2-  Te139  1  0.25498191  0.92105546  0.08019406  1
  Te2-  Te140  1  0.25215091  0.91660892  0.41312942  1
  Te2-  Te141  1  0.25130284  0.91823654  0.74738960  1
  Te2-  Te142  1  0.59083522  0.25411784  0.08087071  1
  Te2-  Te143  1  0.58640032  0.25205093  0.41962316  1
  Te2-  Te144  1  0.58914075  0.25435630  0.74334559  1
  Te2-  Te145  1  0.58587885  0.59479017  0.07257992  1
  Te2-  Te146  1  0.57971718  0.58189040  0.41520267  1
  Te2-  Te147  1  0.58243025  0.58128288  0.74601501  1
  Te2-  Te148  1  0.59096106  0.92071477  0.08409780  1
  Te2-  Te149  1  0.58813876  0.91779903  0.41723281  1
  Te2-  Te150  1  0.58460013  0.91445403  0.74317522  1
  Te2-  Te151  1  0.92563429  0.25435265  0.07936785  1
  Te2-  Te152  1  0.92123292  0.25429257  0.41355315  1
  Te2-  Te153  1  0.91587839  0.24915863  0.74484379  1
  Te2-  Te154  1  0.91898550  0.58652217  0.08491130  1
  Te2-  Te155  1  0.91420102  0.59220123  0.42013464  1
  Te2-  Te156  1  0.92099826  0.58266628  0.74609897  1
  Te2-  Te157  1  0.91984386  0.91890235  0.07488400  1
  Te2-  Te158  1  0.91949829  0.91895217  0.41713652  1
  Te2-  Te159  1  0.91516697  0.91889604  0.74566625  1
  Te2-  Te160  1  0.25117112  0.08095420  0.24789368  1
  Te2-  Te161  1  0.25334963  0.08119025  0.58325490  1
  Te2-  Te162  1  0.25540978  0.07874748  0.91711894  1
  Te2-  Te163  1  0.25466072  0.41186658  0.25122437  1
  Te2-  Te164  1  0.24880340  0.40772792  0.59273817  1
  Te2-  Te165  1  0.25081007  0.41590011  0.92089521  1
  Te2-  Te166  1  0.25450136  0.75220813  0.25099653  1
  Te2-  Te167  1  0.25404203  0.74739326  0.58615842  1
  Te2-  Te168  1  0.24913964  0.75104270  0.92092530  1
  Te2-  Te169  1  0.58785592  0.08519120  0.25089333  1
  Te2-  Te170  1  0.58809956  0.07548973  0.58710188  1
  Te2-  Te171  1  0.58770853  0.07936701  0.92360711  1
  Te2-  Te172  1  0.58924566  0.41837902  0.24738966  1
  Te2-  Te173  1  0.58431778  0.40946919  0.58227282  1
  Te2-  Te174  1  0.59175020  0.41323250  0.92357152  1
  Te2-  Te175  1  0.58977485  0.74853080  0.25786381  1
  Te2-  Te176  1  0.58091107  0.74267186  0.58769584  1
  Te2-  Te177  1  0.58412638  0.74408245  0.91888803  1
  Te2-  Te178  1  0.92165911  0.08146452  0.25698644  1
  Te2-  Te179  1  0.92068648  0.08264605  0.58436278  1
  Te2-  Te180  1  0.91728132  0.07855865  0.91482542  1
  Te2-  Te181  1  0.91740436  0.41391213  0.25897522  1
  Te2-  Te182  1  0.91706022  0.41595093  0.58784135  1
  Te2-  Te183  1  0.92247539  0.41290487  0.91982513  1
  Te2-  Te184  1  0.92206590  0.74290384  0.25077202  1
  Te2-  Te185  1  0.92230592  0.74551565  0.58602315  1
  Te2-  Te186  1  0.91876512  0.74613429  0.91691878  1
  Te2-  Te187  1  0.07864539  0.25345443  0.25393891  1
  Te2-  Te188  1  0.08518945  0.25294649  0.58355703  1
  Te2-  Te189  1  0.08381284  0.25308656  0.91858739  1
  Te2-  Te190  1  0.07972002  0.58729335  0.25607405  1
  Te2-  Te191  1  0.07878853  0.58306837  0.58475982  1
  Te2-  Te192  1  0.08037009  0.58797168  0.92009086  1
  Te2-  Te193  1  0.08012096  0.92420849  0.25894739  1
  Te2-  Te194  1  0.08239735  0.91827195  0.58381420  1
  Te2-  Te195  1  0.07633174  0.92148634  0.91393732  1
  Te2-  Te196  1  0.41225850  0.25303953  0.24949457  1
  Te2-  Te197  1  0.41235452  0.24585374  0.59423699  1
  Te2-  Te198  1  0.41578603  0.25501363  0.91695893  1
  Te2-  Te199  1  0.41345507  0.59349564  0.25005704  1
  Te2-  Te200  1  0.41318461  0.58398157  0.58690827  1
  Te2-  Te201  1  0.41649802  0.58188124  0.92062679  1
  Te2-  Te202  1  0.41876817  0.92171121  0.25359323  1
  Te2-  Te203  1  0.41282686  0.91745377  0.58434786  1
  Te2-  Te204  1  0.41346680  0.91700086  0.92021523  1
  Te2-  Te205  1  0.75219444  0.25499905  0.24924669  1
  Te2-  Te206  1  0.74843456  0.25645912  0.58499123  1
  Te2-  Te207  1  0.74499706  0.25063970  0.92061115  1
  Te2-  Te208  1  0.74631965  0.58768525  0.26164557  1
  Te2-  Te209  1  0.73944074  0.58490806  0.59165124  1
  Te2-  Te210  1  0.74793502  0.58581445  0.91372706  1
  Te2-  Te211  1  0.75215992  0.91859092  0.25051729  1
  Te2-  Te212  1  0.74778774  0.91786669  0.58783379  1
  Te2-  Te213  1  0.74702085  0.92047407  0.92014844  1
  Te2-  Te214  1  0.07535534  0.08374777  0.07236983  1
  Te2-  Te215  1  0.08123805  0.08069241  0.41588571  1
  Te2-  Te216  1  0.08243314  0.08280947  0.74589123  1
  Te2-  Te217  1  0.08111189  0.41660984  0.07836841  1
  Te2-  Te218  1  0.07573691  0.41007065  0.41453323  1
  Te2-  Te219  1  0.08269922  0.41618039  0.74774652  1
  Te2-  Te220  1  0.08148314  0.75107358  0.08141735  1
  Te2-  Te221  1  0.08076643  0.74250456  0.41577867  1
  Te2-  Te222  1  0.08197214  0.74594916  0.74523292  1
  Te2-  Te223  1  0.41800184  0.08270402  0.07859456  1
  Te2-  Te224  1  0.41746632  0.07997300  0.41458252  1
  Te2-  Te225  1  0.41593427  0.07789323  0.75113950  1
  Te2-  Te226  1  0.40991751  0.41775879  0.07951362  1
  Te2-  Te227  1  0.41026423  0.40867028  0.40714861  1
  Te2-  Te228  1  0.40902903  0.40960838  0.75234185  1
  Te2-  Te229  1  0.41804716  0.75134801  0.08376440  1
  Te2-  Te230  1  0.41413829  0.74755745  0.41204927  1
  Te2-  Te231  1  0.41205263  0.74575489  0.74930813  1
  Te2-  Te232  1  0.75419656  0.08127186  0.08209478  1
  Te2-  Te233  1  0.74802013  0.08383685  0.41193509  1
  Te2-  Te234  1  0.74283401  0.07759786  0.74520484  1
  Te2-  Te235  1  0.74686422  0.41546768  0.08181292  1
  Te2-  Te236  1  0.74344893  0.41528899  0.41624601  1
  Te2-  Te237  1  0.75135460  0.40972192  0.74728813  1
  Te2-  Te238  1  0.74799925  0.74777098  0.07423285  1
  Te2-  Te239  1  0.74640954  0.74748449  0.41549521  1
  Te2-  Te240  1  0.73978471  0.74582729  0.75088335  1
