# generated using pymatgen
data_Ti27(Cu53Te54)2
_symmetry_space_group_name_H-M   'P 1'
_cell_length_a   17.87340127
_cell_length_b   17.87612200
_cell_length_c   17.87442641
_cell_angle_alpha   89.99489100
_cell_angle_beta   89.99786845
_cell_angle_gamma   89.99427802
_symmetry_Int_Tables_number   1
_chemical_formula_structural   Ti27(Cu53Te54)2
_chemical_formula_sum   'Ti27 Cu106 Te108'
_cell_volume   5711.00611832
_cell_formula_units_Z   1
loop_
 _symmetry_equiv_pos_site_id
 _symmetry_equiv_pos_as_xyz
  1  'x, y, z'
loop_
 _atom_type_symbol
 _atom_type_oxidation_number
  Ti4+  4.0
  Cu+  1.0
  Te2-  -2.0
loop_
 _atom_site_type_symbol
 _atom_site_label
 _atom_site_symmetry_multiplicity
 _atom_site_fract_x
 _atom_site_fract_y
 _atom_site_fract_z
 _atom_site_occupancy
  Ti4+  Ti0  1  0.16721136  0.16872468  0.16963994  1
  Ti4+  Ti1  1  0.16707600  0.16371051  0.50380836  1
  Ti4+  Ti2  1  0.16636245  0.16627881  0.83496377  1
  Ti4+  Ti3  1  0.16863007  0.50502336  0.16875359  1
  Ti4+  Ti4  1  0.16507922  0.49773581  0.50172719  1
  Ti4+  Ti5  1  0.16664079  0.49837400  0.83109108  1
  Ti4+  Ti6  1  0.16900552  0.83456633  0.16648152  1
  Ti4+  Ti7  1  0.16877323  0.83438077  0.50214193  1
  Ti4+  Ti8  1  0.16301593  0.83390924  0.83359910  1
  Ti4+  Ti9  1  0.49925832  0.16858472  0.16715044  1
  Ti4+  Ti10  1  0.49948730  0.16614506  0.50059321  1
  Ti4+  Ti11  1  0.49929383  0.16730021  0.83442211  1
  Ti4+  Ti12  1  0.49904917  0.50367831  0.16335380  1
  Ti4+  Ti13  1  0.50010915  0.49857724  0.49861024  1
  Ti4+  Ti14  1  0.49880114  0.50142702  0.83323519  1
  Ti4+  Ti15  1  0.49855231  0.83441734  0.16491576  1
  Ti4+  Ti16  1  0.50357222  0.83194581  0.50059499  1
  Ti4+  Ti17  1  0.49998612  0.83316163  0.83133310  1
  Ti4+  Ti18  1  0.83234994  0.16487162  0.16272824  1
  Ti4+  Ti19  1  0.83036717  0.16533698  0.49722813  1
  Ti4+  Ti20  1  0.83412763  0.16486431  0.83288595  1
  Ti4+  Ti21  1  0.83608847  0.49828357  0.16822959  1
  Ti4+  Ti22  1  0.83473361  0.49809160  0.50078746  1
  Ti4+  Ti23  1  0.83535970  0.49959755  0.83500553  1
  Ti4+  Ti24  1  0.83231589  0.83165063  0.16596605  1
  Ti4+  Ti25  1  0.83278040  0.83593010  0.49982367  1
  Ti4+  Ti26  1  0.83350690  0.83313562  0.82964968  1
  Cu+  Cu27  1  0.16434837  0.16592856  0.00374929  1
  Cu+  Cu28  1  0.16751868  0.16578717  0.34057804  1
  Cu+  Cu29  1  0.17027183  0.16787887  0.66740280  1
  Cu+  Cu30  1  0.17194760  0.49973531  0.00052204  1
  Cu+  Cu31  1  0.16397987  0.49828733  0.33220274  1
  Cu+  Cu32  1  0.15872314  0.49945773  0.66660020  1
  Cu+  Cu33  1  0.17227477  0.83804880  -0.00121557  1
  Cu+  Cu34  1  0.16762456  0.83481259  0.33414708  1
  Cu+  Cu35  1  0.16491003  0.83204340  0.66943634  1
  Cu+  Cu36  1  0.49900155  0.16806622  0.00053074  1
  Cu+  Cu37  1  0.49958296  0.16583639  0.33367414  1
  Cu+  Cu38  1  0.49922221  0.16658409  0.67052993  1
  Cu+  Cu39  1  0.49609898  0.50775080  -0.00236721  1
  Cu+  Cu40  1  0.49874703  0.49858161  0.33173719  1
  Cu+  Cu41  1  0.49946361  0.49924328  0.66443719  1
  Cu+  Cu42  1  0.50251489  0.83323099  -0.00019212  1
  Cu+  Cu43  1  0.49848519  0.83137269  0.33135344  1
  Cu+  Cu44  1  0.50820761  0.83236958  0.66711408  1
  Cu+  Cu45  1  0.83538395  0.16697283  -0.00312549  1
  Cu+  Cu46  1  0.83191615  0.16318831  0.32868593  1
  Cu+  Cu47  1  0.83157324  0.16345300  0.66331798  1
  Cu+  Cu48  1  0.83295611  0.49773952  0.00249754  1
  Cu+  Cu49  1  0.83836853  0.49968155  0.33673270  1
  Cu+  Cu50  1  0.83633899  0.49688638  0.67051973  1
  Cu+  Cu51  1  0.83343841  0.83286432  -0.00384845  1
  Cu+  Cu52  1  0.82955870  0.83590328  0.33599315  1
  Cu+  Cu53  1  0.82814942  0.82977197  0.66155865  1
  Cu+  Cu54  1  0.16841044  0.00086722  0.16847225  1
  Cu+  Cu55  1  0.17152308  0.00073130  0.49962230  1
  Cu+  Cu56  1  0.16327080  -0.00017323  0.83532435  1
  Cu+  Cu57  1  0.16945893  0.33906643  0.16623086  1
  Cu+  Cu58  1  0.16401165  0.32933390  0.50715543  1
  Cu+  Cu59  1  0.16772682  0.33083465  0.83575926  1
  Cu+  Cu60  1  0.16464559  0.67401610  0.16950538  1
  Cu+  Cu61  1  0.16894226  0.66691780  0.50017885  1
  Cu+  Cu62  1  0.16337373  0.66439180  0.82661682  1
  Cu+  Cu63  1  0.49923397  0.00187341  0.16576036  1
  Cu+  Cu64  1  0.50396257  -0.00185022  0.50287083  1
  Cu+  Cu65  1  0.49851276  0.00295338  0.83514345  1
  Cu+  Cu66  1  0.49875507  0.33422191  0.16816479  1
  Cu+  Cu67  1  0.49920307  0.33303974  0.49893704  1
  Cu+  Cu68  1  0.49978040  0.33412861  0.83517217  1
  Cu+  Cu69  1  0.49537322  0.67075175  0.15989585  1
  Cu+  Cu70  1  0.50040271  0.66087868  0.49737365  1
  Cu+  Cu71  1  0.50062939  0.66754367  0.83015788  1
  Cu+  Cu72  1  0.82944973  0.00044976  0.16220776  1
  Cu+  Cu73  1  0.82987960  0.00014634  0.49242327  1
  Cu+  Cu74  1  0.83508303  -0.00282061  0.83282327  1
  Cu+  Cu75  1  0.83675629  0.32969810  0.16783376  1
  Cu+  Cu76  1  0.83172865  0.33173188  0.49925096  1
  Cu+  Cu77  1  0.83761179  0.33213978  0.83494637  1
  Cu+  Cu78  1  0.83438523  0.66283663  0.16713348  1
  Cu+  Cu79  1  0.83467851  0.66591500  0.50155431  1
  Cu+  Cu80  1  0.83423291  0.66794223  0.83547031  1
  Cu+  Cu81  1  -0.00246205  0.16866620  0.16968368  1
  Cu+  Cu82  1  -0.00037952  0.16549541  0.49680769  1
  Cu+  Cu83  1  -0.00098374  0.16899222  0.83630293  1
  Cu+  Cu84  1  -0.00086830  0.50596270  0.17517797  1
  Cu+  Cu85  1  0.00230013  0.49547893  0.50600869  1
  Cu+  Cu86  1  -0.00004194  0.49838101  0.82730684  1
  Cu+  Cu87  1  0.00287167  0.83087712  0.16523223  1
  Cu+  Cu88  1  -0.00094843  0.83670319  0.50050305  1
  Cu+  Cu89  1  -0.00222563  0.84229409  0.83082431  1
  Cu+  Cu90  1  0.33319448  0.16985806  0.16845739  1
  Cu+  Cu91  1  0.33265191  0.16280851  0.50372019  1
  Cu+  Cu92  1  0.33468315  0.16485039  0.83505175  1
  Cu+  Cu93  1  0.33479729  0.50214385  0.16003085  1
  Cu+  Cu94  1  0.33183055  0.49876169  0.49880500  1
  Cu+  Cu95  1  0.33374005  0.50004050  0.83213782  1
  Cu+  Cu96  1  0.33572971  0.83360158  0.16989966  1
  Cu+  Cu97  1  0.33613160  0.83248511  0.50213986  1
  Cu+  Cu98  1  0.33062926  0.83195838  0.83479374  1
  Cu+  Cu99  1  0.66570343  0.16462891  0.16245135  1
  Cu+  Cu100  1  0.66532772  0.16652318  0.49889851  1
  Cu+  Cu101  1  0.66597338  0.16493430  0.83186600  1
  Cu+  Cu102  1  0.67175555  0.50322132  0.16283022  1
  Cu+  Cu103  1  0.66582608  0.49879266  0.49903116  1
  Cu+  Cu104  1  0.66644244  0.50106765  0.83729656  1
  Cu+  Cu105  1  0.66273699  0.83126574  0.16362846  1
  Cu+  Cu106  1  0.66836871  0.83835156  0.50470030  1
  Cu+  Cu107  1  0.66590689  0.83016970  0.82706426  1
  Cu+  Cu108  1  0.92007157  0.25382989  0.26180561  1
  Cu+  Cu109  1  0.92031471  0.59681858  0.26671014  1
  Cu+  Cu110  1  0.59355668  0.73408287  0.73814534  1
  Cu+  Cu111  1  0.74044534  0.73369974  0.58547951  1
  Cu+  Cu112  1  0.26453198  0.25943915  0.59498266  1
  Cu+  Cu113  1  0.74740423  0.59202219  0.07205530  1
  Cu+  Cu114  1  0.07458277  0.40840383  0.25273074  1
  Cu+  Cu115  1  0.26290204  0.40599199  0.07131776  1
  Cu+  Cu116  1  0.41187314  0.40385995  0.26231127  1
  Cu+  Cu117  1  0.06828675  0.59573518  0.73746452  1
  Cu+  Cu118  1  0.07519371  0.25843827  0.41260326  1
  Cu+  Cu119  1  0.73664243  0.92827806  0.40206693  1
  Cu+  Cu120  1  0.92802470  0.26344134  0.92775221  1
  Cu+  Cu121  1  0.07274994  0.39995896  0.59682152  1
  Cu+  Cu122  1  0.26336705  0.07194452  0.40792165  1
  Cu+  Cu123  1  0.59489871  0.93252894  0.59863089  1
  Cu+  Cu124  1  0.92412000  0.40023339  0.74035122  1
  Cu+  Cu125  1  0.26264420  0.92943641  0.92368174  1
  Cu+  Cu126  1  0.07110334  0.75169046  0.26566558  1
  Cu+  Cu127  1  0.25974032  0.73900692  0.74209875  1
  Cu+  Cu128  1  0.07333353  0.93243407  0.73658362  1
  Cu+  Cu129  1  0.40822857  0.73985849  0.26345820  1
  Cu+  Cu130  1  0.40143807  0.59987282  0.06735284  1
  Cu+  Cu131  1  0.59289416  0.74242325  0.07129856  1
  Cu+  Cu132  1  0.92306899  0.92558694  0.93003867  1
  Te2-  Te133  1  0.25193643  0.25289191  0.08104942  1
  Te2-  Te134  1  0.25357513  0.25402502  0.41937919  1
  Te2-  Te135  1  0.25491647  0.25260941  0.75092391  1
  Te2-  Te136  1  0.24993206  0.59391134  0.08009847  1
  Te2-  Te137  1  0.24936783  0.58305303  0.41466042  1
  Te2-  Te138  1  0.25361797  0.58257522  0.74287348  1
  Te2-  Te139  1  0.25689216  0.92223274  0.08321518  1
  Te2-  Te140  1  0.25641912  0.91701899  0.41426405  1
  Te2-  Te141  1  0.25106851  0.92052454  0.74891088  1
  Te2-  Te142  1  0.58401968  0.25425661  0.08156458  1
  Te2-  Te143  1  0.58394902  0.25139210  0.41460673  1
  Te2-  Te144  1  0.58533215  0.25321169  0.74926116  1
  Te2-  Te145  1  0.58914953  0.58912601  0.07688418  1
  Te2-  Te146  1  0.58627827  0.58291978  0.41135180  1
  Te2-  Te147  1  0.58747486  0.58280997  0.74564004  1
  Te2-  Te148  1  0.58491473  0.92188989  0.08020868  1
  Te2-  Te149  1  0.58513719  0.91770042  0.41005885  1
  Te2-  Te150  1  0.58702024  0.92443224  0.75058194  1
  Te2-  Te151  1  0.92197571  0.25322482  0.07862159  1
  Te2-  Te152  1  0.91858382  0.25384307  0.41216840  1
  Te2-  Te153  1  0.91963494  0.24839746  0.74295412  1
  Te2-  Te154  1  0.92218648  0.58409145  0.08038243  1
  Te2-  Te155  1  0.92382429  0.58606389  0.41965471  1
  Te2-  Te156  1  0.91758319  0.58980798  0.74647171  1
  Te2-  Te157  1  0.91907811  0.91751996  0.08286861  1
  Te2-  Te158  1  0.92051034  0.91979640  0.41238569  1
  Te2-  Te159  1  0.91562718  0.91986546  0.73831515  1
  Te2-  Te160  1  0.25356116  0.08256912  0.25411240  1
  Te2-  Te161  1  0.25354328  0.07709247  0.59104420  1
  Te2-  Te162  1  0.25162161  0.08158353  0.92203192  1
  Te2-  Te163  1  0.25753470  0.41778713  0.25373467  1
  Te2-  Te164  1  0.25254583  0.41455701  0.58926646  1
  Te2-  Te165  1  0.25464934  0.41281831  0.91713483  1
  Te2-  Te166  1  0.25483216  0.74796032  0.25594965  1
  Te2-  Te167  1  0.25386558  0.74693885  0.58718048  1
  Te2-  Te168  1  0.24781123  0.74321484  0.91638863  1
  Te2-  Te169  1  0.58500053  0.08168146  0.25110667  1
  Te2-  Te170  1  0.58706294  0.08379117  0.58854686  1
  Te2-  Te171  1  0.58529565  0.08218126  0.92040154  1
  Te2-  Te172  1  0.58745402  0.41910112  0.24708549  1
  Te2-  Te173  1  0.58518653  0.41322192  0.58460419  1
  Te2-  Te174  1  0.58287584  0.41750704  0.92137398  1
  Te2-  Te175  1  0.58364505  0.74493114  0.25035398  1
  Te2-  Te176  1  0.58839530  0.73929129  0.58462056  1
  Te2-  Te177  1  0.58735130  0.74693301  0.91725848  1
  Te2-  Te178  1  0.91710512  0.07711576  0.24909561  1
  Te2-  Te179  1  0.91686788  0.07942708  0.58023625  1
  Te2-  Te180  1  0.92109046  0.07788795  0.91958651  1
  Te2-  Te181  1  0.92191628  0.40958673  0.25752319  1
  Te2-  Te182  1  0.91916902  0.40726525  0.58758665  1
  Te2-  Te183  1  0.92336187  0.41648277  0.92298466  1
  Te2-  Te184  1  0.91755953  0.74843700  0.25646258  1
  Te2-  Te185  1  0.92073146  0.74926612  0.58444576  1
  Te2-  Te186  1  0.92179388  0.74954912  0.91551692  1
  Te2-  Te187  1  0.08047495  0.25582588  0.25717314  1
  Te2-  Te188  1  0.07430165  0.24708652  0.59117650  1
  Te2-  Te189  1  0.08204365  0.25347453  0.92264087  1
  Te2-  Te190  1  0.08118349  0.59343083  0.25821886  1
  Te2-  Te191  1  0.07939064  0.59044315  0.58431334  1
  Te2-  Te192  1  0.08239536  0.58232889  0.91792960  1
  Te2-  Te193  1  0.08147558  0.91931120  0.25203266  1
  Te2-  Te194  1  0.08216421  0.92187387  0.58496578  1
  Te2-  Te195  1  0.07847187  0.92142769  0.92400975  1
  Te2-  Te196  1  0.41256416  0.25295965  0.25622360  1
  Te2-  Te197  1  0.41539252  0.25271584  0.58757323  1
  Te2-  Te198  1  0.41330444  0.25296879  0.91967262  1
  Te2-  Te199  1  0.41262431  0.58788027  0.25133235  1
  Te2-  Te200  1  0.41331937  0.58375430  0.58402431  1
  Te2-  Te201  1  0.40996024  0.59169969  0.91466930  1
  Te2-  Te202  1  0.41584701  0.92198942  0.25266581  1
  Te2-  Te203  1  0.41806327  0.91589277  0.58760432  1
  Te2-  Te204  1  0.41547780  0.91844101  0.91942591  1
  Te2-  Te205  1  0.74591387  0.25013981  0.24903710  1
  Te2-  Te206  1  0.74685502  0.25083639  0.58424775  1
  Te2-  Te207  1  0.74780925  0.25162720  0.91640903  1
  Te2-  Te208  1  0.74974499  0.58344383  0.25620021  1
  Te2-  Te209  1  0.74811644  0.58060388  0.58815764  1
  Te2-  Te210  1  0.74890028  0.58707161  0.91978871  1
  Te2-  Te211  1  0.74422853  0.91807554  0.24772080  1
  Te2-  Te212  1  0.74862881  0.92706239  0.58907215  1
  Te2-  Te213  1  0.74494604  0.91605323  0.91468487  1
  Te2-  Te214  1  0.08108232  0.08290800  0.08695299  1
  Te2-  Te215  1  0.08037051  0.07694104  0.41592505  1
  Te2-  Te216  1  0.07937269  0.08404914  0.74706905  1
  Te2-  Te217  1  0.07953204  0.42152913  0.08404390  1
  Te2-  Te218  1  0.07865034  0.41106636  0.41279534  1
  Te2-  Te219  1  0.07987753  0.40466577  0.74800363  1
  Te2-  Te220  1  0.08498452  0.75083211  0.07613339  1
  Te2-  Te221  1  0.08109816  0.74908093  0.41791118  1
  Te2-  Te222  1  0.07312561  0.74884939  0.74666054  1
  Te2-  Te223  1  0.41287459  0.08348186  0.08224886  1
  Te2-  Te224  1  0.41586714  0.07740959  0.41546555  1
  Te2-  Te225  1  0.41325929  0.08040153  0.74838850  1
  Te2-  Te226  1  0.41633174  0.41322439  0.07587717  1
  Te2-  Te227  1  0.41186143  0.41214746  0.41415041  1
  Te2-  Te228  1  0.41534341  0.41470248  0.74780018  1
  Te2-  Te229  1  0.40822453  0.75203434  0.07371871  1
  Te2-  Te230  1  0.41482714  0.74569925  0.41690217  1
  Te2-  Te231  1  0.41329365  0.74881676  0.74439740  1
  Te2-  Te232  1  0.74689555  0.08144930  0.07529913  1
  Te2-  Te233  1  0.74273473  0.08272958  0.40895818  1
  Te2-  Te234  1  0.74901773  0.07928291  0.74823760  1
  Te2-  Te235  1  0.75030009  0.41007502  0.08367589  1
  Te2-  Te236  1  0.74961693  0.41505979  0.41445614  1
  Te2-  Te237  1  0.74766321  0.41370024  0.75231553  1
  Te2-  Te238  1  0.74863034  0.74578212  0.07710656  1
  Te2-  Te239  1  0.74533223  0.74708631  0.41697893  1
  Te2-  Te240  1  0.74709777  0.74109794  0.74461370  1
