# generated using pymatgen
data_Ti27(Cu53Te54)2
_symmetry_space_group_name_H-M   'P 1'
_cell_length_a   17.91816468
_cell_length_b   17.92957226
_cell_length_c   17.94435489
_cell_angle_alpha   89.99418119
_cell_angle_beta   90.08466847
_cell_angle_gamma   89.94352606
_symmetry_Int_Tables_number   1
_chemical_formula_structural   Ti27(Cu53Te54)2
_chemical_formula_sum   'Ti27 Cu106 Te108'
_cell_volume   5764.88455739
_cell_formula_units_Z   1
loop_
 _symmetry_equiv_pos_site_id
 _symmetry_equiv_pos_as_xyz
  1  'x, y, z'
loop_
 _atom_type_symbol
 _atom_type_oxidation_number
  Ti4+  4.0
  Cu+  1.0
  Te2-  -2.0
loop_
 _atom_site_type_symbol
 _atom_site_label
 _atom_site_symmetry_multiplicity
 _atom_site_fract_x
 _atom_site_fract_y
 _atom_site_fract_z
 _atom_site_occupancy
  Ti4+  Ti0  1  0.16968933  0.16753943  0.16577278  1
  Ti4+  Ti1  1  0.17047602  0.16777411  0.49692761  1
  Ti4+  Ti2  1  0.16727418  0.16640128  0.83053048  1
  Ti4+  Ti3  1  0.16401222  0.50183628  0.16511769  1
  Ti4+  Ti4  1  0.16283265  0.50215326  0.50024033  1
  Ti4+  Ti5  1  0.16498440  0.49985036  0.83265609  1
  Ti4+  Ti6  1  0.16348654  0.83095549  0.16616442  1
  Ti4+  Ti7  1  0.16645087  0.83045267  0.49975600  1
  Ti4+  Ti8  1  0.16240545  0.83610475  0.83452525  1
  Ti4+  Ti9  1  0.50185860  0.16710130  0.16586244  1
  Ti4+  Ti10  1  0.50156645  0.16756391  0.50013487  1
  Ti4+  Ti11  1  0.50158465  0.16806985  0.83260446  1
  Ti4+  Ti12  1  0.49738892  0.50045571  0.16913964  1
  Ti4+  Ti13  1  0.49786530  0.50344130  0.50327300  1
  Ti4+  Ti14  1  0.49884539  0.50353828  0.83586964  1
  Ti4+  Ti15  1  0.49901067  0.83212120  0.16109221  1
  Ti4+  Ti16  1  0.50050960  0.83592255  0.49427822  1
  Ti4+  Ti17  1  0.50289098  0.83624326  0.82993179  1
  Ti4+  Ti18  1  0.83294329  0.16901526  0.16783214  1
  Ti4+  Ti19  1  0.83614746  0.16261846  0.50105087  1
  Ti4+  Ti20  1  0.83580113  0.16801449  0.83477565  1
  Ti4+  Ti21  1  0.83451967  0.49236619  0.17111139  1
  Ti4+  Ti22  1  0.83156080  0.49813315  0.50095688  1
  Ti4+  Ti23  1  0.83439645  0.49952025  0.83449880  1
  Ti4+  Ti24  1  0.83299735  0.83239702  0.16677064  1
  Ti4+  Ti25  1  0.83237901  0.83330151  0.49669996  1
  Ti4+  Ti26  1  0.83696214  0.83177197  0.83454336  1
  Cu+  Cu27  1  0.16846310  0.16749467  -0.00047111  1
  Cu+  Cu28  1  0.17359508  0.16741691  0.33334591  1
  Cu+  Cu29  1  0.16892731  0.16712667  0.66308430  1
  Cu+  Cu30  1  0.17101269  0.49952781  -0.00019637  1
  Cu+  Cu31  1  0.15836518  0.50542056  0.33472254  1
  Cu+  Cu32  1  0.16186905  0.50609190  0.66813603  1
  Cu+  Cu33  1  0.16180444  0.83064944  -0.00095302  1
  Cu+  Cu34  1  0.16416970  0.82949430  0.33347951  1
  Cu+  Cu35  1  0.16622759  0.83398620  0.66921126  1
  Cu+  Cu36  1  0.50170438  0.16727211  -0.00270274  1
  Cu+  Cu37  1  0.50583151  0.16605111  0.33396513  1
  Cu+  Cu38  1  0.50246167  0.16855988  0.66660512  1
  Cu+  Cu39  1  0.49680130  0.50553042  0.00365519  1
  Cu+  Cu40  1  0.49762769  0.50251279  0.33845307  1
  Cu+  Cu41  1  0.49913237  0.50472864  0.67105604  1
  Cu+  Cu42  1  0.50013927  0.83278643  -0.00605551  1
  Cu+  Cu43  1  0.49766705  0.83373047  0.32644729  1
  Cu+  Cu44  1  0.50190252  0.83739092  0.66359982  1
  Cu+  Cu45  1  0.82859629  0.17206487  0.00309892  1
  Cu+  Cu46  1  0.83561695  0.16826631  0.33430134  1
  Cu+  Cu47  1  0.83710151  0.16228150  0.66848712  1
  Cu+  Cu48  1  0.83564306  0.49501662  0.00038546  1
  Cu+  Cu49  1  0.83243644  0.48887553  0.33686694  1
  Cu+  Cu50  1  0.83352642  0.49691568  0.66703822  1
  Cu+  Cu51  1  0.83906182  0.83082210  0.00320884  1
  Cu+  Cu52  1  0.83222741  0.83727966  0.33106339  1
  Cu+  Cu53  1  0.83310711  0.83375524  0.66461928  1
  Cu+  Cu54  1  0.16787327  -0.00169628  0.16491253  1
  Cu+  Cu55  1  0.16965435  -0.00081238  0.49651724  1
  Cu+  Cu56  1  0.16184849  0.00347025  0.83659738  1
  Cu+  Cu57  1  0.16995187  0.33584219  0.16408270  1
  Cu+  Cu58  1  0.17026419  0.33246449  0.49855218  1
  Cu+  Cu59  1  0.16807426  0.33010698  0.83250739  1
  Cu+  Cu60  1  0.16007827  0.66928762  0.17111020  1
  Cu+  Cu61  1  0.16651623  0.66174899  0.50271663  1
  Cu+  Cu62  1  0.16010868  0.66689549  0.83186450  1
  Cu+  Cu63  1  0.50319640  -0.00079893  0.16259724  1
  Cu+  Cu64  1  0.50465972  0.00288166  0.49387309  1
  Cu+  Cu65  1  0.50381270  0.00187673  0.83021069  1
  Cu+  Cu66  1  0.49917357  0.33265275  0.16892373  1
  Cu+  Cu67  1  0.50005411  0.33536820  0.50262437  1
  Cu+  Cu68  1  0.50069926  0.33511252  0.83460937  1
  Cu+  Cu69  1  0.49381056  0.66480248  0.16492723  1
  Cu+  Cu70  1  0.49748350  0.67046199  0.49986521  1
  Cu+  Cu71  1  0.49856544  0.67167870  0.83545202  1
  Cu+  Cu72  1  0.83161982  0.00036402  0.16971464  1
  Cu+  Cu73  1  0.83658086  -0.00434084  0.50171050  1
  Cu+  Cu74  1  0.83888349  0.00065150  0.83523492  1
  Cu+  Cu75  1  0.83156002  0.33083018  0.16942712  1
  Cu+  Cu76  1  0.83418944  0.32915868  0.49950387  1
  Cu+  Cu77  1  0.83587241  0.33544719  0.83130962  1
  Cu+  Cu78  1  0.83387822  0.66117079  0.16702544  1
  Cu+  Cu79  1  0.82822599  0.66773846  0.49863170  1
  Cu+  Cu80  1  0.83151533  0.66444405  0.83508976  1
  Cu+  Cu81  1  0.00165632  0.16910484  0.16836837  1
  Cu+  Cu82  1  0.00952078  0.15990413  0.50250217  1
  Cu+  Cu83  1  -0.00037460  0.16268702  0.83218686  1
  Cu+  Cu84  1  0.00147979  0.48863219  0.16971282  1
  Cu+  Cu85  1  -0.00375476  0.49963813  0.49539444  1
  Cu+  Cu86  1  0.00024908  0.50035266  0.82768910  1
  Cu+  Cu87  1  -0.00490547  0.82993968  0.16862903  1
  Cu+  Cu88  1  -0.00273199  0.83327255  0.49889166  1
  Cu+  Cu89  1  -0.00141611  0.83489040  0.84280769  1
  Cu+  Cu90  1  0.33667702  0.16565629  0.16637135  1
  Cu+  Cu91  1  0.33608990  0.16983715  0.49899450  1
  Cu+  Cu92  1  0.33512201  0.16744251  0.83087169  1
  Cu+  Cu93  1  0.32953773  0.50361352  0.16121025  1
  Cu+  Cu94  1  0.33029346  0.50392648  0.50310801  1
  Cu+  Cu95  1  0.33308165  0.50048935  0.83484531  1
  Cu+  Cu96  1  0.33254100  0.82951734  0.16472032  1
  Cu+  Cu97  1  0.33478557  0.82987720  0.50140883  1
  Cu+  Cu98  1  0.33159186  0.83700268  0.83128470  1
  Cu+  Cu99  1  0.66705074  0.17092141  0.16350084  1
  Cu+  Cu100  1  0.66766250  0.16311712  0.49767598  1
  Cu+  Cu101  1  0.66724991  0.16861152  0.83381238  1
  Cu+  Cu102  1  0.66580197  0.49466498  0.17405066  1
  Cu+  Cu103  1  0.66357119  0.50231501  0.50319524  1
  Cu+  Cu104  1  0.66555582  0.50259352  0.83763441  1
  Cu+  Cu105  1  0.66558009  0.83091239  0.16130127  1
  Cu+  Cu106  1  0.66653536  0.83649173  0.49316645  1
  Cu+  Cu107  1  0.67014571  0.83617099  0.83008738  1
  Cu+  Cu108  1  0.06711071  0.74648376  0.26386882  1
  Cu+  Cu109  1  0.93123264  0.25241597  0.26318677  1
  Cu+  Cu110  1  0.07372685  0.73569039  0.92534839  1
  Cu+  Cu111  1  0.92481798  0.92785527  0.25890566  1
  Cu+  Cu112  1  0.26192297  0.40577018  0.07036319  1
  Cu+  Cu113  1  0.06585707  0.59382494  0.40783832  1
  Cu+  Cu114  1  0.92647190  0.40028273  0.41465856  1
  Cu+  Cu115  1  0.07435108  0.08260291  0.93209804  1
  Cu+  Cu116  1  0.08871883  0.40275618  0.26252827  1
  Cu+  Cu117  1  0.41385696  0.74557909  0.59363303  1
  Cu+  Cu118  1  0.92529660  0.07125001  0.74232264  1
  Cu+  Cu119  1  0.73470804  0.26121032  0.07099163  1
  Cu+  Cu120  1  0.92047927  0.92896517  0.93204020  1
  Cu+  Cu121  1  0.09139620  0.06917497  0.59168184  1
  Cu+  Cu122  1  0.26043322  0.58690556  0.59798286  1
  Cu+  Cu123  1  0.92718248  0.91754759  0.59447027  1
  Cu+  Cu124  1  0.73228188  0.40476468  0.26709663  1
  Cu+  Cu125  1  0.91991370  0.73216855  0.07674761  1
  Cu+  Cu126  1  0.40482925  0.74888565  0.92089709  1
  Cu+  Cu127  1  0.92718898  0.40686711  0.73876936  1
  Cu+  Cu128  1  0.40222213  0.59324477  0.07334874  1
  Cu+  Cu129  1  0.06913841  0.59782468  0.74093081  1
  Cu+  Cu130  1  0.40641127  0.74032973  0.25797699  1
  Cu+  Cu131  1  0.92591876  0.40351512  0.07191056  1
  Cu+  Cu132  1  0.59751016  0.07391858  0.40286396  1
  Te2-  Te133  1  0.25545004  0.25214372  0.07986923  1
  Te2-  Te134  1  0.25647174  0.25466381  0.41318359  1
  Te2-  Te135  1  0.25270909  0.25108853  0.74563137  1
  Te2-  Te136  1  0.24642452  0.59357014  0.08048198  1
  Te2-  Te137  1  0.25007907  0.58507767  0.41243686  1
  Te2-  Te138  1  0.25255406  0.58829839  0.75084724  1
  Te2-  Te139  1  0.24916172  0.91367915  0.08020677  1
  Te2-  Te140  1  0.25117582  0.91311293  0.41474677  1
  Te2-  Te141  1  0.24733295  0.92194472  0.75030170  1
  Te2-  Te142  1  0.58362588  0.25644484  0.07830646  1
  Te2-  Te143  1  0.58719369  0.25512823  0.41685948  1
  Te2-  Te144  1  0.58684667  0.25451979  0.74843208  1
  Te2-  Te145  1  0.58790991  0.58298308  0.08766352  1
  Te2-  Te146  1  0.58339827  0.58779538  0.41761347  1
  Te2-  Te147  1  0.58471934  0.58888810  0.75233755  1
  Te2-  Te148  1  0.58520449  0.91630278  0.07637981  1
  Te2-  Te149  1  0.58626187  0.91939271  0.40542520  1
  Te2-  Te150  1  0.58857747  0.92066614  0.74489876  1
  Te2-  Te151  1  0.92191831  0.25303868  0.07988878  1
  Te2-  Te152  1  0.92627631  0.24770345  0.41744326  1
  Te2-  Te153  1  0.92141388  0.25270508  0.74654192  1
  Te2-  Te154  1  0.92115663  0.57793731  0.08422751  1
  Te2-  Te155  1  0.91260595  0.58677661  0.41148502  1
  Te2-  Te156  1  0.91639912  0.58852703  0.74549361  1
  Te2-  Te157  1  0.92067305  0.92316764  0.08411445  1
  Te2-  Te158  1  0.92138239  0.92058548  0.41088938  1
  Te2-  Te159  1  0.92391327  0.91780855  0.74636546  1
  Te2-  Te160  1  0.25318028  0.08062776  0.24883788  1
  Te2-  Te161  1  0.25595190  0.08100511  0.58272718  1
  Te2-  Te162  1  0.25374569  0.08285790  0.91659684  1
  Te2-  Te163  1  0.25041295  0.42096561  0.25427087  1
  Te2-  Te164  1  0.24775234  0.41797366  0.58728056  1
  Te2-  Te165  1  0.25288210  0.41261409  0.91676580  1
  Te2-  Te166  1  0.25162527  0.74595383  0.25269228  1
  Te2-  Te167  1  0.25138258  0.74597677  0.58909916  1
  Te2-  Te168  1  0.24950481  0.74782668  0.91646591  1
  Te2-  Te169  1  0.59013179  0.08020799  0.24859274  1
  Te2-  Te170  1  0.58637734  0.08096504  0.58620789  1
  Te2-  Te171  1  0.58752988  0.08185637  0.91762243  1
  Te2-  Te172  1  0.57961114  0.41311937  0.25828485  1
  Te2-  Te173  1  0.58239338  0.41855441  0.58873072  1
  Te2-  Te174  1  0.58205953  0.41895221  0.92237157  1
  Te2-  Te175  1  0.58375116  0.74631126  0.24671054  1
  Te2-  Te176  1  0.58692709  0.75226474  0.58087833  1
  Te2-  Te177  1  0.59023992  0.75109576  0.91522894  1
  Te2-  Te178  1  0.92071985  0.08161814  0.25325122  1
  Te2-  Te179  1  0.92499353  0.07544650  0.58742851  1
  Te2-  Te180  1  0.91969513  0.08316536  0.92852279  1
  Te2-  Te181  1  0.92528801  0.40484192  0.26037440  1
  Te2-  Te182  1  0.92032661  0.41156344  0.58537328  1
  Te2-  Te183  1  0.92390746  0.41262913  0.91822115  1
  Te2-  Te184  1  0.91509202  0.74273673  0.25688398  1
  Te2-  Te185  1  0.91676806  0.74635367  0.58308321  1
  Te2-  Te186  1  0.92044808  0.73882203  0.92193493  1
  Te2-  Te187  1  0.08528125  0.25298935  0.25537796  1
  Te2-  Te188  1  0.08407596  0.25407870  0.58339299  1
  Te2-  Te189  1  0.08074860  0.25066458  0.91665871  1
  Te2-  Te190  1  0.07158112  0.58822695  0.25171181  1
  Te2-  Te191  1  0.07197089  0.58737797  0.58563785  1
  Te2-  Te192  1  0.07858436  0.58200797  0.92193569  1
  Te2-  Te193  1  0.08043120  0.91943368  0.25246367  1
  Te2-  Te194  1  0.08134249  0.91788565  0.58589446  1
  Te2-  Te195  1  0.07771437  0.92530852  0.92537064  1
  Te2-  Te196  1  0.41694626  0.24942388  0.25353269  1
  Te2-  Te197  1  0.41621116  0.25260189  0.58619112  1
  Te2-  Te198  1  0.41485894  0.25241594  0.91766945  1
  Te2-  Te199  1  0.40934328  0.58467832  0.25533142  1
  Te2-  Te200  1  0.41202508  0.59134420  0.59110291  1
  Te2-  Te201  1  0.40891703  0.59093294  0.92054935  1
  Te2-  Te202  1  0.41407729  0.91976795  0.24472577  1
  Te2-  Te203  1  0.41695380  0.92230535  0.57978966  1
  Te2-  Te204  1  0.41600975  0.92170871  0.91475369  1
  Te2-  Te205  1  0.74417801  0.25173977  0.25732550  1
  Te2-  Te206  1  0.75144724  0.24596868  0.58507709  1
  Te2-  Te207  1  0.74800212  0.25640609  0.91625305  1
  Te2-  Te208  1  0.75120123  0.58066692  0.25504596  1
  Te2-  Te209  1  0.74900904  0.58418748  0.58651204  1
  Te2-  Te210  1  0.75046726  0.58316552  0.92273383  1
  Te2-  Te211  1  0.74321826  0.91697050  0.24843727  1
  Te2-  Te212  1  0.74606347  0.91782863  0.58319999  1
  Te2-  Te213  1  0.75288754  0.91728531  0.91991260  1
  Te2-  Te214  1  0.08092009  0.08181627  0.08374188  1
  Te2-  Te215  1  0.08630243  0.08051386  0.40925688  1
  Te2-  Te216  1  0.08009050  0.07811093  0.74215737  1
  Te2-  Te217  1  0.08176580  0.41217646  0.07563501  1
  Te2-  Te218  1  0.07986083  0.40826154  0.41416468  1
  Te2-  Te219  1  0.08284890  0.41065043  0.74557694  1
  Te2-  Te220  1  0.07510952  0.74356912  0.07846696  1
  Te2-  Te221  1  0.07688774  0.74439892  0.41603042  1
  Te2-  Te222  1  0.07496664  0.75173830  0.74657454  1
  Te2-  Te223  1  0.41785497  0.08247290  0.07984495  1
  Te2-  Te224  1  0.41486969  0.08377279  0.41299863  1
  Te2-  Te225  1  0.41701987  0.08249031  0.74649538  1
  Te2-  Te226  1  0.41369963  0.41291908  0.08114899  1
  Te2-  Te227  1  0.41209954  0.41778222  0.41978795  1
  Te2-  Te228  1  0.41525369  0.41740557  0.75015066  1
  Te2-  Te229  1  0.41004607  0.74616854  0.07318418  1
  Te2-  Te230  1  0.41305322  0.74797635  0.40989864  1
  Te2-  Te231  1  0.41339559  0.75085339  0.74526395  1
  Te2-  Te232  1  0.74865427  0.08149158  0.08287041  1
  Te2-  Te233  1  0.75262753  0.07800651  0.41300437  1
  Te2-  Te234  1  0.75028298  0.08102487  0.75199477  1
  Te2-  Te235  1  0.74506221  0.41328010  0.08117683  1
  Te2-  Te236  1  0.74132869  0.41018385  0.42014458  1
  Te2-  Te237  1  0.74547870  0.41667400  0.75064936  1
  Te2-  Te238  1  0.74993067  0.74449978  0.08056503  1
  Te2-  Te239  1  0.74718907  0.74957007  0.41018851  1
  Te2-  Te240  1  0.75143798  0.74886251  0.74845664  1
