# generated using pymatgen
data_Ti27(Cu53Te54)2
_symmetry_space_group_name_H-M   'P 1'
_cell_length_a   17.86848666
_cell_length_b   17.87012944
_cell_length_c   17.87086594
_cell_angle_alpha   89.98540147
_cell_angle_beta   90.01297609
_cell_angle_gamma   90.02430723
_symmetry_Int_Tables_number   1
_chemical_formula_structural   Ti27(Cu53Te54)2
_chemical_formula_sum   'Ti27 Cu106 Te108'
_cell_volume   5706.38413177
_cell_formula_units_Z   1
loop_
 _symmetry_equiv_pos_site_id
 _symmetry_equiv_pos_as_xyz
  1  'x, y, z'
loop_
 _atom_type_symbol
 _atom_type_oxidation_number
  Ti4+  4.0
  Cu+  1.0
  Te2-  -2.0
loop_
 _atom_site_type_symbol
 _atom_site_label
 _atom_site_symmetry_multiplicity
 _atom_site_fract_x
 _atom_site_fract_y
 _atom_site_fract_z
 _atom_site_occupancy
  Ti4+  Ti0  1  0.16375083  0.16558290  0.16421408  1
  Ti4+  Ti1  1  0.16919011  0.16585627  0.49850965  1
  Ti4+  Ti2  1  0.16851295  0.16899106  0.83395241  1
  Ti4+  Ti3  1  0.16788402  0.50327767  0.16667502  1
  Ti4+  Ti4  1  0.16413391  0.50035960  0.49585803  1
  Ti4+  Ti5  1  0.16350209  0.50188840  0.83275820  1
  Ti4+  Ti6  1  0.16686231  0.83144276  0.16788756  1
  Ti4+  Ti7  1  0.16823972  0.83077394  0.50122617  1
  Ti4+  Ti8  1  0.16904303  0.83248091  0.83436561  1
  Ti4+  Ti9  1  0.50007342  0.16624942  0.16673698  1
  Ti4+  Ti10  1  0.49608602  0.16564459  0.50109457  1
  Ti4+  Ti11  1  0.49995008  0.16529761  0.83387413  1
  Ti4+  Ti12  1  0.50176875  0.50013137  0.16738043  1
  Ti4+  Ti13  1  0.49772663  0.49947442  0.49932366  1
  Ti4+  Ti14  1  0.50092622  0.49994144  0.83228584  1
  Ti4+  Ti15  1  0.49845595  0.83444930  0.16666760  1
  Ti4+  Ti16  1  0.50118333  0.83442935  0.49975150  1
  Ti4+  Ti17  1  0.49628326  0.83086961  0.83199645  1
  Ti4+  Ti18  1  0.83531304  0.16473068  0.17045423  1
  Ti4+  Ti19  1  0.83242512  0.16786179  0.50195478  1
  Ti4+  Ti20  1  0.83325761  0.16651022  0.83257047  1
  Ti4+  Ti21  1  0.83477607  0.50010755  0.16785787  1
  Ti4+  Ti22  1  0.83098656  0.50205496  0.50112688  1
  Ti4+  Ti23  1  0.83310175  0.49982859  0.83360876  1
  Ti4+  Ti24  1  0.83401180  0.83579958  0.16703978  1
  Ti4+  Ti25  1  0.83404684  0.83406590  0.50207048  1
  Ti4+  Ti26  1  0.83348792  0.83206722  0.83449709  1
  Cu+  Cu27  1  0.16621364  0.17087599  -0.00147103  1
  Cu+  Cu28  1  0.16350177  0.16432431  0.32917290  1
  Cu+  Cu29  1  0.17073021  0.16423166  0.66655038  1
  Cu+  Cu30  1  0.16918759  0.50606894  -0.00260997  1
  Cu+  Cu31  1  0.16861818  0.49828875  0.32945020  1
  Cu+  Cu32  1  0.15846887  0.50456448  0.66463804  1
  Cu+  Cu33  1  0.16604167  0.83256996  -0.00063325  1
  Cu+  Cu34  1  0.16731037  0.82298720  0.33608799  1
  Cu+  Cu35  1  0.17459489  0.83375051  0.66506511  1
  Cu+  Cu36  1  0.50196288  0.16483601  0.00044600  1
  Cu+  Cu37  1  0.49733019  0.16507290  0.33341999  1
  Cu+  Cu38  1  0.49623279  0.16923711  0.66858580  1
  Cu+  Cu39  1  0.50113031  0.50031460  0.00163428  1
  Cu+  Cu40  1  0.50163817  0.49939112  0.33304874  1
  Cu+  Cu41  1  0.49972014  0.50073561  0.66454377  1
  Cu+  Cu42  1  0.49693021  0.83371422  -0.00074226  1
  Cu+  Cu43  1  0.50042431  0.84245592  0.32958197  1
  Cu+  Cu44  1  0.50050874  0.82407177  0.66764006  1
  Cu+  Cu45  1  0.83391619  0.16646271  -0.00073190  1
  Cu+  Cu46  1  0.83706925  0.16433238  0.33872797  1
  Cu+  Cu47  1  0.83126719  0.16818339  0.66721440  1
  Cu+  Cu48  1  0.83559557  0.49957982  0.00096441  1
  Cu+  Cu49  1  0.83363520  0.49989550  0.33538757  1
  Cu+  Cu50  1  0.83051004  0.50013455  0.66617759  1
  Cu+  Cu51  1  0.83132483  0.83328797  0.00029145  1
  Cu+  Cu52  1  0.83200504  0.83795778  0.33623450  1
  Cu+  Cu53  1  0.83509494  0.83367117  0.66798813  1
  Cu+  Cu54  1  0.15739797  -0.00117363  0.16525094  1
  Cu+  Cu55  1  0.16983913  -0.00426263  0.50493478  1
  Cu+  Cu56  1  0.17382483  0.00573441  0.83456309  1
  Cu+  Cu57  1  0.16327652  0.33402467  0.16510515  1
  Cu+  Cu58  1  0.16769280  0.33263704  0.49574328  1
  Cu+  Cu59  1  0.16582156  0.33632584  0.83353340  1
  Cu+  Cu60  1  0.17183411  0.66859586  0.17129018  1
  Cu+  Cu61  1  0.16675903  0.66728021  0.49440042  1
  Cu+  Cu62  1  0.16285442  0.66283611  0.83426640  1
  Cu+  Cu63  1  0.50100441  0.00048400  0.16805993  1
  Cu+  Cu64  1  0.49693922  -0.00007941  0.49747112  1
  Cu+  Cu65  1  0.49813378  -0.00276746  0.83520444  1
  Cu+  Cu66  1  0.50060736  0.33450007  0.16686565  1
  Cu+  Cu67  1  0.49569210  0.33269221  0.49999013  1
  Cu+  Cu68  1  0.49901287  0.33260374  0.83223874  1
  Cu+  Cu69  1  0.50098287  0.66714889  0.16579409  1
  Cu+  Cu70  1  0.49872945  0.66571417  0.50383788  1
  Cu+  Cu71  1  0.50206748  0.66746043  0.82862964  1
  Cu+  Cu72  1  0.83901205  0.00354748  0.16381254  1
  Cu+  Cu73  1  0.83248963  0.00076434  0.49968308  1
  Cu+  Cu74  1  0.83171567  -0.00278120  0.83282791  1
  Cu+  Cu75  1  0.83343185  0.32992530  0.16932004  1
  Cu+  Cu76  1  0.83122523  0.33548009  0.50136713  1
  Cu+  Cu77  1  0.83479574  0.33297862  0.83294348  1
  Cu+  Cu78  1  0.83387970  0.66652325  0.16766231  1
  Cu+  Cu79  1  0.83208375  0.66770315  0.50377599  1
  Cu+  Cu80  1  0.83305331  0.66567965  0.83602006  1
  Cu+  Cu81  1  -0.00070674  0.15848763  0.16751931  1
  Cu+  Cu82  1  0.00114355  0.16545843  0.50017294  1
  Cu+  Cu83  1  0.00137248  0.16823471  0.83398795  1
  Cu+  Cu84  1  0.00198138  0.50001851  0.16799198  1
  Cu+  Cu85  1  -0.00542597  0.49895327  0.49567532  1
  Cu+  Cu86  1  -0.00191031  0.50181725  0.82852781  1
  Cu+  Cu87  1  0.00233918  0.83586106  0.16765258  1
  Cu+  Cu88  1  0.00035321  0.83375614  0.50470551  1
  Cu+  Cu89  1  0.00085141  0.82937037  0.83720302  1
  Cu+  Cu90  1  0.33056927  0.16539389  0.16518738  1
  Cu+  Cu91  1  0.33611772  0.17095138  0.49500632  1
  Cu+  Cu92  1  0.33551422  0.16846567  0.82892678  1
  Cu+  Cu93  1  0.33682161  0.50415467  0.16869122  1
  Cu+  Cu94  1  0.32915832  0.49625213  0.49841192  1
  Cu+  Cu95  1  0.33450981  0.50080179  0.83414378  1
  Cu+  Cu96  1  0.33314408  0.83135372  0.16235370  1
  Cu+  Cu97  1  0.33739704  0.83271133  0.50177087  1
  Cu+  Cu98  1  0.32909163  0.83404823  0.83265266  1
  Cu+  Cu99  1  0.66900325  0.16862179  0.16883824  1
  Cu+  Cu100  1  0.66207738  0.16629288  0.50575449  1
  Cu+  Cu101  1  0.66704942  0.16425490  0.83501716  1
  Cu+  Cu102  1  0.66834999  0.49854955  0.16718329  1
  Cu+  Cu103  1  0.66455086  0.50118343  0.50223709  1
  Cu+  Cu104  1  0.66761268  0.49995345  0.83415515  1
  Cu+  Cu105  1  0.66512380  0.83632499  0.16961928  1
  Cu+  Cu106  1  0.67178692  0.83726225  0.49766816  1
  Cu+  Cu107  1  0.66527081  0.83090224  0.83131831  1
  Cu+  Cu108  1  0.25171455  0.73424895  0.74132478  1
  Cu+  Cu109  1  0.74396110  0.93163723  0.40710797  1
  Cu+  Cu110  1  0.07451065  0.92272549  0.06966704  1
  Cu+  Cu111  1  0.06588722  0.59421515  0.73438979  1
  Cu+  Cu112  1  0.06809096  0.74023951  0.26215346  1
  Cu+  Cu113  1  0.59521450  0.93139218  0.25499722  1
  Cu+  Cu114  1  0.91753863  0.40567212  0.40761650  1
  Cu+  Cu115  1  0.40865800  0.73599415  0.59324119  1
  Cu+  Cu116  1  0.26599656  0.59169432  0.26103323  1
  Cu+  Cu117  1  0.41621794  0.26319894  0.39977635  1
  Cu+  Cu118  1  0.07385480  0.40439108  0.25412832  1
  Cu+  Cu119  1  0.40318237  0.92588052  0.40282472  1
  Cu+  Cu120  1  0.07072926  0.73691201  0.92697681  1
  Cu+  Cu121  1  0.25797031  0.40453833  0.40381485  1
  Cu+  Cu122  1  0.92917763  0.06987065  0.41657226  1
  Cu+  Cu123  1  0.40656712  0.26469285  0.74137617  1
  Cu+  Cu124  1  0.07501876  0.06952751  0.26231515  1
  Cu+  Cu125  1  0.26044334  0.74158397  0.07350543  1
  Cu+  Cu126  1  0.92419992  0.07815584  0.06606990  1
  Cu+  Cu127  1  0.59843487  0.73792024  0.73977084  1
  Cu+  Cu128  1  0.26609694  0.92709176  0.59007482  1
  Cu+  Cu129  1  0.26683831  0.58845771  0.92327905  1
  Cu+  Cu130  1  0.26758445  0.74175856  0.41022108  1
  Cu+  Cu131  1  0.25788001  0.93305485  0.93021369  1
  Cu+  Cu132  1  0.26376896  0.07830911  0.73805928  1
  Te2-  Te133  1  0.25041171  0.25376253  0.08211732  1
  Te2-  Te134  1  0.25215705  0.25101601  0.40638484  1
  Te2-  Te135  1  0.25157538  0.25803047  0.74585184  1
  Te2-  Te136  1  0.25754239  0.58887452  0.07902491  1
  Te2-  Te137  1  0.25601433  0.58783116  0.41180201  1
  Te2-  Te138  1  0.25307499  0.58383712  0.74360602  1
  Te2-  Te139  1  0.25176006  0.92270332  0.08233200  1
  Te2-  Te140  1  0.25169648  0.91776817  0.41124395  1
  Te2-  Te141  1  0.25565942  0.92349860  0.74533025  1
  Te2-  Te142  1  0.58598680  0.25163931  0.08234957  1
  Te2-  Te143  1  0.58323476  0.25054666  0.41633621  1
  Te2-  Te144  1  0.58681448  0.25051880  0.74908770  1
  Te2-  Te145  1  0.58761980  0.58539046  0.08235752  1
  Te2-  Te146  1  0.58374897  0.58612816  0.41626174  1
  Te2-  Te147  1  0.58816537  0.58413643  0.74453382  1
  Te2-  Te148  1  0.58398656  0.91859662  0.07947475  1
  Te2-  Te149  1  0.58898094  0.92389786  0.41371726  1
  Te2-  Te150  1  0.58177067  0.91658428  0.74704434  1
  Te2-  Te151  1  0.92037233  0.25011090  0.08378797  1
  Te2-  Te152  1  0.92093272  0.25402581  0.41640283  1
  Te2-  Te153  1  0.91966988  0.25140375  0.74716694  1
  Te2-  Te154  1  0.92028993  0.58554391  0.08313108  1
  Te2-  Te155  1  0.91591295  0.59000132  0.41467030  1
  Te2-  Te156  1  0.91574461  0.58893500  0.74412978  1
  Te2-  Te157  1  0.92145200  0.91956608  0.07656897  1
  Te2-  Te158  1  0.92454244  0.91851790  0.41545698  1
  Te2-  Te159  1  0.92152159  0.91650107  0.75071724  1
  Te2-  Te160  1  0.24918601  0.07782950  0.24810286  1
  Te2-  Te161  1  0.25984004  0.08114679  0.58351929  1
  Te2-  Te162  1  0.25784532  0.08669201  0.92394261  1
  Te2-  Te163  1  0.25553843  0.41144357  0.24839717  1
  Te2-  Te164  1  0.24533059  0.41684212  0.58687783  1
  Te2-  Te165  1  0.25114728  0.41644324  0.91830890  1
  Te2-  Te166  1  0.26190103  0.74714293  0.25583152  1
  Te2-  Te167  1  0.25490029  0.73911414  0.58635961  1
  Te2-  Te168  1  0.25572062  0.74260933  0.92162013  1
  Te2-  Te169  1  0.58753514  0.08316123  0.25490802  1
  Te2-  Te170  1  0.57983948  0.08005451  0.58800085  1
  Te2-  Te171  1  0.58511818  0.07833024  0.91870272  1
  Te2-  Te172  1  0.58674127  0.41380629  0.25269393  1
  Te2-  Te173  1  0.58267247  0.41313068  0.58376611  1
  Te2-  Te174  1  0.58424287  0.41439254  0.91779529  1
  Te2-  Te175  1  0.58351475  0.74918600  0.25355166  1
  Te2-  Te176  1  0.59161165  0.74752539  0.58203853  1
  Te2-  Te177  1  0.58294673  0.74860403  0.91933196  1
  Te2-  Te178  1  0.92203409  0.07453230  0.26041627  1
  Te2-  Te179  1  0.91780622  0.08149410  0.58697098  1
  Te2-  Te180  1  0.92067325  0.07828919  0.91585344  1
  Te2-  Te181  1  0.92101787  0.41038688  0.25439013  1
  Te2-  Te182  1  0.91779376  0.41555871  0.58701978  1
  Te2-  Te183  1  0.92060073  0.41538906  0.91738896  1
  Te2-  Te184  1  0.91716308  0.74999223  0.25435571  1
  Te2-  Te185  1  0.91931495  0.74765560  0.58744593  1
  Te2-  Te186  1  0.91774633  0.74506875  0.92356816  1
  Te2-  Te187  1  0.07680755  0.25161547  0.25121334  1
  Te2-  Te188  1  0.08521306  0.24963249  0.58394767  1
  Te2-  Te189  1  0.08109828  0.25504240  0.91780013  1
  Te2-  Te190  1  0.07974277  0.58900293  0.25418899  1
  Te2-  Te191  1  0.07643384  0.58841116  0.57818884  1
  Te2-  Te192  1  0.07361181  0.58523761  0.92226865  1
  Te2-  Te193  1  0.08243313  0.91575598  0.26069373  1
  Te2-  Te194  1  0.08255426  0.91595550  0.58888905  1
  Te2-  Te195  1  0.08183506  0.92317119  0.91621908  1
  Te2-  Te196  1  0.41154383  0.25299183  0.24943939  1
  Te2-  Te197  1  0.40989826  0.25494557  0.58739032  1
  Te2-  Te198  1  0.41503875  0.25090059  0.92028245  1
  Te2-  Te199  1  0.41798340  0.58944124  0.25588634  1
  Te2-  Te200  1  0.40918384  0.58270447  0.58595517  1
  Te2-  Te201  1  0.41821105  0.58846318  0.91937467  1
  Te2-  Te202  1  0.40679529  0.92248639  0.24870424  1
  Te2-  Te203  1  0.41773273  0.91970345  0.59096357  1
  Te2-  Te204  1  0.41119079  0.91852438  0.92000531  1
  Te2-  Te205  1  0.75056375  0.24984190  0.25725650  1
  Te2-  Te206  1  0.74613185  0.25363847  0.58600914  1
  Te2-  Te207  1  0.74867956  0.25177313  0.91893111  1
  Te2-  Te208  1  0.74908072  0.58437281  0.25306574  1
  Te2-  Te209  1  0.74500296  0.58683787  0.58716410  1
  Te2-  Te210  1  0.74819786  0.58426243  0.92089476  1
  Te2-  Te211  1  0.74919488  0.92627338  0.25194357  1
  Te2-  Te212  1  0.74943563  0.92049863  0.58862262  1
  Te2-  Te213  1  0.74529472  0.91661419  0.91771764  1
  Te2-  Te214  1  0.07878819  0.07954523  0.07127186  1
  Te2-  Te215  1  0.08343476  0.07468686  0.41620850  1
  Te2-  Te216  1  0.08294510  0.08175747  0.74987170  1
  Te2-  Te217  1  0.08384269  0.41937933  0.07779661  1
  Te2-  Te218  1  0.07730960  0.41175856  0.40977084  1
  Te2-  Te219  1  0.08017202  0.41404436  0.74669820  1
  Te2-  Te220  1  0.07939525  0.74347831  0.08159016  1
  Te2-  Te221  1  0.07407006  0.74651376  0.41725018  1
  Te2-  Te222  1  0.08204907  0.74894872  0.74340712  1
  Te2-  Te223  1  0.41473148  0.08055150  0.08170849  1
  Te2-  Te224  1  0.41012790  0.07846461  0.41098169  1
  Te2-  Te225  1  0.41526526  0.07566896  0.74586827  1
  Te2-  Te226  1  0.41422822  0.41611640  0.08232619  1
  Te2-  Te227  1  0.41142374  0.41374108  0.40908478  1
  Te2-  Te228  1  0.41237520  0.41676111  0.74562230  1
  Te2-  Te229  1  0.41533053  0.74508470  0.07854122  1
  Te2-  Te230  1  0.41902384  0.74729881  0.41010748  1
  Te2-  Te231  1  0.40646009  0.74191628  0.74687757  1
  Te2-  Te232  1  0.74776073  0.08247151  0.08236852  1
  Te2-  Te233  1  0.74223315  0.08409287  0.41584956  1
  Te2-  Te234  1  0.74768301  0.08032124  0.74766272  1
  Te2-  Te235  1  0.75122205  0.41327993  0.08299035  1
  Te2-  Te236  1  0.74451372  0.41571557  0.41546071  1
  Te2-  Te237  1  0.74774329  0.41388000  0.74860759  1
  Te2-  Te238  1  0.74748343  0.75063591  0.08568328  1
  Te2-  Te239  1  0.74956895  0.74722080  0.41501692  1
  Te2-  Te240  1  0.74995782  0.74547590  0.74660628  1
