# generated using pymatgen
data_Ti27(Cu53Te54)2
_symmetry_space_group_name_H-M   'P 1'
_cell_length_a   17.87719135
_cell_length_b   17.87587879
_cell_length_c   17.87407878
_cell_angle_alpha   89.99732820
_cell_angle_beta   89.96700488
_cell_angle_gamma   90.01474478
_symmetry_Int_Tables_number   1
_chemical_formula_structural   Ti27(Cu53Te54)2
_chemical_formula_sum   'Ti27 Cu106 Te108'
_cell_volume   5712.02725043
_cell_formula_units_Z   1
loop_
 _symmetry_equiv_pos_site_id
 _symmetry_equiv_pos_as_xyz
  1  'x, y, z'
loop_
 _atom_type_symbol
 _atom_type_oxidation_number
  Ti4+  4.0
  Cu+  1.0
  Te2-  -2.0
loop_
 _atom_site_type_symbol
 _atom_site_label
 _atom_site_symmetry_multiplicity
 _atom_site_fract_x
 _atom_site_fract_y
 _atom_site_fract_z
 _atom_site_occupancy
  Ti4+  Ti0  1  0.16535961  0.16702203  0.16228633  1
  Ti4+  Ti1  1  0.16772252  0.16863334  0.49880407  1
  Ti4+  Ti2  1  0.16184517  0.16597796  0.83305694  1
  Ti4+  Ti3  1  0.16508190  0.50028884  0.16627225  1
  Ti4+  Ti4  1  0.16663206  0.50020432  0.49937230  1
  Ti4+  Ti5  1  0.16900476  0.50142919  0.83324594  1
  Ti4+  Ti6  1  0.16665378  0.82948439  0.16695940  1
  Ti4+  Ti7  1  0.16723752  0.83377716  0.49995889  1
  Ti4+  Ti8  1  0.16661139  0.83198629  0.83694050  1
  Ti4+  Ti9  1  0.50157812  0.16481953  0.16695129  1
  Ti4+  Ti10  1  0.50110943  0.16832406  0.50191704  1
  Ti4+  Ti11  1  0.49927149  0.16678841  0.83642140  1
  Ti4+  Ti12  1  0.49678521  0.49804820  0.16640678  1
  Ti4+  Ti13  1  0.50164600  0.50087039  0.49789727  1
  Ti4+  Ti14  1  0.50130078  0.50117545  0.83480878  1
  Ti4+  Ti15  1  0.50182490  0.83317080  0.16619092  1
  Ti4+  Ti16  1  0.50253703  0.83389243  0.50062753  1
  Ti4+  Ti17  1  0.49685192  0.83429241  0.82848728  1
  Ti4+  Ti18  1  0.83397035  0.16803848  0.16748166  1
  Ti4+  Ti19  1  0.83700462  0.16612072  0.50158684  1
  Ti4+  Ti20  1  0.83496680  0.16552721  0.83183122  1
  Ti4+  Ti21  1  0.83147255  0.50145795  0.16903265  1
  Ti4+  Ti22  1  0.83314320  0.50031369  0.49788908  1
  Ti4+  Ti23  1  0.83541490  0.49863101  0.83686218  1
  Ti4+  Ti24  1  0.83477465  0.83489482  0.16739713  1
  Ti4+  Ti25  1  0.83301522  0.83563446  0.49909228  1
  Ti4+  Ti26  1  0.82773041  0.83330231  0.83331711  1
  Cu+  Cu27  1  0.16143841  0.17396842  -0.00305577  1
  Cu+  Cu28  1  0.16936219  0.16680844  0.33003902  1
  Cu+  Cu29  1  0.15816293  0.16591083  0.66441856  1
  Cu+  Cu30  1  0.16971607  0.50128855  -0.00256442  1
  Cu+  Cu31  1  0.16779401  0.50114466  0.33338531  1
  Cu+  Cu32  1  0.16730418  0.49962946  0.66206830  1
  Cu+  Cu33  1  0.15954515  0.82815114  0.00239001  1
  Cu+  Cu34  1  0.16798846  0.83198596  0.33517353  1
  Cu+  Cu35  1  0.16819182  0.83500135  0.66868493  1
  Cu+  Cu36  1  0.49526796  0.16801169  0.00531739  1
  Cu+  Cu37  1  0.50099826  0.16626804  0.33443884  1
  Cu+  Cu38  1  0.50011645  0.16766278  0.66929550  1
  Cu+  Cu39  1  0.50102958  0.49315699  0.00300519  1
  Cu+  Cu40  1  0.50031349  0.50182017  0.33071617  1
  Cu+  Cu41  1  0.50053788  0.50131645  0.66367667  1
  Cu+  Cu42  1  0.49882216  0.83401589  -0.00347362  1
  Cu+  Cu43  1  0.50345918  0.83694057  0.33352614  1
  Cu+  Cu44  1  0.50338192  0.82953747  0.66642355  1
  Cu+  Cu45  1  0.83612346  0.16323197  0.00007953  1
  Cu+  Cu46  1  0.83401405  0.17109784  0.33605835  1
  Cu+  Cu47  1  0.84098164  0.16320664  0.66829163  1
  Cu+  Cu48  1  0.83347565  0.49860344  0.00166476  1
  Cu+  Cu49  1  0.83257160  0.50555064  0.33324134  1
  Cu+  Cu50  1  0.83563204  0.49716797  0.66916449  1
  Cu+  Cu51  1  0.83165662  0.83256218  0.00151099  1
  Cu+  Cu52  1  0.83647526  0.83559282  0.33298252  1
  Cu+  Cu53  1  0.82567022  0.83609651  0.66432888  1
  Cu+  Cu54  1  0.16684327  -0.00305120  0.16432816  1
  Cu+  Cu55  1  0.16773733  0.00038844  0.50030550  1
  Cu+  Cu56  1  0.16620644  -0.00140730  0.83786228  1
  Cu+  Cu57  1  0.16149970  0.33457856  0.16082495  1
  Cu+  Cu58  1  0.17040256  0.33604696  0.49591948  1
  Cu+  Cu59  1  0.16451693  0.33065943  0.83246935  1
  Cu+  Cu60  1  0.17013889  0.66438772  0.16997341  1
  Cu+  Cu61  1  0.16511487  0.66683067  0.50088171  1
  Cu+  Cu62  1  0.17112015  0.66849408  0.83894274  1
  Cu+  Cu63  1  0.50612587  -0.00271486  0.17056019  1
  Cu+  Cu64  1  0.50167246  0.00254296  0.50132824  1
  Cu+  Cu65  1  0.49839581  -0.00001992  0.83694613  1
  Cu+  Cu66  1  0.49886983  0.33223049  0.16090912  1
  Cu+  Cu67  1  0.50131634  0.33559787  0.50157236  1
  Cu+  Cu68  1  0.50046795  0.33449908  0.83542974  1
  Cu+  Cu69  1  0.49858085  0.66658291  0.16774752  1
  Cu+  Cu70  1  0.50038264  0.66889911  0.49784797  1
  Cu+  Cu71  1  0.49444670  0.66459144  0.82664415  1
  Cu+  Cu72  1  0.83874474  0.00343085  0.16559912  1
  Cu+  Cu73  1  0.83620329  0.00050114  0.49891940  1
  Cu+  Cu74  1  0.82681781  0.00058057  0.83195369  1
  Cu+  Cu75  1  0.83132034  0.33606139  0.17055455  1
  Cu+  Cu76  1  0.83331324  0.33010969  0.49819107  1
  Cu+  Cu77  1  0.83674272  0.33413944  0.83741909  1
  Cu+  Cu78  1  0.83522456  0.66913843  0.17060180  1
  Cu+  Cu79  1  0.83037668  0.66930930  0.49751739  1
  Cu+  Cu80  1  0.83140204  0.65984911  0.83150450  1
  Cu+  Cu81  1  -0.00209404  0.16760392  0.16138734  1
  Cu+  Cu82  1  0.00508662  0.16322662  0.50382362  1
  Cu+  Cu83  1  -0.00121480  0.16610121  0.82292211  1
  Cu+  Cu84  1  -0.00331622  0.50160481  0.16814850  1
  Cu+  Cu85  1  0.00138516  0.49885006  0.49947083  1
  Cu+  Cu86  1  -0.00115771  0.49731679  0.83428167  1
  Cu+  Cu87  1  0.00403759  0.83516630  0.16350373  1
  Cu+  Cu88  1  -0.00195573  0.83292554  0.49944793  1
  Cu+  Cu89  1  -0.00001372  0.82847073  0.83970440  1
  Cu+  Cu90  1  0.33566882  0.16543601  0.16232359  1
  Cu+  Cu91  1  0.33433185  0.17028980  0.50068194  1
  Cu+  Cu92  1  0.33018591  0.16578033  0.83734062  1
  Cu+  Cu93  1  0.32867963  0.49941198  0.17026336  1
  Cu+  Cu94  1  0.33434455  0.49864721  0.49803818  1
  Cu+  Cu95  1  0.33592662  0.50566389  0.83571037  1
  Cu+  Cu96  1  0.33534955  0.82955366  0.16554082  1
  Cu+  Cu97  1  0.33607988  0.83572631  0.50156738  1
  Cu+  Cu98  1  0.32942489  0.82806059  0.82950968  1
  Cu+  Cu99  1  0.66785471  0.16662688  0.16928397  1
  Cu+  Cu100  1  0.66887376  0.16827882  0.50099589  1
  Cu+  Cu101  1  0.66723135  0.16411059  0.83733748  1
  Cu+  Cu102  1  0.66103081  0.49815837  0.16705338  1
  Cu+  Cu103  1  0.66762456  0.50231933  0.49487427  1
  Cu+  Cu104  1  0.67177971  0.50065441  0.83662002  1
  Cu+  Cu105  1  0.66853128  0.83646493  0.17033110  1
  Cu+  Cu106  1  0.66984194  0.83063578  0.50295115  1
  Cu+  Cu107  1  0.66123720  0.84139851  0.82639308  1
  Cu+  Cu108  1  0.40520908  0.26096059  0.07743989  1
  Cu+  Cu109  1  0.58996785  0.59374506  0.25446822  1
  Cu+  Cu110  1  0.25019762  0.73909281  0.73531952  1
  Cu+  Cu111  1  0.07800238  0.06712713  0.58952516  1
  Cu+  Cu112  1  0.25942800  0.59323395  0.26534610  1
  Cu+  Cu113  1  0.59874730  0.92851287  0.26554860  1
  Cu+  Cu114  1  0.06566374  0.26693612  0.07408209  1
  Cu+  Cu115  1  0.73982208  0.07788180  0.93109258  1
  Cu+  Cu116  1  0.92454700  0.06333995  0.74173309  1
  Cu+  Cu117  1  0.92874998  0.59657834  0.26073003  1
  Cu+  Cu118  1  0.40540713  0.58556195  0.73298011  1
  Cu+  Cu119  1  0.73477046  0.93251814  0.73412275  1
  Cu+  Cu120  1  0.92679254  0.07300841  0.07202966  1
  Cu+  Cu121  1  0.07805268  0.92608500  0.07361635  1
  Cu+  Cu122  1  0.06753673  0.73533864  0.92976767  1
  Cu+  Cu123  1  0.74397179  0.58075198  0.73989292  1
  Cu+  Cu124  1  0.73813961  0.25837571  0.40883539  1
  Cu+  Cu125  1  0.07410372  0.26550566  0.73383303  1
  Cu+  Cu126  1  0.59118156  0.73722115  0.74543800  1
  Cu+  Cu127  1  0.58698984  0.92482532  0.92683806  1
  Cu+  Cu128  1  0.59565122  0.40337968  0.07379282  1
  Cu+  Cu129  1  0.26592541  0.59667959  0.92994440  1
  Cu+  Cu130  1  0.74077455  0.59888048  0.40525070  1
  Cu+  Cu131  1  0.74371885  0.73771796  0.59150457  1
  Cu+  Cu132  1  0.25808857  0.25959713  0.92136230  1
  Te2-  Te133  1  0.25324293  0.25604732  0.07759413  1
  Te2-  Te134  1  0.25353051  0.25224730  0.41191531  1
  Te2-  Te135  1  0.24954458  0.24799152  0.74577973  1
  Te2-  Te136  1  0.25431671  0.58613136  0.08078001  1
  Te2-  Te137  1  0.25417811  0.58824254  0.41595350  1
  Te2-  Te138  1  0.25277461  0.58706990  0.74252605  1
  Te2-  Te139  1  0.25212899  0.91349626  0.07966125  1
  Te2-  Te140  1  0.25314202  0.91925139  0.41554218  1
  Te2-  Te141  1  0.25096221  0.92097511  0.75108816  1
  Te2-  Te142  1  0.59057973  0.25017161  0.07922400  1
  Te2-  Te143  1  0.58598570  0.25483613  0.41396671  1
  Te2-  Te144  1  0.58599093  0.25108078  0.75238605  1
  Te2-  Te145  1  0.58270242  0.58594353  0.08067366  1
  Te2-  Te146  1  0.58655253  0.59090644  0.41046566  1
  Te2-  Te147  1  0.58997900  0.58401138  0.74511665  1
  Te2-  Te148  1  0.58825037  0.91842971  0.07922748  1
  Te2-  Te149  1  0.59027006  0.92083097  0.41796863  1
  Te2-  Te150  1  0.58055514  0.92744855  0.74082304  1
  Te2-  Te151  1  0.91452511  0.25827311  0.07879935  1
  Te2-  Te152  1  0.92536241  0.25009148  0.41742415  1
  Te2-  Te153  1  0.91823573  0.25829445  0.74516083  1
  Te2-  Te154  1  0.91591646  0.58629887  0.08191219  1
  Te2-  Te155  1  0.92150810  0.58923407  0.41590927  1
  Te2-  Te156  1  0.92163505  0.58386498  0.74799492  1
  Te2-  Te157  1  0.92094181  0.91956905  0.07642236  1
  Te2-  Te158  1  0.92059188  0.92027978  0.41421889  1
  Te2-  Te159  1  0.91944896  0.91270872  0.74932802  1
  Te2-  Te160  1  0.25162434  0.08175214  0.24594776  1
  Te2-  Te161  1  0.25232417  0.08425399  0.58660234  1
  Te2-  Te162  1  0.24731467  0.08187905  0.92218672  1
  Te2-  Te163  1  0.24728321  0.41052770  0.25069300  1
  Te2-  Te164  1  0.25418491  0.41461241  0.58399286  1
  Te2-  Te165  1  0.25414280  0.41309401  0.91672977  1
  Te2-  Te166  1  0.25520733  0.74758814  0.25508568  1
  Te2-  Te167  1  0.25394612  0.74721235  0.58421946  1
  Te2-  Te168  1  0.25668187  0.74937554  0.92702180  1
  Te2-  Te169  1  0.58925332  0.08174852  0.25595182  1
  Te2-  Te170  1  0.58713462  0.08382137  0.58714888  1
  Te2-  Te171  1  0.58431688  0.08040614  0.92586687  1
  Te2-  Te172  1  0.58146385  0.40997461  0.25209608  1
  Te2-  Te173  1  0.58811173  0.41752791  0.58402229  1
  Te2-  Te174  1  0.58895688  0.41334575  0.91820567  1
  Te2-  Te175  1  0.58734405  0.74768279  0.25380467  1
  Te2-  Te176  1  0.58860148  0.74201257  0.58693471  1
  Te2-  Te177  1  0.58410947  0.74782378  0.91214634  1
  Te2-  Te178  1  0.92027669  0.08556246  0.25470597  1
  Te2-  Te179  1  0.92351299  0.07441562  0.58752356  1
  Te2-  Te180  1  0.92282984  0.07736212  0.91594942  1
  Te2-  Te181  1  0.91723684  0.41577135  0.25468897  1
  Te2-  Te182  1  0.91704214  0.41453812  0.58302192  1
  Te2-  Te183  1  0.92101478  0.41372676  0.92329014  1
  Te2-  Te184  1  0.92349072  0.75158252  0.25334613  1
  Te2-  Te185  1  0.91602365  0.74887233  0.58623611  1
  Te2-  Te186  1  0.91173219  0.74432218  0.91922059  1
  Te2-  Te187  1  0.08068173  0.25069170  0.24926420  1
  Te2-  Te188  1  0.08047979  0.25991645  0.58215994  1
  Te2-  Te189  1  0.07087287  0.25443094  0.91688070  1
  Te2-  Te190  1  0.08030087  0.58665978  0.25415356  1
  Te2-  Te191  1  0.08000487  0.58563947  0.58521712  1
  Te2-  Te192  1  0.07903324  0.58426611  0.91829384  1
  Te2-  Te193  1  0.08360130  0.91737068  0.25352977  1
  Te2-  Te194  1  0.07957778  0.91605016  0.58756145  1
  Te2-  Te195  1  0.07757512  0.92035355  0.92065770  1
  Te2-  Te196  1  0.41558865  0.25115439  0.25100981  1
  Te2-  Te197  1  0.41599089  0.25408992  0.58727770  1
  Te2-  Te198  1  0.41245719  0.25609845  0.92118542  1
  Te2-  Te199  1  0.41148522  0.58696321  0.25323664  1
  Te2-  Te200  1  0.41375588  0.58759614  0.58135273  1
  Te2-  Te201  1  0.41910709  0.58764178  0.92577814  1
  Te2-  Te202  1  0.41437920  0.91736113  0.25078151  1
  Te2-  Te203  1  0.41853406  0.91867151  0.58700713  1
  Te2-  Te204  1  0.40897183  0.91592972  0.91565085  1
  Te2-  Te205  1  0.74655268  0.25393050  0.25339221  1
  Te2-  Te206  1  0.75221080  0.24975004  0.58958092  1
  Te2-  Te207  1  0.75085156  0.25093067  0.91959864  1
  Te2-  Te208  1  0.74195121  0.58981827  0.25227122  1
  Te2-  Te209  1  0.74609625  0.58472788  0.58741423  1
  Te2-  Te210  1  0.74896302  0.58547367  0.92413257  1
  Te2-  Te211  1  0.75238149  0.92416218  0.25354948  1
  Te2-  Te212  1  0.74469809  0.92635211  0.58261085  1
  Te2-  Te213  1  0.74350637  0.91994163  0.92352671  1
  Te2-  Te214  1  0.07984632  0.07874726  0.07498689  1
  Te2-  Te215  1  0.08405291  0.08170675  0.41185024  1
  Te2-  Te216  1  0.07954550  0.07104958  0.74654827  1
  Te2-  Te217  1  0.07682670  0.41977698  0.07679423  1
  Te2-  Te218  1  0.08178078  0.41510411  0.41242663  1
  Te2-  Te219  1  0.08226981  0.41742226  0.74665811  1
  Te2-  Te220  1  0.07814288  0.73817468  0.08403851  1
  Te2-  Te221  1  0.08091447  0.74811596  0.41553472  1
  Te2-  Te222  1  0.08200067  0.74608075  0.74950236  1
  Te2-  Te223  1  0.41758893  0.07430035  0.08406582  1
  Te2-  Te224  1  0.41499730  0.08303532  0.41668056  1
  Te2-  Te225  1  0.41338019  0.08291750  0.75180885  1
  Te2-  Te226  1  0.40613173  0.41472454  0.08017188  1
  Te2-  Te227  1  0.41695952  0.41522841  0.41311831  1
  Te2-  Te228  1  0.41550533  0.41656601  0.74915327  1
  Te2-  Te229  1  0.41751446  0.74721866  0.07940853  1
  Te2-  Te230  1  0.41636885  0.75164421  0.41377306  1
  Te2-  Te231  1  0.40902636  0.74520260  0.74017254  1
  Te2-  Te232  1  0.74590966  0.07982796  0.08314674  1
  Te2-  Te233  1  0.75035921  0.08179004  0.41542772  1
  Te2-  Te234  1  0.74388071  0.08385130  0.74260446  1
  Te2-  Te235  1  0.74733859  0.41418450  0.08216695  1
  Te2-  Te236  1  0.74825360  0.41332312  0.41153320  1
  Te2-  Te237  1  0.74923929  0.41161660  0.75062034  1
  Te2-  Te238  1  0.74789763  0.74883705  0.08502333  1
  Te2-  Te239  1  0.74628162  0.75136333  0.40825818  1
  Te2-  Te240  1  0.74364293  0.74270306  0.74641267  1
