# generated using pymatgen
data_Ti27(Cu53Te54)2
_symmetry_space_group_name_H-M   'P 1'
_cell_length_a   17.88884926
_cell_length_b   17.88498624
_cell_length_c   17.88929259
_cell_angle_alpha   90.05421285
_cell_angle_beta   89.96797810
_cell_angle_gamma   90.01615661
_symmetry_Int_Tables_number   1
_chemical_formula_structural   Ti27(Cu53Te54)2
_chemical_formula_sum   'Ti27 Cu106 Te108'
_cell_volume   5723.52920138
_cell_formula_units_Z   1
loop_
 _symmetry_equiv_pos_site_id
 _symmetry_equiv_pos_as_xyz
  1  'x, y, z'
loop_
 _atom_type_symbol
 _atom_type_oxidation_number
  Ti4+  4.0
  Cu+  1.0
  Te2-  -2.0
loop_
 _atom_site_type_symbol
 _atom_site_label
 _atom_site_symmetry_multiplicity
 _atom_site_fract_x
 _atom_site_fract_y
 _atom_site_fract_z
 _atom_site_occupancy
  Ti4+  Ti0  1  0.16481010  0.16615107  0.16933244  1
  Ti4+  Ti1  1  0.16994751  0.16643000  0.50483648  1
  Ti4+  Ti2  1  0.17023786  0.16581379  0.83886058  1
  Ti4+  Ti3  1  0.16756154  0.50099806  0.16709547  1
  Ti4+  Ti4  1  0.16450127  0.50058443  0.50532782  1
  Ti4+  Ti5  1  0.16384643  0.49738689  0.83425177  1
  Ti4+  Ti6  1  0.16436677  0.83128534  0.16485429  1
  Ti4+  Ti7  1  0.16901026  0.83467253  0.49574513  1
  Ti4+  Ti8  1  0.16699268  0.83224064  0.83294196  1
  Ti4+  Ti9  1  0.49842376  0.16739510  0.16796567  1
  Ti4+  Ti10  1  0.49727446  0.16836802  0.50099682  1
  Ti4+  Ti11  1  0.50007231  0.16440618  0.83485715  1
  Ti4+  Ti12  1  0.50562275  0.50157618  0.16185890  1
  Ti4+  Ti13  1  0.49872485  0.49907273  0.49709948  1
  Ti4+  Ti14  1  0.49915193  0.50101475  0.83222095  1
  Ti4+  Ti15  1  0.49960419  0.83034611  0.16874013  1
  Ti4+  Ti16  1  0.50167938  0.83306081  0.49773379  1
  Ti4+  Ti17  1  0.49984223  0.83286916  0.83250939  1
  Ti4+  Ti18  1  0.83030557  0.16621795  0.16679761  1
  Ti4+  Ti19  1  0.83400644  0.16979473  0.50053261  1
  Ti4+  Ti20  1  0.83472456  0.16494993  0.83510397  1
  Ti4+  Ti21  1  0.83601965  0.50108813  0.16708829  1
  Ti4+  Ti22  1  0.83417577  0.50063898  0.49953737  1
  Ti4+  Ti23  1  0.83025115  0.49901003  0.82834362  1
  Ti4+  Ti24  1  0.83059787  0.83300185  0.16556469  1
  Ti4+  Ti25  1  0.83482997  0.83517582  0.49905037  1
  Ti4+  Ti26  1  0.83231535  0.83413834  0.83102499  1
  Cu+  Cu27  1  0.16762519  0.16475426  0.00337705  1
  Cu+  Cu28  1  0.16643126  0.16397559  0.33661148  1
  Cu+  Cu29  1  0.17514094  0.16931158  0.67613774  1
  Cu+  Cu30  1  0.16401733  0.50003169  0.00125975  1
  Cu+  Cu31  1  0.16843099  0.50241157  0.33843453  1
  Cu+  Cu32  1  0.15798038  0.49590318  0.67074924  1
  Cu+  Cu33  1  0.16693611  0.83130432  -0.00150631  1
  Cu+  Cu34  1  0.16751116  0.83389025  0.32778325  1
  Cu+  Cu35  1  0.16886667  0.83480618  0.66151637  1
  Cu+  Cu36  1  0.49890659  0.16498728  0.00191379  1
  Cu+  Cu37  1  0.49641169  0.17171354  0.33583921  1
  Cu+  Cu38  1  0.49790659  0.16255080  0.66663687  1
  Cu+  Cu39  1  0.49892746  0.50352422  -0.00351227  1
  Cu+  Cu40  1  0.50395914  0.49746052  0.32552961  1
  Cu+  Cu41  1  0.49906909  0.49972000  0.66473593  1
  Cu+  Cu42  1  0.49957442  0.82934917  -0.00084223  1
  Cu+  Cu43  1  0.50288701  0.83688973  0.33284048  1
  Cu+  Cu44  1  0.50182377  0.83215115  0.66662856  1
  Cu+  Cu45  1  0.83575774  0.16118502  0.00289542  1
  Cu+  Cu46  1  0.83543983  0.17162678  0.33120962  1
  Cu+  Cu47  1  0.83280567  0.16837704  0.66793589  1
  Cu+  Cu48  1  0.83399933  0.49937850  -0.00221684  1
  Cu+  Cu49  1  0.83830414  0.49775308  0.33420069  1
  Cu+  Cu50  1  0.82654773  0.50300200  0.66373000  1
  Cu+  Cu51  1  0.83206863  0.83288387  -0.00563596  1
  Cu+  Cu52  1  0.83230474  0.83361104  0.33343655  1
  Cu+  Cu53  1  0.83382090  0.83654179  0.66567887  1
  Cu+  Cu54  1  0.16411074  -0.00397815  0.16731454  1
  Cu+  Cu55  1  0.17501584  0.00028384  0.49691021  1
  Cu+  Cu56  1  0.17032750  -0.00134896  0.83638384  1
  Cu+  Cu57  1  0.16904654  0.33421834  0.17123563  1
  Cu+  Cu58  1  0.16687594  0.32999214  0.50847128  1
  Cu+  Cu59  1  0.16415120  0.33036683  0.83569791  1
  Cu+  Cu60  1  0.16336744  0.66623528  0.16351881  1
  Cu+  Cu61  1  0.16152474  0.67215681  0.50079877  1
  Cu+  Cu62  1  0.16705722  0.66484545  0.83243001  1
  Cu+  Cu63  1  0.49972752  -0.00082952  0.17185245  1
  Cu+  Cu64  1  0.49903266  -0.00001240  0.50015877  1
  Cu+  Cu65  1  0.50225095  -0.00397018  0.83665438  1
  Cu+  Cu66  1  0.50109655  0.33618512  0.16810055  1
  Cu+  Cu67  1  0.49161649  0.33498463  0.49822106  1
  Cu+  Cu68  1  0.50034216  0.33189367  0.83386014  1
  Cu+  Cu69  1  0.50853571  0.66578698  0.16022001  1
  Cu+  Cu70  1  0.50227827  0.66761162  0.49597749  1
  Cu+  Cu71  1  0.49804481  0.66761560  0.83332302  1
  Cu+  Cu72  1  0.83044392  0.00115383  0.16260957  1
  Cu+  Cu73  1  0.83471361  0.00323363  0.49790977  1
  Cu+  Cu74  1  0.83457676  -0.00098485  0.83403019  1
  Cu+  Cu75  1  0.83372423  0.33372344  0.17029218  1
  Cu+  Cu76  1  0.83208333  0.33696867  0.50295904  1
  Cu+  Cu77  1  0.82968437  0.32895753  0.83069256  1
  Cu+  Cu78  1  0.83125850  0.66528316  0.16382079  1
  Cu+  Cu79  1  0.83906097  0.66687001  0.50031702  1
  Cu+  Cu80  1  0.82814754  0.66957186  0.82781472  1
  Cu+  Cu81  1  -0.00514143  0.16531041  0.16798797  1
  Cu+  Cu82  1  -0.00028461  0.17012482  0.50156933  1
  Cu+  Cu83  1  0.00329908  0.16560935  0.83757904  1
  Cu+  Cu84  1  0.00326442  0.50180650  0.16493548  1
  Cu+  Cu85  1  0.00078587  0.50357276  0.50363919  1
  Cu+  Cu86  1  -0.00232259  0.50039799  0.83192877  1
  Cu+  Cu87  1  -0.00233574  0.83110242  0.16500974  1
  Cu+  Cu88  1  0.00176540  0.83498789  0.49691571  1
  Cu+  Cu89  1  -0.00281912  0.83343032  0.83291772  1
  Cu+  Cu90  1  0.33197331  0.16508937  0.16811985  1
  Cu+  Cu91  1  0.33449579  0.16638103  0.50402715  1
  Cu+  Cu92  1  0.33418166  0.16154569  0.83512181  1
  Cu+  Cu93  1  0.33607220  0.50119926  0.16338756  1
  Cu+  Cu94  1  0.33397848  0.49735937  0.50278112  1
  Cu+  Cu95  1  0.32865654  0.49694283  0.83464641  1
  Cu+  Cu96  1  0.33018253  0.83050037  0.16609388  1
  Cu+  Cu97  1  0.33519644  0.83403598  0.49438471  1
  Cu+  Cu98  1  0.33549618  0.83134910  0.83423395  1
  Cu+  Cu99  1  0.66458226  0.16763295  0.16744625  1
  Cu+  Cu100  1  0.66432458  0.16910632  0.49830174  1
  Cu+  Cu101  1  0.66695211  0.16533708  0.83567764  1
  Cu+  Cu102  1  0.67282519  0.50847327  0.16476238  1
  Cu+  Cu103  1  0.66773670  0.49697275  0.49770017  1
  Cu+  Cu104  1  0.66346666  0.50241567  0.82771872  1
  Cu+  Cu105  1  0.66314205  0.83187761  0.16835158  1
  Cu+  Cu106  1  0.66919635  0.83355590  0.49977947  1
  Cu+  Cu107  1  0.66620333  0.83447186  0.83272289  1
  Cu+  Cu108  1  0.07316058  0.25369600  0.74892658  1
  Cu+  Cu109  1  0.07392605  0.59647978  0.74793039  1
  Cu+  Cu110  1  0.40662826  0.41299971  0.59800757  1
  Cu+  Cu111  1  0.92577398  0.26155191  0.25636877  1
  Cu+  Cu112  1  0.92239195  0.59497262  0.59459622  1
  Cu+  Cu113  1  0.07693798  0.59689271  0.40608750  1
  Cu+  Cu114  1  0.40627039  0.59335343  0.07155990  1
  Cu+  Cu115  1  0.92724741  0.06920792  0.07538315  1
  Cu+  Cu116  1  0.40455338  0.26118676  0.40529043  1
  Cu+  Cu117  1  0.59311301  0.93123479  0.26076912  1
  Cu+  Cu118  1  0.26200958  0.26058770  0.60180971  1
  Cu+  Cu119  1  0.59873482  0.59180957  0.26187980  1
  Cu+  Cu120  1  0.59523239  0.74743465  0.06752426  1
  Cu+  Cu121  1  0.41140852  0.06622288  0.59429343  1
  Cu+  Cu122  1  0.73355925  0.59979750  0.73540559  1
  Cu+  Cu123  1  0.73483862  0.25006556  0.74209242  1
  Cu+  Cu124  1  0.26208900  0.07405914  0.40318094  1
  Cu+  Cu125  1  0.07251779  0.75433021  0.59354499  1
  Cu+  Cu126  1  0.40674951  0.41105180  0.25051382  1
  Cu+  Cu127  1  0.73588060  0.40815395  0.58977430  1
  Cu+  Cu128  1  0.07595196  0.25475933  0.40930545  1
  Cu+  Cu129  1  0.07294849  0.59392692  0.07120801  1
  Cu+  Cu130  1  0.74722697  0.59260483  0.06700258  1
  Cu+  Cu131  1  0.26122759  0.06713569  0.74941491  1
  Cu+  Cu132  1  0.06874699  0.40393366  0.59141221  1
  Te2-  Te133  1  0.25074056  0.25096893  0.08495358  1
  Te2-  Te134  1  0.25275408  0.25498319  0.41529823  1
  Te2-  Te135  1  0.26017334  0.25760133  0.75524002  1
  Te2-  Te136  1  0.25267705  0.58658996  0.07863752  1
  Te2-  Te137  1  0.25191277  0.58648799  0.42235227  1
  Te2-  Te138  1  0.24999114  0.58102752  0.74678867  1
  Te2-  Te139  1  0.25088577  0.91701474  0.08077959  1
  Te2-  Te140  1  0.25593397  0.91847872  0.40733940  1
  Te2-  Te141  1  0.25490583  0.91553767  0.74652653  1
  Te2-  Te142  1  0.58287203  0.25219883  0.08250066  1
  Te2-  Te143  1  0.58307121  0.25580953  0.41629362  1
  Te2-  Te144  1  0.58339385  0.25065833  0.74652866  1
  Te2-  Te145  1  0.59329788  0.58786207  0.06965619  1
  Te2-  Te146  1  0.58732174  0.58371097  0.41330385  1
  Te2-  Te147  1  0.58158138  0.58885096  0.74332355  1
  Te2-  Te148  1  0.58267830  0.91810106  0.08161500  1
  Te2-  Te149  1  0.58901641  0.92226602  0.41532638  1
  Te2-  Te150  1  0.58553585  0.91863952  0.74705765  1
  Te2-  Te151  1  0.91707325  0.25377912  0.08128366  1
  Te2-  Te152  1  0.92049611  0.25907167  0.41514196  1
  Te2-  Te153  1  0.92128580  0.25115712  0.74849840  1
  Te2-  Te154  1  0.92044502  0.58687460  0.07784707  1
  Te2-  Te155  1  0.92225019  0.58634294  0.41185554  1
  Te2-  Te156  1  0.91861137  0.58905846  0.74560996  1
  Te2-  Te157  1  0.91726867  0.91613198  0.07847153  1
  Te2-  Te158  1  0.91916484  0.92019394  0.41291768  1
  Te2-  Te159  1  0.91940398  0.92019745  0.74698307  1
  Te2-  Te160  1  0.25130899  0.07805560  0.25189987  1
  Te2-  Te161  1  0.25588594  0.07642352  0.59262465  1
  Te2-  Te162  1  0.25446848  0.07871695  0.92490528  1
  Te2-  Te163  1  0.25358439  0.41719383  0.25534135  1
  Te2-  Te164  1  0.25335494  0.41451010  0.59312024  1
  Te2-  Te165  1  0.24817158  0.41309218  0.92084052  1
  Te2-  Te166  1  0.25009633  0.74453163  0.24982459  1
  Te2-  Te167  1  0.25536266  0.74921108  0.58120051  1
  Te2-  Te168  1  0.25169268  0.74600331  0.91693313  1
  Te2-  Te169  1  0.58461160  0.08479147  0.25711898  1
  Te2-  Te170  1  0.58583420  0.08220790  0.58351125  1
  Te2-  Te171  1  0.58545853  0.08061646  0.92045855  1
  Te2-  Te172  1  0.59438269  0.41579339  0.24632388  1
  Te2-  Te173  1  0.58347504  0.41197953  0.58383434  1
  Te2-  Te174  1  0.58504854  0.41638244  0.91652600  1
  Te2-  Te175  1  0.58753366  0.74441249  0.25685230  1
  Te2-  Te176  1  0.58621265  0.74805884  0.58319329  1
  Te2-  Te177  1  0.58798585  0.74531768  0.91603745  1
  Te2-  Te178  1  0.91543806  0.07804864  0.25346832  1
  Te2-  Te179  1  0.91814798  0.08431647  0.58545891  1
  Te2-  Te180  1  0.92228400  0.07755488  0.91927912  1
  Te2-  Te181  1  0.92437518  0.41598975  0.25252005  1
  Te2-  Te182  1  0.91881069  0.41409548  0.58970446  1
  Te2-  Te183  1  0.91475892  0.41405965  0.91407869  1
  Te2-  Te184  1  0.91542002  0.74738431  0.24993728  1
  Te2-  Te185  1  0.92155476  0.74968522  0.58890347  1
  Te2-  Te186  1  0.91651117  0.74554040  0.91545120  1
  Te2-  Te187  1  0.07972220  0.25426959  0.25606071  1
  Te2-  Te188  1  0.07832236  0.25006584  0.59519817  1
  Te2-  Te189  1  0.08222497  0.25055739  0.92483186  1
  Te2-  Te190  1  0.08107727  0.58627373  0.25463440  1
  Te2-  Te191  1  0.07805412  0.59312064  0.59304581  1
  Te2-  Te192  1  0.07782129  0.58639790  0.91859802  1
  Te2-  Te193  1  0.07758655  0.91636697  0.25051012  1
  Te2-  Te194  1  0.08407714  0.92250916  0.58123117  1
  Te2-  Te195  1  0.08168900  0.91722161  0.91740071  1
  Te2-  Te196  1  0.40920904  0.25590446  0.25232601  1
  Te2-  Te197  1  0.41260694  0.25679114  0.59377586  1
  Te2-  Te198  1  0.41494430  0.24948622  0.91880829  1
  Te2-  Te199  1  0.41892336  0.58821130  0.24789772  1
  Te2-  Te200  1  0.41629811  0.58749119  0.58218483  1
  Te2-  Te201  1  0.40996540  0.58699138  0.91607487  1
  Te2-  Te202  1  0.41124063  0.91576493  0.25170988  1
  Te2-  Te203  1  0.41367881  0.91541032  0.58579815  1
  Te2-  Te204  1  0.41480235  0.91657993  0.92095375  1
  Te2-  Te205  1  0.74461626  0.25370847  0.25273930  1
  Te2-  Te206  1  0.74341908  0.25405777  0.58706370  1
  Te2-  Te207  1  0.74971062  0.24897756  0.92284133  1
  Te2-  Te208  1  0.75307168  0.58776336  0.25847004  1
  Te2-  Te209  1  0.74314293  0.59065752  0.58099679  1
  Te2-  Te210  1  0.74655862  0.58584865  0.91504484  1
  Te2-  Te211  1  0.74684137  0.92018303  0.25178564  1
  Te2-  Te212  1  0.74973552  0.92141723  0.58323024  1
  Te2-  Te213  1  0.74669411  0.91973887  0.91721853  1
  Te2-  Te214  1  0.08045716  0.07983814  0.08287890  1
  Te2-  Te215  1  0.08100097  0.08100186  0.42059867  1
  Te2-  Te216  1  0.08488332  0.08067096  0.75006572  1
  Te2-  Te217  1  0.08296535  0.41196079  0.08384465  1
  Te2-  Te218  1  0.08219092  0.41163029  0.41809312  1
  Te2-  Te219  1  0.07373893  0.40735617  0.74925396  1
  Te2-  Te220  1  0.07711551  0.74716348  0.07652522  1
  Te2-  Te221  1  0.07998555  0.75042734  0.40782740  1
  Te2-  Te222  1  0.07830369  0.74863034  0.74581758  1
  Te2-  Te223  1  0.41487065  0.07927672  0.08474704  1
  Te2-  Te224  1  0.41342557  0.07961703  0.41251156  1
  Te2-  Te225  1  0.41471015  0.07358971  0.74881325  1
  Te2-  Te226  1  0.41737907  0.41425707  0.07802921  1
  Te2-  Te227  1  0.40974682  0.41636808  0.40651015  1
  Te2-  Te228  1  0.41275890  0.41317978  0.74967004  1
  Te2-  Te229  1  0.41204893  0.74578081  0.08053635  1
  Te2-  Te230  1  0.41727901  0.74842524  0.41097585  1
  Te2-  Te231  1  0.41458060  0.74749281  0.74615468  1
  Te2-  Te232  1  0.74215746  0.08158156  0.08064380  1
  Te2-  Te233  1  0.74969406  0.08683050  0.41406390  1
  Te2-  Te234  1  0.74883008  0.08016476  0.74860116  1
  Te2-  Te235  1  0.75047071  0.41490357  0.08280384  1
  Te2-  Te236  1  0.74999368  0.41406127  0.41158627  1
  Te2-  Te237  1  0.74211515  0.40992292  0.74431762  1
  Te2-  Te238  1  0.74628951  0.74716621  0.07587365  1
  Te2-  Te239  1  0.75049924  0.74670351  0.41605162  1
  Te2-  Te240  1  0.74375110  0.75153103  0.74182683  1
