# generated using pymatgen
data_Ti27(Cu53Te54)2
_symmetry_space_group_name_H-M   'P 1'
_cell_length_a   17.88333442
_cell_length_b   17.88176627
_cell_length_c   17.88174207
_cell_angle_alpha   89.97686748
_cell_angle_beta   90.03475850
_cell_angle_gamma   89.98779081
_symmetry_Int_Tables_number   1
_chemical_formula_structural   Ti27(Cu53Te54)2
_chemical_formula_sum   'Ti27 Cu106 Te108'
_cell_volume   5718.32207840
_cell_formula_units_Z   1
loop_
 _symmetry_equiv_pos_site_id
 _symmetry_equiv_pos_as_xyz
  1  'x, y, z'
loop_
 _atom_type_symbol
 _atom_type_oxidation_number
  Ti4+  4.0
  Cu+  1.0
  Te2-  -2.0
loop_
 _atom_site_type_symbol
 _atom_site_label
 _atom_site_symmetry_multiplicity
 _atom_site_fract_x
 _atom_site_fract_y
 _atom_site_fract_z
 _atom_site_occupancy
  Ti4+  Ti0  1  0.17128353  0.16686672  0.16753867  1
  Ti4+  Ti1  1  0.16277584  0.16581878  0.49446814  1
  Ti4+  Ti2  1  0.16683583  0.16636557  0.83477640  1
  Ti4+  Ti3  1  0.16746556  0.50107384  0.16758425  1
  Ti4+  Ti4  1  0.16763380  0.49974438  0.49822103  1
  Ti4+  Ti5  1  0.16630429  0.49990999  0.83597413  1
  Ti4+  Ti6  1  0.16738026  0.83541899  0.16507179  1
  Ti4+  Ti7  1  0.16725901  0.83419421  0.50109501  1
  Ti4+  Ti8  1  0.16386477  0.83224634  0.83214430  1
  Ti4+  Ti9  1  0.50230970  0.16443075  0.16366068  1
  Ti4+  Ti10  1  0.50099716  0.16422800  0.50342862  1
  Ti4+  Ti11  1  0.49702606  0.16887363  0.82987096  1
  Ti4+  Ti12  1  0.50049094  0.49843719  0.16815448  1
  Ti4+  Ti13  1  0.50081234  0.50112579  0.49843904  1
  Ti4+  Ti14  1  0.49563549  0.50227382  0.83284000  1
  Ti4+  Ti15  1  0.49934668  0.83430484  0.16717694  1
  Ti4+  Ti16  1  0.49899378  0.83564562  0.50054311  1
  Ti4+  Ti17  1  0.50135124  0.83506797  0.83192803  1
  Ti4+  Ti18  1  0.83215189  0.16868331  0.16707362  1
  Ti4+  Ti19  1  0.83313552  0.16238348  0.50549178  1
  Ti4+  Ti20  1  0.83491455  0.17080372  0.83385147  1
  Ti4+  Ti21  1  0.83146660  0.50116702  0.16621643  1
  Ti4+  Ti22  1  0.83454767  0.49723585  0.49951837  1
  Ti4+  Ti23  1  0.82999398  0.49993583  0.83111761  1
  Ti4+  Ti24  1  0.83227631  0.83469166  0.16580382  1
  Ti4+  Ti25  1  0.83608811  0.83102005  0.50051523  1
  Ti4+  Ti26  1  0.83598547  0.83315536  0.83536954  1
  Cu+  Cu27  1  0.17311406  0.16464102  0.00227762  1
  Cu+  Cu28  1  0.16256818  0.16506430  0.32794781  1
  Cu+  Cu29  1  0.16473052  0.16821847  0.66506115  1
  Cu+  Cu30  1  0.16643172  0.50080005  0.00465106  1
  Cu+  Cu31  1  0.16783328  0.50202526  0.33230936  1
  Cu+  Cu32  1  0.16898290  0.49991848  0.66824614  1
  Cu+  Cu33  1  0.16492433  0.83336969  -0.00194995  1
  Cu+  Cu34  1  0.16951375  0.83805713  0.33394864  1
  Cu+  Cu35  1  0.16369998  0.82724776  0.66646133  1
  Cu+  Cu36  1  0.50066071  0.17011505  -0.00478431  1
  Cu+  Cu37  1  0.50277073  0.16346954  0.33501457  1
  Cu+  Cu38  1  0.50086745  0.16351450  0.66960255  1
  Cu+  Cu39  1  0.49461371  0.50053598  0.00095073  1
  Cu+  Cu40  1  0.50612791  0.50303084  0.33241224  1
  Cu+  Cu41  1  0.49593804  0.49821643  0.66296472  1
  Cu+  Cu42  1  0.49996643  0.83307516  0.00033119  1
  Cu+  Cu43  1  0.49935290  0.83230641  0.33540409  1
  Cu+  Cu44  1  0.49874347  0.84138239  0.66660473  1
  Cu+  Cu45  1  0.83132354  0.17176799  0.00225427  1
  Cu+  Cu46  1  0.83081079  0.16556580  0.33781972  1
  Cu+  Cu47  1  0.83696060  0.17424143  0.67027147  1
  Cu+  Cu48  1  0.83046121  0.50455410  -0.00243064  1
  Cu+  Cu49  1  0.82858498  0.49660006  0.33231980  1
  Cu+  Cu50  1  0.83552521  0.49515213  0.66570015  1
  Cu+  Cu51  1  0.83472875  0.83789824  0.00071942  1
  Cu+  Cu52  1  0.83044129  0.83061135  0.32946788  1
  Cu+  Cu53  1  0.83869038  0.83056565  0.66680323  1
  Cu+  Cu54  1  0.17586434  0.00052809  0.16824324  1
  Cu+  Cu55  1  0.15793561  -0.00112280  0.49458521  1
  Cu+  Cu56  1  0.16600410  -0.00286984  0.83382252  1
  Cu+  Cu57  1  0.17103656  0.33508866  0.16542762  1
  Cu+  Cu58  1  0.16761786  0.33374558  0.49405757  1
  Cu+  Cu59  1  0.16537044  0.33045621  0.83652041  1
  Cu+  Cu60  1  0.16595918  0.66717379  0.16627111  1
  Cu+  Cu61  1  0.16890301  0.66605063  0.50132292  1
  Cu+  Cu62  1  0.16611405  0.66517724  0.83452141  1
  Cu+  Cu63  1  0.49647199  0.00204747  0.16868931  1
  Cu+  Cu64  1  0.50737587  -0.00192413  0.50283786  1
  Cu+  Cu65  1  0.49619923  -0.00004281  0.82557482  1
  Cu+  Cu66  1  0.50178764  0.32892197  0.16407525  1
  Cu+  Cu67  1  0.49479493  0.33287045  0.50307949  1
  Cu+  Cu68  1  0.49681189  0.34110195  0.83315250  1
  Cu+  Cu69  1  0.50068912  0.66635993  0.16839216  1
  Cu+  Cu70  1  0.50144669  0.66948110  0.49819463  1
  Cu+  Cu71  1  0.49968004  0.66859085  0.83326821  1
  Cu+  Cu72  1  0.82994338  0.00044440  0.16590065  1
  Cu+  Cu73  1  0.83987728  -0.00324706  0.50119698  1
  Cu+  Cu74  1  0.83744967  0.00229402  0.83772684  1
  Cu+  Cu75  1  0.82975216  0.33581947  0.16898164  1
  Cu+  Cu76  1  0.83266670  0.32942677  0.50675725  1
  Cu+  Cu77  1  0.82972201  0.33463360  0.82551460  1
  Cu+  Cu78  1  0.83156927  0.67032597  0.16252211  1
  Cu+  Cu79  1  0.83299579  0.66159377  0.49771993  1
  Cu+  Cu80  1  0.83612174  0.66432868  0.83603117  1
  Cu+  Cu81  1  -0.00036781  0.17108739  0.16716498  1
  Cu+  Cu82  1  -0.00049883  0.15921463  0.50458401  1
  Cu+  Cu83  1  0.00267451  0.16631169  0.83603832  1
  Cu+  Cu84  1  0.00128216  0.50151548  0.16592171  1
  Cu+  Cu85  1  0.00126449  0.50045984  0.49697287  1
  Cu+  Cu86  1  -0.00069357  0.50004990  0.83624606  1
  Cu+  Cu87  1  -0.00259357  0.83209249  0.16457363  1
  Cu+  Cu88  1  0.00338406  0.83357682  0.50299937  1
  Cu+  Cu89  1  -0.00330281  0.83009879  0.83455257  1
  Cu+  Cu90  1  0.33817114  0.15887852  0.16376286  1
  Cu+  Cu91  1  0.32978464  0.16814384  0.49803247  1
  Cu+  Cu92  1  0.33041490  0.16919047  0.83342812  1
  Cu+  Cu93  1  0.33265962  0.50081776  0.16676835  1
  Cu+  Cu94  1  0.33504751  0.49872230  0.49959018  1
  Cu+  Cu95  1  0.33209620  0.49968415  0.83933343  1
  Cu+  Cu96  1  0.33295078  0.83680459  0.16743742  1
  Cu+  Cu97  1  0.33389299  0.83423041  0.50092127  1
  Cu+  Cu98  1  0.33361655  0.83544733  0.83049979  1
  Cu+  Cu99  1  0.66725956  0.16884156  0.16631939  1
  Cu+  Cu100  1  0.66352247  0.16053549  0.49903425  1
  Cu+  Cu101  1  0.66665232  0.17261923  0.83064802  1
  Cu+  Cu102  1  0.66545430  0.49973722  0.17150434  1
  Cu+  Cu103  1  0.66938580  0.49979881  0.49871545  1
  Cu+  Cu104  1  0.65999826  0.50038428  0.82857666  1
  Cu+  Cu105  1  0.66660451  0.83522451  0.16495455  1
  Cu+  Cu106  1  0.66743943  0.83422937  0.50151304  1
  Cu+  Cu107  1  0.67145081  0.83119394  0.83454928  1
  Cu+  Cu108  1  0.93112825  0.41002588  0.74487921  1
  Cu+  Cu109  1  0.40214393  0.40493446  0.59132370  1
  Cu+  Cu110  1  0.07800541  0.73287868  0.59081368  1
  Cu+  Cu111  1  0.92979029  0.07361251  0.75220178  1
  Cu+  Cu112  1  0.59875729  0.07177497  0.75177514  1
  Cu+  Cu113  1  0.92118694  0.73462017  0.73977501  1
  Cu+  Cu114  1  0.26372681  0.92375909  0.26439651  1
  Cu+  Cu115  1  0.73602052  0.25998694  0.73709482  1
  Cu+  Cu116  1  0.08277544  0.07358809  0.59662996  1
  Cu+  Cu117  1  0.40322683  0.40850023  0.93280088  1
  Cu+  Cu118  1  0.26568601  0.07095537  0.06827502  1
  Cu+  Cu119  1  0.92911582  0.91969154  0.59487510  1
  Cu+  Cu120  1  0.59206678  0.06982119  0.40271214  1
  Cu+  Cu121  1  0.06923219  0.07094533  0.24104850  1
  Cu+  Cu122  1  0.92120102  0.07494412  0.40494910  1
  Cu+  Cu123  1  0.58710765  0.41365859  0.73518605  1
  Cu+  Cu124  1  0.41103675  0.07704676  0.26594809  1
  Cu+  Cu125  1  0.92835823  0.59000118  0.92885845  1
  Cu+  Cu126  1  0.92665813  0.93171318  0.93304261  1
  Cu+  Cu127  1  0.39927640  0.92769595  0.73768029  1
  Cu+  Cu128  1  0.73726418  0.40409985  0.26119096  1
  Cu+  Cu129  1  0.07015126  0.91615058  0.40234004  1
  Cu+  Cu130  1  0.93138732  0.25980842  0.58921714  1
  Cu+  Cu131  1  0.59502838  0.59816922  0.25916982  1
  Cu+  Cu132  1  0.59939674  0.92125688  0.59478649  1
  Te2-  Te133  1  0.25772822  0.25176967  0.08325641  1
  Te2-  Te134  1  0.24962457  0.24980806  0.40985543  1
  Te2-  Te135  1  0.24900685  0.25218803  0.74714841  1
  Te2-  Te136  1  0.25319226  0.58761518  0.08211350  1
  Te2-  Te137  1  0.25362415  0.58581079  0.41507272  1
  Te2-  Te138  1  0.25255355  0.58422796  0.75111636  1
  Te2-  Te139  1  0.25425740  0.91838732  0.07526648  1
  Te2-  Te140  1  0.25542567  0.92307151  0.41793132  1
  Te2-  Te141  1  0.24770167  0.91822540  0.74398624  1
  Te2-  Te142  1  0.58726318  0.25093543  0.07805989  1
  Te2-  Te143  1  0.58319384  0.25213923  0.41803223  1
  Te2-  Te144  1  0.58259425  0.25928322  0.74407328  1
  Te2-  Te145  1  0.58426372  0.58339489  0.08100562  1
  Te2-  Te146  1  0.59006219  0.58887433  0.41550479  1
  Te2-  Te147  1  0.58013946  0.58729556  0.74389600  1
  Te2-  Te148  1  0.58268336  0.92055981  0.08237336  1
  Te2-  Te149  1  0.58907573  0.91763245  0.41105450  1
  Te2-  Te150  1  0.59526265  0.92011135  0.74725004  1
  Te2-  Te151  1  0.91715800  0.25575957  0.08356674  1
  Te2-  Te152  1  0.91826273  0.24903998  0.41956492  1
  Te2-  Te153  1  0.92875757  0.25733969  0.74798749  1
  Te2-  Te154  1  0.91914887  0.58722412  0.08112722  1
  Te2-  Te155  1  0.91726236  0.58189449  0.41148904  1
  Te2-  Te156  1  0.92035383  0.58357246  0.74453327  1
  Te2-  Te157  1  0.92080502  0.92366547  0.08307446  1
  Te2-  Te158  1  0.91953123  0.91639987  0.40797762  1
  Te2-  Te159  1  0.92352535  0.92151291  0.74736872  1
  Te2-  Te160  1  0.25868267  0.07933892  0.25996405  1
  Te2-  Te161  1  0.24739640  0.08035454  0.58095566  1
  Te2-  Te162  1  0.25465320  0.07738757  0.91659900  1
  Te2-  Te163  1  0.25370228  0.41549894  0.25314770  1
  Te2-  Te164  1  0.25095924  0.41152034  0.58518372  1
  Te2-  Te165  1  0.24949175  0.41245089  0.92341429  1
  Te2-  Te166  1  0.25094210  0.74953253  0.25201185  1
  Te2-  Te167  1  0.25426255  0.74825733  0.58585596  1
  Te2-  Te168  1  0.25193955  0.75011863  0.91637559  1
  Te2-  Te169  1  0.59052198  0.07872720  0.25063813  1
  Te2-  Te170  1  0.59049296  0.07801487  0.59372674  1
  Te2-  Te171  1  0.58426396  0.08276257  0.91268340  1
  Te2-  Te172  1  0.58457979  0.40775261  0.25435524  1
  Te2-  Te173  1  0.58784891  0.41290300  0.58277482  1
  Te2-  Te174  1  0.58358034  0.41811178  0.92056319  1
  Te2-  Te175  1  0.58724706  0.75036852  0.25344957  1
  Te2-  Te176  1  0.58407042  0.75046202  0.58727220  1
  Te2-  Te177  1  0.58577633  0.74918028  0.91783735  1
  Te2-  Te178  1  0.91742025  0.07930276  0.25227912  1
  Te2-  Te179  1  0.92201236  0.07493053  0.59651753  1
  Te2-  Te180  1  0.92023736  0.08642573  0.92521611  1
  Te2-  Te181  1  0.91915882  0.41676737  0.25087764  1
  Te2-  Te182  1  0.92519731  0.41234246  0.58643667  1
  Te2-  Te183  1  0.91344663  0.41270895  0.91795663  1
  Te2-  Te184  1  0.91802044  0.74713123  0.25045494  1
  Te2-  Te185  1  0.92263193  0.73937879  0.58418528  1
  Te2-  Te186  1  0.91947416  0.74570106  0.92491352  1
  Te2-  Te187  1  0.08364479  0.25595717  0.24914592  1
  Te2-  Te188  1  0.08249759  0.25544819  0.58278653  1
  Te2-  Te189  1  0.08312453  0.24898515  0.92406265  1
  Te2-  Te190  1  0.08114326  0.58711054  0.25225700  1
  Te2-  Te191  1  0.08077819  0.58273593  0.58695119  1
  Te2-  Te192  1  0.08112338  0.58628472  0.92270060  1
  Te2-  Te193  1  0.07647219  0.92057045  0.25042481  1
  Te2-  Te194  1  0.08031959  0.92175306  0.59306866  1
  Te2-  Te195  1  0.07877617  0.91892578  0.91900421  1
  Te2-  Te196  1  0.41655114  0.24783819  0.25126758  1
  Te2-  Te197  1  0.41123386  0.24820654  0.58836141  1
  Te2-  Te198  1  0.41225155  0.25460648  0.91733843  1
  Te2-  Te199  1  0.41455933  0.58431140  0.25290578  1
  Te2-  Te200  1  0.41555130  0.58826126  0.58271695  1
  Te2-  Te201  1  0.41319494  0.59017390  0.91974385  1
  Te2-  Te202  1  0.41424403  0.92103326  0.25774560  1
  Te2-  Te203  1  0.41020689  0.92447560  0.58424312  1
  Te2-  Te204  1  0.41592634  0.91980285  0.91763773  1
  Te2-  Te205  1  0.74570008  0.25109176  0.25666775  1
  Te2-  Te206  1  0.74116134  0.24940336  0.58559736  1
  Te2-  Te207  1  0.74794758  0.25583160  0.91810820  1
  Te2-  Te208  1  0.74835085  0.59080318  0.25314202  1
  Te2-  Te209  1  0.75025003  0.58258097  0.58614748  1
  Te2-  Te210  1  0.74168839  0.58534101  0.91376015  1
  Te2-  Te211  1  0.74641608  0.91961420  0.25210756  1
  Te2-  Te212  1  0.75199539  0.91818745  0.58804453  1
  Te2-  Te213  1  0.74868306  0.92096406  0.91792002  1
  Te2-  Te214  1  0.08297412  0.08091000  0.08363154  1
  Te2-  Te215  1  0.07417278  0.07719264  0.40450550  1
  Te2-  Te216  1  0.08101391  0.07795464  0.74821165  1
  Te2-  Te217  1  0.08148540  0.41389619  0.08278440  1
  Te2-  Te218  1  0.08195407  0.41592332  0.41173303  1
  Te2-  Te219  1  0.08286205  0.41330391  0.74886278  1
  Te2-  Te220  1  0.08187680  0.74928003  0.08134242  1
  Te2-  Te221  1  0.08313588  0.74888234  0.41269411  1
  Te2-  Te222  1  0.07711956  0.74168246  0.74762080  1
  Te2-  Te223  1  0.41878973  0.07812998  0.07204156  1
  Te2-  Te224  1  0.41386050  0.07783095  0.41962794  1
  Te2-  Te225  1  0.40661821  0.08337050  0.74514783  1
  Te2-  Te226  1  0.41221148  0.41148994  0.08423240  1
  Te2-  Te227  1  0.41725793  0.41588870  0.41088634  1
  Te2-  Te228  1  0.40693663  0.41528497  0.74549410  1
  Te2-  Te229  1  0.41426977  0.74863431  0.08343369  1
  Te2-  Te230  1  0.41340044  0.74908052  0.41550286  1
  Te2-  Te231  1  0.41638085  0.74981490  0.74572906  1
  Te2-  Te232  1  0.74750380  0.08374098  0.08080253  1
  Te2-  Te233  1  0.74803065  0.07523563  0.41683114  1
  Te2-  Te234  1  0.75130399  0.08120844  0.74796569  1
  Te2-  Te235  1  0.74592167  0.41749662  0.07953966  1
  Te2-  Te236  1  0.74734626  0.40843135  0.41707863  1
  Te2-  Te237  1  0.74118198  0.41443089  0.74104014  1
  Te2-  Te238  1  0.74673333  0.75152484  0.07793194  1
  Te2-  Te239  1  0.74855942  0.74829138  0.41699720  1
  Te2-  Te240  1  0.75187245  0.74628948  0.74812258  1
