# generated using pymatgen
data_Ti27(Cu53Te54)2
_symmetry_space_group_name_H-M   'P 1'
_cell_length_a   17.89301925
_cell_length_b   17.90353456
_cell_length_c   17.89630191
_cell_angle_alpha   90.00528453
_cell_angle_beta   90.02280402
_cell_angle_gamma   90.01636445
_symmetry_Int_Tables_number   1
_chemical_formula_structural   Ti27(Cu53Te54)2
_chemical_formula_sum   'Ti27 Cu106 Te108'
_cell_volume   5733.04897627
_cell_formula_units_Z   1
loop_
 _symmetry_equiv_pos_site_id
 _symmetry_equiv_pos_as_xyz
  1  'x, y, z'
loop_
 _atom_type_symbol
 _atom_type_oxidation_number
  Ti4+  4.0
  Cu+  1.0
  Te2-  -2.0
loop_
 _atom_site_type_symbol
 _atom_site_label
 _atom_site_symmetry_multiplicity
 _atom_site_fract_x
 _atom_site_fract_y
 _atom_site_fract_z
 _atom_site_occupancy
  Ti4+  Ti0  1  0.16810352  0.16475851  0.16560004  1
  Ti4+  Ti1  1  0.16660955  0.16747522  0.50180560  1
  Ti4+  Ti2  1  0.16524843  0.16417976  0.83526879  1
  Ti4+  Ti3  1  0.16495456  0.49790215  0.16868657  1
  Ti4+  Ti4  1  0.16536860  0.49807212  0.49850424  1
  Ti4+  Ti5  1  0.16806878  0.49687980  0.83684363  1
  Ti4+  Ti6  1  0.16500106  0.83287643  0.16786237  1
  Ti4+  Ti7  1  0.16595643  0.83324696  0.50080655  1
  Ti4+  Ti8  1  0.16411715  0.82850865  0.83187758  1
  Ti4+  Ti9  1  0.49947343  0.16611257  0.16789465  1
  Ti4+  Ti10  1  0.49901941  0.16874943  0.50190336  1
  Ti4+  Ti11  1  0.49919851  0.16811720  0.83672557  1
  Ti4+  Ti12  1  0.50198054  0.49986016  0.16661743  1
  Ti4+  Ti13  1  0.50076513  0.50223325  0.49955842  1
  Ti4+  Ti14  1  0.50203451  0.50483616  0.83286316  1
  Ti4+  Ti15  1  0.50010395  0.83245045  0.16563987  1
  Ti4+  Ti16  1  0.50172291  0.83236847  0.50112573  1
  Ti4+  Ti17  1  0.49553538  0.83769082  0.83553901  1
  Ti4+  Ti18  1  0.83670781  0.16632474  0.16758020  1
  Ti4+  Ti19  1  0.82934073  0.16689350  0.49787134  1
  Ti4+  Ti20  1  0.83459839  0.17034575  0.83197273  1
  Ti4+  Ti21  1  0.83587174  0.49929641  0.16406296  1
  Ti4+  Ti22  1  0.83301020  0.49799540  0.49703211  1
  Ti4+  Ti23  1  0.83532675  0.49958068  0.83159357  1
  Ti4+  Ti24  1  0.83433806  0.83499937  0.16464239  1
  Ti4+  Ti25  1  0.83165559  0.83215788  0.49940420  1
  Ti4+  Ti26  1  0.83318296  0.83620184  0.83152551  1
  Cu+  Cu27  1  0.17130652  0.16752618  -0.00227133  1
  Cu+  Cu28  1  0.16746790  0.16642413  0.33330781  1
  Cu+  Cu29  1  0.16505551  0.16712039  0.66944836  1
  Cu+  Cu30  1  0.16199622  0.49597032  0.00449952  1
  Cu+  Cu31  1  0.16292722  0.50027573  0.33538399  1
  Cu+  Cu32  1  0.16933252  0.49933924  0.66601871  1
  Cu+  Cu33  1  0.16566828  0.83147146  0.00021652  1
  Cu+  Cu34  1  0.16865402  0.83363003  0.33478477  1
  Cu+  Cu35  1  0.16339762  0.83236223  0.66597943  1
  Cu+  Cu36  1  0.49668007  0.16295665  0.00220382  1
  Cu+  Cu37  1  0.49976153  0.16506909  0.33659591  1
  Cu+  Cu38  1  0.49836110  0.17115829  0.66934640  1
  Cu+  Cu39  1  0.50221417  0.50244354  0.00142634  1
  Cu+  Cu40  1  0.50248697  0.49873085  0.33212965  1
  Cu+  Cu41  1  0.50266499  0.51073221  0.66423822  1
  Cu+  Cu42  1  0.49712794  0.83604847  -0.00168887  1
  Cu+  Cu43  1  0.50193581  0.82992367  0.33329096  1
  Cu+  Cu44  1  0.50117983  0.83503053  0.67123083  1
  Cu+  Cu45  1  0.83627535  0.16955568  0.00186758  1
  Cu+  Cu46  1  0.82678819  0.16292538  0.32906358  1
  Cu+  Cu47  1  0.83516589  0.17216465  0.66245735  1
  Cu+  Cu48  1  0.83631122  0.50132862  -0.00235340  1
  Cu+  Cu49  1  0.83702517  0.49559376  0.33032374  1
  Cu+  Cu50  1  0.83130793  0.49467807  0.66357459  1
  Cu+  Cu51  1  0.83271643  0.83634842  -0.00165607  1
  Cu+  Cu52  1  0.83290429  0.83490773  0.33253947  1
  Cu+  Cu53  1  0.83349357  0.83152034  0.66455586  1
  Cu+  Cu54  1  0.16383934  -0.00065625  0.16777908  1
  Cu+  Cu55  1  0.16810742  0.00093284  0.50251096  1
  Cu+  Cu56  1  0.16377493  -0.00755343  0.83011754  1
  Cu+  Cu57  1  0.17096035  0.32890943  0.17009299  1
  Cu+  Cu58  1  0.16676454  0.33374486  0.50167363  1
  Cu+  Cu59  1  0.16531202  0.33087829  0.84104485  1
  Cu+  Cu60  1  0.16380370  0.66643661  0.16636314  1
  Cu+  Cu61  1  0.16322074  0.66613671  0.49948514  1
  Cu+  Cu62  1  0.16656976  0.66066758  0.83165626  1
  Cu+  Cu63  1  0.49853368  -0.00342037  0.16727610  1
  Cu+  Cu64  1  0.50088293  0.00117587  0.50247902  1
  Cu+  Cu65  1  0.49570226  0.00383761  0.84307912  1
  Cu+  Cu66  1  0.50044423  0.33209760  0.16718635  1
  Cu+  Cu67  1  0.50038075  0.33601482  0.49889182  1
  Cu+  Cu68  1  0.49968482  0.33949020  0.83345368  1
  Cu+  Cu69  1  0.50051125  0.66373035  0.16571293  1
  Cu+  Cu70  1  0.50622169  0.66732601  0.49968783  1
  Cu+  Cu71  1  0.49723392  0.67395469  0.83293072  1
  Cu+  Cu72  1  0.83842218  0.00187109  0.16607032  1
  Cu+  Cu73  1  0.82868177  -0.00309173  0.49909871  1
  Cu+  Cu74  1  0.83231601  0.00470019  0.83045192  1
  Cu+  Cu75  1  0.83473189  0.33124596  0.16137287  1
  Cu+  Cu76  1  0.83161310  0.33433534  0.49949711  1
  Cu+  Cu77  1  0.83543922  0.33474336  0.83271215  1
  Cu+  Cu78  1  0.83482214  0.66832641  0.16624807  1
  Cu+  Cu79  1  0.83195075  0.66657489  0.49830331  1
  Cu+  Cu80  1  0.83685861  0.66891199  0.82920031  1
  Cu+  Cu81  1  0.00296776  0.15660824  0.16598044  1
  Cu+  Cu82  1  -0.00459986  0.16988677  0.50013252  1
  Cu+  Cu83  1  0.00142104  0.16872073  0.82867755  1
  Cu+  Cu84  1  0.00146027  0.50148464  0.16287961  1
  Cu+  Cu85  1  0.00089837  0.49882525  0.49100610  1
  Cu+  Cu86  1  0.00404634  0.49756001  0.83380447  1
  Cu+  Cu87  1  -0.00101387  0.83633277  0.16770964  1
  Cu+  Cu88  1  -0.00207171  0.83358826  0.50121173  1
  Cu+  Cu89  1  -0.00211385  0.83237321  0.82512773  1
  Cu+  Cu90  1  0.33152507  0.16885201  0.17056464  1
  Cu+  Cu91  1  0.33444268  0.16832683  0.50290588  1
  Cu+  Cu92  1  0.33209152  0.16406834  0.84015695  1
  Cu+  Cu93  1  0.33307003  0.49833791  0.16861006  1
  Cu+  Cu94  1  0.33214459  0.50173497  0.50007189  1
  Cu+  Cu95  1  0.33902728  0.49604373  0.83846250  1
  Cu+  Cu96  1  0.33085887  0.83228920  0.16685039  1
  Cu+  Cu97  1  0.33370643  0.83231263  0.50268458  1
  Cu+  Cu98  1  0.33019048  0.82942529  0.83839623  1
  Cu+  Cu99  1  0.66913410  0.16803264  0.16718783  1
  Cu+  Cu100  1  0.66142472  0.16470781  0.49739022  1
  Cu+  Cu101  1  0.66833800  0.16943061  0.83402919  1
  Cu+  Cu102  1  0.66968521  0.49899235  0.16596087  1
  Cu+  Cu103  1  0.66504164  0.49649761  0.50126932  1
  Cu+  Cu104  1  0.66908229  0.50521222  0.83106995  1
  Cu+  Cu105  1  0.66888106  0.83382301  0.16331594  1
  Cu+  Cu106  1  0.66716064  0.82995633  0.49695322  1
  Cu+  Cu107  1  0.66322421  0.84084949  0.83397930  1
  Cu+  Cu108  1  0.59412023  0.73882581  0.40110794  1
  Cu+  Cu109  1  0.92509197  0.73892804  0.73539033  1
  Cu+  Cu110  1  0.58863305  0.40554368  0.40300099  1
  Cu+  Cu111  1  0.07917068  0.07180123  0.26510655  1
  Cu+  Cu112  1  0.58601069  0.07012933  0.40856533  1
  Cu+  Cu113  1  0.40397609  0.74077932  0.92932148  1
  Cu+  Cu114  1  0.40139480  0.07282318  0.93412446  1
  Cu+  Cu115  1  0.26184320  0.25936995  0.92588258  1
  Cu+  Cu116  1  0.92837745  0.07368374  0.06738762  1
  Cu+  Cu117  1  0.07362025  0.59874331  0.40538129  1
  Cu+  Cu118  1  0.07121651  0.92574270  0.73687493  1
  Cu+  Cu119  1  0.59502082  0.93039428  0.92859864  1
  Cu+  Cu120  1  0.59805200  0.59553108  0.59098324  1
  Cu+  Cu121  1  0.07832690  0.58548326  0.73819784  1
  Cu+  Cu122  1  0.59265006  0.74750126  0.74800301  1
  Cu+  Cu123  1  0.92837681  0.40301927  0.40116485  1
  Cu+  Cu124  1  0.73937668  0.25939199  0.07397012  1
  Cu+  Cu125  1  0.73610434  0.40400552  0.59486312  1
  Cu+  Cu126  1  0.73845514  0.06895860  0.24923552  1
  Cu+  Cu127  1  0.26052589  0.25903096  0.26506732  1
  Cu+  Cu128  1  0.41936251  0.40884897  0.93142464  1
  Cu+  Cu129  1  0.07092357  0.40295838  0.93288607  1
  Cu+  Cu130  1  0.08000550  0.26082900  0.74207043  1
  Cu+  Cu131  1  0.07398465  0.59705517  0.07361688  1
  Cu+  Cu132  1  0.92486427  0.26239408  0.58972581  1
  Te2-  Te133  1  0.25561649  0.25307976  0.07926785  1
  Te2-  Te134  1  0.25325667  0.25299482  0.41659335  1
  Te2-  Te135  1  0.25256540  0.25104639  0.75194697  1
  Te2-  Te136  1  0.25055030  0.58261790  0.08326524  1
  Te2-  Te137  1  0.25038715  0.58551638  0.41447728  1
  Te2-  Te138  1  0.25606983  0.57981620  0.75135193  1
  Te2-  Te139  1  0.24956217  0.91777106  0.08184862  1
  Te2-  Te140  1  0.25280694  0.91850647  0.41752510  1
  Te2-  Te141  1  0.25277459  0.91279676  0.74810330  1
  Te2-  Te142  1  0.58409474  0.25114579  0.08037938  1
  Te2-  Te143  1  0.58581412  0.25475478  0.41251050  1
  Te2-  Te144  1  0.58379163  0.25424744  0.75192788  1
  Te2-  Te145  1  0.58842459  0.58506869  0.08181225  1
  Te2-  Te146  1  0.59020231  0.58597348  0.41049854  1
  Te2-  Te147  1  0.58958361  0.59368414  0.74732034  1
  Te2-  Te148  1  0.58599312  0.92004486  0.08055267  1
  Te2-  Te149  1  0.58683256  0.91903441  0.41338105  1
  Te2-  Te150  1  0.58030652  0.92749243  0.75074115  1
  Te2-  Te151  1  0.92666656  0.25025103  0.08277064  1
  Te2-  Te152  1  0.91505134  0.25051356  0.40857230  1
  Te2-  Te153  1  0.92176848  0.25802712  0.74466560  1
  Te2-  Te154  1  0.91962800  0.58798516  0.07867644  1
  Te2-  Te155  1  0.91727004  0.58770354  0.41071289  1
  Te2-  Te156  1  0.92113993  0.58303890  0.74226365  1
  Te2-  Te157  1  0.92152317  0.92048877  0.07786508  1
  Te2-  Te158  1  0.91710362  0.91851431  0.41549007  1
  Te2-  Te159  1  0.91629582  0.92380859  0.74269721  1
  Te2-  Te160  1  0.25260378  0.07808587  0.25280092  1
  Te2-  Te161  1  0.25151128  0.08418691  0.58767189  1
  Te2-  Te162  1  0.24892439  0.07223370  0.91964758  1
  Te2-  Te163  1  0.25256490  0.41448347  0.25620960  1
  Te2-  Te164  1  0.25301012  0.41480031  0.58484387  1
  Te2-  Te165  1  0.25630131  0.41296362  0.92627694  1
  Te2-  Te166  1  0.25000498  0.74665132  0.25193318  1
  Te2-  Te167  1  0.24970701  0.74630910  0.58514593  1
  Te2-  Te168  1  0.24841465  0.74189754  0.92150485  1
  Te2-  Te169  1  0.58539792  0.07785983  0.25278943  1
  Te2-  Te170  1  0.58374207  0.08376413  0.59003479  1
  Te2-  Te171  1  0.59013894  0.08402916  0.92289507  1
  Te2-  Te172  1  0.58901952  0.41188854  0.25018252  1
  Te2-  Te173  1  0.58338699  0.41351814  0.59084311  1
  Te2-  Te174  1  0.58888933  0.41962236  0.91758767  1
  Te2-  Te175  1  0.58841175  0.74591840  0.24840180  1
  Te2-  Te176  1  0.59019915  0.74867162  0.59112556  1
  Te2-  Te177  1  0.58600719  0.75072238  0.91994160  1
  Te2-  Te178  1  0.92174437  0.07823902  0.25822997  1
  Te2-  Te179  1  0.91450535  0.08025232  0.58191276  1
  Te2-  Te180  1  0.92064426  0.08273831  0.91526059  1
  Te2-  Te181  1  0.92255274  0.41114521  0.24711669  1
  Te2-  Te182  1  0.92331778  0.41512913  0.58417026  1
  Te2-  Te183  1  0.92022270  0.41367925  0.91905525  1
  Te2-  Te184  1  0.91847567  0.75023849  0.25178016  1
  Te2-  Te185  1  0.91949125  0.74447381  0.58388384  1
  Te2-  Te186  1  0.91853661  0.75091044  0.91736114  1
  Te2-  Te187  1  0.07939723  0.24901455  0.25045914  1
  Te2-  Te188  1  0.07899433  0.25551134  0.58731516  1
  Te2-  Te189  1  0.07603713  0.24910297  0.92419199  1
  Te2-  Te190  1  0.07815958  0.58607117  0.25342377  1
  Te2-  Te191  1  0.07796798  0.58362331  0.58513774  1
  Te2-  Te192  1  0.08015249  0.58579265  0.92169033  1
  Te2-  Te193  1  0.07970813  0.91856632  0.25596896  1
  Te2-  Te194  1  0.07862332  0.92045202  0.58508638  1
  Te2-  Te195  1  0.07845040  0.91362663  0.91753897  1
  Te2-  Te196  1  0.41617062  0.25273674  0.25542765  1
  Te2-  Te197  1  0.41465842  0.25611863  0.58648964  1
  Te2-  Te198  1  0.41417947  0.25675117  0.92418235  1
  Te2-  Te199  1  0.41572018  0.58390054  0.25249347  1
  Te2-  Te200  1  0.41345251  0.58957938  0.58198782  1
  Te2-  Te201  1  0.41537085  0.58921030  0.92117831  1
  Te2-  Te202  1  0.41471251  0.91488897  0.25327746  1
  Te2-  Te203  1  0.41670685  0.91769822  0.58636434  1
  Te2-  Te204  1  0.40515673  0.92121810  0.92384114  1
  Te2-  Te205  1  0.74880438  0.25617329  0.25111983  1
  Te2-  Te206  1  0.74150634  0.25191292  0.58384623  1
  Te2-  Te207  1  0.74913595  0.25515526  0.91946614  1
  Te2-  Te208  1  0.75175883  0.58349879  0.25067554  1
  Te2-  Te209  1  0.74947052  0.58613581  0.58550729  1
  Te2-  Te210  1  0.75256732  0.58784948  0.91595105  1
  Te2-  Te211  1  0.74697451  0.91907930  0.25127008  1
  Te2-  Te212  1  0.74520389  0.91605583  0.58514714  1
  Te2-  Te213  1  0.74904827  0.92407970  0.91817222  1
  Te2-  Te214  1  0.08475604  0.07799332  0.07432636  1
  Te2-  Te215  1  0.07975989  0.08170986  0.41815129  1
  Te2-  Te216  1  0.07956846  0.07791640  0.74641540  1
  Te2-  Te217  1  0.07995028  0.40599697  0.08551551  1
  Te2-  Te218  1  0.08118571  0.40692179  0.41103232  1
  Te2-  Te219  1  0.08360123  0.41169718  0.74614677  1
  Te2-  Te220  1  0.07725224  0.74924072  0.08066334  1
  Te2-  Te221  1  0.07834917  0.75005578  0.41313778  1
  Te2-  Te222  1  0.07953037  0.73984778  0.74262022  1
  Te2-  Te223  1  0.41068947  0.07926232  0.08598037  1
  Te2-  Te224  1  0.41291815  0.08102931  0.41729280  1
  Te2-  Te225  1  0.41437330  0.08404459  0.75026202  1
  Te2-  Te226  1  0.41426972  0.41329406  0.08258736  1
  Te2-  Te227  1  0.41385769  0.41719357  0.41458616  1
  Te2-  Te228  1  0.41868826  0.42089838  0.74370691  1
  Te2-  Te229  1  0.41317492  0.74615348  0.08219844  1
  Te2-  Te230  1  0.41540603  0.74708619  0.41677528  1
  Te2-  Te231  1  0.41016985  0.75103444  0.74654792  1
  Te2-  Te232  1  0.74893607  0.08065880  0.08016419  1
  Te2-  Te233  1  0.74292157  0.07728807  0.41222558  1
  Te2-  Te234  1  0.74926216  0.08752995  0.74551682  1
  Te2-  Te235  1  0.74899051  0.41508065  0.07700644  1
  Te2-  Te236  1  0.74588513  0.41319491  0.40960678  1
  Te2-  Te237  1  0.74601032  0.41294242  0.74847782  1
  Te2-  Te238  1  0.75007536  0.74863935  0.07896073  1
  Te2-  Te239  1  0.74790351  0.74533648  0.41015707  1
  Te2-  Te240  1  0.74519512  0.74986618  0.74756689  1
