# generated using pymatgen
data_Ti27(Cu53Te54)2
_symmetry_space_group_name_H-M   'P 1'
_cell_length_a   17.86601886
_cell_length_b   17.86726408
_cell_length_c   17.86728449
_cell_angle_alpha   89.99409952
_cell_angle_beta   89.98273625
_cell_angle_gamma   90.01008203
_symmetry_Int_Tables_number   1
_chemical_formula_structural   Ti27(Cu53Te54)2
_chemical_formula_sum   'Ti27 Cu106 Te108'
_cell_volume   5703.53837552
_cell_formula_units_Z   1
loop_
 _symmetry_equiv_pos_site_id
 _symmetry_equiv_pos_as_xyz
  1  'x, y, z'
loop_
 _atom_type_symbol
 _atom_type_oxidation_number
  Ti4+  4.0
  Cu+  1.0
  Te2-  -2.0
loop_
 _atom_site_type_symbol
 _atom_site_label
 _atom_site_symmetry_multiplicity
 _atom_site_fract_x
 _atom_site_fract_y
 _atom_site_fract_z
 _atom_site_occupancy
  Ti4+  Ti0  1  0.16704631  0.16473561  0.16621383  1
  Ti4+  Ti1  1  0.16728619  0.16690662  0.50007048  1
  Ti4+  Ti2  1  0.16549019  0.16578267  0.83381136  1
  Ti4+  Ti3  1  0.16761794  0.49894799  0.16548476  1
  Ti4+  Ti4  1  0.16756383  0.50005508  0.49878355  1
  Ti4+  Ti5  1  0.16612575  0.50341477  0.83293522  1
  Ti4+  Ti6  1  0.16628743  0.83674704  0.16657408  1
  Ti4+  Ti7  1  0.16586801  0.83342540  0.49961788  1
  Ti4+  Ti8  1  0.16693968  0.83455481  0.83301653  1
  Ti4+  Ti9  1  0.49952112  0.16760036  0.16601714  1
  Ti4+  Ti10  1  0.50218824  0.16590607  0.50118921  1
  Ti4+  Ti11  1  0.50124524  0.16513119  0.83111739  1
  Ti4+  Ti12  1  0.50146330  0.50167281  0.16830454  1
  Ti4+  Ti13  1  0.49950509  0.49863041  0.50136542  1
  Ti4+  Ti14  1  0.49948199  0.49797136  0.83927383  1
  Ti4+  Ti15  1  0.49766673  0.83310247  0.16780289  1
  Ti4+  Ti16  1  0.49879182  0.83377769  0.49980461  1
  Ti4+  Ti17  1  0.49673847  0.83072886  0.83147435  1
  Ti4+  Ti18  1  0.83364127  0.16701093  0.16366555  1
  Ti4+  Ti19  1  0.83549242  0.16664370  0.49852346  1
  Ti4+  Ti20  1  0.83094247  0.16428328  0.83520666  1
  Ti4+  Ti21  1  0.83657733  0.49831410  0.16565377  1
  Ti4+  Ti22  1  0.83314457  0.50173325  0.49889315  1
  Ti4+  Ti23  1  0.83188945  0.50029244  0.83382018  1
  Ti4+  Ti24  1  0.83031131  0.83126564  0.16901385  1
  Ti4+  Ti25  1  0.83647549  0.83622705  0.49866092  1
  Ti4+  Ti26  1  0.83172744  0.83280519  0.83488720  1
  Cu+  Cu27  1  0.16206676  0.16220644  0.00080550  1
  Cu+  Cu28  1  0.16897267  0.16666905  0.33258491  1
  Cu+  Cu29  1  0.16481334  0.16448553  0.66529722  1
  Cu+  Cu30  1  0.16460794  0.50393130  0.00114151  1
  Cu+  Cu31  1  0.16861695  0.49864408  0.33023860  1
  Cu+  Cu32  1  0.16582887  0.49952302  0.66383614  1
  Cu+  Cu33  1  0.16733985  0.83907859  -0.00192549  1
  Cu+  Cu34  1  0.16583213  0.83866645  0.33345943  1
  Cu+  Cu35  1  0.16897874  0.83121794  0.66748240  1
  Cu+  Cu36  1  0.49942139  0.16971176  -0.00003527  1
  Cu+  Cu37  1  0.49956759  0.16895365  0.33336979  1
  Cu+  Cu38  1  0.50622121  0.16093819  0.66687293  1
  Cu+  Cu39  1  0.50531474  0.50424337  0.00334574  1
  Cu+  Cu40  1  0.49780615  0.50164957  0.33447768  1
  Cu+  Cu41  1  0.50083350  0.49561746  0.66990966  1
  Cu+  Cu42  1  0.49519732  0.82979615  0.00147384  1
  Cu+  Cu43  1  0.49932082  0.83255743  0.33301385  1
  Cu+  Cu44  1  0.49658038  0.83607649  0.66440257  1
  Cu+  Cu45  1  0.83098908  0.16534509  -0.00287997  1
  Cu+  Cu46  1  0.83557294  0.16965946  0.33024422  1
  Cu+  Cu47  1  0.83548823  0.16822479  0.66642748  1
  Cu+  Cu48  1  0.83351661  0.49928173  -0.00261711  1
  Cu+  Cu49  1  0.83815384  0.49474734  0.33472412  1
  Cu+  Cu50  1  0.82886047  0.50291535  0.66356078  1
  Cu+  Cu51  1  0.82881470  0.83098586  0.00384104  1
  Cu+  Cu52  1  0.83689538  0.83742000  0.33371720  1
  Cu+  Cu53  1  0.83677572  0.83244408  0.66856146  1
  Cu+  Cu54  1  0.17067574  -0.00025665  0.16966982  1
  Cu+  Cu55  1  0.16205096  0.00256809  0.50230080  1
  Cu+  Cu56  1  0.16564974  0.00066433  0.84070669  1
  Cu+  Cu57  1  0.16820822  0.33278248  0.16472894  1
  Cu+  Cu58  1  0.16865439  0.33364980  0.50063228  1
  Cu+  Cu59  1  0.16597147  0.33659015  0.83194833  1
  Cu+  Cu60  1  0.16434069  0.66852623  0.16539122  1
  Cu+  Cu61  1  0.16653944  0.66443622  0.50002816  1
  Cu+  Cu62  1  0.17052102  0.67111888  0.82895371  1
  Cu+  Cu63  1  0.49872075  0.00178204  0.16543806  1
  Cu+  Cu64  1  0.50084032  0.00084778  0.50204017  1
  Cu+  Cu65  1  0.50077722  -0.00087570  0.82473453  1
  Cu+  Cu66  1  0.50164234  0.33594669  0.16774313  1
  Cu+  Cu67  1  0.49762609  0.32884784  0.50112731  1
  Cu+  Cu68  1  0.50565584  0.33324960  0.83147952  1
  Cu+  Cu69  1  0.49943866  0.66769559  0.16673404  1
  Cu+  Cu70  1  0.49760043  0.66767083  0.49922240  1
  Cu+  Cu71  1  0.49296729  0.66253448  0.83998433  1
  Cu+  Cu72  1  0.83151709  -0.00157741  0.16746647  1
  Cu+  Cu73  1  0.82974468  0.00031774  0.49749891  1
  Cu+  Cu74  1  0.82549349  -0.00113849  0.83805246  1
  Cu+  Cu75  1  0.83854722  0.33020005  0.16599587  1
  Cu+  Cu76  1  0.83570598  0.33622974  0.49659114  1
  Cu+  Cu77  1  0.82934165  0.33183502  0.83789788  1
  Cu+  Cu78  1  0.83108594  0.66440557  0.16707338  1
  Cu+  Cu79  1  0.83741702  0.66934113  0.49878076  1
  Cu+  Cu80  1  0.83715330  0.66786417  0.83274717  1
  Cu+  Cu81  1  -0.00056748  0.16833616  0.16515534  1
  Cu+  Cu82  1  0.00334073  0.16346135  0.50356978  1
  Cu+  Cu83  1  0.00043239  0.16405414  0.83795178  1
  Cu+  Cu84  1  0.00622077  0.50128904  0.16120431  1
  Cu+  Cu85  1  0.00026861  0.49816188  0.49821382  1
  Cu+  Cu86  1  -0.00053175  0.50542874  0.83496073  1
  Cu+  Cu87  1  -0.00411383  0.83350388  0.17005926  1
  Cu+  Cu88  1  0.00284602  0.83455962  0.49261336  1
  Cu+  Cu89  1  -0.00488380  0.83091112  0.82991701  1
  Cu+  Cu90  1  0.33379875  0.16607293  0.16531888  1
  Cu+  Cu91  1  0.33606644  0.16904652  0.49921645  1
  Cu+  Cu92  1  0.33283580  0.16923526  0.83171401  1
  Cu+  Cu93  1  0.33292975  0.49947765  0.16673295  1
  Cu+  Cu94  1  0.33407970  0.50218564  0.49788086  1
  Cu+  Cu95  1  0.33276977  0.50357023  0.83388138  1
  Cu+  Cu96  1  0.33097485  0.83756884  0.16887120  1
  Cu+  Cu97  1  0.33233978  0.83242456  0.50165808  1
  Cu+  Cu98  1  0.33350917  0.83269272  0.83211389  1
  Cu+  Cu99  1  0.66491629  0.16690115  0.16561770  1
  Cu+  Cu100  1  0.66963398  0.16760178  0.50018811  1
  Cu+  Cu101  1  0.66533548  0.15757207  0.83201695  1
  Cu+  Cu102  1  0.66846883  0.49811152  0.16717226  1
  Cu+  Cu103  1  0.66707449  0.50082984  0.50288837  1
  Cu+  Cu104  1  0.66505935  0.49341119  0.83916034  1
  Cu+  Cu105  1  0.66297783  0.83137737  0.16645031  1
  Cu+  Cu106  1  0.66650001  0.83654152  0.50059023  1
  Cu+  Cu107  1  0.66663640  0.83061012  0.83387795  1
  Cu+  Cu108  1  0.59789134  0.06593633  0.73493992  1
  Cu+  Cu109  1  0.59456872  0.59549561  0.92845491  1
  Cu+  Cu110  1  0.26407320  0.93021778  0.92531180  1
  Cu+  Cu111  1  0.73278470  0.06863577  0.93121358  1
  Cu+  Cu112  1  0.73912450  0.40368972  0.93158171  1
  Cu+  Cu113  1  0.40343698  0.73763215  0.93256483  1
  Cu+  Cu114  1  0.93103194  0.40534176  0.40941159  1
  Cu+  Cu115  1  0.92654913  0.59673910  0.92563059  1
  Cu+  Cu116  1  0.40354861  0.92982720  0.73719327  1
  Cu+  Cu117  1  0.92945625  0.25908369  0.25928219  1
  Cu+  Cu118  1  0.07168412  0.07089839  0.59691327  1
  Cu+  Cu119  1  0.07828257  0.93257883  0.40550082  1
  Cu+  Cu120  1  0.40784863  0.59704409  0.40399609  1
  Cu+  Cu121  1  0.92484048  0.73761281  0.73671476  1
  Cu+  Cu122  1  0.40680655  0.25757259  0.40337874  1
  Cu+  Cu123  1  0.92766246  0.73890537  0.40274188  1
  Cu+  Cu124  1  0.40962524  0.58438164  0.73928785  1
  Cu+  Cu125  1  0.59466714  0.40695014  0.73889185  1
  Cu+  Cu126  1  0.26243816  0.74270137  0.73721221  1
  Cu+  Cu127  1  0.73555609  0.92560988  0.40564904  1
  Cu+  Cu128  1  0.93010040  0.26097168  0.92108972  1
  Cu+  Cu129  1  0.92360050  0.92988329  0.25658320  1
  Cu+  Cu130  1  0.26441325  0.92777546  0.26587039  1
  Cu+  Cu131  1  0.07013590  0.06978435  0.93326216  1
  Cu+  Cu132  1  0.07762505  0.59910539  0.07363154  1
  Te2-  Te133  1  0.25048479  0.24877856  0.07911545  1
  Te2-  Te134  1  0.25244535  0.25395613  0.41292442  1
  Te2-  Te135  1  0.24868694  0.25185041  0.74712953  1
  Te2-  Te136  1  0.25345612  0.58755821  0.08182534  1
  Te2-  Te137  1  0.25247230  0.58736352  0.41105498  1
  Te2-  Te138  1  0.25332357  0.58694193  0.74216503  1
  Te2-  Te139  1  0.25410779  0.92269175  0.07930951  1
  Te2-  Te140  1  0.25377792  0.92285160  0.41810870  1
  Te2-  Te141  1  0.25101600  0.92363498  0.74633217  1
  Te2-  Te142  1  0.58520107  0.25396467  0.08125968  1
  Te2-  Te143  1  0.58781895  0.25223615  0.41540011  1
  Te2-  Te144  1  0.59059662  0.25081367  0.74631555  1
  Te2-  Te145  1  0.59079258  0.58945771  0.08439258  1
  Te2-  Te146  1  0.58508324  0.58480724  0.41675725  1
  Te2-  Te147  1  0.58579523  0.58498708  0.75356982  1
  Te2-  Te148  1  0.58213578  0.91701329  0.08051586  1
  Te2-  Te149  1  0.58330675  0.92089644  0.41295657  1
  Te2-  Te150  1  0.58898789  0.91353260  0.74534857  1
  Te2-  Te151  1  0.92060902  0.25171223  0.07485918  1
  Te2-  Te152  1  0.92583901  0.25212326  0.41359652  1
  Te2-  Te153  1  0.91805810  0.25158977  0.75222021  1
  Te2-  Te154  1  0.92030231  0.58849759  0.07867038  1
  Te2-  Te155  1  0.92229943  0.58666109  0.41175716  1
  Te2-  Te156  1  0.91852547  0.58436278  0.74342539  1
  Te2-  Te157  1  0.91563146  0.91647823  0.08145127  1
  Te2-  Te158  1  0.92376297  0.92798206  0.41211006  1
  Te2-  Te159  1  0.91499448  0.92300333  0.75142361  1
  Te2-  Te160  1  0.25601086  0.08182323  0.25443070  1
  Te2-  Te161  1  0.25422961  0.08149898  0.58398808  1
  Te2-  Te162  1  0.25642337  0.08381653  0.92103462  1
  Te2-  Te163  1  0.25345595  0.41233940  0.25069618  1
  Te2-  Te164  1  0.25395930  0.41572922  0.58450226  1
  Te2-  Te165  1  0.25028059  0.41858086  0.91834180  1
  Te2-  Te166  1  0.24869834  0.74928659  0.25245520  1
  Te2-  Te167  1  0.25275002  0.74517237  0.58401984  1
  Te2-  Te168  1  0.25182499  0.74735314  0.92231018  1
  Te2-  Te169  1  0.58411262  0.08232128  0.25247271  1
  Te2-  Te170  1  0.59227570  0.07716899  0.58363384  1
  Te2-  Te171  1  0.58071732  0.07621077  0.92158211  1
  Te2-  Te172  1  0.58561794  0.41652284  0.25472322  1
  Te2-  Te173  1  0.58623236  0.41138016  0.58552514  1
  Te2-  Te174  1  0.58475270  0.40837916  0.92781202  1
  Te2-  Te175  1  0.58375825  0.74731596  0.25323292  1
  Te2-  Te176  1  0.58432281  0.74930072  0.58439882  1
  Te2-  Te177  1  0.58468268  0.74749708  0.91969600  1
  Te2-  Te178  1  0.91989161  0.08137190  0.25144845  1
  Te2-  Te179  1  0.91765273  0.07809259  0.58653924  1
  Te2-  Te180  1  0.91760938  0.07533859  0.92117562  1
  Te2-  Te181  1  0.92723221  0.41329050  0.25040892  1
  Te2-  Te182  1  0.91758080  0.41641766  0.58691604  1
  Te2-  Te183  1  0.92191657  0.41404734  0.91823291  1
  Te2-  Te184  1  0.91877733  0.74244648  0.25236692  1
  Te2-  Te185  1  0.92450703  0.74947996  0.58456687  1
  Te2-  Te186  1  0.91911773  0.74953292  0.92485085  1
  Te2-  Te187  1  0.08299227  0.25304639  0.25229114  1
  Te2-  Te188  1  0.08220325  0.25403567  0.58549982  1
  Te2-  Te189  1  0.08307063  0.25568215  0.92038213  1
  Te2-  Te190  1  0.08185351  0.58555607  0.25274335  1
  Te2-  Te191  1  0.07986044  0.58443260  0.58360073  1
  Te2-  Te192  1  0.08157938  0.59453283  0.91869610  1
  Te2-  Te193  1  0.07710764  0.92413746  0.25242778  1
  Te2-  Te194  1  0.07938970  0.91623713  0.58970110  1
  Te2-  Te195  1  0.07373377  0.91617136  0.91832225  1
  Te2-  Te196  1  0.41233817  0.25515724  0.25045230  1
  Te2-  Te197  1  0.41708280  0.24815937  0.59147981  1
  Te2-  Te198  1  0.41684665  0.25341057  0.91483329  1
  Te2-  Te199  1  0.41193071  0.58770820  0.25149461  1
  Te2-  Te200  1  0.41483408  0.58512356  0.58829631  1
  Te2-  Te201  1  0.40847403  0.58291250  0.92855924  1
  Te2-  Te202  1  0.41526401  0.92217984  0.25496465  1
  Te2-  Te203  1  0.41044022  0.92198715  0.58420117  1
  Te2-  Te204  1  0.41587475  0.92192553  0.91810577  1
  Te2-  Te205  1  0.74760877  0.25234858  0.24922999  1
  Te2-  Te206  1  0.75247335  0.25370496  0.58320301  1
  Te2-  Te207  1  0.73935009  0.24939139  0.91987269  1
  Te2-  Te208  1  0.75201876  0.57960653  0.25323553  1
  Te2-  Te209  1  0.74788440  0.59078727  0.58273306  1
  Te2-  Te210  1  0.74666989  0.58922719  0.91877376  1
  Te2-  Te211  1  0.74230706  0.91918444  0.25273221  1
  Te2-  Te212  1  0.75065553  0.91762891  0.58821321  1
  Te2-  Te213  1  0.74215516  0.91493691  0.92372083  1
  Te2-  Te214  1  0.07819552  0.07586799  0.08462656  1
  Te2-  Te215  1  0.07967439  0.08344566  0.40925764  1
  Te2-  Te216  1  0.07918394  0.07811742  0.74902825  1
  Te2-  Te217  1  0.08321290  0.41115783  0.07816508  1
  Te2-  Te218  1  0.08375421  0.41227919  0.41178419  1
  Te2-  Te219  1  0.07964559  0.41870815  0.74889779  1
  Te2-  Te220  1  0.07892262  0.75373185  0.07962698  1
  Te2-  Te221  1  0.08425153  0.74413675  0.41061381  1
  Te2-  Te222  1  0.07931830  0.74757795  0.74582535  1
  Te2-  Te223  1  0.41458464  0.08243118  0.07904277  1
  Te2-  Te224  1  0.41606981  0.08053970  0.41501629  1
  Te2-  Te225  1  0.41028746  0.08264553  0.74458479  1
  Te2-  Te226  1  0.41714525  0.41719609  0.08101305  1
  Te2-  Te227  1  0.41380920  0.41233568  0.41452783  1
  Te2-  Te228  1  0.41250627  0.41264571  0.75225446  1
  Te2-  Te229  1  0.40813515  0.74628791  0.08487891  1
  Te2-  Te230  1  0.41084222  0.74950356  0.41279852  1
  Te2-  Te231  1  0.41367550  0.74176290  0.74231302  1
  Te2-  Te232  1  0.74545206  0.07884343  0.08230321  1
  Te2-  Te233  1  0.74791467  0.08390347  0.41010738  1
  Te2-  Te234  1  0.74991847  0.07809584  0.74229778  1
  Te2-  Te235  1  0.74968585  0.41154719  0.08249644  1
  Te2-  Te236  1  0.74577577  0.41562098  0.41467376  1
  Te2-  Te237  1  0.74805143  0.41311225  0.74558752  1
  Te2-  Te238  1  0.74484000  0.74511401  0.08366857  1
  Te2-  Te239  1  0.74943220  0.75084831  0.41429838  1
  Te2-  Te240  1  0.74780712  0.74654581  0.74777341  1
