# generated using pymatgen
data_Ti27(Cu53Te54)2
_symmetry_space_group_name_H-M   'P 1'
_cell_length_a   17.89201517
_cell_length_b   17.88492306
_cell_length_c   17.89009678
_cell_angle_alpha   90.01141356
_cell_angle_beta   90.00305787
_cell_angle_gamma   90.01263366
_symmetry_Int_Tables_number   1
_chemical_formula_structural   Ti27(Cu53Te54)2
_chemical_formula_sum   'Ti27 Cu106 Te108'
_cell_volume   5724.78266446
_cell_formula_units_Z   1
loop_
 _symmetry_equiv_pos_site_id
 _symmetry_equiv_pos_as_xyz
  1  'x, y, z'
loop_
 _atom_type_symbol
 _atom_type_oxidation_number
  Ti4+  4.0
  Cu+  1.0
  Te2-  -2.0
loop_
 _atom_site_type_symbol
 _atom_site_label
 _atom_site_symmetry_multiplicity
 _atom_site_fract_x
 _atom_site_fract_y
 _atom_site_fract_z
 _atom_site_occupancy
  Ti4+  Ti0  1  0.16751900  0.16695251  0.16496090  1
  Ti4+  Ti1  1  0.16558562  0.16644326  0.49779794  1
  Ti4+  Ti2  1  0.16476492  0.16700278  0.83384995  1
  Ti4+  Ti3  1  0.16757919  0.50022362  0.16230673  1
  Ti4+  Ti4  1  0.16760415  0.50043228  0.49770473  1
  Ti4+  Ti5  1  0.16466806  0.49977102  0.83126085  1
  Ti4+  Ti6  1  0.16811288  0.83050565  0.16732077  1
  Ti4+  Ti7  1  0.16458605  0.83639593  0.50317352  1
  Ti4+  Ti8  1  0.16643846  0.83351511  0.83581492  1
  Ti4+  Ti9  1  0.50298085  0.16993682  0.16494885  1
  Ti4+  Ti10  1  0.49816068  0.16494785  0.50236563  1
  Ti4+  Ti11  1  0.49797416  0.16709479  0.83838678  1
  Ti4+  Ti12  1  0.49971865  0.50052469  0.16975219  1
  Ti4+  Ti13  1  0.50126710  0.50178387  0.50577184  1
  Ti4+  Ti14  1  0.49993523  0.49903718  0.82876182  1
  Ti4+  Ti15  1  0.50188331  0.83413403  0.16410583  1
  Ti4+  Ti16  1  0.50097076  0.83306805  0.49927013  1
  Ti4+  Ti17  1  0.50003305  0.83171720  0.83269257  1
  Ti4+  Ti18  1  0.83378209  0.16711789  0.16432714  1
  Ti4+  Ti19  1  0.83059876  0.16434086  0.50006748  1
  Ti4+  Ti20  1  0.83273212  0.16910151  0.83437118  1
  Ti4+  Ti21  1  0.83415963  0.49920868  0.16857814  1
  Ti4+  Ti22  1  0.83387417  0.49585889  0.49833123  1
  Ti4+  Ti23  1  0.83812487  0.50222377  0.83158574  1
  Ti4+  Ti24  1  0.83257491  0.83228214  0.16775544  1
  Ti4+  Ti25  1  0.83462594  0.83303399  0.49995173  1
  Ti4+  Ti26  1  0.83230879  0.83093613  0.83471470  1
  Cu+  Cu27  1  0.16815390  0.16883862  -0.00136937  1
  Cu+  Cu28  1  0.16872386  0.16605420  0.33134887  1
  Cu+  Cu29  1  0.16250834  0.16400206  0.66404832  1
  Cu+  Cu30  1  0.16503607  0.50129731  -0.00313576  1
  Cu+  Cu31  1  0.16455916  0.49861216  0.32867825  1
  Cu+  Cu32  1  0.16679119  0.49974288  0.66539941  1
  Cu+  Cu33  1  0.16619397  0.82712533  0.00052068  1
  Cu+  Cu34  1  0.16579098  0.83535656  0.34018909  1
  Cu+  Cu35  1  0.16632815  0.83785339  0.66736667  1
  Cu+  Cu36  1  0.50638210  0.17094968  0.00344722  1
  Cu+  Cu37  1  0.50127240  0.16593783  0.33223269  1
  Cu+  Cu38  1  0.49668159  0.16530482  0.67078851  1
  Cu+  Cu39  1  0.50195801  0.49972556  -0.00076211  1
  Cu+  Cu40  1  0.50452293  0.50052961  0.34178489  1
  Cu+  Cu41  1  0.49169206  0.50089347  0.66774945  1
  Cu+  Cu42  1  0.50048031  0.83418136  -0.00223871  1
  Cu+  Cu43  1  0.49921827  0.83611723  0.32761730  1
  Cu+  Cu44  1  0.50477876  0.83058115  0.66624753  1
  Cu+  Cu45  1  0.83303227  0.17378481  -0.00075334  1
  Cu+  Cu46  1  0.83280917  0.16280177  0.33293089  1
  Cu+  Cu47  1  0.82919493  0.16374699  0.66612518  1
  Cu+  Cu48  1  0.83626850  0.50443428  0.00094970  1
  Cu+  Cu49  1  0.82837538  0.49359850  0.33128509  1
  Cu+  Cu50  1  0.84141804  0.49929903  0.66345370  1
  Cu+  Cu51  1  0.82848777  0.83113920  0.00161592  1
  Cu+  Cu52  1  0.83000486  0.83497065  0.33459995  1
  Cu+  Cu53  1  0.83803821  0.83203801  0.66807198  1
  Cu+  Cu54  1  0.16754642  0.00028355  0.16624804  1
  Cu+  Cu55  1  0.16141807  0.00031490  0.49911276  1
  Cu+  Cu56  1  0.16342907  0.00050936  0.83383569  1
  Cu+  Cu57  1  0.16306615  0.33669405  0.16659684  1
  Cu+  Cu58  1  0.16656327  0.33048784  0.49756812  1
  Cu+  Cu59  1  0.16775447  0.33304939  0.83359756  1
  Cu+  Cu60  1  0.17518153  0.66684363  0.15981473  1
  Cu+  Cu61  1  0.16818068  0.67236140  0.50071890  1
  Cu+  Cu62  1  0.16210060  0.66786065  0.83788944  1
  Cu+  Cu63  1  0.50599626  0.00256918  0.16188338  1
  Cu+  Cu64  1  0.50004710  0.00010309  0.50064153  1
  Cu+  Cu65  1  0.49825688  -0.00162022  0.83570896  1
  Cu+  Cu66  1  0.49610434  0.33510039  0.16647794  1
  Cu+  Cu67  1  0.50144148  0.33438502  0.50819617  1
  Cu+  Cu68  1  0.49774595  0.32982035  0.83332877  1
  Cu+  Cu69  1  0.50046140  0.66766129  0.16911895  1
  Cu+  Cu70  1  0.49895521  0.66518109  0.50005536  1
  Cu+  Cu71  1  0.50275455  0.66588127  0.82431637  1
  Cu+  Cu72  1  0.83461562  -0.00160178  0.16592262  1
  Cu+  Cu73  1  0.82954748  -0.00121732  0.49840225  1
  Cu+  Cu74  1  0.83079410  -0.00035336  0.83530933  1
  Cu+  Cu75  1  0.83036304  0.33444198  0.16605118  1
  Cu+  Cu76  1  0.83211445  0.32676587  0.50018345  1
  Cu+  Cu77  1  0.84278027  0.33551896  0.83363100  1
  Cu+  Cu78  1  0.83575726  0.66519998  0.16914738  1
  Cu+  Cu79  1  0.83657402  0.66158953  0.50191608  1
  Cu+  Cu80  1  0.83356932  0.67177819  0.83226086  1
  Cu+  Cu81  1  0.00134502  0.16541121  0.16407397  1
  Cu+  Cu82  1  -0.00333024  0.16386461  0.50044800  1
  Cu+  Cu83  1  -0.00249177  0.16960107  0.83629580  1
  Cu+  Cu84  1  0.00351172  0.49637108  0.16812052  1
  Cu+  Cu85  1  -0.00067777  0.50210515  0.49822183  1
  Cu+  Cu86  1  -0.00081395  0.49654205  0.82526079  1
  Cu+  Cu87  1  -0.00352847  0.83295095  0.16913677  1
  Cu+  Cu88  1  0.00319833  0.83830620  0.49935217  1
  Cu+  Cu89  1  0.00177429  0.83040840  0.83853747  1
  Cu+  Cu90  1  0.33572163  0.16872256  0.16484874  1
  Cu+  Cu91  1  0.33035266  0.16400506  0.49738373  1
  Cu+  Cu92  1  0.32894012  0.17067830  0.83697026  1
  Cu+  Cu93  1  0.32855465  0.50569266  0.16842524  1
  Cu+  Cu94  1  0.33762164  0.50241292  0.50428325  1
  Cu+  Cu95  1  0.33261643  0.50198110  0.82925677  1
  Cu+  Cu96  1  0.33744854  0.82981795  0.16479231  1
  Cu+  Cu97  1  0.33153607  0.83401333  0.50305092  1
  Cu+  Cu98  1  0.33270152  0.83421634  0.83295369  1
  Cu+  Cu99  1  0.66942223  0.16796264  0.15745951  1
  Cu+  Cu100  1  0.66471022  0.16412925  0.50364510  1
  Cu+  Cu101  1  0.66474861  0.16733776  0.84023588  1
  Cu+  Cu102  1  0.66722806  0.49745048  0.17137263  1
  Cu+  Cu103  1  0.66470400  0.49388988  0.50052668  1
  Cu+  Cu104  1  0.67205916  0.50054147  0.83098687  1
  Cu+  Cu105  1  0.66673384  0.83387065  0.16632081  1
  Cu+  Cu106  1  0.67054971  0.83516947  0.49729033  1
  Cu+  Cu107  1  0.66436852  0.82739588  0.83218839  1
  Cu+  Cu108  1  0.25780951  0.74747485  0.41478092  1
  Cu+  Cu109  1  0.92719717  0.40110873  0.73284238  1
  Cu+  Cu110  1  0.59593253  0.73660181  0.73357646  1
  Cu+  Cu111  1  0.92981519  0.26296688  0.92984972  1
  Cu+  Cu112  1  0.26694014  0.74261845  0.06736498  1
  Cu+  Cu113  1  0.93344926  0.74969310  0.73945493  1
  Cu+  Cu114  1  0.59933377  0.06957477  0.07288788  1
  Cu+  Cu115  1  0.40119212  0.24941238  0.73905220  1
  Cu+  Cu116  1  0.07076220  0.73673014  0.93251872  1
  Cu+  Cu117  1  0.41220518  0.74371531  0.25782138  1
  Cu+  Cu118  1  0.59297273  0.26555707  0.92327128  1
  Cu+  Cu119  1  0.73380777  0.74227844  0.93212820  1
  Cu+  Cu120  1  0.73713051  0.40166245  0.25893914  1
  Cu+  Cu121  1  0.74437795  0.26714190  0.07091002  1
  Cu+  Cu122  1  0.40394574  0.26444442  0.08040861  1
  Cu+  Cu123  1  0.07437466  0.40459560  0.25984464  1
  Cu+  Cu124  1  0.58820529  0.40143631  0.41442853  1
  Cu+  Cu125  1  0.41150075  0.58858244  0.41009220  1
  Cu+  Cu126  1  0.40350033  0.40445903  0.59160547  1
  Cu+  Cu127  1  0.24845200  0.59276048  0.26016179  1
  Cu+  Cu128  1  0.93041507  0.59232082  0.58941257  1
  Cu+  Cu129  1  0.25637277  0.26395003  0.92706142  1
  Cu+  Cu130  1  0.07314683  0.93076026  0.40445669  1
  Cu+  Cu131  1  0.73749464  0.92799854  0.40437804  1
  Cu+  Cu132  1  0.39945426  0.59907415  0.74536467  1
  Te2-  Te133  1  0.25181652  0.25858564  0.08085671  1
  Te2-  Te134  1  0.25253218  0.25165219  0.41235809  1
  Te2-  Te135  1  0.24821218  0.25214508  0.74279510  1
  Te2-  Te136  1  0.25621755  0.58552803  0.07161767  1
  Te2-  Te137  1  0.25504918  0.58836763  0.41308487  1
  Te2-  Te138  1  0.24747231  0.58920927  0.74651262  1
  Te2-  Te139  1  0.25169067  0.91544975  0.08193542  1
  Te2-  Te140  1  0.25372026  0.92218147  0.41734829  1
  Te2-  Te141  1  0.25084762  0.92038867  0.75019002  1
  Te2-  Te142  1  0.59059885  0.26465417  0.07929640  1
  Te2-  Te143  1  0.58501832  0.25041876  0.41678716  1
  Te2-  Te144  1  0.58575053  0.24950615  0.74983375  1
  Te2-  Te145  1  0.58534797  0.58329702  0.08507143  1
  Te2-  Te146  1  0.59012084  0.58785979  0.41871391  1
  Te2-  Te147  1  0.59047868  0.58154693  0.74220685  1
  Te2-  Te148  1  0.58982331  0.91716686  0.07625289  1
  Te2-  Te149  1  0.58386455  0.91983345  0.41233323  1
  Te2-  Te150  1  0.58545303  0.91972566  0.74940225  1
  Te2-  Te151  1  0.92272781  0.25638754  0.08249664  1
  Te2-  Te152  1  0.91708147  0.24849798  0.41345061  1
  Te2-  Te153  1  0.91964187  0.24920387  0.74246807  1
  Te2-  Te154  1  0.92180400  0.58467178  0.08526710  1
  Te2-  Te155  1  0.91621743  0.58123570  0.40914561  1
  Te2-  Te156  1  0.92371279  0.59216505  0.74470867  1
  Te2-  Te157  1  0.91740458  0.91602530  0.08016106  1
  Te2-  Te158  1  0.91907286  0.92080875  0.41289280  1
  Te2-  Te159  1  0.92022385  0.91881493  0.75279180  1
  Te2-  Te160  1  0.25428406  0.08229842  0.24891496  1
  Te2-  Te161  1  0.24935688  0.07987007  0.58382317  1
  Te2-  Te162  1  0.25038008  0.07967413  0.91894215  1
  Te2-  Te163  1  0.25353636  0.41337392  0.25074580  1
  Te2-  Te164  1  0.25069895  0.41341325  0.58416877  1
  Te2-  Te165  1  0.25365303  0.41774928  0.91781096  1
  Te2-  Te166  1  0.25649443  0.74608529  0.25911963  1
  Te2-  Te167  1  0.25177659  0.74998520  0.59023789  1
  Te2-  Te168  1  0.25647585  0.74457881  0.91698889  1
  Te2-  Te169  1  0.58927796  0.08451992  0.24948523  1
  Te2-  Te170  1  0.58226520  0.08057537  0.58928994  1
  Te2-  Te171  1  0.58551407  0.07737984  0.92074049  1
  Te2-  Te172  1  0.58342872  0.41084919  0.25591636  1
  Te2-  Te173  1  0.58621295  0.41544000  0.59423828  1
  Te2-  Te174  1  0.58759230  0.41710563  0.91630631  1
  Te2-  Te175  1  0.58741851  0.74869091  0.25225738  1
  Te2-  Te176  1  0.58929973  0.74624900  0.58091886  1
  Te2-  Te177  1  0.58255928  0.74221545  0.92085962  1
  Te2-  Te178  1  0.91871181  0.08148510  0.24905911  1
  Te2-  Te179  1  0.91525503  0.07863438  0.58557595  1
  Te2-  Te180  1  0.91630631  0.08181783  0.92020493  1
  Te2-  Te181  1  0.92035915  0.41050864  0.25378673  1
  Te2-  Te182  1  0.92285222  0.40775533  0.58048893  1
  Te2-  Te183  1  0.92326597  0.41863590  0.92282463  1
  Te2-  Te184  1  0.91679478  0.74860012  0.25553701  1
  Te2-  Te185  1  0.92530446  0.74711741  0.58446413  1
  Te2-  Te186  1  0.91842563  0.74546116  0.92488995  1
  Te2-  Te187  1  0.08006027  0.25095318  0.25220335  1
  Te2-  Te188  1  0.07918155  0.25114464  0.58298798  1
  Te2-  Te189  1  0.08028741  0.25589131  0.92099154  1
  Te2-  Te190  1  0.08366049  0.59005235  0.24779713  1
  Te2-  Te191  1  0.08379794  0.58716282  0.58400822  1
  Te2-  Te192  1  0.07564360  0.58275223  0.91770933  1
  Te2-  Te193  1  0.08200994  0.91807822  0.25097307  1
  Te2-  Te194  1  0.07876647  0.92227409  0.59003965  1
  Te2-  Te195  1  0.08188650  0.91902856  0.92254451  1
  Te2-  Te196  1  0.41554548  0.25234197  0.25355578  1
  Te2-  Te197  1  0.40840512  0.25069638  0.58676528  1
  Te2-  Te198  1  0.41061742  0.25717670  0.92637850  1
  Te2-  Te199  1  0.41256803  0.58746670  0.25713218  1
  Te2-  Te200  1  0.41106353  0.59344259  0.59027546  1
  Te2-  Te201  1  0.41765062  0.58537342  0.91524041  1
  Te2-  Te202  1  0.41614025  0.92375301  0.24612803  1
  Te2-  Te203  1  0.41718373  0.91654000  0.58586284  1
  Te2-  Te204  1  0.41340640  0.91705277  0.91897179  1
  Te2-  Te205  1  0.74582526  0.24908808  0.25344001  1
  Te2-  Te206  1  0.74543785  0.25043087  0.58678539  1
  Te2-  Te207  1  0.74639294  0.26154277  0.91808555  1
  Te2-  Te208  1  0.74783832  0.58605628  0.25354724  1
  Te2-  Te209  1  0.74795512  0.57998436  0.58458604  1
  Te2-  Te210  1  0.74973323  0.58664415  0.91819725  1
  Te2-  Te211  1  0.74551674  0.92114897  0.25093342  1
  Te2-  Te212  1  0.75014654  0.91649764  0.58890405  1
  Te2-  Te213  1  0.74447929  0.91662257  0.91799748  1
  Te2-  Te214  1  0.08344554  0.08138044  0.07911439  1
  Te2-  Te215  1  0.07809978  0.08282464  0.41030518  1
  Te2-  Te216  1  0.07771178  0.08261062  0.75007984  1
  Te2-  Te217  1  0.08099652  0.41477684  0.07620775  1
  Te2-  Te218  1  0.08083279  0.41421467  0.41415787  1
  Te2-  Te219  1  0.08269948  0.41061653  0.74332518  1
  Te2-  Te220  1  0.07745720  0.74525021  0.08556786  1
  Te2-  Te221  1  0.07850322  0.74716906  0.41571892  1
  Te2-  Te222  1  0.08353364  0.74793779  0.74506389  1
  Te2-  Te223  1  0.41697498  0.08337665  0.07970815  1
  Te2-  Te224  1  0.41576238  0.08087242  0.41380342  1
  Te2-  Te225  1  0.41111783  0.08114686  0.75391749  1
  Te2-  Te226  1  0.41155604  0.41989124  0.08119203  1
  Te2-  Te227  1  0.41509554  0.41327752  0.41808979  1
  Te2-  Te228  1  0.40869461  0.40828358  0.74710024  1
  Te2-  Te229  1  0.41826540  0.74403104  0.07630213  1
  Te2-  Te230  1  0.41224467  0.74673399  0.41197636  1
  Te2-  Te231  1  0.41083482  0.75004247  0.74420167  1
  Te2-  Te232  1  0.75203468  0.07775277  0.07563770  1
  Te2-  Te233  1  0.74265956  0.08059411  0.41268060  1
  Te2-  Te234  1  0.74525822  0.08263576  0.75256637  1
  Te2-  Te235  1  0.74664245  0.41890066  0.07708578  1
  Te2-  Te236  1  0.74510946  0.40619299  0.41456892  1
  Te2-  Te237  1  0.75427955  0.41502064  0.74683194  1
  Te2-  Te238  1  0.74558981  0.74301353  0.08491211  1
  Te2-  Te239  1  0.75096449  0.74373165  0.41668426  1
  Te2-  Te240  1  0.74722400  0.74594569  0.74224459  1
