# generated using pymatgen
data_Ti27(Cu53Te54)2
_symmetry_space_group_name_H-M   'P 1'
_cell_length_a   17.90082017
_cell_length_b   17.89663839
_cell_length_c   17.90550880
_cell_angle_alpha   89.96945594
_cell_angle_beta   90.02757705
_cell_angle_gamma   90.06132215
_symmetry_Int_Tables_number   1
_chemical_formula_structural   Ti27(Cu53Te54)2
_chemical_formula_sum   'Ti27 Cu106 Te108'
_cell_volume   5736.28470778
_cell_formula_units_Z   1
loop_
 _symmetry_equiv_pos_site_id
 _symmetry_equiv_pos_as_xyz
  1  'x, y, z'
loop_
 _atom_type_symbol
 _atom_type_oxidation_number
  Ti4+  4.0
  Cu+  1.0
  Te2-  -2.0
loop_
 _atom_site_type_symbol
 _atom_site_label
 _atom_site_symmetry_multiplicity
 _atom_site_fract_x
 _atom_site_fract_y
 _atom_site_fract_z
 _atom_site_occupancy
  Ti4+  Ti0  1  0.16496225  0.16580189  0.16658975  1
  Ti4+  Ti1  1  0.16692338  0.16607743  0.49905195  1
  Ti4+  Ti2  1  0.16515727  0.16533224  0.82914371  1
  Ti4+  Ti3  1  0.16860697  0.50283937  0.16819889  1
  Ti4+  Ti4  1  0.16784431  0.50460074  0.50435572  1
  Ti4+  Ti5  1  0.16835945  0.49985609  0.83773533  1
  Ti4+  Ti6  1  0.16602480  0.83396642  0.16799856  1
  Ti4+  Ti7  1  0.16538059  0.83210385  0.50004678  1
  Ti4+  Ti8  1  0.16589739  0.83624010  0.83281949  1
  Ti4+  Ti9  1  0.50012347  0.16783586  0.16809082  1
  Ti4+  Ti10  1  0.50342436  0.16542756  0.49968748  1
  Ti4+  Ti11  1  0.50278238  0.16983938  0.83318221  1
  Ti4+  Ti12  1  0.49989098  0.50372900  0.17109805  1
  Ti4+  Ti13  1  0.49968674  0.49451138  0.49766435  1
  Ti4+  Ti14  1  0.50298328  0.49810145  0.83362509  1
  Ti4+  Ti15  1  0.49851909  0.83408671  0.16580022  1
  Ti4+  Ti16  1  0.49853971  0.83137039  0.50378313  1
  Ti4+  Ti17  1  0.49861395  0.83464028  0.83466651  1
  Ti4+  Ti18  1  0.83307287  0.17179010  0.16687748  1
  Ti4+  Ti19  1  0.83448216  0.16535987  0.49742795  1
  Ti4+  Ti20  1  0.83470949  0.16472983  0.83646796  1
  Ti4+  Ti21  1  0.83279031  0.49789046  0.16553038  1
  Ti4+  Ti22  1  0.83466092  0.49884999  0.49778434  1
  Ti4+  Ti23  1  0.83623233  0.49963669  0.83260271  1
  Ti4+  Ti24  1  0.83090841  0.83271302  0.16547105  1
  Ti4+  Ti25  1  0.82850910  0.83018019  0.49655479  1
  Ti4+  Ti26  1  0.83328343  0.83485826  0.83077889  1
  Cu+  Cu27  1  0.16348365  0.16408682  -0.00415805  1
  Cu+  Cu28  1  0.16544341  0.16405279  0.33306703  1
  Cu+  Cu29  1  0.16740879  0.16960938  0.66182488  1
  Cu+  Cu30  1  0.16908952  0.50021675  -0.00029403  1
  Cu+  Cu31  1  0.17070074  0.50991200  0.33516528  1
  Cu+  Cu32  1  0.16743306  0.50194539  0.67614735  1
  Cu+  Cu33  1  0.16639520  0.83299307  0.00336363  1
  Cu+  Cu34  1  0.16469001  0.83350320  0.33434486  1
  Cu+  Cu35  1  0.16688931  0.83859421  0.66469693  1
  Cu+  Cu36  1  0.49881583  0.16991645  -0.00162616  1
  Cu+  Cu37  1  0.50390448  0.17117687  0.33320723  1
  Cu+  Cu38  1  0.50583357  0.16845235  0.66584531  1
  Cu+  Cu39  1  0.50087236  0.50305325  0.00562798  1
  Cu+  Cu40  1  0.49040697  0.49246499  0.33085311  1
  Cu+  Cu41  1  0.50472884  0.49686643  0.66537014  1
  Cu+  Cu42  1  0.49859756  0.83477307  -0.00157846  1
  Cu+  Cu43  1  0.49640701  0.83194270  0.33367079  1
  Cu+  Cu44  1  0.50058855  0.83032143  0.67180652  1
  Cu+  Cu45  1  0.83708329  0.16448077  0.00601093  1
  Cu+  Cu46  1  0.83086524  0.16940859  0.32979518  1
  Cu+  Cu47  1  0.83511809  0.16585167  0.66788160  1
  Cu+  Cu48  1  0.83297688  0.49369754  -0.00249535  1
  Cu+  Cu49  1  0.82914525  0.50140642  0.33252235  1
  Cu+  Cu50  1  0.84020690  0.49988469  0.66220161  1
  Cu+  Cu51  1  0.83248305  0.83560025  -0.00315725  1
  Cu+  Cu52  1  0.83017338  0.83010124  0.33042152  1
  Cu+  Cu53  1  0.82803067  0.83242364  0.66232526  1
  Cu+  Cu54  1  0.16435396  -0.00258519  0.16786520  1
  Cu+  Cu55  1  0.16991893  -0.00155901  0.50313648  1
  Cu+  Cu56  1  0.15924201  0.00011271  0.83022044  1
  Cu+  Cu57  1  0.16661616  0.32961168  0.16627177  1
  Cu+  Cu58  1  0.16867649  0.33564595  0.50283287  1
  Cu+  Cu59  1  0.17072982  0.33353232  0.83347508  1
  Cu+  Cu60  1  0.17091938  0.66821882  0.17090774  1
  Cu+  Cu61  1  0.16107274  0.66745532  0.49952139  1
  Cu+  Cu62  1  0.16606582  0.66798191  0.83633245  1
  Cu+  Cu63  1  0.49943411  -0.00107515  0.16563504  1
  Cu+  Cu64  1  0.49890659  -0.00041652  0.50224491  1
  Cu+  Cu65  1  0.49975552  0.00239497  0.83484655  1
  Cu+  Cu66  1  0.50436052  0.33301668  0.17378071  1
  Cu+  Cu67  1  0.50130296  0.32491872  0.49938256  1
  Cu+  Cu68  1  0.50443299  0.33475461  0.83034642  1
  Cu+  Cu69  1  0.49471155  0.66854595  0.16573240  1
  Cu+  Cu70  1  0.50093162  0.66573184  0.49779839  1
  Cu+  Cu71  1  0.50265089  0.66851831  0.83316956  1
  Cu+  Cu72  1  0.82800554  0.00032108  0.16685716  1
  Cu+  Cu73  1  0.83009075  -0.00405153  0.49731303  1
  Cu+  Cu74  1  0.83636424  0.00112031  0.83045713  1
  Cu+  Cu75  1  0.84179121  0.33726458  0.16515757  1
  Cu+  Cu76  1  0.83688038  0.33347587  0.49727113  1
  Cu+  Cu77  1  0.83245814  0.33253611  0.83795064  1
  Cu+  Cu78  1  0.83085930  0.66626538  0.16277367  1
  Cu+  Cu79  1  0.82896195  0.66172981  0.49753958  1
  Cu+  Cu80  1  0.83511810  0.66837506  0.83409417  1
  Cu+  Cu81  1  -0.00258448  0.17141557  0.16654176  1
  Cu+  Cu82  1  0.00248819  0.16312052  0.49841477  1
  Cu+  Cu83  1  -0.00005135  0.15931861  0.83406211  1
  Cu+  Cu84  1  -0.00102255  0.49805165  0.16524610  1
  Cu+  Cu85  1  0.00016064  0.50839250  0.50182346  1
  Cu+  Cu86  1  0.00539761  0.50421471  0.83335997  1
  Cu+  Cu87  1  -0.00014135  0.83208802  0.16766014  1
  Cu+  Cu88  1  -0.00485836  0.82971559  0.49707038  1
  Cu+  Cu89  1  0.00025160  0.83917016  0.82905520  1
  Cu+  Cu90  1  0.32900678  0.16438160  0.16376917  1
  Cu+  Cu91  1  0.33658229  0.16514271  0.49770478  1
  Cu+  Cu92  1  0.33601401  0.16832869  0.83241239  1
  Cu+  Cu93  1  0.33466496  0.51029344  0.17203803  1
  Cu+  Cu94  1  0.33177394  0.49402104  0.49966630  1
  Cu+  Cu95  1  0.33283688  0.49652495  0.83564564  1
  Cu+  Cu96  1  0.33322870  0.83454611  0.16649355  1
  Cu+  Cu97  1  0.33103801  0.83441209  0.50624203  1
  Cu+  Cu98  1  0.33399718  0.83552404  0.83453207  1
  Cu+  Cu99  1  0.66651239  0.17145056  0.17484148  1
  Cu+  Cu100  1  0.66991704  0.16578097  0.50117918  1
  Cu+  Cu101  1  0.66870387  0.16735878  0.83695000  1
  Cu+  Cu102  1  0.66288112  0.49672921  0.16368122  1
  Cu+  Cu103  1  0.66948033  0.49851101  0.49548753  1
  Cu+  Cu104  1  0.67150735  0.49497273  0.83351980  1
  Cu+  Cu105  1  0.66510515  0.83286102  0.16372869  1
  Cu+  Cu106  1  0.66190922  0.82609729  0.49876380  1
  Cu+  Cu107  1  0.66564027  0.83399731  0.83182987  1
  Cu+  Cu108  1  0.40480710  0.24879445  0.40426995  1
  Cu+  Cu109  1  0.40749136  0.59666833  0.07071401  1
  Cu+  Cu110  1  0.07138246  0.59392035  0.40418219  1
  Cu+  Cu111  1  0.40008733  0.40273801  0.24329795  1
  Cu+  Cu112  1  0.07588874  0.07050035  0.92848277  1
  Cu+  Cu113  1  0.24652290  0.40654755  0.40519147  1
  Cu+  Cu114  1  0.26336321  0.92898855  0.59449896  1
  Cu+  Cu115  1  0.59544102  0.74146818  0.74419420  1
  Cu+  Cu116  1  0.07740523  0.59707338  0.74813119  1
  Cu+  Cu117  1  0.93357935  0.41228957  0.06772409  1
  Cu+  Cu118  1  0.58576507  0.74265711  0.40146182  1
  Cu+  Cu119  1  0.58260894  0.40487511  0.07664505  1
  Cu+  Cu120  1  0.74094332  0.40246394  0.92681062  1
  Cu+  Cu121  1  0.07235195  0.92663985  0.73296677  1
  Cu+  Cu122  1  0.60074977  0.40950372  0.73641593  1
  Cu+  Cu123  1  0.26160974  0.40460219  0.74475378  1
  Cu+  Cu124  1  0.59686347  0.26380950  0.26289519  1
  Cu+  Cu125  1  0.92234111  0.59758675  0.59238825  1
  Cu+  Cu126  1  0.92979733  0.26240329  0.26270419  1
  Cu+  Cu127  1  0.92573492  0.06907183  0.08755011  1
  Cu+  Cu128  1  0.26296749  0.60310176  0.26671152  1
  Cu+  Cu129  1  0.92362751  0.07560326  0.73432768  1
  Cu+  Cu130  1  0.60086090  0.25233286  0.59555067  1
  Cu+  Cu131  1  0.73963947  0.07098742  0.25888356  1
  Cu+  Cu132  1  0.73596342  0.58820635  0.40105669  1
  Te2-  Te133  1  0.24868958  0.24909873  0.07795132  1
  Te2-  Te134  1  0.25219142  0.25291241  0.41099144  1
  Te2-  Te135  1  0.25430831  0.25133159  0.74516595  1
  Te2-  Te136  1  0.25294830  0.58862371  0.07951743  1
  Te2-  Te137  1  0.25826246  0.59218885  0.42035557  1
  Te2-  Te138  1  0.25565578  0.58851650  0.75307302  1
  Te2-  Te139  1  0.25132195  0.91955501  0.08236877  1
  Te2-  Te140  1  0.25215196  0.91695053  0.41535794  1
  Te2-  Te141  1  0.25432162  0.92238528  0.74851997  1
  Te2-  Te142  1  0.58666457  0.25229907  0.08053936  1
  Te2-  Te143  1  0.59340718  0.25342906  0.41352068  1
  Te2-  Te144  1  0.59443995  0.25522655  0.74715102  1
  Te2-  Te145  1  0.58606375  0.59028163  0.08388390  1
  Te2-  Te146  1  0.58276500  0.58210195  0.40932257  1
  Te2-  Te147  1  0.58931152  0.58401520  0.74809850  1
  Te2-  Te148  1  0.58412674  0.91866841  0.08011407  1
  Te2-  Te149  1  0.58231910  0.91719497  0.41659590  1
  Te2-  Te150  1  0.58410260  0.92149667  0.74888311  1
  Te2-  Te151  1  0.92270653  0.25746263  0.07656356  1
  Te2-  Te152  1  0.92213798  0.25106706  0.41413867  1
  Te2-  Te153  1  0.91928569  0.25132105  0.75197884  1
  Te2-  Te154  1  0.91684879  0.58325700  0.07922944  1
  Te2-  Te155  1  0.91897375  0.58796518  0.40896286  1
  Te2-  Te156  1  0.92175139  0.58934478  0.74695138  1
  Te2-  Te157  1  0.91827615  0.91789518  0.08134583  1
  Te2-  Te158  1  0.91473389  0.91501847  0.41183728  1
  Te2-  Te159  1  0.91765658  0.92059722  0.73928632  1
  Te2-  Te160  1  0.24984211  0.07992101  0.25112192  1
  Te2-  Te161  1  0.25592457  0.08294170  0.58576113  1
  Te2-  Te162  1  0.25140810  0.08064418  0.91360727  1
  Te2-  Te163  1  0.25121639  0.41151833  0.25360187  1
  Te2-  Te164  1  0.25157281  0.41589174  0.59191463  1
  Te2-  Te165  1  0.25438085  0.41193484  0.92335831  1
  Te2-  Te166  1  0.25517747  0.75152458  0.25634281  1
  Te2-  Te167  1  0.24840312  0.74581672  0.58714384  1
  Te2-  Te168  1  0.25082654  0.75112071  0.91857920  1
  Te2-  Te169  1  0.58411610  0.07870076  0.25387023  1
  Te2-  Te170  1  0.58876341  0.07877579  0.58549029  1
  Te2-  Te171  1  0.58523686  0.08318264  0.91989438  1
  Te2-  Te172  1  0.58964023  0.41625594  0.25932892  1
  Te2-  Te173  1  0.59020730  0.41055250  0.58219252  1
  Te2-  Te174  1  0.58721398  0.41187025  0.92402234  1
  Te2-  Te175  1  0.58485161  0.74663829  0.24993540  1
  Te2-  Te176  1  0.58448781  0.74277080  0.58989271  1
  Te2-  Te177  1  0.58614092  0.74920119  0.92030941  1
  Te2-  Te178  1  0.91813341  0.08146024  0.25157393  1
  Te2-  Te179  1  0.91815991  0.07751701  0.58137777  1
  Te2-  Te180  1  0.91989599  0.07574507  0.92499399  1
  Te2-  Te181  1  0.92094339  0.41755984  0.25783478  1
  Te2-  Te182  1  0.92385716  0.41307247  0.58166822  1
  Te2-  Te183  1  0.92594992  0.41360116  0.91540692  1
  Te2-  Te184  1  0.91596748  0.74592096  0.24948309  1
  Te2-  Te185  1  0.91523836  0.74660291  0.58443492  1
  Te2-  Te186  1  0.92043468  0.75214361  0.91615600  1
  Te2-  Te187  1  0.08135204  0.25296286  0.25474523  1
  Te2-  Te188  1  0.08093979  0.25292175  0.58212772  1
  Te2-  Te189  1  0.08108365  0.25173652  0.91418242  1
  Te2-  Te190  1  0.07817406  0.58775699  0.25016508  1
  Te2-  Te191  1  0.08053219  0.59019075  0.59346539  1
  Te2-  Te192  1  0.08200700  0.58749242  0.92371430  1
  Te2-  Te193  1  0.07908454  0.91788441  0.25356928  1
  Te2-  Te194  1  0.07476528  0.91920488  0.58125320  1
  Te2-  Te195  1  0.07892097  0.91824691  0.92298936  1
  Te2-  Te196  1  0.40718309  0.25129184  0.25214379  1
  Te2-  Te197  1  0.41439765  0.24988128  0.58712269  1
  Te2-  Te198  1  0.41591777  0.25580146  0.91633746  1
  Te2-  Te199  1  0.41480567  0.59322937  0.26108262  1
  Te2-  Te200  1  0.41784796  0.57982039  0.58294018  1
  Te2-  Te201  1  0.41639135  0.58482085  0.91745115  1
  Te2-  Te202  1  0.41432227  0.91893220  0.25224797  1
  Te2-  Te203  1  0.41588380  0.91951255  0.59103805  1
  Te2-  Te204  1  0.41367186  0.92188366  0.91935509  1
  Te2-  Te205  1  0.74943958  0.26297577  0.25340176  1
  Te2-  Te206  1  0.75339966  0.25311079  0.58595599  1
  Te2-  Te207  1  0.74878187  0.25021580  0.92496980  1
  Te2-  Te208  1  0.74428572  0.58534151  0.24731646  1
  Te2-  Te209  1  0.74618432  0.58186348  0.58691867  1
  Te2-  Te210  1  0.75080845  0.58468180  0.91737568  1
  Te2-  Te211  1  0.74360894  0.91727432  0.25247842  1
  Te2-  Te212  1  0.74272700  0.91553775  0.58107036  1
  Te2-  Te213  1  0.74844802  0.92032839  0.91462202  1
  Te2-  Te214  1  0.07797262  0.07792786  0.08169663  1
  Te2-  Te215  1  0.08408701  0.07752007  0.41536010  1
  Te2-  Te216  1  0.07861947  0.08064467  0.73721173  1
  Te2-  Te217  1  0.08522959  0.41455006  0.08143241  1
  Te2-  Te218  1  0.08331003  0.42028884  0.41672668  1
  Te2-  Te219  1  0.08108813  0.41239857  0.75085857  1
  Te2-  Te220  1  0.08226496  0.74614695  0.08393396  1
  Te2-  Te221  1  0.07748481  0.74696466  0.41180049  1
  Te2-  Te222  1  0.08090940  0.74992340  0.74598552  1
  Te2-  Te223  1  0.41613607  0.08345270  0.08129001  1
  Te2-  Te224  1  0.41799612  0.08008602  0.41196937  1
  Te2-  Te225  1  0.41875151  0.08478522  0.74710950  1
  Te2-  Te226  1  0.41352027  0.41489700  0.08623777  1
  Te2-  Te227  1  0.40992064  0.40597791  0.41318955  1
  Te2-  Te228  1  0.41543183  0.41380683  0.74660835  1
  Te2-  Te229  1  0.41108435  0.74979009  0.07821589  1
  Te2-  Te230  1  0.41044667  0.74846389  0.41845710  1
  Te2-  Te231  1  0.41160228  0.74669626  0.75038115  1
  Te2-  Te232  1  0.74280473  0.08595264  0.08386703  1
  Te2-  Te233  1  0.74701390  0.08048354  0.41256381  1
  Te2-  Te234  1  0.74722105  0.08249952  0.74966284  1
  Te2-  Te235  1  0.74438187  0.40918700  0.08090890  1
  Te2-  Te236  1  0.74907428  0.41070395  0.41232151  1
  Te2-  Te237  1  0.75443366  0.41212055  0.74279257  1
  Te2-  Te238  1  0.74709135  0.74899362  0.07737112  1
  Te2-  Te239  1  0.74260148  0.74239357  0.40882066  1
  Te2-  Te240  1  0.74799250  0.74585429  0.74670260  1
