# generated using pymatgen
data_Ti27(Cu53Te54)2
_symmetry_space_group_name_H-M   'P 1'
_cell_length_a   17.87191083
_cell_length_b   17.87665402
_cell_length_c   17.87619451
_cell_angle_alpha   90.01222142
_cell_angle_beta   89.97291995
_cell_angle_gamma   89.99433686
_symmetry_Int_Tables_number   1
_chemical_formula_structural   Ti27(Cu53Te54)2
_chemical_formula_sum   'Ti27 Cu106 Te108'
_cell_volume   5711.26399113
_cell_formula_units_Z   1
loop_
 _symmetry_equiv_pos_site_id
 _symmetry_equiv_pos_as_xyz
  1  'x, y, z'
loop_
 _atom_type_symbol
 _atom_type_oxidation_number
  Ti4+  4.0
  Cu+  1.0
  Te2-  -2.0
loop_
 _atom_site_type_symbol
 _atom_site_label
 _atom_site_symmetry_multiplicity
 _atom_site_fract_x
 _atom_site_fract_y
 _atom_site_fract_z
 _atom_site_occupancy
  Ti4+  Ti0  1  0.16309287  0.16511151  0.16438416  1
  Ti4+  Ti1  1  0.16858969  0.16159563  0.50125036  1
  Ti4+  Ti2  1  0.16541791  0.16637355  0.83260773  1
  Ti4+  Ti3  1  0.16296409  0.50293556  0.16877992  1
  Ti4+  Ti4  1  0.17034011  0.49801896  0.49997384  1
  Ti4+  Ti5  1  0.16818639  0.50085132  0.83383546  1
  Ti4+  Ti6  1  0.16802596  0.83540867  0.16761299  1
  Ti4+  Ti7  1  0.16851269  0.83183287  0.50195035  1
  Ti4+  Ti8  1  0.16778652  0.83347727  0.83300170  1
  Ti4+  Ti9  1  0.49978206  0.16757668  0.16563955  1
  Ti4+  Ti10  1  0.50315120  0.16513362  0.49860444  1
  Ti4+  Ti11  1  0.49897582  0.16827626  0.83222320  1
  Ti4+  Ti12  1  0.49856790  0.50084286  0.16641391  1
  Ti4+  Ti13  1  0.49915005  0.50156601  0.50352381  1
  Ti4+  Ti14  1  0.50032147  0.49606595  0.83120225  1
  Ti4+  Ti15  1  0.50042470  0.83554335  0.16529369  1
  Ti4+  Ti16  1  0.50061106  0.83236406  0.49567759  1
  Ti4+  Ti17  1  0.50131376  0.83314010  0.83331511  1
  Ti4+  Ti18  1  0.83388839  0.16582981  0.16791671  1
  Ti4+  Ti19  1  0.83506432  0.17099896  0.50101602  1
  Ti4+  Ti20  1  0.83202449  0.16796706  0.83397162  1
  Ti4+  Ti21  1  0.83348265  0.49617392  0.16793830  1
  Ti4+  Ti22  1  0.83154610  0.50208996  0.49873959  1
  Ti4+  Ti23  1  0.83283740  0.50072596  0.83418405  1
  Ti4+  Ti24  1  0.83545634  0.83355719  0.16572826  1
  Ti4+  Ti25  1  0.83296790  0.83562521  0.50026984  1
  Ti4+  Ti26  1  0.83146638  0.83175535  0.83302838  1
  Cu+  Cu27  1  0.16702792  0.16931255  -0.00376676  1
  Cu+  Cu28  1  0.16374304  0.16046603  0.33179147  1
  Cu+  Cu29  1  0.16559758  0.15992573  0.66500829  1
  Cu+  Cu30  1  0.16532069  0.50365939  0.00167901  1
  Cu+  Cu31  1  0.16244411  0.50286307  0.33610989  1
  Cu+  Cu32  1  0.17526428  0.49825531  0.66857165  1
  Cu+  Cu33  1  0.16853981  0.83702936  -0.00107877  1
  Cu+  Cu34  1  0.16902098  0.83043245  0.33407044  1
  Cu+  Cu35  1  0.16824587  0.83301845  0.67085709  1
  Cu+  Cu36  1  0.50081782  0.16929893  -0.00187337  1
  Cu+  Cu37  1  0.50092686  0.16550345  0.32878568  1
  Cu+  Cu38  1  0.50445498  0.16834488  0.66517511  1
  Cu+  Cu39  1  0.50027394  0.49881121  -0.00146647  1
  Cu+  Cu40  1  0.49803683  0.50267470  0.33479421  1
  Cu+  Cu41  1  0.49629985  0.49151349  0.66423112  1
  Cu+  Cu42  1  0.50005471  0.83360901  0.00037786  1
  Cu+  Cu43  1  0.49822925  0.83659901  0.33003448  1
  Cu+  Cu44  1  0.50413974  0.83184319  0.66620498  1
  Cu+  Cu45  1  0.83124119  0.16637058  0.00217057  1
  Cu+  Cu46  1  0.83378240  0.17592460  0.33492888  1
  Cu+  Cu47  1  0.83440606  0.16686986  0.66987324  1
  Cu+  Cu48  1  0.83349184  0.49340352  0.00152358  1
  Cu+  Cu49  1  0.83766528  0.49824006  0.33456856  1
  Cu+  Cu50  1  0.82945850  0.50370410  0.66670977  1
  Cu+  Cu51  1  0.83339322  0.83036371  -0.00249668  1
  Cu+  Cu52  1  0.83438665  0.83651773  0.33539212  1
  Cu+  Cu53  1  0.83183323  0.83383543  0.66624366  1
  Cu+  Cu54  1  0.15933451  -0.00016108  0.16498113  1
  Cu+  Cu55  1  0.16686189  -0.00250040  0.50555441  1
  Cu+  Cu56  1  0.16814610  -0.00002176  0.83317917  1
  Cu+  Cu57  1  0.16511229  0.33637072  0.16713816  1
  Cu+  Cu58  1  0.16892081  0.32521378  0.49741818  1
  Cu+  Cu59  1  0.16861577  0.33321192  0.83117217  1
  Cu+  Cu60  1  0.16423499  0.67087562  0.17111540  1
  Cu+  Cu61  1  0.17211564  0.66258900  0.50136800  1
  Cu+  Cu62  1  0.16739470  0.66957211  0.83504637  1
  Cu+  Cu63  1  0.50277352  0.00310002  0.16401177  1
  Cu+  Cu64  1  0.50229582  -0.00396015  0.49729191  1
  Cu+  Cu65  1  0.49853088  0.00125146  0.82989633  1
  Cu+  Cu66  1  0.49700559  0.33555604  0.16790895  1
  Cu+  Cu67  1  0.50540882  0.33130454  0.50474056  1
  Cu+  Cu68  1  0.49892653  0.33198208  0.83977199  1
  Cu+  Cu69  1  0.49939373  0.67012488  0.16633000  1
  Cu+  Cu70  1  0.49104616  0.66853894  0.50014702  1
  Cu+  Cu71  1  0.50399435  0.66238869  0.83299485  1
  Cu+  Cu72  1  0.83938206  0.00042370  0.16583265  1
  Cu+  Cu73  1  0.83438171  0.00293103  0.50002976  1
  Cu+  Cu74  1  0.82928770  -0.00135673  0.83385637  1
  Cu+  Cu75  1  0.83625329  0.33124734  0.16300092  1
  Cu+  Cu76  1  0.82927273  0.33704704  0.49537992  1
  Cu+  Cu77  1  0.83310638  0.33560813  0.83405396  1
  Cu+  Cu78  1  0.83257001  0.66569651  0.16821258  1
  Cu+  Cu79  1  0.83125812  0.67296007  0.50032404  1
  Cu+  Cu80  1  0.82912874  0.66502205  0.83031011  1
  Cu+  Cu81  1  -0.00257832  0.15646321  0.17082847  1
  Cu+  Cu82  1  0.00731826  0.16482902  0.50188075  1
  Cu+  Cu83  1  -0.00099893  0.16881986  0.83375054  1
  Cu+  Cu84  1  -0.00477634  0.50040194  0.16833796  1
  Cu+  Cu85  1  -0.00119350  0.49728104  0.49814808  1
  Cu+  Cu86  1  0.00163096  0.50188030  0.83446582  1
  Cu+  Cu87  1  0.00540898  0.83577080  0.16591570  1
  Cu+  Cu88  1  -0.00282706  0.83361305  0.50039375  1
  Cu+  Cu89  1  -0.00248880  0.83133644  0.83222095  1
  Cu+  Cu90  1  0.33280127  0.16795196  0.16358339  1
  Cu+  Cu91  1  0.33213459  0.16079603  0.49741850  1
  Cu+  Cu92  1  0.33361089  0.16546668  0.83041802  1
  Cu+  Cu93  1  0.32853119  0.50190650  0.16752519  1
  Cu+  Cu94  1  0.33572044  0.50390622  0.50602446  1
  Cu+  Cu95  1  0.33233090  0.49085677  0.82912424  1
  Cu+  Cu96  1  0.33320345  0.83603181  0.16601069  1
  Cu+  Cu97  1  0.33712824  0.83047184  0.49725901  1
  Cu+  Cu98  1  0.33399242  0.83458420  0.83352905  1
  Cu+  Cu99  1  0.66808236  0.16921800  0.16383533  1
  Cu+  Cu100  1  0.66794704  0.17280110  0.50155069  1
  Cu+  Cu101  1  0.66480700  0.16852693  0.83507007  1
  Cu+  Cu102  1  0.66506259  0.49843417  0.16826958  1
  Cu+  Cu103  1  0.66424096  0.50315532  0.49952900  1
  Cu+  Cu104  1  0.66768136  0.50662025  0.83237348  1
  Cu+  Cu105  1  0.66742118  0.83524461  0.16647395  1
  Cu+  Cu106  1  0.66646860  0.83646571  0.50081669  1
  Cu+  Cu107  1  0.66673344  0.83080157  0.83386016  1
  Cu+  Cu108  1  0.40595814  0.39822946  0.58348968  1
  Cu+  Cu109  1  0.92995315  0.40653136  0.06915465  1
  Cu+  Cu110  1  0.40848327  0.59248524  0.40237782  1
  Cu+  Cu111  1  0.40693315  0.92871583  0.40251898  1
  Cu+  Cu112  1  0.92069626  0.07146557  0.06787284  1
  Cu+  Cu113  1  0.73766763  0.59592477  0.73553134  1
  Cu+  Cu114  1  0.07253965  0.06690903  0.59862275  1
  Cu+  Cu115  1  0.07102497  0.06871085  0.26408712  1
  Cu+  Cu116  1  0.25856715  0.59470320  0.59918427  1
  Cu+  Cu117  1  0.59330837  0.92400393  0.59432547  1
  Cu+  Cu118  1  0.40298202  0.40859764  0.93098393  1
  Cu+  Cu119  1  0.07226285  0.59467478  0.42022991  1
  Cu+  Cu120  1  0.40915513  0.74821251  0.59870336  1
  Cu+  Cu121  1  0.25765349  0.39843486  0.73878110  1
  Cu+  Cu122  1  0.74008026  0.25877558  0.07384679  1
  Cu+  Cu123  1  0.91706525  0.59656899  0.26008242  1
  Cu+  Cu124  1  0.59292818  0.59326895  0.92940262  1
  Cu+  Cu125  1  0.08365322  0.25536123  0.40428647  1
  Cu+  Cu126  1  0.59373969  0.25793344  0.92851444  1
  Cu+  Cu127  1  0.73495981  0.26383702  0.40672622  1
  Cu+  Cu128  1  0.07726924  0.92549618  0.06662700  1
  Cu+  Cu129  1  0.92714632  0.40708675  0.41074506  1
  Cu+  Cu130  1  0.07436572  0.74468921  0.26095357  1
  Cu+  Cu131  1  0.92844680  0.25682627  0.25488821  1
  Cu+  Cu132  1  0.59853014  0.26198212  0.59716223  1
  Te2-  Te133  1  0.24810690  0.25286563  0.08225058  1
  Te2-  Te134  1  0.25341070  0.24533987  0.40988120  1
  Te2-  Te135  1  0.25229454  0.24787318  0.74331775  1
  Te2-  Te136  1  0.24771289  0.58877636  0.08471086  1
  Te2-  Te137  1  0.25655789  0.58437414  0.41151517  1
  Te2-  Te138  1  0.25686705  0.58986095  0.75144236  1
  Te2-  Te139  1  0.25227223  0.92313059  0.08190643  1
  Te2-  Te140  1  0.25194201  0.91846227  0.41569906  1
  Te2-  Te141  1  0.25413097  0.91985937  0.74792789  1
  Te2-  Te142  1  0.58575767  0.25872716  0.08031810  1
  Te2-  Te143  1  0.58357419  0.25458964  0.40982948  1
  Te2-  Te144  1  0.58727326  0.25659485  0.74800806  1
  Te2-  Te145  1  0.58592090  0.58655097  0.08200898  1
  Te2-  Te146  1  0.58234135  0.58916181  0.41697285  1
  Te2-  Te147  1  0.58284124  0.58303856  0.74008767  1
  Te2-  Te148  1  0.58683836  0.91945869  0.07949485  1
  Te2-  Te149  1  0.58808380  0.91821939  0.40974412  1
  Te2-  Te150  1  0.58797315  0.91991120  0.74811112  1
  Te2-  Te151  1  0.92559371  0.25011017  0.07979627  1
  Te2-  Te152  1  0.92763955  0.25547707  0.41488020  1
  Te2-  Te153  1  0.91781724  0.25406811  0.74939017  1
  Te2-  Te154  1  0.91552131  0.58486592  0.08023749  1
  Te2-  Te155  1  0.91904299  0.59295119  0.41484315  1
  Te2-  Te156  1  0.91967089  0.58445788  0.74804913  1
  Te2-  Te157  1  0.92199803  0.91789936  0.07623080  1
  Te2-  Te158  1  0.91989094  0.92139075  0.41555062  1
  Te2-  Te159  1  0.91621410  0.91880493  0.74870602  1
  Te2-  Te160  1  0.25047775  0.08026823  0.24724671  1
  Te2-  Te161  1  0.25637578  0.07694146  0.58710894  1
  Te2-  Te162  1  0.25239512  0.08206833  0.91786443  1
  Te2-  Te163  1  0.24828175  0.41703152  0.25399179  1
  Te2-  Te164  1  0.25472537  0.40505717  0.58401264  1
  Te2-  Te165  1  0.24979627  0.41297189  0.92407676  1
  Te2-  Te166  1  0.25570854  0.74901525  0.25217606  1
  Te2-  Te167  1  0.25487129  0.74715253  0.58976641  1
  Te2-  Te168  1  0.25367634  0.74981346  0.92023332  1
  Te2-  Te169  1  0.58884623  0.08319887  0.24900596  1
  Te2-  Te170  1  0.58901361  0.07926397  0.58409830  1
  Te2-  Te171  1  0.58340784  0.08051492  0.91729859  1
  Te2-  Te172  1  0.58181443  0.41617340  0.25435603  1
  Te2-  Te173  1  0.59214370  0.41514113  0.58753814  1
  Te2-  Te174  1  0.59123166  0.41446369  0.91869544  1
  Te2-  Te175  1  0.58561621  0.75044882  0.25156353  1
  Te2-  Te176  1  0.58598954  0.74453581  0.58145664  1
  Te2-  Te177  1  0.58594948  0.74666624  0.92086367  1
  Te2-  Te178  1  0.91545548  0.07739816  0.26278029  1
  Te2-  Te179  1  0.91891045  0.08273263  0.58681826  1
  Te2-  Te180  1  0.91762536  0.08038771  0.91703867  1
  Te2-  Te181  1  0.92273779  0.40873443  0.25621462  1
  Te2-  Te182  1  0.91485970  0.41672165  0.58610384  1
  Te2-  Te183  1  0.92235077  0.41293370  0.91728716  1
  Te2-  Te184  1  0.92108892  0.74949548  0.25515270  1
  Te2-  Te185  1  0.91819842  0.74891250  0.58649644  1
  Te2-  Te186  1  0.91706491  0.74413169  0.91624021  1
  Te2-  Te187  1  0.07921690  0.25496599  0.25213436  1
  Te2-  Te188  1  0.08433296  0.25152143  0.58833856  1
  Te2-  Te189  1  0.08122329  0.25483309  0.91680613  1
  Te2-  Te190  1  0.07430189  0.58955981  0.25798453  1
  Te2-  Te191  1  0.08254373  0.58053427  0.58664232  1
  Te2-  Te192  1  0.08222138  0.58723683  0.91835681  1
  Te2-  Te193  1  0.07957005  0.91863630  0.25964258  1
  Te2-  Te194  1  0.08011554  0.91392351  0.58840205  1
  Te2-  Te195  1  0.07856519  0.92005205  0.91550078  1
  Te2-  Te196  1  0.41284760  0.25148043  0.25131314  1
  Te2-  Te197  1  0.41180137  0.24691370  0.58364658  1
  Te2-  Te198  1  0.40833352  0.25150272  0.92067535  1
  Te2-  Te199  1  0.41210735  0.58773019  0.25000158  1
  Te2-  Te200  1  0.41353211  0.58987266  0.59595126  1
  Te2-  Te201  1  0.41202275  0.58137914  0.91433314  1
  Te2-  Te202  1  0.41298541  0.92462903  0.24916420  1
  Te2-  Te203  1  0.41510199  0.91770665  0.58584500  1
  Te2-  Te204  1  0.41709493  0.91897650  0.91729960  1
  Te2-  Te205  1  0.74521452  0.25665713  0.25181106  1
  Te2-  Te206  1  0.75135452  0.25668565  0.59041948  1
  Te2-  Te207  1  0.74700812  0.25692024  0.92133905  1
  Te2-  Te208  1  0.74818566  0.58279832  0.25410863  1
  Te2-  Te209  1  0.74525465  0.58971432  0.58240129  1
  Te2-  Te210  1  0.74887722  0.58575907  0.92569827  1
  Te2-  Te211  1  0.75134260  0.92053041  0.24993491  1
  Te2-  Te212  1  0.74804073  0.92328062  0.58713362  1
  Te2-  Te213  1  0.74609147  0.91688976  0.91993554  1
  Te2-  Te214  1  0.07680364  0.08100245  0.07226002  1
  Te2-  Te215  1  0.07983798  0.07288899  0.41579388  1
  Te2-  Te216  1  0.07756038  0.07807454  0.75017284  1
  Te2-  Te217  1  0.08047296  0.41581515  0.08094237  1
  Te2-  Te218  1  0.08229698  0.40966828  0.41297274  1
  Te2-  Te219  1  0.08213341  0.41694858  0.74689392  1
  Te2-  Te220  1  0.08338748  0.74903355  0.07900026  1
  Te2-  Te221  1  0.08026880  0.74602251  0.41719904  1
  Te2-  Te222  1  0.08139251  0.74717405  0.74817834  1
  Te2-  Te223  1  0.41554561  0.08349315  0.07905682  1
  Te2-  Te224  1  0.41666244  0.08043543  0.41181935  1
  Te2-  Te225  1  0.41616318  0.08296328  0.74398632  1
  Te2-  Te226  1  0.41059979  0.41547192  0.08230161  1
  Te2-  Te227  1  0.41528274  0.41302037  0.41926664  1
  Te2-  Te228  1  0.41352115  0.40396672  0.74355388  1
  Te2-  Te229  1  0.41341740  0.74998092  0.08079271  1
  Te2-  Te230  1  0.41201276  0.74680567  0.40555808  1
  Te2-  Te231  1  0.41527236  0.74558074  0.74987610  1
  Te2-  Te232  1  0.74790051  0.07788793  0.08300668  1
  Te2-  Te233  1  0.74958534  0.08659275  0.41526798  1
  Te2-  Te234  1  0.74620989  0.08339136  0.74940670  1
  Te2-  Te235  1  0.74355988  0.41229602  0.08171792  1
  Te2-  Te236  1  0.74149676  0.41883860  0.41049462  1
  Te2-  Te237  1  0.74667336  0.41531430  0.74886081  1
  Te2-  Te238  1  0.74917952  0.74782609  0.08340478  1
  Te2-  Te239  1  0.74635747  0.75147447  0.41355332  1
  Te2-  Te240  1  0.74375688  0.74754451  0.74413233  1
