# generated using pymatgen
data_Ti27(Cu53Te54)2
_symmetry_space_group_name_H-M   'P 1'
_cell_length_a   17.92625515
_cell_length_b   17.93228642
_cell_length_c   17.93477791
_cell_angle_alpha   89.98605889
_cell_angle_beta   90.04519138
_cell_angle_gamma   89.98015090
_symmetry_Int_Tables_number   1
_chemical_formula_structural   Ti27(Cu53Te54)2
_chemical_formula_sum   'Ti27 Cu106 Te108'
_cell_volume   5765.28883124
_cell_formula_units_Z   1
loop_
 _symmetry_equiv_pos_site_id
 _symmetry_equiv_pos_as_xyz
  1  'x, y, z'
loop_
 _atom_type_symbol
 _atom_type_oxidation_number
  Ti4+  4.0
  Cu+  1.0
  Te2-  -2.0
loop_
 _atom_site_type_symbol
 _atom_site_label
 _atom_site_symmetry_multiplicity
 _atom_site_fract_x
 _atom_site_fract_y
 _atom_site_fract_z
 _atom_site_occupancy
  Ti4+  Ti0  1  0.16609623  0.16702555  0.16067130  1
  Ti4+  Ti1  1  0.16763772  0.16540103  0.49670024  1
  Ti4+  Ti2  1  0.17119559  0.17056725  0.82726933  1
  Ti4+  Ti3  1  0.16695574  0.50057676  0.16678194  1
  Ti4+  Ti4  1  0.16240562  0.50091002  0.50134910  1
  Ti4+  Ti5  1  0.16588240  0.50356063  0.83243617  1
  Ti4+  Ti6  1  0.16987087  0.83387193  0.17090578  1
  Ti4+  Ti7  1  0.16589401  0.83295513  0.50000909  1
  Ti4+  Ti8  1  0.16754450  0.83502453  0.83369647  1
  Ti4+  Ti9  1  0.49901546  0.16678807  0.16640593  1
  Ti4+  Ti10  1  0.50056655  0.16649845  0.49958512  1
  Ti4+  Ti11  1  0.49924239  0.16557301  0.83072000  1
  Ti4+  Ti12  1  0.49831902  0.49768292  0.16743268  1
  Ti4+  Ti13  1  0.49934407  0.49822357  0.50368385  1
  Ti4+  Ti14  1  0.49977475  0.50088719  0.83128546  1
  Ti4+  Ti15  1  0.49931277  0.83170090  0.16807947  1
  Ti4+  Ti16  1  0.50021318  0.83028454  0.49908796  1
  Ti4+  Ti17  1  0.50040063  0.83233223  0.83426376  1
  Ti4+  Ti18  1  0.83380734  0.16652832  0.16859733  1
  Ti4+  Ti19  1  0.83420584  0.16938306  0.50550152  1
  Ti4+  Ti20  1  0.83386042  0.16564774  0.83618174  1
  Ti4+  Ti21  1  0.83046927  0.49900174  0.16459193  1
  Ti4+  Ti22  1  0.83121971  0.50097654  0.49919085  1
  Ti4+  Ti23  1  0.83188097  0.50001356  0.83343907  1
  Ti4+  Ti24  1  0.83752866  0.83092094  0.16688609  1
  Ti4+  Ti25  1  0.83284071  0.83964380  0.50209891  1
  Ti4+  Ti26  1  0.83418585  0.83137994  0.83122413  1
  Cu+  Cu27  1  0.16522860  0.16561349  -0.00971633  1
  Cu+  Cu28  1  0.16824566  0.17018630  0.32602650  1
  Cu+  Cu29  1  0.17348207  0.16401159  0.66398631  1
  Cu+  Cu30  1  0.16801926  0.50302019  -0.00118643  1
  Cu+  Cu31  1  0.16555658  0.49921641  0.33673565  1
  Cu+  Cu32  1  0.16375593  0.50225940  0.66705657  1
  Cu+  Cu33  1  0.17360648  0.83599241  0.00439632  1
  Cu+  Cu34  1  0.16191796  0.83455019  0.33524164  1
  Cu+  Cu35  1  0.16532534  0.83002468  0.66508959  1
  Cu+  Cu36  1  0.49863345  0.16797668  -0.00097900  1
  Cu+  Cu37  1  0.50036018  0.16691694  0.33209884  1
  Cu+  Cu38  1  0.49632694  0.16934713  0.66593980  1
  Cu+  Cu39  1  0.49787149  0.49819628  -0.00017626  1
  Cu+  Cu40  1  0.49966129  0.49473815  0.33598092  1
  Cu+  Cu41  1  0.50329470  0.50349045  0.67027554  1
  Cu+  Cu42  1  0.50124504  0.83393604  0.00114609  1
  Cu+  Cu43  1  0.49447935  0.82832669  0.33296924  1
  Cu+  Cu44  1  0.50285588  0.83040688  0.66766986  1
  Cu+  Cu45  1  0.83406492  0.16547457  0.00316845  1
  Cu+  Cu46  1  0.83542836  0.17072427  0.33596710  1
  Cu+  Cu47  1  0.83003858  0.16603204  0.67199727  1
  Cu+  Cu48  1  0.82976943  0.49834120  -0.00004371  1
  Cu+  Cu49  1  0.82842547  0.50045863  0.33056630  1
  Cu+  Cu50  1  0.83207162  0.50160244  0.66680504  1
  Cu+  Cu51  1  0.83213847  0.82635290  -0.00305981  1
  Cu+  Cu52  1  0.83852449  0.83204820  0.33674838  1
  Cu+  Cu53  1  0.83634042  0.83944499  0.66445496  1
  Cu+  Cu54  1  0.16182528  0.00128005  0.16496818  1
  Cu+  Cu55  1  0.16651295  -0.00140570  0.49492141  1
  Cu+  Cu56  1  0.17224971  0.00438422  0.82837092  1
  Cu+  Cu57  1  0.16999075  0.33197634  0.16453044  1
  Cu+  Cu58  1  0.16394360  0.33425294  0.49805106  1
  Cu+  Cu59  1  0.17059139  0.33877607  0.82940387  1
  Cu+  Cu60  1  0.17195989  0.66904785  0.16797680  1
  Cu+  Cu61  1  0.16385397  0.66686134  0.50481965  1
  Cu+  Cu62  1  0.16575527  0.66811087  0.83545826  1
  Cu+  Cu63  1  0.49962053  0.00132906  0.16564446  1
  Cu+  Cu64  1  0.49910061  -0.00270022  0.49835538  1
  Cu+  Cu65  1  0.50032342  -0.00206889  0.83436340  1
  Cu+  Cu66  1  0.49926973  0.33237817  0.16611216  1
  Cu+  Cu67  1  0.50343192  0.33486549  0.49815005  1
  Cu+  Cu68  1  0.49908497  0.33283365  0.82689029  1
  Cu+  Cu69  1  0.49701882  0.66393553  0.17012780  1
  Cu+  Cu70  1  0.50349632  0.66142971  0.50595043  1
  Cu+  Cu71  1  0.49787592  0.66670734  0.83114205  1
  Cu+  Cu72  1  0.83778359  -0.00064309  0.16635470  1
  Cu+  Cu73  1  0.83422113  0.00721180  0.51013619  1
  Cu+  Cu74  1  0.83607978  -0.00296934  0.83447284  1
  Cu+  Cu75  1  0.83021032  0.33286538  0.16687100  1
  Cu+  Cu76  1  0.83191317  0.33464111  0.50348663  1
  Cu+  Cu77  1  0.83129770  0.33193608  0.83683808  1
  Cu+  Cu78  1  0.83858836  0.66041964  0.17041979  1
  Cu+  Cu79  1  0.82798071  0.66991814  0.49584060  1
  Cu+  Cu80  1  0.82880333  0.66668676  0.83302570  1
  Cu+  Cu81  1  -0.00146196  0.16151025  0.16195302  1
  Cu+  Cu82  1  -0.00037924  0.16485874  0.49814983  1
  Cu+  Cu83  1  0.00361797  0.16891527  0.83217020  1
  Cu+  Cu84  1  -0.00060867  0.49893604  0.16358760  1
  Cu+  Cu85  1  -0.00211750  0.50253738  0.49825364  1
  Cu+  Cu86  1  -0.00135804  0.50169387  0.83535813  1
  Cu+  Cu87  1  0.00674627  0.83199430  0.16935277  1
  Cu+  Cu88  1  0.00030075  0.83561648  0.50376407  1
  Cu+  Cu89  1  -0.00127101  0.83784087  0.83643390  1
  Cu+  Cu90  1  0.33190095  0.17157526  0.16372009  1
  Cu+  Cu91  1  0.33301147  0.16698751  0.49711770  1
  Cu+  Cu92  1  0.33595313  0.16963210  0.82101902  1
  Cu+  Cu93  1  0.33384252  0.49812478  0.16626296  1
  Cu+  Cu94  1  0.32908950  0.49902683  0.50357028  1
  Cu+  Cu95  1  0.33174922  0.50615654  0.82955365  1
  Cu+  Cu96  1  0.33483692  0.82555790  0.17148000  1
  Cu+  Cu97  1  0.33730387  0.83310652  0.49438571  1
  Cu+  Cu98  1  0.33454930  0.83424238  0.83499817  1
  Cu+  Cu99  1  0.66672518  0.16613486  0.16718538  1
  Cu+  Cu100  1  0.66953314  0.16762759  0.50476236  1
  Cu+  Cu101  1  0.66665754  0.16554527  0.83714532  1
  Cu+  Cu102  1  0.66482192  0.49870052  0.16513269  1
  Cu+  Cu103  1  0.66471894  0.49834599  0.50225443  1
  Cu+  Cu104  1  0.66564832  0.49653804  0.83089501  1
  Cu+  Cu105  1  0.66758417  0.83181099  0.16690173  1
  Cu+  Cu106  1  0.66169420  0.84131308  0.50453483  1
  Cu+  Cu107  1  0.66973236  0.82716129  0.83320968  1
  Cu+  Cu108  1  0.91587047  0.92042816  0.92873673  1
  Cu+  Cu109  1  0.73792623  0.73500815  0.92584832  1
  Cu+  Cu110  1  0.08071383  0.73614570  0.25864822  1
  Cu+  Cu111  1  0.41115289  0.92769201  0.40384195  1
  Cu+  Cu112  1  0.59679629  0.40230608  0.74439688  1
  Cu+  Cu113  1  0.07339362  0.73719537  0.59828554  1
  Cu+  Cu114  1  0.92466950  0.74058748  0.41739556  1
  Cu+  Cu115  1  0.26477963  0.07149768  0.73350020  1
  Cu+  Cu116  1  0.59675900  0.59127248  0.59570790  1
  Cu+  Cu117  1  0.07501229  0.08141990  0.25685794  1
  Cu+  Cu118  1  0.92982991  0.57547437  0.26117421  1
  Cu+  Cu119  1  0.07799941  0.07605614  0.91128947  1
  Cu+  Cu120  1  0.40654180  0.26426094  0.73448131  1
  Cu+  Cu121  1  0.92946993  0.93311895  0.59378921  1
  Cu+  Cu122  1  0.40176068  0.59799327  0.74176656  1
  Cu+  Cu123  1  0.41096232  0.73171344  0.26432483  1
  Cu+  Cu124  1  0.26223276  0.26151906  0.25630790  1
  Cu+  Cu125  1  0.73663167  0.08247952  0.60222971  1
  Cu+  Cu126  1  0.08034996  0.92018706  0.07405013  1
  Cu+  Cu127  1  0.57956329  0.92933132  0.59820910  1
  Cu+  Cu128  1  0.59392507  0.40735289  0.40471165  1
  Cu+  Cu129  1  0.91990628  0.07424638  0.07252491  1
  Cu+  Cu130  1  0.26259083  0.73920458  0.07329869  1
  Cu+  Cu131  1  0.07174931  0.92438532  0.41085769  1
  Cu+  Cu132  1  0.91669873  0.07838053  0.41064314  1
  Te2-  Te133  1  0.24968920  0.25110095  0.07285365  1
  Te2-  Te134  1  0.25108915  0.25343265  0.41255244  1
  Te2-  Te135  1  0.25346199  0.25999027  0.73972694  1
  Te2-  Te136  1  0.25408814  0.58538120  0.08177393  1
  Te2-  Te137  1  0.24937015  0.58629254  0.41799852  1
  Te2-  Te138  1  0.24891753  0.59168319  0.74407182  1
  Te2-  Te139  1  0.25757596  0.92102841  0.08797119  1
  Te2-  Te140  1  0.25397404  0.91825380  0.41152117  1
  Te2-  Te141  1  0.25325601  0.91608935  0.74517098  1
  Te2-  Te142  1  0.58483808  0.25105552  0.08128875  1
  Te2-  Te143  1  0.58861237  0.24990722  0.41479208  1
  Te2-  Te144  1  0.58954897  0.24909330  0.74561403  1
  Te2-  Te145  1  0.58133580  0.58430321  0.08247841  1
  Te2-  Te146  1  0.58439069  0.58281899  0.41511792  1
  Te2-  Te147  1  0.59066479  0.59061579  0.74927712  1
  Te2-  Te148  1  0.58504426  0.91724508  0.08406471  1
  Te2-  Te149  1  0.58205430  0.91652829  0.40924948  1
  Te2-  Te150  1  0.58870066  0.91751586  0.75048147  1
  Te2-  Te151  1  0.91848905  0.25331009  0.08301349  1
  Te2-  Te152  1  0.91895421  0.25585258  0.41871386  1
  Te2-  Te153  1  0.91715594  0.25111613  0.75078878  1
  Te2-  Te154  1  0.91788558  0.58317981  0.07753246  1
  Te2-  Te155  1  0.91774819  0.58768294  0.41183426  1
  Te2-  Te156  1  0.91636715  0.58613305  0.74947248  1
  Te2-  Te157  1  0.92454582  0.91767858  0.07894705  1
  Te2-  Te158  1  0.91977888  0.92619367  0.41340739  1
  Te2-  Te159  1  0.92272362  0.92197128  0.74659053  1
  Te2-  Te160  1  0.25223215  0.08088678  0.24679434  1
  Te2-  Te161  1  0.25464647  0.07738892  0.57933730  1
  Te2-  Te162  1  0.25886251  0.08543600  0.91325059  1
  Te2-  Te163  1  0.25160830  0.41539952  0.25344301  1
  Te2-  Te164  1  0.24649804  0.41459955  0.58637962  1
  Te2-  Te165  1  0.25426593  0.41963159  0.91617907  1
  Te2-  Te166  1  0.25332008  0.74580511  0.26246614  1
  Te2-  Te167  1  0.25497397  0.74941419  0.58300760  1
  Te2-  Te168  1  0.25276443  0.74913892  0.91881637  1
  Te2-  Te169  1  0.58479976  0.08138608  0.25145999  1
  Te2-  Te170  1  0.58434722  0.08039473  0.58893722  1
  Te2-  Te171  1  0.58250652  0.08156463  0.91899652  1
  Te2-  Te172  1  0.58637890  0.41144168  0.25163403  1
  Te2-  Te173  1  0.58689686  0.41150459  0.59059561  1
  Te2-  Te174  1  0.58257177  0.41296539  0.91694238  1
  Te2-  Te175  1  0.58591050  0.74639441  0.25248884  1
  Te2-  Te176  1  0.58899132  0.74619967  0.58712877  1
  Te2-  Te177  1  0.58460845  0.74474058  0.92030670  1
  Te2-  Te178  1  0.92106115  0.07834837  0.25714911  1
  Te2-  Te179  1  0.92509778  0.08561016  0.59435082  1
  Te2-  Te180  1  0.92402660  0.07736712  0.92119838  1
  Te2-  Te181  1  0.91704083  0.41383075  0.25158827  1
  Te2-  Te182  1  0.91692798  0.41861081  0.58437781  1
  Te2-  Te183  1  0.91661605  0.41556739  0.91884611  1
  Te2-  Te184  1  0.92418432  0.74471347  0.25535392  1
  Te2-  Te185  1  0.91685264  0.74650169  0.58600031  1
  Te2-  Te186  1  0.92114588  0.74445618  0.91635350  1
  Te2-  Te187  1  0.07772760  0.25206257  0.24550042  1
  Te2-  Te188  1  0.08399340  0.24763321  0.58346985  1
  Te2-  Te189  1  0.08502054  0.25740105  0.91291457  1
  Te2-  Te190  1  0.08104893  0.58576330  0.25474431  1
  Te2-  Te191  1  0.07506248  0.58637548  0.58849425  1
  Te2-  Te192  1  0.08055943  0.58690388  0.91964230  1
  Te2-  Te193  1  0.07780804  0.92394817  0.25612110  1
  Te2-  Te194  1  0.08298804  0.92364845  0.58823945  1
  Te2-  Te195  1  0.08272416  0.92327082  0.92082380  1
  Te2-  Te196  1  0.41404737  0.25396193  0.25357634  1
  Te2-  Te197  1  0.41362523  0.25471890  0.58087212  1
  Te2-  Te198  1  0.41446247  0.25232974  0.91458164  1
  Te2-  Te199  1  0.41223277  0.58047386  0.25679878  1
  Te2-  Te200  1  0.41078792  0.58511772  0.58819622  1
  Te2-  Te201  1  0.41518177  0.58558159  0.91846570  1
  Te2-  Te202  1  0.41252375  0.92065846  0.25109288  1
  Te2-  Te203  1  0.41511563  0.91566215  0.58679193  1
  Te2-  Te204  1  0.41614014  0.91751688  0.91950582  1
  Te2-  Te205  1  0.74832724  0.25059523  0.25340910  1
  Te2-  Te206  1  0.74754032  0.25489730  0.59053556  1
  Te2-  Te207  1  0.74892087  0.24888985  0.92192534  1
  Te2-  Te208  1  0.74345322  0.58548610  0.24996700  1
  Te2-  Te209  1  0.74804618  0.58833451  0.58513607  1
  Te2-  Te210  1  0.74280117  0.58340996  0.91949369  1
  Te2-  Te211  1  0.75387642  0.91542267  0.25070522  1
  Te2-  Te212  1  0.74331134  0.92448679  0.59070986  1
  Te2-  Te213  1  0.74796387  0.91703589  0.91875699  1
  Te2-  Te214  1  0.07842337  0.07764711  0.07048449  1
  Te2-  Te215  1  0.07893764  0.07980961  0.40880436  1
  Te2-  Te216  1  0.08218068  0.08277328  0.74434750  1
  Te2-  Te217  1  0.08426017  0.41576234  0.08091058  1
  Te2-  Te218  1  0.07788664  0.41547158  0.41490762  1
  Te2-  Te219  1  0.07960347  0.41769817  0.74879936  1
  Te2-  Te220  1  0.08464144  0.74777328  0.08062132  1
  Te2-  Te221  1  0.07812055  0.74315104  0.41361380  1
  Te2-  Te222  1  0.07893617  0.74968113  0.75176384  1
  Te2-  Te223  1  0.41302889  0.08321743  0.08081890  1
  Te2-  Te224  1  0.41502696  0.08184871  0.41332949  1
  Te2-  Te225  1  0.41690119  0.07485202  0.74302602  1
  Te2-  Te226  1  0.41379685  0.41284316  0.08101221  1
  Te2-  Te227  1  0.41117506  0.41447084  0.41881279  1
  Te2-  Te228  1  0.41093218  0.41688483  0.74411739  1
  Te2-  Te229  1  0.41540962  0.74505595  0.07903029  1
  Te2-  Te230  1  0.41517240  0.73732538  0.41772092  1
  Te2-  Te231  1  0.41246666  0.74983837  0.74612700  1
  Te2-  Te232  1  0.74867433  0.07939150  0.08361688  1
  Te2-  Te233  1  0.74993308  0.08289406  0.41682252  1
  Te2-  Te234  1  0.74624122  0.07784013  0.75397280  1
  Te2-  Te235  1  0.74530942  0.41265577  0.08063798  1
  Te2-  Te236  1  0.74699735  0.41331203  0.41432602  1
  Te2-  Te237  1  0.74935617  0.41150843  0.74620089  1
  Te2-  Te238  1  0.75089985  0.74403691  0.08454184  1
  Te2-  Te239  1  0.74369560  0.75724767  0.41707939  1
  Te2-  Te240  1  0.75071080  0.74924796  0.74108346  1
