# generated using pymatgen
data_Ti27(Cu53Te54)2
_symmetry_space_group_name_H-M   'P 1'
_cell_length_a   17.88584323
_cell_length_b   17.88713355
_cell_length_c   17.88881651
_cell_angle_alpha   90.00182242
_cell_angle_beta   89.96207693
_cell_angle_gamma   89.99028874
_symmetry_Int_Tables_number   1
_chemical_formula_structural   Ti27(Cu53Te54)2
_chemical_formula_sum   'Ti27 Cu106 Te108'
_cell_volume   5723.10451761
_cell_formula_units_Z   1
loop_
 _symmetry_equiv_pos_site_id
 _symmetry_equiv_pos_as_xyz
  1  'x, y, z'
loop_
 _atom_type_symbol
 _atom_type_oxidation_number
  Ti4+  4.0
  Cu+  1.0
  Te2-  -2.0
loop_
 _atom_site_type_symbol
 _atom_site_label
 _atom_site_symmetry_multiplicity
 _atom_site_fract_x
 _atom_site_fract_y
 _atom_site_fract_z
 _atom_site_occupancy
  Ti4+  Ti0  1  0.16508710  0.16788199  0.16697632  1
  Ti4+  Ti1  1  0.16855237  0.16747416  0.49692829  1
  Ti4+  Ti2  1  0.16820844  0.16408741  0.83073659  1
  Ti4+  Ti3  1  0.16444061  0.50044220  0.16680797  1
  Ti4+  Ti4  1  0.16733422  0.50069102  0.50056110  1
  Ti4+  Ti5  1  0.16923663  0.49732660  0.83603690  1
  Ti4+  Ti6  1  0.16296000  0.83577037  0.16774965  1
  Ti4+  Ti7  1  0.17316390  0.83353950  0.49868872  1
  Ti4+  Ti8  1  0.16268025  0.83273227  0.83198126  1
  Ti4+  Ti9  1  0.50044221  0.16659250  0.16780178  1
  Ti4+  Ti10  1  0.50032150  0.16506744  0.49968694  1
  Ti4+  Ti11  1  0.50482380  0.16709999  0.83414496  1
  Ti4+  Ti12  1  0.49989136  0.50054202  0.16771393  1
  Ti4+  Ti13  1  0.49880365  0.49903624  0.49906794  1
  Ti4+  Ti14  1  0.50194419  0.50084904  0.83425766  1
  Ti4+  Ti15  1  0.49815373  0.83324177  0.16688597  1
  Ti4+  Ti16  1  0.50188934  0.83097095  0.49847637  1
  Ti4+  Ti17  1  0.49893616  0.83374055  0.83050120  1
  Ti4+  Ti18  1  0.83296679  0.16860629  0.16741441  1
  Ti4+  Ti19  1  0.83413244  0.17146171  0.50064754  1
  Ti4+  Ti20  1  0.83090067  0.16264593  0.83403538  1
  Ti4+  Ti21  1  0.83387333  0.49814981  0.16256458  1
  Ti4+  Ti22  1  0.83315941  0.50038614  0.49976069  1
  Ti4+  Ti23  1  0.83551748  0.49876932  0.83310418  1
  Ti4+  Ti24  1  0.83031983  0.83099688  0.16968940  1
  Ti4+  Ti25  1  0.83468821  0.83295335  0.50029918  1
  Ti4+  Ti26  1  0.83274351  0.83696519  0.83675136  1
  Cu+  Cu27  1  0.16936912  0.16554601  -0.00371034  1
  Cu+  Cu28  1  0.16106852  0.17007233  0.33430008  1
  Cu+  Cu29  1  0.17070162  0.16487785  0.66209594  1
  Cu+  Cu30  1  0.16817708  0.49892396  0.00134717  1
  Cu+  Cu31  1  0.16612447  0.50143176  0.33248710  1
  Cu+  Cu32  1  0.16756106  0.49930962  0.67020994  1
  Cu+  Cu33  1  0.16197206  0.83453812  -0.00119916  1
  Cu+  Cu34  1  0.16938584  0.84099756  0.33436384  1
  Cu+  Cu35  1  0.16677925  0.82909669  0.66273764  1
  Cu+  Cu36  1  0.49963647  0.16515609  0.00410211  1
  Cu+  Cu37  1  0.49861325  0.16785027  0.33459266  1
  Cu+  Cu38  1  0.50738522  0.16752569  0.66541788  1
  Cu+  Cu39  1  0.50089372  0.50076999  0.00092602  1
  Cu+  Cu40  1  0.49859335  0.49945870  0.33267018  1
  Cu+  Cu41  1  0.49962385  0.50027441  0.66880882  1
  Cu+  Cu42  1  0.49676165  0.83393853  -0.00187272  1
  Cu+  Cu43  1  0.50137512  0.83517771  0.33260477  1
  Cu+  Cu44  1  0.49878146  0.82799070  0.66202917  1
  Cu+  Cu45  1  0.82685752  0.16722002  0.00348339  1
  Cu+  Cu46  1  0.83612948  0.17172841  0.33393692  1
  Cu+  Cu47  1  0.83302625  0.16807420  0.66847141  1
  Cu+  Cu48  1  0.83757138  0.49467469  -0.00330657  1
  Cu+  Cu49  1  0.83195401  0.50021185  0.33145008  1
  Cu+  Cu50  1  0.83348863  0.50076182  0.66379383  1
  Cu+  Cu51  1  0.83049480  0.82826585  0.00708326  1
  Cu+  Cu52  1  0.83345898  0.83428215  0.33487155  1
  Cu+  Cu53  1  0.83581497  0.83699811  0.66758793  1
  Cu+  Cu54  1  0.16498152  0.00235357  0.17112743  1
  Cu+  Cu55  1  0.17186555  -0.00157798  0.49413988  1
  Cu+  Cu56  1  0.16157736  -0.00129151  0.83264388  1
  Cu+  Cu57  1  0.16731111  0.33594500  0.16461999  1
  Cu+  Cu58  1  0.16792626  0.33503921  0.49799136  1
  Cu+  Cu59  1  0.17318249  0.32914487  0.83590336  1
  Cu+  Cu60  1  0.16229949  0.66738780  0.16733949  1
  Cu+  Cu61  1  0.17004142  0.66789550  0.50233134  1
  Cu+  Cu62  1  0.16504112  0.66312549  0.83193629  1
  Cu+  Cu63  1  0.50324972  0.00143339  0.17051204  1
  Cu+  Cu64  1  0.49940817  -0.00288163  0.49919782  1
  Cu+  Cu65  1  0.50595108  -0.00143123  0.83290789  1
  Cu+  Cu66  1  0.49977436  0.33540960  0.16754348  1
  Cu+  Cu67  1  0.49700175  0.33182004  0.49954154  1
  Cu+  Cu68  1  0.50230660  0.33708674  0.83573654  1
  Cu+  Cu69  1  0.49655933  0.66657581  0.16441952  1
  Cu+  Cu70  1  0.50040576  0.66513565  0.49879400  1
  Cu+  Cu71  1  0.50041183  0.66667311  0.83157997  1
  Cu+  Cu72  1  0.83279702  -0.00401644  0.17073393  1
  Cu+  Cu73  1  0.83353664  0.00589278  0.50077958  1
  Cu+  Cu74  1  0.82617167  0.00110047  0.83609806  1
  Cu+  Cu75  1  0.83212388  0.33354582  0.16241346  1
  Cu+  Cu76  1  0.83398433  0.33835285  0.49983964  1
  Cu+  Cu77  1  0.83173831  0.33049386  0.83353996  1
  Cu+  Cu78  1  0.83713758  0.66608632  0.16417410  1
  Cu+  Cu79  1  0.83292274  0.66541415  0.49926920  1
  Cu+  Cu80  1  0.83545042  0.66611639  0.83615703  1
  Cu+  Cu81  1  -0.00005560  0.16668086  0.17156856  1
  Cu+  Cu82  1  0.00265658  0.17130484  0.49756487  1
  Cu+  Cu83  1  0.00178683  0.15553857  0.83553420  1
  Cu+  Cu84  1  -0.00256404  0.50040808  0.16398460  1
  Cu+  Cu85  1  -0.00165206  0.50052973  0.50029904  1
  Cu+  Cu86  1  0.00523551  0.49874013  0.83323892  1
  Cu+  Cu87  1  -0.00673408  0.83118258  0.16862078  1
  Cu+  Cu88  1  0.00528700  0.83232970  0.50091454  1
  Cu+  Cu89  1  -0.00586725  0.83202477  0.82963044  1
  Cu+  Cu90  1  0.33428585  0.16525206  0.16644152  1
  Cu+  Cu91  1  0.33654878  0.16766796  0.49440837  1
  Cu+  Cu92  1  0.33547118  0.16854998  0.83504213  1
  Cu+  Cu93  1  0.33234564  0.50128133  0.16687192  1
  Cu+  Cu94  1  0.33175461  0.49962309  0.50133740  1
  Cu+  Cu95  1  0.33672863  0.49831787  0.83667525  1
  Cu+  Cu96  1  0.32940804  0.83597862  0.16568887  1
  Cu+  Cu97  1  0.33859420  0.83044526  0.49712729  1
  Cu+  Cu98  1  0.33014000  0.83215473  0.83053737  1
  Cu+  Cu99  1  0.66632357  0.16947158  0.16480474  1
  Cu+  Cu100  1  0.66574254  0.17002507  0.50511088  1
  Cu+  Cu101  1  0.66773931  0.15969904  0.82903662  1
  Cu+  Cu102  1  0.66616340  0.49623177  0.16693880  1
  Cu+  Cu103  1  0.66632382  0.50046452  0.49894511  1
  Cu+  Cu104  1  0.66667576  0.50070872  0.83369540  1
  Cu+  Cu105  1  0.66345864  0.83427474  0.17099326  1
  Cu+  Cu106  1  0.66713754  0.83120223  0.49998811  1
  Cu+  Cu107  1  0.66547258  0.84244930  0.83576345  1
  Cu+  Cu108  1  0.07694292  0.74005425  0.58607437  1
  Cu+  Cu109  1  0.58700802  0.06923617  0.73399097  1
  Cu+  Cu110  1  0.58883856  0.26595438  0.58991938  1
  Cu+  Cu111  1  0.73477825  0.26268010  0.07352236  1
  Cu+  Cu112  1  0.92741554  0.74014298  0.07398470  1
  Cu+  Cu113  1  0.73923558  0.07451409  0.93379284  1
  Cu+  Cu114  1  0.40907727  0.26197716  0.40375202  1
  Cu+  Cu115  1  0.73935448  0.91981357  0.73471155  1
  Cu+  Cu116  1  0.07324117  0.26777458  0.41195266  1
  Cu+  Cu117  1  0.26285356  0.93095038  0.25646421  1
  Cu+  Cu118  1  0.07361498  0.92402499  0.41467997  1
  Cu+  Cu119  1  0.92394849  0.59196786  0.26047949  1
  Cu+  Cu120  1  0.58616184  0.92504353  0.93182712  1
  Cu+  Cu121  1  0.07633612  0.58686303  0.74129621  1
  Cu+  Cu122  1  0.73766888  0.40910868  0.26170011  1
  Cu+  Cu123  1  0.26445181  0.25858829  0.92818016  1
  Cu+  Cu124  1  0.92960131  0.40194167  0.06834045  1
  Cu+  Cu125  1  0.91241956  0.73804310  0.73895610  1
  Cu+  Cu126  1  0.07373751  0.07700452  0.26288920  1
  Cu+  Cu127  1  0.59254868  0.92913959  0.26408896  1
  Cu+  Cu128  1  0.74408038  0.26329563  0.74096317  1
  Cu+  Cu129  1  0.92447465  0.26334090  0.25735120  1
  Cu+  Cu130  1  0.93090747  0.07936139  0.73478401  1
  Cu+  Cu131  1  0.07864514  0.07020499  0.92986831  1
  Cu+  Cu132  1  0.92025097  0.92480322  0.26126049  1
  Te2-  Te133  1  0.25298941  0.25179875  0.08188362  1
  Te2-  Te134  1  0.25356693  0.25493715  0.41039354  1
  Te2-  Te135  1  0.25475409  0.24914408  0.74476738  1
  Te2-  Te136  1  0.24980727  0.58677788  0.08330813  1
  Te2-  Te137  1  0.25150629  0.58535077  0.41500896  1
  Te2-  Te138  1  0.25548767  0.58320138  0.75054132  1
  Te2-  Te139  1  0.24634847  0.92066652  0.08048271  1
  Te2-  Te140  1  0.26245002  0.92071887  0.41283386  1
  Te2-  Te141  1  0.24723299  0.91701084  0.74686530  1
  Te2-  Te142  1  0.58360678  0.25526394  0.08025876  1
  Te2-  Te143  1  0.58683872  0.25240147  0.41443619  1
  Te2-  Te144  1  0.58976104  0.25846119  0.74850848  1
  Te2-  Te145  1  0.58616858  0.58529652  0.08278921  1
  Te2-  Te146  1  0.58429744  0.58344577  0.41364367  1
  Te2-  Te147  1  0.58699781  0.58598849  0.74731813  1
  Te2-  Te148  1  0.58570811  0.91972712  0.08190108  1
  Te2-  Te149  1  0.58902364  0.92010589  0.41515707  1
  Te2-  Te150  1  0.58609621  0.91771477  0.73742240  1
  Te2-  Te151  1  0.92227149  0.24908362  0.07743645  1
  Te2-  Te152  1  0.92051947  0.25945003  0.41374558  1
  Te2-  Te153  1  0.92200466  0.24802926  0.75255485  1
  Te2-  Te154  1  0.92029844  0.58554313  0.07428080  1
  Te2-  Te155  1  0.91990514  0.58655785  0.41374180  1
  Te2-  Te156  1  0.92067710  0.58504738  0.74508547  1
  Te2-  Te157  1  0.91593301  0.91870143  0.08194182  1
  Te2-  Te158  1  0.91999155  0.92251274  0.41636012  1
  Te2-  Te159  1  0.91865029  0.92583654  0.74910472  1
  Te2-  Te160  1  0.25256137  0.08519251  0.25555330  1
  Te2-  Te161  1  0.25511620  0.08137564  0.57945988  1
  Te2-  Te162  1  0.25431724  0.07680902  0.91566142  1
  Te2-  Te163  1  0.25092172  0.41612542  0.25150553  1
  Te2-  Te164  1  0.25095524  0.41470587  0.58630184  1
  Te2-  Te165  1  0.25647702  0.41286490  0.92346510  1
  Te2-  Te166  1  0.24801713  0.74934156  0.25113361  1
  Te2-  Te167  1  0.25860392  0.74749042  0.58506946  1
  Te2-  Te168  1  0.24735068  0.74895369  0.91705364  1
  Te2-  Te169  1  0.58903451  0.08477673  0.25585448  1
  Te2-  Te170  1  0.58832470  0.07537661  0.58271232  1
  Te2-  Te171  1  0.58780096  0.07959304  0.92625494  1
  Te2-  Te172  1  0.58486789  0.41230312  0.25524020  1
  Te2-  Te173  1  0.58573567  0.41565639  0.58646821  1
  Te2-  Te174  1  0.58799245  0.41604053  0.92116560  1
  Te2-  Te175  1  0.58212686  0.74534279  0.25148560  1
  Te2-  Te176  1  0.58707925  0.74457893  0.58366415  1
  Te2-  Te177  1  0.58529468  0.74968422  0.91636268  1
  Te2-  Te178  1  0.91783245  0.07932099  0.25698873  1
  Te2-  Te179  1  0.92186663  0.08490422  0.58333785  1
  Te2-  Te180  1  0.91562367  0.07832239  0.92567432  1
  Te2-  Te181  1  0.92025945  0.41339444  0.25261273  1
  Te2-  Te182  1  0.91984094  0.41531215  0.58595206  1
  Te2-  Te183  1  0.92311016  0.40932968  0.91459477  1
  Te2-  Te184  1  0.91827991  0.74478802  0.25832617  1
  Te2-  Te185  1  0.92050846  0.74534272  0.58600070  1
  Te2-  Te186  1  0.91895181  0.74803159  0.92175434  1
  Te2-  Te187  1  0.07954247  0.26052963  0.25282505  1
  Te2-  Te188  1  0.08479844  0.25259826  0.58503597  1
  Te2-  Te189  1  0.07976978  0.24894604  0.91596352  1
  Te2-  Te190  1  0.07790647  0.58649030  0.25347507  1
  Te2-  Te191  1  0.07885626  0.58633868  0.58707885  1
  Te2-  Te192  1  0.08249521  0.58390322  0.92162035  1
  Te2-  Te193  1  0.07270531  0.92221888  0.25654159  1
  Te2-  Te194  1  0.08612325  0.92171754  0.58410017  1
  Te2-  Te195  1  0.07452072  0.91737215  0.91837563  1
  Te2-  Te196  1  0.41292199  0.25405087  0.25102045  1
  Te2-  Te197  1  0.41418464  0.24907650  0.58829703  1
  Te2-  Te198  1  0.41904592  0.25281576  0.92091963  1
  Te2-  Te199  1  0.41346776  0.58567598  0.25224651  1
  Te2-  Te200  1  0.41516651  0.58436653  0.58497755  1
  Te2-  Te201  1  0.41662908  0.58682293  0.91967733  1
  Te2-  Te202  1  0.41337183  0.92129130  0.25325011  1
  Te2-  Te203  1  0.41531183  0.91666414  0.58426500  1
  Te2-  Te204  1  0.41241902  0.91979238  0.91424644  1
  Te2-  Te205  1  0.74549271  0.25403493  0.25432841  1
  Te2-  Te206  1  0.74818219  0.25852467  0.58756366  1
  Te2-  Te207  1  0.74253464  0.25191826  0.91850614  1
  Te2-  Te208  1  0.74829790  0.58571197  0.24767804  1
  Te2-  Te209  1  0.74712262  0.58569376  0.58458889  1
  Te2-  Te210  1  0.75063606  0.58339771  0.91898424  1
  Te2-  Te211  1  0.74503787  0.91999809  0.25733203  1
  Te2-  Te212  1  0.74814697  0.92027546  0.58233479  1
  Te2-  Te213  1  0.74607387  0.91953590  0.93017945  1
  Te2-  Te214  1  0.07979141  0.08134388  0.08123294  1
  Te2-  Te215  1  0.07732861  0.07799623  0.41386739  1
  Te2-  Te216  1  0.08349121  0.07857181  0.73955595  1
  Te2-  Te217  1  0.08044518  0.41289932  0.07841642  1
  Te2-  Te218  1  0.07928333  0.41783685  0.41291713  1
  Te2-  Te219  1  0.08532494  0.40911646  0.75030164  1
  Te2-  Te220  1  0.07892239  0.74850310  0.08146666  1
  Te2-  Te221  1  0.08607429  0.74751709  0.41235634  1
  Te2-  Te222  1  0.07560098  0.74395628  0.74360643  1
  Te2-  Te223  1  0.41581806  0.07919859  0.08397569  1
  Te2-  Te224  1  0.41635813  0.07770733  0.41298867  1
  Te2-  Te225  1  0.41909208  0.08350171  0.74934134  1
  Te2-  Te226  1  0.41431604  0.41599663  0.08205867  1
  Te2-  Te227  1  0.41091194  0.41433473  0.41286842  1
  Te2-  Te228  1  0.41581919  0.41396130  0.74931514  1
  Te2-  Te229  1  0.41153458  0.75036929  0.08068824  1
  Te2-  Te230  1  0.41774237  0.74596994  0.41134341  1
  Te2-  Te231  1  0.41390626  0.74733562  0.74707110  1
  Te2-  Te232  1  0.74629485  0.07629865  0.08736672  1
  Te2-  Te233  1  0.74855748  0.08768058  0.41571705  1
  Te2-  Te234  1  0.74414868  0.07501065  0.73917329  1
  Te2-  Te235  1  0.74457937  0.41438624  0.07452228  1
  Te2-  Te236  1  0.74560655  0.41408856  0.41401400  1
  Te2-  Te237  1  0.74817163  0.41642553  0.74664806  1
  Te2-  Te238  1  0.74224306  0.74542128  0.08642824  1
  Te2-  Te239  1  0.74959876  0.74823463  0.41513952  1
  Te2-  Te240  1  0.74790591  0.75030872  0.75133254  1
