# generated using pymatgen
data_Ti27(Cu53Te54)2
_symmetry_space_group_name_H-M   'P 1'
_cell_length_a   17.90071422
_cell_length_b   17.89728095
_cell_length_c   17.89862476
_cell_angle_alpha   89.93221206
_cell_angle_beta   90.01659020
_cell_angle_gamma   89.98614888
_symmetry_Int_Tables_number   1
_chemical_formula_structural   Ti27(Cu53Te54)2
_chemical_formula_sum   'Ti27 Cu106 Te108'
_cell_volume   5734.25158374
_cell_formula_units_Z   1
loop_
 _symmetry_equiv_pos_site_id
 _symmetry_equiv_pos_as_xyz
  1  'x, y, z'
loop_
 _atom_type_symbol
 _atom_type_oxidation_number
  Ti4+  4.0
  Cu+  1.0
  Te2-  -2.0
loop_
 _atom_site_type_symbol
 _atom_site_label
 _atom_site_symmetry_multiplicity
 _atom_site_fract_x
 _atom_site_fract_y
 _atom_site_fract_z
 _atom_site_occupancy
  Ti4+  Ti0  1  0.16577533  0.16657172  0.16956108  1
  Ti4+  Ti1  1  0.16754161  0.16855237  0.49463370  1
  Ti4+  Ti2  1  0.16527970  0.16790057  0.83493897  1
  Ti4+  Ti3  1  0.16754680  0.50029417  0.16922108  1
  Ti4+  Ti4  1  0.16899627  0.49728727  0.50199912  1
  Ti4+  Ti5  1  0.16550114  0.49946926  0.83530094  1
  Ti4+  Ti6  1  0.16747654  0.83260506  0.16697255  1
  Ti4+  Ti7  1  0.16445364  0.83637348  0.49978954  1
  Ti4+  Ti8  1  0.16867804  0.83255241  0.83348668  1
  Ti4+  Ti9  1  0.50175300  0.16369060  0.16830750  1
  Ti4+  Ti10  1  0.49889689  0.16431844  0.50313104  1
  Ti4+  Ti11  1  0.49730532  0.16661653  0.83574758  1
  Ti4+  Ti12  1  0.49986391  0.49752315  0.16469873  1
  Ti4+  Ti13  1  0.50091494  0.50013902  0.49812930  1
  Ti4+  Ti14  1  0.49959725  0.49836776  0.82915880  1
  Ti4+  Ti15  1  0.49940149  0.83323509  0.16309259  1
  Ti4+  Ti16  1  0.49730428  0.83361708  0.49976336  1
  Ti4+  Ti17  1  0.50339551  0.83258715  0.83270885  1
  Ti4+  Ti18  1  0.83030483  0.16402630  0.16400143  1
  Ti4+  Ti19  1  0.83334508  0.16372188  0.49913562  1
  Ti4+  Ti20  1  0.83202648  0.16968562  0.83200998  1
  Ti4+  Ti21  1  0.83166679  0.49942212  0.17252264  1
  Ti4+  Ti22  1  0.83650707  0.50259335  0.49711310  1
  Ti4+  Ti23  1  0.83231253  0.50249587  0.83411261  1
  Ti4+  Ti24  1  0.83317853  0.83149483  0.16745390  1
  Ti4+  Ti25  1  0.83205956  0.83902474  0.49729350  1
  Ti4+  Ti26  1  0.83555827  0.83351877  0.83195520  1
  Cu+  Cu27  1  0.16307497  0.16828487  0.00241224  1
  Cu+  Cu28  1  0.17636048  0.16991020  0.32872798  1
  Cu+  Cu29  1  0.16517496  0.17162882  0.66664921  1
  Cu+  Cu30  1  0.16582282  0.50067049  0.00147261  1
  Cu+  Cu31  1  0.16465087  0.49365148  0.33613735  1
  Cu+  Cu32  1  0.16763136  0.49730319  0.67114490  1
  Cu+  Cu33  1  0.16879884  0.83036065  0.00025324  1
  Cu+  Cu34  1  0.16664855  0.83481279  0.33496190  1
  Cu+  Cu35  1  0.16591552  0.83418814  0.67041858  1
  Cu+  Cu36  1  0.50143470  0.16566530  0.00377758  1
  Cu+  Cu37  1  0.50111073  0.16245867  0.33910660  1
  Cu+  Cu38  1  0.49735406  0.16386321  0.67370302  1
  Cu+  Cu39  1  0.49802886  0.49620962  -0.00553010  1
  Cu+  Cu40  1  0.50119687  0.49973972  0.32952630  1
  Cu+  Cu41  1  0.49926539  0.49820748  0.66275123  1
  Cu+  Cu42  1  0.50087329  0.83341868  -0.00296179  1
  Cu+  Cu43  1  0.49440483  0.83360245  0.32908091  1
  Cu+  Cu44  1  0.50095806  0.83480328  0.66539507  1
  Cu+  Cu45  1  0.83055602  0.16763484  -0.00438794  1
  Cu+  Cu46  1  0.83058813  0.16063332  0.32983776  1
  Cu+  Cu47  1  0.83058334  0.17123788  0.66815233  1
  Cu+  Cu48  1  0.83066665  0.49828966  0.00532886  1
  Cu+  Cu49  1  0.83382643  0.50882986  0.33487420  1
  Cu+  Cu50  1  0.83598434  0.50256035  0.66539350  1
  Cu+  Cu51  1  0.83304900  0.83194377  -0.00011969  1
  Cu+  Cu52  1  0.83297574  0.82945119  0.33443730  1
  Cu+  Cu53  1  0.83429827  0.83972733  0.66485851  1
  Cu+  Cu54  1  0.16463963  0.00027981  0.16658887  1
  Cu+  Cu55  1  0.15829622  0.00354720  0.49470865  1
  Cu+  Cu56  1  0.16795465  -0.00087312  0.83371513  1
  Cu+  Cu57  1  0.16473398  0.33466072  0.17403234  1
  Cu+  Cu58  1  0.17583413  0.33253801  0.49976552  1
  Cu+  Cu59  1  0.16384818  0.33383363  0.83364029  1
  Cu+  Cu60  1  0.17176887  0.67122158  0.16619345  1
  Cu+  Cu61  1  0.16743612  0.66565320  0.50017672  1
  Cu+  Cu62  1  0.16748102  0.66424003  0.83540011  1
  Cu+  Cu63  1  0.50177909  -0.00123016  0.16209049  1
  Cu+  Cu64  1  0.50108568  -0.00322578  0.50354375  1
  Cu+  Cu65  1  0.50274970  0.00117130  0.83017967  1
  Cu+  Cu66  1  0.50000081  0.33050840  0.16510632  1
  Cu+  Cu67  1  0.49881452  0.33247781  0.50351214  1
  Cu+  Cu68  1  0.49373073  0.33436484  0.83627245  1
  Cu+  Cu69  1  0.50009236  0.66527186  0.16313055  1
  Cu+  Cu70  1  0.49712942  0.66757128  0.49874902  1
  Cu+  Cu71  1  0.50457504  0.66348871  0.83123409  1
  Cu+  Cu72  1  0.82688318  -0.00366733  0.16597857  1
  Cu+  Cu73  1  0.84258394  0.00197778  0.50017690  1
  Cu+  Cu74  1  0.83357664  0.00175916  0.83156160  1
  Cu+  Cu75  1  0.83240383  0.32942539  0.16977745  1
  Cu+  Cu76  1  0.83511128  0.33493840  0.49928755  1
  Cu+  Cu77  1  0.83113653  0.33669461  0.83275136  1
  Cu+  Cu78  1  0.83422768  0.66501047  0.16943457  1
  Cu+  Cu79  1  0.83202016  0.67150369  0.49405572  1
  Cu+  Cu80  1  0.83146972  0.66939373  0.83418325  1
  Cu+  Cu81  1  -0.00433487  0.17090379  0.16742094  1
  Cu+  Cu82  1  0.00212902  0.15926027  0.49787172  1
  Cu+  Cu83  1  -0.00235218  0.17008988  0.83102002  1
  Cu+  Cu84  1  0.00158644  0.49520968  0.17536721  1
  Cu+  Cu85  1  0.00565177  0.50299920  0.49964099  1
  Cu+  Cu86  1  -0.00156944  0.50178193  0.83552593  1
  Cu+  Cu87  1  0.00027831  0.83321539  0.16588239  1
  Cu+  Cu88  1  -0.00232407  0.84475008  0.49713307  1
  Cu+  Cu89  1  0.00306637  0.83251598  0.83334873  1
  Cu+  Cu90  1  0.33506556  0.16686686  0.16973836  1
  Cu+  Cu91  1  0.33121095  0.16738712  0.50086268  1
  Cu+  Cu92  1  0.33050771  0.16710480  0.83724326  1
  Cu+  Cu93  1  0.33774050  0.50085720  0.16231908  1
  Cu+  Cu94  1  0.33531928  0.49567607  0.49864433  1
  Cu+  Cu95  1  0.33292539  0.49500579  0.83382410  1
  Cu+  Cu96  1  0.33296892  0.83132001  0.16271273  1
  Cu+  Cu97  1  0.33168255  0.83244366  0.49946120  1
  Cu+  Cu98  1  0.33648088  0.83320339  0.83199846  1
  Cu+  Cu99  1  0.66707329  0.15651651  0.16661417  1
  Cu+  Cu100  1  0.66506708  0.16219691  0.49976138  1
  Cu+  Cu101  1  0.66605877  0.16873024  0.83307673  1
  Cu+  Cu102  1  0.66238691  0.50145049  0.17058280  1
  Cu+  Cu103  1  0.67008375  0.50113449  0.49634107  1
  Cu+  Cu104  1  0.66510507  0.50378934  0.83163134  1
  Cu+  Cu105  1  0.66591959  0.83140718  0.16491294  1
  Cu+  Cu106  1  0.66213129  0.83922615  0.50265003  1
  Cu+  Cu107  1  0.67420212  0.82890570  0.83352303  1
  Cu+  Cu108  1  0.74579953  0.74012770  0.93036028  1
  Cu+  Cu109  1  0.58986236  0.58818847  0.92493815  1
  Cu+  Cu110  1  0.26303070  0.74104868  0.06826517  1
  Cu+  Cu111  1  0.26867603  0.26393791  0.24861971  1
  Cu+  Cu112  1  0.26112493  0.07335958  0.40691791  1
  Cu+  Cu113  1  0.59141441  0.92460363  0.59657585  1
  Cu+  Cu114  1  0.93166977  0.59641462  0.25071980  1
  Cu+  Cu115  1  0.26068656  0.73920548  0.41136137  1
  Cu+  Cu116  1  0.08013440  0.07944141  0.59778069  1
  Cu+  Cu117  1  0.92710835  0.74506931  0.41291118  1
  Cu+  Cu118  1  0.26659272  0.40953770  0.40663963  1
  Cu+  Cu119  1  0.91780496  0.25530656  0.26181366  1
  Cu+  Cu120  1  0.07332691  0.92847156  0.39946220  1
  Cu+  Cu121  1  0.59091887  0.07021890  0.41132156  1
  Cu+  Cu122  1  0.26087953  0.25720548  0.59878122  1
  Cu+  Cu123  1  0.73915922  0.06616105  0.26034470  1
  Cu+  Cu124  1  0.59594766  0.07786638  0.74508225  1
  Cu+  Cu125  1  0.59284816  0.06993702  0.06990766  1
  Cu+  Cu126  1  0.58432478  0.59653888  0.25919605  1
  Cu+  Cu127  1  0.73670109  0.59798085  0.41101047  1
  Cu+  Cu128  1  0.92797202  0.08025153  0.39903948  1
  Cu+  Cu129  1  0.08461988  0.59193485  0.40811175  1
  Cu+  Cu130  1  0.07142564  0.40365001  0.26605074  1
  Cu+  Cu131  1  0.92683427  0.92720907  0.59872909  1
  Cu+  Cu132  1  0.40154811  0.40526207  0.92651314  1
  Te2-  Te133  1  0.25006394  0.25300906  0.08503987  1
  Te2-  Te134  1  0.26060024  0.25633899  0.40802566  1
  Te2-  Te135  1  0.25286352  0.25460705  0.75016044  1
  Te2-  Te136  1  0.25314560  0.58521071  0.08101592  1
  Te2-  Te137  1  0.25474182  0.58408674  0.41266567  1
  Te2-  Te138  1  0.25307310  0.58327106  0.75028572  1
  Te2-  Te139  1  0.25063396  0.92023374  0.08124344  1
  Te2-  Te140  1  0.25347582  0.92200883  0.41431825  1
  Te2-  Te141  1  0.25386008  0.91889642  0.74828508  1
  Te2-  Te142  1  0.58845225  0.24951022  0.08424857  1
  Te2-  Te143  1  0.58420049  0.25115524  0.41856303  1
  Te2-  Te144  1  0.58137648  0.25471764  0.75067019  1
  Te2-  Te145  1  0.58535739  0.58376985  0.07734546  1
  Te2-  Te146  1  0.58519311  0.58988712  0.41204184  1
  Te2-  Te147  1  0.58519318  0.58410763  0.74123770  1
  Te2-  Te148  1  0.58851074  0.91679982  0.07713645  1
  Te2-  Te149  1  0.58274699  0.91786212  0.40899934  1
  Te2-  Te150  1  0.59268509  0.91842414  0.74799957  1
  Te2-  Te151  1  0.91472868  0.25194940  0.07862262  1
  Te2-  Te152  1  0.91901374  0.25030404  0.41452537  1
  Te2-  Te153  1  0.91670957  0.25642185  0.74700517  1
  Te2-  Te154  1  0.92003638  0.58101389  0.08644779  1
  Te2-  Te155  1  0.92834739  0.59161474  0.41044766  1
  Te2-  Te156  1  0.91790291  0.58776815  0.74980095  1
  Te2-  Te157  1  0.91683553  0.91728992  0.08200278  1
  Te2-  Te158  1  0.91931558  0.92560959  0.40308772  1
  Te2-  Te159  1  0.92344336  0.92205104  0.74947000  1
  Te2-  Te160  1  0.25523403  0.07540635  0.25106749  1
  Te2-  Te161  1  0.24807496  0.08001687  0.58425504  1
  Te2-  Te162  1  0.24870518  0.08237926  0.92184573  1
  Te2-  Te163  1  0.26061529  0.41583291  0.25333507  1
  Te2-  Te164  1  0.25606287  0.41348904  0.59114730  1
  Te2-  Te165  1  0.24960379  0.41129003  0.92252220  1
  Te2-  Te166  1  0.25552329  0.74873753  0.25651955  1
  Te2-  Te167  1  0.24869900  0.74992506  0.58588703  1
  Te2-  Te168  1  0.25637275  0.74549845  0.91708246  1
  Te2-  Te169  1  0.58533452  0.07332880  0.25703755  1
  Te2-  Te170  1  0.58689215  0.07905449  0.59198563  1
  Te2-  Te171  1  0.58706567  0.08059439  0.91946831  1
  Te2-  Te172  1  0.58426226  0.41034548  0.25123212  1
  Te2-  Te173  1  0.58794813  0.41605016  0.58200535  1
  Te2-  Te174  1  0.58785302  0.41256081  0.91545281  1
  Te2-  Te175  1  0.58407009  0.74873036  0.25175209  1
  Te2-  Te176  1  0.58408855  0.74695126  0.58385696  1
  Te2-  Te177  1  0.58939575  0.74536025  0.92051194  1
  Te2-  Te178  1  0.91988939  0.07483890  0.24691312  1
  Te2-  Te179  1  0.92112161  0.08249853  0.59337199  1
  Te2-  Te180  1  0.91786997  0.08348241  0.91645440  1
  Te2-  Te181  1  0.91689156  0.41030099  0.26089801  1
  Te2-  Te182  1  0.92083833  0.41756661  0.58317553  1
  Te2-  Te183  1  0.91561194  0.41686085  0.92036381  1
  Te2-  Te184  1  0.92319392  0.74753490  0.25451467  1
  Te2-  Te185  1  0.91839739  0.75248188  0.58150675  1
  Te2-  Te186  1  0.92087397  0.74811961  0.91880817  1
  Te2-  Te187  1  0.07628698  0.25227544  0.25841053  1
  Te2-  Te188  1  0.07962833  0.25393071  0.57904810  1
  Te2-  Te189  1  0.07889846  0.25279491  0.91918550  1
  Te2-  Te190  1  0.08443002  0.59173283  0.25478505  1
  Te2-  Te191  1  0.08533556  0.58423958  0.58876304  1
  Te2-  Te192  1  0.08081837  0.58540795  0.92084812  1
  Te2-  Te193  1  0.07910588  0.91982392  0.25058502  1
  Te2-  Te194  1  0.07993349  0.92290396  0.59127778  1
  Te2-  Te195  1  0.08364904  0.91702004  0.91964868  1
  Te2-  Te196  1  0.41937251  0.25151937  0.25658907  1
  Te2-  Te197  1  0.41425679  0.25080992  0.58960533  1
  Te2-  Te198  1  0.41190079  0.25049273  0.92461478  1
  Te2-  Te199  1  0.41444651  0.58578582  0.25002218  1
  Te2-  Te200  1  0.41355560  0.58402060  0.58253145  1
  Te2-  Te201  1  0.41359781  0.58583053  0.91527837  1
  Te2-  Te202  1  0.41314682  0.91929555  0.24631159  1
  Te2-  Te203  1  0.41073694  0.91774473  0.58637816  1
  Te2-  Te204  1  0.41802493  0.91913262  0.91558617  1
  Te2-  Te205  1  0.74345462  0.24819829  0.25198071  1
  Te2-  Te206  1  0.74766631  0.25125893  0.58073365  1
  Te2-  Te207  1  0.74586585  0.25477687  0.91715547  1
  Te2-  Te208  1  0.74198172  0.59086619  0.25529777  1
  Te2-  Te209  1  0.75132753  0.58790405  0.58252762  1
  Te2-  Te210  1  0.74588491  0.58714369  0.92422492  1
  Te2-  Te211  1  0.74438293  0.91411237  0.25419501  1
  Te2-  Te212  1  0.74737996  0.92562893  0.58476441  1
  Te2-  Te213  1  0.75005710  0.91999276  0.91775980  1
  Te2-  Te214  1  0.07874192  0.08377582  0.08447926  1
  Te2-  Te215  1  0.08007109  0.08300459  0.40056274  1
  Te2-  Te216  1  0.08020209  0.08149826  0.74931067  1
  Te2-  Te217  1  0.08210069  0.41509539  0.08440457  1
  Te2-  Te218  1  0.07908607  0.40746190  0.41855399  1
  Te2-  Te219  1  0.07852745  0.41534331  0.75004020  1
  Te2-  Te220  1  0.08042698  0.74709149  0.08201857  1
  Te2-  Te221  1  0.07814751  0.74758563  0.41313579  1
  Te2-  Te222  1  0.08279755  0.74588997  0.74928985  1
  Te2-  Te223  1  0.41257206  0.08178218  0.08261078  1
  Te2-  Te224  1  0.41277041  0.07703021  0.41733832  1
  Te2-  Te225  1  0.40915849  0.08049625  0.75205948  1
  Te2-  Te226  1  0.41375178  0.41001129  0.07918382  1
  Te2-  Te227  1  0.41878537  0.41140820  0.41130128  1
  Te2-  Te228  1  0.41329544  0.41290200  0.74355375  1
  Te2-  Te229  1  0.41604513  0.74585346  0.07651293  1
  Te2-  Te230  1  0.41250488  0.74704339  0.41168357  1
  Te2-  Te231  1  0.41912241  0.74776896  0.74799501  1
  Te2-  Te232  1  0.74765700  0.07660797  0.07374418  1
  Te2-  Te233  1  0.74573453  0.07390200  0.41484915  1
  Te2-  Te234  1  0.74746006  0.08105264  0.74562349  1
  Te2-  Te235  1  0.74637250  0.41436501  0.08829814  1
  Te2-  Te236  1  0.75179233  0.41524823  0.41215762  1
  Te2-  Te237  1  0.74796639  0.41943293  0.74656201  1
  Te2-  Te238  1  0.74798433  0.74426109  0.08343257  1
  Te2-  Te239  1  0.74013359  0.75321728  0.41438343  1
  Te2-  Te240  1  0.75199442  0.74898817  0.74132653  1
