# generated using pymatgen
data_Ti27(Cu53Te54)2
_symmetry_space_group_name_H-M   'P 1'
_cell_length_a   17.87429541
_cell_length_b   17.87403644
_cell_length_c   17.87293374
_cell_angle_alpha   90.01392629
_cell_angle_beta   90.02184930
_cell_angle_gamma   89.99463131
_symmetry_Int_Tables_number   1
_chemical_formula_structural   Ti27(Cu53Te54)2
_chemical_formula_sum   'Ti27 Cu106 Te108'
_cell_volume   5710.14805870
_cell_formula_units_Z   1
loop_
 _symmetry_equiv_pos_site_id
 _symmetry_equiv_pos_as_xyz
  1  'x, y, z'
loop_
 _atom_type_symbol
 _atom_type_oxidation_number
  Ti4+  4.0
  Cu+  1.0
  Te2-  -2.0
loop_
 _atom_site_type_symbol
 _atom_site_label
 _atom_site_symmetry_multiplicity
 _atom_site_fract_x
 _atom_site_fract_y
 _atom_site_fract_z
 _atom_site_occupancy
  Ti4+  Ti0  1  0.16812345  0.16729681  0.16166480  1
  Ti4+  Ti1  1  0.16650287  0.16665469  0.49714925  1
  Ti4+  Ti2  1  0.16456186  0.16789337  0.83306936  1
  Ti4+  Ti3  1  0.16616456  0.50098878  0.16518238  1
  Ti4+  Ti4  1  0.17067512  0.49751860  0.50280085  1
  Ti4+  Ti5  1  0.17032661  0.50049393  0.83385923  1
  Ti4+  Ti6  1  0.16601112  0.83431863  0.16770078  1
  Ti4+  Ti7  1  0.16454005  0.83413741  0.50201115  1
  Ti4+  Ti8  1  0.16390631  0.83217775  0.83206738  1
  Ti4+  Ti9  1  0.50111086  0.16359860  0.16665259  1
  Ti4+  Ti10  1  0.49942372  0.16763690  0.50264920  1
  Ti4+  Ti11  1  0.50423520  0.16734352  0.83492211  1
  Ti4+  Ti12  1  0.49867808  0.49855755  0.16680297  1
  Ti4+  Ti13  1  0.49911435  0.50221439  0.50171722  1
  Ti4+  Ti14  1  0.50264469  0.50040951  0.83713560  1
  Ti4+  Ti15  1  0.49957062  0.83377613  0.16458165  1
  Ti4+  Ti16  1  0.49849087  0.83528424  0.49986409  1
  Ti4+  Ti17  1  0.49839045  0.83722474  0.83597123  1
  Ti4+  Ti18  1  0.83794855  0.16689833  0.16902618  1
  Ti4+  Ti19  1  0.83136072  0.16336540  0.50053972  1
  Ti4+  Ti20  1  0.83219701  0.16740847  0.83191709  1
  Ti4+  Ti21  1  0.83109030  0.49975725  0.16646504  1
  Ti4+  Ti22  1  0.83552020  0.49908995  0.49771032  1
  Ti4+  Ti23  1  0.83274575  0.50175979  0.83140851  1
  Ti4+  Ti24  1  0.83539746  0.83267106  0.16732257  1
  Ti4+  Ti25  1  0.83268582  0.82931149  0.49677990  1
  Ti4+  Ti26  1  0.83175190  0.83387073  0.83444868  1
  Cu+  Cu27  1  0.16323289  0.17427464  -0.00107486  1
  Cu+  Cu28  1  0.16613320  0.16643487  0.32848007  1
  Cu+  Cu29  1  0.16589690  0.16597752  0.66677217  1
  Cu+  Cu30  1  0.17192184  0.49619141  0.00063274  1
  Cu+  Cu31  1  0.16715758  0.49865368  0.33375819  1
  Cu+  Cu32  1  0.17352829  0.50531468  0.66812752  1
  Cu+  Cu33  1  0.16350790  0.83164550  -0.00197092  1
  Cu+  Cu34  1  0.16743963  0.83386979  0.33657824  1
  Cu+  Cu35  1  0.16413428  0.83377740  0.66721355  1
  Cu+  Cu36  1  0.49930194  0.16159132  -0.00308558  1
  Cu+  Cu37  1  0.50302621  0.16580362  0.33637248  1
  Cu+  Cu38  1  0.50460354  0.16529655  0.67188856  1
  Cu+  Cu39  1  0.50053228  0.49934388  0.00524776  1
  Cu+  Cu40  1  0.49742621  0.50046062  0.33211815  1
  Cu+  Cu41  1  0.50022183  0.50003715  0.66953379  1
  Cu+  Cu42  1  0.49915332  0.84231163  0.00117497  1
  Cu+  Cu43  1  0.49956708  0.83324783  0.33244456  1
  Cu+  Cu44  1  0.49685395  0.83511623  0.66533439  1
  Cu+  Cu45  1  0.83888493  0.16644834  0.00162358  1
  Cu+  Cu46  1  0.82998095  0.16243654  0.33435657  1
  Cu+  Cu47  1  0.82884409  0.16946969  0.66712658  1
  Cu+  Cu48  1  0.83001584  0.49961759  -0.00309751  1
  Cu+  Cu49  1  0.83013168  0.50349187  0.33530710  1
  Cu+  Cu50  1  0.83588948  0.50127094  0.66073320  1
  Cu+  Cu51  1  0.83247589  0.83434470  0.00103897  1
  Cu+  Cu52  1  0.83683204  0.82531644  0.32973127  1
  Cu+  Cu53  1  0.83325741  0.83026010  0.66832300  1
  Cu+  Cu54  1  0.16603411  0.00176293  0.16734391  1
  Cu+  Cu55  1  0.16054467  0.00203573  0.50158153  1
  Cu+  Cu56  1  0.16478899  -0.00220420  0.83340946  1
  Cu+  Cu57  1  0.16765268  0.33525310  0.15751469  1
  Cu+  Cu58  1  0.17260695  0.32864151  0.50104182  1
  Cu+  Cu59  1  0.16802842  0.33576902  0.83374592  1
  Cu+  Cu60  1  0.16522710  0.66977475  0.16942111  1
  Cu+  Cu61  1  0.17041171  0.66491552  0.50410804  1
  Cu+  Cu62  1  0.16275232  0.66359458  0.83107772  1
  Cu+  Cu63  1  0.49847882  -0.00368386  0.16357206  1
  Cu+  Cu64  1  0.49957978  0.00064193  0.49922875  1
  Cu+  Cu65  1  0.50506793  0.00225076  0.84124825  1
  Cu+  Cu66  1  0.50362596  0.32966351  0.16700273  1
  Cu+  Cu67  1  0.49567852  0.33704467  0.50505161  1
  Cu+  Cu68  1  0.50272806  0.33240123  0.83630122  1
  Cu+  Cu69  1  0.49511915  0.66433888  0.16439792  1
  Cu+  Cu70  1  0.49977722  0.67144471  0.49917786  1
  Cu+  Cu71  1  0.50106004  0.66904155  0.83503820  1
  Cu+  Cu72  1  0.84078528  0.00132869  0.16908202  1
  Cu+  Cu73  1  0.83425091  -0.00436088  0.50179451  1
  Cu+  Cu74  1  0.83180127  0.00063897  0.83445169  1
  Cu+  Cu75  1  0.83515759  0.33351673  0.16939745  1
  Cu+  Cu76  1  0.83375359  0.33212310  0.49957988  1
  Cu+  Cu77  1  0.82869924  0.33461513  0.83118561  1
  Cu+  Cu78  1  0.83013898  0.66552490  0.16814543  1
  Cu+  Cu79  1  0.83502139  0.66316088  0.48780400  1
  Cu+  Cu80  1  0.83485889  0.67060961  0.82985258  1
  Cu+  Cu81  1  0.00403372  0.16367386  0.15945551  1
  Cu+  Cu82  1  -0.00021578  0.16174458  0.50084699  1
  Cu+  Cu83  1  -0.00207500  0.16926135  0.83276276  1
  Cu+  Cu84  1  -0.00315255  0.50330827  0.16887983  1
  Cu+  Cu85  1  0.00302013  0.49427892  0.50046584  1
  Cu+  Cu86  1  0.00300261  0.50233012  0.83097296  1
  Cu+  Cu87  1  -0.00007731  0.83835858  0.17014862  1
  Cu+  Cu88  1  -0.00354561  0.83100665  0.49935374  1
  Cu+  Cu89  1  -0.00251719  0.82917070  0.83181170  1
  Cu+  Cu90  1  0.33524329  0.16795708  0.16601999  1
  Cu+  Cu91  1  0.33096302  0.17250366  0.50134501  1
  Cu+  Cu92  1  0.33413316  0.16680442  0.83503358  1
  Cu+  Cu93  1  0.33173610  0.50000939  0.16082269  1
  Cu+  Cu94  1  0.33570707  0.50165600  0.50797999  1
  Cu+  Cu95  1  0.33636887  0.50103646  0.83673559  1
  Cu+  Cu96  1  0.33150005  0.83435841  0.16502146  1
  Cu+  Cu97  1  0.33343135  0.83577214  0.49969225  1
  Cu+  Cu98  1  0.32837480  0.83210545  0.83227687  1
  Cu+  Cu99  1  0.67016329  0.16627268  0.17059324  1
  Cu+  Cu100  1  0.66232883  0.16362024  0.49693172  1
  Cu+  Cu101  1  0.66978245  0.16950656  0.82532118  1
  Cu+  Cu102  1  0.66129494  0.49505745  0.16469179  1
  Cu+  Cu103  1  0.66666561  0.50197736  0.49759669  1
  Cu+  Cu104  1  0.66922050  0.49820835  0.83666145  1
  Cu+  Cu105  1  0.66808084  0.83045010  0.16791768  1
  Cu+  Cu106  1  0.66438898  0.83281294  0.49859664  1
  Cu+  Cu107  1  0.66519594  0.83901777  0.83798247  1
  Cu+  Cu108  1  0.59850070  0.92965049  0.93298174  1
  Cu+  Cu109  1  0.07533998  0.07709389  0.59721334  1
  Cu+  Cu110  1  0.92524540  0.74116764  0.73849468  1
  Cu+  Cu111  1  0.58761180  0.07029253  0.40678158  1
  Cu+  Cu112  1  0.74090503  0.26724950  0.73318052  1
  Cu+  Cu113  1  0.25643081  0.25396675  0.59801867  1
  Cu+  Cu114  1  0.74376861  0.40392777  0.92662036  1
  Cu+  Cu115  1  0.92015729  0.92262556  0.59716238  1
  Cu+  Cu116  1  0.26585447  0.60008645  0.59573387  1
  Cu+  Cu117  1  0.26392949  0.40393134  0.07149205  1
  Cu+  Cu118  1  0.40155739  0.07536291  0.92155950  1
  Cu+  Cu119  1  0.07057955  0.26710218  0.07153359  1
  Cu+  Cu120  1  0.07441627  0.58786092  0.73653785  1
  Cu+  Cu121  1  0.92641425  0.92703619  0.26269439  1
  Cu+  Cu122  1  0.93356554  0.73462828  0.40118147  1
  Cu+  Cu123  1  0.40943834  0.40836963  0.60022379  1
  Cu+  Cu124  1  0.59301577  0.39953164  0.07704638  1
  Cu+  Cu125  1  0.92946174  0.07062171  0.06852283  1
  Cu+  Cu126  1  0.73551397  0.73681765  0.25428483  1
  Cu+  Cu127  1  0.07972318  0.07546207  0.25767090  1
  Cu+  Cu128  1  0.40254804  0.59478920  0.07315802  1
  Cu+  Cu129  1  0.59512130  0.06939538  0.74186392  1
  Cu+  Cu130  1  0.39948246  0.92645903  0.07578941  1
  Cu+  Cu131  1  0.73334945  0.59023374  0.40699607  1
  Cu+  Cu132  1  0.74057931  0.07186832  0.25540578  1
  Te2-  Te133  1  0.25874742  0.25177174  0.07611292  1
  Te2-  Te134  1  0.25189268  0.25082966  0.40800919  1
  Te2-  Te135  1  0.25370513  0.25223510  0.74991252  1
  Te2-  Te136  1  0.24958902  0.59195230  0.07913719  1
  Te2-  Te137  1  0.25414670  0.58284870  0.41608839  1
  Te2-  Te138  1  0.26022114  0.58954776  0.75079591  1
  Te2-  Te139  1  0.24746867  0.92039053  0.07866380  1
  Te2-  Te140  1  0.24893758  0.92115217  0.41862943  1
  Te2-  Te141  1  0.24970467  0.91885705  0.74735451  1
  Te2-  Te142  1  0.58858336  0.24566995  0.07959191  1
  Te2-  Te143  1  0.58217403  0.25691639  0.41836589  1
  Te2-  Te144  1  0.58687092  0.25920255  0.74578471  1
  Te2-  Te145  1  0.58620445  0.58721580  0.08231822  1
  Te2-  Te146  1  0.58142364  0.58821236  0.41221880  1
  Te2-  Te147  1  0.58614671  0.58470925  0.75163836  1
  Te2-  Te148  1  0.59291823  0.92107024  0.08409769  1
  Te2-  Te149  1  0.58657519  0.91872736  0.41132716  1
  Te2-  Te150  1  0.58470481  0.91916952  0.74604704  1
  Te2-  Te151  1  0.91986964  0.25713556  0.08073519  1
  Te2-  Te152  1  0.91702247  0.24708860  0.41594553  1
  Te2-  Te153  1  0.91729893  0.25437440  0.74686856  1
  Te2-  Te154  1  0.91442198  0.58490827  0.08053862  1
  Te2-  Te155  1  0.92822472  0.58108277  0.41041106  1
  Te2-  Te156  1  0.91985049  0.58726279  0.74283667  1
  Te2-  Te157  1  0.92134373  0.91833793  0.07788955  1
  Te2-  Te158  1  0.91876177  0.91871336  0.41177370  1
  Te2-  Te159  1  0.91925269  0.92130060  0.74923280  1
  Te2-  Te160  1  0.25461477  0.08234219  0.24942522  1
  Te2-  Te161  1  0.25238427  0.08051361  0.58436833  1
  Te2-  Te162  1  0.24745794  0.08184201  0.92062484  1
  Te2-  Te163  1  0.25153088  0.41412628  0.24884110  1
  Te2-  Te164  1  0.25549888  0.40958293  0.59265258  1
  Te2-  Te165  1  0.25756770  0.41153941  0.91840162  1
  Te2-  Te166  1  0.25240184  0.75025103  0.25305938  1
  Te2-  Te167  1  0.25405540  0.75171244  0.58775725  1
  Te2-  Te168  1  0.24835472  0.74578946  0.91701091  1
  Te2-  Te169  1  0.58633334  0.07533059  0.25291340  1
  Te2-  Te170  1  0.58635731  0.07866078  0.58739688  1
  Te2-  Te171  1  0.59676218  0.08440903  0.92202076  1
  Te2-  Te172  1  0.58347721  0.41270596  0.25529353  1
  Te2-  Te173  1  0.58772662  0.41798421  0.58565457  1
  Te2-  Te174  1  0.58805377  0.41093532  0.92373254  1
  Te2-  Te175  1  0.58158825  0.74499421  0.25130327  1
  Te2-  Te176  1  0.58437280  0.75010979  0.58638124  1
  Te2-  Te177  1  0.58332996  0.75172050  0.92161729  1
  Te2-  Te178  1  0.92665276  0.08208035  0.25831902  1
  Te2-  Te179  1  0.91780294  0.07915544  0.59076142  1
  Te2-  Te180  1  0.92078468  0.08011775  0.91614205  1
  Te2-  Te181  1  0.91661872  0.41761908  0.25439069  1
  Te2-  Te182  1  0.91962088  0.41183044  0.58430524  1
  Te2-  Te183  1  0.91925648  0.41570209  0.91443743  1
  Te2-  Te184  1  0.92528261  0.74099253  0.24860905  1
  Te2-  Te185  1  0.91671240  0.74117783  0.58361263  1
  Te2-  Te186  1  0.91690446  0.74834212  0.92151943  1
  Te2-  Te187  1  0.08224345  0.25463661  0.24579280  1
  Te2-  Te188  1  0.07962478  0.25196006  0.58409647  1
  Te2-  Te189  1  0.07758180  0.25753076  0.91573760  1
  Te2-  Te190  1  0.08238601  0.58512350  0.25318350  1
  Te2-  Te191  1  0.07968030  0.58440176  0.58445354  1
  Te2-  Te192  1  0.08363626  0.58234488  0.92230774  1
  Te2-  Te193  1  0.08139646  0.92138364  0.25831980  1
  Te2-  Te194  1  0.07505757  0.91980431  0.58871219  1
  Te2-  Te195  1  0.07741610  0.91662667  0.91670602  1
  Te2-  Te196  1  0.41817383  0.24937184  0.25244609  1
  Te2-  Te197  1  0.41388434  0.25231352  0.59399217  1
  Te2-  Te198  1  0.41615041  0.25288238  0.91991897  1
  Te2-  Te199  1  0.41030551  0.58385577  0.25124766  1
  Te2-  Te200  1  0.41784330  0.59243530  0.59044313  1
  Te2-  Te201  1  0.41621790  0.58744857  0.92133163  1
  Te2-  Te202  1  0.41382306  0.91803079  0.25196760  1
  Te2-  Te203  1  0.41329771  0.92177989  0.58502719  1
  Te2-  Te204  1  0.40569969  0.92266790  0.91997690  1
  Te2-  Te205  1  0.75035791  0.25327466  0.25405966  1
  Te2-  Te206  1  0.74365350  0.25210522  0.58089832  1
  Te2-  Te207  1  0.74728005  0.24982421  0.92282685  1
  Te2-  Te208  1  0.73997398  0.58389756  0.25175602  1
  Te2-  Te209  1  0.75035654  0.58815778  0.58146180  1
  Te2-  Te210  1  0.74934177  0.59038869  0.91576834  1
  Te2-  Te211  1  0.74923914  0.91926477  0.25412019  1
  Te2-  Te212  1  0.74762411  0.91386626  0.58497147  1
  Te2-  Te213  1  0.74985889  0.92287781  0.92333782  1
  Te2-  Te214  1  0.08396856  0.07664611  0.07292762  1
  Te2-  Te215  1  0.07899610  0.08029466  0.41073365  1
  Te2-  Te216  1  0.07836290  0.08069486  0.74922282  1
  Te2-  Te217  1  0.07494815  0.41920053  0.07826302  1
  Te2-  Te218  1  0.08684238  0.41097618  0.41677971  1
  Te2-  Te219  1  0.08514738  0.41611877  0.74565551  1
  Te2-  Te220  1  0.07874073  0.75006420  0.08407122  1
  Te2-  Te221  1  0.08393213  0.74426799  0.41582200  1
  Te2-  Te222  1  0.07797965  0.74422311  0.74211792  1
  Te2-  Te223  1  0.41106323  0.07926508  0.07928805  1
  Te2-  Te224  1  0.41184482  0.08439614  0.41712090  1
  Te2-  Te225  1  0.41671835  0.07959007  0.75146388  1
  Te2-  Te226  1  0.41520135  0.40747277  0.07982955  1
  Te2-  Te227  1  0.41242637  0.41763449  0.41591257  1
  Te2-  Te228  1  0.41558354  0.41319132  0.75280636  1
  Te2-  Te229  1  0.41243718  0.74967903  0.07701644  1
  Te2-  Te230  1  0.41281865  0.75000268  0.41370405  1
  Te2-  Te231  1  0.41542552  0.75013765  0.75026094  1
  Te2-  Te232  1  0.75171501  0.08071761  0.08341307  1
  Te2-  Te233  1  0.74550570  0.07376438  0.41450939  1
  Te2-  Te234  1  0.74898667  0.07623452  0.74459246  1
  Te2-  Te235  1  0.74723062  0.40899490  0.08035470  1
  Te2-  Te236  1  0.74776257  0.41276149  0.41449989  1
  Te2-  Te237  1  0.74625682  0.41872385  0.74105283  1
  Te2-  Te238  1  0.74903919  0.74788922  0.08039505  1
  Te2-  Te239  1  0.74080150  0.74610316  0.40899897  1
  Te2-  Te240  1  0.74231789  0.75125372  0.74975174  1
