# generated using pymatgen
data_Ti27(Cu53Te54)2
_symmetry_space_group_name_H-M   'P 1'
_cell_length_a   17.87283337
_cell_length_b   17.87148371
_cell_length_c   17.87394100
_cell_angle_alpha   89.97644230
_cell_angle_beta   89.97112213
_cell_angle_gamma   90.01376410
_symmetry_Int_Tables_number   1
_chemical_formula_structural   Ti27(Cu53Te54)2
_chemical_formula_sum   'Ti27 Cu106 Te108'
_cell_volume   5709.18651920
_cell_formula_units_Z   1
loop_
 _symmetry_equiv_pos_site_id
 _symmetry_equiv_pos_as_xyz
  1  'x, y, z'
loop_
 _atom_type_symbol
 _atom_type_oxidation_number
  Ti4+  4.0
  Cu+  1.0
  Te2-  -2.0
loop_
 _atom_site_type_symbol
 _atom_site_label
 _atom_site_symmetry_multiplicity
 _atom_site_fract_x
 _atom_site_fract_y
 _atom_site_fract_z
 _atom_site_occupancy
  Ti4+  Ti0  1  0.16856737  0.16244102  0.16588260  1
  Ti4+  Ti1  1  0.16479740  0.16723593  0.49589301  1
  Ti4+  Ti2  1  0.16603010  0.16849912  0.83387302  1
  Ti4+  Ti3  1  0.16441123  0.49984213  0.16710159  1
  Ti4+  Ti4  1  0.16868300  0.50155318  0.49488519  1
  Ti4+  Ti5  1  0.16801052  0.50013600  0.83066116  1
  Ti4+  Ti6  1  0.16428197  0.83179057  0.16832659  1
  Ti4+  Ti7  1  0.16784429  0.83576099  0.50084357  1
  Ti4+  Ti8  1  0.16284395  0.83298489  0.83464762  1
  Ti4+  Ti9  1  0.50156660  0.16705700  0.16848624  1
  Ti4+  Ti10  1  0.50000519  0.16637424  0.50066883  1
  Ti4+  Ti11  1  0.49930503  0.16635443  0.83437855  1
  Ti4+  Ti12  1  0.50037668  0.50114430  0.16526018  1
  Ti4+  Ti13  1  0.50143337  0.50059557  0.50259299  1
  Ti4+  Ti14  1  0.50062336  0.49795964  0.83780662  1
  Ti4+  Ti15  1  0.49949866  0.83348823  0.16514040  1
  Ti4+  Ti16  1  0.50132804  0.83215769  0.49834241  1
  Ti4+  Ti17  1  0.49935735  0.83426381  0.83279889  1
  Ti4+  Ti18  1  0.83616999  0.16582214  0.16688121  1
  Ti4+  Ti19  1  0.83069345  0.16867444  0.50263656  1
  Ti4+  Ti20  1  0.83573825  0.16725608  0.83362420  1
  Ti4+  Ti21  1  0.83062436  0.49833217  0.16683356  1
  Ti4+  Ti22  1  0.83391867  0.50120357  0.50312924  1
  Ti4+  Ti23  1  0.83467792  0.49849776  0.83344129  1
  Ti4+  Ti24  1  0.83338390  0.83126873  0.16574421  1
  Ti4+  Ti25  1  0.83369409  0.83009447  0.50003605  1
  Ti4+  Ti26  1  0.83302744  0.83393158  0.83074298  1
  Cu+  Cu27  1  0.16561376  0.16542046  -0.00069056  1
  Cu+  Cu28  1  0.16953990  0.16198369  0.33016957  1
  Cu+  Cu29  1  0.16362975  0.16953231  0.66420334  1
  Cu+  Cu30  1  0.16343800  0.49688446  -0.00190042  1
  Cu+  Cu31  1  0.17045202  0.50221218  0.32845932  1
  Cu+  Cu32  1  0.16904199  0.50137627  0.66023753  1
  Cu+  Cu33  1  0.16304741  0.83372080  0.00110754  1
  Cu+  Cu34  1  0.16734515  0.83245827  0.33265374  1
  Cu+  Cu35  1  0.16212641  0.83646543  0.67267870  1
  Cu+  Cu36  1  0.50094005  0.16669701  0.00126779  1
  Cu+  Cu37  1  0.50059859  0.16689960  0.33496635  1
  Cu+  Cu38  1  0.49920651  0.16591966  0.66598804  1
  Cu+  Cu39  1  0.49819737  0.50141319  0.00217365  1
  Cu+  Cu40  1  0.50113100  0.49925225  0.33472967  1
  Cu+  Cu41  1  0.50127072  0.49794129  0.67088594  1
  Cu+  Cu42  1  0.49876823  0.83285290  -0.00204660  1
  Cu+  Cu43  1  0.50574296  0.83513276  0.32929176  1
  Cu+  Cu44  1  0.49960784  0.83323365  0.66462037  1
  Cu+  Cu45  1  0.84255940  0.16691355  0.00058239  1
  Cu+  Cu46  1  0.83452946  0.16512331  0.33726784  1
  Cu+  Cu47  1  0.82751616  0.17131232  0.66991172  1
  Cu+  Cu48  1  0.82714218  0.49841441  0.00137777  1
  Cu+  Cu49  1  0.83222916  0.50246531  0.33603968  1
  Cu+  Cu50  1  0.83798786  0.49406461  0.67001683  1
  Cu+  Cu51  1  0.83213061  0.83291258  -0.00267832  1
  Cu+  Cu52  1  0.83224708  0.83352345  0.33238965  1
  Cu+  Cu53  1  0.83707931  0.82752045  0.66416028  1
  Cu+  Cu54  1  0.16348602  -0.00220167  0.17364016  1
  Cu+  Cu55  1  0.16857500  0.00416474  0.49636095  1
  Cu+  Cu56  1  0.16153110  0.00152256  0.83595144  1
  Cu+  Cu57  1  0.16726251  0.33025558  0.16538452  1
  Cu+  Cu58  1  0.16348928  0.33476921  0.49409016  1
  Cu+  Cu59  1  0.16818931  0.33399796  0.83235345  1
  Cu+  Cu60  1  0.16308277  0.66703882  0.17178894  1
  Cu+  Cu61  1  0.17224405  0.66981806  0.49892921  1
  Cu+  Cu62  1  0.16792889  0.66762610  0.83242099  1
  Cu+  Cu63  1  0.50311739  0.00075944  0.16870232  1
  Cu+  Cu64  1  0.50119511  -0.00248113  0.49948103  1
  Cu+  Cu65  1  0.50057611  0.00099077  0.83275382  1
  Cu+  Cu66  1  0.50204317  0.33458212  0.16799465  1
  Cu+  Cu67  1  0.50191227  0.33352575  0.50315139  1
  Cu+  Cu68  1  0.50093796  0.33286699  0.83929544  1
  Cu+  Cu69  1  0.49580649  0.66808159  0.16041419  1
  Cu+  Cu70  1  0.49834331  0.66538469  0.49732054  1
  Cu+  Cu71  1  0.49915940  0.66608573  0.83479580  1
  Cu+  Cu72  1  0.83633284  -0.00086325  0.16099239  1
  Cu+  Cu73  1  0.83470407  0.00048418  0.50041977  1
  Cu+  Cu74  1  0.83075661  0.00082987  0.83462701  1
  Cu+  Cu75  1  0.83230498  0.33295962  0.16952705  1
  Cu+  Cu76  1  0.83266885  0.33501921  0.50551912  1
  Cu+  Cu77  1  0.83777445  0.33191844  0.83085505  1
  Cu+  Cu78  1  0.83245387  0.66226166  0.16566265  1
  Cu+  Cu79  1  0.82472414  0.66538722  0.50160412  1
  Cu+  Cu80  1  0.83575105  0.66823556  0.83013326  1
  Cu+  Cu81  1  0.00063210  0.15799536  0.16226684  1
  Cu+  Cu82  1  -0.00449704  0.16622665  0.49770311  1
  Cu+  Cu83  1  -0.00047144  0.17139781  0.84041521  1
  Cu+  Cu84  1  -0.00476388  0.49928316  0.16837968  1
  Cu+  Cu85  1  0.00352942  0.49965248  0.49665238  1
  Cu+  Cu86  1  0.00221410  0.49573278  0.82975000  1
  Cu+  Cu87  1  0.00077032  0.82702388  0.16774821  1
  Cu+  Cu88  1  -0.00239717  0.83995944  0.50721445  1
  Cu+  Cu89  1  -0.00123295  0.83381902  0.82727239  1
  Cu+  Cu90  1  0.33637235  0.17014320  0.16780330  1
  Cu+  Cu91  1  0.33438944  0.16697274  0.49752809  1
  Cu+  Cu92  1  0.33253460  0.16674541  0.83247897  1
  Cu+  Cu93  1  0.33361257  0.50208176  0.16300049  1
  Cu+  Cu94  1  0.33430271  0.50440025  0.50085490  1
  Cu+  Cu95  1  0.33644128  0.50155527  0.83151178  1
  Cu+  Cu96  1  0.33275471  0.83676775  0.16587133  1
  Cu+  Cu97  1  0.33466520  0.83017154  0.49670498  1
  Cu+  Cu98  1  0.33173397  0.83260041  0.83695764  1
  Cu+  Cu99  1  0.66967298  0.16680957  0.16670909  1
  Cu+  Cu100  1  0.66438966  0.16737950  0.50349563  1
  Cu+  Cu101  1  0.66684444  0.16871374  0.83326634  1
  Cu+  Cu102  1  0.66728320  0.50090696  0.16270923  1
  Cu+  Cu103  1  0.66848152  0.50291787  0.50317651  1
  Cu+  Cu104  1  0.66507111  0.49744123  0.83982855  1
  Cu+  Cu105  1  0.66439096  0.83451637  0.16713627  1
  Cu+  Cu106  1  0.66831470  0.82698101  0.50124812  1
  Cu+  Cu107  1  0.66421630  0.83549357  0.83194381  1
  Cu+  Cu108  1  0.74043949  0.59555619  0.06902855  1
  Cu+  Cu109  1  0.40057881  0.59552904  0.07053413  1
  Cu+  Cu110  1  0.92720023  0.26559432  0.93182254  1
  Cu+  Cu111  1  0.26036869  0.74458489  0.40514089  1
  Cu+  Cu112  1  0.26187746  0.92493148  0.25744333  1
  Cu+  Cu113  1  0.26313214  0.59349673  0.24935459  1
  Cu+  Cu114  1  0.07093086  0.73958518  0.26573407  1
  Cu+  Cu115  1  0.91883082  0.93185457  0.59442927  1
  Cu+  Cu116  1  0.92098656  0.07191798  0.40899478  1
  Cu+  Cu117  1  0.93306396  0.40172164  0.73833999  1
  Cu+  Cu118  1  0.26146635  0.26170767  0.25660166  1
  Cu+  Cu119  1  0.92787242  0.73623263  0.73716268  1
  Cu+  Cu120  1  0.73829075  0.59145549  0.40567546  1
  Cu+  Cu121  1  0.92875390  0.06635276  0.06778454  1
  Cu+  Cu122  1  0.07214970  0.93481656  0.74535525  1
  Cu+  Cu123  1  0.26119203  0.74728419  0.74583835  1
  Cu+  Cu124  1  0.92234117  0.58866558  0.26287297  1
  Cu+  Cu125  1  0.59781190  0.93024213  0.25833008  1
  Cu+  Cu126  1  0.73477704  0.26188166  0.74365824  1
  Cu+  Cu127  1  0.26667393  0.07877949  0.40680523  1
  Cu+  Cu128  1  0.41063982  0.58875005  0.40530756  1
  Cu+  Cu129  1  0.07098588  0.07554806  0.26072699  1
  Cu+  Cu130  1  0.73629351  0.73743866  0.59731749  1
  Cu+  Cu131  1  0.41721692  0.59204339  0.74075182  1
  Cu+  Cu132  1  0.25838854  0.59428094  0.59128005  1
  Te2-  Te133  1  0.25235429  0.24962275  0.07928972  1
  Te2-  Te134  1  0.25232536  0.25420140  0.41063023  1
  Te2-  Te135  1  0.25130302  0.25156265  0.74643706  1
  Te2-  Te136  1  0.24681361  0.58811664  0.07857118  1
  Te2-  Te137  1  0.25755280  0.59104584  0.40623844  1
  Te2-  Te138  1  0.25635660  0.58913750  0.74399113  1
  Te2-  Te139  1  0.24733170  0.91988224  0.08172549  1
  Te2-  Te140  1  0.25537995  0.92147320  0.41245139  1
  Te2-  Te141  1  0.25111851  0.92085564  0.75153918  1
  Te2-  Te142  1  0.58665992  0.25193921  0.08291282  1
  Te2-  Te143  1  0.58579819  0.25275308  0.41588019  1
  Te2-  Te144  1  0.58317720  0.25483636  0.74732807  1
  Te2-  Te145  1  0.58664301  0.58844182  0.07828018  1
  Te2-  Te146  1  0.58729666  0.58657122  0.41372768  1
  Te2-  Te147  1  0.58718978  0.58394233  0.75184199  1
  Te2-  Te148  1  0.58423390  0.91879698  0.07861772  1
  Te2-  Te149  1  0.59077755  0.91780839  0.41566028  1
  Te2-  Te150  1  0.58361543  0.91918197  0.74593346  1
  Te2-  Te151  1  0.92413631  0.25624777  0.08546994  1
  Te2-  Te152  1  0.91535709  0.25609506  0.41673371  1
  Te2-  Te153  1  0.92506272  0.25081865  0.74350795  1
  Te2-  Te154  1  0.91777444  0.58279763  0.07808969  1
  Te2-  Te155  1  0.92030724  0.58929018  0.41797904  1
  Te2-  Te156  1  0.92164043  0.58447233  0.74665392  1
  Te2-  Te157  1  0.92222706  0.91301599  0.07923822  1
  Te2-  Te158  1  0.91969844  0.91748631  0.41171638  1
  Te2-  Te159  1  0.91809386  0.92545190  0.74456019  1
  Te2-  Te160  1  0.26076830  0.07632967  0.25248799  1
  Te2-  Te161  1  0.25057379  0.08471804  0.58457901  1
  Te2-  Te162  1  0.25081454  0.08098355  0.91781195  1
  Te2-  Te163  1  0.25492850  0.41369934  0.24960942  1
  Te2-  Te164  1  0.25238949  0.41264808  0.57944027  1
  Te2-  Te165  1  0.25315579  0.41650897  0.91673286  1
  Te2-  Te166  1  0.25843841  0.74568378  0.25263633  1
  Te2-  Te167  1  0.25403114  0.75144384  0.59086285  1
  Te2-  Te168  1  0.24919565  0.74822011  0.92213692  1
  Te2-  Te169  1  0.58969120  0.08256282  0.25513690  1
  Te2-  Te170  1  0.58441132  0.07937104  0.58612432  1
  Te2-  Te171  1  0.58676896  0.08216290  0.91872700  1
  Te2-  Te172  1  0.58652494  0.41763716  0.25158425  1
  Te2-  Te173  1  0.58685646  0.41643235  0.58778676  1
  Te2-  Te174  1  0.58502586  0.41319795  0.92558552  1
  Te2-  Te175  1  0.58429428  0.74375995  0.24810032  1
  Te2-  Te176  1  0.58311345  0.74369300  0.58653689  1
  Te2-  Te177  1  0.58517529  0.74829468  0.91724452  1
  Te2-  Te178  1  0.91890487  0.07524955  0.25568533  1
  Te2-  Te179  1  0.91774208  0.08478578  0.59163428  1
  Te2-  Te180  1  0.92249441  0.07530945  0.91736954  1
  Te2-  Te181  1  0.91605226  0.41394612  0.25582983  1
  Te2-  Te182  1  0.92453382  0.41387830  0.58438837  1
  Te2-  Te183  1  0.91992031  0.41618164  0.92304913  1
  Te2-  Te184  1  0.91746351  0.74401025  0.25554888  1
  Te2-  Te185  1  0.92298913  0.73970868  0.58248183  1
  Te2-  Te186  1  0.91935115  0.74966857  0.91685995  1
  Te2-  Te187  1  0.08008301  0.24720062  0.24979066  1
  Te2-  Te188  1  0.07933769  0.25278886  0.58008346  1
  Te2-  Te189  1  0.08313852  0.25737365  0.92287000  1
  Te2-  Te190  1  0.07540444  0.58589507  0.25670910  1
  Te2-  Te191  1  0.08270637  0.58775072  0.58061327  1
  Te2-  Te192  1  0.08117853  0.58384408  0.91540846  1
  Te2-  Te193  1  0.07455323  0.91671346  0.25685181  1
  Te2-  Te194  1  0.08281408  0.92614564  0.58740312  1
  Te2-  Te195  1  0.07589481  0.91754780  0.92022875  1
  Te2-  Te196  1  0.41671895  0.25534694  0.25547837  1
  Te2-  Te197  1  0.41334492  0.25189505  0.58492395  1
  Te2-  Te198  1  0.41316664  0.25032056  0.92051970  1
  Te2-  Te199  1  0.41483069  0.58913651  0.25345811  1
  Te2-  Te200  1  0.41430803  0.58975163  0.58987342  1
  Te2-  Te201  1  0.41181594  0.58778289  0.92110398  1
  Te2-  Te202  1  0.41471944  0.92063627  0.25394765  1
  Te2-  Te203  1  0.41391453  0.91646413  0.58239165  1
  Te2-  Te204  1  0.41398362  0.91972805  0.91777196  1
  Te2-  Te205  1  0.75058167  0.24890866  0.25441711  1
  Te2-  Te206  1  0.74309496  0.25635317  0.58726258  1
  Te2-  Te207  1  0.75201526  0.25229108  0.92119786  1
  Te2-  Te208  1  0.74290899  0.58657657  0.25329256  1
  Te2-  Te209  1  0.74783793  0.58265539  0.59562966  1
  Te2-  Te210  1  0.74841314  0.58837157  0.91591012  1
  Te2-  Te211  1  0.75041162  0.92093884  0.25026808  1
  Te2-  Te212  1  0.74909034  0.91716257  0.58560988  1
  Te2-  Te213  1  0.74684640  0.91788323  0.91741847  1
  Te2-  Te214  1  0.08385136  0.07352441  0.07678668  1
  Te2-  Te215  1  0.07537984  0.07724991  0.41215547  1
  Te2-  Te216  1  0.07689536  0.08616236  0.74758908  1
  Te2-  Te217  1  0.07939526  0.41386158  0.08422670  1
  Te2-  Te218  1  0.08252031  0.41728462  0.40774920  1
  Te2-  Te219  1  0.08597633  0.41307418  0.74180495  1
  Te2-  Te220  1  0.08159746  0.74452187  0.08013223  1
  Te2-  Te221  1  0.07792450  0.75053185  0.41904028  1
  Te2-  Te222  1  0.07886805  0.74227789  0.74482526  1
  Te2-  Te223  1  0.41610630  0.08152024  0.08382323  1
  Te2-  Te224  1  0.41685667  0.07777185  0.41252232  1
  Te2-  Te225  1  0.41414653  0.08147017  0.74800807  1
  Te2-  Te226  1  0.41457603  0.41336029  0.08239354  1
  Te2-  Te227  1  0.41545945  0.41492489  0.41764925  1
  Te2-  Te228  1  0.41622682  0.41115932  0.75090655  1
  Te2-  Te229  1  0.40887019  0.75067094  0.07743029  1
  Te2-  Te230  1  0.41593121  0.74689133  0.40724218  1
  Te2-  Te231  1  0.41282806  0.74671240  0.74492286  1
  Te2-  Te232  1  0.75059339  0.08366095  0.07857563  1
  Te2-  Te233  1  0.74584014  0.08098457  0.41800777  1
  Te2-  Te234  1  0.74719106  0.08108794  0.74951100  1
  Te2-  Te235  1  0.74606509  0.40928771  0.08211961  1
  Te2-  Te236  1  0.74869611  0.41523859  0.41778970  1
  Te2-  Te237  1  0.74454654  0.41409678  0.74987671  1
  Te2-  Te238  1  0.74620987  0.74844882  0.08030673  1
  Te2-  Te239  1  0.74589387  0.74670095  0.40892592  1
  Te2-  Te240  1  0.74389301  0.74730425  0.74775901  1
