# generated using pymatgen
data_Ti27(Cu53Te54)2
_symmetry_space_group_name_H-M   'P 1'
_cell_length_a   17.85699527
_cell_length_b   17.85734900
_cell_length_c   17.85720153
_cell_angle_alpha   89.98638067
_cell_angle_beta   89.98338345
_cell_angle_gamma   90.02088886
_symmetry_Int_Tables_number   1
_chemical_formula_structural   Ti27(Cu53Te54)2
_chemical_formula_sum   'Ti27 Cu106 Te108'
_cell_volume   5694.27858268
_cell_formula_units_Z   1
loop_
 _symmetry_equiv_pos_site_id
 _symmetry_equiv_pos_as_xyz
  1  'x, y, z'
loop_
 _atom_type_symbol
 _atom_type_oxidation_number
  Ti4+  4.0
  Cu+  1.0
  Te2-  -2.0
loop_
 _atom_site_type_symbol
 _atom_site_label
 _atom_site_symmetry_multiplicity
 _atom_site_fract_x
 _atom_site_fract_y
 _atom_site_fract_z
 _atom_site_occupancy
  Ti4+  Ti0  1  0.16615743  0.16523059  0.16642258  1
  Ti4+  Ti1  1  0.16856114  0.16617053  0.49716291  1
  Ti4+  Ti2  1  0.16325132  0.16719119  0.83280142  1
  Ti4+  Ti3  1  0.16640635  0.50081413  0.16647349  1
  Ti4+  Ti4  1  0.16623679  0.49847516  0.50196840  1
  Ti4+  Ti5  1  0.16607438  0.50192475  0.83272272  1
  Ti4+  Ti6  1  0.16758608  0.83235329  0.16669732  1
  Ti4+  Ti7  1  0.16809035  0.83411381  0.50082647  1
  Ti4+  Ti8  1  0.16694208  0.83758169  0.83203666  1
  Ti4+  Ti9  1  0.50092114  0.16790459  0.16549747  1
  Ti4+  Ti10  1  0.49950915  0.16747186  0.50314518  1
  Ti4+  Ti11  1  0.49967540  0.16519777  0.83254279  1
  Ti4+  Ti12  1  0.49986589  0.49683863  0.16622111  1
  Ti4+  Ti13  1  0.49870645  0.49907273  0.49943905  1
  Ti4+  Ti14  1  0.49890899  0.50152842  0.83154661  1
  Ti4+  Ti15  1  0.49944011  0.83423578  0.16554084  1
  Ti4+  Ti16  1  0.50368209  0.83206371  0.50302113  1
  Ti4+  Ti17  1  0.50216337  0.83486166  0.83522230  1
  Ti4+  Ti18  1  0.83038635  0.16528019  0.16666100  1
  Ti4+  Ti19  1  0.83250111  0.16620809  0.49903523  1
  Ti4+  Ti20  1  0.83489093  0.16764373  0.83539562  1
  Ti4+  Ti21  1  0.83105704  0.50227703  0.16747571  1
  Ti4+  Ti22  1  0.83351263  0.49842251  0.49968053  1
  Ti4+  Ti23  1  0.83101479  0.49856279  0.83223920  1
  Ti4+  Ti24  1  0.83370844  0.83182183  0.17011679  1
  Ti4+  Ti25  1  0.83288531  0.83404048  0.49985988  1
  Ti4+  Ti26  1  0.83469320  0.83221471  0.83353715  1
  Cu+  Cu27  1  0.16165098  0.16487792  0.00033796  1
  Cu+  Cu28  1  0.16588443  0.16642016  0.33021795  1
  Cu+  Cu29  1  0.16964074  0.16585154  0.66379482  1
  Cu+  Cu30  1  0.16477223  0.49880206  0.00000085  1
  Cu+  Cu31  1  0.16734529  0.49781974  0.33400944  1
  Cu+  Cu32  1  0.16778241  0.50576111  0.66601106  1
  Cu+  Cu33  1  0.16740073  0.83289249  0.00012949  1
  Cu+  Cu34  1  0.17048465  0.83503212  0.33342090  1
  Cu+  Cu35  1  0.16267397  0.83781313  0.66762336  1
  Cu+  Cu36  1  0.50176586  0.16491419  -0.00266299  1
  Cu+  Cu37  1  0.49864051  0.16905903  0.33416538  1
  Cu+  Cu38  1  0.50057586  0.16681304  0.66798581  1
  Cu+  Cu39  1  0.49436199  0.50384867  0.00126780  1
  Cu+  Cu40  1  0.50557874  0.50109102  0.32931457  1
  Cu+  Cu41  1  0.50184199  0.49477768  0.66506438  1
  Cu+  Cu42  1  0.50027027  0.83234400  -0.00005785  1
  Cu+  Cu43  1  0.49814161  0.83016911  0.33429572  1
  Cu+  Cu44  1  0.50737936  0.83609843  0.66855381  1
  Cu+  Cu45  1  0.83026451  0.17148428  0.00215123  1
  Cu+  Cu46  1  0.83707381  0.16171151  0.33468731  1
  Cu+  Cu47  1  0.83370058  0.16750468  0.66644969  1
  Cu+  Cu48  1  0.83361800  0.50489302  -0.00377623  1
  Cu+  Cu49  1  0.82938017  0.50266328  0.33270041  1
  Cu+  Cu50  1  0.83607031  0.49346540  0.66866354  1
  Cu+  Cu51  1  0.83367751  0.83086831  0.00103450  1
  Cu+  Cu52  1  0.82953578  0.83482694  0.33665047  1
  Cu+  Cu53  1  0.83455712  0.83078745  0.66534422  1
  Cu+  Cu54  1  0.16960193  -0.00296960  0.16876511  1
  Cu+  Cu55  1  0.16799466  -0.00027250  0.49989619  1
  Cu+  Cu56  1  0.16108129  0.00384047  0.82870226  1
  Cu+  Cu57  1  0.16560886  0.33203280  0.16568739  1
  Cu+  Cu58  1  0.16947182  0.33311188  0.49615178  1
  Cu+  Cu59  1  0.16528587  0.33387267  0.83423440  1
  Cu+  Cu60  1  0.16692243  0.66809161  0.16569061  1
  Cu+  Cu61  1  0.16824747  0.66724573  0.50369366  1
  Cu+  Cu62  1  0.16649340  0.67041458  0.83344656  1
  Cu+  Cu63  1  0.50287975  0.00368508  0.16548035  1
  Cu+  Cu64  1  0.50547191  0.00000865  0.50580825  1
  Cu+  Cu65  1  0.49579436  -0.00297351  0.83234537  1
  Cu+  Cu66  1  0.49985742  0.33303704  0.16535691  1
  Cu+  Cu67  1  0.49022526  0.33388607  0.50153970  1
  Cu+  Cu68  1  0.50084673  0.33190075  0.83205328  1
  Cu+  Cu69  1  0.49771295  0.66631191  0.16313686  1
  Cu+  Cu70  1  0.50318446  0.66384149  0.50556344  1
  Cu+  Cu71  1  0.50271226  0.67116789  0.83237913  1
  Cu+  Cu72  1  0.82909719  -0.00416119  0.16525324  1
  Cu+  Cu73  1  0.83285475  0.00170659  0.49317743  1
  Cu+  Cu74  1  0.83537828  0.00146799  0.83575743  1
  Cu+  Cu75  1  0.82510339  0.33336223  0.16613692  1
  Cu+  Cu76  1  0.83382187  0.33096130  0.50106826  1
  Cu+  Cu77  1  0.83581140  0.33391121  0.82963299  1
  Cu+  Cu78  1  0.84030071  0.66707783  0.17169733  1
  Cu+  Cu79  1  0.82998995  0.66599548  0.49812824  1
  Cu+  Cu80  1  0.83272893  0.66430390  0.83795223  1
  Cu+  Cu81  1  -0.00163454  0.16518180  0.16861375  1
  Cu+  Cu82  1  0.00018289  0.16416143  0.49664575  1
  Cu+  Cu83  1  0.00089315  0.16414541  0.83948397  1
  Cu+  Cu84  1  -0.00083480  0.50258097  0.16883438  1
  Cu+  Cu85  1  0.00135596  0.49792688  0.50084600  1
  Cu+  Cu86  1  -0.00107689  0.50007225  0.83305112  1
  Cu+  Cu87  1  0.00091570  0.82925364  0.16821073  1
  Cu+  Cu88  1  0.00117486  0.83055283  0.50082352  1
  Cu+  Cu89  1  0.00029501  0.83749705  0.83094122  1
  Cu+  Cu90  1  0.33225860  0.16636586  0.16525593  1
  Cu+  Cu91  1  0.33725344  0.17090432  0.49706015  1
  Cu+  Cu92  1  0.33098526  0.16481020  0.83091200  1
  Cu+  Cu93  1  0.33486103  0.50121927  0.16255423  1
  Cu+  Cu94  1  0.32934496  0.49312034  0.50344325  1
  Cu+  Cu95  1  0.33241912  0.50204342  0.83379417  1
  Cu+  Cu96  1  0.33200060  0.83583357  0.17053406  1
  Cu+  Cu97  1  0.33566058  0.82941841  0.50039138  1
  Cu+  Cu98  1  0.33506590  0.83911067  0.83324890  1
  Cu+  Cu99  1  0.66527776  0.16820497  0.16053668  1
  Cu+  Cu100  1  0.66555049  0.16847342  0.50250665  1
  Cu+  Cu101  1  0.66882794  0.16668072  0.83549558  1
  Cu+  Cu102  1  0.66643095  0.49535713  0.17542888  1
  Cu+  Cu103  1  0.66875916  0.50477264  0.49710089  1
  Cu+  Cu104  1  0.66325392  0.49541624  0.82927949  1
  Cu+  Cu105  1  0.66968620  0.83320548  0.16364948  1
  Cu+  Cu106  1  0.66710855  0.84076928  0.50244465  1
  Cu+  Cu107  1  0.66788960  0.82832234  0.83457397  1
  Cu+  Cu108  1  0.93165789  0.59241113  0.26382840  1
  Cu+  Cu109  1  0.25675356  0.40760985  0.40180466  1
  Cu+  Cu110  1  0.58966616  0.59888712  0.25044908  1
  Cu+  Cu111  1  0.74166466  0.59587961  0.40531331  1
  Cu+  Cu112  1  0.74132911  0.40081813  0.26538702  1
  Cu+  Cu113  1  0.73755896  0.26627287  0.06980285  1
  Cu+  Cu114  1  0.93214809  0.40401947  0.74097279  1
  Cu+  Cu115  1  0.92994765  0.59408933  0.92300890  1
  Cu+  Cu116  1  0.59132308  0.40068090  0.73905179  1
  Cu+  Cu117  1  0.40979661  0.25988251  0.40179938  1
  Cu+  Cu118  1  0.25805492  0.59833525  0.59453692  1
  Cu+  Cu119  1  0.58998190  0.07392030  0.06879411  1
  Cu+  Cu120  1  0.59711675  0.58686216  0.59344958  1
  Cu+  Cu121  1  0.59682143  0.74175197  0.74164105  1
  Cu+  Cu122  1  0.40810573  0.92159037  0.73659868  1
  Cu+  Cu123  1  0.40160736  0.40583471  0.59753349  1
  Cu+  Cu124  1  0.73587974  0.93227207  0.40611574  1
  Cu+  Cu125  1  0.40383974  0.59581519  0.07233391  1
  Cu+  Cu126  1  0.93239662  0.07107703  0.40573600  1
  Cu+  Cu127  1  0.59836802  0.93163777  0.59928340  1
  Cu+  Cu128  1  0.25887694  0.07823676  0.73733069  1
  Cu+  Cu129  1  0.74343217  0.92067130  0.06878063  1
  Cu+  Cu130  1  0.06727461  0.93019360  0.73663819  1
  Cu+  Cu131  1  0.26151753  0.92772405  0.26302622  1
  Cu+  Cu132  1  0.07161952  0.07171918  0.93240711  1
  Te2-  Te133  1  0.24986461  0.25008906  0.07912465  1
  Te2-  Te134  1  0.25470282  0.25285840  0.40793687  1
  Te2-  Te135  1  0.25061520  0.25376950  0.74785154  1
  Te2-  Te136  1  0.25071766  0.58714787  0.07832043  1
  Te2-  Te137  1  0.25362309  0.58473550  0.41649111  1
  Te2-  Te138  1  0.25381172  0.59010137  0.74897949  1
  Te2-  Te139  1  0.25341621  0.91849291  0.07939026  1
  Te2-  Te140  1  0.25729370  0.91967124  0.41673907  1
  Te2-  Te141  1  0.25439817  0.92408720  0.74328545  1
  Te2-  Te142  1  0.58468536  0.25689318  0.07588956  1
  Te2-  Te143  1  0.58353466  0.25513997  0.41815189  1
  Te2-  Te144  1  0.58839034  0.25000051  0.74737184  1
  Te2-  Te145  1  0.58900727  0.58240572  0.08245960  1
  Te2-  Te146  1  0.58585067  0.58928985  0.41114749  1
  Te2-  Te147  1  0.58764288  0.58822643  0.74482564  1
  Te2-  Te148  1  0.58719116  0.91938378  0.07784537  1
  Te2-  Te149  1  0.58335421  0.92044746  0.41130891  1
  Te2-  Te150  1  0.59317487  0.92345206  0.75136632  1
  Te2-  Te151  1  0.91729227  0.25312730  0.08554747  1
  Te2-  Te152  1  0.91892342  0.25284271  0.41328261  1
  Te2-  Te153  1  0.92343210  0.24964252  0.74742781  1
  Te2-  Te154  1  0.91989445  0.58712848  0.07983734  1
  Te2-  Te155  1  0.92132206  0.58550146  0.41565955  1
  Te2-  Te156  1  0.91727182  0.58646537  0.74684008  1
  Te2-  Te157  1  0.91997263  0.91608704  0.08334030  1
  Te2-  Te158  1  0.92306479  0.91709847  0.41297893  1
  Te2-  Te159  1  0.91593388  0.92109987  0.74555229  1
  Te2-  Te160  1  0.25501161  0.08096991  0.25364756  1
  Te2-  Te161  1  0.25712416  0.08092423  0.58151906  1
  Te2-  Te162  1  0.24945073  0.08026211  0.91872985  1
  Te2-  Te163  1  0.25452217  0.41364049  0.24849720  1
  Te2-  Te164  1  0.24887679  0.40821759  0.59261985  1
  Te2-  Te165  1  0.25088386  0.41600208  0.91767317  1
  Te2-  Te166  1  0.25338468  0.74538263  0.25324458  1
  Te2-  Te167  1  0.25331196  0.75101566  0.59074406  1
  Te2-  Te168  1  0.25353633  0.75185907  0.91612803  1
  Te2-  Te169  1  0.58634131  0.08518481  0.25407921  1
  Te2-  Te170  1  0.58928431  0.08315653  0.59057194  1
  Te2-  Te171  1  0.58668643  0.07722896  0.91533189  1
  Te2-  Te172  1  0.58529989  0.40576012  0.25573641  1
  Te2-  Te173  1  0.58897689  0.41094937  0.58069412  1
  Te2-  Te174  1  0.58041613  0.41720296  0.92066154  1
  Te2-  Te175  1  0.58607408  0.74981942  0.25059150  1
  Te2-  Te176  1  0.59352291  0.74444381  0.58819636  1
  Te2-  Te177  1  0.58696435  0.74666275  0.92296116  1
  Te2-  Te178  1  0.91784023  0.07563426  0.24973012  1
  Te2-  Te179  1  0.91771027  0.08003148  0.58454374  1
  Te2-  Te180  1  0.91693560  0.08084219  0.92566565  1
  Te2-  Te181  1  0.91482734  0.41408383  0.25157306  1
  Te2-  Te182  1  0.92122953  0.41093788  0.58439022  1
  Te2-  Te183  1  0.91809513  0.41360907  0.92005707  1
  Te2-  Te184  1  0.92149312  0.74875204  0.26022658  1
  Te2-  Te185  1  0.91754598  0.74555429  0.58295498  1
  Te2-  Te186  1  0.92220274  0.74906794  0.91978021  1
  Te2-  Te187  1  0.08031221  0.25153204  0.25101697  1
  Te2-  Te188  1  0.08284085  0.25048879  0.58170287  1
  Te2-  Te189  1  0.07992433  0.25506379  0.92044752  1
  Te2-  Te190  1  0.08364601  0.58754237  0.25552471  1
  Te2-  Te191  1  0.07823107  0.58653955  0.58522326  1
  Te2-  Te192  1  0.08154198  0.58812810  0.91963506  1
  Te2-  Te193  1  0.08029320  0.91735920  0.25285678  1
  Te2-  Te194  1  0.07854041  0.92173338  0.58327860  1
  Te2-  Te195  1  0.07977643  0.92031958  0.92184190  1
  Te2-  Te196  1  0.41183542  0.25402815  0.24981294  1
  Te2-  Te197  1  0.41099079  0.25187326  0.59299194  1
  Te2-  Te198  1  0.41363489  0.24999787  0.91682834  1
  Te2-  Te199  1  0.41411289  0.58467533  0.25288311  1
  Te2-  Te200  1  0.41208450  0.58392507  0.58763279  1
  Te2-  Te201  1  0.41337108  0.59104977  0.91603970  1
  Te2-  Te202  1  0.41783379  0.92174197  0.25348194  1
  Te2-  Te203  1  0.41408099  0.91858583  0.58565688  1
  Te2-  Te204  1  0.41485602  0.91959907  0.92349591  1
  Te2-  Te205  1  0.74478457  0.24769073  0.25709651  1
  Te2-  Te206  1  0.74807379  0.25230745  0.58639031  1
  Te2-  Te207  1  0.74711490  0.25708619  0.91740292  1
  Te2-  Te208  1  0.74320026  0.59385642  0.25346840  1
  Te2-  Te209  1  0.75105953  0.58413323  0.59077737  1
  Te2-  Te210  1  0.74087796  0.58323038  0.91637383  1
  Te2-  Te211  1  0.74398706  0.91945316  0.25475598  1
  Te2-  Te212  1  0.75142024  0.92348632  0.58913531  1
  Te2-  Te213  1  0.74740055  0.91816102  0.91749566  1
  Te2-  Te214  1  0.07852572  0.07626324  0.08469145  1
  Te2-  Te215  1  0.08398704  0.07844327  0.41124549  1
  Te2-  Te216  1  0.07467146  0.08408711  0.74104673  1
  Te2-  Te217  1  0.07923676  0.41587552  0.08342258  1
  Te2-  Te218  1  0.07981136  0.41306174  0.41398454  1
  Te2-  Te219  1  0.08271313  0.41525591  0.74518166  1
  Te2-  Te220  1  0.08119420  0.74729953  0.07979765  1
  Te2-  Te221  1  0.08533069  0.74779810  0.41508664  1
  Te2-  Te222  1  0.08080410  0.74941243  0.74830431  1
  Te2-  Te223  1  0.41428940  0.08226931  0.08017774  1
  Te2-  Te224  1  0.41814400  0.07819913  0.41734658  1
  Te2-  Te225  1  0.41331737  0.07892568  0.74382869  1
  Te2-  Te226  1  0.41349641  0.41131180  0.07933506  1
  Te2-  Te227  1  0.41269507  0.41570123  0.40661567  1
  Te2-  Te228  1  0.41094046  0.41286145  0.74891673  1
  Te2-  Te229  1  0.41110796  0.75005023  0.08064696  1
  Te2-  Te230  1  0.41857426  0.74438513  0.41893998  1
  Te2-  Te231  1  0.41480568  0.75099942  0.74657298  1
  Te2-  Te232  1  0.74546900  0.07705008  0.07644329  1
  Te2-  Te233  1  0.74074096  0.08351754  0.41185579  1
  Te2-  Te234  1  0.75046409  0.08239099  0.74986886  1
  Te2-  Te235  1  0.74470263  0.41948108  0.07675088  1
  Te2-  Te236  1  0.74610836  0.41065203  0.41600542  1
  Te2-  Te237  1  0.74453759  0.40974019  0.74447886  1
  Te2-  Te238  1  0.75126569  0.74285491  0.08363099  1
  Te2-  Te239  1  0.74225274  0.74856847  0.41528617  1
  Te2-  Te240  1  0.75093640  0.74419890  0.74726932  1
