# generated using pymatgen
data_Ti27(Cu53Te54)2
_symmetry_space_group_name_H-M   'P 1'
_cell_length_a   17.87674684
_cell_length_b   17.87650361
_cell_length_c   17.87605901
_cell_angle_alpha   89.99317546
_cell_angle_beta   89.98383905
_cell_angle_gamma   89.98006889
_symmetry_Int_Tables_number   1
_chemical_formula_structural   Ti27(Cu53Te54)2
_chemical_formula_sum   'Ti27 Cu106 Te108'
_cell_volume   5712.71823240
_cell_formula_units_Z   1
loop_
 _symmetry_equiv_pos_site_id
 _symmetry_equiv_pos_as_xyz
  1  'x, y, z'
loop_
 _atom_type_symbol
 _atom_type_oxidation_number
  Ti4+  4.0
  Cu+  1.0
  Te2-  -2.0
loop_
 _atom_site_type_symbol
 _atom_site_label
 _atom_site_symmetry_multiplicity
 _atom_site_fract_x
 _atom_site_fract_y
 _atom_site_fract_z
 _atom_site_occupancy
  Ti4+  Ti0  1  0.16836440  0.16978088  0.16719306  1
  Ti4+  Ti1  1  0.16315635  0.16614351  0.50350764  1
  Ti4+  Ti2  1  0.16472805  0.16470012  0.83756120  1
  Ti4+  Ti3  1  0.16504568  0.50184771  0.16404335  1
  Ti4+  Ti4  1  0.16933511  0.49906290  0.49539799  1
  Ti4+  Ti5  1  0.16892578  0.49915220  0.83318605  1
  Ti4+  Ti6  1  0.16772101  0.83505175  0.16732996  1
  Ti4+  Ti7  1  0.16788877  0.83240912  0.49993413  1
  Ti4+  Ti8  1  0.16658302  0.83170104  0.83579094  1
  Ti4+  Ti9  1  0.50079194  0.16795939  0.16666440  1
  Ti4+  Ti10  1  0.49829701  0.16491834  0.49957254  1
  Ti4+  Ti11  1  0.49945077  0.16664725  0.82988310  1
  Ti4+  Ti12  1  0.50172895  0.50143252  0.16788835  1
  Ti4+  Ti13  1  0.50200318  0.50027945  0.49956810  1
  Ti4+  Ti14  1  0.49800234  0.50218298  0.83503541  1
  Ti4+  Ti15  1  0.50083730  0.83428373  0.16876095  1
  Ti4+  Ti16  1  0.49615483  0.83243211  0.50145820  1
  Ti4+  Ti17  1  0.50123763  0.83438458  0.83388279  1
  Ti4+  Ti18  1  0.83414916  0.16552021  0.16867034  1
  Ti4+  Ti19  1  0.83456892  0.16592344  0.49655335  1
  Ti4+  Ti20  1  0.82950206  0.16673259  0.83156120  1
  Ti4+  Ti21  1  0.83206376  0.49674864  0.16360162  1
  Ti4+  Ti22  1  0.83445274  0.49979630  0.49912094  1
  Ti4+  Ti23  1  0.83276594  0.49849918  0.83423593  1
  Ti4+  Ti24  1  0.83355827  0.83330343  0.16699162  1
  Ti4+  Ti25  1  0.83318133  0.83183218  0.49997021  1
  Ti4+  Ti26  1  0.83417133  0.83159174  0.83498610  1
  Cu+  Cu27  1  0.17055236  0.17208575  -0.00019069  1
  Cu+  Cu28  1  0.16270544  0.16536158  0.33561470  1
  Cu+  Cu29  1  0.16057215  0.16661396  0.67515539  1
  Cu+  Cu30  1  0.16939612  0.49657303  0.00016098  1
  Cu+  Cu31  1  0.16246189  0.50591416  0.33175081  1
  Cu+  Cu32  1  0.16994749  0.49868982  0.65768277  1
  Cu+  Cu33  1  0.16908043  0.83809063  0.00201371  1
  Cu+  Cu34  1  0.16812376  0.83386197  0.33370846  1
  Cu+  Cu35  1  0.16679149  0.82712216  0.66860008  1
  Cu+  Cu36  1  0.49959691  0.16766257  -0.00072430  1
  Cu+  Cu37  1  0.50083130  0.16737195  0.33160073  1
  Cu+  Cu38  1  0.49851141  0.16075918  0.66380246  1
  Cu+  Cu39  1  0.50263044  0.50663117  0.00090886  1
  Cu+  Cu40  1  0.50105244  0.50114456  0.33529257  1
  Cu+  Cu41  1  0.49970971  0.49831557  0.66859500  1
  Cu+  Cu42  1  0.50123774  0.83509281  0.00206662  1
  Cu+  Cu43  1  0.49509554  0.82942009  0.33488877  1
  Cu+  Cu44  1  0.49848950  0.83333953  0.66652336  1
  Cu+  Cu45  1  0.83095118  0.16855896  0.00116813  1
  Cu+  Cu46  1  0.83914296  0.16894046  0.33119597  1
  Cu+  Cu47  1  0.83330660  0.16577776  0.66143353  1
  Cu+  Cu48  1  0.83308891  0.49756003  -0.00495360  1
  Cu+  Cu49  1  0.83159108  0.49554614  0.33124183  1
  Cu+  Cu50  1  0.83482106  0.50088240  0.66811671  1
  Cu+  Cu51  1  0.83363548  0.83176112  0.00233937  1
  Cu+  Cu52  1  0.83405501  0.83265122  0.33207347  1
  Cu+  Cu53  1  0.83201660  0.83198319  0.66727560  1
  Cu+  Cu54  1  0.16579362  0.00365119  0.16800826  1
  Cu+  Cu55  1  0.16506148  -0.00178070  0.50274291  1
  Cu+  Cu56  1  0.16920285  -0.00396868  0.83952773  1
  Cu+  Cu57  1  0.17013058  0.33861607  0.16166697  1
  Cu+  Cu58  1  0.16438957  0.33472436  0.50172817  1
  Cu+  Cu59  1  0.16212104  0.33024851  0.83994581  1
  Cu+  Cu60  1  0.16533026  0.66942483  0.16536894  1
  Cu+  Cu61  1  0.16936973  0.66278384  0.49640480  1
  Cu+  Cu62  1  0.17471781  0.66909112  0.83073291  1
  Cu+  Cu63  1  0.50214727  0.00265410  0.16630450  1
  Cu+  Cu64  1  0.48967917  0.00052802  0.50312419  1
  Cu+  Cu65  1  0.50177209  0.00193024  0.82877729  1
  Cu+  Cu66  1  0.50125732  0.33285819  0.16682854  1
  Cu+  Cu67  1  0.49975907  0.33162747  0.50168269  1
  Cu+  Cu68  1  0.49959956  0.33647493  0.82705286  1
  Cu+  Cu69  1  0.49848472  0.66879779  0.17032577  1
  Cu+  Cu70  1  0.50421536  0.66779459  0.49698264  1
  Cu+  Cu71  1  0.50152252  0.66691404  0.83902590  1
  Cu+  Cu72  1  0.83441197  -0.00200722  0.16703833  1
  Cu+  Cu73  1  0.83223398  -0.00063063  0.49693044  1
  Cu+  Cu74  1  0.83054285  -0.00240992  0.83128524  1
  Cu+  Cu75  1  0.82960011  0.32989292  0.16920232  1
  Cu+  Cu76  1  0.83628341  0.33116484  0.49802676  1
  Cu+  Cu77  1  0.82631703  0.33506872  0.83512820  1
  Cu+  Cu78  1  0.83377874  0.66752725  0.16440141  1
  Cu+  Cu79  1  0.83353051  0.66594351  0.49935628  1
  Cu+  Cu80  1  0.83748391  0.66488593  0.83630044  1
  Cu+  Cu81  1  0.00387198  0.16583981  0.17311581  1
  Cu+  Cu82  1  -0.00467756  0.16919167  0.50266301  1
  Cu+  Cu83  1  -0.00218350  0.16570510  0.83076944  1
  Cu+  Cu84  1  -0.00161990  0.50129858  0.16278627  1
  Cu+  Cu85  1  0.00282859  0.49934996  0.49250083  1
  Cu+  Cu86  1  0.00141276  0.49674215  0.83754247  1
  Cu+  Cu87  1  -0.00114913  0.83467419  0.16687907  1
  Cu+  Cu88  1  -0.00055880  0.83081041  0.50185914  1
  Cu+  Cu89  1  0.00040722  0.83088726  0.83434696  1
  Cu+  Cu90  1  0.33670366  0.16764269  0.16728898  1
  Cu+  Cu91  1  0.32961782  0.16287016  0.50405109  1
  Cu+  Cu92  1  0.33184178  0.16659414  0.83597112  1
  Cu+  Cu93  1  0.33334857  0.50093197  0.16499802  1
  Cu+  Cu94  1  0.33616637  0.50138337  0.49883302  1
  Cu+  Cu95  1  0.33293357  0.50686390  0.83569497  1
  Cu+  Cu96  1  0.33516953  0.83136191  0.16976155  1
  Cu+  Cu97  1  0.33502457  0.83875331  0.49527031  1
  Cu+  Cu98  1  0.33319669  0.83410998  0.83587309  1
  Cu+  Cu99  1  0.66632264  0.16717599  0.16428965  1
  Cu+  Cu100  1  0.66891035  0.16453445  0.49556362  1
  Cu+  Cu101  1  0.66096857  0.16387718  0.82722765  1
  Cu+  Cu102  1  0.66749868  0.49583411  0.16786109  1
  Cu+  Cu103  1  0.66854066  0.50056513  0.50200372  1
  Cu+  Cu104  1  0.66220909  0.49869165  0.83447060  1
  Cu+  Cu105  1  0.66857911  0.83501646  0.16811169  1
  Cu+  Cu106  1  0.66310603  0.83122339  0.49866252  1
  Cu+  Cu107  1  0.67218599  0.83449957  0.83101027  1
  Cu+  Cu108  1  0.07208587  0.40510943  0.93007105  1
  Cu+  Cu109  1  0.26616940  0.59353666  0.58395387  1
  Cu+  Cu110  1  0.73724710  0.40443623  0.26449999  1
  Cu+  Cu111  1  0.59535279  0.74046398  0.40556981  1
  Cu+  Cu112  1  0.93287889  0.26347393  0.25534373  1
  Cu+  Cu113  1  0.59465404  0.59879435  0.93037701  1
  Cu+  Cu114  1  0.73811947  0.25566358  0.07374331  1
  Cu+  Cu115  1  0.74528629  0.92431696  0.73564484  1
  Cu+  Cu116  1  0.40250653  0.73676072  0.26168251  1
  Cu+  Cu117  1  0.26596516  0.74750744  0.73835761  1
  Cu+  Cu118  1  0.07299509  0.41352637  0.58696626  1
  Cu+  Cu119  1  0.59328975  0.40946589  0.73720705  1
  Cu+  Cu120  1  0.40924001  0.93131901  0.40184790  1
  Cu+  Cu121  1  0.93147451  0.59425337  0.92493583  1
  Cu+  Cu122  1  0.59123026  0.07110062  0.73280283  1
  Cu+  Cu123  1  0.91759307  0.26087860  0.59530986  1
  Cu+  Cu124  1  0.07187332  0.26072527  0.74815834  1
  Cu+  Cu125  1  0.07093844  0.59646319  0.40414389  1
  Cu+  Cu126  1  0.26401399  0.92653779  0.93115376  1
  Cu+  Cu127  1  0.73275422  0.40795088  0.92364064  1
  Cu+  Cu128  1  0.25766586  0.59587220  0.92996668  1
  Cu+  Cu129  1  0.26678033  0.40972847  0.07520610  1
  Cu+  Cu130  1  0.39766002  0.07256023  0.59680176  1
  Cu+  Cu131  1  0.07629467  0.07026691  0.26502659  1
  Cu+  Cu132  1  0.26492090  0.25930604  0.92421666  1
  Te2-  Te133  1  0.25943314  0.25561234  0.08021118  1
  Te2-  Te134  1  0.24876233  0.24951493  0.41853120  1
  Te2-  Te135  1  0.25006949  0.25277253  0.75125215  1
  Te2-  Te136  1  0.25301351  0.58984709  0.08113086  1
  Te2-  Te137  1  0.25691851  0.58500625  0.40931499  1
  Te2-  Te138  1  0.25428092  0.58513107  0.74138468  1
  Te2-  Te139  1  0.25624627  0.92247143  0.08539799  1
  Te2-  Te140  1  0.25038062  0.92259536  0.41299168  1
  Te2-  Te141  1  0.25111260  0.91744712  0.74746526  1
  Te2-  Te142  1  0.58513000  0.25451739  0.07816242  1
  Te2-  Te143  1  0.58430365  0.25092730  0.41556415  1
  Te2-  Te144  1  0.58413629  0.25323430  0.74110152  1
  Te2-  Te145  1  0.58911504  0.58941289  0.08537024  1
  Te2-  Te146  1  0.59030784  0.58473093  0.41293814  1
  Te2-  Te147  1  0.58448894  0.58727064  0.74838563  1
  Te2-  Te148  1  0.58649871  0.91934731  0.08321330  1
  Te2-  Te149  1  0.57936477  0.92039578  0.41589496  1
  Te2-  Te150  1  0.58781606  0.91810144  0.74372255  1
  Te2-  Te151  1  0.92106464  0.25086442  0.08376696  1
  Te2-  Te152  1  0.92363249  0.25538761  0.41068938  1
  Te2-  Te153  1  0.91561095  0.25639763  0.74784187  1
  Te2-  Te154  1  0.91702678  0.58514708  0.07795941  1
  Te2-  Te155  1  0.91699616  0.58540441  0.40973074  1
  Te2-  Te156  1  0.92192191  0.58281950  0.74986764  1
  Te2-  Te157  1  0.91908448  0.91915685  0.08056979  1
  Te2-  Te158  1  0.91931971  0.91612040  0.41515838  1
  Te2-  Te159  1  0.92005472  0.91689580  0.74833954  1
  Te2-  Te160  1  0.25322942  0.08458603  0.25301163  1
  Te2-  Te161  1  0.24509727  0.08007601  0.59203748  1
  Te2-  Te162  1  0.25448026  0.07973277  0.92358093  1
  Te2-  Te163  1  0.25005928  0.41934120  0.25308844  1
  Te2-  Te164  1  0.25725984  0.41175305  0.58217955  1
  Te2-  Te165  1  0.25828265  0.41138405  0.91882682  1
  Te2-  Te166  1  0.25090208  0.74571193  0.25410914  1
  Te2-  Te167  1  0.25788454  0.74626722  0.58396056  1
  Te2-  Te168  1  0.25554013  0.74789373  0.92554357  1
  Te2-  Te169  1  0.58712036  0.08249681  0.25183969  1
  Te2-  Te170  1  0.58849133  0.07667423  0.58064306  1
  Te2-  Te171  1  0.58361281  0.08167184  0.91843135  1
  Te2-  Te172  1  0.58435205  0.41275078  0.25488923  1
  Te2-  Te173  1  0.58703738  0.41292234  0.58511091  1
  Te2-  Te174  1  0.58109124  0.41110097  0.92263686  1
  Te2-  Te175  1  0.58894001  0.74802410  0.25370625  1
  Te2-  Te176  1  0.58419025  0.74788780  0.58782710  1
  Te2-  Te177  1  0.58922563  0.75217979  0.92051941  1
  Te2-  Te178  1  0.92033678  0.07634409  0.25389740  1
  Te2-  Te179  1  0.91801389  0.07731317  0.58395437  1
  Te2-  Te180  1  0.91393113  0.08265369  0.91680911  1
  Te2-  Te181  1  0.92165828  0.41448976  0.25035046  1
  Te2-  Te182  1  0.92122236  0.41472248  0.58722115  1
  Te2-  Te183  1  0.91940020  0.40758186  0.91991833  1
  Te2-  Te184  1  0.91941866  0.74660494  0.25139038  1
  Te2-  Te185  1  0.91741812  0.74641750  0.58649212  1
  Te2-  Te186  1  0.92167689  0.74727378  0.92315459  1
  Te2-  Te187  1  0.08607938  0.25985695  0.25301841  1
  Te2-  Te188  1  0.07593600  0.25550126  0.59136451  1
  Te2-  Te189  1  0.07277756  0.24990672  0.92435390  1
  Te2-  Te190  1  0.07670511  0.58922382  0.24795591  1
  Te2-  Te191  1  0.07985963  0.58511949  0.58297260  1
  Te2-  Te192  1  0.08571217  0.58824023  0.91878845  1
  Te2-  Te193  1  0.08034080  0.91870819  0.25409478  1
  Te2-  Te194  1  0.08243480  0.91374778  0.58752079  1
  Te2-  Te195  1  0.07861695  0.91724892  0.92046997  1
  Te2-  Te196  1  0.41519863  0.25395625  0.25272184  1
  Te2-  Te197  1  0.41333214  0.25074270  0.58620960  1
  Te2-  Te198  1  0.41734158  0.25505948  0.91741200  1
  Te2-  Te199  1  0.41291699  0.58387095  0.25426210  1
  Te2-  Te200  1  0.41902280  0.58808505  0.58633696  1
  Te2-  Te201  1  0.41223356  0.59027287  0.92386798  1
  Te2-  Te202  1  0.41395248  0.92344232  0.25158438  1
  Te2-  Te203  1  0.40850132  0.91781887  0.59218852  1
  Te2-  Te204  1  0.41746761  0.92174727  0.91945427  1
  Te2-  Te205  1  0.74314631  0.24998234  0.25684942  1
  Te2-  Te206  1  0.74670964  0.25185608  0.58201672  1
  Te2-  Te207  1  0.73971161  0.25066349  0.91751993  1
  Te2-  Te208  1  0.75003367  0.58440952  0.24927779  1
  Te2-  Te209  1  0.75054615  0.58462394  0.58578292  1
  Te2-  Te210  1  0.74534851  0.58670526  0.91928398  1
  Te2-  Te211  1  0.74870820  0.91966268  0.25362068  1
  Te2-  Te212  1  0.74489837  0.91890950  0.58263883  1
  Te2-  Te213  1  0.74901309  0.91794376  0.92170155  1
  Te2-  Te214  1  0.08311970  0.08616092  0.07965998  1
  Te2-  Te215  1  0.07712130  0.07980648  0.41941365  1
  Te2-  Te216  1  0.08078852  0.07443583  0.75387535  1
  Te2-  Te217  1  0.07674007  0.41361216  0.07969441  1
  Te2-  Te218  1  0.08303317  0.41142720  0.40882004  1
  Te2-  Te219  1  0.08154086  0.41471279  0.74486491  1
  Te2-  Te220  1  0.08214795  0.75198238  0.08097830  1
  Te2-  Te221  1  0.08113892  0.74788520  0.41360461  1
  Te2-  Te222  1  0.08007526  0.74437292  0.75041053  1
  Te2-  Te223  1  0.41547440  0.08202386  0.08083975  1
  Te2-  Te224  1  0.40993731  0.08369974  0.41009690  1
  Te2-  Te225  1  0.40816595  0.07931623  0.74863692  1
  Te2-  Te226  1  0.41868161  0.41578297  0.07959023  1
  Te2-  Te227  1  0.41657828  0.41440175  0.41575905  1
  Te2-  Te228  1  0.40899721  0.41826817  0.74893886  1
  Te2-  Te229  1  0.41594255  0.74886445  0.08089533  1
  Te2-  Te230  1  0.40876074  0.74190511  0.41592851  1
  Te2-  Te231  1  0.41684385  0.74606733  0.74969533  1
  Te2-  Te232  1  0.74891586  0.07937652  0.08245167  1
  Te2-  Te233  1  0.75050493  0.08136919  0.40930655  1
  Te2-  Te234  1  0.74669307  0.08035519  0.74148716  1
  Te2-  Te235  1  0.74460232  0.41017390  0.07609002  1
  Te2-  Te236  1  0.74678571  0.41183062  0.41684162  1
  Te2-  Te237  1  0.74619347  0.41467208  0.74416774  1
  Te2-  Te238  1  0.74638180  0.74786271  0.08192838  1
  Te2-  Te239  1  0.74817383  0.74629077  0.41234174  1
  Te2-  Te240  1  0.75034383  0.74267108  0.74953561  1
