# generated using pymatgen
data_Ti27(Cu53Te54)2
_symmetry_space_group_name_H-M   'P 1'
_cell_length_a   17.86252704
_cell_length_b   17.86395173
_cell_length_c   17.86353742
_cell_angle_alpha   89.99136148
_cell_angle_beta   89.97336817
_cell_angle_gamma   89.96701674
_symmetry_Int_Tables_number   1
_chemical_formula_structural   Ti27(Cu53Te54)2
_chemical_formula_sum   'Ti27 Cu106 Te108'
_cell_volume   5700.16957991
_cell_formula_units_Z   1
loop_
 _symmetry_equiv_pos_site_id
 _symmetry_equiv_pos_as_xyz
  1  'x, y, z'
loop_
 _atom_type_symbol
 _atom_type_oxidation_number
  Ti4+  4.0
  Cu+  1.0
  Te2-  -2.0
loop_
 _atom_site_type_symbol
 _atom_site_label
 _atom_site_symmetry_multiplicity
 _atom_site_fract_x
 _atom_site_fract_y
 _atom_site_fract_z
 _atom_site_occupancy
  Ti4+  Ti0  1  0.16992042  0.16798739  0.16675507  1
  Ti4+  Ti1  1  0.16550044  0.16376797  0.50168763  1
  Ti4+  Ti2  1  0.16673364  0.16869652  0.83000518  1
  Ti4+  Ti3  1  0.16584487  0.49896769  0.16446050  1
  Ti4+  Ti4  1  0.16686069  0.50004382  0.50020571  1
  Ti4+  Ti5  1  0.16448256  0.49910033  0.83031123  1
  Ti4+  Ti6  1  0.16743633  0.83117367  0.16841548  1
  Ti4+  Ti7  1  0.16886550  0.83375539  0.50126158  1
  Ti4+  Ti8  1  0.16639685  0.83447176  0.83365918  1
  Ti4+  Ti9  1  0.49857170  0.16332373  0.16503095  1
  Ti4+  Ti10  1  0.50025621  0.16602618  0.49997270  1
  Ti4+  Ti11  1  0.50018753  0.16924072  0.83783514  1
  Ti4+  Ti12  1  0.49918606  0.50121817  0.16855908  1
  Ti4+  Ti13  1  0.49916698  0.50020419  0.50139414  1
  Ti4+  Ti14  1  0.49903706  0.49895960  0.83287960  1
  Ti4+  Ti15  1  0.50292320  0.83187609  0.16623657  1
  Ti4+  Ti16  1  0.49969047  0.83454869  0.50132631  1
  Ti4+  Ti17  1  0.50093747  0.83211954  0.83620046  1
  Ti4+  Ti18  1  0.83584767  0.16530480  0.16979051  1
  Ti4+  Ti19  1  0.83045828  0.17030275  0.49652008  1
  Ti4+  Ti20  1  0.83497392  0.16560101  0.83266222  1
  Ti4+  Ti21  1  0.83454390  0.49853216  0.16790968  1
  Ti4+  Ti22  1  0.82974125  0.50097482  0.49799621  1
  Ti4+  Ti23  1  0.83079247  0.49979324  0.83491028  1
  Ti4+  Ti24  1  0.83366090  0.83432835  0.16485036  1
  Ti4+  Ti25  1  0.83304656  0.83460053  0.49808471  1
  Ti4+  Ti26  1  0.83494171  0.83436801  0.82908857  1
  Cu+  Cu27  1  0.17175841  0.16817699  -0.00212580  1
  Cu+  Cu28  1  0.16867889  0.16033474  0.33481752  1
  Cu+  Cu29  1  0.16278816  0.17384599  0.66520842  1
  Cu+  Cu30  1  0.16206221  0.49860277  -0.00188757  1
  Cu+  Cu31  1  0.16805044  0.50045576  0.33084927  1
  Cu+  Cu32  1  0.16897001  0.50035005  0.66476376  1
  Cu+  Cu33  1  0.16704163  0.82992303  0.00136253  1
  Cu+  Cu34  1  0.16462468  0.83213862  0.33553885  1
  Cu+  Cu35  1  0.16798116  0.83934030  0.66735995  1
  Cu+  Cu36  1  0.49284111  0.16541761  0.00170741  1
  Cu+  Cu37  1  0.50068047  0.16426649  0.33181802  1
  Cu+  Cu38  1  0.50130009  0.16826864  0.66881241  1
  Cu+  Cu39  1  0.50081802  0.50126145  -0.00044132  1
  Cu+  Cu40  1  0.49973629  0.49991532  0.33653217  1
  Cu+  Cu41  1  0.49919336  0.49952155  0.66702733  1
  Cu+  Cu42  1  0.50078367  0.83663106  0.00340532  1
  Cu+  Cu43  1  0.50121904  0.82962933  0.33479415  1
  Cu+  Cu44  1  0.50130163  0.83244447  0.67005184  1
  Cu+  Cu45  1  0.83838651  0.16672330  -0.00007403  1
  Cu+  Cu46  1  0.83377936  0.16781292  0.33185089  1
  Cu+  Cu47  1  0.82804527  0.16438151  0.66446919  1
  Cu+  Cu48  1  0.83230395  0.49696828  0.00366482  1
  Cu+  Cu49  1  0.83621377  0.49768727  0.33357512  1
  Cu+  Cu50  1  0.82851295  0.50028165  0.66784353  1
  Cu+  Cu51  1  0.83461293  0.83305350  -0.00319885  1
  Cu+  Cu52  1  0.83429003  0.83605361  0.33233918  1
  Cu+  Cu53  1  0.83301979  0.83404869  0.66278398  1
  Cu+  Cu54  1  0.16739786  0.00222840  0.16692104  1
  Cu+  Cu55  1  0.17486950  -0.00021639  0.50043930  1
  Cu+  Cu56  1  0.16072241  -0.00176991  0.82673502  1
  Cu+  Cu57  1  0.16491822  0.33515244  0.16582647  1
  Cu+  Cu58  1  0.16458344  0.33147341  0.50207368  1
  Cu+  Cu59  1  0.16470236  0.33263380  0.82936288  1
  Cu+  Cu60  1  0.16905416  0.66429840  0.16768858  1
  Cu+  Cu61  1  0.16857265  0.66555388  0.50351502  1
  Cu+  Cu62  1  0.16499730  0.66825109  0.83226930  1
  Cu+  Cu63  1  0.49950079  -0.00541002  0.16024301  1
  Cu+  Cu64  1  0.49975183  -0.00028764  0.50104589  1
  Cu+  Cu65  1  0.50163933  0.00066728  0.84038124  1
  Cu+  Cu66  1  0.50141109  0.33436133  0.16552275  1
  Cu+  Cu67  1  0.50015209  0.33438202  0.49834812  1
  Cu+  Cu68  1  0.49819483  0.33444410  0.82919245  1
  Cu+  Cu69  1  0.49827884  0.66887680  0.16990843  1
  Cu+  Cu70  1  0.50116848  0.66782640  0.50046557  1
  Cu+  Cu71  1  0.50312565  0.66337919  0.83640301  1
  Cu+  Cu72  1  0.83497027  -0.00168491  0.17329253  1
  Cu+  Cu73  1  0.83096267  0.00209987  0.49815580  1
  Cu+  Cu74  1  0.83963555  -0.00131625  0.83294520  1
  Cu+  Cu75  1  0.83633781  0.33117736  0.17152259  1
  Cu+  Cu76  1  0.82735290  0.33917162  0.49408625  1
  Cu+  Cu77  1  0.83454462  0.33248835  0.83483002  1
  Cu+  Cu78  1  0.83356804  0.66479950  0.16577236  1
  Cu+  Cu79  1  0.83247589  0.66756623  0.49868257  1
  Cu+  Cu80  1  0.82799986  0.66842123  0.83350891  1
  Cu+  Cu81  1  0.00450736  0.16946257  0.16892484  1
  Cu+  Cu82  1  -0.00213298  0.16381038  0.49451091  1
  Cu+  Cu83  1  -0.00190547  0.17211085  0.83064390  1
  Cu+  Cu84  1  0.00190297  0.49998615  0.16361038  1
  Cu+  Cu85  1  0.00018722  0.49952254  0.49748268  1
  Cu+  Cu86  1  -0.00179931  0.49871642  0.83106657  1
  Cu+  Cu87  1  0.00111786  0.83453035  0.16652215  1
  Cu+  Cu88  1  0.00189234  0.83163894  0.50004701  1
  Cu+  Cu89  1  0.00083599  0.84184906  0.83061261  1
  Cu+  Cu90  1  0.33549815  0.17041618  0.16393083  1
  Cu+  Cu91  1  0.33071784  0.16188667  0.50132659  1
  Cu+  Cu92  1  0.33537200  0.17073189  0.83747189  1
  Cu+  Cu93  1  0.33036369  0.50437333  0.16759014  1
  Cu+  Cu94  1  0.33375709  0.50220011  0.50267086  1
  Cu+  Cu95  1  0.33222557  0.49810721  0.83104168  1
  Cu+  Cu96  1  0.33529051  0.82960988  0.16821476  1
  Cu+  Cu97  1  0.33347685  0.83739210  0.50478530  1
  Cu+  Cu98  1  0.33358211  0.82854694  0.83495283  1
  Cu+  Cu99  1  0.66582444  0.15887202  0.16731415  1
  Cu+  Cu100  1  0.66775547  0.16975118  0.50041129  1
  Cu+  Cu101  1  0.66676517  0.16482262  0.83391044  1
  Cu+  Cu102  1  0.66814586  0.49881185  0.16768625  1
  Cu+  Cu103  1  0.66511597  0.49844127  0.50486373  1
  Cu+  Cu104  1  0.66264761  0.50248927  0.83686452  1
  Cu+  Cu105  1  0.66654387  0.83050722  0.16391068  1
  Cu+  Cu106  1  0.66482835  0.83373939  0.49700707  1
  Cu+  Cu107  1  0.66842213  0.82963451  0.83373892  1
  Cu+  Cu108  1  0.41273235  0.26107602  0.73611047  1
  Cu+  Cu109  1  0.06719583  0.26445509  0.73750332  1
  Cu+  Cu110  1  0.73467779  0.06795765  0.25667081  1
  Cu+  Cu111  1  0.40930712  0.74309091  0.26462148  1
  Cu+  Cu112  1  0.92352098  0.26445991  0.92855519  1
  Cu+  Cu113  1  0.40445398  0.07092326  0.92355596  1
  Cu+  Cu114  1  0.25730323  0.59109925  0.26028055  1
  Cu+  Cu115  1  0.73655510  0.41145953  0.60032848  1
  Cu+  Cu116  1  0.26090719  0.26154925  0.58482248  1
  Cu+  Cu117  1  0.40860737  0.26714677  0.07921615  1
  Cu+  Cu118  1  0.73555592  0.26461899  0.40424196  1
  Cu+  Cu119  1  0.73932591  0.07120317  0.59474425  1
  Cu+  Cu120  1  0.93225022  0.91832587  0.26190023  1
  Cu+  Cu121  1  0.40151957  0.91930546  0.07643999  1
  Cu+  Cu122  1  0.25846404  0.26329250  0.92470792  1
  Cu+  Cu123  1  0.93138772  0.41266697  0.40708797  1
  Cu+  Cu124  1  0.26524086  0.92863729  0.59917506  1
  Cu+  Cu125  1  0.06974121  0.92616849  0.73247443  1
  Cu+  Cu126  1  0.26336292  0.07132956  0.40281862  1
  Cu+  Cu127  1  0.93325641  0.26021415  0.25979402  1
  Cu+  Cu128  1  0.92923762  0.92428099  0.92841102  1
  Cu+  Cu129  1  0.74312373  0.74361000  0.92641152  1
  Cu+  Cu130  1  0.26296248  0.59483171  0.59652001  1
  Cu+  Cu131  1  0.92348395  0.07177483  0.40873629  1
  Cu+  Cu132  1  0.59028554  0.59101199  0.93105257  1
  Te2-  Te133  1  0.25385788  0.25795288  0.07943824  1
  Te2-  Te134  1  0.25113041  0.25055919  0.41569397  1
  Te2-  Te135  1  0.25673925  0.25567211  0.74326642  1
  Te2-  Te136  1  0.25014798  0.58494579  0.07594099  1
  Te2-  Te137  1  0.25346428  0.58656766  0.41427165  1
  Te2-  Te138  1  0.25258291  0.58741351  0.74820986  1
  Te2-  Te139  1  0.25075605  0.91766646  0.08186784  1
  Te2-  Te140  1  0.25559445  0.91761495  0.41043277  1
  Te2-  Te141  1  0.25827606  0.92070284  0.75076768  1
  Te2-  Te142  1  0.58660227  0.24752922  0.08143181  1
  Te2-  Te143  1  0.58348245  0.25247941  0.41208888  1
  Te2-  Te144  1  0.58815623  0.25236675  0.74957473  1
  Te2-  Te145  1  0.58622189  0.58730459  0.08469282  1
  Te2-  Te146  1  0.58619575  0.58471923  0.41724024  1
  Te2-  Te147  1  0.58520446  0.58474457  0.74578264  1
  Te2-  Te148  1  0.59151330  0.91857983  0.07932508  1
  Te2-  Te149  1  0.58332395  0.91922087  0.41345392  1
  Te2-  Te150  1  0.58526810  0.91875077  0.75324982  1
  Te2-  Te151  1  0.92198548  0.25295733  0.08245339  1
  Te2-  Te152  1  0.92267075  0.25816442  0.41190521  1
  Te2-  Te153  1  0.91469107  0.25379984  0.74065599  1
  Te2-  Te154  1  0.91875906  0.58449076  0.08070699  1
  Te2-  Te155  1  0.91843142  0.58701680  0.41394089  1
  Te2-  Te156  1  0.91414542  0.58555417  0.74870904  1
  Te2-  Te157  1  0.92009841  0.92161754  0.07964271  1
  Te2-  Te158  1  0.92354970  0.92052475  0.41376738  1
  Te2-  Te159  1  0.91878217  0.92257480  0.73858684  1
  Te2-  Te160  1  0.25783225  0.08048570  0.24992444  1
  Te2-  Te161  1  0.25225121  0.08100253  0.59443630  1
  Te2-  Te162  1  0.24976136  0.07705720  0.91496964  1
  Te2-  Te163  1  0.25313841  0.41279412  0.25115278  1
  Te2-  Te164  1  0.25388286  0.41252058  0.58582365  1
  Te2-  Te165  1  0.25051610  0.41472108  0.91777268  1
  Te2-  Te166  1  0.25381051  0.74589753  0.25719632  1
  Te2-  Te167  1  0.25389985  0.74809373  0.59014928  1
  Te2-  Te168  1  0.25035392  0.74614975  0.91880055  1
  Te2-  Te169  1  0.58177965  0.07375323  0.25201631  1
  Te2-  Te170  1  0.58565829  0.08171262  0.58732575  1
  Te2-  Te171  1  0.58702097  0.08392508  0.92389780  1
  Te2-  Te172  1  0.58417123  0.41500065  0.25264946  1
  Te2-  Te173  1  0.58349952  0.41118756  0.58884275  1
  Te2-  Te174  1  0.58369170  0.41098276  0.91903792  1
  Te2-  Te175  1  0.58943925  0.74589217  0.25327105  1
  Te2-  Te176  1  0.58590206  0.74946987  0.58551970  1
  Te2-  Te177  1  0.58737265  0.74635342  0.92522679  1
  Te2-  Te178  1  0.92746950  0.07795194  0.25530026  1
  Te2-  Te179  1  0.91690517  0.08304967  0.58337428  1
  Te2-  Te180  1  0.92437938  0.08054766  0.91874852  1
  Te2-  Te181  1  0.92588220  0.41316233  0.25354614  1
  Te2-  Te182  1  0.91610993  0.41502668  0.58459946  1
  Te2-  Te183  1  0.91963430  0.41562776  0.92050422  1
  Te2-  Te184  1  0.91788077  0.74811248  0.25056856  1
  Te2-  Te185  1  0.91777723  0.74855554  0.58296563  1
  Te2-  Te186  1  0.92251613  0.74844525  0.91405837  1
  Te2-  Te187  1  0.08649616  0.25285069  0.25729209  1
  Te2-  Te188  1  0.07235186  0.25266312  0.58226530  1
  Te2-  Te189  1  0.08037222  0.25339254  0.91998267  1
  Te2-  Te190  1  0.07964688  0.58518464  0.25169330  1
  Te2-  Te191  1  0.07879166  0.58367559  0.58492621  1
  Te2-  Te192  1  0.07964405  0.58482660  0.91512556  1
  Te2-  Te193  1  0.08380193  0.92062306  0.25371826  1
  Te2-  Te194  1  0.07971720  0.92303155  0.58232461  1
  Te2-  Te195  1  0.08286904  0.92154867  0.92428587  1
  Te2-  Te196  1  0.41674648  0.25205694  0.25231081  1
  Te2-  Te197  1  0.41361646  0.25368244  0.58444665  1
  Te2-  Te198  1  0.41276820  0.26173545  0.92472865  1
  Te2-  Te199  1  0.41304021  0.58729956  0.25723042  1
  Te2-  Te200  1  0.41524352  0.58901118  0.58856932  1
  Te2-  Te201  1  0.41148505  0.58409471  0.91814748  1
  Te2-  Te202  1  0.41624096  0.91795774  0.25327749  1
  Te2-  Te203  1  0.41675004  0.92172539  0.59130416  1
  Te2-  Te204  1  0.41027483  0.91782143  0.92142886  1
  Te2-  Te205  1  0.74290696  0.25212251  0.25117639  1
  Te2-  Te206  1  0.74624287  0.25737074  0.58705515  1
  Te2-  Te207  1  0.74885625  0.24925318  0.91931978  1
  Te2-  Te208  1  0.74969935  0.58444587  0.25358185  1
  Te2-  Te209  1  0.74653957  0.58843856  0.58526269  1
  Te2-  Te210  1  0.74610700  0.58599872  0.92450959  1
  Te2-  Te211  1  0.74285611  0.91639657  0.25288665  1
  Te2-  Te212  1  0.74479943  0.91974958  0.58412858  1
  Te2-  Te213  1  0.74858272  0.92055071  0.91616499  1
  Te2-  Te214  1  0.08420209  0.08505412  0.08066708  1
  Te2-  Te215  1  0.08103962  0.07532575  0.41408787  1
  Te2-  Te216  1  0.07745403  0.08342242  0.74377576  1
  Te2-  Te217  1  0.07921473  0.41229963  0.07906315  1
  Te2-  Te218  1  0.08425227  0.41219989  0.41174209  1
  Te2-  Te219  1  0.07827057  0.41501393  0.74220172  1
  Te2-  Te220  1  0.08160030  0.74627155  0.08397094  1
  Te2-  Te221  1  0.08353985  0.74606059  0.41761502  1
  Te2-  Te222  1  0.08068286  0.75123656  0.74653118  1
  Te2-  Te223  1  0.40786476  0.07498748  0.07943272  1
  Te2-  Te224  1  0.41503283  0.07967763  0.41417615  1
  Te2-  Te225  1  0.41567692  0.08148413  0.75142389  1
  Te2-  Te226  1  0.41243253  0.41909349  0.08094889  1
  Te2-  Te227  1  0.41263467  0.41558545  0.41622392  1
  Te2-  Te228  1  0.41098890  0.41418842  0.74371933  1
  Te2-  Te229  1  0.41530823  0.74587915  0.07839209  1
  Te2-  Te230  1  0.41101945  0.74726876  0.41826150  1
  Te2-  Te231  1  0.41793577  0.74562540  0.75155244  1
  Te2-  Te232  1  0.75366877  0.07988437  0.08123060  1
  Te2-  Te233  1  0.74355544  0.08071042  0.41039218  1
  Te2-  Te234  1  0.74682728  0.07720404  0.74968273  1
  Te2-  Te235  1  0.74889635  0.41027667  0.08490839  1
  Te2-  Te236  1  0.73936601  0.41783951  0.40763142  1
  Te2-  Te237  1  0.74350168  0.41268476  0.75267416  1
  Te2-  Te238  1  0.74883536  0.74574539  0.07966150  1
  Te2-  Te239  1  0.74856506  0.74960934  0.41236968  1
  Te2-  Te240  1  0.74770111  0.74882005  0.74288817  1
