# generated using pymatgen
data_Ti27(Cu53Te54)2
_symmetry_space_group_name_H-M   'P 1'
_cell_length_a   17.89970218
_cell_length_b   17.90050837
_cell_length_c   17.89730742
_cell_angle_alpha   90.05430763
_cell_angle_beta   89.99882818
_cell_angle_gamma   89.96381585
_symmetry_Int_Tables_number   1
_chemical_formula_structural   Ti27(Cu53Te54)2
_chemical_formula_sum   'Ti27 Cu106 Te108'
_cell_volume   5734.54000009
_cell_formula_units_Z   1
loop_
 _symmetry_equiv_pos_site_id
 _symmetry_equiv_pos_as_xyz
  1  'x, y, z'
loop_
 _atom_type_symbol
 _atom_type_oxidation_number
  Ti4+  4.0
  Cu+  1.0
  Te2-  -2.0
loop_
 _atom_site_type_symbol
 _atom_site_label
 _atom_site_symmetry_multiplicity
 _atom_site_fract_x
 _atom_site_fract_y
 _atom_site_fract_z
 _atom_site_occupancy
  Ti4+  Ti0  1  0.16732467  0.16631053  0.16649989  1
  Ti4+  Ti1  1  0.16657261  0.16719435  0.50054001  1
  Ti4+  Ti2  1  0.16807825  0.16541987  0.83149906  1
  Ti4+  Ti3  1  0.16715699  0.50006665  0.16495363  1
  Ti4+  Ti4  1  0.16660690  0.50295073  0.50131668  1
  Ti4+  Ti5  1  0.16845515  0.50074123  0.82991838  1
  Ti4+  Ti6  1  0.17030638  0.83367915  0.16513366  1
  Ti4+  Ti7  1  0.16363145  0.83258005  0.50074637  1
  Ti4+  Ti8  1  0.16855441  0.83712562  0.83423315  1
  Ti4+  Ti9  1  0.49950541  0.16591192  0.16916101  1
  Ti4+  Ti10  1  0.50197619  0.16550118  0.49679964  1
  Ti4+  Ti11  1  0.50044840  0.16818779  0.83115198  1
  Ti4+  Ti12  1  0.49946979  0.49776732  0.16599798  1
  Ti4+  Ti13  1  0.50076034  0.50035682  0.49849166  1
  Ti4+  Ti14  1  0.49862637  0.50000736  0.83397429  1
  Ti4+  Ti15  1  0.50033135  0.83175931  0.16768997  1
  Ti4+  Ti16  1  0.50096161  0.83319082  0.49785704  1
  Ti4+  Ti17  1  0.49818556  0.83435382  0.83262720  1
  Ti4+  Ti18  1  0.83221453  0.16495980  0.16779116  1
  Ti4+  Ti19  1  0.83288164  0.16802549  0.50275705  1
  Ti4+  Ti20  1  0.83239298  0.16504507  0.83879873  1
  Ti4+  Ti21  1  0.83390334  0.49964193  0.16506594  1
  Ti4+  Ti22  1  0.83528900  0.50263090  0.49928886  1
  Ti4+  Ti23  1  0.83641215  0.49719812  0.83346629  1
  Ti4+  Ti24  1  0.83318020  0.83261954  0.16649241  1
  Ti4+  Ti25  1  0.83447908  0.83495712  0.50462412  1
  Ti4+  Ti26  1  0.82679656  0.83050801  0.83379120  1
  Cu+  Cu27  1  0.16891064  0.16491622  -0.00086280  1
  Cu+  Cu28  1  0.16697780  0.16796392  0.33381929  1
  Cu+  Cu29  1  0.16721782  0.16168538  0.66484369  1
  Cu+  Cu30  1  0.16865246  0.50040013  -0.00289690  1
  Cu+  Cu31  1  0.16650222  0.50365805  0.33322809  1
  Cu+  Cu32  1  0.16591909  0.49793803  0.66323789  1
  Cu+  Cu33  1  0.16745164  0.84403047  0.00271883  1
  Cu+  Cu34  1  0.16887319  0.83383259  0.32973125  1
  Cu+  Cu35  1  0.16582087  0.82980321  0.66780334  1
  Cu+  Cu36  1  0.49718352  0.16945764  0.00072405  1
  Cu+  Cu37  1  0.50044493  0.16373040  0.33305532  1
  Cu+  Cu38  1  0.50433932  0.16933920  0.66283106  1
  Cu+  Cu39  1  0.49837581  0.49908525  0.00106625  1
  Cu+  Cu40  1  0.50047824  0.49920020  0.33289386  1
  Cu+  Cu41  1  0.49887927  0.49821445  0.66568223  1
  Cu+  Cu42  1  0.49825878  0.83470535  0.00232175  1
  Cu+  Cu43  1  0.50119973  0.83013974  0.33235701  1
  Cu+  Cu44  1  0.50040019  0.83711138  0.66431636  1
  Cu+  Cu45  1  0.82840931  0.16095401  0.00281120  1
  Cu+  Cu46  1  0.83431156  0.16779165  0.33528537  1
  Cu+  Cu47  1  0.83179917  0.16890872  0.67336358  1
  Cu+  Cu48  1  0.83448242  0.49503061  -0.00091406  1
  Cu+  Cu49  1  0.83535566  0.50068302  0.32958404  1
  Cu+  Cu50  1  0.83594272  0.50498297  0.67030821  1
  Cu+  Cu51  1  0.83215622  0.83150951  -0.00065772  1
  Cu+  Cu52  1  0.83714718  0.83490624  0.33507290  1
  Cu+  Cu53  1  0.82382405  0.82902473  0.66725795  1
  Cu+  Cu54  1  0.16971562  -0.00163155  0.16362656  1
  Cu+  Cu55  1  0.16325636  0.00069834  0.50320639  1
  Cu+  Cu56  1  0.17145830  0.00406850  0.83468638  1
  Cu+  Cu57  1  0.16779549  0.33284801  0.16655024  1
  Cu+  Cu58  1  0.16683271  0.33680498  0.50312577  1
  Cu+  Cu59  1  0.16574419  0.33342140  0.83149070  1
  Cu+  Cu60  1  0.16834294  0.66901592  0.16424317  1
  Cu+  Cu61  1  0.15923324  0.66747646  0.50126902  1
  Cu+  Cu62  1  0.17465440  0.66771216  0.83070117  1
  Cu+  Cu63  1  0.49722821  -0.00187251  0.17132697  1
  Cu+  Cu64  1  0.50760566  -0.00306511  0.49638273  1
  Cu+  Cu65  1  0.49867873  0.00237822  0.83184874  1
  Cu+  Cu66  1  0.49891770  0.33071906  0.16794950  1
  Cu+  Cu67  1  0.49972050  0.33400954  0.49676585  1
  Cu+  Cu68  1  0.49893857  0.33548590  0.83218269  1
  Cu+  Cu69  1  0.50056848  0.66480589  0.16679398  1
  Cu+  Cu70  1  0.50057237  0.66512840  0.49676503  1
  Cu+  Cu71  1  0.49751379  0.66798748  0.83231964  1
  Cu+  Cu72  1  0.83304674  0.00032497  0.16879677  1
  Cu+  Cu73  1  0.83450083  0.00070227  0.50247072  1
  Cu+  Cu74  1  0.82912214  -0.00292096  0.84070657  1
  Cu+  Cu75  1  0.83456168  0.33228659  0.16541742  1
  Cu+  Cu76  1  0.83396049  0.33533858  0.50159351  1
  Cu+  Cu77  1  0.83130279  0.33248608  0.83727676  1
  Cu+  Cu78  1  0.83292709  0.66514197  0.16446910  1
  Cu+  Cu79  1  0.83799310  0.67164977  0.50088125  1
  Cu+  Cu80  1  0.83051528  0.66179634  0.82802677  1
  Cu+  Cu81  1  -0.00278795  0.16610710  0.16731549  1
  Cu+  Cu82  1  -0.00019922  0.16586118  0.50349858  1
  Cu+  Cu83  1  0.00185283  0.16217093  0.83695388  1
  Cu+  Cu84  1  -0.00163102  0.49984895  0.16333596  1
  Cu+  Cu85  1  0.00324649  0.50512709  0.49955157  1
  Cu+  Cu86  1  0.00575293  0.49630205  0.83598706  1
  Cu+  Cu87  1  0.00339774  0.83120134  0.16577963  1
  Cu+  Cu88  1  -0.00097399  0.82700352  0.50322161  1
  Cu+  Cu89  1  -0.01007355  0.83550190  0.83517844  1
  Cu+  Cu90  1  0.33506267  0.16493082  0.16720056  1
  Cu+  Cu91  1  0.33603563  0.16865495  0.49366361  1
  Cu+  Cu92  1  0.33342513  0.16617468  0.82627775  1
  Cu+  Cu93  1  0.33320809  0.49721380  0.16700123  1
  Cu+  Cu94  1  0.33302956  0.50360027  0.49893501  1
  Cu+  Cu95  1  0.33203233  0.50524291  0.83306760  1
  Cu+  Cu96  1  0.33594580  0.83015828  0.16656966  1
  Cu+  Cu97  1  0.33408421  0.83410391  0.49754194  1
  Cu+  Cu98  1  0.33150101  0.83610664  0.83193348  1
  Cu+  Cu99  1  0.66628384  0.16872061  0.17061708  1
  Cu+  Cu100  1  0.66471866  0.16670045  0.49923457  1
  Cu+  Cu101  1  0.66883366  0.16813526  0.83514580  1
  Cu+  Cu102  1  0.66683822  0.49933399  0.16554342  1
  Cu+  Cu103  1  0.66707012  0.50014252  0.49821600  1
  Cu+  Cu104  1  0.66659489  0.49586545  0.83265655  1
  Cu+  Cu105  1  0.66596137  0.83384031  0.16780781  1
  Cu+  Cu106  1  0.66604231  0.83773353  0.50614215  1
  Cu+  Cu107  1  0.66138741  0.83100092  0.83294658  1
  Cu+  Cu108  1  0.73325309  0.06910534  0.92973716  1
  Cu+  Cu109  1  0.59291474  0.92785999  0.59757404  1
  Cu+  Cu110  1  0.59920417  0.06900704  0.40449835  1
  Cu+  Cu111  1  0.58907877  0.26450407  0.58941661  1
  Cu+  Cu112  1  0.73581446  0.58840165  0.74360497  1
  Cu+  Cu113  1  0.91856711  0.92274779  0.92812975  1
  Cu+  Cu114  1  0.59649423  0.26353484  0.25669824  1
  Cu+  Cu115  1  0.25983143  0.59323505  0.92903310  1
  Cu+  Cu116  1  0.26457466  0.93052476  0.92847185  1
  Cu+  Cu117  1  0.40255264  0.06784511  0.25979412  1
  Cu+  Cu118  1  0.07004608  0.92844545  0.08497163  1
  Cu+  Cu119  1  0.07724860  0.07609304  0.92865027  1
  Cu+  Cu120  1  0.08080709  0.40635181  0.92830345  1
  Cu+  Cu121  1  0.06959385  0.07121550  0.59094800  1
  Cu+  Cu122  1  0.74244431  0.25914187  0.74351134  1
  Cu+  Cu123  1  0.40543020  0.26435671  0.40819463  1
  Cu+  Cu124  1  0.26269991  0.74025033  0.73686592  1
  Cu+  Cu125  1  0.26540055  0.07679607  0.73318372  1
  Cu+  Cu126  1  0.40631369  0.25919498  0.07064402  1
  Cu+  Cu127  1  0.73595726  0.41048600  0.93014009  1
  Cu+  Cu128  1  0.07215817  0.73962445  0.60151971  1
  Cu+  Cu129  1  0.73421292  0.73710086  0.58315891  1
  Cu+  Cu130  1  0.07054471  0.40609269  0.58726094  1
  Cu+  Cu131  1  0.07654166  0.59295898  0.40020165  1
  Cu+  Cu132  1  0.92490641  0.74541796  0.40286657  1
  Te2-  Te133  1  0.25295181  0.25203940  0.08011948  1
  Te2-  Te134  1  0.25002266  0.25597519  0.41408108  1
  Te2-  Te135  1  0.25030253  0.25285689  0.74464330  1
  Te2-  Te136  1  0.25483850  0.58590645  0.08113425  1
  Te2-  Te137  1  0.25111798  0.59009352  0.41562027  1
  Te2-  Te138  1  0.25449701  0.58582357  0.73972447  1
  Te2-  Te139  1  0.26162776  0.92171690  0.08202648  1
  Te2-  Te140  1  0.24805719  0.91881645  0.41656203  1
  Te2-  Te141  1  0.25222281  0.92174222  0.74306899  1
  Te2-  Te142  1  0.58621292  0.25143183  0.08165709  1
  Te2-  Te143  1  0.58883936  0.25481766  0.41080635  1
  Te2-  Te144  1  0.58768816  0.25666903  0.74709096  1
  Te2-  Te145  1  0.58472158  0.58336216  0.08109064  1
  Te2-  Te146  1  0.58662954  0.58474372  0.41253252  1
  Te2-  Te147  1  0.58340725  0.58505211  0.74713354  1
  Te2-  Te148  1  0.58384341  0.91968449  0.08372033  1
  Te2-  Te149  1  0.59078100  0.91501929  0.40856800  1
  Te2-  Te150  1  0.58620539  0.92158372  0.74880293  1
  Te2-  Te151  1  0.91629744  0.24858307  0.07991618  1
  Te2-  Te152  1  0.91895891  0.25177829  0.41856500  1
  Te2-  Te153  1  0.92058920  0.25025134  0.75467323  1
  Te2-  Te154  1  0.91766248  0.58464540  0.07760733  1
  Te2-  Te155  1  0.92046667  0.58884021  0.41080534  1
  Te2-  Te156  1  0.92582088  0.58366852  0.75140099  1
  Te2-  Te157  1  0.91891426  0.92123298  0.08051235  1
  Te2-  Te158  1  0.92159152  0.91967838  0.41921853  1
  Te2-  Te159  1  0.90960159  0.91757716  0.74715080  1
  Te2-  Te160  1  0.25079310  0.07957619  0.25358170  1
  Te2-  Te161  1  0.25804161  0.08036903  0.58131597  1
  Te2-  Te162  1  0.25946188  0.08315554  0.92090017  1
  Te2-  Te163  1  0.24987377  0.41570539  0.25325988  1
  Te2-  Te164  1  0.25603701  0.41677588  0.58460907  1
  Te2-  Te165  1  0.25397450  0.41306454  0.91525213  1
  Te2-  Te166  1  0.25380075  0.74673625  0.25159265  1
  Te2-  Te167  1  0.25373634  0.74671201  0.58300491  1
  Te2-  Te168  1  0.25290363  0.75172273  0.92291191  1
  Te2-  Te169  1  0.58904034  0.07681583  0.25264882  1
  Te2-  Te170  1  0.58872787  0.07936616  0.58671499  1
  Te2-  Te171  1  0.58242685  0.08278825  0.91993868  1
  Te2-  Te172  1  0.58715293  0.41435065  0.25295814  1
  Te2-  Te173  1  0.58730001  0.41513918  0.58546467  1
  Te2-  Te174  1  0.58358424  0.41275498  0.92049462  1
  Te2-  Te175  1  0.58647444  0.74574253  0.25143598  1
  Te2-  Te176  1  0.58319785  0.74436883  0.58646937  1
  Te2-  Te177  1  0.58101383  0.74826515  0.91936723  1
  Te2-  Te178  1  0.91810708  0.08108603  0.25387553  1
  Te2-  Te179  1  0.91630989  0.08201739  0.59107116  1
  Te2-  Te180  1  0.92080770  0.07749032  0.92542028  1
  Te2-  Te181  1  0.92005794  0.41391911  0.24984972  1
  Te2-  Te182  1  0.91872295  0.41752949  0.58671753  1
  Te2-  Te183  1  0.92368731  0.41051325  0.92039187  1
  Te2-  Te184  1  0.92049142  0.74606324  0.24945310  1
  Te2-  Te185  1  0.91932061  0.74642001  0.59497465  1
  Te2-  Te186  1  0.91319497  0.74306137  0.91681980  1
  Te2-  Te187  1  0.08162756  0.25072031  0.25021683  1
  Te2-  Te188  1  0.08093169  0.25287343  0.58829489  1
  Te2-  Te189  1  0.08215871  0.25188871  0.91993802  1
  Te2-  Te190  1  0.07966594  0.58783045  0.24711109  1
  Te2-  Te191  1  0.07808036  0.58861858  0.59221050  1
  Te2-  Te192  1  0.08465032  0.58923631  0.91601673  1
  Te2-  Te193  1  0.08264786  0.91977058  0.25094118  1
  Te2-  Te194  1  0.07778772  0.91744261  0.58904315  1
  Te2-  Te195  1  0.07562209  0.92321687  0.92019483  1
  Te2-  Te196  1  0.41091571  0.25346584  0.25584041  1
  Te2-  Te197  1  0.41493309  0.25194851  0.58346759  1
  Te2-  Te198  1  0.41195107  0.25291347  0.91464227  1
  Te2-  Te199  1  0.41475014  0.58327299  0.25123373  1
  Te2-  Te200  1  0.41605250  0.58581982  0.58422982  1
  Te2-  Te201  1  0.41438345  0.58788906  0.92079615  1
  Te2-  Te202  1  0.41187734  0.91561990  0.25622335  1
  Te2-  Te203  1  0.41513076  0.92069827  0.58136775  1
  Te2-  Te204  1  0.41533835  0.92174488  0.91935071  1
  Te2-  Te205  1  0.74990587  0.25443764  0.25464740  1
  Te2-  Te206  1  0.74579719  0.25584575  0.58779903  1
  Te2-  Te207  1  0.74553640  0.25358948  0.92570890  1
  Te2-  Te208  1  0.74800669  0.58504266  0.25026494  1
  Te2-  Te209  1  0.74637756  0.58657668  0.58622104  1
  Te2-  Te210  1  0.74849778  0.58217161  0.91904364  1
  Te2-  Te211  1  0.74964889  0.91718133  0.25381980  1
  Te2-  Te212  1  0.74752035  0.92502734  0.59008880  1
  Te2-  Te213  1  0.73916402  0.91497467  0.92284942  1
  Te2-  Te214  1  0.07879658  0.08033384  0.08068250  1
  Te2-  Te215  1  0.08076787  0.08265759  0.41465374  1
  Te2-  Te216  1  0.07868195  0.07763202  0.74660903  1
  Te2-  Te217  1  0.08164968  0.41323605  0.08001271  1
  Te2-  Te218  1  0.08130852  0.41552801  0.41410750  1
  Te2-  Te219  1  0.08103467  0.41239851  0.74380394  1
  Te2-  Te220  1  0.08451686  0.74899567  0.07706017  1
  Te2-  Te221  1  0.07923854  0.74804681  0.40742007  1
  Te2-  Te222  1  0.07765819  0.74941726  0.75471463  1
  Te2-  Te223  1  0.41553809  0.07904703  0.08117880  1
  Te2-  Te224  1  0.41401080  0.07471974  0.41412754  1
  Te2-  Te225  1  0.41828272  0.08190930  0.74173469  1
  Te2-  Te226  1  0.41225563  0.41175904  0.07973232  1
  Te2-  Te227  1  0.41199566  0.41657711  0.41260133  1
  Te2-  Te228  1  0.41244848  0.41626732  0.74826245  1
  Te2-  Te229  1  0.41599104  0.74603559  0.08142699  1
  Te2-  Te230  1  0.41496636  0.74733082  0.41370314  1
  Te2-  Te231  1  0.41417113  0.74930048  0.74449623  1
  Te2-  Te232  1  0.74240048  0.07752644  0.08485626  1
  Te2-  Te233  1  0.75013493  0.08057109  0.41529497  1
  Te2-  Te234  1  0.74770869  0.07884771  0.75115703  1
  Te2-  Te235  1  0.74624895  0.41140552  0.08149369  1
  Te2-  Te236  1  0.75148430  0.41711985  0.41448933  1
  Te2-  Te237  1  0.74910165  0.41221862  0.74405078  1
  Te2-  Te238  1  0.74725075  0.74844335  0.08214576  1
  Te2-  Te239  1  0.74746819  0.75124194  0.41724984  1
  Te2-  Te240  1  0.73890018  0.74298350  0.74658733  1
