# generated using pymatgen
data_Ti27(Cu53Te54)2
_symmetry_space_group_name_H-M   'P 1'
_cell_length_a   17.87595300
_cell_length_b   17.87267066
_cell_length_c   17.87392191
_cell_angle_alpha   90.00035043
_cell_angle_beta   89.98278063
_cell_angle_gamma   90.02367518
_symmetry_Int_Tables_number   1
_chemical_formula_structural   Ti27(Cu53Te54)2
_chemical_formula_sum   'Ti27 Cu106 Te108'
_cell_volume   5710.55681112
_cell_formula_units_Z   1
loop_
 _symmetry_equiv_pos_site_id
 _symmetry_equiv_pos_as_xyz
  1  'x, y, z'
loop_
 _atom_type_symbol
 _atom_type_oxidation_number
  Ti4+  4.0
  Cu+  1.0
  Te2-  -2.0
loop_
 _atom_site_type_symbol
 _atom_site_label
 _atom_site_symmetry_multiplicity
 _atom_site_fract_x
 _atom_site_fract_y
 _atom_site_fract_z
 _atom_site_occupancy
  Ti4+  Ti0  1  0.16305443  0.16702709  0.16434605  1
  Ti4+  Ti1  1  0.16585535  0.16937602  0.49685480  1
  Ti4+  Ti2  1  0.16618546  0.16463922  0.83118824  1
  Ti4+  Ti3  1  0.16948016  0.50029301  0.16721366  1
  Ti4+  Ti4  1  0.16585399  0.49467790  0.50166727  1
  Ti4+  Ti5  1  0.16672578  0.50131799  0.83248657  1
  Ti4+  Ti6  1  0.16566552  0.83402317  0.16911152  1
  Ti4+  Ti7  1  0.16901300  0.83187382  0.49984864  1
  Ti4+  Ti8  1  0.16602705  0.83177183  0.83225609  1
  Ti4+  Ti9  1  0.49736169  0.16633790  0.16637515  1
  Ti4+  Ti10  1  0.50152262  0.16496856  0.50259641  1
  Ti4+  Ti11  1  0.50353190  0.16229673  0.83461987  1
  Ti4+  Ti12  1  0.50009031  0.50040368  0.16547159  1
  Ti4+  Ti13  1  0.49986905  0.49947319  0.50153058  1
  Ti4+  Ti14  1  0.49784320  0.50221070  0.83070279  1
  Ti4+  Ti15  1  0.50029619  0.83487555  0.16704157  1
  Ti4+  Ti16  1  0.49958151  0.83345484  0.50128901  1
  Ti4+  Ti17  1  0.49838075  0.83327552  0.83349457  1
  Ti4+  Ti18  1  0.83154439  0.16734204  0.16726412  1
  Ti4+  Ti19  1  0.83459482  0.16802445  0.50012073  1
  Ti4+  Ti20  1  0.83541405  0.16955290  0.83041678  1
  Ti4+  Ti21  1  0.83325982  0.50062166  0.16876562  1
  Ti4+  Ti22  1  0.83179621  0.50169700  0.50277552  1
  Ti4+  Ti23  1  0.83302273  0.50140951  0.83791331  1
  Ti4+  Ti24  1  0.83484647  0.83350605  0.16671604  1
  Ti4+  Ti25  1  0.83435286  0.83317776  0.50041637  1
  Ti4+  Ti26  1  0.83236070  0.83302469  0.83164475  1
  Cu+  Cu27  1  0.16508987  0.16410376  -0.00209112  1
  Cu+  Cu28  1  0.16534944  0.17339058  0.32926661  1
  Cu+  Cu29  1  0.16289199  0.17109509  0.66610487  1
  Cu+  Cu30  1  0.16997480  0.50185473  -0.00014695  1
  Cu+  Cu31  1  0.16967986  0.49621250  0.33454794  1
  Cu+  Cu32  1  0.16953866  0.49452524  0.66940600  1
  Cu+  Cu33  1  0.16465749  0.83421569  0.00201107  1
  Cu+  Cu34  1  0.16583266  0.83581749  0.33617299  1
  Cu+  Cu35  1  0.16656816  0.82644932  0.66294659  1
  Cu+  Cu36  1  0.49953695  0.15811815  0.00300394  1
  Cu+  Cu37  1  0.49742693  0.16698487  0.33481143  1
  Cu+  Cu38  1  0.50807775  0.16826410  0.66615133  1
  Cu+  Cu39  1  0.50104710  0.50307550  -0.00105937  1
  Cu+  Cu40  1  0.50136874  0.50016836  0.33077730  1
  Cu+  Cu41  1  0.49077711  0.49821045  0.66381875  1
  Cu+  Cu42  1  0.50065550  0.83510510  -0.00008837  1
  Cu+  Cu43  1  0.49845635  0.83447721  0.33328879  1
  Cu+  Cu44  1  0.50247516  0.83651705  0.66724859  1
  Cu+  Cu45  1  0.83253061  0.16900965  -0.00192798  1
  Cu+  Cu46  1  0.82961032  0.16703487  0.33172635  1
  Cu+  Cu47  1  0.84126177  0.16679696  0.66636761  1
  Cu+  Cu48  1  0.83448821  0.49959319  0.00495806  1
  Cu+  Cu49  1  0.83060231  0.50200718  0.33530471  1
  Cu+  Cu50  1  0.83115101  0.50299421  0.67147363  1
  Cu+  Cu51  1  0.83296968  0.83207529  0.00010533  1
  Cu+  Cu52  1  0.83641819  0.83282315  0.33146718  1
  Cu+  Cu53  1  0.83271610  0.83263787  0.66511742  1
  Cu+  Cu54  1  0.16013868  -0.00034368  0.16450178  1
  Cu+  Cu55  1  0.16449609  0.00018247  0.49667944  1
  Cu+  Cu56  1  0.16684506  -0.00242341  0.83219463  1
  Cu+  Cu57  1  0.16890795  0.33264745  0.16820096  1
  Cu+  Cu58  1  0.16769914  0.33255708  0.48960554  1
  Cu+  Cu59  1  0.16448809  0.33084306  0.82880395  1
  Cu+  Cu60  1  0.16855881  0.66790987  0.16999182  1
  Cu+  Cu61  1  0.16607522  0.66443152  0.50704374  1
  Cu+  Cu62  1  0.16861705  0.66640235  0.83623706  1
  Cu+  Cu63  1  0.50116730  0.00254933  0.16499064  1
  Cu+  Cu64  1  0.50024566  -0.00315729  0.50167011  1
  Cu+  Cu65  1  0.49422921  -0.00214280  0.83950435  1
  Cu+  Cu66  1  0.49757370  0.33486218  0.16462415  1
  Cu+  Cu67  1  0.50102663  0.33077515  0.50670290  1
  Cu+  Cu68  1  0.50287235  0.33033862  0.83236822  1
  Cu+  Cu69  1  0.49918478  0.66921370  0.16674102  1
  Cu+  Cu70  1  0.50084387  0.66762265  0.50047168  1
  Cu+  Cu71  1  0.50050076  0.66383172  0.83009345  1
  Cu+  Cu72  1  0.83406705  -0.00166111  0.16683718  1
  Cu+  Cu73  1  0.83505496  0.00266225  0.50048805  1
  Cu+  Cu74  1  0.83478645  0.00230542  0.82869972  1
  Cu+  Cu75  1  0.83124217  0.33228469  0.16819075  1
  Cu+  Cu76  1  0.83617350  0.33816640  0.50124543  1
  Cu+  Cu77  1  0.83608961  0.33716312  0.83609250  1
  Cu+  Cu78  1  0.83656635  0.66817600  0.16737580  1
  Cu+  Cu79  1  0.83018247  0.66617080  0.49840434  1
  Cu+  Cu80  1  0.82785871  0.66642799  0.83359721  1
  Cu+  Cu81  1  -0.00518537  0.16397209  0.16557813  1
  Cu+  Cu82  1  0.00249914  0.17240742  0.49655396  1
  Cu+  Cu83  1  -0.00001830  0.16707780  0.82421499  1
  Cu+  Cu84  1  0.00394310  0.49891907  0.16938523  1
  Cu+  Cu85  1  -0.00485150  0.49634934  0.50106059  1
  Cu+  Cu86  1  -0.00129238  0.50067732  0.83734532  1
  Cu+  Cu87  1  0.00114518  0.83591912  0.16408783  1
  Cu+  Cu88  1  0.00250079  0.83013956  0.50020835  1
  Cu+  Cu89  1  -0.00171475  0.83139017  0.83235910  1
  Cu+  Cu90  1  0.32837777  0.16904259  0.16729476  1
  Cu+  Cu91  1  0.33259800  0.16326572  0.50201024  1
  Cu+  Cu92  1  0.33727224  0.16157963  0.83638475  1
  Cu+  Cu93  1  0.33837382  0.50110125  0.16400517  1
  Cu+  Cu94  1  0.33372092  0.49291514  0.50467731  1
  Cu+  Cu95  1  0.32918231  0.50398291  0.82763387  1
  Cu+  Cu96  1  0.33147654  0.83378052  0.16847145  1
  Cu+  Cu97  1  0.33593555  0.83470725  0.49661593  1
  Cu+  Cu98  1  0.33267843  0.83411819  0.82920041  1
  Cu+  Cu99  1  0.66397348  0.16767448  0.16550882  1
  Cu+  Cu100  1  0.66795823  0.16956410  0.50386759  1
  Cu+  Cu101  1  0.67468624  0.16315923  0.83517953  1
  Cu+  Cu102  1  0.66594267  0.50028502  0.16766123  1
  Cu+  Cu103  1  0.66777585  0.50465732  0.49982725  1
  Cu+  Cu104  1  0.66869807  0.50680888  0.83416154  1
  Cu+  Cu105  1  0.66998831  0.83317547  0.16803614  1
  Cu+  Cu106  1  0.66680337  0.83440375  0.50343156  1
  Cu+  Cu107  1  0.66083920  0.83052190  0.83254525  1
  Cu+  Cu108  1  0.25664216  0.59704201  0.93095815  1
  Cu+  Cu109  1  0.06968033  0.26028287  0.39832317  1
  Cu+  Cu110  1  0.92851027  0.06903243  0.73636961  1
  Cu+  Cu111  1  0.58772799  0.73878417  0.73775638  1
  Cu+  Cu112  1  0.40136281  0.07214067  0.93287801  1
  Cu+  Cu113  1  0.60039539  0.26491918  0.59468183  1
  Cu+  Cu114  1  0.59650256  0.07331793  0.08070181  1
  Cu+  Cu115  1  0.40986363  0.92742846  0.40274357  1
  Cu+  Cu116  1  0.26125879  0.40010637  0.74821740  1
  Cu+  Cu117  1  0.74297973  0.59411773  0.74009809  1
  Cu+  Cu118  1  0.75524947  0.07170004  0.92662249  1
  Cu+  Cu119  1  0.40068159  0.59547256  0.73585223  1
  Cu+  Cu120  1  0.07097084  0.26415639  0.73633696  1
  Cu+  Cu121  1  0.07052298  0.92471940  0.40993928  1
  Cu+  Cu122  1  0.40469225  0.39854416  0.59230493  1
  Cu+  Cu123  1  0.73955524  0.59609775  0.40324444  1
  Cu+  Cu124  1  0.26164601  0.26042498  0.25677022  1
  Cu+  Cu125  1  0.26697768  0.41212843  0.40414664  1
  Cu+  Cu126  1  0.59341705  0.92159894  0.92673153  1
  Cu+  Cu127  1  0.59770064  0.92711659  0.59189897  1
  Cu+  Cu128  1  0.07149591  0.92698522  0.06864805  1
  Cu+  Cu129  1  0.59761956  0.58828764  0.93170838  1
  Cu+  Cu130  1  0.91845291  0.41050711  0.40344523  1
  Cu+  Cu131  1  0.40388355  0.92964327  0.74092938  1
  Cu+  Cu132  1  0.07064205  0.73644189  0.59335690  1
  Te2-  Te133  1  0.24913427  0.25167263  0.07711577  1
  Te2-  Te134  1  0.26074896  0.25254586  0.41141011  1
  Te2-  Te135  1  0.25825115  0.24724512  0.74777027  1
  Te2-  Te136  1  0.25514901  0.58854772  0.08344619  1
  Te2-  Te137  1  0.25223598  0.58217302  0.42037229  1
  Te2-  Te138  1  0.24895312  0.59177792  0.74077849  1
  Te2-  Te139  1  0.25112015  0.91969745  0.08293614  1
  Te2-  Te140  1  0.25457180  0.92192668  0.41328971  1
  Te2-  Te141  1  0.24923467  0.91776174  0.74287338  1
  Te2-  Te142  1  0.58187106  0.25195977  0.07939357  1
  Te2-  Te143  1  0.58424374  0.25199430  0.41610134  1
  Te2-  Te144  1  0.59203892  0.25071874  0.75121743  1
  Te2-  Te145  1  0.58703294  0.58924714  0.08272782  1
  Te2-  Te146  1  0.58372788  0.58694198  0.41366233  1
  Te2-  Te147  1  0.58642373  0.58453935  0.73902233  1
  Te2-  Te148  1  0.59076461  0.91970058  0.08028725  1
  Te2-  Te149  1  0.58656648  0.91763014  0.41438685  1
  Te2-  Te150  1  0.58639811  0.92473314  0.74906235  1
  Te2-  Te151  1  0.91658368  0.25237837  0.08108394  1
  Te2-  Te152  1  0.91723749  0.25515455  0.40930404  1
  Te2-  Te153  1  0.91908943  0.26102076  0.74479278  1
  Te2-  Te154  1  0.92139442  0.58411442  0.08462367  1
  Te2-  Te155  1  0.91948246  0.58669292  0.41574830  1
  Te2-  Te156  1  0.91916881  0.58701460  0.75185692  1
  Te2-  Te157  1  0.91830875  0.92105599  0.07723438  1
  Te2-  Te158  1  0.91923560  0.91944168  0.41507846  1
  Te2-  Te159  1  0.92006010  0.91675189  0.74488727  1
  Te2-  Te160  1  0.24663629  0.08040623  0.25077830  1
  Te2-  Te161  1  0.24637240  0.08232401  0.58522145  1
  Te2-  Te162  1  0.24998788  0.07725476  0.91912328  1
  Te2-  Te163  1  0.25971685  0.41359222  0.25218954  1
  Te2-  Te164  1  0.25137801  0.40438856  0.58951915  1
  Te2-  Te165  1  0.25252419  0.41257105  0.91498569  1
  Te2-  Te166  1  0.25180359  0.74982859  0.25583181  1
  Te2-  Te167  1  0.25843045  0.74685095  0.58338983  1
  Te2-  Te168  1  0.25400799  0.75100181  0.92107144  1
  Te2-  Te169  1  0.58440972  0.08295298  0.25391585  1
  Te2-  Te170  1  0.58941715  0.07824830  0.58667513  1
  Te2-  Te171  1  0.59292909  0.07560362  0.92168811  1
  Te2-  Te172  1  0.58478118  0.41325771  0.25073815  1
  Te2-  Te173  1  0.58934665  0.41743375  0.58896927  1
  Te2-  Te174  1  0.58491457  0.41735359  0.91500423  1
  Te2-  Te175  1  0.58488834  0.75046303  0.25230185  1
  Te2-  Te176  1  0.58710867  0.74506781  0.58618156  1
  Te2-  Te177  1  0.58338879  0.74382223  0.92186039  1
  Te2-  Te178  1  0.91580921  0.08098751  0.25327468  1
  Te2-  Te179  1  0.92558742  0.08193250  0.58180949  1
  Te2-  Te180  1  0.92119499  0.08339594  0.91698577  1
  Te2-  Te181  1  0.91896563  0.41344233  0.25262558  1
  Te2-  Te182  1  0.91621086  0.41724745  0.59271747  1
  Te2-  Te183  1  0.91966694  0.41621362  0.92335666  1
  Te2-  Te184  1  0.92272625  0.74896478  0.25118416  1
  Te2-  Te185  1  0.91793077  0.74454886  0.58596144  1
  Te2-  Te186  1  0.91557855  0.74740434  0.91626165  1
  Te2-  Te187  1  0.07349106  0.25527632  0.24727585  1
  Te2-  Te188  1  0.08104460  0.25877233  0.58324312  1
  Te2-  Te189  1  0.08023811  0.24978216  0.91619675  1
  Te2-  Te190  1  0.08527063  0.58396969  0.25498875  1
  Te2-  Te191  1  0.07928050  0.57886899  0.58839404  1
  Te2-  Te192  1  0.08118871  0.58587172  0.92006613  1
  Te2-  Te193  1  0.07775995  0.92090229  0.25572633  1
  Te2-  Te194  1  0.08251570  0.91846035  0.58557011  1
  Te2-  Te195  1  0.07887963  0.91828083  0.91623556  1
  Te2-  Te196  1  0.41426816  0.25395893  0.25299209  1
  Te2-  Te197  1  0.41148084  0.24723467  0.59028288  1
  Te2-  Te198  1  0.41946081  0.24935718  0.91962720  1
  Te2-  Te199  1  0.41553647  0.58658145  0.25218395  1
  Te2-  Te200  1  0.41023712  0.58955523  0.58256548  1
  Te2-  Te201  1  0.41079242  0.58711097  0.91784648  1
  Te2-  Te202  1  0.41372739  0.92238195  0.25012277  1
  Te2-  Te203  1  0.41074973  0.91943309  0.58827430  1
  Te2-  Te204  1  0.40745247  0.91618254  0.92369264  1
  Te2-  Te205  1  0.74409127  0.25188763  0.25150853  1
  Te2-  Te206  1  0.75291068  0.25537200  0.58856159  1
  Te2-  Te207  1  0.74913511  0.25585732  0.91751443  1
  Te2-  Te208  1  0.74636260  0.58909407  0.25183515  1
  Te2-  Te209  1  0.74513682  0.58964827  0.58857999  1
  Te2-  Te210  1  0.74895531  0.58862559  0.92766366  1
  Te2-  Te211  1  0.74933409  0.91900535  0.25329791  1
  Te2-  Te212  1  0.75038798  0.92188076  0.58671846  1
  Te2-  Te213  1  0.74720125  0.91885526  0.91870197  1
  Te2-  Te214  1  0.07563121  0.08177936  0.07739830  1
  Te2-  Te215  1  0.08038019  0.08331111  0.40970318  1
  Te2-  Te216  1  0.08247963  0.07598724  0.74341603  1
  Te2-  Te217  1  0.08555938  0.41520171  0.08152475  1
  Te2-  Te218  1  0.07543568  0.41379147  0.40995643  1
  Te2-  Te219  1  0.07557112  0.41662215  0.74762438  1
  Te2-  Te220  1  0.08233444  0.74583961  0.08314713  1
  Te2-  Te221  1  0.08418640  0.74322688  0.41497540  1
  Te2-  Te222  1  0.07986894  0.74373584  0.74856917  1
  Te2-  Te223  1  0.40597627  0.07840120  0.08421805  1
  Te2-  Te224  1  0.41414938  0.08024870  0.41592649  1
  Te2-  Te225  1  0.41702136  0.08155324  0.74377069  1
  Te2-  Te226  1  0.41558808  0.41556977  0.07671355  1
  Te2-  Te227  1  0.41916342  0.41098410  0.41338018  1
  Te2-  Te228  1  0.41271946  0.40709470  0.74807692  1
  Te2-  Te229  1  0.41419965  0.75081122  0.08136018  1
  Te2-  Te230  1  0.41603837  0.74633072  0.41408321  1
  Te2-  Te231  1  0.41301572  0.74681768  0.74406970  1
  Te2-  Te232  1  0.74778881  0.07761042  0.07940064  1
  Te2-  Te233  1  0.74780106  0.08353122  0.41731640  1
  Te2-  Te234  1  0.74992579  0.08260326  0.74171385  1
  Te2-  Te235  1  0.74742028  0.41508433  0.08346616  1
  Te2-  Te236  1  0.74539195  0.41436991  0.41662941  1
  Te2-  Te237  1  0.74684083  0.41538429  0.75219439  1
  Te2-  Te238  1  0.74868552  0.74713640  0.08200383  1
  Te2-  Te239  1  0.74593423  0.75106212  0.41338519  1
  Te2-  Te240  1  0.74405106  0.74794353  0.74417491  1
