# generated using pymatgen
data_Ti27(Cu53Te54)2
_symmetry_space_group_name_H-M   'P 1'
_cell_length_a   17.87695522
_cell_length_b   17.87940884
_cell_length_c   17.88031469
_cell_angle_alpha   90.01383595
_cell_angle_beta   89.99947186
_cell_angle_gamma   89.96832709
_symmetry_Int_Tables_number   1
_chemical_formula_structural   Ti27(Cu53Te54)2
_chemical_formula_sum   'Ti27 Cu106 Te108'
_cell_volume   5715.07306018
_cell_formula_units_Z   1
loop_
 _symmetry_equiv_pos_site_id
 _symmetry_equiv_pos_as_xyz
  1  'x, y, z'
loop_
 _atom_type_symbol
 _atom_type_oxidation_number
  Ti4+  4.0
  Cu+  1.0
  Te2-  -2.0
loop_
 _atom_site_type_symbol
 _atom_site_label
 _atom_site_symmetry_multiplicity
 _atom_site_fract_x
 _atom_site_fract_y
 _atom_site_fract_z
 _atom_site_occupancy
  Ti4+  Ti0  1  0.16715180  0.16881526  0.16827933  1
  Ti4+  Ti1  1  0.16766335  0.16473889  0.50319276  1
  Ti4+  Ti2  1  0.16843112  0.16505886  0.83342923  1
  Ti4+  Ti3  1  0.16612563  0.50350102  0.16589688  1
  Ti4+  Ti4  1  0.16376069  0.49620185  0.49906747  1
  Ti4+  Ti5  1  0.16319497  0.49335689  0.83111382  1
  Ti4+  Ti6  1  0.16725133  0.83572260  0.16904174  1
  Ti4+  Ti7  1  0.16715374  0.83417663  0.49950103  1
  Ti4+  Ti8  1  0.16959151  0.83095488  0.83091181  1
  Ti4+  Ti9  1  0.49943108  0.16775676  0.16487980  1
  Ti4+  Ti10  1  0.49982985  0.16602793  0.49832537  1
  Ti4+  Ti11  1  0.50333200  0.16881122  0.83045404  1
  Ti4+  Ti12  1  0.49894035  0.50105876  0.16700024  1
  Ti4+  Ti13  1  0.50031290  0.50000968  0.50198742  1
  Ti4+  Ti14  1  0.49779386  0.49992295  0.83392795  1
  Ti4+  Ti15  1  0.49757796  0.83350467  0.16668677  1
  Ti4+  Ti16  1  0.50074722  0.83380040  0.50113076  1
  Ti4+  Ti17  1  0.50095433  0.83437369  0.83715262  1
  Ti4+  Ti18  1  0.83237748  0.16821082  0.16969203  1
  Ti4+  Ti19  1  0.83296246  0.16503111  0.49868188  1
  Ti4+  Ti20  1  0.83437702  0.16683996  0.83470755  1
  Ti4+  Ti21  1  0.83281341  0.49696195  0.16331468  1
  Ti4+  Ti22  1  0.83289779  0.49819908  0.49975636  1
  Ti4+  Ti23  1  0.83272880  0.50489975  0.83319856  1
  Ti4+  Ti24  1  0.83310513  0.83392512  0.16772957  1
  Ti4+  Ti25  1  0.83367095  0.83189279  0.49888709  1
  Ti4+  Ti26  1  0.83750141  0.83647050  0.83260866  1
  Cu+  Cu27  1  0.16633547  0.16645410  0.00130462  1
  Cu+  Cu28  1  0.16589075  0.16821577  0.33880841  1
  Cu+  Cu29  1  0.16887259  0.16249422  0.66861174  1
  Cu+  Cu30  1  0.17083993  0.49519678  0.00094553  1
  Cu+  Cu31  1  0.16403766  0.50286876  0.32833914  1
  Cu+  Cu32  1  0.15765366  0.49044523  0.66439428  1
  Cu+  Cu33  1  0.17309060  0.83105794  0.00243241  1
  Cu+  Cu34  1  0.16544677  0.83543735  0.33145339  1
  Cu+  Cu35  1  0.16693552  0.83700818  0.66440708  1
  Cu+  Cu36  1  0.50080883  0.16795125  -0.00331974  1
  Cu+  Cu37  1  0.49918901  0.16435307  0.32934518  1
  Cu+  Cu38  1  0.50424670  0.17127452  0.66199222  1
  Cu+  Cu39  1  0.50028191  0.50477634  0.00057467  1
  Cu+  Cu40  1  0.49965735  0.49891035  0.33758773  1
  Cu+  Cu41  1  0.49913415  0.49727341  0.66829341  1
  Cu+  Cu42  1  0.49542341  0.83115200  0.00039020  1
  Cu+  Cu43  1  0.49668623  0.83242353  0.33349088  1
  Cu+  Cu44  1  0.50312829  0.83488391  0.67068147  1
  Cu+  Cu45  1  0.83338755  0.16964225  0.00386879  1
  Cu+  Cu46  1  0.83046605  0.16961729  0.33589744  1
  Cu+  Cu47  1  0.83580324  0.16385666  0.66801096  1
  Cu+  Cu48  1  0.83107280  0.49724654  -0.00416249  1
  Cu+  Cu49  1  0.83422936  0.49529464  0.33122385  1
  Cu+  Cu50  1  0.83505961  0.50371032  0.66552317  1
  Cu+  Cu51  1  0.83802482  0.83359708  0.00119552  1
  Cu+  Cu52  1  0.82977856  0.83434416  0.33539957  1
  Cu+  Cu53  1  0.83825942  0.83457722  0.66437990  1
  Cu+  Cu54  1  0.16739358  0.00299806  0.17088964  1
  Cu+  Cu55  1  0.17149723  -0.00147587  0.50480965  1
  Cu+  Cu56  1  0.16905542  -0.00336615  0.83101942  1
  Cu+  Cu57  1  0.16687969  0.33638697  0.16611386  1
  Cu+  Cu58  1  0.15891562  0.32965375  0.50199482  1
  Cu+  Cu59  1  0.16863446  0.32986541  0.82844075  1
  Cu+  Cu60  1  0.16788103  0.67119118  0.17221289  1
  Cu+  Cu61  1  0.16770232  0.66710908  0.49790567  1
  Cu+  Cu62  1  0.16302201  0.65757432  0.83062265  1
  Cu+  Cu63  1  0.49865118  -0.00035938  0.16243974  1
  Cu+  Cu64  1  0.49953172  0.00158006  0.49797045  1
  Cu+  Cu65  1  0.49937927  0.00445338  0.83405798  1
  Cu+  Cu66  1  0.49895652  0.33370010  0.16591332  1
  Cu+  Cu67  1  0.50287000  0.33150681  0.50314371  1
  Cu+  Cu68  1  0.50310677  0.33629327  0.82633016  1
  Cu+  Cu69  1  0.49803006  0.66668897  0.16796059  1
  Cu+  Cu70  1  0.50042817  0.66711939  0.50334892  1
  Cu+  Cu71  1  0.50070555  0.66557562  0.83979213  1
  Cu+  Cu72  1  0.83464635  0.00139198  0.17117703  1
  Cu+  Cu73  1  0.83200909  -0.00312971  0.49732794  1
  Cu+  Cu74  1  0.83794306  0.00223659  0.83517416  1
  Cu+  Cu75  1  0.82593800  0.33234618  0.16596191  1
  Cu+  Cu76  1  0.83189934  0.33063714  0.49715813  1
  Cu+  Cu77  1  0.83383758  0.33501066  0.83423386  1
  Cu+  Cu78  1  0.83531114  0.66260136  0.16387394  1
  Cu+  Cu79  1  0.83584955  0.66486138  0.49834828  1
  Cu+  Cu80  1  0.83366982  0.67533121  0.83509972  1
  Cu+  Cu81  1  -0.00240525  0.16684437  0.17017290  1
  Cu+  Cu82  1  0.00166032  0.16476189  0.49941296  1
  Cu+  Cu83  1  -0.00082739  0.16689606  0.83564470  1
  Cu+  Cu84  1  -0.00106282  0.50088932  0.16533032  1
  Cu+  Cu85  1  -0.00256035  0.49332662  0.50145203  1
  Cu+  Cu86  1  0.00034868  0.50500516  0.82674322  1
  Cu+  Cu87  1  -0.00079172  0.83207356  0.16904192  1
  Cu+  Cu88  1  -0.00177110  0.83191389  0.49829204  1
  Cu+  Cu89  1  0.00428018  0.83527090  0.82669402  1
  Cu+  Cu90  1  0.33401642  0.16861153  0.16642471  1
  Cu+  Cu91  1  0.33390865  0.16382238  0.49906975  1
  Cu+  Cu92  1  0.33973496  0.16450366  0.83330382  1
  Cu+  Cu93  1  0.33293807  0.50419725  0.16508010  1
  Cu+  Cu94  1  0.33578607  0.49929425  0.50160535  1
  Cu+  Cu95  1  0.32508313  0.49610306  0.83222813  1
  Cu+  Cu96  1  0.33010435  0.83725288  0.16629676  1
  Cu+  Cu97  1  0.33431387  0.83546398  0.50262161  1
  Cu+  Cu98  1  0.33551853  0.83260761  0.83934748  1
  Cu+  Cu99  1  0.66484534  0.16782371  0.16400922  1
  Cu+  Cu100  1  0.66543183  0.16810535  0.49841199  1
  Cu+  Cu101  1  0.66851049  0.16728510  0.83063885  1
  Cu+  Cu102  1  0.66600219  0.49727888  0.16630179  1
  Cu+  Cu103  1  0.66644551  0.50199262  0.49999655  1
  Cu+  Cu104  1  0.66516552  0.50206137  0.83761066  1
  Cu+  Cu105  1  0.66318502  0.83233279  0.16581576  1
  Cu+  Cu106  1  0.66789949  0.83401848  0.49791325  1
  Cu+  Cu107  1  0.67148084  0.83442294  0.83558832  1
  Cu+  Cu108  1  0.25916679  0.74203876  0.08059989  1
  Cu+  Cu109  1  0.07337161  0.59152943  0.73276654  1
  Cu+  Cu110  1  0.06470696  0.39807950  0.59455809  1
  Cu+  Cu111  1  0.25169781  0.58522851  0.92220178  1
  Cu+  Cu112  1  0.26641933  0.92550924  0.59537935  1
  Cu+  Cu113  1  0.07230910  0.40729677  0.25127675  1
  Cu+  Cu114  1  0.40792610  0.73711081  0.92607251  1
  Cu+  Cu115  1  0.73544581  0.41155911  0.26123749  1
  Cu+  Cu116  1  0.26268701  0.59296141  0.26394310  1
  Cu+  Cu117  1  0.59459796  0.59284876  0.92961648  1
  Cu+  Cu118  1  0.73920994  0.40511568  0.92008050  1
  Cu+  Cu119  1  0.25678206  0.40220022  0.73348093  1
  Cu+  Cu120  1  0.59788184  0.25915168  0.59047504  1
  Cu+  Cu121  1  0.06792343  0.74571683  0.26310029  1
  Cu+  Cu122  1  0.73709459  0.92558947  0.40543682  1
  Cu+  Cu123  1  0.07279061  0.25579846  0.40846278  1
  Cu+  Cu124  1  0.73620068  0.25461395  0.07123598  1
  Cu+  Cu125  1  0.74475038  0.75110136  0.93086322  1
  Cu+  Cu126  1  0.59820519  0.41567831  0.74049451  1
  Cu+  Cu127  1  0.07461812  0.92951494  0.73683548  1
  Cu+  Cu128  1  0.25989931  0.93357635  0.26232453  1
  Cu+  Cu129  1  0.25453083  0.92808452  0.92778428  1
  Cu+  Cu130  1  0.73517756  0.26031533  0.41041266  1
  Cu+  Cu131  1  0.41176360  0.07849289  0.92775567  1
  Cu+  Cu132  1  0.26286949  0.40410421  0.07909777  1
  Te2-  Te133  1  0.25309556  0.25243898  0.08043912  1
  Te2-  Te134  1  0.25263471  0.25310712  0.41906277  1
  Te2-  Te135  1  0.25703037  0.24762500  0.74615514  1
  Te2-  Te136  1  0.25355591  0.59058384  0.07795997  1
  Te2-  Te137  1  0.25221703  0.58285225  0.41629913  1
  Te2-  Te138  1  0.24747586  0.57924304  0.74038230  1
  Te2-  Te139  1  0.25276360  0.92630403  0.08107251  1
  Te2-  Te140  1  0.25396543  0.91999768  0.41339332  1
  Te2-  Te141  1  0.25950863  0.91735424  0.74716049  1
  Te2-  Te142  1  0.58327735  0.25536704  0.07745314  1
  Te2-  Te143  1  0.58300491  0.25351872  0.40881158  1
  Te2-  Te144  1  0.59282910  0.25606075  0.74414096  1
  Te2-  Te145  1  0.58722164  0.58826059  0.08383421  1
  Te2-  Te146  1  0.58416973  0.58634819  0.41618134  1
  Te2-  Te147  1  0.58361854  0.58653426  0.74901755  1
  Te2-  Te148  1  0.58321364  0.91651474  0.07924697  1
  Te2-  Te149  1  0.58362043  0.91983789  0.41182951  1
  Te2-  Te150  1  0.58674389  0.91978935  0.75399729  1
  Te2-  Te151  1  0.91927600  0.25392456  0.08495319  1
  Te2-  Te152  1  0.92101543  0.25258973  0.41367261  1
  Te2-  Te153  1  0.91827402  0.25236715  0.74890415  1
  Te2-  Te154  1  0.91795950  0.58235999  0.07697519  1
  Te2-  Te155  1  0.91910002  0.58060644  0.41333357  1
  Te2-  Te156  1  0.91661915  0.59250180  0.74613399  1
  Te2-  Te157  1  0.91975658  0.91968488  0.08461998  1
  Te2-  Te158  1  0.92018399  0.91830069  0.41261152  1
  Te2-  Te159  1  0.92106875  0.92367659  0.74445796  1
  Te2-  Te160  1  0.25388182  0.08614044  0.25611659  1
  Te2-  Te161  1  0.25737258  0.08015566  0.58918423  1
  Te2-  Te162  1  0.25488189  0.08035689  0.92133649  1
  Te2-  Te163  1  0.25389775  0.41676065  0.25167894  1
  Te2-  Te164  1  0.25193663  0.41035323  0.58231274  1
  Te2-  Te165  1  0.25233573  0.40637780  0.91989915  1
  Te2-  Te166  1  0.25759839  0.74843455  0.25760600  1
  Te2-  Te167  1  0.25145229  0.74742542  0.58514862  1
  Te2-  Te168  1  0.25318386  0.73912183  0.91910776  1
  Te2-  Te169  1  0.58475345  0.08017839  0.24824666  1
  Te2-  Te170  1  0.58692601  0.08025435  0.58337362  1
  Te2-  Te171  1  0.58888800  0.08321502  0.91745813  1
  Te2-  Te172  1  0.58221041  0.41374886  0.25357935  1
  Te2-  Te173  1  0.59114410  0.41358732  0.58783350  1
  Te2-  Te174  1  0.58283637  0.41228773  0.92226391  1
  Te2-  Te175  1  0.58280636  0.74841180  0.25229379  1
  Te2-  Te176  1  0.58707557  0.75017233  0.58647268  1
  Te2-  Te177  1  0.58962171  0.74784367  0.92459667  1
  Te2-  Te178  1  0.91727883  0.08340710  0.25700964  1
  Te2-  Te179  1  0.91809244  0.07935073  0.58275045  1
  Te2-  Te180  1  0.91887133  0.08407535  0.92329845  1
  Te2-  Te181  1  0.91914027  0.41039409  0.24975354  1
  Te2-  Te182  1  0.91416083  0.40916089  0.58816784  1
  Te2-  Te183  1  0.92197468  0.41853104  0.91405221  1
  Te2-  Te184  1  0.91513572  0.74536568  0.25490482  1
  Te2-  Te185  1  0.92027693  0.74591836  0.58409697  1
  Te2-  Te186  1  0.92629452  0.75169611  0.91746006  1
  Te2-  Te187  1  0.07906879  0.25421194  0.25406574  1
  Te2-  Te188  1  0.07771090  0.24665421  0.59274283  1
  Te2-  Te189  1  0.08374926  0.25130528  0.91751817  1
  Te2-  Te190  1  0.07550273  0.59001165  0.25162054  1
  Te2-  Te191  1  0.07878098  0.58613058  0.58149094  1
  Te2-  Te192  1  0.08062045  0.57992556  0.92224590  1
  Te2-  Te193  1  0.07841625  0.92200399  0.25247516  1
  Te2-  Te194  1  0.07681791  0.92005399  0.58323173  1
  Te2-  Te195  1  0.08541491  0.91462256  0.92016641  1
  Te2-  Te196  1  0.41448428  0.25315435  0.25182705  1
  Te2-  Te197  1  0.41241386  0.25138832  0.58349159  1
  Te2-  Te198  1  0.41819110  0.25664801  0.91505967  1
  Te2-  Te199  1  0.41523459  0.58610919  0.25595411  1
  Te2-  Te200  1  0.41527552  0.58505527  0.58803856  1
  Te2-  Te201  1  0.40673126  0.58365575  0.92116416  1
  Te2-  Te202  1  0.41397779  0.92159713  0.25242946  1
  Te2-  Te203  1  0.41810977  0.92170667  0.58894620  1
  Te2-  Te204  1  0.41295152  0.92418721  0.92334597  1
  Te2-  Te205  1  0.74043602  0.25439342  0.25626028  1
  Te2-  Te206  1  0.75030319  0.25145798  0.58860000  1
  Te2-  Te207  1  0.74402187  0.25383676  0.91954800  1
  Te2-  Te208  1  0.74926692  0.58318531  0.25027570  1
  Te2-  Te209  1  0.74887886  0.58615456  0.58383374  1
  Te2-  Te210  1  0.74770703  0.59293622  0.92200254  1
  Te2-  Te211  1  0.74400677  0.91961190  0.25083819  1
  Te2-  Te212  1  0.74863278  0.91782026  0.58623265  1
  Te2-  Te213  1  0.75222540  0.92119997  0.92067282  1
  Te2-  Te214  1  0.08135797  0.08306016  0.08491102  1
  Te2-  Te215  1  0.08394359  0.07680146  0.41752955  1
  Te2-  Te216  1  0.08007993  0.08071635  0.74909943  1
  Te2-  Te217  1  0.07986806  0.41590965  0.07970771  1
  Te2-  Te218  1  0.07758434  0.41288763  0.40831056  1
  Te2-  Te219  1  0.07222468  0.40512196  0.74843402  1
  Te2-  Te220  1  0.08214288  0.74894591  0.08151480  1
  Te2-  Te221  1  0.08051059  0.74728153  0.41449556  1
  Te2-  Te222  1  0.08373176  0.74512810  0.74379205  1
  Te2-  Te223  1  0.41212274  0.08209740  0.07980280  1
  Te2-  Te224  1  0.41425325  0.08094386  0.41193424  1
  Te2-  Te225  1  0.41984945  0.08382933  0.74187736  1
  Te2-  Te226  1  0.41488032  0.41540172  0.07888541  1
  Te2-  Te227  1  0.41619780  0.41218819  0.41794381  1
  Te2-  Te228  1  0.41040805  0.41367526  0.74677641  1
  Te2-  Te229  1  0.41058079  0.74350376  0.08081392  1
  Te2-  Te230  1  0.41374969  0.74788692  0.41805037  1
  Te2-  Te231  1  0.41755149  0.74791233  0.75093447  1
  Te2-  Te232  1  0.74938191  0.08053351  0.08350476  1
  Te2-  Te233  1  0.74455513  0.08002591  0.41291166  1
  Te2-  Te234  1  0.75032063  0.08015935  0.74925878  1
  Te2-  Te235  1  0.74182130  0.41244151  0.07514511  1
  Te2-  Te236  1  0.74257309  0.41299638  0.41354271  1
  Te2-  Te237  1  0.74930741  0.41736991  0.74650670  1
  Te2-  Te238  1  0.74794828  0.74680258  0.08277094  1
  Te2-  Te239  1  0.74752736  0.74410657  0.41471089  1
  Te2-  Te240  1  0.75037200  0.75263515  0.74500116  1
