# generated using pymatgen
data_Ti27(Cu53Te54)2
_symmetry_space_group_name_H-M   'P 1'
_cell_length_a   17.89087719
_cell_length_b   17.89185250
_cell_length_c   17.89005273
_cell_angle_alpha   89.98252515
_cell_angle_beta   89.97595864
_cell_angle_gamma   89.98015302
_symmetry_Int_Tables_number   1
_chemical_formula_structural   Ti27(Cu53Te54)2
_chemical_formula_sum   'Ti27 Cu106 Te108'
_cell_volume   5726.62150650
_cell_formula_units_Z   1
loop_
 _symmetry_equiv_pos_site_id
 _symmetry_equiv_pos_as_xyz
  1  'x, y, z'
loop_
 _atom_type_symbol
 _atom_type_oxidation_number
  Ti4+  4.0
  Cu+  1.0
  Te2-  -2.0
loop_
 _atom_site_type_symbol
 _atom_site_label
 _atom_site_symmetry_multiplicity
 _atom_site_fract_x
 _atom_site_fract_y
 _atom_site_fract_z
 _atom_site_occupancy
  Ti4+  Ti0  1  0.16634996  0.17013080  0.16530216  1
  Ti4+  Ti1  1  0.16639501  0.16544027  0.50094031  1
  Ti4+  Ti2  1  0.16484386  0.16375661  0.83251632  1
  Ti4+  Ti3  1  0.16661880  0.49933167  0.16754035  1
  Ti4+  Ti4  1  0.16600682  0.49893958  0.49971959  1
  Ti4+  Ti5  1  0.16792383  0.49752114  0.83123096  1
  Ti4+  Ti6  1  0.16540007  0.83754939  0.16492941  1
  Ti4+  Ti7  1  0.16822420  0.83292834  0.50045913  1
  Ti4+  Ti8  1  0.17038682  0.82903625  0.83496831  1
  Ti4+  Ti9  1  0.50036130  0.16377486  0.16855594  1
  Ti4+  Ti10  1  0.49790504  0.16691853  0.49710900  1
  Ti4+  Ti11  1  0.50044494  0.16807136  0.83371381  1
  Ti4+  Ti12  1  0.49915595  0.50252952  0.16452972  1
  Ti4+  Ti13  1  0.49990579  0.50221303  0.49882712  1
  Ti4+  Ti14  1  0.50386403  0.50077665  0.83650194  1
  Ti4+  Ti15  1  0.49609416  0.83639561  0.16626964  1
  Ti4+  Ti16  1  0.49961719  0.83485409  0.50226073  1
  Ti4+  Ti17  1  0.49902689  0.83367891  0.83310188  1
  Ti4+  Ti18  1  0.82988068  0.16818748  0.16474133  1
  Ti4+  Ti19  1  0.83240240  0.16627727  0.49735603  1
  Ti4+  Ti20  1  0.83328042  0.16562467  0.83274055  1
  Ti4+  Ti21  1  0.83084401  0.50014124  0.16958522  1
  Ti4+  Ti22  1  0.83235288  0.50132280  0.49830962  1
  Ti4+  Ti23  1  0.83549990  0.50219884  0.83458524  1
  Ti4+  Ti24  1  0.83527888  0.83377968  0.16564779  1
  Ti4+  Ti25  1  0.83593309  0.83182926  0.50059578  1
  Ti4+  Ti26  1  0.83366325  0.83169308  0.83292960  1
  Cu+  Cu27  1  0.16892460  0.17004625  -0.00465623  1
  Cu+  Cu28  1  0.16487768  0.16745092  0.33656090  1
  Cu+  Cu29  1  0.16304473  0.16350469  0.66790928  1
  Cu+  Cu30  1  0.16662870  0.49791372  -0.00043958  1
  Cu+  Cu31  1  0.16581589  0.49830615  0.33630277  1
  Cu+  Cu32  1  0.16616773  0.49594419  0.66489932  1
  Cu+  Cu33  1  0.17067762  0.82927139  0.00333609  1
  Cu+  Cu34  1  0.16528472  0.83548318  0.33012331  1
  Cu+  Cu35  1  0.17141051  0.83311562  0.66701539  1
  Cu+  Cu36  1  0.50126546  0.16779270  0.00256152  1
  Cu+  Cu37  1  0.50254201  0.15701041  0.33477661  1
  Cu+  Cu38  1  0.49967779  0.16789494  0.66532654  1
  Cu+  Cu39  1  0.51350230  0.50010193  0.00094795  1
  Cu+  Cu40  1  0.49734499  0.50271343  0.33030863  1
  Cu+  Cu41  1  0.50050960  0.50291821  0.66639583  1
  Cu+  Cu42  1  0.49255319  0.83690606  0.00008465  1
  Cu+  Cu43  1  0.49558801  0.83829041  0.33745483  1
  Cu+  Cu44  1  0.50166997  0.83360080  0.66774622  1
  Cu+  Cu45  1  0.83650088  0.16505043  -0.00005724  1
  Cu+  Cu46  1  0.82602676  0.17431908  0.33223222  1
  Cu+  Cu47  1  0.83120962  0.16588686  0.66561461  1
  Cu+  Cu48  1  0.82971705  0.49536776  0.00035003  1
  Cu+  Cu49  1  0.83203713  0.50626685  0.33200805  1
  Cu+  Cu50  1  0.83535838  0.50488542  0.66635538  1
  Cu+  Cu51  1  0.83403600  0.83242140  -0.00202302  1
  Cu+  Cu52  1  0.83620569  0.83251968  0.33467237  1
  Cu+  Cu53  1  0.83542559  0.83073935  0.66717384  1
  Cu+  Cu54  1  0.16485734  0.00402590  0.16613664  1
  Cu+  Cu55  1  0.16946610  -0.00064459  0.50454039  1
  Cu+  Cu56  1  0.16641862  -0.00230609  0.83367529  1
  Cu+  Cu57  1  0.16558851  0.33592523  0.16603881  1
  Cu+  Cu58  1  0.16364492  0.33245795  0.50124810  1
  Cu+  Cu59  1  0.16663796  0.32980098  0.83241478  1
  Cu+  Cu60  1  0.16531238  0.66887633  0.16701530  1
  Cu+  Cu61  1  0.16682040  0.66687013  0.49901368  1
  Cu+  Cu62  1  0.17072319  0.66238865  0.83318645  1
  Cu+  Cu63  1  0.49568888  0.00004415  0.16349637  1
  Cu+  Cu64  1  0.49681583  -0.00140492  0.49448118  1
  Cu+  Cu65  1  0.50041755  0.00297035  0.83277272  1
  Cu+  Cu66  1  0.49520319  0.33470381  0.16531377  1
  Cu+  Cu67  1  0.50022714  0.33610194  0.49946863  1
  Cu+  Cu68  1  0.50162816  0.33303480  0.83303646  1
  Cu+  Cu69  1  0.50056473  0.66775958  0.16923686  1
  Cu+  Cu70  1  0.49821292  0.67172835  0.50120125  1
  Cu+  Cu71  1  0.49918709  0.66430449  0.83510727  1
  Cu+  Cu72  1  0.83424557  0.00165811  0.16259110  1
  Cu+  Cu73  1  0.83608464  -0.00453477  0.50010180  1
  Cu+  Cu74  1  0.83245684  -0.00218893  0.83215347  1
  Cu+  Cu75  1  0.83226316  0.33056842  0.17316650  1
  Cu+  Cu76  1  0.82910847  0.33206370  0.49459035  1
  Cu+  Cu77  1  0.83554308  0.33336475  0.83381223  1
  Cu+  Cu78  1  0.83426241  0.66766200  0.16849478  1
  Cu+  Cu79  1  0.83546075  0.66505811  0.50071240  1
  Cu+  Cu80  1  0.83276865  0.66715753  0.82891505  1
  Cu+  Cu81  1  -0.00302169  0.16993536  0.16345453  1
  Cu+  Cu82  1  0.00134521  0.16366383  0.49860384  1
  Cu+  Cu83  1  -0.00048002  0.16472275  0.83125221  1
  Cu+  Cu84  1  -0.00117317  0.50079729  0.16954171  1
  Cu+  Cu85  1  -0.00114975  0.49930516  0.50334601  1
  Cu+  Cu86  1  0.00296216  0.49696765  0.83187958  1
  Cu+  Cu87  1  0.00220354  0.83646007  0.16643680  1
  Cu+  Cu88  1  0.00316893  0.83071767  0.49969405  1
  Cu+  Cu89  1  0.00171575  0.82990916  0.83277892  1
  Cu+  Cu90  1  0.33574942  0.17129059  0.16748901  1
  Cu+  Cu91  1  0.33033519  0.16882289  0.50127278  1
  Cu+  Cu92  1  0.33094154  0.16624833  0.83517986  1
  Cu+  Cu93  1  0.33645050  0.49459041  0.16771663  1
  Cu+  Cu94  1  0.33054894  0.50084454  0.50056774  1
  Cu+  Cu95  1  0.33325681  0.50400375  0.83436841  1
  Cu+  Cu96  1  0.32923441  0.83965231  0.15942312  1
  Cu+  Cu97  1  0.33182351  0.83984502  0.50452402  1
  Cu+  Cu98  1  0.33872403  0.82618800  0.83678185  1
  Cu+  Cu99  1  0.66712949  0.15544360  0.16905045  1
  Cu+  Cu100  1  0.66466032  0.16808051  0.49299604  1
  Cu+  Cu101  1  0.66717152  0.16813226  0.83319538  1
  Cu+  Cu102  1  0.66030918  0.50163673  0.16492453  1
  Cu+  Cu103  1  0.66574828  0.50241940  0.49506401  1
  Cu+  Cu104  1  0.67345467  0.50303174  0.83971360  1
  Cu+  Cu105  1  0.66780747  0.83360910  0.16730443  1
  Cu+  Cu106  1  0.66944108  0.83121171  0.50387492  1
  Cu+  Cu107  1  0.66664999  0.83324773  0.83274634  1
  Cu+  Cu108  1  0.59086274  0.06945447  0.07018169  1
  Cu+  Cu109  1  0.25868798  0.73663371  0.08330113  1
  Cu+  Cu110  1  0.40013609  0.92386784  0.40883892  1
  Cu+  Cu111  1  0.59292603  0.40208139  0.07927979  1
  Cu+  Cu112  1  0.60082577  0.60005331  0.92368923  1
  Cu+  Cu113  1  0.59727264  0.06601996  0.41683652  1
  Cu+  Cu114  1  0.40518546  0.58995839  0.73722493  1
  Cu+  Cu115  1  0.93003089  0.59761307  0.25563308  1
  Cu+  Cu116  1  0.25390002  0.58866708  0.92909587  1
  Cu+  Cu117  1  0.73251214  0.26490658  0.40610816  1
  Cu+  Cu118  1  0.74637482  0.40121782  0.92379436  1
  Cu+  Cu119  1  0.40723476  0.40770075  0.26355721  1
  Cu+  Cu120  1  0.93056169  0.59372947  0.59513569  1
  Cu+  Cu121  1  0.74121261  0.59827900  0.40692976  1
  Cu+  Cu122  1  0.26023676  0.92958284  0.60038953  1
  Cu+  Cu123  1  0.40871728  0.26187172  0.07325672  1
  Cu+  Cu124  1  0.92945557  0.07368675  0.07226212  1
  Cu+  Cu125  1  0.75368449  0.06736463  0.26237850  1
  Cu+  Cu126  1  0.40054919  0.93030125  0.06725810  1
  Cu+  Cu127  1  0.41536334  0.73544565  0.93005979  1
  Cu+  Cu128  1  0.25857941  0.25962027  0.92050748  1
  Cu+  Cu129  1  0.58626569  0.59612662  0.26098165  1
  Cu+  Cu130  1  0.40157719  0.07484762  0.25746641  1
  Cu+  Cu131  1  0.74224719  0.59418312  0.73849206  1
  Cu+  Cu132  1  0.92857739  0.25420901  0.26130425  1
  Te2-  Te133  1  0.25363013  0.25749913  0.07943990  1
  Te2-  Te134  1  0.25016693  0.25335637  0.41562072  1
  Te2-  Te135  1  0.25123043  0.24935165  0.74565258  1
  Te2-  Te136  1  0.25582605  0.58384617  0.08236446  1
  Te2-  Te137  1  0.25130487  0.58538766  0.41431868  1
  Te2-  Te138  1  0.25269120  0.58459882  0.74184651  1
  Te2-  Te139  1  0.24893962  0.92797366  0.07584817  1
  Te2-  Te140  1  0.24989088  0.92160819  0.41084836  1
  Te2-  Te141  1  0.25725298  0.91669873  0.75262569  1
  Te2-  Te142  1  0.58953309  0.25040895  0.08433072  1
  Te2-  Te143  1  0.58105532  0.25603848  0.40925224  1
  Te2-  Te144  1  0.58566421  0.25208237  0.74710040  1
  Te2-  Te145  1  0.58867350  0.59481317  0.07959118  1
  Te2-  Te146  1  0.58374958  0.59250094  0.41241978  1
  Te2-  Te147  1  0.58935142  0.58618490  0.74863840  1
  Te2-  Te148  1  0.58631649  0.91706218  0.07961223  1
  Te2-  Te149  1  0.59084658  0.91602975  0.41480685  1
  Te2-  Te150  1  0.58495111  0.91949017  0.74934298  1
  Te2-  Te151  1  0.91549663  0.25697002  0.07967793  1
  Te2-  Te152  1  0.92198829  0.25269240  0.41378099  1
  Te2-  Te153  1  0.91733314  0.25092228  0.74687778  1
  Te2-  Te154  1  0.91539784  0.58243035  0.08154772  1
  Te2-  Te155  1  0.92305733  0.58681617  0.41264195  1
  Te2-  Te156  1  0.92505816  0.58728109  0.74872161  1
  Te2-  Te157  1  0.92084970  0.91890462  0.07822671  1
  Te2-  Te158  1  0.92220983  0.91657081  0.41511829  1
  Te2-  Te159  1  0.92008825  0.91643345  0.74854658  1
  Te2-  Te160  1  0.24996364  0.08414964  0.25215666  1
  Te2-  Te161  1  0.25448547  0.08200995  0.58981803  1
  Te2-  Te162  1  0.25173355  0.07805339  0.91925276  1
  Te2-  Te163  1  0.25189583  0.41262642  0.25437502  1
  Te2-  Te164  1  0.25184741  0.41266950  0.58418663  1
  Te2-  Te165  1  0.25441820  0.41223072  0.91882723  1
  Te2-  Te166  1  0.25314732  0.75185687  0.25002766  1
  Te2-  Te167  1  0.25423537  0.74588154  0.58471288  1
  Te2-  Te168  1  0.25823192  0.74104680  0.92444953  1
  Te2-  Te169  1  0.58761131  0.07084945  0.25526155  1
  Te2-  Te170  1  0.58378999  0.08168485  0.58159804  1
  Te2-  Te171  1  0.58695292  0.08118408  0.91894174  1
  Te2-  Te172  1  0.58333337  0.41343396  0.25202738  1
  Te2-  Te173  1  0.58585444  0.41789372  0.58356636  1
  Te2-  Te174  1  0.59131314  0.40782131  0.92016738  1
  Te2-  Te175  1  0.58254044  0.75366003  0.25470658  1
  Te2-  Te176  1  0.58543393  0.74819896  0.58692191  1
  Te2-  Te177  1  0.58578880  0.75101968  0.92230034  1
  Te2-  Te178  1  0.91655696  0.08448175  0.25381538  1
  Te2-  Te179  1  0.91682972  0.08174572  0.58343260  1
  Te2-  Te180  1  0.92011790  0.07805726  0.91726885  1
  Te2-  Te181  1  0.91763222  0.41399654  0.25580516  1
  Te2-  Te182  1  0.91353320  0.41215673  0.58391183  1
  Te2-  Te183  1  0.92110461  0.41530128  0.91971790  1
  Te2-  Te184  1  0.92254404  0.74958960  0.25261600  1
  Te2-  Te185  1  0.92257033  0.74633142  0.58702729  1
  Te2-  Te186  1  0.91907250  0.74558059  0.91750334  1
  Te2-  Te187  1  0.08132749  0.25383755  0.25287516  1
  Te2-  Te188  1  0.07950888  0.24954408  0.58585875  1
  Te2-  Te189  1  0.07778644  0.25156572  0.91701252  1
  Te2-  Te190  1  0.08341597  0.58661227  0.25408077  1
  Te2-  Te191  1  0.08252550  0.58674942  0.58740078  1
  Te2-  Te192  1  0.08196320  0.58360937  0.91757418  1
  Te2-  Te193  1  0.08056498  0.92315776  0.25155871  1
  Te2-  Te194  1  0.08175329  0.91688028  0.58728101  1
  Te2-  Te195  1  0.08449520  0.91301830  0.91907747  1
  Te2-  Te196  1  0.41636047  0.25211406  0.25813216  1
  Te2-  Te197  1  0.41537603  0.25306872  0.58332427  1
  Te2-  Te198  1  0.41362989  0.25577766  0.92052297  1
  Te2-  Te199  1  0.41051914  0.58858533  0.25047372  1
  Te2-  Te200  1  0.41293522  0.58766174  0.58375361  1
  Te2-  Te201  1  0.41470421  0.58319772  0.92804674  1
  Te2-  Te202  1  0.40768369  0.92124879  0.25340998  1
  Te2-  Te203  1  0.41641088  0.92332989  0.59118777  1
  Te2-  Te204  1  0.41140317  0.92450515  0.91599547  1
  Te2-  Te205  1  0.73645453  0.25480028  0.25030799  1
  Te2-  Te206  1  0.74555147  0.25035095  0.58260895  1
  Te2-  Te207  1  0.74800176  0.25048950  0.92120623  1
  Te2-  Te208  1  0.74103347  0.59039150  0.25172824  1
  Te2-  Te209  1  0.74379038  0.58742014  0.58492868  1
  Te2-  Te210  1  0.75238675  0.59256937  0.92512412  1
  Te2-  Te211  1  0.74939231  0.91741343  0.25336404  1
  Te2-  Te212  1  0.75082606  0.91701364  0.58667077  1
  Te2-  Te213  1  0.74778311  0.91734437  0.91814385  1
  Te2-  Te214  1  0.08206686  0.08512941  0.07814482  1
  Te2-  Te215  1  0.08286932  0.07777435  0.41576663  1
  Te2-  Te216  1  0.07969768  0.07655536  0.74810255  1
  Te2-  Te217  1  0.07962043  0.41660831  0.08210840  1
  Te2-  Te218  1  0.07855874  0.41388842  0.41607947  1
  Te2-  Te219  1  0.08232781  0.41117187  0.74699964  1
  Te2-  Te220  1  0.07929904  0.74828784  0.08125620  1
  Te2-  Te221  1  0.08390208  0.74824297  0.41261452  1
  Te2-  Te222  1  0.08639337  0.74618092  0.74841096  1
  Te2-  Te223  1  0.40966666  0.08218446  0.07759517  1
  Te2-  Te224  1  0.40487992  0.07974206  0.41271710  1
  Te2-  Te225  1  0.41470012  0.08424501  0.74873204  1
  Te2-  Te226  1  0.41444204  0.41640002  0.07274860  1
  Te2-  Te227  1  0.41266352  0.41619711  0.41500386  1
  Te2-  Te228  1  0.41708557  0.41717937  0.75059878  1
  Te2-  Te229  1  0.41228988  0.74358296  0.08233002  1
  Te2-  Te230  1  0.41067841  0.75108783  0.41713709  1
  Te2-  Te231  1  0.41534319  0.74493982  0.74439296  1
  Te2-  Te232  1  0.74597685  0.07831151  0.07470582  1
  Te2-  Te233  1  0.74826315  0.07349069  0.41246182  1
  Te2-  Te234  1  0.74714576  0.08105468  0.74826666  1
  Te2-  Te235  1  0.74555515  0.41047426  0.08374944  1
  Te2-  Te236  1  0.74515846  0.41618985  0.40927602  1
  Te2-  Te237  1  0.75004931  0.41693383  0.74776391  1
  Te2-  Te238  1  0.74915638  0.74859576  0.08202429  1
  Te2-  Te239  1  0.74794752  0.74829136  0.41360270  1
  Te2-  Te240  1  0.74496480  0.74777019  0.74485307  1
