# generated using pymatgen
data_Ti27(Cu53Te54)2
_symmetry_space_group_name_H-M   'P 1'
_cell_length_a   17.87525591
_cell_length_b   17.87505638
_cell_length_c   17.87538205
_cell_angle_alpha   89.99394987
_cell_angle_beta   90.01199460
_cell_angle_gamma   89.99064098
_symmetry_Int_Tables_number   1
_chemical_formula_structural   Ti27(Cu53Te54)2
_chemical_formula_sum   'Ti27 Cu106 Te108'
_cell_volume   5711.56341776
_cell_formula_units_Z   1
loop_
 _symmetry_equiv_pos_site_id
 _symmetry_equiv_pos_as_xyz
  1  'x, y, z'
loop_
 _atom_type_symbol
 _atom_type_oxidation_number
  Ti4+  4.0
  Cu+  1.0
  Te2-  -2.0
loop_
 _atom_site_type_symbol
 _atom_site_label
 _atom_site_symmetry_multiplicity
 _atom_site_fract_x
 _atom_site_fract_y
 _atom_site_fract_z
 _atom_site_occupancy
  Ti4+  Ti0  1  0.16674423  0.16465525  0.16612225  1
  Ti4+  Ti1  1  0.16506375  0.16832206  0.49934051  1
  Ti4+  Ti2  1  0.17160160  0.16783417  0.83185246  1
  Ti4+  Ti3  1  0.16652603  0.50026983  0.16479986  1
  Ti4+  Ti4  1  0.16482940  0.50249001  0.49938353  1
  Ti4+  Ti5  1  0.16752475  0.49992241  0.83115366  1
  Ti4+  Ti6  1  0.16892879  0.83516403  0.16360223  1
  Ti4+  Ti7  1  0.16339533  0.83431224  0.50002490  1
  Ti4+  Ti8  1  0.16695209  0.83157673  0.83381844  1
  Ti4+  Ti9  1  0.49925641  0.16543005  0.16758035  1
  Ti4+  Ti10  1  0.49836780  0.16755344  0.49786002  1
  Ti4+  Ti11  1  0.50187214  0.16491874  0.83364529  1
  Ti4+  Ti12  1  0.49863898  0.49905043  0.16606933  1
  Ti4+  Ti13  1  0.49976996  0.50031176  0.50109786  1
  Ti4+  Ti14  1  0.50335809  0.49967066  0.82988395  1
  Ti4+  Ti15  1  0.49904550  0.83205678  0.16690600  1
  Ti4+  Ti16  1  0.49771211  0.83114908  0.49747241  1
  Ti4+  Ti17  1  0.50127621  0.83423307  0.83039804  1
  Ti4+  Ti18  1  0.83384792  0.16937995  0.16938215  1
  Ti4+  Ti19  1  0.83365833  0.16760818  0.50328311  1
  Ti4+  Ti20  1  0.83462972  0.16465333  0.83868823  1
  Ti4+  Ti21  1  0.83022593  0.50146095  0.16784809  1
  Ti4+  Ti22  1  0.83185705  0.49949189  0.50236357  1
  Ti4+  Ti23  1  0.83365577  0.49518696  0.83481802  1
  Ti4+  Ti24  1  0.83456989  0.83245571  0.16685627  1
  Ti4+  Ti25  1  0.83414175  0.83579474  0.50045762  1
  Ti4+  Ti26  1  0.83209757  0.83420558  0.83241494  1
  Cu+  Cu27  1  0.17112761  0.16275472  -0.00237393  1
  Cu+  Cu28  1  0.16352469  0.16956169  0.33371710  1
  Cu+  Cu29  1  0.16916005  0.16856231  0.66540081  1
  Cu+  Cu30  1  0.16670291  0.50011364  -0.00400602  1
  Cu+  Cu31  1  0.16605303  0.50239048  0.33074944  1
  Cu+  Cu32  1  0.16548217  0.49823582  0.66371507  1
  Cu+  Cu33  1  0.17228260  0.82984362  0.00185804  1
  Cu+  Cu34  1  0.16667693  0.83730115  0.32981779  1
  Cu+  Cu35  1  0.16097025  0.83218184  0.66835270  1
  Cu+  Cu36  1  0.50147749  0.16695452  0.00042239  1
  Cu+  Cu37  1  0.49638582  0.16456329  0.33066343  1
  Cu+  Cu38  1  0.49731646  0.16783851  0.66790077  1
  Cu+  Cu39  1  0.50023701  0.49652510  -0.00194375  1
  Cu+  Cu40  1  0.50077068  0.50107642  0.33337002  1
  Cu+  Cu41  1  0.50049240  0.50722004  0.66789590  1
  Cu+  Cu42  1  0.50250897  0.83321095  -0.00148438  1
  Cu+  Cu43  1  0.49663393  0.83095725  0.33476044  1
  Cu+  Cu44  1  0.50131216  0.83367258  0.66047004  1
  Cu+  Cu45  1  0.83552373  0.16463177  0.00605821  1
  Cu+  Cu46  1  0.83434925  0.16941005  0.33708337  1
  Cu+  Cu47  1  0.83514118  0.16829163  0.67240986  1
  Cu+  Cu48  1  0.83346077  0.49224944  0.00246523  1
  Cu+  Cu49  1  0.83139461  0.50278309  0.33568001  1
  Cu+  Cu50  1  0.82701524  0.49624434  0.66739937  1
  Cu+  Cu51  1  0.83509464  0.83400964  -0.00162127  1
  Cu+  Cu52  1  0.83649434  0.82873748  0.33329820  1
  Cu+  Cu53  1  0.83068146  0.84157029  0.66650572  1
  Cu+  Cu54  1  0.17316112  0.00138219  0.16129082  1
  Cu+  Cu55  1  0.16539325  0.00137674  0.49901918  1
  Cu+  Cu56  1  0.16610939  0.00053814  0.83441992  1
  Cu+  Cu57  1  0.16534155  0.33093667  0.16621484  1
  Cu+  Cu58  1  0.16341399  0.33573440  0.50010572  1
  Cu+  Cu59  1  0.17234125  0.33428495  0.83074279  1
  Cu+  Cu60  1  0.16908021  0.66726062  0.16287652  1
  Cu+  Cu61  1  0.16220495  0.67070556  0.50221703  1
  Cu+  Cu62  1  0.16732174  0.66464736  0.83417394  1
  Cu+  Cu63  1  0.49739982  0.00042403  0.17143416  1
  Cu+  Cu64  1  0.49714798  -0.00057367  0.49758351  1
  Cu+  Cu65  1  0.50360577  -0.00050515  0.83669227  1
  Cu+  Cu66  1  0.49655198  0.33135449  0.16537496  1
  Cu+  Cu67  1  0.50402510  0.33498358  0.49712227  1
  Cu+  Cu68  1  0.50134602  0.32965123  0.82931239  1
  Cu+  Cu69  1  0.50164077  0.66366273  0.16767571  1
  Cu+  Cu70  1  0.49670906  0.66282451  0.49848477  1
  Cu+  Cu71  1  0.49999745  0.66897800  0.82770529  1
  Cu+  Cu72  1  0.83460723  0.00032171  0.16794792  1
  Cu+  Cu73  1  0.84002208  0.00383728  0.50132969  1
  Cu+  Cu74  1  0.83409867  -0.00502887  0.83545738  1
  Cu+  Cu75  1  0.83403414  0.33690881  0.16691812  1
  Cu+  Cu76  1  0.82781432  0.33346145  0.50612353  1
  Cu+  Cu77  1  0.83275271  0.33013854  0.84314365  1
  Cu+  Cu78  1  0.82828971  0.66931570  0.16941898  1
  Cu+  Cu79  1  0.83670498  0.67063362  0.49568406  1
  Cu+  Cu80  1  0.83164740  0.66515843  0.83052022  1
  Cu+  Cu81  1  -0.00200708  0.16555785  0.16420419  1
  Cu+  Cu82  1  -0.00240296  0.16673625  0.49865402  1
  Cu+  Cu83  1  0.00619062  0.16608957  0.83713190  1
  Cu+  Cu84  1  -0.00056710  0.50110302  0.16392838  1
  Cu+  Cu85  1  0.00118785  0.49862635  0.50347131  1
  Cu+  Cu86  1  0.00032675  0.49871629  0.83140105  1
  Cu+  Cu87  1  0.00546817  0.83560247  0.16734797  1
  Cu+  Cu88  1  -0.00054561  0.82987713  0.50372657  1
  Cu+  Cu89  1  -0.00130083  0.83315512  0.83485517  1
  Cu+  Cu90  1  0.33389752  0.15922708  0.16747689  1
  Cu+  Cu91  1  0.32966905  0.16968920  0.49913000  1
  Cu+  Cu92  1  0.33943955  0.17008146  0.82888176  1
  Cu+  Cu93  1  0.33227062  0.49648543  0.16619954  1
  Cu+  Cu94  1  0.33163592  0.50430552  0.49584289  1
  Cu+  Cu95  1  0.33384406  0.50197616  0.82925277  1
  Cu+  Cu96  1  0.33276309  0.83076288  0.16159548  1
  Cu+  Cu97  1  0.33059048  0.83094250  0.49791076  1
  Cu+  Cu98  1  0.33308283  0.83307513  0.83131299  1
  Cu+  Cu99  1  0.66698996  0.17077622  0.17081874  1
  Cu+  Cu100  1  0.66736536  0.16767434  0.49990163  1
  Cu+  Cu101  1  0.66730512  0.16403801  0.83628571  1
  Cu+  Cu102  1  0.66099553  0.50514532  0.17048486  1
  Cu+  Cu103  1  0.66454300  0.49490241  0.50580088  1
  Cu+  Cu104  1  0.67272361  0.49642908  0.83278812  1
  Cu+  Cu105  1  0.67033276  0.83176877  0.16844819  1
  Cu+  Cu106  1  0.66170037  0.83752522  0.50110073  1
  Cu+  Cu107  1  0.66510425  0.83773765  0.83047123  1
  Cu+  Cu108  1  0.07946680  0.07415419  0.92516729  1
  Cu+  Cu109  1  0.07483211  0.40312071  0.59422852  1
  Cu+  Cu110  1  0.74688653  0.59414250  0.74032064  1
  Cu+  Cu111  1  0.59329147  0.59420168  0.59326794  1
  Cu+  Cu112  1  0.59248100  0.40552508  0.40292009  1
  Cu+  Cu113  1  0.59076634  0.92719080  0.93334692  1
  Cu+  Cu114  1  0.26706878  0.07611904  0.06625057  1
  Cu+  Cu115  1  0.92975873  0.91875304  0.92788179  1
  Cu+  Cu116  1  0.92704579  0.07721994  0.40532851  1
  Cu+  Cu117  1  0.40256369  0.59013809  0.40158455  1
  Cu+  Cu118  1  0.93055349  0.73834575  0.40324472  1
  Cu+  Cu119  1  0.26342848  0.73364480  0.07250715  1
  Cu+  Cu120  1  0.58953288  0.59482855  0.26203134  1
  Cu+  Cu121  1  0.07029358  0.73945532  0.59957893  1
  Cu+  Cu122  1  0.40334005  0.06921181  0.26345728  1
  Cu+  Cu123  1  0.40928102  0.26206793  0.73560304  1
  Cu+  Cu124  1  0.93145953  0.40781535  0.07631046  1
  Cu+  Cu125  1  0.73716230  0.40322563  0.93370479  1
  Cu+  Cu126  1  0.40121656  0.59940045  0.74471567  1
  Cu+  Cu127  1  0.92275234  0.07140801  0.07786582  1
  Cu+  Cu128  1  0.58498078  0.93223113  0.58699463  1
  Cu+  Cu129  1  0.73825367  0.93110341  0.74063645  1
  Cu+  Cu130  1  0.93018838  0.93043815  0.59254842  1
  Cu+  Cu131  1  0.73423467  0.40057765  0.59717883  1
  Cu+  Cu132  1  0.73918040  0.74453615  0.26404574  1
  Te2-  Te133  1  0.25391500  0.24896263  0.08206536  1
  Te2-  Te134  1  0.24884610  0.25558388  0.41392772  1
  Te2-  Te135  1  0.25562351  0.25461134  0.74326920  1
  Te2-  Te136  1  0.25529896  0.58277074  0.07739913  1
  Te2-  Te137  1  0.24766518  0.59121029  0.41256307  1
  Te2-  Te138  1  0.25009859  0.58754905  0.74292247  1
  Te2-  Te139  1  0.25799912  0.92129553  0.07527927  1
  Te2-  Te140  1  0.25048815  0.91889381  0.41518225  1
  Te2-  Te141  1  0.24875830  0.91766038  0.74767459  1
  Te2-  Te142  1  0.58518146  0.25191539  0.08284435  1
  Te2-  Te143  1  0.58623495  0.24997735  0.41028458  1
  Te2-  Te144  1  0.58983821  0.24863407  0.74735684  1
  Te2-  Te145  1  0.58295756  0.58425170  0.07751702  1
  Te2-  Te146  1  0.59062600  0.58613380  0.41559441  1
  Te2-  Te147  1  0.59409905  0.58885026  0.74757995  1
  Te2-  Te148  1  0.58672370  0.91945298  0.08637138  1
  Te2-  Te149  1  0.58232631  0.91897033  0.41133700  1
  Te2-  Te150  1  0.58564453  0.92366902  0.74068323  1
  Te2-  Te151  1  0.92046484  0.25559973  0.08079538  1
  Te2-  Te152  1  0.91618251  0.25793082  0.41895511  1
  Te2-  Te153  1  0.92001626  0.25106650  0.75635272  1
  Te2-  Te154  1  0.91332840  0.58724570  0.08141517  1
  Te2-  Te155  1  0.92102583  0.58326682  0.41562698  1
  Te2-  Te156  1  0.91671637  0.58158184  0.74603387  1
  Te2-  Te157  1  0.92324060  0.91906752  0.08087793  1
  Te2-  Te158  1  0.92205948  0.91868041  0.41253483  1
  Te2-  Te159  1  0.92341104  0.92104943  0.74708411  1
  Te2-  Te160  1  0.24958678  0.07959312  0.25782350  1
  Te2-  Te161  1  0.25124808  0.08171077  0.58384573  1
  Te2-  Te162  1  0.26121672  0.07951288  0.91386216  1
  Te2-  Te163  1  0.24981884  0.41330731  0.25143746  1
  Te2-  Te164  1  0.25405678  0.41661795  0.58148158  1
  Te2-  Te165  1  0.25543920  0.41659940  0.91641131  1
  Te2-  Te166  1  0.25182689  0.74897100  0.25152077  1
  Te2-  Te167  1  0.24977923  0.75025642  0.58653232  1
  Te2-  Te168  1  0.25586989  0.74479666  0.91690633  1
  Te2-  Te169  1  0.58743167  0.08126764  0.25303425  1
  Te2-  Te170  1  0.58360316  0.08375551  0.58528505  1
  Te2-  Te171  1  0.58868100  0.08027683  0.92371535  1
  Te2-  Te172  1  0.58420648  0.41009706  0.25150373  1
  Te2-  Te173  1  0.58220048  0.41092659  0.59345418  1
  Te2-  Te174  1  0.58533477  0.41138447  0.91656370  1
  Te2-  Te175  1  0.58595821  0.74716508  0.25600311  1
  Te2-  Te176  1  0.58598663  0.74448761  0.58340711  1
  Te2-  Te177  1  0.58682706  0.74715775  0.91429376  1
  Te2-  Te178  1  0.92038476  0.08103041  0.25448935  1
  Te2-  Te179  1  0.92207250  0.08429269  0.59304630  1
  Te2-  Te180  1  0.92326845  0.07570962  0.92335605  1
  Te2-  Te181  1  0.91765024  0.41882505  0.25416618  1
  Te2-  Te182  1  0.91820120  0.41386958  0.58864811  1
  Te2-  Te183  1  0.92483314  0.41158932  0.92026163  1
  Te2-  Te184  1  0.92481386  0.74551563  0.24963940  1
  Te2-  Te185  1  0.91501755  0.74710961  0.59209896  1
  Te2-  Te186  1  0.91644266  0.74459154  0.91684531  1
  Te2-  Te187  1  0.07890006  0.25037907  0.24930689  1
  Te2-  Te188  1  0.07804381  0.25149886  0.58715402  1
  Te2-  Te189  1  0.08838429  0.25426401  0.91941872  1
  Te2-  Te190  1  0.08120222  0.58737432  0.24775758  1
  Te2-  Te191  1  0.07772314  0.58805037  0.58829093  1
  Te2-  Te192  1  0.07997801  0.58431497  0.91680635  1
  Te2-  Te193  1  0.08478685  0.92416543  0.24854294  1
  Te2-  Te194  1  0.08035206  0.92322511  0.58712934  1
  Te2-  Te195  1  0.08256237  0.91777741  0.92402859  1
  Te2-  Te196  1  0.41079770  0.25140234  0.25051646  1
  Te2-  Te197  1  0.41396046  0.25592265  0.58206862  1
  Te2-  Te198  1  0.41737147  0.25248304  0.91988127  1
  Te2-  Te199  1  0.41013269  0.58547133  0.25110488  1
  Te2-  Te200  1  0.40946797  0.58681159  0.58754205  1
  Te2-  Te201  1  0.41831136  0.58474197  0.91556318  1
  Te2-  Te202  1  0.41043355  0.91475985  0.25295830  1
  Te2-  Te203  1  0.41100724  0.91714639  0.58220750  1
  Te2-  Te204  1  0.41442726  0.91707646  0.91724263  1
  Te2-  Te205  1  0.75013950  0.25522978  0.25492475  1
  Te2-  Te206  1  0.74455506  0.24909575  0.59194164  1
  Te2-  Te207  1  0.74619991  0.24726224  0.92602743  1
  Te2-  Te208  1  0.74427979  0.58888845  0.25835603  1
  Te2-  Te209  1  0.74724239  0.59228692  0.58502716  1
  Te2-  Te210  1  0.75061348  0.58298352  0.92154791  1
  Te2-  Te211  1  0.75164168  0.91895779  0.25444560  1
  Te2-  Te212  1  0.74405787  0.92595492  0.58352608  1
  Te2-  Te213  1  0.74484749  0.91926673  0.92282722  1
  Te2-  Te214  1  0.07868771  0.07744767  0.07845382  1
  Te2-  Te215  1  0.07995188  0.08065604  0.41267278  1
  Te2-  Te216  1  0.08404945  0.08297986  0.74643383  1
  Te2-  Te217  1  0.08312630  0.41297913  0.07807193  1
  Te2-  Te218  1  0.08018270  0.41749060  0.41221667  1
  Te2-  Te219  1  0.08067023  0.41143476  0.74732315  1
  Te2-  Te220  1  0.08088841  0.74844021  0.07993216  1
  Te2-  Te221  1  0.08064718  0.74900238  0.40903814  1
  Te2-  Te222  1  0.07750177  0.74468875  0.75183662  1
  Te2-  Te223  1  0.41743246  0.07708205  0.07661533  1
  Te2-  Te224  1  0.41028718  0.08065067  0.41555268  1
  Te2-  Te225  1  0.41700539  0.07670766  0.74850397  1
  Te2-  Te226  1  0.41389403  0.41369804  0.07960608  1
  Te2-  Te227  1  0.41358601  0.41527440  0.41407454  1
  Te2-  Te228  1  0.41609902  0.41485519  0.74417893  1
  Te2-  Te229  1  0.41831900  0.74446426  0.07828402  1
  Te2-  Te230  1  0.41022736  0.74468849  0.41259019  1
  Te2-  Te231  1  0.41342843  0.75121215  0.74204812  1
  Te2-  Te232  1  0.74616330  0.08228514  0.08643163  1
  Te2-  Te233  1  0.74912655  0.08112996  0.41658460  1
  Te2-  Te234  1  0.74916226  0.08144723  0.75024901  1
  Te2-  Te235  1  0.73949165  0.41443887  0.08633273  1
  Te2-  Te236  1  0.74666034  0.41384840  0.41408040  1
  Te2-  Te237  1  0.74789251  0.40392276  0.74923127  1
  Te2-  Te238  1  0.74895810  0.74948179  0.07801486  1
  Te2-  Te239  1  0.74320646  0.75016029  0.41726055  1
  Te2-  Te240  1  0.74617262  0.74921897  0.74455618  1
