# generated using pymatgen
data_Ti27(Cu53Te54)2
_symmetry_space_group_name_H-M   'P 1'
_cell_length_a   17.90204869
_cell_length_b   17.90844769
_cell_length_c   17.89981962
_cell_angle_alpha   90.03881581
_cell_angle_beta   89.97509564
_cell_angle_gamma   89.99981054
_symmetry_Int_Tables_number   1
_chemical_formula_structural   Ti27(Cu53Te54)2
_chemical_formula_sum   'Ti27 Cu106 Te108'
_cell_volume   5738.64276682
_cell_formula_units_Z   1
loop_
 _symmetry_equiv_pos_site_id
 _symmetry_equiv_pos_as_xyz
  1  'x, y, z'
loop_
 _atom_type_symbol
 _atom_type_oxidation_number
  Ti4+  4.0
  Cu+  1.0
  Te2-  -2.0
loop_
 _atom_site_type_symbol
 _atom_site_label
 _atom_site_symmetry_multiplicity
 _atom_site_fract_x
 _atom_site_fract_y
 _atom_site_fract_z
 _atom_site_occupancy
  Ti4+  Ti0  1  0.16817079  0.16817292  0.17078653  1
  Ti4+  Ti1  1  0.16458716  0.16846815  0.49955884  1
  Ti4+  Ti2  1  0.16449473  0.16755776  0.83320199  1
  Ti4+  Ti3  1  0.16574044  0.50453501  0.16600531  1
  Ti4+  Ti4  1  0.16670953  0.50356110  0.49984533  1
  Ti4+  Ti5  1  0.16281226  0.49954929  0.83277644  1
  Ti4+  Ti6  1  0.17309819  0.83416762  0.16198513  1
  Ti4+  Ti7  1  0.16468702  0.83239324  0.49733556  1
  Ti4+  Ti8  1  0.17087296  0.82927831  0.83358014  1
  Ti4+  Ti9  1  0.50174178  0.16699876  0.16669432  1
  Ti4+  Ti10  1  0.49789615  0.16538083  0.49980958  1
  Ti4+  Ti11  1  0.49574123  0.16552142  0.83129258  1
  Ti4+  Ti12  1  0.50035408  0.49735680  0.16765568  1
  Ti4+  Ti13  1  0.50177841  0.49759097  0.50113341  1
  Ti4+  Ti14  1  0.49812171  0.49879948  0.83135291  1
  Ti4+  Ti15  1  0.50349807  0.82901839  0.16862168  1
  Ti4+  Ti16  1  0.50053118  0.83205380  0.50145113  1
  Ti4+  Ti17  1  0.49813407  0.83484929  0.83285313  1
  Ti4+  Ti18  1  0.83531852  0.16784472  0.16754167  1
  Ti4+  Ti19  1  0.83460914  0.16811937  0.50312328  1
  Ti4+  Ti20  1  0.83081789  0.16317360  0.83435050  1
  Ti4+  Ti21  1  0.83348163  0.49984445  0.16419868  1
  Ti4+  Ti22  1  0.83271662  0.50274108  0.50188260  1
  Ti4+  Ti23  1  0.83016043  0.49636988  0.83138450  1
  Ti4+  Ti24  1  0.83373854  0.83466404  0.16654950  1
  Ti4+  Ti25  1  0.83520762  0.83628829  0.50361325  1
  Ti4+  Ti26  1  0.83470465  0.83150048  0.83479433  1
  Cu+  Cu27  1  0.16440890  0.17056443  0.00265014  1
  Cu+  Cu28  1  0.17174230  0.16614351  0.33713714  1
  Cu+  Cu29  1  0.16109849  0.16586096  0.66508263  1
  Cu+  Cu30  1  0.16361854  0.50553705  -0.00131593  1
  Cu+  Cu31  1  0.16849003  0.51143073  0.33316037  1
  Cu+  Cu32  1  0.16171202  0.49679997  0.66611458  1
  Cu+  Cu33  1  0.18013424  0.82957406  -0.00124948  1
  Cu+  Cu34  1  0.16572966  0.83167750  0.32514554  1
  Cu+  Cu35  1  0.16636316  0.82839407  0.66422305  1
  Cu+  Cu36  1  0.50018895  0.16604680  -0.00391360  1
  Cu+  Cu37  1  0.49895374  0.16454111  0.33164764  1
  Cu+  Cu38  1  0.49569952  0.17062283  0.66658820  1
  Cu+  Cu39  1  0.49762835  0.49666881  0.00109933  1
  Cu+  Cu40  1  0.50248696  0.49376203  0.33571777  1
  Cu+  Cu41  1  0.50202082  0.50118688  0.66641610  1
  Cu+  Cu42  1  0.50028042  0.83346069  0.00199605  1
  Cu+  Cu43  1  0.50400227  0.82961714  0.33546370  1
  Cu+  Cu44  1  0.49579965  0.83490931  0.66721052  1
  Cu+  Cu45  1  0.83206927  0.16790292  0.00113611  1
  Cu+  Cu46  1  0.83772923  0.16789092  0.33619372  1
  Cu+  Cu47  1  0.82920025  0.16228275  0.66742064  1
  Cu+  Cu48  1  0.83383223  0.49800476  -0.00431500  1
  Cu+  Cu49  1  0.83619865  0.50111164  0.33126574  1
  Cu+  Cu50  1  0.82870292  0.49560510  0.66708569  1
  Cu+  Cu51  1  0.83434045  0.83074926  0.00205396  1
  Cu+  Cu52  1  0.83676863  0.83769262  0.33405229  1
  Cu+  Cu53  1  0.83145752  0.83575498  0.67226650  1
  Cu+  Cu54  1  0.17615579  0.00717223  0.16193892  1
  Cu+  Cu55  1  0.16500276  0.00100947  0.49772203  1
  Cu+  Cu56  1  0.16765892  -0.00249739  0.83403869  1
  Cu+  Cu57  1  0.16292065  0.33296777  0.16821077  1
  Cu+  Cu58  1  0.16253035  0.33872097  0.50122428  1
  Cu+  Cu59  1  0.16270107  0.33472223  0.83368055  1
  Cu+  Cu60  1  0.16953279  0.66964282  0.16523216  1
  Cu+  Cu61  1  0.16029021  0.66668621  0.49484085  1
  Cu+  Cu62  1  0.17067684  0.66136936  0.83575239  1
  Cu+  Cu63  1  0.50254529  -0.00146833  0.17100548  1
  Cu+  Cu64  1  0.49980851  -0.00244099  0.49945574  1
  Cu+  Cu65  1  0.49411878  -0.00012649  0.82731964  1
  Cu+  Cu66  1  0.49979411  0.33343452  0.16582341  1
  Cu+  Cu67  1  0.50256260  0.32787943  0.50248302  1
  Cu+  Cu68  1  0.49431496  0.33260554  0.82890967  1
  Cu+  Cu69  1  0.50406233  0.66192754  0.17040536  1
  Cu+  Cu70  1  0.50373643  0.66351125  0.50123788  1
  Cu+  Cu71  1  0.49807608  0.66942065  0.83325992  1
  Cu+  Cu72  1  0.83559250  -0.00030063  0.16849420  1
  Cu+  Cu73  1  0.83646756  0.00504540  0.50137762  1
  Cu+  Cu74  1  0.83344830  -0.00389869  0.83282477  1
  Cu+  Cu75  1  0.83302907  0.33293830  0.16390730  1
  Cu+  Cu76  1  0.83081184  0.33726852  0.50199627  1
  Cu+  Cu77  1  0.82980518  0.32911517  0.83078160  1
  Cu+  Cu78  1  0.83324142  0.66829068  0.16720186  1
  Cu+  Cu79  1  0.83366231  0.67228162  0.50462732  1
  Cu+  Cu80  1  0.83362926  0.66284381  0.83336274  1
  Cu+  Cu81  1  0.00420716  0.17112042  0.17012474  1
  Cu+  Cu82  1  -0.00086828  0.16496864  0.50023377  1
  Cu+  Cu83  1  -0.00420003  0.16361181  0.83480841  1
  Cu+  Cu84  1  -0.00041776  0.50275590  0.16104310  1
  Cu+  Cu85  1  0.00087152  0.50241788  0.50006157  1
  Cu+  Cu86  1  -0.00773047  0.49971264  0.83431944  1
  Cu+  Cu87  1  0.00014677  0.83516569  0.16504312  1
  Cu+  Cu88  1  0.00156922  0.83245677  0.50246611  1
  Cu+  Cu89  1  0.00347272  0.82830737  0.83510706  1
  Cu+  Cu90  1  0.33449712  0.16714693  0.16982487  1
  Cu+  Cu91  1  0.32893591  0.16454073  0.49577312  1
  Cu+  Cu92  1  0.33208867  0.17083452  0.82838557  1
  Cu+  Cu93  1  0.33418073  0.50148968  0.17192971  1
  Cu+  Cu94  1  0.33587887  0.49832667  0.49832335  1
  Cu+  Cu95  1  0.33091580  0.49768864  0.83198576  1
  Cu+  Cu96  1  0.34267790  0.83312533  0.15875635  1
  Cu+  Cu97  1  0.33221431  0.83109903  0.49632734  1
  Cu+  Cu98  1  0.33383750  0.83883297  0.83281245  1
  Cu+  Cu99  1  0.66887341  0.17056725  0.16623257  1
  Cu+  Cu100  1  0.66372064  0.16809954  0.50395805  1
  Cu+  Cu101  1  0.66284534  0.16222974  0.83455195  1
  Cu+  Cu102  1  0.66658705  0.49736992  0.16636835  1
  Cu+  Cu103  1  0.66632714  0.50081724  0.50508305  1
  Cu+  Cu104  1  0.66367692  0.49673469  0.83185005  1
  Cu+  Cu105  1  0.66859556  0.83199837  0.17063755  1
  Cu+  Cu106  1  0.66873698  0.83241922  0.50494780  1
  Cu+  Cu107  1  0.66609197  0.83457308  0.83278317  1
  Cu+  Cu108  1  0.91896539  0.59284133  0.92490778  1
  Cu+  Cu109  1  0.27075682  0.73814469  0.07457310  1
  Cu+  Cu110  1  0.42227921  0.93085973  0.07523268  1
  Cu+  Cu111  1  0.25930072  0.93088248  0.92228255  1
  Cu+  Cu112  1  0.07247756  0.59901303  0.07214381  1
  Cu+  Cu113  1  0.07025360  0.74526239  0.25071647  1
  Cu+  Cu114  1  0.07575312  0.73916965  0.59597954  1
  Cu+  Cu115  1  0.73488714  0.07514602  0.58757753  1
  Cu+  Cu116  1  0.07472132  0.26060367  0.07421570  1
  Cu+  Cu117  1  0.59159364  0.25488747  0.59712352  1
  Cu+  Cu118  1  0.73792868  0.92588639  0.74714108  1
  Cu+  Cu119  1  0.73739092  0.26029873  0.07148371  1
  Cu+  Cu120  1  0.26485947  0.09350464  0.06891314  1
  Cu+  Cu121  1  0.59051692  0.59565157  0.59633498  1
  Cu+  Cu122  1  0.06719514  0.59097444  0.40656856  1
  Cu+  Cu123  1  0.07262317  0.40743367  0.59357484  1
  Cu+  Cu124  1  0.74108491  0.74379710  0.59742815  1
  Cu+  Cu125  1  0.73898641  0.40737482  0.59304106  1
  Cu+  Cu126  1  0.92550607  0.07475768  0.40464641  1
  Cu+  Cu127  1  0.40231990  0.92572306  0.73351979  1
  Cu+  Cu128  1  0.07592451  0.07123302  0.59464353  1
  Cu+  Cu129  1  0.26177219  0.06815851  0.41017905  1
  Cu+  Cu130  1  0.26704309  0.59646796  0.26366533  1
  Cu+  Cu131  1  0.26401755  0.58414854  0.92393755  1
  Cu+  Cu132  1  0.39998936  0.26474457  0.73672406  1
  Te2-  Te133  1  0.25437383  0.25533100  0.08399944  1
  Te2-  Te134  1  0.24975832  0.25813425  0.41711850  1
  Te2-  Te135  1  0.24602198  0.25457320  0.74467391  1
  Te2-  Te136  1  0.25872460  0.58630384  0.07850261  1
  Te2-  Te137  1  0.25823062  0.59040325  0.41661232  1
  Te2-  Te138  1  0.24963514  0.58143153  0.74439929  1
  Te2-  Te139  1  0.26186166  0.92558326  0.07670333  1
  Te2-  Te140  1  0.25101284  0.91613330  0.41045935  1
  Te2-  Te141  1  0.24992308  0.91857023  0.74237347  1
  Te2-  Te142  1  0.58404519  0.25283207  0.07814035  1
  Te2-  Te143  1  0.58469411  0.24861646  0.41309975  1
  Te2-  Te144  1  0.58673497  0.25200232  0.74898205  1
  Te2-  Te145  1  0.58520464  0.58152954  0.08085651  1
  Te2-  Te146  1  0.58735611  0.58215469  0.41412287  1
  Te2-  Te147  1  0.58554574  0.58766676  0.74951314  1
  Te2-  Te148  1  0.58787725  0.91731825  0.08357676  1
  Te2-  Te149  1  0.58780332  0.91623756  0.41742594  1
  Te2-  Te150  1  0.58494597  0.92039817  0.74531371  1
  Te2-  Te151  1  0.92216782  0.25317142  0.07990664  1
  Te2-  Te152  1  0.91838263  0.25660889  0.41878616  1
  Te2-  Te153  1  0.91582604  0.24766183  0.74755197  1
  Te2-  Te154  1  0.91799113  0.59004876  0.07742547  1
  Te2-  Te155  1  0.91586729  0.59003148  0.41517740  1
  Te2-  Te156  1  0.91520978  0.58258922  0.74381722  1
  Te2-  Te157  1  0.91900230  0.91951983  0.08032313  1
  Te2-  Te158  1  0.92219735  0.92078060  0.41681539  1
  Te2-  Te159  1  0.92393411  0.91600374  0.75141944  1
  Te2-  Te160  1  0.25704302  0.08054895  0.25694077  1
  Te2-  Te161  1  0.25016586  0.08112755  0.58581674  1
  Te2-  Te162  1  0.25475335  0.08419282  0.91811808  1
  Te2-  Te163  1  0.24726678  0.41748758  0.25268494  1
  Te2-  Te164  1  0.25226664  0.41697143  0.58471447  1
  Te2-  Te165  1  0.24824789  0.41456112  0.91946762  1
  Te2-  Te166  1  0.26107790  0.75006917  0.25035969  1
  Te2-  Te167  1  0.25087446  0.74521587  0.58028536  1
  Te2-  Te168  1  0.26191434  0.74105782  0.91728721  1
  Te2-  Te169  1  0.58786446  0.08276803  0.25113203  1
  Te2-  Te170  1  0.58124027  0.07832807  0.58888471  1
  Te2-  Te171  1  0.58035586  0.07721203  0.91554807  1
  Te2-  Te172  1  0.58682409  0.41162155  0.25161267  1
  Te2-  Te173  1  0.58673473  0.40913761  0.59051391  1
  Te2-  Te174  1  0.58045793  0.41245419  0.91606136  1
  Te2-  Te175  1  0.58885411  0.74454374  0.25441747  1
  Te2-  Te176  1  0.58594607  0.74764313  0.59168401  1
  Te2-  Te177  1  0.58439412  0.75021490  0.91787895  1
  Te2-  Te178  1  0.92256836  0.08136321  0.25220421  1
  Te2-  Te179  1  0.92209830  0.08059999  0.59131397  1
  Te2-  Te180  1  0.91525241  0.07918662  0.92004319  1
  Te2-  Te181  1  0.92045409  0.41586930  0.24840650  1
  Te2-  Te182  1  0.92039462  0.41553441  0.58642340  1
  Te2-  Te183  1  0.91548861  0.40846289  0.91637067  1
  Te2-  Te184  1  0.91898084  0.74789271  0.25381228  1
  Te2-  Te185  1  0.92103451  0.74982401  0.59157502  1
  Te2-  Te186  1  0.92021444  0.74566230  0.92097193  1
  Te2-  Te187  1  0.08368929  0.25282752  0.25956067  1
  Te2-  Te188  1  0.07676802  0.25503669  0.58591787  1
  Te2-  Te189  1  0.07757551  0.25212742  0.91815401  1
  Te2-  Te190  1  0.07469178  0.59100342  0.25167030  1
  Te2-  Te191  1  0.07843624  0.58839677  0.58883640  1
  Te2-  Te192  1  0.07425837  0.58891946  0.91816227  1
  Te2-  Te193  1  0.08766774  0.92267534  0.24373513  1
  Te2-  Te194  1  0.08143931  0.91951552  0.58698277  1
  Te2-  Te195  1  0.08608525  0.91319726  0.92107328  1
  Te2-  Te196  1  0.41589270  0.25212589  0.25196768  1
  Te2-  Te197  1  0.40726861  0.25202058  0.58268614  1
  Te2-  Te198  1  0.41232385  0.25215755  0.91831310  1
  Te2-  Te199  1  0.41824357  0.58454999  0.25821355  1
  Te2-  Te200  1  0.41470096  0.58411906  0.58548229  1
  Te2-  Te201  1  0.41530146  0.58477251  0.91880744  1
  Te2-  Te202  1  0.41745170  0.91471308  0.25472697  1
  Te2-  Te203  1  0.41016137  0.91888298  0.58240256  1
  Te2-  Te204  1  0.41371064  0.92344254  0.92247855  1
  Te2-  Te205  1  0.75137186  0.25274974  0.25495465  1
  Te2-  Te206  1  0.74613982  0.25499261  0.59064974  1
  Te2-  Te207  1  0.74361565  0.25032080  0.91786755  1
  Te2-  Te208  1  0.74882212  0.58398751  0.24988248  1
  Te2-  Te209  1  0.74660161  0.59013943  0.59092704  1
  Te2-  Te210  1  0.74445209  0.58274678  0.91714059  1
  Te2-  Te211  1  0.74950378  0.91995538  0.25340328  1
  Te2-  Te212  1  0.74675155  0.92384464  0.58904166  1
  Te2-  Te213  1  0.74864385  0.91612574  0.92087286  1
  Te2-  Te214  1  0.08081860  0.08219797  0.08353293  1
  Te2-  Te215  1  0.07902453  0.08105458  0.41064998  1
  Te2-  Te216  1  0.07944634  0.07827138  0.75104951  1
  Te2-  Te217  1  0.08132206  0.41518401  0.07909417  1
  Te2-  Te218  1  0.08190388  0.42017902  0.40994030  1
  Te2-  Te219  1  0.07431516  0.41323416  0.74895008  1
  Te2-  Te220  1  0.08197751  0.75160532  0.07583165  1
  Te2-  Te221  1  0.07605840  0.74852156  0.40695750  1
  Te2-  Te222  1  0.08363998  0.74251976  0.74999784  1
  Te2-  Te223  1  0.41518061  0.08113124  0.07866334  1
  Te2-  Te224  1  0.41468410  0.07801382  0.41270714  1
  Te2-  Te225  1  0.40820916  0.08057416  0.74230163  1
  Te2-  Te226  1  0.41136142  0.41427855  0.08372352  1
  Te2-  Te227  1  0.41703306  0.41009914  0.41703637  1
  Te2-  Te228  1  0.41064446  0.41631243  0.74282322  1
  Te2-  Te229  1  0.42134619  0.73873911  0.07898578  1
  Te2-  Te230  1  0.41800691  0.74510463  0.41663566  1
  Te2-  Te231  1  0.41188184  0.74878672  0.74818718  1
  Te2-  Te232  1  0.74968059  0.08094655  0.08391309  1
  Te2-  Te233  1  0.74728525  0.08432181  0.41645886  1
  Te2-  Te234  1  0.74241674  0.07714068  0.74728076  1
  Te2-  Te235  1  0.74721880  0.41456491  0.07800773  1
  Te2-  Te236  1  0.74853844  0.41867738  0.41429798  1
  Te2-  Te237  1  0.74224228  0.40905871  0.74686093  1
  Te2-  Te238  1  0.74759836  0.74808600  0.08262817  1
  Te2-  Te239  1  0.75119106  0.75224121  0.41570123  1
  Te2-  Te240  1  0.74603899  0.74410056  0.75042907  1
