# generated using pymatgen
data_Ti27(Cu53Te54)2
_symmetry_space_group_name_H-M   'P 1'
_cell_length_a   17.90201676
_cell_length_b   17.90035618
_cell_length_c   17.90273777
_cell_angle_alpha   89.97593470
_cell_angle_beta   89.95263225
_cell_angle_gamma   90.01160674
_symmetry_Int_Tables_number   1
_chemical_formula_structural   Ti27(Cu53Te54)2
_chemical_formula_sum   'Ti27 Cu106 Te108'
_cell_volume   5736.97406586
_cell_formula_units_Z   1
loop_
 _symmetry_equiv_pos_site_id
 _symmetry_equiv_pos_as_xyz
  1  'x, y, z'
loop_
 _atom_type_symbol
 _atom_type_oxidation_number
  Ti4+  4.0
  Cu+  1.0
  Te2-  -2.0
loop_
 _atom_site_type_symbol
 _atom_site_label
 _atom_site_symmetry_multiplicity
 _atom_site_fract_x
 _atom_site_fract_y
 _atom_site_fract_z
 _atom_site_occupancy
  Ti4+  Ti0  1  0.16510610  0.16493512  0.16901101  1
  Ti4+  Ti1  1  0.16631533  0.17020036  0.50149542  1
  Ti4+  Ti2  1  0.16799170  0.16569725  0.83511686  1
  Ti4+  Ti3  1  0.16588338  0.49875123  0.16357978  1
  Ti4+  Ti4  1  0.16603453  0.50317687  0.50031465  1
  Ti4+  Ti5  1  0.16627415  0.50153484  0.83183136  1
  Ti4+  Ti6  1  0.16737122  0.83077652  0.16882194  1
  Ti4+  Ti7  1  0.16544355  0.83464328  0.50445566  1
  Ti4+  Ti8  1  0.16763432  0.83181011  0.83570116  1
  Ti4+  Ti9  1  0.49823367  0.16821422  0.16863392  1
  Ti4+  Ti10  1  0.49973738  0.16589818  0.49462269  1
  Ti4+  Ti11  1  0.49866435  0.16603130  0.83470547  1
  Ti4+  Ti12  1  0.50039665  0.50394958  0.16786814  1
  Ti4+  Ti13  1  0.50440825  0.49567285  0.50042570  1
  Ti4+  Ti14  1  0.50014079  0.49978837  0.83346504  1
  Ti4+  Ti15  1  0.50273192  0.83272323  0.16536732  1
  Ti4+  Ti16  1  0.49939027  0.83298707  0.49717113  1
  Ti4+  Ti17  1  0.50160969  0.83247938  0.83255879  1
  Ti4+  Ti18  1  0.83398190  0.16509193  0.16474565  1
  Ti4+  Ti19  1  0.83564277  0.16720907  0.50290718  1
  Ti4+  Ti20  1  0.83347875  0.16729484  0.83219282  1
  Ti4+  Ti21  1  0.83539552  0.50057945  0.16608040  1
  Ti4+  Ti22  1  0.82830996  0.49755759  0.49742571  1
  Ti4+  Ti23  1  0.83494885  0.50234820  0.83100753  1
  Ti4+  Ti24  1  0.83160156  0.83415296  0.16675874  1
  Ti4+  Ti25  1  0.83135633  0.83450981  0.50189266  1
  Ti4+  Ti26  1  0.83160100  0.83415561  0.83147040  1
  Cu+  Cu27  1  0.16638293  0.16333796  0.00232618  1
  Cu+  Cu28  1  0.16473868  0.16811577  0.33609015  1
  Cu+  Cu29  1  0.16552492  0.17090638  0.66831250  1
  Cu+  Cu30  1  0.16456762  0.49802835  -0.00299525  1
  Cu+  Cu31  1  0.16441316  0.49949836  0.33101345  1
  Cu+  Cu32  1  0.16325521  0.50528750  0.66699017  1
  Cu+  Cu33  1  0.16830143  0.82964121  0.00333318  1
  Cu+  Cu34  1  0.16532976  0.83363966  0.33921527  1
  Cu+  Cu35  1  0.16968824  0.83136398  0.67088869  1
  Cu+  Cu36  1  0.49890004  0.16677744  0.00201170  1
  Cu+  Cu37  1  0.48967119  0.16514738  0.32990519  1
  Cu+  Cu38  1  0.49973350  0.16455578  0.66657463  1
  Cu+  Cu39  1  0.49894552  0.50083584  -0.00219997  1
  Cu+  Cu40  1  0.50492014  0.50371858  0.33481200  1
  Cu+  Cu41  1  0.50201783  0.49537968  0.66885858  1
  Cu+  Cu42  1  0.50531155  0.82977085  -0.00104770  1
  Cu+  Cu43  1  0.50023092  0.83405157  0.32753292  1
  Cu+  Cu44  1  0.49911351  0.83343020  0.66315446  1
  Cu+  Cu45  1  0.83356245  0.16537362  -0.00380312  1
  Cu+  Cu46  1  0.83770638  0.16842823  0.33148318  1
  Cu+  Cu47  1  0.83976160  0.16040442  0.67313648  1
  Cu+  Cu48  1  0.83748449  0.50143659  -0.00076570  1
  Cu+  Cu49  1  0.83416627  0.49793855  0.33130729  1
  Cu+  Cu50  1  0.82872233  0.50374956  0.66348393  1
  Cu+  Cu51  1  0.82857002  0.83625149  0.00127857  1
  Cu+  Cu52  1  0.83215966  0.83322964  0.33632097  1
  Cu+  Cu53  1  0.83057522  0.84002722  0.66559913  1
  Cu+  Cu54  1  0.16576738  -0.00211870  0.16926997  1
  Cu+  Cu55  1  0.16537710  0.00375543  0.50500670  1
  Cu+  Cu56  1  0.16754104  -0.00255623  0.83840733  1
  Cu+  Cu57  1  0.16539148  0.33266567  0.16480932  1
  Cu+  Cu58  1  0.16684864  0.33917087  0.50221833  1
  Cu+  Cu59  1  0.16348174  0.33182700  0.83225945  1
  Cu+  Cu60  1  0.16914406  0.66386413  0.16369960  1
  Cu+  Cu61  1  0.16807454  0.67218780  0.49919683  1
  Cu+  Cu62  1  0.16870840  0.66829388  0.82933980  1
  Cu+  Cu63  1  0.50011817  0.00156143  0.17266189  1
  Cu+  Cu64  1  0.49964009  -0.00085588  0.49538616  1
  Cu+  Cu65  1  0.49965870  0.00101301  0.83508086  1
  Cu+  Cu66  1  0.49749627  0.33543607  0.16560593  1
  Cu+  Cu67  1  0.50682079  0.32785286  0.49560740  1
  Cu+  Cu68  1  0.49924906  0.33428520  0.83599455  1
  Cu+  Cu69  1  0.50705743  0.66775664  0.16978429  1
  Cu+  Cu70  1  0.50137755  0.66355608  0.49806444  1
  Cu+  Cu71  1  0.50100373  0.66563637  0.83418638  1
  Cu+  Cu72  1  0.82880682  -0.00080976  0.16264988  1
  Cu+  Cu73  1  0.83602846  -0.00008445  0.50623178  1
  Cu+  Cu74  1  0.83141007  0.00129072  0.82708254  1
  Cu+  Cu75  1  0.83786057  0.33342283  0.16602171  1
  Cu+  Cu76  1  0.82356682  0.32981778  0.49760325  1
  Cu+  Cu77  1  0.83591518  0.33436160  0.83443805  1
  Cu+  Cu78  1  0.83388189  0.66877820  0.16635262  1
  Cu+  Cu79  1  0.82953316  0.66561554  0.50226013  1
  Cu+  Cu80  1  0.83372365  0.66472397  0.83156366  1
  Cu+  Cu81  1  -0.00202610  0.16666013  0.16899648  1
  Cu+  Cu82  1  0.00259769  0.16928795  0.50256842  1
  Cu+  Cu83  1  0.00339400  0.16786178  0.83049836  1
  Cu+  Cu84  1  0.00256329  0.49860684  0.16279884  1
  Cu+  Cu85  1  -0.00393376  0.50106930  0.50130479  1
  Cu+  Cu86  1  0.00091681  0.50702792  0.83107407  1
  Cu+  Cu87  1  -0.00070242  0.83288981  0.16895114  1
  Cu+  Cu88  1  -0.00172636  0.83608685  0.50616684  1
  Cu+  Cu89  1  0.00142563  0.83246059  0.83939979  1
  Cu+  Cu90  1  0.33100989  0.16382220  0.17145938  1
  Cu+  Cu91  1  0.33186938  0.16950598  0.49519569  1
  Cu+  Cu92  1  0.33425631  0.16553747  0.83540447  1
  Cu+  Cu93  1  0.32912415  0.50356165  0.16904958  1
  Cu+  Cu94  1  0.33586232  0.49913713  0.50018943  1
  Cu+  Cu95  1  0.33483718  0.49942735  0.83393941  1
  Cu+  Cu96  1  0.33207644  0.82607192  0.16230712  1
  Cu+  Cu97  1  0.33241102  0.83395855  0.50053448  1
  Cu+  Cu98  1  0.33573336  0.83037732  0.83398239  1
  Cu+  Cu99  1  0.66487153  0.16636161  0.16469013  1
  Cu+  Cu100  1  0.66796084  0.17106484  0.49909569  1
  Cu+  Cu101  1  0.66472968  0.16773904  0.83632811  1
  Cu+  Cu102  1  0.67030826  0.50429011  0.16705655  1
  Cu+  Cu103  1  0.66675763  0.48404064  0.49894350  1
  Cu+  Cu104  1  0.66611374  0.50176183  0.83156169  1
  Cu+  Cu105  1  0.66686694  0.83787966  0.16232464  1
  Cu+  Cu106  1  0.66451715  0.83199690  0.49836000  1
  Cu+  Cu107  1  0.66740975  0.83626107  0.82862579  1
  Cu+  Cu108  1  0.40148331  0.25996694  0.40543338  1
  Cu+  Cu109  1  0.39917302  0.06937779  0.25725866  1
  Cu+  Cu110  1  0.40972234  0.59042957  0.41435014  1
  Cu+  Cu111  1  0.59679948  0.73834460  0.06910462  1
  Cu+  Cu112  1  0.73446014  0.93136142  0.73581478  1
  Cu+  Cu113  1  0.59233417  0.24989731  0.59910138  1
  Cu+  Cu114  1  0.07666428  0.59942168  0.73980837  1
  Cu+  Cu115  1  0.74170932  0.25063875  0.39970758  1
  Cu+  Cu116  1  0.93531806  0.07012694  0.75096017  1
  Cu+  Cu117  1  0.25032017  0.58997874  0.25966750  1
  Cu+  Cu118  1  0.92365279  0.59339063  0.58538709  1
  Cu+  Cu119  1  0.26579757  0.74054463  0.74164728  1
  Cu+  Cu120  1  0.40956978  0.74140298  0.25358288  1
  Cu+  Cu121  1  0.93035645  0.92804970  0.59342806  1
  Cu+  Cu122  1  0.59585782  0.93063976  0.25841935  1
  Cu+  Cu123  1  0.25726739  0.73631349  0.07106844  1
  Cu+  Cu124  1  0.73892198  0.93196935  0.06944359  1
  Cu+  Cu125  1  0.59038784  0.40239128  0.39897429  1
  Cu+  Cu126  1  0.25866294  0.74938835  0.41001839  1
  Cu+  Cu127  1  0.73533155  0.59392397  0.74013955  1
  Cu+  Cu128  1  0.60099400  0.59304241  0.26276291  1
  Cu+  Cu129  1  0.92796706  0.59462108  0.92940806  1
  Cu+  Cu130  1  0.74657677  0.40188538  0.59930596  1
  Cu+  Cu131  1  0.07435623  0.26177552  0.73972677  1
  Cu+  Cu132  1  0.92955087  0.26183623  0.25929863  1
  Te2-  Te133  1  0.25160607  0.24850570  0.08374008  1
  Te2-  Te134  1  0.24882635  0.25824437  0.41331592  1
  Te2-  Te135  1  0.25406358  0.25192058  0.75026991  1
  Te2-  Te136  1  0.25369540  0.58403249  0.07400751  1
  Te2-  Te137  1  0.25457200  0.58895007  0.41259585  1
  Te2-  Te138  1  0.25650967  0.58540928  0.74575343  1
  Te2-  Te139  1  0.25189517  0.91814353  0.08359007  1
  Te2-  Te140  1  0.24992869  0.92187181  0.41859236  1
  Te2-  Te141  1  0.25378214  0.91839390  0.75153449  1
  Te2-  Te142  1  0.58316999  0.25333126  0.08228758  1
  Te2-  Te143  1  0.58845812  0.24927856  0.40205991  1
  Te2-  Te144  1  0.58519315  0.25353212  0.75021748  1
  Te2-  Te145  1  0.58736071  0.58515943  0.07778577  1
  Te2-  Te146  1  0.59448034  0.58508470  0.41734297  1
  Te2-  Te147  1  0.58470906  0.58720553  0.74477092  1
  Te2-  Te148  1  0.58347522  0.92494754  0.07786204  1
  Te2-  Te149  1  0.58577705  0.91857770  0.41149123  1
  Te2-  Te150  1  0.58227009  0.92122123  0.74470500  1
  Te2-  Te151  1  0.91902669  0.24974598  0.07803798  1
  Te2-  Te152  1  0.92124278  0.25462803  0.41747473  1
  Te2-  Te153  1  0.92026925  0.25646452  0.74653438  1
  Te2-  Te154  1  0.92164388  0.58856064  0.08220527  1
  Te2-  Te155  1  0.91496697  0.58545936  0.41454861  1
  Te2-  Te156  1  0.92105086  0.59060798  0.73992005  1
  Te2-  Te157  1  0.91923630  0.91778538  0.08147569  1
  Te2-  Te158  1  0.91802934  0.91935137  0.41640675  1
  Te2-  Te159  1  0.92525108  0.91821783  0.74795273  1
  Te2-  Te160  1  0.24816993  0.07812060  0.25765933  1
  Te2-  Te161  1  0.25311273  0.08677717  0.58613029  1
  Te2-  Te162  1  0.25296696  0.08022331  0.92085520  1
  Te2-  Te163  1  0.25053417  0.41297329  0.25146144  1
  Te2-  Te164  1  0.25133448  0.41998990  0.58726196  1
  Te2-  Te165  1  0.25004672  0.41400593  0.91574355  1
  Te2-  Te166  1  0.25470421  0.74284380  0.25900043  1
  Te2-  Te167  1  0.25506804  0.74655686  0.58872080  1
  Te2-  Te168  1  0.25491586  0.74448163  0.92021419  1
  Te2-  Te169  1  0.58792314  0.08403527  0.25596075  1
  Te2-  Te170  1  0.58523056  0.08082744  0.58054559  1
  Te2-  Te171  1  0.58430828  0.08162056  0.92086793  1
  Te2-  Te172  1  0.58732042  0.41436694  0.24855804  1
  Te2-  Te173  1  0.58740000  0.40612241  0.59199611  1
  Te2-  Te174  1  0.58663007  0.41587451  0.91894486  1
  Te2-  Te175  1  0.59314234  0.74856368  0.25520228  1
  Te2-  Te176  1  0.58338349  0.74710672  0.58296142  1
  Te2-  Te177  1  0.59118807  0.74604107  0.91499805  1
  Te2-  Te178  1  0.91646339  0.07691563  0.25032166  1
  Te2-  Te179  1  0.92544515  0.08092388  0.58900768  1
  Te2-  Te180  1  0.91954948  0.08013774  0.91540396  1
  Te2-  Te181  1  0.92305740  0.41546000  0.25206606  1
  Te2-  Te182  1  0.91336448  0.41170342  0.58334304  1
  Te2-  Te183  1  0.92220985  0.41708042  0.91586476  1
  Te2-  Te184  1  0.91682529  0.74958052  0.25349879  1
  Te2-  Te185  1  0.91617433  0.74747182  0.58906862  1
  Te2-  Te186  1  0.91539911  0.74924112  0.92059840  1
  Te2-  Te187  1  0.08091222  0.25393451  0.25389832  1
  Te2-  Te188  1  0.08042081  0.25816310  0.58669399  1
  Te2-  Te189  1  0.08165387  0.24984778  0.92147743  1
  Te2-  Te190  1  0.08006491  0.58587376  0.24961401  1
  Te2-  Te191  1  0.07871737  0.59183754  0.58445910  1
  Te2-  Te192  1  0.08279181  0.59020095  0.92012851  1
  Te2-  Te193  1  0.08189378  0.91580339  0.25445306  1
  Te2-  Te194  1  0.08333589  0.92128758  0.59268552  1
  Te2-  Te195  1  0.08321250  0.91614967  0.92380790  1
  Te2-  Te196  1  0.40939310  0.25826085  0.25125539  1
  Te2-  Te197  1  0.41583361  0.25146163  0.58211878  1
  Te2-  Te198  1  0.41429558  0.25196419  0.92031676  1
  Te2-  Te199  1  0.41059713  0.58926207  0.25664511  1
  Te2-  Te200  1  0.41898325  0.58164776  0.58617308  1
  Te2-  Te201  1  0.41433792  0.58623243  0.91811429  1
  Te2-  Te202  1  0.40860363  0.91600302  0.25018315  1
  Te2-  Te203  1  0.41508978  0.91930017  0.58241685  1
  Te2-  Te204  1  0.41693407  0.91527041  0.91958805  1
  Te2-  Te205  1  0.74661187  0.25319515  0.24837615  1
  Te2-  Te206  1  0.74826163  0.24887997  0.59537154  1
  Te2-  Te207  1  0.74920239  0.25337487  0.91800122  1
  Te2-  Te208  1  0.75153612  0.58837872  0.25408235  1
  Te2-  Te209  1  0.73751187  0.58461050  0.58161192  1
  Te2-  Te210  1  0.74804143  0.58511480  0.91910912  1
  Te2-  Te211  1  0.74787629  0.92098471  0.25581187  1
  Te2-  Te212  1  0.74042026  0.92214442  0.58422402  1
  Te2-  Te213  1  0.74614606  0.92212453  0.91642996  1
  Te2-  Te214  1  0.08012507  0.07959549  0.08456661  1
  Te2-  Te215  1  0.08101176  0.08262274  0.41775345  1
  Te2-  Te216  1  0.08566463  0.07588192  0.74674770  1
  Te2-  Te217  1  0.08117442  0.41243113  0.07796554  1
  Te2-  Te218  1  0.08006459  0.41835608  0.41640681  1
  Te2-  Te219  1  0.07889508  0.41602420  0.74604632  1
  Te2-  Te220  1  0.07967226  0.74659522  0.08407570  1
  Te2-  Te221  1  0.07645203  0.75064767  0.41902208  1
  Te2-  Te222  1  0.07676103  0.74982310  0.74762744  1
  Te2-  Te223  1  0.41414925  0.08072818  0.08425698  1
  Te2-  Te224  1  0.40956143  0.07655417  0.41283486  1
  Te2-  Te225  1  0.41434155  0.08084447  0.74798065  1
  Te2-  Te226  1  0.41321302  0.42013767  0.08346982  1
  Te2-  Te227  1  0.41568316  0.41305048  0.41223032  1
  Te2-  Te228  1  0.41451189  0.41317914  0.74905207  1
  Te2-  Te229  1  0.41745019  0.74284714  0.07823281  1
  Te2-  Te230  1  0.41230338  0.74463779  0.41010775  1
  Te2-  Te231  1  0.41758427  0.74578304  0.74568703  1
  Te2-  Te232  1  0.74481649  0.08283928  0.07673859  1
  Te2-  Te233  1  0.75246378  0.08186362  0.41684058  1
  Te2-  Te234  1  0.74156092  0.08339891  0.74635517  1
  Te2-  Te235  1  0.75102069  0.41644658  0.08122470  1
  Te2-  Te236  1  0.74544584  0.40860738  0.40336596  1
  Te2-  Te237  1  0.74722426  0.41200394  0.74939768  1
  Te2-  Te238  1  0.74705760  0.74510182  0.07941727  1
  Te2-  Te239  1  0.74740330  0.74754408  0.41600669  1
  Te2-  Te240  1  0.74720350  0.74749510  0.74438993  1
