# generated using pymatgen
data_Ti27(Cu53Te54)2
_symmetry_space_group_name_H-M   'P 1'
_cell_length_a   17.88086051
_cell_length_b   17.87794046
_cell_length_c   17.87635860
_cell_angle_alpha   90.02023187
_cell_angle_beta   90.04202541
_cell_angle_gamma   90.01533373
_symmetry_Int_Tables_number   1
_chemical_formula_structural   Ti27(Cu53Te54)2
_chemical_formula_sum   'Ti27 Cu106 Te108'
_cell_volume   5714.58636155
_cell_formula_units_Z   1
loop_
 _symmetry_equiv_pos_site_id
 _symmetry_equiv_pos_as_xyz
  1  'x, y, z'
loop_
 _atom_type_symbol
 _atom_type_oxidation_number
  Ti4+  4.0
  Cu+  1.0
  Te2-  -2.0
loop_
 _atom_site_type_symbol
 _atom_site_label
 _atom_site_symmetry_multiplicity
 _atom_site_fract_x
 _atom_site_fract_y
 _atom_site_fract_z
 _atom_site_occupancy
  Ti4+  Ti0  1  0.16766664  0.16780017  0.16719049  1
  Ti4+  Ti1  1  0.16525725  0.16777420  0.50192669  1
  Ti4+  Ti2  1  0.16490741  0.16546701  0.83489813  1
  Ti4+  Ti3  1  0.16789029  0.50126288  0.16709463  1
  Ti4+  Ti4  1  0.17127081  0.49962026  0.49830380  1
  Ti4+  Ti5  1  0.16587143  0.50023651  0.83298229  1
  Ti4+  Ti6  1  0.16713487  0.83538212  0.16782754  1
  Ti4+  Ti7  1  0.16384213  0.83130887  0.49849454  1
  Ti4+  Ti8  1  0.16752843  0.83226333  0.83507558  1
  Ti4+  Ti9  1  0.49876243  0.17013787  0.16916722  1
  Ti4+  Ti10  1  0.49977060  0.16543262  0.50259164  1
  Ti4+  Ti11  1  0.49648230  0.16560305  0.83007455  1
  Ti4+  Ti12  1  0.50111832  0.49737691  0.16897644  1
  Ti4+  Ti13  1  0.50436056  0.49889971  0.49955176  1
  Ti4+  Ti14  1  0.49844957  0.50247764  0.83249594  1
  Ti4+  Ti15  1  0.50149742  0.83360995  0.17022562  1
  Ti4+  Ti16  1  0.50070784  0.83175056  0.50158201  1
  Ti4+  Ti17  1  0.49970179  0.83579387  0.83750439  1
  Ti4+  Ti18  1  0.83213692  0.16627277  0.16362597  1
  Ti4+  Ti19  1  0.83772526  0.16485279  0.49843523  1
  Ti4+  Ti20  1  0.83017113  0.16595881  0.82957885  1
  Ti4+  Ti21  1  0.83592095  0.50062840  0.16362852  1
  Ti4+  Ti22  1  0.83390039  0.49727418  0.49664037  1
  Ti4+  Ti23  1  0.83221651  0.50164273  0.83090325  1
  Ti4+  Ti24  1  0.83512349  0.83417505  0.16667248  1
  Ti4+  Ti25  1  0.83496813  0.83167883  0.50024195  1
  Ti4+  Ti26  1  0.83118478  0.83583068  0.83290652  1
  Cu+  Cu27  1  0.16444327  0.16796695  0.00127289  1
  Cu+  Cu28  1  0.16728522  0.16996047  0.33454160  1
  Cu+  Cu29  1  0.16626919  0.16444655  0.67107877  1
  Cu+  Cu30  1  0.16901739  0.50270459  0.00012195  1
  Cu+  Cu31  1  0.16771490  0.50531462  0.33461110  1
  Cu+  Cu32  1  0.16756943  0.49573563  0.66615887  1
  Cu+  Cu33  1  0.16982833  0.83689554  0.00148298  1
  Cu+  Cu34  1  0.16227993  0.83649937  0.33394907  1
  Cu+  Cu35  1  0.16429082  0.82722730  0.66289001  1
  Cu+  Cu36  1  0.49628320  0.17335826  0.00125875  1
  Cu+  Cu37  1  0.49805378  0.16512806  0.33373848  1
  Cu+  Cu38  1  0.49965928  0.16021391  0.66531928  1
  Cu+  Cu39  1  0.50083207  0.50199909  0.00019609  1
  Cu+  Cu40  1  0.49910077  0.49626489  0.33409977  1
  Cu+  Cu41  1  0.50362727  0.49558201  0.66858700  1
  Cu+  Cu42  1  0.49942516  0.83376675  0.00381450  1
  Cu+  Cu43  1  0.50475266  0.83181836  0.33642024  1
  Cu+  Cu44  1  0.50026433  0.83249116  0.67077919  1
  Cu+  Cu45  1  0.82866917  0.16794854  -0.00271379  1
  Cu+  Cu46  1  0.83465372  0.16519491  0.33208367  1
  Cu+  Cu47  1  0.83815196  0.16174539  0.66193395  1
  Cu+  Cu48  1  0.83391359  0.50329347  -0.00270046  1
  Cu+  Cu49  1  0.83386030  0.49579367  0.32726690  1
  Cu+  Cu50  1  0.83083840  0.50212139  0.66429672  1
  Cu+  Cu51  1  0.82950042  0.83949733  0.00232593  1
  Cu+  Cu52  1  0.83438721  0.83096864  0.33100635  1
  Cu+  Cu53  1  0.83728616  0.83101440  0.66772155  1
  Cu+  Cu54  1  0.16880532  0.00309758  0.16749005  1
  Cu+  Cu55  1  0.16076518  -0.00401502  0.49776986  1
  Cu+  Cu56  1  0.17124585  -0.00184985  0.83663382  1
  Cu+  Cu57  1  0.16714461  0.33418637  0.16730461  1
  Cu+  Cu58  1  0.16647652  0.33621218  0.50558001  1
  Cu+  Cu59  1  0.16327264  0.33242452  0.83460165  1
  Cu+  Cu60  1  0.16779963  0.67095785  0.16749237  1
  Cu+  Cu61  1  0.16568245  0.66357226  0.49327540  1
  Cu+  Cu62  1  0.16904849  0.66272095  0.83649678  1
  Cu+  Cu63  1  0.50066516  0.00260233  0.17173790  1
  Cu+  Cu64  1  0.49662480  -0.00062374  0.50341438  1
  Cu+  Cu65  1  0.49587481  -0.00202388  0.82880690  1
  Cu+  Cu66  1  0.49189135  0.33310344  0.16833980  1
  Cu+  Cu67  1  0.50442262  0.33277712  0.50361253  1
  Cu+  Cu68  1  0.49883084  0.33557788  0.83083224  1
  Cu+  Cu69  1  0.50417057  0.66523037  0.16793210  1
  Cu+  Cu70  1  0.50443814  0.66769053  0.49461832  1
  Cu+  Cu71  1  0.50002239  0.67159409  0.83496263  1
  Cu+  Cu72  1  0.83103395  -0.00211384  0.16262542  1
  Cu+  Cu73  1  0.83372270  -0.00172950  0.50123792  1
  Cu+  Cu74  1  0.83031471  0.00420788  0.83332740  1
  Cu+  Cu75  1  0.83345765  0.33362056  0.16400372  1
  Cu+  Cu76  1  0.83979294  0.32873166  0.49717568  1
  Cu+  Cu77  1  0.83037973  0.33400318  0.83189240  1
  Cu+  Cu78  1  0.83711480  0.66744093  0.16483781  1
  Cu+  Cu79  1  0.83496724  0.66378565  0.50023407  1
  Cu+  Cu80  1  0.83466601  0.66854464  0.83083592  1
  Cu+  Cu81  1  -0.00075825  0.16740186  0.16546137  1
  Cu+  Cu82  1  -0.00142115  0.17157137  0.50348333  1
  Cu+  Cu83  1  -0.00131727  0.16568960  0.83050192  1
  Cu+  Cu84  1  0.00085220  0.50226019  0.16387062  1
  Cu+  Cu85  1  0.00314093  0.49865804  0.49624771  1
  Cu+  Cu86  1  -0.00135194  0.50080662  0.83188917  1
  Cu+  Cu87  1  0.00033256  0.83357828  0.16649932  1
  Cu+  Cu88  1  0.00133776  0.83434912  0.49731928  1
  Cu+  Cu89  1  -0.00093380  0.83174302  0.83131285  1
  Cu+  Cu90  1  0.33519356  0.17009912  0.16730691  1
  Cu+  Cu91  1  0.33251016  0.16821065  0.50367302  1
  Cu+  Cu92  1  0.32735043  0.16392663  0.83128616  1
  Cu+  Cu93  1  0.33409687  0.49758292  0.17004428  1
  Cu+  Cu94  1  0.34160340  0.50322186  0.50134928  1
  Cu+  Cu95  1  0.32937773  0.50496767  0.83636878  1
  Cu+  Cu96  1  0.33501244  0.83269679  0.16948546  1
  Cu+  Cu97  1  0.32797167  0.83030489  0.50099942  1
  Cu+  Cu98  1  0.33201489  0.84190574  0.84141294  1
  Cu+  Cu99  1  0.66190370  0.17051722  0.16543578  1
  Cu+  Cu100  1  0.67313215  0.16469400  0.50138611  1
  Cu+  Cu101  1  0.66279929  0.16295626  0.83097161  1
  Cu+  Cu102  1  0.67210195  0.49743535  0.16945224  1
  Cu+  Cu103  1  0.66692984  0.49474460  0.49311937  1
  Cu+  Cu104  1  0.66694504  0.50128856  0.83127579  1
  Cu+  Cu105  1  0.66984269  0.83465128  0.16763910  1
  Cu+  Cu106  1  0.66636170  0.83083289  0.49988610  1
  Cu+  Cu107  1  0.66373596  0.83157930  0.83480371  1
  Cu+  Cu108  1  0.41086351  0.40839031  0.59649918  1
  Cu+  Cu109  1  0.59167142  0.74021092  0.74318573  1
  Cu+  Cu110  1  0.74612605  0.40239980  0.25541164  1
  Cu+  Cu111  1  0.59057021  0.39986782  0.40531844  1
  Cu+  Cu112  1  0.73598956  0.92589240  0.07670498  1
  Cu+  Cu113  1  0.74306928  0.06796670  0.58639343  1
  Cu+  Cu114  1  0.73566971  0.07946914  0.92738013  1
  Cu+  Cu115  1  0.25986428  0.93224312  0.93542175  1
  Cu+  Cu116  1  0.92939644  0.73755350  0.74003001  1
  Cu+  Cu117  1  0.92341048  0.26142278  0.59602348  1
  Cu+  Cu118  1  0.40334301  0.26318073  0.06906151  1
  Cu+  Cu119  1  0.07005964  0.59047777  0.40454855  1
  Cu+  Cu120  1  0.59114065  0.07067829  0.74063070  1
  Cu+  Cu121  1  0.40386560  0.07034780  0.25539393  1
  Cu+  Cu122  1  0.92906463  0.07306690  0.73874209  1
  Cu+  Cu123  1  0.26067852  0.59283007  0.93212841  1
  Cu+  Cu124  1  0.40063621  0.40699459  0.26292672  1
  Cu+  Cu125  1  0.25263475  0.07045321  0.73956306  1
  Cu+  Cu126  1  0.59709335  0.40382396  0.74651781  1
  Cu+  Cu127  1  0.40285816  0.91507187  0.73854139  1
  Cu+  Cu128  1  0.41206791  0.59625438  0.40525311  1
  Cu+  Cu129  1  0.59922486  0.74167348  0.40392788  1
  Cu+  Cu130  1  0.07259595  0.41337238  0.59321897  1
  Cu+  Cu131  1  0.07000301  0.93189103  0.40282835  1
  Cu+  Cu132  1  0.40145554  0.07110342  0.58733072  1
  Te2-  Te133  1  0.25189678  0.25491328  0.07966367  1
  Te2-  Te134  1  0.25083695  0.25367416  0.41930524  1
  Te2-  Te135  1  0.24950088  0.25398591  0.74922388  1
  Te2-  Te136  1  0.25607623  0.58837636  0.08485348  1
  Te2-  Te137  1  0.25908896  0.58649477  0.41290422  1
  Te2-  Te138  1  0.25057842  0.58529382  0.74415462  1
  Te2-  Te139  1  0.25667399  0.92188893  0.08538386  1
  Te2-  Te140  1  0.25165384  0.91824550  0.41495493  1
  Te2-  Te141  1  0.25047248  0.91664853  0.74103490  1
  Te2-  Te142  1  0.58309456  0.25774656  0.08176857  1
  Te2-  Te143  1  0.58847213  0.24741107  0.41622113  1
  Te2-  Te144  1  0.58415191  0.25145588  0.74495046  1
  Te2-  Te145  1  0.58800491  0.58157163  0.08446824  1
  Te2-  Te146  1  0.59015865  0.58521717  0.40897052  1
  Te2-  Te147  1  0.58504496  0.58856238  0.74681876  1
  Te2-  Te148  1  0.58374667  0.92190275  0.08326826  1
  Te2-  Te149  1  0.58508523  0.92112577  0.41870300  1
  Te2-  Te150  1  0.58895505  0.91963015  0.74695894  1
  Te2-  Te151  1  0.91663794  0.25121806  0.07819353  1
  Te2-  Te152  1  0.92227064  0.25021329  0.40867377  1
  Te2-  Te153  1  0.91851953  0.25465119  0.74765430  1
  Te2-  Te154  1  0.92071232  0.58720556  0.07801981  1
  Te2-  Te155  1  0.91777060  0.58344524  0.41025044  1
  Te2-  Te156  1  0.91988912  0.58568721  0.74358403  1
  Te2-  Te157  1  0.92181411  0.91997982  0.08032356  1
  Te2-  Te158  1  0.91724377  0.91930404  0.41219448  1
  Te2-  Te159  1  0.91905299  0.92147886  0.74795143  1
  Te2-  Te160  1  0.25303611  0.08257993  0.25542376  1
  Te2-  Te161  1  0.24878335  0.07564857  0.58507384  1
  Te2-  Te162  1  0.25331608  0.08293867  0.92530291  1
  Te2-  Te163  1  0.24988078  0.41378133  0.25648211  1
  Te2-  Te164  1  0.25869892  0.41503101  0.58615285  1
  Te2-  Te165  1  0.25069708  0.41313916  0.91858203  1
  Te2-  Te166  1  0.25122119  0.75094518  0.25528222  1
  Te2-  Te167  1  0.24893560  0.74235392  0.58295329  1
  Te2-  Te168  1  0.25447738  0.74736399  0.92164536  1
  Te2-  Te169  1  0.58758703  0.08426877  0.25414075  1
  Te2-  Te170  1  0.58947741  0.07587188  0.58527347  1
  Te2-  Te171  1  0.57846910  0.08133718  0.92136041  1
  Te2-  Te172  1  0.58908225  0.40844405  0.25319275  1
  Te2-  Te173  1  0.59273636  0.41230180  0.58793804  1
  Te2-  Te174  1  0.58427583  0.41651955  0.91765263  1
  Te2-  Te175  1  0.59055922  0.74649942  0.25219812  1
  Te2-  Te176  1  0.58594237  0.74557746  0.58844443  1
  Te2-  Te177  1  0.58495630  0.74895921  0.92422861  1
  Te2-  Te178  1  0.91664582  0.08003446  0.24787692  1
  Te2-  Te179  1  0.92649011  0.07426591  0.58384135  1
  Te2-  Te180  1  0.91741870  0.08389523  0.91868963  1
  Te2-  Te181  1  0.92316668  0.41302115  0.24779748  1
  Te2-  Te182  1  0.92037819  0.41497102  0.58687420  1
  Te2-  Te183  1  0.91669109  0.41511261  0.91612935  1
  Te2-  Te184  1  0.92114746  0.74728919  0.25143883  1
  Te2-  Te185  1  0.92240811  0.74513575  0.58407508  1
  Te2-  Te186  1  0.91481591  0.75241579  0.92080696  1
  Te2-  Te187  1  0.08088369  0.25244279  0.25121436  1
  Te2-  Te188  1  0.08113767  0.25383926  0.59244012  1
  Te2-  Te189  1  0.07798973  0.25065458  0.91858262  1
  Te2-  Te190  1  0.08055423  0.58861806  0.25050017  1
  Te2-  Te191  1  0.08376058  0.58389406  0.58445145  1
  Te2-  Te192  1  0.07894910  0.58468940  0.91945432  1
  Te2-  Te193  1  0.07887905  0.92339940  0.25036681  1
  Te2-  Te194  1  0.07936274  0.91632663  0.58799160  1
  Te2-  Te195  1  0.08027044  0.91776393  0.91780606  1
  Te2-  Te196  1  0.41060418  0.25430048  0.26045211  1
  Te2-  Te197  1  0.41537467  0.25328906  0.58939829  1
  Te2-  Te198  1  0.40999346  0.25384169  0.91316198  1
  Te2-  Te199  1  0.41552516  0.58748103  0.25247726  1
  Te2-  Te200  1  0.42308325  0.58805232  0.58735838  1
  Te2-  Te201  1  0.41567220  0.58941321  0.92106790  1
  Te2-  Te202  1  0.41503753  0.91748592  0.25774032  1
  Te2-  Te203  1  0.40934748  0.91608175  0.58658658  1
  Te2-  Te204  1  0.41636473  0.92474632  0.92727070  1
  Te2-  Te205  1  0.74726125  0.25035798  0.25217055  1
  Te2-  Te206  1  0.75218311  0.25291406  0.58551388  1
  Te2-  Te207  1  0.74311139  0.25223035  0.91432252  1
  Te2-  Te208  1  0.75137736  0.58797374  0.25065012  1
  Te2-  Te209  1  0.74606868  0.58206604  0.57938289  1
  Te2-  Te210  1  0.74782924  0.58786425  0.91580566  1
  Te2-  Te211  1  0.74920339  0.91967250  0.25462434  1
  Te2-  Te212  1  0.74761426  0.91446525  0.58755148  1
  Te2-  Te213  1  0.74139934  0.92262324  0.91844932  1
  Te2-  Te214  1  0.08167438  0.08193202  0.08249011  1
  Te2-  Te215  1  0.07818784  0.08543197  0.41419925  1
  Te2-  Te216  1  0.08108592  0.07509385  0.74876521  1
  Te2-  Te217  1  0.08400876  0.41671738  0.08083186  1
  Te2-  Te218  1  0.08533437  0.41282533  0.41193894  1
  Te2-  Te219  1  0.07848030  0.41253088  0.74818361  1
  Te2-  Te220  1  0.08310458  0.75069756  0.08032450  1
  Te2-  Te221  1  0.07744016  0.74511196  0.41028050  1
  Te2-  Te222  1  0.08312066  0.74372586  0.74922838  1
  Te2-  Te223  1  0.41560068  0.08177273  0.08222617  1
  Te2-  Te224  1  0.41181300  0.08069151  0.41620636  1
  Te2-  Te225  1  0.40628745  0.07670069  0.74319745  1
  Te2-  Te226  1  0.41258904  0.41711873  0.07743264  1
  Te2-  Te227  1  0.41428328  0.40854156  0.41624091  1
  Te2-  Te228  1  0.40810525  0.41647018  0.74993187  1
  Te2-  Te229  1  0.41678636  0.74709349  0.08554288  1
  Te2-  Te230  1  0.41172559  0.74976322  0.41370748  1
  Te2-  Te231  1  0.40901645  0.75168181  0.75320927  1
  Te2-  Te232  1  0.74038065  0.08131784  0.07945551  1
  Te2-  Te233  1  0.75032724  0.07922857  0.41259949  1
  Te2-  Te234  1  0.74412386  0.07782100  0.74048678  1
  Te2-  Te235  1  0.74931836  0.41548444  0.07697448  1
  Te2-  Te236  1  0.74985594  0.40648527  0.41122984  1
  Te2-  Te237  1  0.74769208  0.41357877  0.74391438  1
  Te2-  Te238  1  0.74875576  0.74734608  0.08130254  1
  Te2-  Te239  1  0.75060486  0.74526459  0.41369740  1
  Te2-  Te240  1  0.74592060  0.74812264  0.74639457  1
