# generated using pymatgen
data_Ti27(Cu53Te54)2
_symmetry_space_group_name_H-M   'P 1'
_cell_length_a   17.89012839
_cell_length_b   17.89816374
_cell_length_c   17.89565866
_cell_angle_alpha   89.94725354
_cell_angle_beta   89.97483010
_cell_angle_gamma   89.97491209
_symmetry_Int_Tables_number   1
_chemical_formula_structural   Ti27(Cu53Te54)2
_chemical_formula_sum   'Ti27 Cu106 Te108'
_cell_volume   5730.19437786
_cell_formula_units_Z   1
loop_
 _symmetry_equiv_pos_site_id
 _symmetry_equiv_pos_as_xyz
  1  'x, y, z'
loop_
 _atom_type_symbol
 _atom_type_oxidation_number
  Ti4+  4.0
  Cu+  1.0
  Te2-  -2.0
loop_
 _atom_site_type_symbol
 _atom_site_label
 _atom_site_symmetry_multiplicity
 _atom_site_fract_x
 _atom_site_fract_y
 _atom_site_fract_z
 _atom_site_occupancy
  Ti4+  Ti0  1  0.16907415  0.16818457  0.16485209  1
  Ti4+  Ti1  1  0.16470728  0.16325284  0.49937409  1
  Ti4+  Ti2  1  0.16760769  0.16633283  0.83332724  1
  Ti4+  Ti3  1  0.16391801  0.49915017  0.17422611  1
  Ti4+  Ti4  1  0.16551361  0.50096535  0.49639148  1
  Ti4+  Ti5  1  0.16666693  0.49707640  0.83382637  1
  Ti4+  Ti6  1  0.16615053  0.83348383  0.16400559  1
  Ti4+  Ti7  1  0.16570527  0.83627555  0.50010083  1
  Ti4+  Ti8  1  0.16897403  0.83207334  0.83358366  1
  Ti4+  Ti9  1  0.50267409  0.16669438  0.16611964  1
  Ti4+  Ti10  1  0.50122174  0.16340605  0.49943005  1
  Ti4+  Ti11  1  0.50070656  0.16662956  0.83563569  1
  Ti4+  Ti12  1  0.49888863  0.50256049  0.16787855  1
  Ti4+  Ti13  1  0.49925410  0.49629368  0.50046773  1
  Ti4+  Ti14  1  0.49783705  0.49848095  0.83378130  1
  Ti4+  Ti15  1  0.49867629  0.83136925  0.16564676  1
  Ti4+  Ti16  1  0.49890134  0.83335424  0.50133068  1
  Ti4+  Ti17  1  0.49894234  0.83265907  0.83473204  1
  Ti4+  Ti18  1  0.83409507  0.16465709  0.16532818  1
  Ti4+  Ti19  1  0.83778499  0.16746378  0.49799134  1
  Ti4+  Ti20  1  0.83100171  0.16769016  0.83127514  1
  Ti4+  Ti21  1  0.83191164  0.50145050  0.16664757  1
  Ti4+  Ti22  1  0.83513354  0.50221347  0.50126339  1
  Ti4+  Ti23  1  0.83294146  0.50248074  0.83352936  1
  Ti4+  Ti24  1  0.83308731  0.83317723  0.16533249  1
  Ti4+  Ti25  1  0.83292921  0.83334272  0.50117353  1
  Ti4+  Ti26  1  0.83390233  0.83577629  0.83213463  1
  Cu+  Cu27  1  0.16904057  0.17247270  -0.00232985  1
  Cu+  Cu28  1  0.16520057  0.16245913  0.33260686  1
  Cu+  Cu29  1  0.16293439  0.16402458  0.66884377  1
  Cu+  Cu30  1  0.16213444  0.49797499  0.00715626  1
  Cu+  Cu31  1  0.17145113  0.50489245  0.33729465  1
  Cu+  Cu32  1  0.16567821  0.49399193  0.66752604  1
  Cu+  Cu33  1  0.17090009  0.83348319  -0.00227211  1
  Cu+  Cu34  1  0.16291217  0.83447949  0.33015251  1
  Cu+  Cu35  1  0.16870532  0.83639247  0.66649548  1
  Cu+  Cu36  1  0.50536062  0.17037757  0.00112747  1
  Cu+  Cu37  1  0.50327652  0.16432885  0.33384354  1
  Cu+  Cu38  1  0.50047673  0.16453455  0.66838971  1
  Cu+  Cu39  1  0.50057595  0.50519325  -0.00241893  1
  Cu+  Cu40  1  0.49321308  0.49950593  0.33526660  1
  Cu+  Cu41  1  0.49812545  0.49595576  0.66582924  1
  Cu+  Cu42  1  0.49688231  0.82746194  -0.00008948  1
  Cu+  Cu43  1  0.49839403  0.83422977  0.33351884  1
  Cu+  Cu44  1  0.49836271  0.83084112  0.66891460  1
  Cu+  Cu45  1  0.82935935  0.16421277  -0.00129186  1
  Cu+  Cu46  1  0.83774277  0.16229375  0.33008160  1
  Cu+  Cu47  1  0.83240252  0.16837689  0.66172766  1
  Cu+  Cu48  1  0.83169039  0.50047118  -0.00018515  1
  Cu+  Cu49  1  0.83699029  0.50303603  0.33078173  1
  Cu+  Cu50  1  0.83482580  0.50544650  0.66780820  1
  Cu+  Cu51  1  0.83419352  0.83394986  -0.00099132  1
  Cu+  Cu52  1  0.82714565  0.82845720  0.33080958  1
  Cu+  Cu53  1  0.83532257  0.83900729  0.66805162  1
  Cu+  Cu54  1  0.16651298  0.00173076  0.16364132  1
  Cu+  Cu55  1  0.17100366  -0.00021004  0.49870725  1
  Cu+  Cu56  1  0.17100045  -0.00141648  0.83608875  1
  Cu+  Cu57  1  0.16930517  0.33690396  0.16530722  1
  Cu+  Cu58  1  0.16209038  0.33009578  0.49634827  1
  Cu+  Cu59  1  0.17096746  0.33101607  0.83222917  1
  Cu+  Cu60  1  0.16203277  0.66580389  0.16781313  1
  Cu+  Cu61  1  0.16091027  0.67104767  0.49991245  1
  Cu+  Cu62  1  0.16587227  0.66379344  0.83120385  1
  Cu+  Cu63  1  0.50146879  -0.00127915  0.16391236  1
  Cu+  Cu64  1  0.50083493  -0.00182486  0.50081954  1
  Cu+  Cu65  1  0.49920552  0.00009787  0.83337243  1
  Cu+  Cu66  1  0.49904161  0.33435139  0.16705741  1
  Cu+  Cu67  1  0.50283517  0.32605466  0.50244750  1
  Cu+  Cu68  1  0.50274092  0.33073740  0.83590385  1
  Cu+  Cu69  1  0.50051507  0.66855688  0.16460204  1
  Cu+  Cu70  1  0.49852841  0.66508723  0.50116053  1
  Cu+  Cu71  1  0.49747525  0.66521305  0.83852342  1
  Cu+  Cu72  1  0.83407369  -0.00335800  0.16562237  1
  Cu+  Cu73  1  0.83787303  -0.00038193  0.50260599  1
  Cu+  Cu74  1  0.82894159  0.00334925  0.83216247  1
  Cu+  Cu75  1  0.83207817  0.32945940  0.16469607  1
  Cu+  Cu76  1  0.84345323  0.33711323  0.49751677  1
  Cu+  Cu77  1  0.83120700  0.33845223  0.82953112  1
  Cu+  Cu78  1  0.83046491  0.66927219  0.17075239  1
  Cu+  Cu79  1  0.83348102  0.66735469  0.50618270  1
  Cu+  Cu80  1  0.83307402  0.67097077  0.83215603  1
  Cu+  Cu81  1  0.00047825  0.16690374  0.16346176  1
  Cu+  Cu82  1  0.00036007  0.17073211  0.49549101  1
  Cu+  Cu83  1  0.00043520  0.16697655  0.83016120  1
  Cu+  Cu84  1  -0.00378223  0.50822116  0.17110913  1
  Cu+  Cu85  1  -0.00305718  0.50251914  0.49676153  1
  Cu+  Cu86  1  -0.00010215  0.49837657  0.83529213  1
  Cu+  Cu87  1  0.00131562  0.83319485  0.16232311  1
  Cu+  Cu88  1  -0.00282270  0.83867615  0.50341445  1
  Cu+  Cu89  1  0.00261480  0.83409324  0.83025798  1
  Cu+  Cu90  1  0.33668010  0.16707673  0.16517935  1
  Cu+  Cu91  1  0.33499519  0.15939473  0.49855055  1
  Cu+  Cu92  1  0.33376959  0.16986278  0.83520064  1
  Cu+  Cu93  1  0.33522715  0.49409933  0.18033305  1
  Cu+  Cu94  1  0.33483405  0.50029093  0.49265307  1
  Cu+  Cu95  1  0.32999320  0.49296345  0.82899156  1
  Cu+  Cu96  1  0.33364922  0.83296537  0.16531052  1
  Cu+  Cu97  1  0.33063886  0.83671792  0.50281470  1
  Cu+  Cu98  1  0.33407745  0.83147878  0.84026731  1
  Cu+  Cu99  1  0.66832775  0.16615438  0.16674348  1
  Cu+  Cu100  1  0.67010670  0.16466769  0.50199328  1
  Cu+  Cu101  1  0.66619838  0.16587466  0.83772254  1
  Cu+  Cu102  1  0.66521168  0.50011371  0.16525893  1
  Cu+  Cu103  1  0.66656157  0.49618981  0.49914277  1
  Cu+  Cu104  1  0.66578719  0.50457171  0.83420706  1
  Cu+  Cu105  1  0.66685764  0.82977044  0.16663143  1
  Cu+  Cu106  1  0.66278503  0.83170654  0.50052527  1
  Cu+  Cu107  1  0.66710267  0.83437262  0.83038927  1
  Cu+  Cu108  1  0.26289215  0.92881084  0.92910218  1
  Cu+  Cu109  1  0.92178830  0.06659353  0.40068054  1
  Cu+  Cu110  1  0.92636537  0.26377290  0.59607520  1
  Cu+  Cu111  1  0.40308202  0.73379098  0.92864553  1
  Cu+  Cu112  1  0.26341640  0.92754091  0.59612328  1
  Cu+  Cu113  1  0.26147563  0.40077758  0.41559652  1
  Cu+  Cu114  1  0.07742750  0.25729673  0.39938099  1
  Cu+  Cu115  1  0.26167608  0.26099621  0.92642415  1
  Cu+  Cu116  1  0.92259775  0.40992652  0.39959183  1
  Cu+  Cu117  1  0.07087725  0.59178938  0.07287056  1
  Cu+  Cu118  1  0.26330706  0.41951250  0.07748825  1
  Cu+  Cu119  1  0.92752274  0.92949788  0.59746194  1
  Cu+  Cu120  1  0.41241006  0.59887815  0.40971042  1
  Cu+  Cu121  1  0.26073566  0.60001411  0.25350714  1
  Cu+  Cu122  1  0.07009988  0.60212149  0.41505950  1
  Cu+  Cu123  1  0.73368927  0.73851328  0.26124946  1
  Cu+  Cu124  1  0.26377953  0.07088926  0.40211466  1
  Cu+  Cu125  1  0.74019713  0.07166249  0.58912653  1
  Cu+  Cu126  1  0.73916684  0.07058538  0.92956750  1
  Cu+  Cu127  1  0.59661321  0.59716217  0.92500050  1
  Cu+  Cu128  1  0.41482384  0.39879116  0.26409795  1
  Cu+  Cu129  1  0.92157458  0.60057559  0.25821306  1
  Cu+  Cu130  1  0.92650117  0.59713587  0.59946423  1
  Cu+  Cu131  1  0.59720752  0.26235707  0.92881955  1
  Cu+  Cu132  1  0.25969403  0.40249894  0.73532017  1
  Te2-  Te133  1  0.25737999  0.25679676  0.08090304  1
  Te2-  Te134  1  0.25407418  0.24762435  0.41362257  1
  Te2-  Te135  1  0.25464478  0.25022550  0.74228389  1
  Te2-  Te136  1  0.25430922  0.58163975  0.08830416  1
  Te2-  Te137  1  0.25485497  0.59521814  0.41466969  1
  Te2-  Te138  1  0.25087185  0.58260728  0.74593171  1
  Te2-  Te139  1  0.25408875  0.92019359  0.08070014  1
  Te2-  Te140  1  0.25272348  0.91808108  0.40899442  1
  Te2-  Te141  1  0.25739259  0.91903038  0.74932897  1
  Te2-  Te142  1  0.58988113  0.25638914  0.08353129  1
  Te2-  Te143  1  0.58865251  0.24824454  0.41549811  1
  Te2-  Te144  1  0.58633010  0.25030821  0.74811295  1
  Te2-  Te145  1  0.58609711  0.58776013  0.08082645  1
  Te2-  Te146  1  0.58447283  0.58229235  0.41501737  1
  Te2-  Te147  1  0.58005925  0.58496523  0.74732510  1
  Te2-  Te148  1  0.58465747  0.91392248  0.07999845  1
  Te2-  Te149  1  0.58454135  0.91738815  0.41471326  1
  Te2-  Te150  1  0.58294631  0.91835347  0.74816106  1
  Te2-  Te151  1  0.91724566  0.24971819  0.07816057  1
  Te2-  Te152  1  0.92303898  0.25577990  0.40444596  1
  Te2-  Te153  1  0.91839081  0.25499051  0.74742343  1
  Te2-  Te154  1  0.91565915  0.59011924  0.07915193  1
  Te2-  Te155  1  0.91898446  0.59517276  0.41155310  1
  Te2-  Te156  1  0.92237935  0.58938669  0.75105000  1
  Te2-  Te157  1  0.91938423  0.91825013  0.07915425  1
  Te2-  Te158  1  0.91671610  0.91527093  0.40898029  1
  Te2-  Te159  1  0.92132728  0.92484874  0.74964668  1
  Te2-  Te160  1  0.25446286  0.08022065  0.24910258  1
  Te2-  Te161  1  0.25223311  0.08075039  0.58939753  1
  Te2-  Te162  1  0.25541693  0.08215677  0.92158625  1
  Te2-  Te163  1  0.25222800  0.40732632  0.26228622  1
  Te2-  Te164  1  0.25165184  0.41240986  0.58035959  1
  Te2-  Te165  1  0.25346833  0.41282168  0.92513798  1
  Te2-  Te166  1  0.25184325  0.75001872  0.25265176  1
  Te2-  Te167  1  0.24947470  0.74756288  0.58458823  1
  Te2-  Te168  1  0.25101527  0.74034949  0.92032804  1
  Te2-  Te169  1  0.58664295  0.07967471  0.25017675  1
  Te2-  Te170  1  0.58623644  0.07862490  0.58762458  1
  Te2-  Te171  1  0.58540405  0.07709812  0.92211295  1
  Te2-  Te172  1  0.58371914  0.41701982  0.25321640  1
  Te2-  Te173  1  0.58553015  0.41153468  0.58525772  1
  Te2-  Te174  1  0.58706292  0.41561833  0.92083761  1
  Te2-  Te175  1  0.58326105  0.74614326  0.25476120  1
  Te2-  Te176  1  0.58253953  0.74598811  0.58630340  1
  Te2-  Te177  1  0.58925069  0.74835220  0.91952548  1
  Te2-  Te178  1  0.92316391  0.07681616  0.24776485  1
  Te2-  Te179  1  0.92537307  0.08315787  0.58773120  1
  Te2-  Te180  1  0.91795198  0.08310666  0.91582524  1
  Te2-  Te181  1  0.91891577  0.41139638  0.24859233  1
  Te2-  Te182  1  0.92277850  0.41776991  0.59034441  1
  Te2-  Te183  1  0.91652957  0.41517422  0.91879564  1
  Te2-  Te184  1  0.92301633  0.75035475  0.25304272  1
  Te2-  Te185  1  0.92060298  0.74927533  0.58961010  1
  Te2-  Te186  1  0.92000123  0.75097556  0.91656335  1
  Te2-  Te187  1  0.08108732  0.25316449  0.24862671  1
  Te2-  Te188  1  0.08093701  0.25241405  0.58833716  1
  Te2-  Te189  1  0.07990921  0.25295155  0.91606348  1
  Te2-  Te190  1  0.07718013  0.59098842  0.26096223  1
  Te2-  Te191  1  0.08177231  0.58468773  0.58760783  1
  Te2-  Te192  1  0.08112945  0.58448305  0.92004180  1
  Te2-  Te193  1  0.08068918  0.92014021  0.24746861  1
  Te2-  Te194  1  0.08108745  0.92349434  0.58766515  1
  Te2-  Te195  1  0.08242450  0.91764451  0.91849321  1
  Te2-  Te196  1  0.41524746  0.24936027  0.25471054  1
  Te2-  Te197  1  0.41422010  0.24650460  0.58498084  1
  Te2-  Te198  1  0.41478782  0.25431214  0.92278250  1
  Te2-  Te199  1  0.41311662  0.59356215  0.25535307  1
  Te2-  Te200  1  0.41242920  0.58159687  0.58571975  1
  Te2-  Te201  1  0.40587213  0.58109216  0.91831331  1
  Te2-  Te202  1  0.41508982  0.91855577  0.24964849  1
  Te2-  Te203  1  0.41496343  0.92027016  0.58914431  1
  Te2-  Te204  1  0.41576800  0.92146642  0.92294314  1
  Te2-  Te205  1  0.75004729  0.24881230  0.25310950  1
  Te2-  Te206  1  0.75181651  0.25779507  0.57964474  1
  Te2-  Te207  1  0.74876071  0.25716296  0.91874909  1
  Te2-  Te208  1  0.74293527  0.58501170  0.25448120  1
  Te2-  Te209  1  0.74464124  0.58447098  0.58492597  1
  Te2-  Te210  1  0.74894254  0.59038640  0.91995751  1
  Te2-  Te211  1  0.74601925  0.91875181  0.25101733  1
  Te2-  Te212  1  0.74450063  0.91839730  0.58558396  1
  Te2-  Te213  1  0.74597889  0.91866143  0.91931148  1
  Te2-  Te214  1  0.08433577  0.08506909  0.07764414  1
  Te2-  Te215  1  0.07825258  0.07563220  0.41278512  1
  Te2-  Te216  1  0.08238227  0.07767101  0.75085895  1
  Te2-  Te217  1  0.07433317  0.41553652  0.08842023  1
  Te2-  Te218  1  0.07717047  0.41346377  0.40876405  1
  Te2-  Te219  1  0.07949020  0.41124045  0.75020621  1
  Te2-  Te220  1  0.08134094  0.74708771  0.07692523  1
  Te2-  Te221  1  0.07568461  0.75398056  0.41372761  1
  Te2-  Te222  1  0.08398831  0.74853388  0.74608479  1
  Te2-  Te223  1  0.41788686  0.08308492  0.07951684  1
  Te2-  Te224  1  0.41705617  0.07613863  0.41142640  1
  Te2-  Te225  1  0.41379042  0.08238011  0.75072152  1
  Te2-  Te226  1  0.41577801  0.41643903  0.07955117  1
  Te2-  Te227  1  0.41407233  0.40320386  0.41474889  1
  Te2-  Te228  1  0.41537168  0.40815155  0.74702901  1
  Te2-  Te229  1  0.41019532  0.74363748  0.08104667  1
  Te2-  Te230  1  0.41101069  0.75064956  0.41511466  1
  Te2-  Te231  1  0.41303646  0.74667830  0.75055696  1
  Te2-  Te232  1  0.74603206  0.07758733  0.08224684  1
  Te2-  Te233  1  0.75140229  0.07988316  0.41410328  1
  Te2-  Te234  1  0.74460515  0.08288824  0.74354698  1
  Te2-  Te235  1  0.74788289  0.41505788  0.08227836  1
  Te2-  Te236  1  0.75216443  0.41582389  0.41324363  1
  Te2-  Te237  1  0.74644172  0.42062882  0.74635370  1
  Te2-  Te238  1  0.74855960  0.74734562  0.07860228  1
  Te2-  Te239  1  0.74567541  0.74493683  0.41814833  1
  Te2-  Te240  1  0.74927235  0.75096234  0.74567110  1
