# generated using pymatgen
data_Ti27(Cu53Te54)2
_symmetry_space_group_name_H-M   'P 1'
_cell_length_a   17.89197720
_cell_length_b   17.89481436
_cell_length_c   17.90302554
_cell_angle_alpha   90.00316279
_cell_angle_beta   90.11954313
_cell_angle_gamma   90.03181963
_symmetry_Int_Tables_number   1
_chemical_formula_structural   Ti27(Cu53Te54)2
_chemical_formula_sum   'Ti27 Cu106 Te108'
_cell_volume   5732.06295698
_cell_formula_units_Z   1
loop_
 _symmetry_equiv_pos_site_id
 _symmetry_equiv_pos_as_xyz
  1  'x, y, z'
loop_
 _atom_type_symbol
 _atom_type_oxidation_number
  Ti4+  4.0
  Cu+  1.0
  Te2-  -2.0
loop_
 _atom_site_type_symbol
 _atom_site_label
 _atom_site_symmetry_multiplicity
 _atom_site_fract_x
 _atom_site_fract_y
 _atom_site_fract_z
 _atom_site_occupancy
  Ti4+  Ti0  1  0.16713896  0.16661192  0.16785535  1
  Ti4+  Ti1  1  0.16603532  0.16603287  0.50181621  1
  Ti4+  Ti2  1  0.16512816  0.16844299  0.83337470  1
  Ti4+  Ti3  1  0.16810934  0.49993201  0.16389211  1
  Ti4+  Ti4  1  0.16793854  0.50127989  0.49866140  1
  Ti4+  Ti5  1  0.16633794  0.49883531  0.83185582  1
  Ti4+  Ti6  1  0.16572874  0.83178906  0.16139522  1
  Ti4+  Ti7  1  0.16717078  0.83188912  0.50008877  1
  Ti4+  Ti8  1  0.16756534  0.83373963  0.83606177  1
  Ti4+  Ti9  1  0.49935654  0.16679743  0.16462449  1
  Ti4+  Ti10  1  0.49812603  0.16687770  0.49833179  1
  Ti4+  Ti11  1  0.50140563  0.16441273  0.83202404  1
  Ti4+  Ti12  1  0.50114107  0.50090229  0.17017451  1
  Ti4+  Ti13  1  0.49977596  0.50362169  0.50175081  1
  Ti4+  Ti14  1  0.50335461  0.50214690  0.83646350  1
  Ti4+  Ti15  1  0.50090570  0.83582548  0.16734388  1
  Ti4+  Ti16  1  0.49773125  0.83577803  0.49888503  1
  Ti4+  Ti17  1  0.50045727  0.83533260  0.83447937  1
  Ti4+  Ti18  1  0.83325249  0.16679120  0.16948924  1
  Ti4+  Ti19  1  0.83743320  0.16854493  0.50030060  1
  Ti4+  Ti20  1  0.83528306  0.16453952  0.83842845  1
  Ti4+  Ti21  1  0.83265103  0.49878435  0.16604375  1
  Ti4+  Ti22  1  0.83232807  0.49844892  0.49953986  1
  Ti4+  Ti23  1  0.82870058  0.49851580  0.82868964  1
  Ti4+  Ti24  1  0.83092627  0.83521957  0.16850102  1
  Ti4+  Ti25  1  0.83471003  0.83283102  0.49874359  1
  Ti4+  Ti26  1  0.83415811  0.83243756  0.83291393  1
  Cu+  Cu27  1  0.16391176  0.16726373  0.00063451  1
  Cu+  Cu28  1  0.16792926  0.16708458  0.33495462  1
  Cu+  Cu29  1  0.16858005  0.16653256  0.66989512  1
  Cu+  Cu30  1  0.16656502  0.49934166  -0.00241262  1
  Cu+  Cu31  1  0.16815752  0.50233003  0.32798551  1
  Cu+  Cu32  1  0.16597901  0.49919317  0.66490117  1
  Cu+  Cu33  1  0.16746335  0.82641092  -0.00170324  1
  Cu+  Cu34  1  0.16703794  0.83261782  0.33110100  1
  Cu+  Cu35  1  0.16787847  0.83468235  0.66816874  1
  Cu+  Cu36  1  0.50439992  0.16272164  -0.00272492  1
  Cu+  Cu37  1  0.49350352  0.16680299  0.32984966  1
  Cu+  Cu38  1  0.49860991  0.16522352  0.66063405  1
  Cu+  Cu39  1  0.50434209  0.50174907  0.00548976  1
  Cu+  Cu40  1  0.49887259  0.50440167  0.33898805  1
  Cu+  Cu41  1  0.50382876  0.50417811  0.67212851  1
  Cu+  Cu42  1  0.49633394  0.83910675  0.00095601  1
  Cu+  Cu43  1  0.50628273  0.83665703  0.33379062  1
  Cu+  Cu44  1  0.49629298  0.83309511  0.66694998  1
  Cu+  Cu45  1  0.83580174  0.16774354  0.00584247  1
  Cu+  Cu46  1  0.83771520  0.16862416  0.33582837  1
  Cu+  Cu47  1  0.83883887  0.16530734  0.67141726  1
  Cu+  Cu48  1  0.82940475  0.49866795  -0.00609418  1
  Cu+  Cu49  1  0.83337895  0.49482690  0.33032334  1
  Cu+  Cu50  1  0.82287977  0.50143287  0.66385183  1
  Cu+  Cu51  1  0.83321457  0.83166964  0.00320766  1
  Cu+  Cu52  1  0.83293547  0.83438912  0.33292426  1
  Cu+  Cu53  1  0.83560047  0.83385041  0.66251544  1
  Cu+  Cu54  1  0.16604604  -0.00196469  0.16617883  1
  Cu+  Cu55  1  0.16604037  -0.00490973  0.50008217  1
  Cu+  Cu56  1  0.16540530  0.00330389  0.83560051  1
  Cu+  Cu57  1  0.16747546  0.33339477  0.16548908  1
  Cu+  Cu58  1  0.16564739  0.33435481  0.50350024  1
  Cu+  Cu59  1  0.16477876  0.33341285  0.83368475  1
  Cu+  Cu60  1  0.17044701  0.66559175  0.15956652  1
  Cu+  Cu61  1  0.16788979  0.66745888  0.49917983  1
  Cu+  Cu62  1  0.16643578  0.66386831  0.83466695  1
  Cu+  Cu63  1  0.49937866  0.00121070  0.16574810  1
  Cu+  Cu64  1  0.49518539  0.00424290  0.50049373  1
  Cu+  Cu65  1  0.50201434  -0.00206704  0.83114677  1
  Cu+  Cu66  1  0.50271579  0.33450231  0.16511000  1
  Cu+  Cu67  1  0.50027229  0.33149820  0.49965513  1
  Cu+  Cu68  1  0.50327577  0.33092690  0.83507469  1
  Cu+  Cu69  1  0.50088024  0.66552648  0.17132234  1
  Cu+  Cu70  1  0.49494334  0.67134527  0.49824836  1
  Cu+  Cu71  1  0.50104696  0.67017370  0.83992913  1
  Cu+  Cu72  1  0.83225618  0.00054408  0.17046731  1
  Cu+  Cu73  1  0.83690359  -0.00019361  0.49843570  1
  Cu+  Cu74  1  0.83982376  -0.00162756  0.83534190  1
  Cu+  Cu75  1  0.83089688  0.33136267  0.17150210  1
  Cu+  Cu76  1  0.83704014  0.33734256  0.50123538  1
  Cu+  Cu77  1  0.82644953  0.32805353  0.83367869  1
  Cu+  Cu78  1  0.83132290  0.66733897  0.16411335  1
  Cu+  Cu79  1  0.83470418  0.66564621  0.49802891  1
  Cu+  Cu80  1  0.83062830  0.66430865  0.82834455  1
  Cu+  Cu81  1  0.00093167  0.16949366  0.17002418  1
  Cu+  Cu82  1  0.00012620  0.16623141  0.49766759  1
  Cu+  Cu83  1  0.00010205  0.16040337  0.83827237  1
  Cu+  Cu84  1  0.00330227  0.50294765  0.16211701  1
  Cu+  Cu85  1  0.00247557  0.49511111  0.50056340  1
  Cu+  Cu86  1  -0.00508426  0.49908208  0.82788908  1
  Cu+  Cu87  1  -0.00436063  0.83060696  0.16315570  1
  Cu+  Cu88  1  0.00229639  0.83126808  0.49948904  1
  Cu+  Cu89  1  0.00245660  0.83256220  0.83853869  1
  Cu+  Cu90  1  0.33204023  0.16411883  0.16846563  1
  Cu+  Cu91  1  0.33263666  0.16585915  0.50281836  1
  Cu+  Cu92  1  0.33287929  0.16838315  0.82957459  1
  Cu+  Cu93  1  0.33364315  0.50090959  0.16832287  1
  Cu+  Cu94  1  0.33486965  0.50831350  0.49928471  1
  Cu+  Cu95  1  0.33446485  0.50205210  0.83614568  1
  Cu+  Cu96  1  0.33318707  0.83547394  0.15854074  1
  Cu+  Cu97  1  0.33170618  0.83112398  0.50289085  1
  Cu+  Cu98  1  0.33358214  0.83591118  0.83520910  1
  Cu+  Cu99  1  0.66592593  0.16592748  0.16349403  1
  Cu+  Cu100  1  0.66599357  0.16992900  0.49856920  1
  Cu+  Cu101  1  0.67014062  0.16699763  0.83429034  1
  Cu+  Cu102  1  0.66745738  0.49610786  0.17002175  1
  Cu+  Cu103  1  0.66386111  0.49700986  0.49936240  1
  Cu+  Cu104  1  0.66662772  0.49737055  0.82865648  1
  Cu+  Cu105  1  0.66624746  0.83979805  0.17306149  1
  Cu+  Cu106  1  0.66769826  0.83476608  0.49594656  1
  Cu+  Cu107  1  0.66602256  0.83433005  0.83398218  1
  Cu+  Cu108  1  0.73764878  0.59935302  0.73605546  1
  Cu+  Cu109  1  0.74023269  0.40231942  0.25932655  1
  Cu+  Cu110  1  0.07566701  0.40481908  0.59586134  1
  Cu+  Cu111  1  0.40262964  0.07102181  0.25732723  1
  Cu+  Cu112  1  0.92725705  0.06936947  0.40481313  1
  Cu+  Cu113  1  0.59688877  0.74171243  0.40905593  1
  Cu+  Cu114  1  0.26671009  0.73479099  0.07186825  1
  Cu+  Cu115  1  0.59211944  0.40872060  0.07588161  1
  Cu+  Cu116  1  0.92055293  0.73729344  0.07487788  1
  Cu+  Cu117  1  0.07522052  0.07285398  0.93339366  1
  Cu+  Cu118  1  0.74216771  0.40326384  0.92531231  1
  Cu+  Cu119  1  0.92619727  0.06948247  0.74171239  1
  Cu+  Cu120  1  0.58348884  0.40439822  0.40947708  1
  Cu+  Cu121  1  0.93448482  0.41382583  0.40032888  1
  Cu+  Cu122  1  0.40315253  0.59894652  0.40518403  1
  Cu+  Cu123  1  0.73798472  0.40474664  0.58664588  1
  Cu+  Cu124  1  0.40309676  0.93041351  0.07031914  1
  Cu+  Cu125  1  0.59478076  0.93297496  0.26339617  1
  Cu+  Cu126  1  0.07227218  0.73222907  0.92059274  1
  Cu+  Cu127  1  0.59691577  0.07160925  0.06937076  1
  Cu+  Cu128  1  0.40466004  0.07449133  0.59263781  1
  Cu+  Cu129  1  0.58247473  0.40293180  0.74063485  1
  Cu+  Cu130  1  0.40455703  0.74044658  0.59902063  1
  Cu+  Cu131  1  0.74151635  0.24556274  0.73790323  1
  Cu+  Cu132  1  0.26031016  0.07226761  0.74633453  1
  Te2-  Te133  1  0.25198800  0.25018212  0.08146340  1
  Te2-  Te134  1  0.25125357  0.25172247  0.41853808  1
  Te2-  Te135  1  0.25113644  0.25579388  0.74792026  1
  Te2-  Te136  1  0.25691391  0.58290652  0.07552749  1
  Te2-  Te137  1  0.25148914  0.58919698  0.41068167  1
  Te2-  Te138  1  0.25194922  0.58401961  0.74801909  1
  Te2-  Te139  1  0.24941058  0.92221243  0.07509017  1
  Te2-  Te140  1  0.25238605  0.91669171  0.41408340  1
  Te2-  Te141  1  0.25282166  0.91980329  0.74919973  1
  Te2-  Te142  1  0.58701109  0.25314730  0.07798426  1
  Te2-  Te143  1  0.58466494  0.25104944  0.41002196  1
  Te2-  Te144  1  0.58677491  0.24940900  0.74315288  1
  Te2-  Te145  1  0.58906773  0.58727478  0.08698045  1
  Te2-  Te146  1  0.58812210  0.58990051  0.41586399  1
  Te2-  Te147  1  0.58643399  0.59370242  0.75025305  1
  Te2-  Te148  1  0.58883855  0.91998394  0.07933813  1
  Te2-  Te149  1  0.58568586  0.92666249  0.41703353  1
  Te2-  Te150  1  0.58553444  0.91715665  0.74549264  1
  Te2-  Te151  1  0.91877777  0.25397989  0.08597836  1
  Te2-  Te152  1  0.92228913  0.25828675  0.41442923  1
  Te2-  Te153  1  0.92173496  0.25204566  0.75432216  1
  Te2-  Te154  1  0.91599290  0.58288635  0.07674642  1
  Te2-  Te155  1  0.91883930  0.58120326  0.41359793  1
  Te2-  Te156  1  0.91466670  0.58351379  0.74261235  1
  Te2-  Te157  1  0.91620106  0.92150785  0.08249783  1
  Te2-  Te158  1  0.92251315  0.91681746  0.41241880  1
  Te2-  Te159  1  0.92304148  0.91529586  0.74743264  1
  Te2-  Te160  1  0.25043979  0.07745341  0.25451040  1
  Te2-  Te161  1  0.25108582  0.07654464  0.58794243  1
  Te2-  Te162  1  0.25374075  0.08450173  0.91980407  1
  Te2-  Te163  1  0.25282113  0.41452628  0.25050834  1
  Te2-  Te164  1  0.25587997  0.41782200  0.58342583  1
  Te2-  Te165  1  0.25202430  0.41404770  0.91722442  1
  Te2-  Te166  1  0.25287094  0.74964298  0.24692168  1
  Te2-  Te167  1  0.25167749  0.74501251  0.58963764  1
  Te2-  Te168  1  0.25713061  0.74430578  0.91796457  1
  Te2-  Te169  1  0.58687023  0.08385397  0.25471565  1
  Te2-  Te170  1  0.58763454  0.08193753  0.58231183  1
  Te2-  Te171  1  0.58955389  0.07775086  0.91506131  1
  Te2-  Te172  1  0.58549394  0.41128692  0.25905624  1
  Te2-  Te173  1  0.58448052  0.41180049  0.58935184  1
  Te2-  Te174  1  0.58873010  0.41140297  0.92322982  1
  Te2-  Te175  1  0.58779841  0.74687641  0.25309903  1
  Te2-  Te176  1  0.58471421  0.75135759  0.58382076  1
  Te2-  Te177  1  0.58533575  0.75301200  0.92293447  1
  Te2-  Te178  1  0.92121034  0.08089374  0.25313514  1
  Te2-  Te179  1  0.92173909  0.08045059  0.58698522  1
  Te2-  Te180  1  0.91962481  0.07798773  0.92810563  1
  Te2-  Te181  1  0.92466951  0.41380050  0.24796623  1
  Te2-  Te182  1  0.91856757  0.41597204  0.59171547  1
  Te2-  Te183  1  0.91523498  0.41294001  0.91387570  1
  Te2-  Te184  1  0.91655790  0.74693128  0.25251416  1
  Te2-  Te185  1  0.91974250  0.74626781  0.58317114  1
  Te2-  Te186  1  0.91726584  0.74214728  0.91924765  1
  Te2-  Te187  1  0.08414835  0.25312280  0.25353650  1
  Te2-  Te188  1  0.07964429  0.25038505  0.58799489  1
  Te2-  Te189  1  0.07916759  0.25354344  0.91939812  1
  Te2-  Te190  1  0.08350981  0.58817429  0.24738640  1
  Te2-  Te191  1  0.08147043  0.58640207  0.58321204  1
  Te2-  Te192  1  0.07639576  0.58105880  0.91764589  1
  Te2-  Te193  1  0.08032321  0.91438857  0.24792323  1
  Te2-  Te194  1  0.08120234  0.91626864  0.58629404  1
  Te2-  Te195  1  0.08183623  0.92022607  0.92325022  1
  Te2-  Te196  1  0.41391131  0.25507103  0.24782442  1
  Te2-  Te197  1  0.41367203  0.25459264  0.58464218  1
  Te2-  Te198  1  0.41717979  0.24911294  0.91727767  1
  Te2-  Te199  1  0.41267553  0.58720493  0.25429549  1
  Te2-  Te200  1  0.41514191  0.58776500  0.59157145  1
  Te2-  Te201  1  0.41791364  0.58487167  0.92273679  1
  Te2-  Te202  1  0.41107467  0.91764662  0.25366072  1
  Te2-  Te203  1  0.41103845  0.92077334  0.58666001  1
  Te2-  Te204  1  0.41237786  0.92411198  0.91779154  1
  Te2-  Te205  1  0.74446728  0.24902659  0.25607135  1
  Te2-  Te206  1  0.74757797  0.25220092  0.58690930  1
  Te2-  Te207  1  0.74601913  0.24912990  0.92672812  1
  Te2-  Te208  1  0.74923408  0.58528058  0.25187940  1
  Te2-  Te209  1  0.74298475  0.58928980  0.58040539  1
  Te2-  Te210  1  0.74477173  0.58606002  0.91552082  1
  Te2-  Te211  1  0.74783398  0.92397771  0.25834111  1
  Te2-  Te212  1  0.74959071  0.91941976  0.58246760  1
  Te2-  Te213  1  0.75098156  0.91749158  0.91827569  1
  Te2-  Te214  1  0.07862810  0.08051909  0.08436396  1
  Te2-  Te215  1  0.08284664  0.07903660  0.41429564  1
  Te2-  Te216  1  0.07884639  0.07923417  0.74496756  1
  Te2-  Te217  1  0.08240763  0.41400523  0.07917622  1
  Te2-  Te218  1  0.08551039  0.41342901  0.40915362  1
  Te2-  Te219  1  0.07880143  0.41264325  0.74702578  1
  Te2-  Te220  1  0.07596000  0.74205038  0.07672582  1
  Te2-  Te221  1  0.08281440  0.74716835  0.41293424  1
  Te2-  Te222  1  0.08266067  0.74860081  0.74959648  1
  Te2-  Te223  1  0.41116229  0.08240078  0.07656825  1
  Te2-  Te224  1  0.40926649  0.08113280  0.41158615  1
  Te2-  Te225  1  0.41454989  0.07799627  0.74552983  1
  Te2-  Te226  1  0.41527216  0.41646208  0.08316089  1
  Te2-  Te227  1  0.41355002  0.41579737  0.41793760  1
  Te2-  Te228  1  0.41746479  0.41633631  0.75131804  1
  Te2-  Te229  1  0.41903785  0.74471709  0.08050941  1
  Te2-  Te230  1  0.41038165  0.75283807  0.40832436  1
  Te2-  Te231  1  0.41280415  0.74679040  0.75191227  1
  Te2-  Te232  1  0.74926897  0.07928483  0.08150646  1
  Te2-  Te233  1  0.74980835  0.08427798  0.41642957  1
  Te2-  Te234  1  0.75035071  0.07800221  0.75013099  1
  Te2-  Te235  1  0.74646124  0.40960208  0.07903122  1
  Te2-  Te236  1  0.74325390  0.40917471  0.41222904  1
  Te2-  Te237  1  0.74072539  0.40486451  0.74056641  1
  Te2-  Te238  1  0.74214997  0.75087133  0.08396921  1
  Te2-  Te239  1  0.74938131  0.74595010  0.41139926  1
  Te2-  Te240  1  0.74671486  0.75166097  0.74455909  1
