# generated using pymatgen
data_Ti27(Cu53Te54)2
_symmetry_space_group_name_H-M   'P 1'
_cell_length_a   17.87379200
_cell_length_b   17.87478593
_cell_length_c   17.87739070
_cell_angle_alpha   89.99958652
_cell_angle_beta   89.98663505
_cell_angle_gamma   90.00257626
_symmetry_Int_Tables_number   1
_chemical_formula_structural   Ti27(Cu53Te54)2
_chemical_formula_sum   'Ti27 Cu106 Te108'
_cell_volume   5711.65107179
_cell_formula_units_Z   1
loop_
 _symmetry_equiv_pos_site_id
 _symmetry_equiv_pos_as_xyz
  1  'x, y, z'
loop_
 _atom_type_symbol
 _atom_type_oxidation_number
  Ti4+  4.0
  Cu+  1.0
  Te2-  -2.0
loop_
 _atom_site_type_symbol
 _atom_site_label
 _atom_site_symmetry_multiplicity
 _atom_site_fract_x
 _atom_site_fract_y
 _atom_site_fract_z
 _atom_site_occupancy
  Ti4+  Ti0  1  0.16462512  0.16748347  0.16615713  1
  Ti4+  Ti1  1  0.16578918  0.16866996  0.50472083  1
  Ti4+  Ti2  1  0.17151119  0.16701050  0.83460224  1
  Ti4+  Ti3  1  0.16371485  0.50385314  0.16724267  1
  Ti4+  Ti4  1  0.16365230  0.49508809  0.49915591  1
  Ti4+  Ti5  1  0.16745926  0.50221315  0.83306468  1
  Ti4+  Ti6  1  0.16622560  0.83481612  0.17118265  1
  Ti4+  Ti7  1  0.16565382  0.83448086  0.50147972  1
  Ti4+  Ti8  1  0.16596873  0.83259468  0.83427776  1
  Ti4+  Ti9  1  0.49921600  0.16652721  0.16406128  1
  Ti4+  Ti10  1  0.50036090  0.16602976  0.49979708  1
  Ti4+  Ti11  1  0.50195288  0.16496186  0.83476385  1
  Ti4+  Ti12  1  0.50079537  0.50001779  0.16933750  1
  Ti4+  Ti13  1  0.50088260  0.49847360  0.50252563  1
  Ti4+  Ti14  1  0.50194357  0.50126584  0.83529844  1
  Ti4+  Ti15  1  0.50026641  0.83248941  0.16508739  1
  Ti4+  Ti16  1  0.49921780  0.83389703  0.49892682  1
  Ti4+  Ti17  1  0.49804444  0.83314717  0.83074879  1
  Ti4+  Ti18  1  0.83291295  0.16682681  0.16481917  1
  Ti4+  Ti19  1  0.83387544  0.16628610  0.50148273  1
  Ti4+  Ti20  1  0.83565619  0.16580341  0.83178421  1
  Ti4+  Ti21  1  0.83444789  0.49867304  0.16305304  1
  Ti4+  Ti22  1  0.82873354  0.50017234  0.49844638  1
  Ti4+  Ti23  1  0.83552272  0.49650769  0.83297087  1
  Ti4+  Ti24  1  0.83459189  0.83397449  0.16485819  1
  Ti4+  Ti25  1  0.83259321  0.83613203  0.49893314  1
  Ti4+  Ti26  1  0.83295839  0.83132531  0.83064797  1
  Cu+  Cu27  1  0.16924225  0.16758576  0.00113448  1
  Cu+  Cu28  1  0.16395421  0.16613929  0.33459677  1
  Cu+  Cu29  1  0.16949458  0.17373216  0.67254309  1
  Cu+  Cu30  1  0.16675409  0.50494801  -0.00201743  1
  Cu+  Cu31  1  0.15792518  0.49992447  0.33395566  1
  Cu+  Cu32  1  0.16689488  0.49694504  0.66370481  1
  Cu+  Cu33  1  0.16615043  0.83504147  0.00443973  1
  Cu+  Cu34  1  0.16700732  0.83499098  0.33777267  1
  Cu+  Cu35  1  0.16551390  0.83176895  0.66761381  1
  Cu+  Cu36  1  0.50191365  0.15871335  -0.00057994  1
  Cu+  Cu37  1  0.49723266  0.16796003  0.33094125  1
  Cu+  Cu38  1  0.50214895  0.16632721  0.66946051  1
  Cu+  Cu39  1  0.50285801  0.49969211  0.00282947  1
  Cu+  Cu40  1  0.50421183  0.49896469  0.33906667  1
  Cu+  Cu41  1  0.49937543  0.50283332  0.67012361  1
  Cu+  Cu42  1  0.49875195  0.83257452  -0.00349182  1
  Cu+  Cu43  1  0.49691848  0.83084093  0.33125642  1
  Cu+  Cu44  1  0.50156822  0.83722649  0.66335752  1
  Cu+  Cu45  1  0.83487575  0.16435734  -0.00398448  1
  Cu+  Cu46  1  0.83041244  0.16673305  0.33409435  1
  Cu+  Cu47  1  0.83709196  0.16936812  0.66552744  1
  Cu+  Cu48  1  0.84364031  0.49666920  -0.00210362  1
  Cu+  Cu49  1  0.83105060  0.50070076  0.32712709  1
  Cu+  Cu50  1  0.82566327  0.49757158  0.66640689  1
  Cu+  Cu51  1  0.83204639  0.83140093  -0.00203137  1
  Cu+  Cu52  1  0.83523616  0.83813362  0.33092567  1
  Cu+  Cu53  1  0.83333054  0.83260949  0.66308695  1
  Cu+  Cu54  1  0.16220054  0.00038152  0.16558791  1
  Cu+  Cu55  1  0.16635231  0.00401012  0.50328956  1
  Cu+  Cu56  1  0.16923510  -0.00108855  0.83641602  1
  Cu+  Cu57  1  0.16333935  0.33644826  0.16891629  1
  Cu+  Cu58  1  0.16676360  0.32712102  0.49932383  1
  Cu+  Cu59  1  0.16940116  0.33615307  0.83206686  1
  Cu+  Cu60  1  0.17022192  0.67277624  0.16485258  1
  Cu+  Cu61  1  0.16446351  0.66386653  0.50045418  1
  Cu+  Cu62  1  0.16940847  0.67030670  0.83005489  1
  Cu+  Cu63  1  0.50340794  -0.00020739  0.16046538  1
  Cu+  Cu64  1  0.50095123  -0.00002528  0.50005685  1
  Cu+  Cu65  1  0.49642221  0.00023689  0.83629058  1
  Cu+  Cu66  1  0.50058462  0.33315820  0.16310363  1
  Cu+  Cu67  1  0.50283376  0.33310037  0.49926058  1
  Cu+  Cu68  1  0.50317648  0.33197141  0.83607701  1
  Cu+  Cu69  1  0.49666613  0.66646666  0.17244019  1
  Cu+  Cu70  1  0.49982991  0.66397814  0.50044381  1
  Cu+  Cu71  1  0.49653119  0.66525010  0.83032543  1
  Cu+  Cu72  1  0.83615741  -0.00095640  0.16777380  1
  Cu+  Cu73  1  0.83629559  -0.00021630  0.50246190  1
  Cu+  Cu74  1  0.83348962  0.00067218  0.83146972  1
  Cu+  Cu75  1  0.83230630  0.33304766  0.16235487  1
  Cu+  Cu76  1  0.83065584  0.33460391  0.50415166  1
  Cu+  Cu77  1  0.83430311  0.33066426  0.83433109  1
  Cu+  Cu78  1  0.83631316  0.66641871  0.16494581  1
  Cu+  Cu79  1  0.82654687  0.67289726  0.49835225  1
  Cu+  Cu80  1  0.83439170  0.66265150  0.83132088  1
  Cu+  Cu81  1  -0.00177285  0.16569150  0.16524271  1
  Cu+  Cu82  1  -0.00271285  0.17226834  0.50471606  1
  Cu+  Cu83  1  0.00457329  0.16671329  0.83189133  1
  Cu+  Cu84  1  -0.00058818  0.49814866  0.16885729  1
  Cu+  Cu85  1  -0.00004157  0.50361260  0.49180515  1
  Cu+  Cu86  1  -0.00077302  0.50263426  0.83649500  1
  Cu+  Cu87  1  -0.00029812  0.84223943  0.16970522  1
  Cu+  Cu88  1  -0.00122623  0.83688002  0.50237863  1
  Cu+  Cu89  1  0.00111468  0.83296678  0.83387822  1
  Cu+  Cu90  1  0.32976770  0.16892351  0.16700907  1
  Cu+  Cu91  1  0.33441172  0.16611798  0.50422929  1
  Cu+  Cu92  1  0.33894623  0.16289180  0.83855936  1
  Cu+  Cu93  1  0.33227099  0.50470002  0.16914707  1
  Cu+  Cu94  1  0.33211096  0.49605152  0.50228291  1
  Cu+  Cu95  1  0.33562255  0.50314452  0.83308828  1
  Cu+  Cu96  1  0.33539981  0.82720919  0.17061417  1
  Cu+  Cu97  1  0.33269509  0.83381272  0.49858003  1
  Cu+  Cu98  1  0.32988409  0.82991600  0.83049925  1
  Cu+  Cu99  1  0.66534024  0.16393182  0.16224607  1
  Cu+  Cu100  1  0.66804381  0.16479575  0.49803947  1
  Cu+  Cu101  1  0.66974095  0.16539391  0.83139866  1
  Cu+  Cu102  1  0.66623863  0.49428398  0.16342236  1
  Cu+  Cu103  1  0.66391404  0.49187255  0.50260891  1
  Cu+  Cu104  1  0.67085272  0.50103405  0.83287831  1
  Cu+  Cu105  1  0.66808822  0.83201842  0.16346828  1
  Cu+  Cu106  1  0.66349370  0.83654792  0.50031713  1
  Cu+  Cu107  1  0.66459468  0.83271637  0.83096965  1
  Cu+  Cu108  1  0.07464503  0.26471858  0.74902174  1
  Cu+  Cu109  1  0.92722022  0.93329188  0.26198204  1
  Cu+  Cu110  1  0.26777628  0.25574663  0.59937542  1
  Cu+  Cu111  1  0.06811155  0.24919404  0.40424652  1
  Cu+  Cu112  1  0.40530236  0.59109618  0.73921536  1
  Cu+  Cu113  1  0.25747297  0.74327434  0.73408401  1
  Cu+  Cu114  1  0.07224775  0.92797385  0.07165373  1
  Cu+  Cu115  1  0.59110202  0.93143184  0.59410329  1
  Cu+  Cu116  1  0.73557155  0.74723036  0.59054061  1
  Cu+  Cu117  1  0.07691661  0.59895249  0.40722231  1
  Cu+  Cu118  1  0.93208533  0.40200074  0.07213402  1
  Cu+  Cu119  1  0.26296830  0.74559801  0.07281671  1
  Cu+  Cu120  1  0.93000819  0.92527436  0.59737610  1
  Cu+  Cu121  1  0.07328166  0.40525641  0.26063325  1
  Cu+  Cu122  1  0.59055936  0.40445726  0.06974156  1
  Cu+  Cu123  1  0.59115435  0.40174024  0.40818934  1
  Cu+  Cu124  1  0.73999087  0.40377603  0.25334106  1
  Cu+  Cu125  1  0.92385167  0.26864967  0.59323059  1
  Cu+  Cu126  1  0.74269912  0.59259808  0.74163220  1
  Cu+  Cu127  1  0.40501312  0.06909067  0.93101660  1
  Cu+  Cu128  1  0.92783805  0.59659676  0.92404848  1
  Cu+  Cu129  1  0.59907120  0.06761059  0.07036138  1
  Cu+  Cu130  1  0.92231422  0.59487093  0.25870858  1
  Cu+  Cu131  1  0.73535444  0.40172006  0.59769618  1
  Cu+  Cu132  1  0.40545887  0.73656054  0.26489367  1
  Te2-  Te133  1  0.24913293  0.25616656  0.08325848  1
  Te2-  Te134  1  0.25422744  0.24799056  0.41403863  1
  Te2-  Te135  1  0.26274159  0.25461749  0.75344231  1
  Te2-  Te136  1  0.25287449  0.58731415  0.08066132  1
  Te2-  Te137  1  0.25019011  0.58059815  0.41500295  1
  Te2-  Te138  1  0.25301331  0.58674650  0.74242571  1
  Te2-  Te139  1  0.25541320  0.91811268  0.08667140  1
  Te2-  Te140  1  0.25080132  0.92222981  0.41773178  1
  Te2-  Te141  1  0.25076546  0.91888830  0.74750386  1
  Te2-  Te142  1  0.58651195  0.25166330  0.07621707  1
  Te2-  Te143  1  0.58765160  0.24953478  0.41186475  1
  Te2-  Te144  1  0.58727537  0.25154289  0.74944539  1
  Te2-  Te145  1  0.58530433  0.58802048  0.08595403  1
  Te2-  Te146  1  0.58898366  0.58513181  0.41861239  1
  Te2-  Te147  1  0.58899969  0.58760858  0.74761005  1
  Te2-  Te148  1  0.58799924  0.91518035  0.07573449  1
  Te2-  Te149  1  0.58298947  0.91796441  0.41038410  1
  Te2-  Te150  1  0.58493315  0.92233221  0.74897178  1
  Te2-  Te151  1  0.91990312  0.25050637  0.07743686  1
  Te2-  Te152  1  0.91492661  0.25547305  0.41267846  1
  Te2-  Te153  1  0.92239794  0.25700197  0.74643535  1
  Te2-  Te154  1  0.92431878  0.58772191  0.07932458  1
  Te2-  Te155  1  0.91343076  0.59022605  0.41208358  1
  Te2-  Te156  1  0.91849978  0.58155914  0.74273636  1
  Te2-  Te157  1  0.91787679  0.92089319  0.07518231  1
  Te2-  Te158  1  0.92144680  0.92260374  0.41360763  1
  Te2-  Te159  1  0.91974623  0.91847352  0.74791656  1
  Te2-  Te160  1  0.24835777  0.08173089  0.25189597  1
  Te2-  Te161  1  0.25150780  0.08304907  0.59092027  1
  Te2-  Te162  1  0.25310459  0.07872389  0.92330988  1
  Te2-  Te163  1  0.24957503  0.41889592  0.25289539  1
  Te2-  Te164  1  0.25179026  0.40992780  0.58599169  1
  Te2-  Te165  1  0.25309337  0.41843846  0.91809687  1
  Te2-  Te166  1  0.25115600  0.74652740  0.26041877  1
  Te2-  Te167  1  0.25229367  0.74530339  0.58254449  1
  Te2-  Te168  1  0.25225396  0.74707032  0.92221979  1
  Te2-  Te169  1  0.58358276  0.08163311  0.25127167  1
  Te2-  Te170  1  0.58768653  0.08237153  0.58692819  1
  Te2-  Te171  1  0.59215652  0.07629043  0.91714955  1
  Te2-  Te172  1  0.58655988  0.40915984  0.25515983  1
  Te2-  Te173  1  0.58303627  0.41099167  0.59410331  1
  Te2-  Te174  1  0.58983758  0.41455071  0.91838862  1
  Te2-  Te175  1  0.58752295  0.74888597  0.25105672  1
  Te2-  Te176  1  0.58398519  0.74485691  0.58628837  1
  Te2-  Te177  1  0.58296139  0.74672348  0.91499602  1
  Te2-  Te178  1  0.91904607  0.08407581  0.25417222  1
  Te2-  Te179  1  0.92182703  0.08025582  0.58798820  1
  Te2-  Te180  1  0.92230567  0.08065050  0.91526130  1
  Te2-  Te181  1  0.91874045  0.40954024  0.25393174  1
  Te2-  Te182  1  0.92025540  0.42118312  0.58465857  1
  Te2-  Te183  1  0.92462728  0.40692071  0.91676866  1
  Te2-  Te184  1  0.92091810  0.74883380  0.25261160  1
  Te2-  Te185  1  0.91893793  0.74639673  0.58274400  1
  Te2-  Te186  1  0.91917309  0.74743469  0.91770030  1
  Te2-  Te187  1  0.07523338  0.25272730  0.25271005  1
  Te2-  Te188  1  0.07790829  0.25818878  0.59304455  1
  Te2-  Te189  1  0.08487499  0.25313319  0.91893454  1
  Te2-  Te190  1  0.07755296  0.59448923  0.25237673  1
  Te2-  Te191  1  0.07939554  0.58228159  0.58550706  1
  Te2-  Te192  1  0.08281727  0.59145381  0.91769629  1
  Te2-  Te193  1  0.08193170  0.92330163  0.26001355  1
  Te2-  Te194  1  0.08253392  0.92159491  0.58937861  1
  Te2-  Te195  1  0.08042768  0.92006967  0.91943899  1
  Te2-  Te196  1  0.41414609  0.25363927  0.24912391  1
  Te2-  Te197  1  0.41883758  0.25388539  0.58824063  1
  Te2-  Te198  1  0.41866185  0.25168540  0.92227619  1
  Te2-  Te199  1  0.41429581  0.58249111  0.25948555  1
  Te2-  Te200  1  0.41175299  0.58539359  0.58533426  1
  Te2-  Te201  1  0.41662974  0.58527127  0.92279841  1
  Te2-  Te202  1  0.41603796  0.92102284  0.24843835  1
  Te2-  Te203  1  0.41217423  0.91969241  0.58367506  1
  Te2-  Te204  1  0.40971500  0.91534414  0.91839869  1
  Te2-  Te205  1  0.74525952  0.25072317  0.25025197  1
  Te2-  Te206  1  0.74353348  0.25016519  0.58758582  1
  Te2-  Te207  1  0.74898702  0.24970440  0.91771416  1
  Te2-  Te208  1  0.74552456  0.58584910  0.24595295  1
  Te2-  Te209  1  0.74205411  0.58798872  0.58392150  1
  Te2-  Te210  1  0.75202750  0.58220763  0.92245292  1
  Te2-  Te211  1  0.74632983  0.91870784  0.24892524  1
  Te2-  Te212  1  0.74549224  0.92278348  0.58735286  1
  Te2-  Te213  1  0.74873295  0.91683395  0.91518253  1
  Te2-  Te214  1  0.07904900  0.08292026  0.07774644  1
  Te2-  Te215  1  0.07780947  0.08370211  0.41932531  1
  Te2-  Te216  1  0.08709824  0.08018478  0.74874533  1
  Te2-  Te217  1  0.08248599  0.41612252  0.07692265  1
  Te2-  Te218  1  0.07493189  0.40578056  0.41378955  1
  Te2-  Te219  1  0.07933262  0.41796104  0.74808561  1
  Te2-  Te220  1  0.07710050  0.75126196  0.08530627  1
  Te2-  Te221  1  0.07790389  0.75009390  0.41544604  1
  Te2-  Te222  1  0.07881562  0.74763954  0.74753641  1
  Te2-  Te223  1  0.40872589  0.07911093  0.08265071  1
  Te2-  Te224  1  0.41443412  0.08200065  0.41583098  1
  Te2-  Te225  1  0.41566502  0.08073819  0.74673840  1
  Te2-  Te226  1  0.41224881  0.41799539  0.08369215  1
  Te2-  Te227  1  0.41437705  0.41366312  0.41588080  1
  Te2-  Te228  1  0.41705102  0.41341082  0.75126076  1
  Te2-  Te229  1  0.41579389  0.74401454  0.07764047  1
  Te2-  Te230  1  0.41246382  0.74472437  0.41635893  1
  Te2-  Te231  1  0.41296333  0.74712371  0.74061936  1
  Te2-  Te232  1  0.75156010  0.07770190  0.07859983  1
  Te2-  Te233  1  0.74952654  0.07895758  0.41582528  1
  Te2-  Te234  1  0.75066939  0.08215862  0.74480143  1
  Te2-  Te235  1  0.74799642  0.41311235  0.07313491  1
  Te2-  Te236  1  0.74745657  0.41040095  0.40956491  1
  Te2-  Te237  1  0.74560664  0.40732497  0.74997825  1
  Te2-  Te238  1  0.74973366  0.74605242  0.08032764  1
  Te2-  Te239  1  0.74560634  0.75453221  0.40992995  1
  Te2-  Te240  1  0.74492051  0.74540282  0.74491689  1
