# generated using pymatgen
data_Ti27(Cu53Te54)2
_symmetry_space_group_name_H-M   'P 1'
_cell_length_a   17.86227115
_cell_length_b   17.86125056
_cell_length_c   17.86106252
_cell_angle_alpha   89.97730249
_cell_angle_beta   90.03546296
_cell_angle_gamma   90.00227772
_symmetry_Int_Tables_number   1
_chemical_formula_structural   Ti27(Cu53Te54)2
_chemical_formula_sum   'Ti27 Cu106 Te108'
_cell_volume   5698.43650778
_cell_formula_units_Z   1
loop_
 _symmetry_equiv_pos_site_id
 _symmetry_equiv_pos_as_xyz
  1  'x, y, z'
loop_
 _atom_type_symbol
 _atom_type_oxidation_number
  Ti4+  4.0
  Cu+  1.0
  Te2-  -2.0
loop_
 _atom_site_type_symbol
 _atom_site_label
 _atom_site_symmetry_multiplicity
 _atom_site_fract_x
 _atom_site_fract_y
 _atom_site_fract_z
 _atom_site_occupancy
  Ti4+  Ti0  1  0.16795096  0.16577471  0.16562247  1
  Ti4+  Ti1  1  0.16705503  0.16807178  0.49899839  1
  Ti4+  Ti2  1  0.16429850  0.16484655  0.83242704  1
  Ti4+  Ti3  1  0.16861226  0.50269685  0.16430769  1
  Ti4+  Ti4  1  0.16554533  0.50013822  0.49872228  1
  Ti4+  Ti5  1  0.16650558  0.49784156  0.83194414  1
  Ti4+  Ti6  1  0.16696895  0.83167771  0.16580786  1
  Ti4+  Ti7  1  0.16500940  0.83304124  0.49929305  1
  Ti4+  Ti8  1  0.16937568  0.83220292  0.83067054  1
  Ti4+  Ti9  1  0.50080109  0.16525098  0.16705577  1
  Ti4+  Ti10  1  0.49846646  0.16718021  0.50022528  1
  Ti4+  Ti11  1  0.49942198  0.16533187  0.83436095  1
  Ti4+  Ti12  1  0.49862443  0.50118298  0.16964231  1
  Ti4+  Ti13  1  0.50217915  0.49822879  0.50319774  1
  Ti4+  Ti14  1  0.49857366  0.50052236  0.83096632  1
  Ti4+  Ti15  1  0.50020343  0.83559760  0.16881340  1
  Ti4+  Ti16  1  0.50054459  0.83620402  0.50158859  1
  Ti4+  Ti17  1  0.50031785  0.83383760  0.83632051  1
  Ti4+  Ti18  1  0.83415295  0.16864133  0.16271133  1
  Ti4+  Ti19  1  0.83449955  0.16744753  0.49868759  1
  Ti4+  Ti20  1  0.83079268  0.16632818  0.83708435  1
  Ti4+  Ti21  1  0.83279674  0.50106465  0.16699639  1
  Ti4+  Ti22  1  0.83494444  0.50263153  0.49936207  1
  Ti4+  Ti23  1  0.83075053  0.49827174  0.83464615  1
  Ti4+  Ti24  1  0.83230960  0.83425794  0.16488036  1
  Ti4+  Ti25  1  0.83359967  0.83309033  0.50063824  1
  Ti4+  Ti26  1  0.83374144  0.83024011  0.83360724  1
  Cu+  Cu27  1  0.16947358  0.16934837  -0.00138604  1
  Cu+  Cu28  1  0.16776975  0.16783254  0.33343981  1
  Cu+  Cu29  1  0.15971238  0.16325086  0.66445555  1
  Cu+  Cu30  1  0.16880891  0.50389987  -0.00597251  1
  Cu+  Cu31  1  0.16801454  0.50434204  0.33062691  1
  Cu+  Cu32  1  0.16427394  0.49792780  0.66826052  1
  Cu+  Cu33  1  0.17079179  0.82722393  0.00072089  1
  Cu+  Cu34  1  0.16381451  0.83479752  0.33271594  1
  Cu+  Cu35  1  0.16768076  0.83324174  0.66173069  1
  Cu+  Cu36  1  0.50462208  0.16363216  -0.00046149  1
  Cu+  Cu37  1  0.50042357  0.16075013  0.33497960  1
  Cu+  Cu38  1  0.49829165  0.16751637  0.66666702  1
  Cu+  Cu39  1  0.49648804  0.50137712  0.00253602  1
  Cu+  Cu40  1  0.50198259  0.50130022  0.33716547  1
  Cu+  Cu41  1  0.50048685  0.49259457  0.66737033  1
  Cu+  Cu42  1  0.49766890  0.84038070  0.00505476  1
  Cu+  Cu43  1  0.49960179  0.83505787  0.33564406  1
  Cu+  Cu44  1  0.50022429  0.83481972  0.66956477  1
  Cu+  Cu45  1  0.83409700  0.17431319  0.00205812  1
  Cu+  Cu46  1  0.83223129  0.17037015  0.32921368  1
  Cu+  Cu47  1  0.83297021  0.16465911  0.66847263  1
  Cu+  Cu48  1  0.83428136  0.49837607  0.00187419  1
  Cu+  Cu49  1  0.83823755  0.50030983  0.33536723  1
  Cu+  Cu50  1  0.82865256  0.49903538  0.66590723  1
  Cu+  Cu51  1  0.83315818  0.82687400  -0.00315976  1
  Cu+  Cu52  1  0.82958534  0.83354194  0.33314090  1
  Cu+  Cu53  1  0.83311362  0.83515139  0.66651402  1
  Cu+  Cu54  1  0.16496163  -0.00146887  0.16758155  1
  Cu+  Cu55  1  0.16668155  0.00115510  0.50266315  1
  Cu+  Cu56  1  0.16520182  -0.00159503  0.83300115  1
  Cu+  Cu57  1  0.16525205  0.33319751  0.16416485  1
  Cu+  Cu58  1  0.16666842  0.33316338  0.49617919  1
  Cu+  Cu59  1  0.16780553  0.33044251  0.83388662  1
  Cu+  Cu60  1  0.17449278  0.66649329  0.16698544  1
  Cu+  Cu61  1  0.16183239  0.66709103  0.50074129  1
  Cu+  Cu62  1  0.16929367  0.66467730  0.83292212  1
  Cu+  Cu63  1  0.49719006  0.00239814  0.16581458  1
  Cu+  Cu64  1  0.50438224  0.00395245  0.49725475  1
  Cu+  Cu65  1  0.49640881  -0.00134456  0.83378041  1
  Cu+  Cu66  1  0.49838427  0.33579294  0.16945455  1
  Cu+  Cu67  1  0.49564420  0.33343163  0.50432704  1
  Cu+  Cu68  1  0.50032847  0.33313558  0.83105763  1
  Cu+  Cu69  1  0.50099378  0.66626830  0.16984719  1
  Cu+  Cu70  1  0.50025115  0.66601491  0.50156123  1
  Cu+  Cu71  1  0.50490503  0.67006371  0.83220230  1
  Cu+  Cu72  1  0.83695649  0.00140057  0.16298221  1
  Cu+  Cu73  1  0.83287155  -0.00292828  0.49758300  1
  Cu+  Cu74  1  0.83414358  -0.00172478  0.83166438  1
  Cu+  Cu75  1  0.83210788  0.33568698  0.15983438  1
  Cu+  Cu76  1  0.83619123  0.33405759  0.49887973  1
  Cu+  Cu77  1  0.83289729  0.33046377  0.84064042  1
  Cu+  Cu78  1  0.83125625  0.66950157  0.16736910  1
  Cu+  Cu79  1  0.83508103  0.66652449  0.49863666  1
  Cu+  Cu80  1  0.82866098  0.66434954  0.83807756  1
  Cu+  Cu81  1  0.00336617  0.16328860  0.16473977  1
  Cu+  Cu82  1  0.00241778  0.16677228  0.50189714  1
  Cu+  Cu83  1  -0.00565931  0.16394201  0.83266293  1
  Cu+  Cu84  1  0.00147882  0.49908082  0.16370774  1
  Cu+  Cu85  1  -0.00165142  0.49952937  0.49463427  1
  Cu+  Cu86  1  0.00057588  0.49859282  0.82978767  1
  Cu+  Cu87  1  -0.00077991  0.83188306  0.16147822  1
  Cu+  Cu88  1  -0.00043988  0.82830110  0.50017361  1
  Cu+  Cu89  1  0.00349920  0.83267476  0.83305082  1
  Cu+  Cu90  1  0.33445149  0.16363225  0.17080910  1
  Cu+  Cu91  1  0.33167320  0.17036814  0.49801676  1
  Cu+  Cu92  1  0.33093070  0.16815069  0.83526970  1
  Cu+  Cu93  1  0.33367562  0.50450377  0.17177519  1
  Cu+  Cu94  1  0.33434357  0.49899291  0.50262039  1
  Cu+  Cu95  1  0.33215279  0.50244081  0.83423929  1
  Cu+  Cu96  1  0.33368909  0.83459341  0.16242738  1
  Cu+  Cu97  1  0.33197870  0.83747318  0.50181418  1
  Cu+  Cu98  1  0.33715397  0.83845353  0.82976039  1
  Cu+  Cu99  1  0.66582138  0.16756455  0.15961019  1
  Cu+  Cu100  1  0.66485109  0.16674769  0.49702846  1
  Cu+  Cu101  1  0.66658813  0.16556762  0.83594617  1
  Cu+  Cu102  1  0.66355210  0.50287986  0.17082179  1
  Cu+  Cu103  1  0.67075919  0.49926156  0.50459851  1
  Cu+  Cu104  1  0.66303487  0.49808874  0.83008365  1
  Cu+  Cu105  1  0.66922325  0.83265991  0.17437490  1
  Cu+  Cu106  1  0.66704418  0.83650690  0.50144563  1
  Cu+  Cu107  1  0.66663268  0.82581107  0.83574243  1
  Cu+  Cu108  1  0.74119237  0.73851404  0.26523907  1
  Cu+  Cu109  1  0.59448021  0.06993797  0.07018787  1
  Cu+  Cu110  1  0.93083627  0.41002729  0.07324781  1
  Cu+  Cu111  1  0.26376034  0.25834266  0.92874718  1
  Cu+  Cu112  1  0.92692359  0.73915202  0.07147281  1
  Cu+  Cu113  1  0.59483924  0.74334346  0.73704863  1
  Cu+  Cu114  1  0.41154684  0.92888845  0.73833759  1
  Cu+  Cu115  1  0.92792865  0.40413598  0.40779255  1
  Cu+  Cu116  1  0.40379626  0.07381621  0.26439294  1
  Cu+  Cu117  1  0.92897047  0.25863860  0.92539511  1
  Cu+  Cu118  1  0.40224911  0.93212854  0.07612184  1
  Cu+  Cu119  1  0.26580124  0.73949016  0.07412130  1
  Cu+  Cu120  1  0.74731988  0.40337793  0.59003482  1
  Cu+  Cu121  1  0.73337251  0.26612255  0.07494534  1
  Cu+  Cu122  1  0.26304538  0.59602740  0.91962949  1
  Cu+  Cu123  1  0.73599655  0.73465057  0.92826404  1
  Cu+  Cu124  1  0.91880121  0.07123259  0.73909058  1
  Cu+  Cu125  1  0.26008586  0.92988818  0.58893167  1
  Cu+  Cu126  1  0.07101143  0.73504229  0.59308821  1
  Cu+  Cu127  1  0.40003253  0.40644084  0.59469091  1
  Cu+  Cu128  1  0.07200951  0.07203634  0.58894415  1
  Cu+  Cu129  1  0.59281922  0.40136169  0.74299775  1
  Cu+  Cu130  1  0.93340014  0.07026128  0.07709650  1
  Cu+  Cu131  1  0.59840346  0.07375118  0.40714082  1
  Cu+  Cu132  1  0.26297752  0.59488578  0.26598730  1
  Te2-  Te133  1  0.25667090  0.25295895  0.08313775  1
  Te2-  Te134  1  0.25242364  0.25405538  0.41194902  1
  Te2-  Te135  1  0.24846629  0.24840924  0.74428308  1
  Te2-  Te136  1  0.25892902  0.58696078  0.07507272  1
  Te2-  Te137  1  0.25376019  0.58803144  0.41826910  1
  Te2-  Te138  1  0.25195329  0.58416556  0.74442788  1
  Te2-  Te139  1  0.25014675  0.92210334  0.07862978  1
  Te2-  Te140  1  0.24995000  0.92053854  0.41322262  1
  Te2-  Te141  1  0.25311354  0.92289382  0.74399574  1
  Te2-  Te142  1  0.58134780  0.25781666  0.07950003  1
  Te2-  Te143  1  0.58148848  0.25443881  0.41427091  1
  Te2-  Te144  1  0.58707513  0.24886490  0.74734681  1
  Te2-  Te145  1  0.58398176  0.58601943  0.08261153  1
  Te2-  Te146  1  0.58822962  0.58455888  0.41910866  1
  Te2-  Te147  1  0.58576635  0.58672594  0.74378530  1
  Te2-  Te148  1  0.59116909  0.91890978  0.08451521  1
  Te2-  Te149  1  0.58806478  0.91974545  0.41288034  1
  Te2-  Te150  1  0.58868818  0.91897541  0.75173852  1
  Te2-  Te151  1  0.92813757  0.25714955  0.07995752  1
  Te2-  Te152  1  0.92196170  0.25072655  0.41228276  1
  Te2-  Te153  1  0.91558450  0.25367485  0.74874112  1
  Te2-  Te154  1  0.91875114  0.58785697  0.08071214  1
  Te2-  Te155  1  0.92109034  0.59015812  0.41233998  1
  Te2-  Te156  1  0.91372150  0.58356647  0.74939893  1
  Te2-  Te157  1  0.91969886  0.91792139  0.07478964  1
  Te2-  Te158  1  0.91939294  0.91560801  0.41353597  1
  Te2-  Te159  1  0.92150849  0.91640196  0.74749014  1
  Te2-  Te160  1  0.25011249  0.07786577  0.25439565  1
  Te2-  Te161  1  0.25576368  0.08354455  0.58770736  1
  Te2-  Te162  1  0.25061946  0.07914494  0.91782409  1
  Te2-  Te163  1  0.25044576  0.41423988  0.25046899  1
  Te2-  Te164  1  0.24854651  0.41293123  0.58595041  1
  Te2-  Te165  1  0.25471438  0.41137539  0.91974480  1
  Te2-  Te166  1  0.25599722  0.75085771  0.25620634  1
  Te2-  Te167  1  0.25341766  0.74548822  0.58350963  1
  Te2-  Te168  1  0.25993970  0.74802066  0.91646997  1
  Te2-  Te169  1  0.59116483  0.07937489  0.25132431  1
  Te2-  Te170  1  0.58576578  0.08342734  0.58759153  1
  Te2-  Te171  1  0.58698116  0.07594402  0.91698412  1
  Te2-  Te172  1  0.58456758  0.41521172  0.25488365  1
  Te2-  Te173  1  0.59154914  0.40750917  0.58810844  1
  Te2-  Te174  1  0.58161841  0.41617825  0.91988465  1
  Te2-  Te175  1  0.58434970  0.74753214  0.25644636  1
  Te2-  Te176  1  0.58624134  0.74890078  0.58559268  1
  Te2-  Te177  1  0.58281137  0.74739396  0.92835115  1
  Te2-  Te178  1  0.91859316  0.08315617  0.25124841  1
  Te2-  Te179  1  0.91839271  0.07750929  0.58497394  1
  Te2-  Te180  1  0.91724190  0.07815356  0.92380228  1
  Te2-  Te181  1  0.91981874  0.41253175  0.25077018  1
  Te2-  Te182  1  0.92064649  0.41591078  0.58727247  1
  Te2-  Te183  1  0.92268607  0.41450902  0.91999023  1
  Te2-  Te184  1  0.91887256  0.74999701  0.25218254  1
  Te2-  Te185  1  0.91772877  0.74516815  0.58889424  1
  Te2-  Te186  1  0.92424032  0.74317360  0.91671521  1
  Te2-  Te187  1  0.08188831  0.25065232  0.24999302  1
  Te2-  Te188  1  0.08130254  0.25610566  0.58439678  1
  Te2-  Te189  1  0.07875271  0.25167905  0.91867675  1
  Te2-  Te190  1  0.08079784  0.58765534  0.24811270  1
  Te2-  Te191  1  0.07727607  0.58177507  0.58637587  1
  Te2-  Te192  1  0.07866549  0.58577358  0.91536536  1
  Te2-  Te193  1  0.07847983  0.91653499  0.24901719  1
  Te2-  Te194  1  0.07587645  0.91914960  0.58645339  1
  Te2-  Te195  1  0.08558303  0.91398842  0.91979362  1
  Te2-  Te196  1  0.41658876  0.25051733  0.25411138  1
  Te2-  Te197  1  0.41013455  0.25167237  0.58885466  1
  Te2-  Te198  1  0.41717612  0.25317969  0.92101965  1
  Te2-  Te199  1  0.41569805  0.58950611  0.25898444  1
  Te2-  Te200  1  0.41654189  0.58447107  0.58856801  1
  Te2-  Te201  1  0.41674615  0.58938534  0.91830640  1
  Te2-  Te202  1  0.41160164  0.91941510  0.25502170  1
  Te2-  Te203  1  0.41575519  0.92602634  0.58668458  1
  Te2-  Te204  1  0.41124297  0.92211046  0.92241981  1
  Te2-  Te205  1  0.74663691  0.25413226  0.24725173  1
  Te2-  Te206  1  0.74777811  0.24973113  0.58539564  1
  Te2-  Te207  1  0.74039501  0.25473819  0.92200119  1
  Te2-  Te208  1  0.74813805  0.58525504  0.25595383  1
  Te2-  Te209  1  0.74884630  0.58991066  0.58596208  1
  Te2-  Te210  1  0.74259570  0.58053637  0.92185379  1
  Te2-  Te211  1  0.75096026  0.92479559  0.25097371  1
  Te2-  Te212  1  0.74847891  0.91996583  0.58604103  1
  Te2-  Te213  1  0.74855356  0.91707314  0.91726567  1
  Te2-  Te214  1  0.08490106  0.07883744  0.07647030  1
  Te2-  Te215  1  0.08188085  0.08077517  0.41339647  1
  Te2-  Te216  1  0.07556161  0.07562071  0.74713477  1
  Te2-  Te217  1  0.08460267  0.41554270  0.07551884  1
  Te2-  Te218  1  0.08272931  0.41469386  0.40910414  1
  Te2-  Te219  1  0.08075568  0.41037250  0.74785280  1
  Te2-  Te220  1  0.08207524  0.74263267  0.07978824  1
  Te2-  Te221  1  0.08021167  0.74698378  0.41109064  1
  Te2-  Te222  1  0.08307633  0.74564700  0.74680432  1
  Te2-  Te223  1  0.41094013  0.08318647  0.07661142  1
  Te2-  Te224  1  0.40880530  0.07877296  0.41649350  1
  Te2-  Te225  1  0.41133709  0.08289524  0.74763264  1
  Te2-  Te226  1  0.41167386  0.41642338  0.08473827  1
  Te2-  Te227  1  0.41517374  0.41528451  0.41503415  1
  Te2-  Te228  1  0.40806226  0.41203240  0.74915888  1
  Te2-  Te229  1  0.41798047  0.74520332  0.08133767  1
  Te2-  Te230  1  0.41461653  0.75060434  0.41852953  1
  Te2-  Te231  1  0.41443951  0.74716540  0.74843968  1
  Te2-  Te232  1  0.74846374  0.07926837  0.07591226  1
  Te2-  Te233  1  0.75059504  0.08171212  0.41137875  1
  Te2-  Te234  1  0.74582182  0.08024372  0.74934197  1
  Te2-  Te235  1  0.74111441  0.41916333  0.08068219  1
  Te2-  Te236  1  0.74815862  0.41520071  0.41299432  1
  Te2-  Te237  1  0.74711402  0.40764847  0.74858780  1
  Te2-  Te238  1  0.74228661  0.74650295  0.08050365  1
  Te2-  Te239  1  0.74483765  0.74655560  0.41674969  1
  Te2-  Te240  1  0.74892273  0.74432664  0.74430534  1
