# generated using pymatgen
data_Ti27(Cu53Te54)2
_symmetry_space_group_name_H-M   'P 1'
_cell_length_a   17.88521619
_cell_length_b   17.88773316
_cell_length_c   17.88936664
_cell_angle_alpha   90.00947374
_cell_angle_beta   89.99270578
_cell_angle_gamma   89.98618886
_symmetry_Int_Tables_number   1
_chemical_formula_structural   Ti27(Cu53Te54)2
_chemical_formula_sum   'Ti27 Cu106 Te108'
_cell_volume   5723.27277055
_cell_formula_units_Z   1
loop_
 _symmetry_equiv_pos_site_id
 _symmetry_equiv_pos_as_xyz
  1  'x, y, z'
loop_
 _atom_type_symbol
 _atom_type_oxidation_number
  Ti4+  4.0
  Cu+  1.0
  Te2-  -2.0
loop_
 _atom_site_type_symbol
 _atom_site_label
 _atom_site_symmetry_multiplicity
 _atom_site_fract_x
 _atom_site_fract_y
 _atom_site_fract_z
 _atom_site_occupancy
  Ti4+  Ti0  1  0.16870060  0.16700947  0.16609421  1
  Ti4+  Ti1  1  0.16320778  0.16757762  0.49781207  1
  Ti4+  Ti2  1  0.16591314  0.16606771  0.83501570  1
  Ti4+  Ti3  1  0.16908517  0.49937884  0.16525627  1
  Ti4+  Ti4  1  0.16476725  0.50042257  0.50017758  1
  Ti4+  Ti5  1  0.16500769  0.49732463  0.83489318  1
  Ti4+  Ti6  1  0.16911664  0.83187874  0.16885592  1
  Ti4+  Ti7  1  0.16744040  0.84017147  0.50233359  1
  Ti4+  Ti8  1  0.16437922  0.83236039  0.83412716  1
  Ti4+  Ti9  1  0.50054026  0.16589399  0.16732848  1
  Ti4+  Ti10  1  0.50000575  0.16445336  0.50218811  1
  Ti4+  Ti11  1  0.49797096  0.16623363  0.83277167  1
  Ti4+  Ti12  1  0.50298242  0.50041729  0.16682196  1
  Ti4+  Ti13  1  0.49786816  0.49930213  0.49968370  1
  Ti4+  Ti14  1  0.49946591  0.50181116  0.83421799  1
  Ti4+  Ti15  1  0.50177732  0.83049305  0.16929597  1
  Ti4+  Ti16  1  0.49636204  0.83326991  0.50034805  1
  Ti4+  Ti17  1  0.50150994  0.83332976  0.83190727  1
  Ti4+  Ti18  1  0.83234232  0.16718358  0.16557865  1
  Ti4+  Ti19  1  0.83321022  0.16437118  0.50204833  1
  Ti4+  Ti20  1  0.83239178  0.16998841  0.83386213  1
  Ti4+  Ti21  1  0.83419312  0.50098070  0.16629038  1
  Ti4+  Ti22  1  0.82998836  0.49693565  0.49511507  1
  Ti4+  Ti23  1  0.83678994  0.50030707  0.83263580  1
  Ti4+  Ti24  1  0.83445576  0.83566123  0.16412009  1
  Ti4+  Ti25  1  0.83676231  0.83434856  0.49924481  1
  Ti4+  Ti26  1  0.83458117  0.83474441  0.83502525  1
  Cu+  Cu27  1  0.17018081  0.16379073  0.00182171  1
  Cu+  Cu28  1  0.16774586  0.16950926  0.33014516  1
  Cu+  Cu29  1  0.16251155  0.16968359  0.66782293  1
  Cu+  Cu30  1  0.16889673  0.49600555  -0.00342641  1
  Cu+  Cu31  1  0.16761221  0.49939017  0.33263172  1
  Cu+  Cu32  1  0.16335777  0.49991012  0.66861307  1
  Cu+  Cu33  1  0.16633215  0.83247313  0.00302307  1
  Cu+  Cu34  1  0.17714604  0.84143154  0.33509762  1
  Cu+  Cu35  1  0.16378242  0.83103161  0.66616550  1
  Cu+  Cu36  1  0.49867045  0.16629895  -0.00016406  1
  Cu+  Cu37  1  0.50125610  0.16481257  0.33572210  1
  Cu+  Cu38  1  0.49996554  0.16534854  0.66732551  1
  Cu+  Cu39  1  0.50068018  0.50564142  0.00166656  1
  Cu+  Cu40  1  0.49745328  0.49579783  0.33301482  1
  Cu+  Cu41  1  0.49879034  0.49993616  0.66713164  1
  Cu+  Cu42  1  0.50479576  0.82961571  0.00051827  1
  Cu+  Cu43  1  0.49831431  0.82514893  0.33631983  1
  Cu+  Cu44  1  0.49722416  0.84047314  0.66692694  1
  Cu+  Cu45  1  0.83141091  0.17091588  0.00092207  1
  Cu+  Cu46  1  0.83293015  0.16547455  0.33438122  1
  Cu+  Cu47  1  0.83135186  0.16793187  0.67020595  1
  Cu+  Cu48  1  0.83745191  0.50350318  -0.00036769  1
  Cu+  Cu49  1  0.82940528  0.49504742  0.33080341  1
  Cu+  Cu50  1  0.83122270  0.49816333  0.66086342  1
  Cu+  Cu51  1  0.83652419  0.84044945  -0.00277111  1
  Cu+  Cu52  1  0.83194797  0.83184775  0.32724213  1
  Cu+  Cu53  1  0.83639951  0.83471173  0.66714328  1
  Cu+  Cu54  1  0.17050727  -0.00073910  0.16865126  1
  Cu+  Cu55  1  0.15534981  0.00495225  0.50003033  1
  Cu+  Cu56  1  0.16666730  -0.00000205  0.83497489  1
  Cu+  Cu57  1  0.17027947  0.33112062  0.16416089  1
  Cu+  Cu58  1  0.16598802  0.33530088  0.49971884  1
  Cu+  Cu59  1  0.15851630  0.32985838  0.83271582  1
  Cu+  Cu60  1  0.16839851  0.66351015  0.16684570  1
  Cu+  Cu61  1  0.16673124  0.66918316  0.50118529  1
  Cu+  Cu62  1  0.16655237  0.66496676  0.83472654  1
  Cu+  Cu63  1  0.50167458  0.00019192  0.16820028  1
  Cu+  Cu64  1  0.49971212  -0.00161465  0.50384370  1
  Cu+  Cu65  1  0.49767828  -0.00127399  0.82982123  1
  Cu+  Cu66  1  0.50027066  0.33246443  0.17013552  1
  Cu+  Cu67  1  0.49881026  0.33032484  0.49975425  1
  Cu+  Cu68  1  0.49867853  0.33471394  0.83501281  1
  Cu+  Cu69  1  0.50194253  0.66744016  0.16294737  1
  Cu+  Cu70  1  0.49929453  0.66524065  0.49899875  1
  Cu+  Cu71  1  0.50095431  0.66774292  0.83177919  1
  Cu+  Cu72  1  0.82965046  0.00232208  0.16460687  1
  Cu+  Cu73  1  0.84198075  0.00007139  0.49932119  1
  Cu+  Cu74  1  0.83308315  0.00474884  0.83617208  1
  Cu+  Cu75  1  0.83152263  0.33391732  0.16718421  1
  Cu+  Cu76  1  0.83061267  0.32936819  0.49843807  1
  Cu+  Cu77  1  0.83354005  0.33491996  0.83375444  1
  Cu+  Cu78  1  0.83338193  0.67092361  0.16573762  1
  Cu+  Cu79  1  0.83383560  0.65835100  0.49813359  1
  Cu+  Cu80  1  0.83885757  0.66716502  0.83470021  1
  Cu+  Cu81  1  0.00025043  0.16713252  0.16697862  1
  Cu+  Cu82  1  -0.00180182  0.15827562  0.50067370  1
  Cu+  Cu83  1  0.00026863  0.17206271  0.83064568  1
  Cu+  Cu84  1  0.00111806  0.49959911  0.16502997  1
  Cu+  Cu85  1  -0.00435766  0.49872013  0.49490343  1
  Cu+  Cu86  1  0.00261501  0.50127467  0.83817941  1
  Cu+  Cu87  1  0.00356025  0.83644514  0.16054617  1
  Cu+  Cu88  1  0.00311059  0.84316146  0.50366519  1
  Cu+  Cu89  1  -0.00619419  0.83346472  0.83432184  1
  Cu+  Cu90  1  0.33626309  0.16635577  0.16467491  1
  Cu+  Cu91  1  0.33255165  0.16665787  0.49962211  1
  Cu+  Cu92  1  0.33172741  0.16593295  0.83372207  1
  Cu+  Cu93  1  0.33772334  0.49856463  0.16491355  1
  Cu+  Cu94  1  0.33235462  0.50059689  0.50162060  1
  Cu+  Cu95  1  0.33118913  0.49970720  0.83817047  1
  Cu+  Cu96  1  0.33441052  0.83299166  0.17707998  1
  Cu+  Cu97  1  0.32721337  0.83406932  0.49583446  1
  Cu+  Cu98  1  0.33606727  0.83443407  0.83193450  1
  Cu+  Cu99  1  0.66406446  0.16753524  0.16569544  1
  Cu+  Cu100  1  0.66780667  0.16267236  0.50133147  1
  Cu+  Cu101  1  0.66441783  0.16826110  0.83515114  1
  Cu+  Cu102  1  0.67114004  0.49897519  0.16901559  1
  Cu+  Cu103  1  0.66368994  0.49685901  0.49725293  1
  Cu+  Cu104  1  0.66664817  0.49950626  0.83218259  1
  Cu+  Cu105  1  0.66921832  0.82758132  0.16517983  1
  Cu+  Cu106  1  0.66334366  0.83395386  0.49951497  1
  Cu+  Cu107  1  0.67067582  0.83220665  0.83189932  1
  Cu+  Cu108  1  0.07369570  0.08005530  0.60073189  1
  Cu+  Cu109  1  0.92380058  0.07657887  0.39978666  1
  Cu+  Cu110  1  0.40525009  0.40209271  0.25885677  1
  Cu+  Cu111  1  0.06997404  0.26087624  0.73448586  1
  Cu+  Cu112  1  0.07529545  0.92476981  0.40274003  1
  Cu+  Cu113  1  0.07926401  0.59285008  0.74351633  1
  Cu+  Cu114  1  0.59375451  0.92593028  0.59345798  1
  Cu+  Cu115  1  0.59905219  0.74006748  0.06791958  1
  Cu+  Cu116  1  0.26698582  0.93486024  0.26024792  1
  Cu+  Cu117  1  0.74421947  0.74024175  0.25847012  1
  Cu+  Cu118  1  0.08319888  0.92962204  0.07361829  1
  Cu+  Cu119  1  0.92618237  0.59501604  0.93194123  1
  Cu+  Cu120  1  0.25082556  0.73800567  0.40988130  1
  Cu+  Cu121  1  0.59495426  0.73631392  0.41581007  1
  Cu+  Cu122  1  0.74151991  0.40103673  0.25857986  1
  Cu+  Cu123  1  0.91850568  0.73967720  0.73816760  1
  Cu+  Cu124  1  0.92230720  0.58155458  0.58682100  1
  Cu+  Cu125  1  0.07652702  0.74196417  0.58416803  1
  Cu+  Cu126  1  0.40720998  0.73631008  0.25962991  1
  Cu+  Cu127  1  0.07340133  0.40015364  0.93124749  1
  Cu+  Cu128  1  0.40128223  0.92962729  0.74044306  1
  Cu+  Cu129  1  0.25954726  0.59483617  0.92271969  1
  Cu+  Cu130  1  0.40798095  0.59482288  0.07547250  1
  Cu+  Cu131  1  0.92328650  0.93698842  0.92721406  1
  Cu+  Cu132  1  0.92499414  0.92827492  0.59782223  1
  Te2-  Te133  1  0.25524577  0.25066993  0.07993266  1
  Te2-  Te134  1  0.25064669  0.25258267  0.41524908  1
  Te2-  Te135  1  0.25011486  0.25240243  0.74879216  1
  Te2-  Te136  1  0.25468013  0.58652539  0.07796426  1
  Te2-  Te137  1  0.25169253  0.58502155  0.41439178  1
  Te2-  Te138  1  0.25193479  0.58407261  0.74811121  1
  Te2-  Te139  1  0.25706404  0.91578180  0.08307729  1
  Te2-  Te140  1  0.25451941  0.93255995  0.41856298  1
  Te2-  Te141  1  0.24839493  0.91817273  0.74772326  1
  Te2-  Te142  1  0.58324937  0.25299799  0.08103441  1
  Te2-  Te143  1  0.58649022  0.24894555  0.41713226  1
  Te2-  Te144  1  0.58325194  0.25287037  0.74886515  1
  Te2-  Te145  1  0.59295311  0.58591403  0.08108179  1
  Te2-  Te146  1  0.58504897  0.58354283  0.41134562  1
  Te2-  Te147  1  0.58539653  0.58496989  0.74740276  1
  Te2-  Te148  1  0.58621214  0.91675914  0.08439483  1
  Te2-  Te149  1  0.58163972  0.91817651  0.41260684  1
  Te2-  Te150  1  0.59093590  0.92002767  0.74786614  1
  Te2-  Te151  1  0.91840587  0.25371780  0.08280484  1
  Te2-  Te152  1  0.91966337  0.24955451  0.41647265  1
  Te2-  Te153  1  0.91760714  0.25668515  0.74538957  1
  Te2-  Te154  1  0.92208006  0.58945271  0.08355951  1
  Te2-  Te155  1  0.91660534  0.58254707  0.40708719  1
  Te2-  Te156  1  0.92372497  0.58636185  0.74082755  1
  Te2-  Te157  1  0.92146914  0.92646116  0.08001135  1
  Te2-  Te158  1  0.92019545  0.91798956  0.40616359  1
  Te2-  Te159  1  0.91984324  0.92521989  0.74930067  1
  Te2-  Te160  1  0.25648670  0.08361369  0.25369709  1
  Te2-  Te161  1  0.24730089  0.08344064  0.58480033  1
  Te2-  Te162  1  0.25268236  0.07930924  0.91889977  1
  Te2-  Te163  1  0.25340351  0.41326733  0.25179710  1
  Te2-  Te164  1  0.24905062  0.41646934  0.58644757  1
  Te2-  Te165  1  0.25108835  0.40678589  0.91630002  1
  Te2-  Te166  1  0.25286205  0.74027404  0.25680645  1
  Te2-  Te167  1  0.25294108  0.74964002  0.58790532  1
  Te2-  Te168  1  0.25308999  0.75037812  0.91901840  1
  Te2-  Te169  1  0.58661604  0.08101342  0.25319608  1
  Te2-  Te170  1  0.58773255  0.07901828  0.58910554  1
  Te2-  Te171  1  0.58279025  0.08023680  0.91747515  1
  Te2-  Te172  1  0.58821475  0.41309300  0.25385611  1
  Te2-  Te173  1  0.58236027  0.41383372  0.58468998  1
  Te2-  Te174  1  0.58446294  0.41738468  0.91986962  1
  Te2-  Te175  1  0.58976598  0.74163928  0.25675599  1
  Te2-  Te176  1  0.58201514  0.74862128  0.58739720  1
  Te2-  Te177  1  0.58981102  0.74533013  0.91588419  1
  Te2-  Te178  1  0.91900960  0.07924635  0.24927610  1
  Te2-  Te179  1  0.91953717  0.07977401  0.59598015  1
  Te2-  Te180  1  0.92110296  0.08774364  0.92104954  1
  Te2-  Te181  1  0.92037253  0.41445178  0.25044609  1
  Te2-  Te182  1  0.91701366  0.41147435  0.58133274  1
  Te2-  Te183  1  0.91969169  0.41208754  0.92085220  1
  Te2-  Te184  1  0.92352009  0.75093353  0.24783659  1
  Te2-  Te185  1  0.92283745  0.74256839  0.58408647  1
  Te2-  Te186  1  0.92161659  0.74748393  0.92488724  1
  Te2-  Te187  1  0.08236704  0.25343857  0.24952434  1
  Te2-  Te188  1  0.07588569  0.25488206  0.58174397  1
  Te2-  Te189  1  0.07924336  0.24841552  0.92619758  1
  Te2-  Te190  1  0.08279598  0.58301577  0.25088758  1
  Te2-  Te191  1  0.07622260  0.58827566  0.58639850  1
  Te2-  Te192  1  0.08071404  0.58930242  0.92510160  1
  Te2-  Te193  1  0.08081393  0.91913739  0.25249174  1
  Te2-  Te194  1  0.07894824  0.92604203  0.59651919  1
  Te2-  Te195  1  0.07943461  0.92025122  0.91986047  1
  Te2-  Te196  1  0.41367534  0.25000055  0.25571104  1
  Te2-  Te197  1  0.41366832  0.25028696  0.58632964  1
  Te2-  Te198  1  0.41318919  0.25163827  0.91844305  1
  Te2-  Te199  1  0.41504897  0.58619865  0.25349730  1
  Te2-  Te200  1  0.41439189  0.58552752  0.58567360  1
  Te2-  Te201  1  0.41297067  0.59185486  0.92054864  1
  Te2-  Te202  1  0.41942476  0.92078700  0.25749165  1
  Te2-  Te203  1  0.40645169  0.91984030  0.58380582  1
  Te2-  Te204  1  0.41779584  0.91640765  0.92138385  1
  Te2-  Te205  1  0.74557194  0.24972474  0.25411150  1
  Te2-  Te206  1  0.74696055  0.24992881  0.58622841  1
  Te2-  Te207  1  0.74655910  0.25513612  0.91845305  1
  Te2-  Te208  1  0.74847615  0.58871807  0.25322951  1
  Te2-  Te209  1  0.74339624  0.58306536  0.58241525  1
  Te2-  Te210  1  0.74969752  0.58526984  0.91572004  1
  Te2-  Te211  1  0.74590155  0.91956577  0.24916465  1
  Te2-  Te212  1  0.74963709  0.91874786  0.58407113  1
  Te2-  Te213  1  0.74620725  0.92129408  0.91788682  1
  Te2-  Te214  1  0.08165536  0.08046605  0.08145553  1
  Te2-  Te215  1  0.07767181  0.08134304  0.40359898  1
  Te2-  Te216  1  0.07798541  0.07834099  0.75137969  1
  Te2-  Te217  1  0.08198653  0.41242012  0.08203888  1
  Te2-  Te218  1  0.08117612  0.41532799  0.41336244  1
  Te2-  Te219  1  0.07555987  0.41365369  0.74528117  1
  Te2-  Te220  1  0.08376728  0.74445992  0.08274894  1
  Te2-  Te221  1  0.08239577  0.75507325  0.41312173  1
  Te2-  Te222  1  0.07613541  0.74593363  0.74662660  1
  Te2-  Te223  1  0.41637192  0.07895629  0.08169841  1
  Te2-  Te224  1  0.41470374  0.07960149  0.41650134  1
  Te2-  Te225  1  0.41028494  0.08116155  0.74511623  1
  Te2-  Te226  1  0.41931483  0.41331179  0.07980854  1
  Te2-  Te227  1  0.41079274  0.41142439  0.41549479  1
  Te2-  Te228  1  0.41286920  0.41685380  0.75049869  1
  Te2-  Te229  1  0.41042122  0.75040636  0.08086562  1
  Te2-  Te230  1  0.40705890  0.74252408  0.41517687  1
  Te2-  Te231  1  0.41586436  0.74778913  0.74581196  1
  Te2-  Te232  1  0.74584814  0.08386038  0.07951330  1
  Te2-  Te233  1  0.74905184  0.07714325  0.41634195  1
  Te2-  Te234  1  0.74675586  0.08313922  0.75082606  1
  Te2-  Te235  1  0.74997100  0.41684617  0.07782605  1
  Te2-  Te236  1  0.74315027  0.40837990  0.41255272  1
  Te2-  Te237  1  0.75011264  0.41638211  0.74776134  1
  Te2-  Te238  1  0.75239585  0.74872879  0.07321035  1
  Te2-  Te239  1  0.74970296  0.74590530  0.41578870  1
  Te2-  Te240  1  0.75173484  0.74639925  0.74693437  1
