# generated using pymatgen
data_Ti27(Cu53Te54)2
_symmetry_space_group_name_H-M   'P 1'
_cell_length_a   17.91423783
_cell_length_b   17.90705252
_cell_length_c   17.91234170
_cell_angle_alpha   89.98148688
_cell_angle_beta   89.94908781
_cell_angle_gamma   90.01841108
_symmetry_Int_Tables_number   1
_chemical_formula_structural   Ti27(Cu53Te54)2
_chemical_formula_sum   'Ti27 Cu106 Te108'
_cell_volume   5746.11868140
_cell_formula_units_Z   1
loop_
 _symmetry_equiv_pos_site_id
 _symmetry_equiv_pos_as_xyz
  1  'x, y, z'
loop_
 _atom_type_symbol
 _atom_type_oxidation_number
  Ti4+  4.0
  Cu+  1.0
  Te2-  -2.0
loop_
 _atom_site_type_symbol
 _atom_site_label
 _atom_site_symmetry_multiplicity
 _atom_site_fract_x
 _atom_site_fract_y
 _atom_site_fract_z
 _atom_site_occupancy
  Ti4+  Ti0  1  0.16758710  0.16877966  0.16478800  1
  Ti4+  Ti1  1  0.16627184  0.16711565  0.49642964  1
  Ti4+  Ti2  1  0.16279997  0.16772281  0.83222017  1
  Ti4+  Ti3  1  0.16450716  0.49921574  0.16637120  1
  Ti4+  Ti4  1  0.17000561  0.50144202  0.50280108  1
  Ti4+  Ti5  1  0.16951204  0.49765393  0.83393927  1
  Ti4+  Ti6  1  0.16684865  0.83199014  0.16826763  1
  Ti4+  Ti7  1  0.16713342  0.83302515  0.49929683  1
  Ti4+  Ti8  1  0.16427197  0.83675506  0.83515745  1
  Ti4+  Ti9  1  0.50250035  0.16643325  0.16509954  1
  Ti4+  Ti10  1  0.50083843  0.16509777  0.49879796  1
  Ti4+  Ti11  1  0.50090767  0.16579654  0.83113940  1
  Ti4+  Ti12  1  0.50084989  0.50303174  0.16563591  1
  Ti4+  Ti13  1  0.50003550  0.50341133  0.50113866  1
  Ti4+  Ti14  1  0.49429755  0.50032219  0.83227077  1
  Ti4+  Ti15  1  0.49640163  0.83219214  0.16525180  1
  Ti4+  Ti16  1  0.49806603  0.83547081  0.50219288  1
  Ti4+  Ti17  1  0.50295549  0.83573774  0.83310412  1
  Ti4+  Ti18  1  0.83134096  0.16822745  0.16854823  1
  Ti4+  Ti19  1  0.83396132  0.16478403  0.50046164  1
  Ti4+  Ti20  1  0.83602322  0.16719329  0.83458924  1
  Ti4+  Ti21  1  0.83006998  0.50036503  0.16641644  1
  Ti4+  Ti22  1  0.83643951  0.49883010  0.50038709  1
  Ti4+  Ti23  1  0.83253893  0.49972398  0.83096776  1
  Ti4+  Ti24  1  0.83288786  0.83036376  0.16690226  1
  Ti4+  Ti25  1  0.83339236  0.82985290  0.49986368  1
  Ti4+  Ti26  1  0.83826884  0.83131678  0.83495947  1
  Cu+  Cu27  1  0.16085374  0.17444336  0.00018339  1
  Cu+  Cu28  1  0.16748337  0.16761085  0.33122846  1
  Cu+  Cu29  1  0.16329201  0.16656746  0.65995399  1
  Cu+  Cu30  1  0.16823312  0.49194871  0.00256663  1
  Cu+  Cu31  1  0.16813573  0.50266659  0.33244941  1
  Cu+  Cu32  1  0.17533178  0.50003055  0.66793043  1
  Cu+  Cu33  1  0.16580528  0.83354188  0.00521143  1
  Cu+  Cu34  1  0.16686381  0.83101500  0.33320114  1
  Cu+  Cu35  1  0.16311650  0.83572870  0.66760297  1
  Cu+  Cu36  1  0.50245402  0.16311130  -0.00239586  1
  Cu+  Cu37  1  0.50491837  0.16613804  0.33117184  1
  Cu+  Cu38  1  0.50079143  0.16516730  0.66553658  1
  Cu+  Cu39  1  0.49371169  0.50482372  -0.00000704  1
  Cu+  Cu40  1  0.50211480  0.50235672  0.33470135  1
  Cu+  Cu41  1  0.49470253  0.49787377  0.66438207  1
  Cu+  Cu42  1  0.49912879  0.82682643  -0.00330227  1
  Cu+  Cu43  1  0.49431444  0.83521364  0.33421941  1
  Cu+  Cu44  1  0.50140854  0.84352445  0.66808760  1
  Cu+  Cu45  1  0.82815751  0.16998358  0.00446684  1
  Cu+  Cu46  1  0.83306585  0.16483488  0.33508262  1
  Cu+  Cu47  1  0.83536195  0.16622766  0.66822620  1
  Cu+  Cu48  1  0.83186033  0.50299379  -0.00311868  1
  Cu+  Cu49  1  0.82865357  0.50116117  0.33530194  1
  Cu+  Cu50  1  0.83949495  0.49620605  0.66645518  1
  Cu+  Cu51  1  0.83802580  0.83247588  0.00076947  1
  Cu+  Cu52  1  0.83360964  0.82627714  0.33387647  1
  Cu+  Cu53  1  0.83306042  0.83019320  0.66815166  1
  Cu+  Cu54  1  0.16735774  -0.00067998  0.16868694  1
  Cu+  Cu55  1  0.16485705  0.00118509  0.49725643  1
  Cu+  Cu56  1  0.15957500  0.00353460  0.83600639  1
  Cu+  Cu57  1  0.16455646  0.33331048  0.15955688  1
  Cu+  Cu58  1  0.16658646  0.33185226  0.49670836  1
  Cu+  Cu59  1  0.17254237  0.32980623  0.83472646  1
  Cu+  Cu60  1  0.16743725  0.66467003  0.17130472  1
  Cu+  Cu61  1  0.17131027  0.66643369  0.50493118  1
  Cu+  Cu62  1  0.16332362  0.66950263  0.83482053  1
  Cu+  Cu63  1  0.49989394  -0.00017093  0.16534797  1
  Cu+  Cu64  1  0.49988766  -0.00244929  0.49952033  1
  Cu+  Cu65  1  0.50108430  -0.00005814  0.82790588  1
  Cu+  Cu66  1  0.50607356  0.33268751  0.17030873  1
  Cu+  Cu67  1  0.49983840  0.33510422  0.49969354  1
  Cu+  Cu68  1  0.49959432  0.33277682  0.83248165  1
  Cu+  Cu69  1  0.49856727  0.66913166  0.15927822  1
  Cu+  Cu70  1  0.50062530  0.67168472  0.50131913  1
  Cu+  Cu71  1  0.49616764  0.66946426  0.83603873  1
  Cu+  Cu72  1  0.83198938  0.00020524  0.17007975  1
  Cu+  Cu73  1  0.83317850  -0.00200735  0.50058728  1
  Cu+  Cu74  1  0.84324456  -0.00109330  0.83580613  1
  Cu+  Cu75  1  0.82608725  0.33481811  0.16666304  1
  Cu+  Cu76  1  0.83504395  0.33145796  0.50197135  1
  Cu+  Cu77  1  0.83204032  0.33396329  0.82488595  1
  Cu+  Cu78  1  0.82871497  0.66456714  0.16465120  1
  Cu+  Cu79  1  0.83698421  0.66465253  0.49543925  1
  Cu+  Cu80  1  0.83886236  0.66383581  0.83797658  1
  Cu+  Cu81  1  -0.00075144  0.17094939  0.16552461  1
  Cu+  Cu82  1  0.00097982  0.16571640  0.49802770  1
  Cu+  Cu83  1  -0.00046069  0.15774314  0.83523542  1
  Cu+  Cu84  1  -0.00418302  0.49733712  0.16909061  1
  Cu+  Cu85  1  0.00204341  0.50383691  0.50572810  1
  Cu+  Cu86  1  0.00085894  0.49673212  0.83301051  1
  Cu+  Cu87  1  0.00245537  0.83068481  0.16912830  1
  Cu+  Cu88  1  0.00052779  0.82838231  0.49583991  1
  Cu+  Cu89  1  -0.00096717  0.83734379  0.83897380  1
  Cu+  Cu90  1  0.33768658  0.16549799  0.16512962  1
  Cu+  Cu91  1  0.33167864  0.16563884  0.49648315  1
  Cu+  Cu92  1  0.33247242  0.16674796  0.83298366  1
  Cu+  Cu93  1  0.33255301  0.50342168  0.16730972  1
  Cu+  Cu94  1  0.33551002  0.50200248  0.50672313  1
  Cu+  Cu95  1  0.33022013  0.49549492  0.82853960  1
  Cu+  Cu96  1  0.33054128  0.83369651  0.16768032  1
  Cu+  Cu97  1  0.33329716  0.83688570  0.49846469  1
  Cu+  Cu98  1  0.33209432  0.83876319  0.83402755  1
  Cu+  Cu99  1  0.66556109  0.17216461  0.16806232  1
  Cu+  Cu100  1  0.66810899  0.16390664  0.49952288  1
  Cu+  Cu101  1  0.66911199  0.16904239  0.83033689  1
  Cu+  Cu102  1  0.66799797  0.50417162  0.16310015  1
  Cu+  Cu103  1  0.66875786  0.50279267  0.49941283  1
  Cu+  Cu104  1  0.65980045  0.49952972  0.83150484  1
  Cu+  Cu105  1  0.66329074  0.82952918  0.16654138  1
  Cu+  Cu106  1  0.66426025  0.83400543  0.50454959  1
  Cu+  Cu107  1  0.67418424  0.83188125  0.83336211  1
  Cu+  Cu108  1  0.40939516  0.40243357  0.58920419  1
  Cu+  Cu109  1  0.40257778  0.92829885  0.74278984  1
  Cu+  Cu110  1  0.26429966  0.25150705  0.92647080  1
  Cu+  Cu111  1  0.73565381  0.26066628  0.07484889  1
  Cu+  Cu112  1  0.92429753  0.92885053  0.93457238  1
  Cu+  Cu113  1  0.26425668  0.59932435  0.59785918  1
  Cu+  Cu114  1  0.40154053  0.59330710  0.07407414  1
  Cu+  Cu115  1  0.93026132  0.40664884  0.73935960  1
  Cu+  Cu116  1  0.92386983  0.06931649  0.73525185  1
  Cu+  Cu117  1  0.59432920  0.26233169  0.26388557  1
  Cu+  Cu118  1  0.74378047  0.59392623  0.06586333  1
  Cu+  Cu119  1  0.25973870  0.59297655  0.26162893  1
  Cu+  Cu120  1  0.73787661  0.59248562  0.40925766  1
  Cu+  Cu121  1  0.40420972  0.92759839  0.40249304  1
  Cu+  Cu122  1  0.06785949  0.26250847  0.07361067  1
  Cu+  Cu123  1  0.93149022  0.58616526  0.92801907  1
  Cu+  Cu124  1  0.73873381  0.25829497  0.73634776  1
  Cu+  Cu125  1  0.40114657  0.74467768  0.91937206  1
  Cu+  Cu126  1  0.26504709  0.40594693  0.08365668  1
  Cu+  Cu127  1  0.25771537  0.39968966  0.73805118  1
  Cu+  Cu128  1  0.59453351  0.74604633  0.06889806  1
  Cu+  Cu129  1  0.92407346  0.59513085  0.59368715  1
  Cu+  Cu130  1  0.59758070  0.92853729  0.59443919  1
  Cu+  Cu131  1  0.93166969  0.73906551  0.40259579  1
  Cu+  Cu132  1  0.07706473  0.07466058  0.93344376  1
  Te2-  Te133  1  0.25993416  0.25341507  0.07855497  1
  Te2-  Te134  1  0.25295306  0.25292035  0.41151828  1
  Te2-  Te135  1  0.25207669  0.24778644  0.74178352  1
  Te2-  Te136  1  0.24891991  0.58739031  0.07715666  1
  Te2-  Te137  1  0.25611931  0.58618660  0.41551010  1
  Te2-  Te138  1  0.25292450  0.59172426  0.75147978  1
  Te2-  Te139  1  0.25150271  0.91950771  0.08279885  1
  Te2-  Te140  1  0.25063375  0.92058788  0.41172061  1
  Te2-  Te141  1  0.24738203  0.92422847  0.74919876  1
  Te2-  Te142  1  0.58510428  0.25487902  0.07464021  1
  Te2-  Te143  1  0.58730786  0.25362385  0.41681754  1
  Te2-  Te144  1  0.58511756  0.25374315  0.74465450  1
  Te2-  Te145  1  0.58797181  0.58852170  0.07509442  1
  Te2-  Te146  1  0.58511772  0.59052855  0.41492161  1
  Te2-  Te147  1  0.57793474  0.58569964  0.74728107  1
  Te2-  Te148  1  0.58293474  0.91598247  0.07957012  1
  Te2-  Te149  1  0.58603254  0.91694158  0.41345314  1
  Te2-  Te150  1  0.59516199  0.92107137  0.74993640  1
  Te2-  Te151  1  0.91601162  0.25695313  0.08115977  1
  Te2-  Te152  1  0.91801416  0.25071848  0.41498267  1
  Te2-  Te153  1  0.92549361  0.25148922  0.74764178  1
  Te2-  Te154  1  0.92032333  0.58588603  0.08183791  1
  Te2-  Te155  1  0.92461680  0.58287632  0.41024076  1
  Te2-  Te156  1  0.92313277  0.58658715  0.74711026  1
  Te2-  Te157  1  0.92036383  0.91888320  0.08679239  1
  Te2-  Te158  1  0.91704777  0.91587793  0.41373765  1
  Te2-  Te159  1  0.92255787  0.91614778  0.74345885  1
  Te2-  Te160  1  0.25265269  0.08397256  0.24940514  1
  Te2-  Te161  1  0.25090912  0.08080455  0.58260210  1
  Te2-  Te162  1  0.24832467  0.08401599  0.92061845  1
  Te2-  Te163  1  0.25069661  0.41258376  0.25053559  1
  Te2-  Te164  1  0.25469264  0.40680115  0.58548321  1
  Te2-  Te165  1  0.25762330  0.41040562  0.92276010  1
  Te2-  Te166  1  0.25509311  0.74643438  0.25523364  1
  Te2-  Te167  1  0.25454051  0.75266805  0.58925173  1
  Te2-  Te168  1  0.24931868  0.75033357  0.91983389  1
  Te2-  Te169  1  0.58791234  0.07893732  0.24907058  1
  Te2-  Te170  1  0.58670767  0.08007934  0.58558186  1
  Te2-  Te171  1  0.58772124  0.08104447  0.91326829  1
  Te2-  Te172  1  0.58886956  0.41976829  0.25284562  1
  Te2-  Te173  1  0.58729311  0.41767226  0.58432470  1
  Te2-  Te174  1  0.57902880  0.41742219  0.91943496  1
  Te2-  Te175  1  0.57894616  0.74770007  0.25374510  1
  Te2-  Te176  1  0.58274385  0.74993951  0.59038686  1
  Te2-  Te177  1  0.59153630  0.74563234  0.91561423  1
  Te2-  Te178  1  0.91920622  0.08381137  0.25092464  1
  Te2-  Te179  1  0.92131247  0.07858845  0.58421418  1
  Te2-  Te180  1  0.91913569  0.08248249  0.93088153  1
  Te2-  Te181  1  0.91210482  0.41442804  0.25328756  1
  Te2-  Te182  1  0.92449765  0.40899232  0.58509953  1
  Te2-  Te183  1  0.91547891  0.41258756  0.91791510  1
  Te2-  Te184  1  0.91909018  0.74223854  0.24953600  1
  Te2-  Te185  1  0.92085514  0.74642785  0.58769305  1
  Te2-  Te186  1  0.92425743  0.74395864  0.92325457  1
  Te2-  Te187  1  0.08307940  0.25447885  0.25084634  1
  Te2-  Te188  1  0.07979047  0.25351881  0.58157335  1
  Te2-  Te189  1  0.07384248  0.25721490  0.91523017  1
  Te2-  Te190  1  0.07771109  0.58329148  0.25211047  1
  Te2-  Te191  1  0.08466387  0.58681376  0.59184990  1
  Te2-  Te192  1  0.08389119  0.58201896  0.92106473  1
  Te2-  Te193  1  0.08189155  0.91769802  0.25366530  1
  Te2-  Te194  1  0.07937393  0.91734472  0.58074677  1
  Te2-  Te195  1  0.07893836  0.92105859  0.92746064  1
  Te2-  Te196  1  0.41667708  0.25141126  0.25168697  1
  Te2-  Te197  1  0.41376533  0.24915839  0.58425722  1
  Te2-  Te198  1  0.41679542  0.25134771  0.91944547  1
  Te2-  Te199  1  0.41647234  0.58874395  0.25352461  1
  Te2-  Te200  1  0.41566775  0.59327152  0.58853727  1
  Te2-  Te201  1  0.40528163  0.58725748  0.91764594  1
  Te2-  Te202  1  0.41159535  0.92163184  0.24959602  1
  Te2-  Te203  1  0.40881780  0.92381100  0.58791366  1
  Te2-  Te204  1  0.41815544  0.92172875  0.92015552  1
  Te2-  Te205  1  0.74733119  0.25433916  0.25862691  1
  Te2-  Te206  1  0.74739463  0.25114356  0.58598154  1
  Te2-  Te207  1  0.74817914  0.25555762  0.91755743  1
  Te2-  Te208  1  0.74441394  0.58773867  0.25408929  1
  Te2-  Te209  1  0.75251505  0.58458053  0.58789938  1
  Te2-  Te210  1  0.74188876  0.58602791  0.91399621  1
  Te2-  Te211  1  0.74730718  0.91288143  0.25215127  1
  Te2-  Te212  1  0.75063866  0.91787329  0.58788194  1
  Te2-  Te213  1  0.75293014  0.91889894  0.91922332  1
  Te2-  Te214  1  0.07994104  0.08030295  0.08392920  1
  Te2-  Te215  1  0.08088233  0.08182167  0.41078738  1
  Te2-  Te216  1  0.07993847  0.08009782  0.74166543  1
  Te2-  Te217  1  0.07311863  0.41514539  0.07910896  1
  Te2-  Te218  1  0.08328407  0.41988460  0.41684501  1
  Te2-  Te219  1  0.08514657  0.41206378  0.74696765  1
  Te2-  Te220  1  0.08242508  0.74438378  0.08386331  1
  Te2-  Te221  1  0.08536142  0.74178633  0.41383714  1
  Te2-  Te222  1  0.07901891  0.75214409  0.75133734  1
  Te2-  Te223  1  0.41693682  0.08064374  0.07933011  1
  Te2-  Te224  1  0.41582642  0.08145388  0.41128709  1
  Te2-  Te225  1  0.41139242  0.08214416  0.74574332  1
  Te2-  Te226  1  0.41726788  0.41188319  0.08351421  1
  Te2-  Te227  1  0.41451183  0.41864905  0.41474153  1
  Te2-  Te228  1  0.41189311  0.40809690  0.74493413  1
  Te2-  Te229  1  0.40487954  0.74705557  0.07717633  1
  Te2-  Te230  1  0.41292750  0.74783108  0.41646592  1
  Te2-  Te231  1  0.41513735  0.75288501  0.74670548  1
  Te2-  Te232  1  0.74565193  0.08087327  0.08496835  1
  Te2-  Te233  1  0.74903422  0.07894219  0.41523571  1
  Te2-  Te234  1  0.75248829  0.07784077  0.75135703  1
  Te2-  Te235  1  0.74477158  0.41551514  0.07647198  1
  Te2-  Te236  1  0.74861081  0.41229852  0.41804138  1
  Te2-  Te237  1  0.74243856  0.41693772  0.74392575  1
  Te2-  Te238  1  0.74651667  0.74689243  0.07561187  1
  Te2-  Te239  1  0.74213643  0.74671317  0.41634136  1
  Te2-  Te240  1  0.75339376  0.74347901  0.75114317  1
