# generated using pymatgen
data_Ti27(Cu53Te54)2
_symmetry_space_group_name_H-M   'P 1'
_cell_length_a   17.87449649
_cell_length_b   17.87826270
_cell_length_c   17.87154715
_cell_angle_alpha   89.98250158
_cell_angle_beta   89.96287838
_cell_angle_gamma   89.98879585
_symmetry_Int_Tables_number   1
_chemical_formula_structural   Ti27(Cu53Te54)2
_chemical_formula_sum   'Ti27 Cu106 Te108'
_cell_volume   5711.11839057
_cell_formula_units_Z   1
loop_
 _symmetry_equiv_pos_site_id
 _symmetry_equiv_pos_as_xyz
  1  'x, y, z'
loop_
 _atom_type_symbol
 _atom_type_oxidation_number
  Ti4+  4.0
  Cu+  1.0
  Te2-  -2.0
loop_
 _atom_site_type_symbol
 _atom_site_label
 _atom_site_symmetry_multiplicity
 _atom_site_fract_x
 _atom_site_fract_y
 _atom_site_fract_z
 _atom_site_occupancy
  Ti4+  Ti0  1  0.16588021  0.16437043  0.16908237  1
  Ti4+  Ti1  1  0.16784923  0.16730746  0.50011554  1
  Ti4+  Ti2  1  0.16666507  0.16945541  0.83413528  1
  Ti4+  Ti3  1  0.16394210  0.50183763  0.17172327  1
  Ti4+  Ti4  1  0.16691478  0.49806145  0.49989404  1
  Ti4+  Ti5  1  0.16747943  0.50240014  0.83423485  1
  Ti4+  Ti6  1  0.16899439  0.82852655  0.16632672  1
  Ti4+  Ti7  1  0.16391474  0.83521113  0.50075970  1
  Ti4+  Ti8  1  0.16512830  0.83559019  0.83344344  1
  Ti4+  Ti9  1  0.49705579  0.17186220  0.16787797  1
  Ti4+  Ti10  1  0.50166270  0.16389570  0.49809481  1
  Ti4+  Ti11  1  0.49972172  0.16370894  0.83015363  1
  Ti4+  Ti12  1  0.50395692  0.50108278  0.16767798  1
  Ti4+  Ti13  1  0.50049774  0.50052473  0.50125887  1
  Ti4+  Ti14  1  0.49806990  0.49845679  0.83368406  1
  Ti4+  Ti15  1  0.50159139  0.83515052  0.16468609  1
  Ti4+  Ti16  1  0.50078283  0.83336894  0.49765691  1
  Ti4+  Ti17  1  0.49986301  0.83347159  0.83092703  1
  Ti4+  Ti18  1  0.83396482  0.16726017  0.16744964  1
  Ti4+  Ti19  1  0.83194826  0.16556059  0.50180952  1
  Ti4+  Ti20  1  0.83485450  0.16610590  0.83072757  1
  Ti4+  Ti21  1  0.83425270  0.49793458  0.16239058  1
  Ti4+  Ti22  1  0.83349268  0.49791417  0.50128104  1
  Ti4+  Ti23  1  0.83132230  0.50002106  0.83343855  1
  Ti4+  Ti24  1  0.83418228  0.83353699  0.16602176  1
  Ti4+  Ti25  1  0.83390706  0.82927483  0.49976072  1
  Ti4+  Ti26  1  0.83211554  0.83452917  0.83280475  1
  Cu+  Cu27  1  0.16482209  0.16828246  0.00081354  1
  Cu+  Cu28  1  0.17001822  0.16766044  0.33338370  1
  Cu+  Cu29  1  0.16936204  0.16474747  0.66855749  1
  Cu+  Cu30  1  0.16472728  0.50270078  0.00211137  1
  Cu+  Cu31  1  0.16505779  0.49803577  0.33394434  1
  Cu+  Cu32  1  0.17109974  0.49810464  0.66765526  1
  Cu+  Cu33  1  0.16593260  0.83573002  0.00146087  1
  Cu+  Cu34  1  0.16657231  0.82864231  0.33583087  1
  Cu+  Cu35  1  0.16307237  0.83574060  0.66560800  1
  Cu+  Cu36  1  0.49707250  0.16723418  -0.00167557  1
  Cu+  Cu37  1  0.49503603  0.17169541  0.33300642  1
  Cu+  Cu38  1  0.50561147  0.15897700  0.66574845  1
  Cu+  Cu39  1  0.50267119  0.49659365  0.00076154  1
  Cu+  Cu40  1  0.50342023  0.49992587  0.33567974  1
  Cu+  Cu41  1  0.49571847  0.50149755  0.66715458  1
  Cu+  Cu42  1  0.50447144  0.83788431  -0.00291749  1
  Cu+  Cu43  1  0.50104119  0.83222424  0.33154559  1
  Cu+  Cu44  1  0.49801597  0.83121092  0.66150499  1
  Cu+  Cu45  1  0.83461400  0.16805477  -0.00050708  1
  Cu+  Cu46  1  0.83375110  0.16398417  0.33441228  1
  Cu+  Cu47  1  0.83213808  0.17204006  0.66570276  1
  Cu+  Cu48  1  0.82771830  0.50275545  -0.00095158  1
  Cu+  Cu49  1  0.83409579  0.49776946  0.33466454  1
  Cu+  Cu50  1  0.83335958  0.49799125  0.66663132  1
  Cu+  Cu51  1  0.83476907  0.83585446  -0.00193051  1
  Cu+  Cu52  1  0.82992174  0.83351499  0.33534522  1
  Cu+  Cu53  1  0.83841345  0.82945783  0.66714743  1
  Cu+  Cu54  1  0.16949931  -0.00492034  0.16297450  1
  Cu+  Cu55  1  0.16548057  0.00168346  0.49934286  1
  Cu+  Cu56  1  0.16658149  0.00522757  0.83115281  1
  Cu+  Cu57  1  0.16370839  0.33256740  0.17235619  1
  Cu+  Cu58  1  0.16717047  0.33351591  0.50017903  1
  Cu+  Cu59  1  0.16964455  0.33834076  0.83309191  1
  Cu+  Cu60  1  0.16218810  0.66514582  0.17350169  1
  Cu+  Cu61  1  0.16542241  0.66628176  0.50069729  1
  Cu+  Cu62  1  0.16583342  0.67024372  0.83669276  1
  Cu+  Cu63  1  0.49700541  0.00537474  0.16603676  1
  Cu+  Cu64  1  0.50036445  -0.00321371  0.49779431  1
  Cu+  Cu65  1  0.50610446  -0.00076018  0.82964301  1
  Cu+  Cu66  1  0.50804726  0.33674115  0.16916121  1
  Cu+  Cu67  1  0.49917657  0.33379547  0.50115165  1
  Cu+  Cu68  1  0.49770605  0.32974439  0.83470091  1
  Cu+  Cu69  1  0.49956192  0.67087802  0.16639282  1
  Cu+  Cu70  1  0.50158044  0.66654759  0.49894870  1
  Cu+  Cu71  1  0.49443433  0.66437406  0.83119185  1
  Cu+  Cu72  1  0.83251251  0.00398944  0.16643475  1
  Cu+  Cu73  1  0.83228315  -0.00425598  0.49996776  1
  Cu+  Cu74  1  0.83392986  -0.00161538  0.83661120  1
  Cu+  Cu75  1  0.83366017  0.33157626  0.16514541  1
  Cu+  Cu76  1  0.83467517  0.33276441  0.50364796  1
  Cu+  Cu77  1  0.83300973  0.33160158  0.83187041  1
  Cu+  Cu78  1  0.83436575  0.66358469  0.16344266  1
  Cu+  Cu79  1  0.83105047  0.66353553  0.50145205  1
  Cu+  Cu80  1  0.83232467  0.66916958  0.82972361  1
  Cu+  Cu81  1  -0.00118090  0.16259092  0.16535329  1
  Cu+  Cu82  1  0.00106677  0.16749239  0.50336171  1
  Cu+  Cu83  1  0.00028651  0.17225293  0.83851365  1
  Cu+  Cu84  1  -0.00059700  0.50355707  0.17062831  1
  Cu+  Cu85  1  0.00205619  0.49897821  0.49882249  1
  Cu+  Cu86  1  -0.00039862  0.50050040  0.83558105  1
  Cu+  Cu87  1  0.00311232  0.82994167  0.16409447  1
  Cu+  Cu88  1  -0.00277479  0.83517875  0.50565814  1
  Cu+  Cu89  1  -0.00292895  0.83351825  0.83294609  1
  Cu+  Cu90  1  0.33086522  0.16695725  0.17453563  1
  Cu+  Cu91  1  0.33744237  0.16798336  0.49736930  1
  Cu+  Cu92  1  0.33127699  0.16171840  0.82932308  1
  Cu+  Cu93  1  0.33357377  0.50367052  0.16995151  1
  Cu+  Cu94  1  0.33365160  0.49991416  0.50067611  1
  Cu+  Cu95  1  0.33293153  0.50122048  0.82951966  1
  Cu+  Cu96  1  0.33892891  0.82727017  0.16853171  1
  Cu+  Cu97  1  0.32995748  0.83358894  0.49814844  1
  Cu+  Cu98  1  0.33327695  0.83579915  0.83232222  1
  Cu+  Cu99  1  0.66743734  0.17350646  0.16726213  1
  Cu+  Cu100  1  0.66671230  0.16369488  0.49975603  1
  Cu+  Cu101  1  0.66753934  0.16215858  0.82377741  1
  Cu+  Cu102  1  0.66819508  0.49744906  0.15671216  1
  Cu+  Cu103  1  0.66657854  0.49714349  0.50146385  1
  Cu+  Cu104  1  0.66445618  0.49916504  0.83483752  1
  Cu+  Cu105  1  0.66667434  0.83598829  0.16387094  1
  Cu+  Cu106  1  0.66804906  0.83238794  0.49496916  1
  Cu+  Cu107  1  0.66381740  0.83602601  0.83572125  1
  Cu+  Cu108  1  0.25942476  0.07036383  0.73706692  1
  Cu+  Cu109  1  0.73697655  0.59787560  0.07204253  1
  Cu+  Cu110  1  0.73691986  0.26318038  0.74009671  1
  Cu+  Cu111  1  0.60055019  0.06579247  0.73435746  1
  Cu+  Cu112  1  0.59162229  0.93192335  0.92887533  1
  Cu+  Cu113  1  0.40568913  0.07190662  0.26075746  1
  Cu+  Cu114  1  0.07582613  0.92689008  0.07659644  1
  Cu+  Cu115  1  0.59850687  0.26006725  0.26434743  1
  Cu+  Cu116  1  0.07414365  0.59170594  0.07169027  1
  Cu+  Cu117  1  0.92854708  0.73647755  0.74047906  1
  Cu+  Cu118  1  0.25681029  0.26232852  0.25953915  1
  Cu+  Cu119  1  0.92784317  0.92459691  0.92693600  1
  Cu+  Cu120  1  0.59449151  0.40306083  0.06810398  1
  Cu+  Cu121  1  0.06881016  0.40115046  0.26059266  1
  Cu+  Cu122  1  0.40884274  0.26596352  0.41097210  1
  Cu+  Cu123  1  0.06899432  0.74858337  0.26654136  1
  Cu+  Cu124  1  0.93227721  0.26408910  0.58926914  1
  Cu+  Cu125  1  0.41445012  0.73912292  0.26344478  1
  Cu+  Cu126  1  0.92501306  0.26392402  0.92942795  1
  Cu+  Cu127  1  0.91700732  0.59269159  0.26418619  1
  Cu+  Cu128  1  0.26145694  0.59136212  0.26373256  1
  Cu+  Cu129  1  0.40403024  0.59587633  0.73688192  1
  Cu+  Cu130  1  0.73979139  0.92610911  0.40604613  1
  Cu+  Cu131  1  0.26209595  0.40632282  0.73828224  1
  Cu+  Cu132  1  0.92414046  0.92866322  0.59340396  1
  Te2-  Te133  1  0.25009281  0.25256388  0.08512553  1
  Te2-  Te134  1  0.25499454  0.25628778  0.41367855  1
  Te2-  Te135  1  0.25441466  0.25417808  0.74682553  1
  Te2-  Te136  1  0.25062982  0.58738348  0.08470621  1
  Te2-  Te137  1  0.25248764  0.58598334  0.41517825  1
  Te2-  Te138  1  0.25057295  0.59201914  0.74697246  1
  Te2-  Te139  1  0.25817131  0.91332743  0.08295662  1
  Te2-  Te140  1  0.24935808  0.91897592  0.41335540  1
  Te2-  Te141  1  0.25127942  0.91920492  0.74573720  1
  Te2-  Te142  1  0.58531011  0.25207471  0.07589775  1
  Te2-  Te143  1  0.58845763  0.25349900  0.41540766  1
  Te2-  Te144  1  0.58352407  0.25409062  0.74451874  1
  Te2-  Te145  1  0.58419885  0.59078573  0.07893306  1
  Te2-  Te146  1  0.58803795  0.58494434  0.41606122  1
  Te2-  Te147  1  0.58441401  0.58405741  0.74849528  1
  Te2-  Te148  1  0.58682735  0.92608926  0.08226915  1
  Te2-  Te149  1  0.58614633  0.91969003  0.40951486  1
  Te2-  Te150  1  0.58748998  0.91534793  0.73988939  1
  Te2-  Te151  1  0.92231604  0.25298719  0.08139280  1
  Te2-  Te152  1  0.91782863  0.25038145  0.41609672  1
  Te2-  Te153  1  0.92309536  0.25432048  0.74544304  1
  Te2-  Te154  1  0.92126623  0.58507280  0.07549798  1
  Te2-  Te155  1  0.91957184  0.58608450  0.41656006  1
  Te2-  Te156  1  0.91916513  0.58356005  0.74731425  1
  Te2-  Te157  1  0.92081380  0.92207027  0.08168516  1
  Te2-  Te158  1  0.91996153  0.91708909  0.41333872  1
  Te2-  Te159  1  0.92014245  0.92287084  0.74669989  1
  Te2-  Te160  1  0.24980395  0.07357894  0.25464689  1
  Te2-  Te161  1  0.25578135  0.08083524  0.58308858  1
  Te2-  Te162  1  0.25072175  0.08289492  0.92121412  1
  Te2-  Te163  1  0.25550456  0.41454282  0.25473411  1
  Te2-  Te164  1  0.25544099  0.41179257  0.58446174  1
  Te2-  Te165  1  0.25273842  0.41934945  0.92264107  1
  Te2-  Te166  1  0.25686914  0.74408119  0.25681985  1
  Te2-  Te167  1  0.24938768  0.74960642  0.58548860  1
  Te2-  Te168  1  0.25198491  0.75238214  0.91873933  1
  Te2-  Te169  1  0.58436909  0.08643854  0.25196090  1
  Te2-  Te170  1  0.58884783  0.07440607  0.58165931  1
  Te2-  Te171  1  0.58843249  0.08392484  0.92013660  1
  Te2-  Te172  1  0.59307547  0.41822696  0.25583120  1
  Te2-  Te173  1  0.58296713  0.41436234  0.58777017  1
  Te2-  Te174  1  0.58618729  0.40975787  0.91697456  1
  Te2-  Te175  1  0.58882439  0.74934138  0.24995148  1
  Te2-  Te176  1  0.58715238  0.74841876  0.58246484  1
  Te2-  Te177  1  0.58275378  0.74462714  0.91544367  1
  Te2-  Te178  1  0.91905830  0.08040521  0.25317049  1
  Te2-  Te179  1  0.91787563  0.08011157  0.58756990  1
  Te2-  Te180  1  0.92060815  0.08052876  0.92027098  1
  Te2-  Te181  1  0.91794198  0.41099766  0.25222868  1
  Te2-  Te182  1  0.92294437  0.41518097  0.58812137  1
  Te2-  Te183  1  0.91703544  0.41546758  0.92032524  1
  Te2-  Te184  1  0.91711712  0.74694997  0.25473247  1
  Te2-  Te185  1  0.92106031  0.73973975  0.58557476  1
  Te2-  Te186  1  0.91743527  0.74674863  0.91906079  1
  Te2-  Te187  1  0.07559624  0.24798456  0.25519220  1
  Te2-  Te188  1  0.08478590  0.25321592  0.58901894  1
  Te2-  Te189  1  0.08331486  0.25903562  0.92156161  1
  Te2-  Te190  1  0.07473604  0.59001287  0.26260188  1
  Te2-  Te191  1  0.08348350  0.58209266  0.58655531  1
  Te2-  Te192  1  0.07870779  0.58848782  0.91885311  1
  Te2-  Te193  1  0.08345723  0.91566907  0.25190644  1
  Te2-  Te194  1  0.07971664  0.92421349  0.58769748  1
  Te2-  Te195  1  0.07989412  0.92409451  0.91962623  1
  Te2-  Te196  1  0.41096725  0.26346401  0.25379603  1
  Te2-  Te197  1  0.41893587  0.24757267  0.58805063  1
  Te2-  Te198  1  0.41122724  0.24754317  0.91507850  1
  Te2-  Te199  1  0.41718594  0.58685544  0.25665811  1
  Te2-  Te200  1  0.41218249  0.58896287  0.58369796  1
  Te2-  Te201  1  0.41374421  0.58199700  0.92197373  1
  Te2-  Te202  1  0.41417482  0.91981094  0.25282384  1
  Te2-  Te203  1  0.41291363  0.91783009  0.58223673  1
  Te2-  Te204  1  0.41597763  0.92186077  0.91553483  1
  Te2-  Te205  1  0.75105429  0.25482125  0.25646861  1
  Te2-  Te206  1  0.74183772  0.25390518  0.58441683  1
  Te2-  Te207  1  0.74486049  0.24816403  0.91517957  1
  Te2-  Te208  1  0.74716640  0.58120991  0.24908433  1
  Te2-  Te209  1  0.74707745  0.58254639  0.58701203  1
  Te2-  Te210  1  0.74488899  0.58982268  0.91594050  1
  Te2-  Te211  1  0.74782184  0.92031934  0.24956210  1
  Te2-  Te212  1  0.74828033  0.91347226  0.58762154  1
  Te2-  Te213  1  0.74505008  0.92141266  0.92164357  1
  Te2-  Te214  1  0.08127239  0.07976096  0.08024339  1
  Te2-  Te215  1  0.08158773  0.08486732  0.41502152  1
  Te2-  Te216  1  0.07726917  0.08585604  0.74955817  1
  Te2-  Te217  1  0.08049503  0.41436016  0.08471151  1
  Te2-  Te218  1  0.07950263  0.41063750  0.41431616  1
  Te2-  Te219  1  0.08074198  0.41729497  0.74896410  1
  Te2-  Te220  1  0.08164454  0.74354925  0.07713152  1
  Te2-  Te221  1  0.07577229  0.74665352  0.41893223  1
  Te2-  Te222  1  0.08095592  0.74788983  0.74748041  1
  Te2-  Te223  1  0.41068745  0.08656137  0.08174238  1
  Te2-  Te224  1  0.41389965  0.07687102  0.41304396  1
  Te2-  Te225  1  0.41431432  0.07597186  0.74449646  1
  Te2-  Te226  1  0.41450549  0.41625969  0.08637139  1
  Te2-  Te227  1  0.41353415  0.41650637  0.41297070  1
  Te2-  Te228  1  0.41426999  0.40943195  0.74637583  1
  Te2-  Te229  1  0.41891054  0.75013505  0.07494329  1
  Te2-  Te230  1  0.41282225  0.74657325  0.41495923  1
  Te2-  Te231  1  0.41131408  0.74966285  0.74484506  1
  Te2-  Te232  1  0.74638889  0.08517050  0.08131009  1
  Te2-  Te233  1  0.74720939  0.07930702  0.41379764  1
  Te2-  Te234  1  0.75296383  0.07463744  0.74294127  1
  Te2-  Te235  1  0.74955899  0.40750385  0.07576570  1
  Te2-  Te236  1  0.74927976  0.41214878  0.41592118  1
  Te2-  Te237  1  0.74547034  0.41499282  0.74710672  1
  Te2-  Te238  1  0.74874487  0.75002016  0.07877258  1
  Te2-  Te239  1  0.74821826  0.74241869  0.41352281  1
  Te2-  Te240  1  0.74426991  0.75104806  0.74750767  1
