# generated using pymatgen
data_Ti27(Cu53Te54)2
_symmetry_space_group_name_H-M   'P 1'
_cell_length_a   17.88420418
_cell_length_b   17.88823940
_cell_length_c   17.88707129
_cell_angle_alpha   90.04796926
_cell_angle_beta   90.02273661
_cell_angle_gamma   90.00919813
_symmetry_Int_Tables_number   1
_chemical_formula_structural   Ti27(Cu53Te54)2
_chemical_formula_sum   'Ti27 Cu106 Te108'
_cell_volume   5722.37432931
_cell_formula_units_Z   1
loop_
 _symmetry_equiv_pos_site_id
 _symmetry_equiv_pos_as_xyz
  1  'x, y, z'
loop_
 _atom_type_symbol
 _atom_type_oxidation_number
  Ti4+  4.0
  Cu+  1.0
  Te2-  -2.0
loop_
 _atom_site_type_symbol
 _atom_site_label
 _atom_site_symmetry_multiplicity
 _atom_site_fract_x
 _atom_site_fract_y
 _atom_site_fract_z
 _atom_site_occupancy
  Ti4+  Ti0  1  0.16528104  0.16910375  0.16380734  1
  Ti4+  Ti1  1  0.16811562  0.16878316  0.49834406  1
  Ti4+  Ti2  1  0.16675897  0.16598399  0.83453979  1
  Ti4+  Ti3  1  0.16449777  0.50032288  0.16556339  1
  Ti4+  Ti4  1  0.16360610  0.50079719  0.50036711  1
  Ti4+  Ti5  1  0.16676540  0.49793300  0.83204304  1
  Ti4+  Ti6  1  0.16268418  0.83448708  0.16710349  1
  Ti4+  Ti7  1  0.16765322  0.83791204  0.50105546  1
  Ti4+  Ti8  1  0.16786953  0.83155464  0.83424503  1
  Ti4+  Ti9  1  0.49947360  0.16390221  0.16628490  1
  Ti4+  Ti10  1  0.50314820  0.16560405  0.50176392  1
  Ti4+  Ti11  1  0.49862838  0.16859130  0.83479378  1
  Ti4+  Ti12  1  0.49798447  0.49983639  0.16901241  1
  Ti4+  Ti13  1  0.49986699  0.50100779  0.50152121  1
  Ti4+  Ti14  1  0.50067101  0.50044601  0.83732726  1
  Ti4+  Ti15  1  0.49929345  0.83344788  0.16318022  1
  Ti4+  Ti16  1  0.50181352  0.83298500  0.49670504  1
  Ti4+  Ti17  1  0.50179623  0.83333217  0.83247117  1
  Ti4+  Ti18  1  0.83112617  0.16601209  0.16471790  1
  Ti4+  Ti19  1  0.83387102  0.16339187  0.49783271  1
  Ti4+  Ti20  1  0.83317800  0.16783037  0.83433181  1
  Ti4+  Ti21  1  0.83246162  0.49691409  0.16675095  1
  Ti4+  Ti22  1  0.83341030  0.49728021  0.49922347  1
  Ti4+  Ti23  1  0.83355810  0.50166667  0.83153646  1
  Ti4+  Ti24  1  0.83659210  0.83376762  0.16588794  1
  Ti4+  Ti25  1  0.83670493  0.83660100  0.50227617  1
  Ti4+  Ti26  1  0.83611029  0.83137274  0.83515266  1
  Cu+  Cu27  1  0.16805110  0.16815768  0.00112233  1
  Cu+  Cu28  1  0.17088512  0.17085971  0.33030997  1
  Cu+  Cu29  1  0.16710591  0.16451879  0.66555583  1
  Cu+  Cu30  1  0.17033024  0.49970580  -0.00207670  1
  Cu+  Cu31  1  0.16374476  0.49976798  0.33241631  1
  Cu+  Cu32  1  0.16291667  0.49742929  0.66711877  1
  Cu+  Cu33  1  0.16131768  0.82867860  -0.00087040  1
  Cu+  Cu34  1  0.16612147  0.84033298  0.33591380  1
  Cu+  Cu35  1  0.16595714  0.83489725  0.66913235  1
  Cu+  Cu36  1  0.49725572  0.16736712  0.00107146  1
  Cu+  Cu37  1  0.50403232  0.16287945  0.33547756  1
  Cu+  Cu38  1  0.50023623  0.16884101  0.67083091  1
  Cu+  Cu39  1  0.49976259  0.50037529  0.00835058  1
  Cu+  Cu40  1  0.49866260  0.49959432  0.33533478  1
  Cu+  Cu41  1  0.49976696  0.50249486  0.66842301  1
  Cu+  Cu42  1  0.49741882  0.83037845  -0.00606773  1
  Cu+  Cu43  1  0.49831883  0.83268008  0.32832002  1
  Cu+  Cu44  1  0.50332495  0.83371311  0.66471725  1
  Cu+  Cu45  1  0.83423730  0.16577562  -0.00058733  1
  Cu+  Cu46  1  0.82878294  0.17019054  0.33384077  1
  Cu+  Cu47  1  0.83392927  0.16521768  0.66887670  1
  Cu+  Cu48  1  0.83090223  0.49743117  -0.00436256  1
  Cu+  Cu49  1  0.83380471  0.49796201  0.33344017  1
  Cu+  Cu50  1  0.83591721  0.50081989  0.66414454  1
  Cu+  Cu51  1  0.83541206  0.83058291  0.00269324  1
  Cu+  Cu52  1  0.83926810  0.83594311  0.33360558  1
  Cu+  Cu53  1  0.83726704  0.83315586  0.67031899  1
  Cu+  Cu54  1  0.16480122  0.00164603  0.16234565  1
  Cu+  Cu55  1  0.16483031  0.00497128  0.49931980  1
  Cu+  Cu56  1  0.16881711  -0.00233341  0.83022528  1
  Cu+  Cu57  1  0.15987112  0.33673096  0.16646156  1
  Cu+  Cu58  1  0.16521648  0.33489090  0.50051153  1
  Cu+  Cu59  1  0.16803117  0.33179003  0.83257079  1
  Cu+  Cu60  1  0.16748598  0.66614918  0.17001279  1
  Cu+  Cu61  1  0.16720317  0.67013272  0.50162012  1
  Cu+  Cu62  1  0.16740020  0.66296670  0.83489598  1
  Cu+  Cu63  1  0.50239101  -0.00133506  0.16299399  1
  Cu+  Cu64  1  0.50843844  -0.00259243  0.49805653  1
  Cu+  Cu65  1  0.49942601  0.00060797  0.83120876  1
  Cu+  Cu66  1  0.49728023  0.33082343  0.16696619  1
  Cu+  Cu67  1  0.50055142  0.33652609  0.50347440  1
  Cu+  Cu68  1  0.49936646  0.33419193  0.83781555  1
  Cu+  Cu69  1  0.49607906  0.66623517  0.16614307  1
  Cu+  Cu70  1  0.49828066  0.66672771  0.49766046  1
  Cu+  Cu71  1  0.50070272  0.66782098  0.83611740  1
  Cu+  Cu72  1  0.83599455  -0.00064235  0.16315742  1
  Cu+  Cu73  1  0.83016909  0.00415618  0.50593468  1
  Cu+  Cu74  1  0.83498156  -0.00068486  0.83622291  1
  Cu+  Cu75  1  0.83063853  0.33135697  0.16842495  1
  Cu+  Cu76  1  0.83207281  0.32772452  0.49387641  1
  Cu+  Cu77  1  0.83073768  0.33447098  0.83177383  1
  Cu+  Cu78  1  0.83575924  0.66334738  0.16824083  1
  Cu+  Cu79  1  0.83691414  0.66707089  0.49952907  1
  Cu+  Cu80  1  0.83490641  0.66574150  0.83109347  1
  Cu+  Cu81  1  -0.00240883  0.16958894  0.16198394  1
  Cu+  Cu82  1  0.00215731  0.16334774  0.50070480  1
  Cu+  Cu83  1  -0.00157214  0.16894659  0.83352367  1
  Cu+  Cu84  1  0.00092578  0.49557873  0.16850030  1
  Cu+  Cu85  1  -0.00342542  0.49808181  0.50621011  1
  Cu+  Cu86  1  -0.00108530  0.50003354  0.82927483  1
  Cu+  Cu87  1  -0.00282543  0.83724019  0.16535471  1
  Cu+  Cu88  1  0.00678780  0.83681928  0.49987720  1
  Cu+  Cu89  1  0.00377123  0.83087083  0.83678935  1
  Cu+  Cu90  1  0.33347222  0.16826333  0.16246228  1
  Cu+  Cu91  1  0.33515008  0.17021514  0.49855492  1
  Cu+  Cu92  1  0.33261563  0.16572599  0.83592124  1
  Cu+  Cu93  1  0.33130641  0.50317887  0.16702410  1
  Cu+  Cu94  1  0.33269945  0.50302172  0.49958793  1
  Cu+  Cu95  1  0.33117205  0.50056338  0.83318392  1
  Cu+  Cu96  1  0.32998215  0.83483988  0.16683677  1
  Cu+  Cu97  1  0.33445068  0.83520125  0.49792053  1
  Cu+  Cu98  1  0.33672746  0.82940374  0.83395046  1
  Cu+  Cu99  1  0.66366701  0.16114404  0.16559858  1
  Cu+  Cu100  1  0.66779323  0.15966736  0.49344821  1
  Cu+  Cu101  1  0.66493835  0.16931700  0.83401493  1
  Cu+  Cu102  1  0.66453111  0.49672704  0.16784879  1
  Cu+  Cu103  1  0.66522769  0.49886883  0.49943591  1
  Cu+  Cu104  1  0.66901856  0.49983545  0.83759073  1
  Cu+  Cu105  1  0.66888798  0.83506861  0.16438495  1
  Cu+  Cu106  1  0.66778471  0.83704974  0.50195417  1
  Cu+  Cu107  1  0.66848814  0.83319700  0.83233236  1
  Cu+  Cu108  1  0.07107252  0.40765493  0.26359365  1
  Cu+  Cu109  1  0.73995277  0.92216299  0.07160535  1
  Cu+  Cu110  1  0.08057592  0.74115875  0.59373010  1
  Cu+  Cu111  1  0.59287176  0.92381132  0.59674463  1
  Cu+  Cu112  1  0.73732431  0.08471510  0.60005060  1
  Cu+  Cu113  1  0.92292390  0.73141178  0.07686991  1
  Cu+  Cu114  1  0.07189052  0.92412583  0.74458032  1
  Cu+  Cu115  1  0.06892076  0.26502237  0.07044667  1
  Cu+  Cu116  1  0.92539065  0.07692746  0.07014245  1
  Cu+  Cu117  1  0.92116667  0.93344875  0.26347698  1
  Cu+  Cu118  1  0.92207710  0.59588231  0.59295121  1
  Cu+  Cu119  1  0.58921988  0.07251230  0.06796488  1
  Cu+  Cu120  1  0.07566217  0.07695789  0.59451089  1
  Cu+  Cu121  1  0.07783639  0.92638846  0.06939822  1
  Cu+  Cu122  1  0.74150495  0.40445082  0.92270705  1
  Cu+  Cu123  1  0.59164184  0.40403766  0.08037684  1
  Cu+  Cu124  1  0.73526328  0.26060900  0.40641367  1
  Cu+  Cu125  1  0.40319352  0.59500701  0.07800489  1
  Cu+  Cu126  1  0.40596002  0.26075305  0.07266666  1
  Cu+  Cu127  1  0.07799731  0.93300103  0.40626043  1
  Cu+  Cu128  1  0.07506771  0.73229332  0.92617532  1
  Cu+  Cu129  1  0.26124886  0.07149419  0.07409846  1
  Cu+  Cu130  1  0.40768766  0.73834220  0.92252645  1
  Cu+  Cu131  1  0.07154200  0.40332309  0.59604922  1
  Cu+  Cu132  1  0.59563217  0.06614246  0.40239477  1
  Te2-  Te133  1  0.25112154  0.25889408  0.08091459  1
  Te2-  Te134  1  0.25300309  0.25570578  0.41447181  1
  Te2-  Te135  1  0.25149405  0.24884047  0.74816315  1
  Te2-  Te136  1  0.25003532  0.58869589  0.07955732  1
  Te2-  Te137  1  0.24807908  0.58612162  0.41511050  1
  Te2-  Te138  1  0.25068699  0.58407868  0.74609221  1
  Te2-  Te139  1  0.25047253  0.91630965  0.07734008  1
  Te2-  Te140  1  0.25370301  0.92409461  0.41604085  1
  Te2-  Te141  1  0.25665714  0.91540908  0.74917632  1
  Te2-  Te142  1  0.58763066  0.25114924  0.08054673  1
  Te2-  Te143  1  0.58471819  0.25518035  0.41509098  1
  Te2-  Te144  1  0.58437745  0.25521543  0.75066387  1
  Te2-  Te145  1  0.58654565  0.58709044  0.08531256  1
  Te2-  Te146  1  0.58542374  0.58537136  0.41421529  1
  Te2-  Te147  1  0.58589540  0.58480315  0.75257064  1
  Te2-  Te148  1  0.58587041  0.91753281  0.07323996  1
  Te2-  Te149  1  0.58996817  0.91504514  0.40627605  1
  Te2-  Te150  1  0.58890499  0.92099794  0.74882527  1
  Te2-  Te151  1  0.91496934  0.25674255  0.07869916  1
  Te2-  Te152  1  0.92250927  0.24792325  0.41324813  1
  Te2-  Te153  1  0.91682871  0.25301230  0.74794831  1
  Te2-  Te154  1  0.91969211  0.57889358  0.07945342  1
  Te2-  Te155  1  0.91995503  0.58277959  0.41390498  1
  Te2-  Te156  1  0.92170248  0.58818788  0.74559023  1
  Te2-  Te157  1  0.92389556  0.92334199  0.07243346  1
  Te2-  Te158  1  0.92180178  0.92637217  0.41750522  1
  Te2-  Te159  1  0.92083171  0.91966087  0.75042303  1
  Te2-  Te160  1  0.25167276  0.08244933  0.24814582  1
  Te2-  Te161  1  0.25512351  0.08300891  0.58287367  1
  Te2-  Te162  1  0.25241249  0.07838601  0.91963739  1
  Te2-  Te163  1  0.25093570  0.41528398  0.25074096  1
  Te2-  Te164  1  0.25173275  0.41684246  0.58433223  1
  Te2-  Te165  1  0.25285394  0.41297484  0.91749329  1
  Te2-  Te166  1  0.24845469  0.75269073  0.25383785  1
  Te2-  Te167  1  0.25365836  0.75201925  0.58632075  1
  Te2-  Te168  1  0.25290476  0.74462694  0.92119351  1
  Te2-  Te169  1  0.58677864  0.07587022  0.25197600  1
  Te2-  Te170  1  0.58793418  0.07960800  0.59285291  1
  Te2-  Te171  1  0.58546904  0.08057421  0.91786198  1
  Te2-  Te172  1  0.58239853  0.41200032  0.25419299  1
  Te2-  Te173  1  0.58582828  0.41671483  0.58859552  1
  Te2-  Te174  1  0.58628608  0.41256718  0.92464795  1
  Te2-  Te175  1  0.58522651  0.74870877  0.24720261  1
  Te2-  Te176  1  0.58666536  0.74615511  0.58244773  1
  Te2-  Te177  1  0.58968465  0.74804249  0.91834444  1
  Te2-  Te178  1  0.91836186  0.08545173  0.25379089  1
  Te2-  Te179  1  0.92112579  0.08031339  0.58904745  1
  Te2-  Te180  1  0.92126718  0.08059725  0.91805509  1
  Te2-  Te181  1  0.91725007  0.41003587  0.25373659  1
  Te2-  Te182  1  0.91523099  0.40530538  0.58605993  1
  Te2-  Te183  1  0.91985244  0.41429904  0.91572624  1
  Te2-  Te184  1  0.92159906  0.74665524  0.25263736  1
  Te2-  Te185  1  0.92369310  0.75030921  0.58783825  1
  Te2-  Te186  1  0.92158234  0.74207423  0.92109974  1
  Te2-  Te187  1  0.07781405  0.25148852  0.25342640  1
  Te2-  Te188  1  0.07990728  0.25182558  0.58679135  1
  Te2-  Te189  1  0.08030019  0.25358078  0.91847561  1
  Te2-  Te190  1  0.07889646  0.58640314  0.25173695  1
  Te2-  Te191  1  0.07865399  0.58903197  0.58948990  1
  Te2-  Te192  1  0.07896720  0.58160860  0.91977536  1
  Te2-  Te193  1  0.07806326  0.92523508  0.25351651  1
  Te2-  Te194  1  0.07914758  0.92548882  0.59116153  1
  Te2-  Te195  1  0.08137020  0.92269298  0.91857160  1
  Te2-  Te196  1  0.41559549  0.24748941  0.25488877  1
  Te2-  Te197  1  0.41745491  0.25137046  0.58569663  1
  Te2-  Te198  1  0.41063297  0.25452095  0.92050164  1
  Te2-  Te199  1  0.41287034  0.58592616  0.25521256  1
  Te2-  Te200  1  0.41419292  0.58723330  0.58622423  1
  Te2-  Te201  1  0.41112172  0.58550694  0.92278755  1
  Te2-  Te202  1  0.41468558  0.91967134  0.24776548  1
  Te2-  Te203  1  0.41727618  0.91993898  0.58283476  1
  Te2-  Te204  1  0.41431417  0.92084706  0.91648845  1
  Te2-  Te205  1  0.74203915  0.25125818  0.24943918  1
  Te2-  Te206  1  0.74627381  0.24780031  0.58371729  1
  Te2-  Te207  1  0.74590026  0.25176139  0.92132480  1
  Te2-  Te208  1  0.74846480  0.58254746  0.25143117  1
  Te2-  Te209  1  0.74837337  0.58524458  0.58279096  1
  Te2-  Te210  1  0.74953472  0.58935684  0.91890556  1
  Te2-  Te211  1  0.75048604  0.91962114  0.25218193  1
  Te2-  Te212  1  0.74947632  0.91996959  0.59213564  1
  Te2-  Te213  1  0.74886528  0.91765394  0.91931852  1
  Te2-  Te214  1  0.07701434  0.08063840  0.07559134  1
  Te2-  Te215  1  0.08170171  0.08520580  0.40736805  1
  Te2-  Te216  1  0.07804742  0.08043373  0.74852168  1
  Te2-  Te217  1  0.07870586  0.41668353  0.07386729  1
  Te2-  Te218  1  0.07690202  0.41388117  0.41531632  1
  Te2-  Te219  1  0.07846223  0.40999350  0.74853089  1
  Te2-  Te220  1  0.07756972  0.74126348  0.08289665  1
  Te2-  Te221  1  0.08380474  0.74997794  0.41358493  1
  Te2-  Te222  1  0.08118616  0.74355718  0.74798954  1
  Te2-  Te223  1  0.41284015  0.07633199  0.07851421  1
  Te2-  Te224  1  0.41660845  0.08009903  0.41760850  1
  Te2-  Te225  1  0.41395495  0.08287670  0.74887534  1
  Te2-  Te226  1  0.40868700  0.41292298  0.08200621  1
  Te2-  Te227  1  0.41365518  0.41466319  0.41673465  1
  Te2-  Te228  1  0.41650382  0.41671841  0.75125770  1
  Te2-  Te229  1  0.40851273  0.74824217  0.07905926  1
  Te2-  Te230  1  0.41416052  0.74916037  0.41221241  1
  Te2-  Te231  1  0.41788069  0.74711853  0.74480824  1
  Te2-  Te232  1  0.74463104  0.07796930  0.07649366  1
  Te2-  Te233  1  0.74981051  0.07344726  0.40752060  1
  Te2-  Te234  1  0.74638293  0.07929998  0.75222385  1
  Te2-  Te235  1  0.74598628  0.40993957  0.07970452  1
  Te2-  Te236  1  0.74522750  0.41356662  0.41207893  1
  Te2-  Te237  1  0.74721200  0.41720418  0.74501764  1
  Te2-  Te238  1  0.74944045  0.74466422  0.08306817  1
  Te2-  Te239  1  0.75285080  0.75225998  0.41653025  1
  Te2-  Te240  1  0.75053329  0.74868666  0.74840720  1
