# generated using pymatgen
data_Ti27(Cu53Te54)2
_symmetry_space_group_name_H-M   'P 1'
_cell_length_a   17.92475693
_cell_length_b   17.91943665
_cell_length_c   17.92127672
_cell_angle_alpha   90.01465643
_cell_angle_beta   89.93396472
_cell_angle_gamma   90.02409981
_symmetry_Int_Tables_number   1
_chemical_formula_structural   Ti27(Cu53Te54)2
_chemical_formula_sum   'Ti27 Cu106 Te108'
_cell_volume   5756.33727155
_cell_formula_units_Z   1
loop_
 _symmetry_equiv_pos_site_id
 _symmetry_equiv_pos_as_xyz
  1  'x, y, z'
loop_
 _atom_type_symbol
 _atom_type_oxidation_number
  Ti4+  4.0
  Cu+  1.0
  Te2-  -2.0
loop_
 _atom_site_type_symbol
 _atom_site_label
 _atom_site_symmetry_multiplicity
 _atom_site_fract_x
 _atom_site_fract_y
 _atom_site_fract_z
 _atom_site_occupancy
  Ti4+  Ti0  1  0.16506971  0.16782897  0.16466904  1
  Ti4+  Ti1  1  0.16996361  0.16593742  0.49941628  1
  Ti4+  Ti2  1  0.16762833  0.16927641  0.83377995  1
  Ti4+  Ti3  1  0.16504202  0.50014126  0.16711847  1
  Ti4+  Ti4  1  0.16725340  0.49839215  0.50034233  1
  Ti4+  Ti5  1  0.16834873  0.50164137  0.83159914  1
  Ti4+  Ti6  1  0.16625610  0.83441808  0.17380438  1
  Ti4+  Ti7  1  0.16918040  0.83357209  0.50115532  1
  Ti4+  Ti8  1  0.16306790  0.83332600  0.83450670  1
  Ti4+  Ti9  1  0.49906186  0.16336369  0.16470918  1
  Ti4+  Ti10  1  0.50613090  0.16379455  0.50274212  1
  Ti4+  Ti11  1  0.50009804  0.16861341  0.83985912  1
  Ti4+  Ti12  1  0.49875047  0.50085168  0.16624497  1
  Ti4+  Ti13  1  0.50040909  0.49985376  0.50191539  1
  Ti4+  Ti14  1  0.49968351  0.49905462  0.83460741  1
  Ti4+  Ti15  1  0.50053200  0.83352567  0.16762727  1
  Ti4+  Ti16  1  0.50098020  0.83238206  0.49981283  1
  Ti4+  Ti17  1  0.49885074  0.83530641  0.83680442  1
  Ti4+  Ti18  1  0.83428210  0.16830657  0.16587397  1
  Ti4+  Ti19  1  0.83333291  0.16528033  0.49161056  1
  Ti4+  Ti20  1  0.83492811  0.16610537  0.83206089  1
  Ti4+  Ti21  1  0.83213095  0.50053141  0.16411096  1
  Ti4+  Ti22  1  0.83192857  0.49863507  0.49750651  1
  Ti4+  Ti23  1  0.83343717  0.49984261  0.82992411  1
  Ti4+  Ti24  1  0.83391577  0.83225856  0.16449450  1
  Ti4+  Ti25  1  0.83351725  0.83460835  0.49946457  1
  Ti4+  Ti26  1  0.83083704  0.83299600  0.83151051  1
  Cu+  Cu27  1  0.16242930  0.17161009  -0.00204313  1
  Cu+  Cu28  1  0.16899630  0.17065972  0.33528560  1
  Cu+  Cu29  1  0.16902206  0.16675104  0.66430827  1
  Cu+  Cu30  1  0.16606818  0.50223332  0.00025141  1
  Cu+  Cu31  1  0.16826621  0.49966735  0.33246545  1
  Cu+  Cu32  1  0.16891930  0.50049404  0.66781955  1
  Cu+  Cu33  1  0.16166188  0.83085798  0.00446376  1
  Cu+  Cu34  1  0.16781741  0.84022382  0.33838993  1
  Cu+  Cu35  1  0.16759304  0.83313218  0.66653070  1
  Cu+  Cu36  1  0.49059763  0.16598848  0.00230834  1
  Cu+  Cu37  1  0.50507754  0.16300812  0.33386920  1
  Cu+  Cu38  1  0.50541086  0.16277347  0.67515421  1
  Cu+  Cu39  1  0.50153981  0.49501055  0.00172891  1
  Cu+  Cu40  1  0.49817525  0.50037656  0.33467771  1
  Cu+  Cu41  1  0.49761817  0.50246820  0.66776275  1
  Cu+  Cu42  1  0.50314693  0.83516461  0.00270314  1
  Cu+  Cu43  1  0.49922219  0.83031933  0.33397092  1
  Cu+  Cu44  1  0.49946530  0.83374576  0.66605597  1
  Cu+  Cu45  1  0.83576364  0.16764348  0.00014867  1
  Cu+  Cu46  1  0.82619003  0.16687788  0.32798657  1
  Cu+  Cu47  1  0.83582413  0.16628234  0.66227206  1
  Cu+  Cu48  1  0.83350316  0.50031283  -0.00414466  1
  Cu+  Cu49  1  0.83170995  0.50170221  0.33051287  1
  Cu+  Cu50  1  0.83327402  0.49702805  0.66276168  1
  Cu+  Cu51  1  0.83440279  0.83365748  -0.00440943  1
  Cu+  Cu52  1  0.83586297  0.83380941  0.33201503  1
  Cu+  Cu53  1  0.83132717  0.83161898  0.66729495  1
  Cu+  Cu54  1  0.16682175  -0.00188520  0.16939614  1
  Cu+  Cu55  1  0.16821150  0.00088456  0.50019899  1
  Cu+  Cu56  1  0.16252284  0.00160489  0.83521201  1
  Cu+  Cu57  1  0.16189134  0.33515627  0.16260050  1
  Cu+  Cu58  1  0.16751261  0.33069370  0.49749176  1
  Cu+  Cu59  1  0.17468344  0.33748974  0.83196386  1
  Cu+  Cu60  1  0.16853601  0.66514734  0.17509353  1
  Cu+  Cu61  1  0.16874857  0.66785856  0.50169261  1
  Cu+  Cu62  1  0.16288043  0.66697740  0.83039433  1
  Cu+  Cu63  1  0.49489797  -0.00543048  0.16232032  1
  Cu+  Cu64  1  0.50887125  -0.00459713  0.50205482  1
  Cu+  Cu65  1  0.50198011  0.00305293  0.84227031  1
  Cu+  Cu66  1  0.50108078  0.33393438  0.16436454  1
  Cu+  Cu67  1  0.50202729  0.33362060  0.50502180  1
  Cu+  Cu68  1  0.50102480  0.33385657  0.83738429  1
  Cu+  Cu69  1  0.49975260  0.66945473  0.16460099  1
  Cu+  Cu70  1  0.50077376  0.66702052  0.50106867  1
  Cu+  Cu71  1  0.49521010  0.66445404  0.83380225  1
  Cu+  Cu72  1  0.83584102  -0.00046872  0.16855569  1
  Cu+  Cu73  1  0.83104244  0.00279186  0.49999332  1
  Cu+  Cu74  1  0.83530650  -0.00187314  0.83184535  1
  Cu+  Cu75  1  0.83440025  0.33712546  0.16523880  1
  Cu+  Cu76  1  0.83144046  0.33200076  0.49154646  1
  Cu+  Cu77  1  0.83438062  0.33327439  0.83071454  1
  Cu+  Cu78  1  0.83210345  0.66497557  0.16355752  1
  Cu+  Cu79  1  0.83392972  0.66657640  0.49900223  1
  Cu+  Cu80  1  0.83034192  0.66645945  0.82852704  1
  Cu+  Cu81  1  0.00130847  0.17038694  0.16240763  1
  Cu+  Cu82  1  0.00266395  0.16971157  0.49318437  1
  Cu+  Cu83  1  0.00142899  0.16589716  0.83312016  1
  Cu+  Cu84  1  -0.00242025  0.50055206  0.16513098  1
  Cu+  Cu85  1  -0.00244784  0.49754791  0.50004775  1
  Cu+  Cu86  1  0.00076028  0.50240944  0.82923269  1
  Cu+  Cu87  1  -0.00207813  0.83670629  0.17177156  1
  Cu+  Cu88  1  0.00191319  0.83298114  0.49991717  1
  Cu+  Cu89  1  -0.00486351  0.83282821  0.83296322  1
  Cu+  Cu90  1  0.33511822  0.16732504  0.16441919  1
  Cu+  Cu91  1  0.33804849  0.16462363  0.50320261  1
  Cu+  Cu92  1  0.33042386  0.17277097  0.84280541  1
  Cu+  Cu93  1  0.32932513  0.50313608  0.17125729  1
  Cu+  Cu94  1  0.33512861  0.49785050  0.50082189  1
  Cu+  Cu95  1  0.33583759  0.50004728  0.82779224  1
  Cu+  Cu96  1  0.33068132  0.83653968  0.17410075  1
  Cu+  Cu97  1  0.33635052  0.83047658  0.50108378  1
  Cu+  Cu98  1  0.32757415  0.83213176  0.83524806  1
  Cu+  Cu99  1  0.66794659  0.16423567  0.16709564  1
  Cu+  Cu100  1  0.66867320  0.16061115  0.49131602  1
  Cu+  Cu101  1  0.66905065  0.16573953  0.83466668  1
  Cu+  Cu102  1  0.66520807  0.49820075  0.16322047  1
  Cu+  Cu103  1  0.66549093  0.49987212  0.50076919  1
  Cu+  Cu104  1  0.66826226  0.49870844  0.83201852  1
  Cu+  Cu105  1  0.66654433  0.82710700  0.16316653  1
  Cu+  Cu106  1  0.66775840  0.83359711  0.50120808  1
  Cu+  Cu107  1  0.66451197  0.83525389  0.83721408  1
  Cu+  Cu108  1  0.26074880  0.59228603  0.26496102  1
  Cu+  Cu109  1  0.40138816  0.07282993  0.92297035  1
  Cu+  Cu110  1  0.59592323  0.07430540  0.75180620  1
  Cu+  Cu111  1  0.26336584  0.93205881  0.26628499  1
  Cu+  Cu112  1  0.59595765  0.40296457  0.07356882  1
  Cu+  Cu113  1  0.58807465  0.06637809  0.40283241  1
  Cu+  Cu114  1  0.92108590  0.92965870  0.26254462  1
  Cu+  Cu115  1  0.73698363  0.06712649  0.24808685  1
  Cu+  Cu116  1  0.06990798  0.26630693  0.07001043  1
  Cu+  Cu117  1  0.07211061  0.92898380  0.41864524  1
  Cu+  Cu118  1  0.06957334  0.59420851  0.73764111  1
  Cu+  Cu119  1  0.59589598  0.91617756  0.59629920  1
  Cu+  Cu120  1  0.40695663  0.26533754  0.08088804  1
  Cu+  Cu121  1  0.73735808  0.26503694  0.40210567  1
  Cu+  Cu122  1  0.26395136  0.40733932  0.73563503  1
  Cu+  Cu123  1  0.92425521  0.92504778  0.92054849  1
  Cu+  Cu124  1  0.74467365  0.07997052  0.59282158  1
  Cu+  Cu125  1  0.07580380  0.26320090  0.40584788  1
  Cu+  Cu126  1  0.59474398  0.73820593  0.07245690  1
  Cu+  Cu127  1  0.40133249  0.91366519  0.07292207  1
  Cu+  Cu128  1  0.07242787  0.92015567  0.07847225  1
  Cu+  Cu129  1  0.25669606  0.26841471  0.92781474  1
  Cu+  Cu130  1  0.07235759  0.07721271  0.92366296  1
  Cu+  Cu131  1  0.40927390  0.59667265  0.73701722  1
  Cu+  Cu132  1  0.59417516  0.92871553  0.93080578  1
  Te2-  Te133  1  0.25327773  0.25575720  0.08021662  1
  Te2-  Te134  1  0.25929356  0.25086727  0.41635007  1
  Te2-  Te135  1  0.25591598  0.25137801  0.74468060  1
  Te2-  Te136  1  0.24995229  0.58759582  0.08214263  1
  Te2-  Te137  1  0.25401269  0.58501865  0.41675743  1
  Te2-  Te138  1  0.25471805  0.59054259  0.74565447  1
  Te2-  Te139  1  0.25018859  0.91816943  0.08059408  1
  Te2-  Te140  1  0.25951520  0.92177217  0.41805991  1
  Te2-  Te141  1  0.24802940  0.91951645  0.75133365  1
  Te2-  Te142  1  0.58726664  0.24774846  0.07915421  1
  Te2-  Te143  1  0.58538633  0.25450058  0.41428727  1
  Te2-  Te144  1  0.58672394  0.25323233  0.75334483  1
  Te2-  Te145  1  0.58466043  0.58672390  0.07900968  1
  Te2-  Te146  1  0.58464182  0.58502166  0.41542414  1
  Te2-  Te147  1  0.58503385  0.58529444  0.74990250  1
  Te2-  Te148  1  0.59115944  0.92179040  0.08304366  1
  Te2-  Te149  1  0.58950449  0.91457079  0.40909840  1
  Te2-  Te150  1  0.58602904  0.92123452  0.74936956  1
  Te2-  Te151  1  0.91836204  0.25613002  0.07856131  1
  Te2-  Te152  1  0.91926819  0.25232237  0.40587401  1
  Te2-  Te153  1  0.91976350  0.24979346  0.74606958  1
  Te2-  Te154  1  0.91799952  0.58502019  0.07838683  1
  Te2-  Te155  1  0.91818202  0.58437518  0.41390604  1
  Te2-  Te156  1  0.91711789  0.58674582  0.74192868  1
  Te2-  Te157  1  0.91950160  0.92159364  0.07749947  1
  Te2-  Te158  1  0.91962611  0.92348987  0.41431139  1
  Te2-  Te159  1  0.91809851  0.91775508  0.74447358  1
  Te2-  Te160  1  0.25260829  0.08498031  0.25175455  1
  Te2-  Te161  1  0.25406844  0.08008835  0.58573910  1
  Te2-  Te162  1  0.24925129  0.07918387  0.92306536  1
  Te2-  Te163  1  0.24950528  0.41067535  0.25056826  1
  Te2-  Te164  1  0.25316702  0.41161523  0.58401314  1
  Te2-  Te165  1  0.25621709  0.42024548  0.92241395  1
  Te2-  Te166  1  0.25286381  0.74855041  0.25994196  1
  Te2-  Te167  1  0.25363050  0.74836873  0.58699596  1
  Te2-  Te168  1  0.24569119  0.74755262  0.92014980  1
  Te2-  Te169  1  0.58497305  0.07363557  0.24907892  1
  Te2-  Te170  1  0.59239134  0.07625240  0.59329446  1
  Te2-  Te171  1  0.58961822  0.08465239  0.92785473  1
  Te2-  Te172  1  0.58301070  0.41560150  0.25174976  1
  Te2-  Te173  1  0.58561684  0.41677878  0.58934235  1
  Te2-  Te174  1  0.58899214  0.41314934  0.91906696  1
  Te2-  Te175  1  0.58527875  0.74675928  0.25303277  1
  Te2-  Te176  1  0.58662493  0.74715406  0.58686022  1
  Te2-  Te177  1  0.58327257  0.74438327  0.91830001  1
  Te2-  Te178  1  0.92308618  0.08481293  0.25229475  1
  Te2-  Te179  1  0.92213625  0.08383541  0.57892393  1
  Te2-  Te180  1  0.91990704  0.07989259  0.92135843  1
  Te2-  Te181  1  0.91793843  0.41663197  0.25134696  1
  Te2-  Te182  1  0.91568939  0.40961388  0.58106433  1
  Te2-  Te183  1  0.92011200  0.41580379  0.91447974  1
  Te2-  Te184  1  0.91676537  0.74533043  0.24989774  1
  Te2-  Te185  1  0.91789658  0.74976870  0.58365374  1
  Te2-  Te186  1  0.91592202  0.74447120  0.91561821  1
  Te2-  Te187  1  0.08085527  0.25350254  0.25228445  1
  Te2-  Te188  1  0.08217454  0.25079660  0.58443406  1
  Te2-  Te189  1  0.07900476  0.26001331  0.91531597  1
  Te2-  Te190  1  0.07799118  0.58309801  0.25365885  1
  Te2-  Te191  1  0.08080218  0.58465814  0.58422519  1
  Te2-  Te192  1  0.08116992  0.58528159  0.91799002  1
  Te2-  Te193  1  0.07711090  0.92439922  0.25909270  1
  Te2-  Te194  1  0.08251090  0.91953582  0.58617693  1
  Te2-  Te195  1  0.07583796  0.92097955  0.92353522  1
  Te2-  Te196  1  0.41847788  0.24869788  0.25318787  1
  Te2-  Te197  1  0.42163701  0.24635086  0.58963213  1
  Te2-  Te198  1  0.41253858  0.26166133  0.92501739  1
  Te2-  Te199  1  0.41549756  0.58866207  0.25339985  1
  Te2-  Te200  1  0.41224191  0.58786903  0.58511384  1
  Te2-  Te201  1  0.41377820  0.58164335  0.92212227  1
  Te2-  Te202  1  0.41609391  0.92065170  0.25835576  1
  Te2-  Te203  1  0.41534409  0.91980655  0.58440155  1
  Te2-  Te204  1  0.40723860  0.91880028  0.92143031  1
  Te2-  Te205  1  0.74529097  0.25774086  0.24746824  1
  Te2-  Te206  1  0.74766989  0.24910274  0.57954517  1
  Te2-  Te207  1  0.75108118  0.25089536  0.91727122  1
  Te2-  Te208  1  0.74542237  0.58511557  0.24848531  1
  Te2-  Te209  1  0.74873944  0.58488135  0.58366537  1
  Te2-  Te210  1  0.74797766  0.58528258  0.91567864  1
  Te2-  Te211  1  0.74467040  0.91461807  0.25066933  1
  Te2-  Te212  1  0.74806835  0.92112248  0.58880870  1
  Te2-  Te213  1  0.74670392  0.92237573  0.92034860  1
  Te2-  Te214  1  0.07910863  0.07804668  0.08011604  1
  Te2-  Te215  1  0.08303032  0.08071665  0.41133451  1
  Te2-  Te216  1  0.08324637  0.08383083  0.74610935  1
  Te2-  Te217  1  0.07752054  0.41767536  0.07710990  1
  Te2-  Te218  1  0.08109519  0.41519116  0.41322342  1
  Te2-  Te219  1  0.08327373  0.41291773  0.74781489  1
  Te2-  Te220  1  0.08086025  0.74640873  0.09099207  1
  Te2-  Te221  1  0.08411146  0.74779072  0.41484616  1
  Te2-  Te222  1  0.07773375  0.75034067  0.74582359  1
  Te2-  Te223  1  0.40796515  0.07461945  0.07980351  1
  Te2-  Te224  1  0.42000820  0.07864432  0.41808539  1
  Te2-  Te225  1  0.41163092  0.08364095  0.75665089  1
  Te2-  Te226  1  0.40811084  0.41729944  0.08275001  1
  Te2-  Te227  1  0.41670306  0.41231612  0.41680986  1
  Te2-  Te228  1  0.41718450  0.40903147  0.74628947  1
  Te2-  Te229  1  0.40989314  0.75138399  0.08306342  1
  Te2-  Te230  1  0.41578833  0.74599643  0.41544050  1
  Te2-  Te231  1  0.41301595  0.75175766  0.74928199  1
  Te2-  Te232  1  0.75091840  0.08050818  0.08033829  1
  Te2-  Te233  1  0.74613371  0.07204505  0.40457009  1
  Te2-  Te234  1  0.74923980  0.07798811  0.74644529  1
  Te2-  Te235  1  0.74826592  0.41317914  0.07643565  1
  Te2-  Te236  1  0.74342479  0.41659183  0.40977398  1
  Te2-  Te237  1  0.74821786  0.41334480  0.74583177  1
  Te2-  Te238  1  0.75032460  0.74598765  0.07594333  1
  Te2-  Te239  1  0.74947916  0.74994007  0.41426807  1
  Te2-  Te240  1  0.74275240  0.74969144  0.74784979  1
