# generated using pymatgen
data_Ti27(Cu53Te54)2
_symmetry_space_group_name_H-M   'P 1'
_cell_length_a   17.88064175
_cell_length_b   17.88447496
_cell_length_c   17.88322381
_cell_angle_alpha   90.00469539
_cell_angle_beta   89.99138375
_cell_angle_gamma   89.95265894
_symmetry_Int_Tables_number   1
_chemical_formula_structural   Ti27(Cu53Te54)2
_chemical_formula_sum   'Ti27 Cu106 Te108'
_cell_volume   5718.80060035
_cell_formula_units_Z   1
loop_
 _symmetry_equiv_pos_site_id
 _symmetry_equiv_pos_as_xyz
  1  'x, y, z'
loop_
 _atom_type_symbol
 _atom_type_oxidation_number
  Ti4+  4.0
  Cu+  1.0
  Te2-  -2.0
loop_
 _atom_site_type_symbol
 _atom_site_label
 _atom_site_symmetry_multiplicity
 _atom_site_fract_x
 _atom_site_fract_y
 _atom_site_fract_z
 _atom_site_occupancy
  Ti4+  Ti0  1  0.16622056  0.16761042  0.16619185  1
  Ti4+  Ti1  1  0.16963845  0.16105907  0.50285711  1
  Ti4+  Ti2  1  0.16854456  0.16942320  0.83704727  1
  Ti4+  Ti3  1  0.16564978  0.50334161  0.16696745  1
  Ti4+  Ti4  1  0.16750968  0.49680144  0.50073804  1
  Ti4+  Ti5  1  0.16494283  0.50306506  0.83081283  1
  Ti4+  Ti6  1  0.16721178  0.83465134  0.16676475  1
  Ti4+  Ti7  1  0.16393281  0.83242116  0.49885770  1
  Ti4+  Ti8  1  0.16606435  0.83565771  0.83460174  1
  Ti4+  Ti9  1  0.49859346  0.16833911  0.16428547  1
  Ti4+  Ti10  1  0.50083643  0.16775945  0.49787547  1
  Ti4+  Ti11  1  0.49873695  0.16431586  0.83261265  1
  Ti4+  Ti12  1  0.50020001  0.50125201  0.16844221  1
  Ti4+  Ti13  1  0.50168688  0.50126503  0.50152275  1
  Ti4+  Ti14  1  0.49853794  0.50025699  0.83524929  1
  Ti4+  Ti15  1  0.49937301  0.83264995  0.16584461  1
  Ti4+  Ti16  1  0.50148965  0.83246328  0.49901110  1
  Ti4+  Ti17  1  0.50107854  0.83184890  0.83486230  1
  Ti4+  Ti18  1  0.83202141  0.16915688  0.16540314  1
  Ti4+  Ti19  1  0.83176122  0.16602868  0.50108974  1
  Ti4+  Ti20  1  0.83523997  0.16741714  0.83117434  1
  Ti4+  Ti21  1  0.83488011  0.49431876  0.16828522  1
  Ti4+  Ti22  1  0.83356291  0.49972147  0.50053693  1
  Ti4+  Ti23  1  0.83108941  0.49983250  0.83361704  1
  Ti4+  Ti24  1  0.83166280  0.83448400  0.16592497  1
  Ti4+  Ti25  1  0.83411528  0.83399259  0.49407326  1
  Ti4+  Ti26  1  0.83347405  0.83228588  0.82962796  1
  Cu+  Cu27  1  0.15993241  0.16734188  0.00072824  1
  Cu+  Cu28  1  0.16921003  0.16324840  0.33522693  1
  Cu+  Cu29  1  0.17460072  0.16588951  0.66828667  1
  Cu+  Cu30  1  0.16407964  0.50525506  -0.00325168  1
  Cu+  Cu31  1  0.16232669  0.49930051  0.33480464  1
  Cu+  Cu32  1  0.17095749  0.49643392  0.66784496  1
  Cu+  Cu33  1  0.16982635  0.83872462  0.00049545  1
  Cu+  Cu34  1  0.16223346  0.83397020  0.33320048  1
  Cu+  Cu35  1  0.16671728  0.83344389  0.66500526  1
  Cu+  Cu36  1  0.49811654  0.16487107  -0.00266496  1
  Cu+  Cu37  1  0.50022444  0.17092059  0.33019908  1
  Cu+  Cu38  1  0.49846035  0.16478079  0.66555642  1
  Cu+  Cu39  1  0.50180999  0.50188324  0.00415191  1
  Cu+  Cu40  1  0.50341819  0.50323568  0.33800349  1
  Cu+  Cu41  1  0.49674280  0.50233210  0.66828795  1
  Cu+  Cu42  1  0.50115693  0.83216558  0.00194915  1
  Cu+  Cu43  1  0.49793382  0.83041610  0.33058802  1
  Cu+  Cu44  1  0.50169722  0.83156701  0.67026563  1
  Cu+  Cu45  1  0.83649728  0.17119326  -0.00273890  1
  Cu+  Cu46  1  0.83285351  0.16798507  0.33422361  1
  Cu+  Cu47  1  0.83294171  0.16685973  0.66710320  1
  Cu+  Cu48  1  0.83215327  0.49894060  0.00419550  1
  Cu+  Cu49  1  0.83514370  0.49855090  0.33016368  1
  Cu+  Cu50  1  0.83167740  0.49505722  0.66825690  1
  Cu+  Cu51  1  0.83426838  0.83251397  -0.00114408  1
  Cu+  Cu52  1  0.82753452  0.83642382  0.33143656  1
  Cu+  Cu53  1  0.83589301  0.83171033  0.65996028  1
  Cu+  Cu54  1  0.16717478  0.00260788  0.16569968  1
  Cu+  Cu55  1  0.16642558  -0.00749662  0.49968066  1
  Cu+  Cu56  1  0.16909230  0.00138270  0.84187570  1
  Cu+  Cu57  1  0.16445861  0.33695803  0.16608305  1
  Cu+  Cu58  1  0.16997669  0.32537345  0.50388903  1
  Cu+  Cu59  1  0.16834975  0.33981840  0.83058507  1
  Cu+  Cu60  1  0.16761668  0.67192767  0.16520357  1
  Cu+  Cu61  1  0.16293850  0.66413003  0.49932410  1
  Cu+  Cu62  1  0.16439851  0.66896884  0.83304862  1
  Cu+  Cu63  1  0.49984898  0.00085596  0.16479813  1
  Cu+  Cu64  1  0.49979298  0.00195749  0.49668354  1
  Cu+  Cu65  1  0.50211594  -0.00225900  0.83321360  1
  Cu+  Cu66  1  0.50295769  0.33405035  0.16424740  1
  Cu+  Cu67  1  0.50189549  0.33583638  0.49859577  1
  Cu+  Cu68  1  0.49767950  0.32802139  0.83463735  1
  Cu+  Cu69  1  0.49295059  0.66769856  0.16699661  1
  Cu+  Cu70  1  0.50393039  0.66495892  0.50098267  1
  Cu+  Cu71  1  0.49977637  0.66348501  0.83454640  1
  Cu+  Cu72  1  0.83096691  0.00293965  0.16369265  1
  Cu+  Cu73  1  0.83438939  -0.00144803  0.49579611  1
  Cu+  Cu74  1  0.83367199  -0.00067779  0.82967790  1
  Cu+  Cu75  1  0.83291801  0.33062621  0.17417250  1
  Cu+  Cu76  1  0.83073577  0.33443648  0.50392229  1
  Cu+  Cu77  1  0.83842684  0.33361733  0.83035961  1
  Cu+  Cu78  1  0.83398070  0.66355293  0.16579322  1
  Cu+  Cu79  1  0.83291386  0.66982177  0.49932934  1
  Cu+  Cu80  1  0.82782132  0.66858170  0.83530423  1
  Cu+  Cu81  1  -0.00251903  0.17057354  0.16710503  1
  Cu+  Cu82  1  0.00138967  0.16195202  0.50057977  1
  Cu+  Cu83  1  0.00109964  0.17214189  0.84085741  1
  Cu+  Cu84  1  0.00169373  0.49788840  0.17451409  1
  Cu+  Cu85  1  0.00417837  0.50102380  0.49572970  1
  Cu+  Cu86  1  -0.00322768  0.50015077  0.82857262  1
  Cu+  Cu87  1  -0.00159117  0.83333060  0.16544539  1
  Cu+  Cu88  1  -0.00126497  0.84149223  0.49530756  1
  Cu+  Cu89  1  -0.00087073  0.83475615  0.82989246  1
  Cu+  Cu90  1  0.33248969  0.16994535  0.16364273  1
  Cu+  Cu91  1  0.33864789  0.16234361  0.50571097  1
  Cu+  Cu92  1  0.33282186  0.16226267  0.83043183  1
  Cu+  Cu93  1  0.33195837  0.50672359  0.16657585  1
  Cu+  Cu94  1  0.33493086  0.49954013  0.50093263  1
  Cu+  Cu95  1  0.33298983  0.50418261  0.82861124  1
  Cu+  Cu96  1  0.33516036  0.83066615  0.17043894  1
  Cu+  Cu97  1  0.33139813  0.83041596  0.49888090  1
  Cu+  Cu98  1  0.33306687  0.83471849  0.83862041  1
  Cu+  Cu99  1  0.66543619  0.16709331  0.16311180  1
  Cu+  Cu100  1  0.66427392  0.16890134  0.49919012  1
  Cu+  Cu101  1  0.66611871  0.16578137  0.83142258  1
  Cu+  Cu102  1  0.66686778  0.49064815  0.16409435  1
  Cu+  Cu103  1  0.66815870  0.49775484  0.50446404  1
  Cu+  Cu104  1  0.66268492  0.50172355  0.83953625  1
  Cu+  Cu105  1  0.66371308  0.83239373  0.16572669  1
  Cu+  Cu106  1  0.66813674  0.83288001  0.49437926  1
  Cu+  Cu107  1  0.66983031  0.82867372  0.83284556  1
  Cu+  Cu108  1  0.07602978  0.59427318  0.40735595  1
  Cu+  Cu109  1  0.92402524  0.59736038  0.25547804  1
  Cu+  Cu110  1  0.26615951  0.25849506  0.59076059  1
  Cu+  Cu111  1  0.92386394  0.92842843  0.59271382  1
  Cu+  Cu112  1  0.74325924  0.74480562  0.93109408  1
  Cu+  Cu113  1  0.25504575  0.06967404  0.74602041  1
  Cu+  Cu114  1  0.40442658  0.73892618  0.26458319  1
  Cu+  Cu115  1  0.26541578  0.92847017  0.93334067  1
  Cu+  Cu116  1  0.07028988  0.07226994  0.92734198  1
  Cu+  Cu117  1  0.07417055  0.92933983  0.40080025  1
  Cu+  Cu118  1  0.40344315  0.59462352  0.07363096  1
  Cu+  Cu119  1  0.73579033  0.92943754  0.40407910  1
  Cu+  Cu120  1  0.73928382  0.74436573  0.58805082  1
  Cu+  Cu121  1  0.73570422  0.40471498  0.26269128  1
  Cu+  Cu122  1  0.41765068  0.06896648  0.59433626  1
  Cu+  Cu123  1  0.59290874  0.40218577  0.07083352  1
  Cu+  Cu124  1  0.59064168  0.59276512  0.93226762  1
  Cu+  Cu125  1  0.92748395  0.40525969  0.73648572  1
  Cu+  Cu126  1  0.92625552  0.26686254  0.92951119  1
  Cu+  Cu127  1  0.08065934  0.40355255  0.26363109  1
  Cu+  Cu128  1  0.40640408  0.59711596  0.73715612  1
  Cu+  Cu129  1  0.92902234  0.25030659  0.26844322  1
  Cu+  Cu130  1  0.73684275  0.40441393  0.59852356  1
  Cu+  Cu131  1  0.26466501  0.40940004  0.74325047  1
  Cu+  Cu132  1  0.26337334  0.91318279  0.59199053  1
  Te2-  Te133  1  0.24797073  0.25442333  0.08006426  1
  Te2-  Te134  1  0.25562132  0.24576203  0.41723553  1
  Te2-  Te135  1  0.25750207  0.25615168  0.74812000  1
  Te2-  Te136  1  0.24934900  0.58991399  0.07869991  1
  Te2-  Te137  1  0.25168240  0.58324750  0.41511478  1
  Te2-  Te138  1  0.25066390  0.59213699  0.74456015  1
  Te2-  Te139  1  0.25673239  0.92127293  0.08500844  1
  Te2-  Te140  1  0.25304144  0.91612161  0.41162492  1
  Te2-  Te141  1  0.25521456  0.91915734  0.74668995  1
  Te2-  Te142  1  0.58609529  0.25115926  0.07548142  1
  Te2-  Te143  1  0.58561363  0.25444425  0.41299465  1
  Te2-  Te144  1  0.58349256  0.25001770  0.74704581  1
  Te2-  Te145  1  0.58980683  0.58906224  0.08614486  1
  Te2-  Te146  1  0.59062163  0.58533198  0.41767445  1
  Te2-  Te147  1  0.58620854  0.58418876  0.74778668  1
  Te2-  Te148  1  0.58512558  0.91905212  0.08071995  1
  Te2-  Te149  1  0.58278652  0.91895992  0.41044442  1
  Te2-  Te150  1  0.58754216  0.91580971  0.75007832  1
  Te2-  Te151  1  0.91993871  0.25766610  0.08085214  1
  Te2-  Te152  1  0.92024158  0.25285044  0.41992628  1
  Te2-  Te153  1  0.92408887  0.25098531  0.74295852  1
  Te2-  Te154  1  0.92137124  0.58108345  0.08349002  1
  Te2-  Te155  1  0.91896691  0.58779781  0.41255643  1
  Te2-  Te156  1  0.91272724  0.58751651  0.74813551  1
  Te2-  Te157  1  0.91662200  0.91918816  0.08061350  1
  Te2-  Te158  1  0.91919137  0.92299243  0.40432246  1
  Te2-  Te159  1  0.91942983  0.92000995  0.74449470  1
  Te2-  Te160  1  0.25343887  0.08318076  0.24972752  1
  Te2-  Te161  1  0.25722955  0.07005806  0.58913662  1
  Te2-  Te162  1  0.25591111  0.08411042  0.92663334  1
  Te2-  Te163  1  0.25227944  0.41829490  0.25162656  1
  Te2-  Te164  1  0.25767208  0.41142022  0.58687100  1
  Te2-  Te165  1  0.25231222  0.42023831  0.91831533  1
  Te2-  Te166  1  0.25045299  0.74763621  0.25619227  1
  Te2-  Te167  1  0.24953802  0.74455470  0.58408536  1
  Te2-  Te168  1  0.24986045  0.74754578  0.91946982  1
  Te2-  Te169  1  0.58419731  0.08317845  0.24965074  1
  Te2-  Te170  1  0.58626719  0.08050179  0.58439686  1
  Te2-  Te171  1  0.58592903  0.08075208  0.91763410  1
  Te2-  Te172  1  0.58326220  0.41300346  0.25722584  1
  Te2-  Te173  1  0.58393846  0.41366543  0.59041756  1
  Te2-  Te174  1  0.58341721  0.40968782  0.91974236  1
  Te2-  Te175  1  0.58511817  0.74492329  0.25072767  1
  Te2-  Te176  1  0.58682363  0.74806806  0.58610783  1
  Te2-  Te177  1  0.58725620  0.74519017  0.92245328  1
  Te2-  Te178  1  0.91699133  0.08197951  0.25106687  1
  Te2-  Te179  1  0.91836499  0.08042437  0.58638141  1
  Te2-  Te180  1  0.91805060  0.07807207  0.91891042  1
  Te2-  Te181  1  0.92439289  0.40715269  0.25914662  1
  Te2-  Te182  1  0.92345895  0.41459217  0.58336105  1
  Te2-  Te183  1  0.91993120  0.41787073  0.92163190  1
  Te2-  Te184  1  0.91713401  0.75007617  0.25346964  1
  Te2-  Te185  1  0.92416997  0.74875843  0.57918765  1
  Te2-  Te186  1  0.92020332  0.74794220  0.91610264  1
  Te2-  Te187  1  0.08196226  0.25204382  0.25782531  1
  Te2-  Te188  1  0.08203835  0.24523997  0.58788106  1
  Te2-  Te189  1  0.08415064  0.26213559  0.92027775  1
  Te2-  Te190  1  0.07971682  0.59424316  0.25419473  1
  Te2-  Te191  1  0.08281304  0.58165542  0.58857664  1
  Te2-  Te192  1  0.07702252  0.58710859  0.91451981  1
  Te2-  Te193  1  0.07877689  0.92168949  0.24903779  1
  Te2-  Te194  1  0.07826014  0.92026380  0.58932083  1
  Te2-  Te195  1  0.07630422  0.91890922  0.92088138  1
  Te2-  Te196  1  0.41400476  0.25553637  0.24876097  1
  Te2-  Te197  1  0.41761331  0.25657786  0.58708023  1
  Te2-  Te198  1  0.41095660  0.24868508  0.91788981  1
  Te2-  Te199  1  0.41322060  0.58497697  0.25872668  1
  Te2-  Te200  1  0.41275131  0.58881964  0.58500517  1
  Te2-  Te201  1  0.41072263  0.58593170  0.92162558  1
  Te2-  Te202  1  0.41549204  0.92087546  0.25151687  1
  Te2-  Te203  1  0.41576296  0.91648400  0.58759402  1
  Te2-  Te204  1  0.41742187  0.92017128  0.92177718  1
  Te2-  Te205  1  0.74145235  0.25041165  0.25486999  1
  Te2-  Te206  1  0.74510730  0.25129031  0.58810009  1
  Te2-  Te207  1  0.74815231  0.25334939  0.91424779  1
  Te2-  Te208  1  0.74545572  0.58147969  0.24933115  1
  Te2-  Te209  1  0.74954458  0.58660623  0.58730115  1
  Te2-  Te210  1  0.74630345  0.58619168  0.92525624  1
  Te2-  Te211  1  0.74340361  0.92249402  0.24846887  1
  Te2-  Te212  1  0.74717819  0.91927132  0.58234818  1
  Te2-  Te213  1  0.74924951  0.91853035  0.91642584  1
  Te2-  Te214  1  0.07622218  0.08107032  0.08304362  1
  Te2-  Te215  1  0.08200305  0.07930540  0.41417637  1
  Te2-  Te216  1  0.08324811  0.08409508  0.75216666  1
  Te2-  Te217  1  0.08088376  0.41966515  0.07964340  1
  Te2-  Te218  1  0.08270695  0.40521945  0.41794643  1
  Te2-  Te219  1  0.07910343  0.41402972  0.74427121  1
  Te2-  Te220  1  0.08227188  0.75189117  0.07936867  1
  Te2-  Te221  1  0.07635804  0.74719213  0.41319314  1
  Te2-  Te222  1  0.08197673  0.75057076  0.74701718  1
  Te2-  Te223  1  0.41335019  0.08177062  0.08049442  1
  Te2-  Te224  1  0.41549613  0.08323275  0.41011175  1
  Te2-  Te225  1  0.41320644  0.07383110  0.74634236  1
  Te2-  Te226  1  0.41268078  0.41674564  0.08334298  1
  Te2-  Te227  1  0.41623153  0.41679626  0.41482635  1
  Te2-  Te228  1  0.41599257  0.41108518  0.74794823  1
  Te2-  Te229  1  0.41043468  0.74816205  0.07654821  1
  Te2-  Te230  1  0.41432106  0.74475766  0.41716483  1
  Te2-  Te231  1  0.41224338  0.74851165  0.74955898  1
  Te2-  Te232  1  0.74902534  0.08537000  0.07691846  1
  Te2-  Te233  1  0.74549366  0.08292659  0.41327228  1
  Te2-  Te234  1  0.74834937  0.08145729  0.74724859  1
  Te2-  Te235  1  0.75026492  0.40702431  0.07881697  1
  Te2-  Te236  1  0.74783267  0.41385089  0.41424037  1
  Te2-  Te237  1  0.74161376  0.41241462  0.75215008  1
  Te2-  Te238  1  0.74701269  0.74536541  0.08277301  1
  Te2-  Te239  1  0.74710620  0.74461628  0.40952438  1
  Te2-  Te240  1  0.74779612  0.74620783  0.74143199  1
