# generated using pymatgen
data_Ti27(Cu53Te54)2
_symmetry_space_group_name_H-M   'P 1'
_cell_length_a   17.87507448
_cell_length_b   17.87323430
_cell_length_c   17.87538504
_cell_angle_alpha   89.99479300
_cell_angle_beta   90.00553112
_cell_angle_gamma   89.98787611
_symmetry_Int_Tables_number   1
_chemical_formula_structural   Ti27(Cu53Te54)2
_chemical_formula_sum   'Ti27 Cu106 Te108'
_cell_volume   5710.92425766
_cell_formula_units_Z   1
loop_
 _symmetry_equiv_pos_site_id
 _symmetry_equiv_pos_as_xyz
  1  'x, y, z'
loop_
 _atom_type_symbol
 _atom_type_oxidation_number
  Ti4+  4.0
  Cu+  1.0
  Te2-  -2.0
loop_
 _atom_site_type_symbol
 _atom_site_label
 _atom_site_symmetry_multiplicity
 _atom_site_fract_x
 _atom_site_fract_y
 _atom_site_fract_z
 _atom_site_occupancy
  Ti4+  Ti0  1  0.16758310  0.16733062  0.16695959  1
  Ti4+  Ti1  1  0.16511552  0.16853837  0.50253772  1
  Ti4+  Ti2  1  0.16909462  0.16256780  0.83705163  1
  Ti4+  Ti3  1  0.16998983  0.49960563  0.16357356  1
  Ti4+  Ti4  1  0.16691690  0.50148723  0.49773831  1
  Ti4+  Ti5  1  0.16686578  0.50053230  0.83368247  1
  Ti4+  Ti6  1  0.16767685  0.83140501  0.16757594  1
  Ti4+  Ti7  1  0.16315077  0.83598923  0.50255446  1
  Ti4+  Ti8  1  0.16710079  0.83246640  0.83528082  1
  Ti4+  Ti9  1  0.49798185  0.16698281  0.16832207  1
  Ti4+  Ti10  1  0.49931224  0.16450381  0.50095472  1
  Ti4+  Ti11  1  0.50230083  0.16652452  0.83258912  1
  Ti4+  Ti12  1  0.50173767  0.50055611  0.16988535  1
  Ti4+  Ti13  1  0.50038746  0.49997973  0.49995788  1
  Ti4+  Ti14  1  0.50214563  0.49935729  0.83206176  1
  Ti4+  Ti15  1  0.50112846  0.83276875  0.16611099  1
  Ti4+  Ti16  1  0.49826621  0.83140046  0.49866473  1
  Ti4+  Ti17  1  0.50003217  0.83233838  0.83076082  1
  Ti4+  Ti18  1  0.82997046  0.16699607  0.16492206  1
  Ti4+  Ti19  1  0.83181372  0.17019942  0.49580635  1
  Ti4+  Ti20  1  0.83277649  0.16375421  0.83178540  1
  Ti4+  Ti21  1  0.83366727  0.49666284  0.16264989  1
  Ti4+  Ti22  1  0.83434730  0.49837852  0.50116115  1
  Ti4+  Ti23  1  0.82903154  0.50412908  0.83643459  1
  Ti4+  Ti24  1  0.83504306  0.83465255  0.16575440  1
  Ti4+  Ti25  1  0.83302666  0.83326283  0.49759568  1
  Ti4+  Ti26  1  0.83247212  0.83438759  0.83343645  1
  Cu+  Cu27  1  0.17189677  0.16583329  0.00072293  1
  Cu+  Cu28  1  0.16510126  0.16828043  0.33553562  1
  Cu+  Cu29  1  0.16470374  0.16552503  0.67347683  1
  Cu+  Cu30  1  0.16568167  0.50345757  0.00161381  1
  Cu+  Cu31  1  0.16941455  0.50304735  0.32940873  1
  Cu+  Cu32  1  0.16684497  0.49922655  0.66264017  1
  Cu+  Cu33  1  0.17159808  0.82891875  0.00218589  1
  Cu+  Cu34  1  0.16722863  0.83335681  0.33744380  1
  Cu+  Cu35  1  0.16312258  0.83624924  0.66887443  1
  Cu+  Cu36  1  0.49731134  0.16672436  0.00173763  1
  Cu+  Cu37  1  0.49832926  0.16503626  0.33547454  1
  Cu+  Cu38  1  0.50632457  0.16448799  0.66621598  1
  Cu+  Cu39  1  0.50835007  0.49973393  0.00439612  1
  Cu+  Cu40  1  0.49741919  0.49779036  0.33440137  1
  Cu+  Cu41  1  0.49646861  0.50185496  0.66689821  1
  Cu+  Cu42  1  0.49971155  0.83738011  -0.00107970  1
  Cu+  Cu43  1  0.50053689  0.82767956  0.33279688  1
  Cu+  Cu44  1  0.49853165  0.83126841  0.66359576  1
  Cu+  Cu45  1  0.82894255  0.16305112  -0.00062496  1
  Cu+  Cu46  1  0.83455953  0.16995845  0.32888664  1
  Cu+  Cu47  1  0.83267257  0.16633428  0.66324947  1
  Cu+  Cu48  1  0.83300671  0.50019093  -0.00492301  1
  Cu+  Cu49  1  0.83358317  0.49443660  0.33334514  1
  Cu+  Cu50  1  0.83182511  0.50217724  0.67226248  1
  Cu+  Cu51  1  0.83524785  0.83695301  -0.00093567  1
  Cu+  Cu52  1  0.83357986  0.83324343  0.33112494  1
  Cu+  Cu53  1  0.83428311  0.83570017  0.66316572  1
  Cu+  Cu54  1  0.16580410  -0.00015672  0.16934088  1
  Cu+  Cu55  1  0.16379298  0.00203661  0.50555360  1
  Cu+  Cu56  1  0.16924083  -0.00175804  0.83666040  1
  Cu+  Cu57  1  0.16885846  0.33514414  0.16555548  1
  Cu+  Cu58  1  0.16314565  0.33672374  0.49743892  1
  Cu+  Cu59  1  0.16999402  0.33023401  0.83864051  1
  Cu+  Cu60  1  0.17202208  0.66534665  0.15883501  1
  Cu+  Cu61  1  0.16680256  0.66833423  0.49911308  1
  Cu+  Cu62  1  0.16595279  0.66898549  0.83182457  1
  Cu+  Cu63  1  0.49892172  -0.00061840  0.16709442  1
  Cu+  Cu64  1  0.49492802  -0.00392295  0.49910909  1
  Cu+  Cu65  1  0.50453948  -0.00040736  0.82823362  1
  Cu+  Cu66  1  0.49951761  0.33373021  0.17032309  1
  Cu+  Cu67  1  0.50124311  0.33103138  0.50288988  1
  Cu+  Cu68  1  0.50128977  0.33234400  0.83108807  1
  Cu+  Cu69  1  0.49718158  0.67010106  0.17094023  1
  Cu+  Cu70  1  0.50415813  0.66658261  0.49560194  1
  Cu+  Cu71  1  0.49961115  0.66353812  0.83099857  1
  Cu+  Cu72  1  0.83229222  0.00010487  0.16287687  1
  Cu+  Cu73  1  0.82999103  0.00204705  0.49424008  1
  Cu+  Cu74  1  0.83344871  0.00006154  0.83922637  1
  Cu+  Cu75  1  0.83060800  0.33219561  0.16939597  1
  Cu+  Cu76  1  0.83650550  0.33074720  0.50419578  1
  Cu+  Cu77  1  0.83096673  0.33530400  0.83101351  1
  Cu+  Cu78  1  0.83411123  0.66643707  0.16430717  1
  Cu+  Cu79  1  0.83514715  0.66516908  0.49964021  1
  Cu+  Cu80  1  0.82446927  0.66904343  0.83725445  1
  Cu+  Cu81  1  -0.00238660  0.16765969  0.16467856  1
  Cu+  Cu82  1  0.00034338  0.17425012  0.49469224  1
  Cu+  Cu83  1  0.00508496  0.16656636  0.83097781  1
  Cu+  Cu84  1  0.00451689  0.50068555  0.16031674  1
  Cu+  Cu85  1  0.00198659  0.49840940  0.50095823  1
  Cu+  Cu86  1  -0.00484874  0.50176382  0.83483571  1
  Cu+  Cu87  1  0.00003020  0.83225359  0.16807653  1
  Cu+  Cu88  1  -0.00193632  0.83661210  0.50075008  1
  Cu+  Cu89  1  0.00040963  0.83877973  0.83494538  1
  Cu+  Cu90  1  0.33309336  0.16633933  0.16799763  1
  Cu+  Cu91  1  0.33285222  0.16488667  0.50314594  1
  Cu+  Cu92  1  0.33423003  0.16621114  0.83918043  1
  Cu+  Cu93  1  0.33715451  0.49906358  0.17119455  1
  Cu+  Cu94  1  0.33330859  0.50238921  0.49913703  1
  Cu+  Cu95  1  0.33528945  0.50017258  0.83011609  1
  Cu+  Cu96  1  0.33444529  0.82789854  0.16549075  1
  Cu+  Cu97  1  0.32742564  0.83299911  0.49911882  1
  Cu+  Cu98  1  0.33444693  0.83220226  0.83381329  1
  Cu+  Cu99  1  0.66295751  0.16607145  0.16667310  1
  Cu+  Cu100  1  0.66421460  0.16764002  0.50215788  1
  Cu+  Cu101  1  0.66626001  0.15729215  0.82898558  1
  Cu+  Cu102  1  0.66755026  0.49396519  0.16413853  1
  Cu+  Cu103  1  0.66686105  0.49815195  0.50034618  1
  Cu+  Cu104  1  0.66534239  0.50793190  0.83952605  1
  Cu+  Cu105  1  0.66752014  0.83778505  0.16569562  1
  Cu+  Cu106  1  0.66651641  0.83116915  0.49621493  1
  Cu+  Cu107  1  0.66801476  0.82975613  0.83263988  1
  Cu+  Cu108  1  0.40282121  0.59291657  0.73801204  1
  Cu+  Cu109  1  0.40558440  0.40314436  0.26372035  1
  Cu+  Cu110  1  0.26652540  0.73774028  0.06835095  1
  Cu+  Cu111  1  0.92117277  0.41235480  0.74677343  1
  Cu+  Cu112  1  0.73942169  0.40245448  0.91926852  1
  Cu+  Cu113  1  0.92752052  0.26118216  0.25179220  1
  Cu+  Cu114  1  0.73544485  0.07178188  0.92891820  1
  Cu+  Cu115  1  0.25434185  0.74068641  0.41083592  1
  Cu+  Cu116  1  0.07792343  0.26425347  0.40235053  1
  Cu+  Cu117  1  0.59491350  0.06682937  0.73318617  1
  Cu+  Cu118  1  0.59162348  0.26348170  0.59510176  1
  Cu+  Cu119  1  0.26334517  0.26007455  0.93013231  1
  Cu+  Cu120  1  0.73962742  0.74682816  0.93305928  1
  Cu+  Cu121  1  0.07732234  0.41085387  0.59107797  1
  Cu+  Cu122  1  0.93200156  0.93099755  0.92705214  1
  Cu+  Cu123  1  0.73975368  0.59716606  0.73627758  1
  Cu+  Cu124  1  0.74000772  0.40634614  0.26485539  1
  Cu+  Cu125  1  0.08286299  0.25976734  0.74921714  1
  Cu+  Cu126  1  0.07381964  0.59662910  0.07528621  1
  Cu+  Cu127  1  0.59900509  0.73926152  0.40405811  1
  Cu+  Cu128  1  0.40450171  0.74322695  0.26178890  1
  Cu+  Cu129  1  0.92648365  0.59757060  0.92158994  1
  Cu+  Cu130  1  0.59046443  0.40088388  0.07702751  1
  Cu+  Cu131  1  0.92728940  0.24953056  0.59411642  1
  Cu+  Cu132  1  0.58293358  0.59884405  0.93338943  1
  Te2-  Te133  1  0.25557210  0.25417710  0.08271504  1
  Te2-  Te134  1  0.25249413  0.25277074  0.41764772  1
  Te2-  Te135  1  0.25476349  0.25057316  0.74971639  1
  Te2-  Te136  1  0.26243195  0.58278727  0.07782685  1
  Te2-  Te137  1  0.25397313  0.58675617  0.41183635  1
  Te2-  Te138  1  0.24949781  0.58579005  0.74570735  1
  Te2-  Te139  1  0.25323426  0.91850993  0.08461640  1
  Te2-  Te140  1  0.24866044  0.92385752  0.41721234  1
  Te2-  Te141  1  0.25253639  0.91721755  0.74957212  1
  Te2-  Te142  1  0.58473958  0.25147737  0.08048056  1
  Te2-  Te143  1  0.58405087  0.25093725  0.41419609  1
  Te2-  Te144  1  0.59102577  0.25402847  0.74839812  1
  Te2-  Te145  1  0.58846654  0.59166652  0.08752707  1
  Te2-  Te146  1  0.58812144  0.58230394  0.41112966  1
  Te2-  Te147  1  0.58778364  0.58685439  0.74297441  1
  Te2-  Te148  1  0.58467798  0.92044409  0.08103530  1
  Te2-  Te149  1  0.58245055  0.91778721  0.41271889  1
  Te2-  Te150  1  0.58843268  0.91405502  0.74357435  1
  Te2-  Te151  1  0.91464686  0.25223005  0.07766078  1
  Te2-  Te152  1  0.91986432  0.25994845  0.40764637  1
  Te2-  Te153  1  0.92023181  0.25420651  0.74695390  1
  Te2-  Te154  1  0.91903794  0.58733130  0.07695252  1
  Te2-  Te155  1  0.91819677  0.58085980  0.41430519  1
  Te2-  Te156  1  0.91673461  0.59276230  0.75074318  1
  Te2-  Te157  1  0.92280710  0.92119042  0.08078492  1
  Te2-  Te158  1  0.91769943  0.91964735  0.41240044  1
  Te2-  Te159  1  0.91653912  0.92108244  0.74796335  1
  Te2-  Te160  1  0.25058720  0.08283326  0.25445130  1
  Te2-  Te161  1  0.24956921  0.08333183  0.58949813  1
  Te2-  Te162  1  0.25579886  0.07631125  0.92226871  1
  Te2-  Te163  1  0.25323958  0.41261713  0.25403801  1
  Te2-  Te164  1  0.25336050  0.41401363  0.58255995  1
  Te2-  Te165  1  0.25406456  0.41814707  0.91966182  1
  Te2-  Te166  1  0.25186860  0.74229076  0.25567979  1
  Te2-  Te167  1  0.24852838  0.74942752  0.58902617  1
  Te2-  Te168  1  0.25614925  0.74361735  0.91741634  1
  Te2-  Te169  1  0.58297411  0.08069662  0.25301822  1
  Te2-  Te170  1  0.58706975  0.07265894  0.58229592  1
  Te2-  Te171  1  0.58348022  0.07886814  0.92287104  1
  Te2-  Te172  1  0.58759379  0.41256233  0.25734485  1
  Te2-  Te173  1  0.58549854  0.41635766  0.58883316  1
  Te2-  Te174  1  0.58793560  0.40882287  0.91953057  1
  Te2-  Te175  1  0.59206979  0.74660476  0.25048187  1
  Te2-  Te176  1  0.58599230  0.74725287  0.58431289  1
  Te2-  Te177  1  0.58479747  0.74779613  0.92168687  1
  Te2-  Te178  1  0.91672340  0.08049383  0.24897411  1
  Te2-  Te179  1  0.91891072  0.08345332  0.57870339  1
  Te2-  Te180  1  0.92361278  0.08446123  0.91978481  1
  Te2-  Te181  1  0.92449017  0.41633005  0.24840781  1
  Te2-  Te182  1  0.92095553  0.41282182  0.59211452  1
  Te2-  Te183  1  0.91890143  0.41103178  0.91895401  1
  Te2-  Te184  1  0.91808045  0.74644606  0.25115279  1
  Te2-  Te185  1  0.91887950  0.74838901  0.58412056  1
  Te2-  Te186  1  0.92039006  0.74823885  0.91880500  1
  Te2-  Te187  1  0.08031764  0.25658267  0.25093637  1
  Te2-  Te188  1  0.07841339  0.25713454  0.59346532  1
  Te2-  Te189  1  0.08095110  0.25021230  0.92261793  1
  Te2-  Te190  1  0.08379374  0.58707018  0.24771421  1
  Te2-  Te191  1  0.08153175  0.58804797  0.58428538  1
  Te2-  Te192  1  0.08049941  0.58912438  0.91826104  1
  Te2-  Te193  1  0.08229628  0.91614003  0.25329280  1
  Te2-  Te194  1  0.07711276  0.92105839  0.58846844  1
  Te2-  Te195  1  0.08487075  0.91898539  0.92502312  1
  Te2-  Te196  1  0.41225403  0.25163885  0.25601012  1
  Te2-  Te197  1  0.41502457  0.24942215  0.58882350  1
  Te2-  Te198  1  0.41747397  0.25479467  0.92011507  1
  Te2-  Te199  1  0.41367022  0.58743983  0.25663160  1
  Te2-  Te200  1  0.41444070  0.58931820  0.58307125  1
  Te2-  Te201  1  0.41744790  0.58190447  0.92187293  1
  Te2-  Te202  1  0.41425255  0.91582127  0.25211130  1
  Te2-  Te203  1  0.41088469  0.91518598  0.58454034  1
  Te2-  Te204  1  0.41695102  0.92044149  0.91426523  1
  Te2-  Te205  1  0.74103382  0.25198226  0.25327323  1
  Te2-  Te206  1  0.74501529  0.25417611  0.58784536  1
  Te2-  Te207  1  0.74489576  0.24931066  0.91515504  1
  Te2-  Te208  1  0.74994317  0.58167217  0.24890436  1
  Te2-  Te209  1  0.74754303  0.58565142  0.58408261  1
  Te2-  Te210  1  0.74076122  0.59252123  0.93038974  1
  Te2-  Te211  1  0.74956991  0.92016646  0.25122479  1
  Te2-  Te212  1  0.74666399  0.91914287  0.58126629  1
  Te2-  Te213  1  0.74226224  0.91911999  0.92064570  1
  Te2-  Te214  1  0.08260967  0.08271810  0.08190766  1
  Te2-  Te215  1  0.08034118  0.08180920  0.41693474  1
  Te2-  Te216  1  0.08220492  0.07523110  0.75053616  1
  Te2-  Te217  1  0.08374810  0.41181525  0.07834079  1
  Te2-  Te218  1  0.07956494  0.41790990  0.40704170  1
  Te2-  Te219  1  0.07862489  0.41345158  0.74838195  1
  Te2-  Te220  1  0.07840754  0.74824696  0.07955630  1
  Te2-  Te221  1  0.07785123  0.74917279  0.41599652  1
  Te2-  Te222  1  0.07846117  0.75029867  0.74942608  1
  Te2-  Te223  1  0.41341648  0.08066016  0.08288199  1
  Te2-  Te224  1  0.41184368  0.08049537  0.41553157  1
  Te2-  Te225  1  0.41467569  0.08336256  0.74829063  1
  Te2-  Te226  1  0.41711761  0.41646238  0.08075905  1
  Te2-  Te227  1  0.41341922  0.41118536  0.41777804  1
  Te2-  Te228  1  0.41570844  0.41250265  0.74717369  1
  Te2-  Te229  1  0.41763442  0.74553165  0.07519275  1
  Te2-  Te230  1  0.40877138  0.74314773  0.41409766  1
  Te2-  Te231  1  0.41331838  0.74616694  0.74618628  1
  Te2-  Te232  1  0.74207949  0.07869982  0.08144304  1
  Te2-  Te233  1  0.74612770  0.08660816  0.41125066  1
  Te2-  Te234  1  0.75201566  0.07548468  0.74218276  1
  Te2-  Te235  1  0.74775612  0.40874911  0.07416401  1
  Te2-  Te236  1  0.74790134  0.40994228  0.41822401  1
  Te2-  Te237  1  0.74067045  0.41700373  0.74995989  1
  Te2-  Te238  1  0.74666735  0.74894167  0.08226237  1
  Te2-  Te239  1  0.75016726  0.74381877  0.41061670  1
  Te2-  Te240  1  0.74764532  0.75001184  0.74173698  1
