# generated using pymatgen
data_Ti27(Cu53Te54)2
_symmetry_space_group_name_H-M   'P 1'
_cell_length_a   17.87231768
_cell_length_b   17.87411997
_cell_length_c   17.87478720
_cell_angle_alpha   89.97754199
_cell_angle_beta   90.00182957
_cell_angle_gamma   90.03976383
_symmetry_Int_Tables_number   1
_chemical_formula_structural   Ti27(Cu53Te54)2
_chemical_formula_sum   'Ti27 Cu106 Te108'
_cell_volume   5710.13381537
_cell_formula_units_Z   1
loop_
 _symmetry_equiv_pos_site_id
 _symmetry_equiv_pos_as_xyz
  1  'x, y, z'
loop_
 _atom_type_symbol
 _atom_type_oxidation_number
  Ti4+  4.0
  Cu+  1.0
  Te2-  -2.0
loop_
 _atom_site_type_symbol
 _atom_site_label
 _atom_site_symmetry_multiplicity
 _atom_site_fract_x
 _atom_site_fract_y
 _atom_site_fract_z
 _atom_site_occupancy
  Ti4+  Ti0  1  0.16490002  0.16616853  0.16704025  1
  Ti4+  Ti1  1  0.16476938  0.16779846  0.50146416  1
  Ti4+  Ti2  1  0.16597513  0.16530167  0.83338835  1
  Ti4+  Ti3  1  0.16850376  0.49888630  0.16852582  1
  Ti4+  Ti4  1  0.16715209  0.49766183  0.49632543  1
  Ti4+  Ti5  1  0.16886578  0.50312932  0.83021231  1
  Ti4+  Ti6  1  0.16620260  0.83164319  0.16785226  1
  Ti4+  Ti7  1  0.16798825  0.83331076  0.49886496  1
  Ti4+  Ti8  1  0.16492892  0.83626848  0.83795761  1
  Ti4+  Ti9  1  0.49975609  0.17010345  0.16600751  1
  Ti4+  Ti10  1  0.49974824  0.16622939  0.50422078  1
  Ti4+  Ti11  1  0.50479974  0.16499678  0.83540440  1
  Ti4+  Ti12  1  0.50182530  0.50085653  0.16720200  1
  Ti4+  Ti13  1  0.49931613  0.49961870  0.50287266  1
  Ti4+  Ti14  1  0.49695643  0.49642692  0.83366697  1
  Ti4+  Ti15  1  0.49951188  0.83472878  0.16657671  1
  Ti4+  Ti16  1  0.49760860  0.83406715  0.49838436  1
  Ti4+  Ti17  1  0.50195996  0.83291848  0.83387995  1
  Ti4+  Ti18  1  0.83112130  0.16721012  0.16698356  1
  Ti4+  Ti19  1  0.83137503  0.16560001  0.49798849  1
  Ti4+  Ti20  1  0.83600346  0.16773876  0.83258758  1
  Ti4+  Ti21  1  0.83591229  0.49967317  0.16375292  1
  Ti4+  Ti22  1  0.83333268  0.50084914  0.49791184  1
  Ti4+  Ti23  1  0.83422759  0.49961506  0.83089405  1
  Ti4+  Ti24  1  0.83252445  0.82831662  0.16948957  1
  Ti4+  Ti25  1  0.83040538  0.83356741  0.50204627  1
  Ti4+  Ti26  1  0.83362072  0.83387918  0.83388396  1
  Cu+  Cu27  1  0.16524487  0.16265903  0.00022685  1
  Cu+  Cu28  1  0.16423939  0.16627566  0.33554910  1
  Cu+  Cu29  1  0.16292871  0.17126988  0.66813890  1
  Cu+  Cu30  1  0.16890811  0.50186448  -0.00262410  1
  Cu+  Cu31  1  0.16791079  0.48799397  0.33252712  1
  Cu+  Cu32  1  0.17002682  0.50579944  0.66093737  1
  Cu+  Cu33  1  0.16575262  0.83391015  0.00243846  1
  Cu+  Cu34  1  0.17244969  0.83374995  0.33069233  1
  Cu+  Cu35  1  0.16565135  0.83532425  0.67129461  1
  Cu+  Cu36  1  0.50593565  0.16418920  0.00252854  1
  Cu+  Cu37  1  0.49888870  0.16878676  0.33550452  1
  Cu+  Cu38  1  0.50183157  0.16518400  0.67332026  1
  Cu+  Cu39  1  0.50157394  0.49824011  0.00013883  1
  Cu+  Cu40  1  0.50087290  0.50298680  0.33415224  1
  Cu+  Cu41  1  0.49462079  0.49183380  0.66819970  1
  Cu+  Cu42  1  0.50221753  0.83102030  0.00027688  1
  Cu+  Cu43  1  0.49658622  0.83442718  0.33118326  1
  Cu+  Cu44  1  0.49990624  0.83678556  0.66176348  1
  Cu+  Cu45  1  0.83021098  0.17055594  0.00189803  1
  Cu+  Cu46  1  0.83131581  0.16400481  0.33268859  1
  Cu+  Cu47  1  0.83678497  0.16779378  0.66158803  1
  Cu+  Cu48  1  0.83498650  0.49897624  -0.00633167  1
  Cu+  Cu49  1  0.83415133  0.49972068  0.32907321  1
  Cu+  Cu50  1  0.83307571  0.50117290  0.66508302  1
  Cu+  Cu51  1  0.83313499  0.83126064  0.00017913  1
  Cu+  Cu52  1  0.83029577  0.83166838  0.33899737  1
  Cu+  Cu53  1  0.83266016  0.83290692  0.66883593  1
  Cu+  Cu54  1  0.16668411  -0.00248425  0.16989344  1
  Cu+  Cu55  1  0.16450932  0.00346042  0.50168529  1
  Cu+  Cu56  1  0.15827417  0.00024592  0.83694298  1
  Cu+  Cu57  1  0.16461289  0.33211736  0.16985627  1
  Cu+  Cu58  1  0.16838195  0.33330014  0.49330642  1
  Cu+  Cu59  1  0.16774234  0.33736028  0.83065846  1
  Cu+  Cu60  1  0.16262753  0.66070145  0.16508131  1
  Cu+  Cu61  1  0.17112408  0.66668206  0.49490419  1
  Cu+  Cu62  1  0.17077015  0.67376581  0.83311875  1
  Cu+  Cu63  1  0.49998564  0.00472684  0.16393383  1
  Cu+  Cu64  1  0.49993867  -0.00142851  0.50507798  1
  Cu+  Cu65  1  0.50552173  -0.00018105  0.83410140  1
  Cu+  Cu66  1  0.50013192  0.33544114  0.16968376  1
  Cu+  Cu67  1  0.49697691  0.33393799  0.50786646  1
  Cu+  Cu68  1  0.50129491  0.33054155  0.82880226  1
  Cu+  Cu69  1  0.50125095  0.66764383  0.16394986  1
  Cu+  Cu70  1  0.49876198  0.66862029  0.49903621  1
  Cu+  Cu71  1  0.49774469  0.66450997  0.83551253  1
  Cu+  Cu72  1  0.83045620  -0.00290832  0.17055547  1
  Cu+  Cu73  1  0.82596017  -0.00154528  0.49606042  1
  Cu+  Cu74  1  0.83574265  0.00045501  0.83642167  1
  Cu+  Cu75  1  0.82572641  0.33269457  0.16535957  1
  Cu+  Cu76  1  0.83451095  0.33284262  0.49761234  1
  Cu+  Cu77  1  0.83465380  0.33504468  0.83189122  1
  Cu+  Cu78  1  0.84292911  0.66574041  0.16383679  1
  Cu+  Cu79  1  0.83354157  0.66942562  0.49876601  1
  Cu+  Cu80  1  0.83307977  0.66462086  0.83282791  1
  Cu+  Cu81  1  -0.00451293  0.16611539  0.16667617  1
  Cu+  Cu82  1  -0.00409892  0.16895837  0.50239897  1
  Cu+  Cu83  1  0.00340566  0.16650175  0.83413610  1
  Cu+  Cu84  1  0.00401976  0.50412172  0.16905624  1
  Cu+  Cu85  1  0.00178534  0.50047553  0.49720937  1
  Cu+  Cu86  1  -0.00070268  0.50152635  0.83122055  1
  Cu+  Cu87  1  -0.00059167  0.82746716  0.16726289  1
  Cu+  Cu88  1  -0.00129006  0.83153101  0.50241925  1
  Cu+  Cu89  1  0.00041098  0.83953781  0.83465776  1
  Cu+  Cu90  1  0.33240069  0.16972975  0.16729775  1
  Cu+  Cu91  1  0.33172755  0.16440764  0.50373184  1
  Cu+  Cu92  1  0.33487431  0.16684229  0.83720754  1
  Cu+  Cu93  1  0.33623827  0.50120824  0.16763781  1
  Cu+  Cu94  1  0.33145803  0.49552544  0.50218096  1
  Cu+  Cu95  1  0.33477474  0.50609568  0.83093276  1
  Cu+  Cu96  1  0.33274200  0.83636668  0.17115232  1
  Cu+  Cu97  1  0.33197014  0.83037355  0.49325828  1
  Cu+  Cu98  1  0.33381839  0.83454446  0.83575772  1
  Cu+  Cu99  1  0.66645757  0.17021274  0.16063150  1
  Cu+  Cu100  1  0.66632117  0.16703382  0.50081404  1
  Cu+  Cu101  1  0.66919675  0.16236301  0.83309036  1
  Cu+  Cu102  1  0.66916880  0.49784836  0.16807531  1
  Cu+  Cu103  1  0.66767504  0.50116458  0.49945569  1
  Cu+  Cu104  1  0.66601055  0.49547889  0.83187200  1
  Cu+  Cu105  1  0.66378026  0.82869779  0.16456467  1
  Cu+  Cu106  1  0.66445642  0.83996934  0.49975915  1
  Cu+  Cu107  1  0.67071787  0.83250341  0.83564085  1
  Cu+  Cu108  1  0.07069392  0.40120421  0.25784056  1
  Cu+  Cu109  1  0.59746765  0.40645754  0.73918400  1
  Cu+  Cu110  1  0.07659811  0.58607458  0.06727693  1
  Cu+  Cu111  1  0.73734930  0.26447743  0.06704353  1
  Cu+  Cu112  1  0.92800388  0.74548487  0.06727698  1
  Cu+  Cu113  1  0.92775537  0.74336784  0.41366687  1
  Cu+  Cu114  1  0.92897009  0.59100283  0.26087830  1
  Cu+  Cu115  1  0.39976983  0.40295026  0.59459583  1
  Cu+  Cu116  1  0.26634207  0.39997852  0.40300954  1
  Cu+  Cu117  1  0.26157784  0.93138913  0.26084983  1
  Cu+  Cu118  1  0.59116242  0.73552799  0.07106112  1
  Cu+  Cu119  1  0.25939894  0.59581297  0.58459908  1
  Cu+  Cu120  1  0.73508871  0.92720233  0.40252845  1
  Cu+  Cu121  1  0.73808971  0.40579981  0.26106734  1
  Cu+  Cu122  1  0.59745125  0.07163230  0.07753853  1
  Cu+  Cu123  1  0.40607701  0.25204051  0.74470670  1
  Cu+  Cu124  1  0.59844902  0.07052829  0.74218291  1
  Cu+  Cu125  1  0.07108833  0.92658355  0.73738874  1
  Cu+  Cu126  1  0.07364240  0.26704616  0.74636978  1
  Cu+  Cu127  1  0.59401475  0.92579380  0.59347216  1
  Cu+  Cu128  1  0.26060835  0.75157492  0.74306593  1
  Cu+  Cu129  1  0.07011143  0.07444082  0.93271596  1
  Cu+  Cu130  1  0.26175782  0.73636097  0.39943676  1
  Cu+  Cu131  1  0.41707466  0.59616716  0.73873582  1
  Cu+  Cu132  1  0.92318203  0.26434697  0.58926886  1
  Te2-  Te133  1  0.24810682  0.25199341  0.08099123  1
  Te2-  Te134  1  0.25538394  0.24826997  0.41306472  1
  Te2-  Te135  1  0.25330723  0.25263975  0.74835510  1
  Te2-  Te136  1  0.25456904  0.58425996  0.08194903  1
  Te2-  Te137  1  0.25602626  0.58186614  0.40861134  1
  Te2-  Te138  1  0.25631815  0.59288536  0.74310642  1
  Te2-  Te139  1  0.25139569  0.91809255  0.08240273  1
  Te2-  Te140  1  0.25183818  0.92442953  0.41547691  1
  Te2-  Te141  1  0.25136040  0.92300040  0.75224989  1
  Te2-  Te142  1  0.58473430  0.26022673  0.07839273  1
  Te2-  Te143  1  0.58221806  0.25403102  0.41964969  1
  Te2-  Te144  1  0.59307967  0.25175667  0.74665523  1
  Te2-  Te145  1  0.58950647  0.58337127  0.07924265  1
  Te2-  Te146  1  0.58444135  0.58553990  0.41727251  1
  Te2-  Te147  1  0.58199728  0.58278601  0.74614443  1
  Te2-  Te148  1  0.58731781  0.91985511  0.07974085  1
  Te2-  Te149  1  0.58133781  0.92262469  0.41010433  1
  Te2-  Te150  1  0.59095739  0.91763184  0.74740267  1
  Te2-  Te151  1  0.91724644  0.25437920  0.08277651  1
  Te2-  Te152  1  0.91718367  0.25072629  0.41065855  1
  Te2-  Te153  1  0.92209002  0.25504748  0.74560199  1
  Te2-  Te154  1  0.92325603  0.58486708  0.07268622  1
  Te2-  Te155  1  0.92172870  0.58751548  0.41256174  1
  Te2-  Te156  1  0.91893485  0.58621332  0.74547861  1
  Te2-  Te157  1  0.91650268  0.91632594  0.08553290  1
  Te2-  Te158  1  0.91891612  0.91880111  0.41612378  1
  Te2-  Te159  1  0.91769810  0.92196158  0.74601717  1
  Te2-  Te160  1  0.25233575  0.08326874  0.25424566  1
  Te2-  Te161  1  0.24847638  0.08274113  0.58917891  1
  Te2-  Te162  1  0.25261402  0.07932506  0.91782777  1
  Te2-  Te163  1  0.25938515  0.40989360  0.24986101  1
  Te2-  Te164  1  0.24862921  0.40829967  0.58841075  1
  Te2-  Te165  1  0.25280224  0.41796312  0.91569582  1
  Te2-  Te166  1  0.25338293  0.74040262  0.24866831  1
  Te2-  Te167  1  0.25477717  0.74926665  0.58861922  1
  Te2-  Te168  1  0.25351185  0.75067603  0.92337937  1
  Te2-  Te169  1  0.58597320  0.08560076  0.25157305  1
  Te2-  Te170  1  0.58898276  0.08041068  0.58959056  1
  Te2-  Te171  1  0.59170318  0.07742372  0.92211186  1
  Te2-  Te172  1  0.58587928  0.41455574  0.25610430  1
  Te2-  Te173  1  0.58969275  0.41422151  0.58611667  1
  Te2-  Te174  1  0.58409239  0.41113079  0.91854626  1
  Te2-  Te175  1  0.58304586  0.74787598  0.25383341  1
  Te2-  Te176  1  0.58538659  0.74872735  0.58298054  1
  Te2-  Te177  1  0.58769828  0.74433636  0.91706789  1
  Te2-  Te178  1  0.91629121  0.07981515  0.25182023  1
  Te2-  Te179  1  0.91574892  0.07586164  0.58129024  1
  Te2-  Te180  1  0.91813165  0.08402173  0.92286381  1
  Te2-  Te181  1  0.91984245  0.41013884  0.24929627  1
  Te2-  Te182  1  0.92022339  0.41719782  0.58441189  1
  Te2-  Te183  1  0.92173587  0.41381286  0.91607326  1
  Te2-  Te184  1  0.92173395  0.74573854  0.25993926  1
  Te2-  Te185  1  0.91745132  0.74740550  0.58826488  1
  Te2-  Te186  1  0.92126516  0.74654789  0.91616284  1
  Te2-  Te187  1  0.07698943  0.24939578  0.25426341  1
  Te2-  Te188  1  0.07897913  0.25900535  0.58599587  1
  Te2-  Te189  1  0.08376498  0.25478527  0.91896517  1
  Te2-  Te190  1  0.08455774  0.58580243  0.26142403  1
  Te2-  Te191  1  0.08193813  0.58761745  0.57973278  1
  Te2-  Te192  1  0.08239926  0.58906921  0.91411379  1
  Te2-  Te193  1  0.07851522  0.91500355  0.25282716  1
  Te2-  Te194  1  0.08069287  0.91821064  0.58418688  1
  Te2-  Te195  1  0.07649559  0.91983963  0.92848163  1
  Te2-  Te196  1  0.41426521  0.25358043  0.25339975  1
  Te2-  Te197  1  0.41042454  0.24993929  0.59147630  1
  Te2-  Te198  1  0.41967222  0.25074110  0.92155400  1
  Te2-  Te199  1  0.41679851  0.58748350  0.25157925  1
  Te2-  Te200  1  0.41240757  0.58980070  0.58687528  1
  Te2-  Te201  1  0.41486174  0.58434926  0.92287569  1
  Te2-  Te202  1  0.41572861  0.92508329  0.25264089  1
  Te2-  Te203  1  0.40781635  0.91728012  0.58303952  1
  Te2-  Te204  1  0.41864531  0.91847187  0.91834653  1
  Te2-  Te205  1  0.74319222  0.25098161  0.25581917  1
  Te2-  Te206  1  0.74732988  0.25351150  0.58455170  1
  Te2-  Te207  1  0.74694862  0.25376246  0.91486165  1
  Te2-  Te208  1  0.75088605  0.58803699  0.24759069  1
  Te2-  Te209  1  0.74935266  0.58644858  0.58317087  1
  Te2-  Te210  1  0.74596234  0.58326613  0.91598880  1
  Te2-  Te211  1  0.74415575  0.91480831  0.25167992  1
  Te2-  Te212  1  0.74721613  0.92132433  0.59132827  1
  Te2-  Te213  1  0.74942815  0.91929055  0.92124074  1
  Te2-  Te214  1  0.07803812  0.07772202  0.08500495  1
  Te2-  Te215  1  0.07788116  0.08326905  0.41720703  1
  Te2-  Te216  1  0.07816087  0.08009811  0.74370464  1
  Te2-  Te217  1  0.08199547  0.41580037  0.08067115  1
  Te2-  Te218  1  0.07501537  0.40964884  0.41328322  1
  Te2-  Te219  1  0.08217044  0.42043375  0.74252467  1
  Te2-  Te220  1  0.08025725  0.74384911  0.07784138  1
  Te2-  Te221  1  0.08285536  0.74805543  0.41230833  1
  Te2-  Te222  1  0.07838262  0.74950913  0.75067293  1
  Te2-  Te223  1  0.41204308  0.08527236  0.08060156  1
  Te2-  Te224  1  0.41615787  0.08152192  0.41850347  1
  Te2-  Te225  1  0.41468028  0.07887091  0.75231846  1
  Te2-  Te226  1  0.41585015  0.41511101  0.08242289  1
  Te2-  Te227  1  0.41689251  0.41319190  0.41356811  1
  Te2-  Te228  1  0.40463194  0.40790160  0.74856624  1
  Te2-  Te229  1  0.41173131  0.75021250  0.08247172  1
  Te2-  Te230  1  0.41418610  0.74458228  0.40975541  1
  Te2-  Te231  1  0.41513927  0.74947207  0.74414168  1
  Te2-  Te232  1  0.74920285  0.07636288  0.07989416  1
  Te2-  Te233  1  0.74142361  0.08153741  0.41083106  1
  Te2-  Te234  1  0.75342383  0.08048142  0.74556499  1
  Te2-  Te235  1  0.74683237  0.41732000  0.07470288  1
  Te2-  Te236  1  0.74779126  0.41400391  0.41349044  1
  Te2-  Te237  1  0.74960741  0.41219881  0.74319446  1
  Te2-  Te238  1  0.74792973  0.74282596  0.08050468  1
  Te2-  Te239  1  0.74115518  0.74767037  0.41790894  1
  Te2-  Te240  1  0.74846825  0.74702733  0.74880093  1
