# generated using pymatgen
data_Ti27(Cu53Te54)2
_symmetry_space_group_name_H-M   'P 1'
_cell_length_a   17.89697185
_cell_length_b   17.89454204
_cell_length_c   17.90201722
_cell_angle_alpha   89.92927634
_cell_angle_beta   90.02659039
_cell_angle_gamma   90.00411079
_symmetry_Int_Tables_number   1
_chemical_formula_structural   Ti27(Cu53Te54)2
_chemical_formula_sum   'Ti27 Cu106 Te108'
_cell_volume   5733.26129168
_cell_formula_units_Z   1
loop_
 _symmetry_equiv_pos_site_id
 _symmetry_equiv_pos_as_xyz
  1  'x, y, z'
loop_
 _atom_type_symbol
 _atom_type_oxidation_number
  Ti4+  4.0
  Cu+  1.0
  Te2-  -2.0
loop_
 _atom_site_type_symbol
 _atom_site_label
 _atom_site_symmetry_multiplicity
 _atom_site_fract_x
 _atom_site_fract_y
 _atom_site_fract_z
 _atom_site_occupancy
  Ti4+  Ti0  1  0.16517720  0.16777889  0.16696419  1
  Ti4+  Ti1  1  0.16765603  0.16682717  0.49741639  1
  Ti4+  Ti2  1  0.16514113  0.16716732  0.83089574  1
  Ti4+  Ti3  1  0.17034920  0.50135728  0.16628802  1
  Ti4+  Ti4  1  0.16877557  0.50100956  0.49962985  1
  Ti4+  Ti5  1  0.16432432  0.50090610  0.83357629  1
  Ti4+  Ti6  1  0.16280225  0.83051938  0.16903222  1
  Ti4+  Ti7  1  0.16829700  0.83215907  0.50153514  1
  Ti4+  Ti8  1  0.16658467  0.83318681  0.84074252  1
  Ti4+  Ti9  1  0.50020415  0.16854791  0.16674357  1
  Ti4+  Ti10  1  0.50151444  0.16622729  0.49922063  1
  Ti4+  Ti11  1  0.49621358  0.16396559  0.83166267  1
  Ti4+  Ti12  1  0.50407628  0.50080504  0.16579874  1
  Ti4+  Ti13  1  0.49986934  0.50058568  0.50153664  1
  Ti4+  Ti14  1  0.50081655  0.49680383  0.83152736  1
  Ti4+  Ti15  1  0.50321914  0.83270311  0.16620376  1
  Ti4+  Ti16  1  0.50187621  0.82996997  0.50037395  1
  Ti4+  Ti17  1  0.49734772  0.83051722  0.83094449  1
  Ti4+  Ti18  1  0.83119955  0.17324756  0.16197870  1
  Ti4+  Ti19  1  0.83396472  0.16478580  0.49806737  1
  Ti4+  Ti20  1  0.83326254  0.16402878  0.83471458  1
  Ti4+  Ti21  1  0.83292216  0.50260420  0.17216511  1
  Ti4+  Ti22  1  0.83529046  0.49844900  0.50280701  1
  Ti4+  Ti23  1  0.83368742  0.49922237  0.83402269  1
  Ti4+  Ti24  1  0.82588831  0.83783020  0.16240734  1
  Ti4+  Ti25  1  0.83634279  0.83390046  0.50028091  1
  Ti4+  Ti26  1  0.83196666  0.83501924  0.83260351  1
  Cu+  Cu27  1  0.16304634  0.16733500  -0.00057197  1
  Cu+  Cu28  1  0.16902515  0.16834335  0.33130282  1
  Cu+  Cu29  1  0.16490764  0.16679053  0.66221181  1
  Cu+  Cu30  1  0.16885206  0.50515795  -0.00175650  1
  Cu+  Cu31  1  0.16789914  0.50099786  0.33252280  1
  Cu+  Cu32  1  0.16851420  0.49863940  0.66621125  1
  Cu+  Cu33  1  0.16129505  0.82480736  0.00573543  1
  Cu+  Cu34  1  0.16822749  0.83101181  0.33605626  1
  Cu+  Cu35  1  0.16664096  0.83461887  0.67207586  1
  Cu+  Cu36  1  0.49899439  0.16733686  -0.00255961  1
  Cu+  Cu37  1  0.50321211  0.16904107  0.33446112  1
  Cu+  Cu38  1  0.49829498  0.16427827  0.66565505  1
  Cu+  Cu39  1  0.50059125  0.49538561  -0.00207933  1
  Cu+  Cu40  1  0.50191300  0.50229177  0.33545891  1
  Cu+  Cu41  1  0.49932680  0.49887694  0.66634990  1
  Cu+  Cu42  1  0.50089166  0.83006880  -0.00206678  1
  Cu+  Cu43  1  0.50200540  0.83524701  0.33322050  1
  Cu+  Cu44  1  0.49801348  0.82572562  0.66535470  1
  Cu+  Cu45  1  0.83870250  0.16883084  -0.00121015  1
  Cu+  Cu46  1  0.83150131  0.17018370  0.32739757  1
  Cu+  Cu47  1  0.83371531  0.15951318  0.66760185  1
  Cu+  Cu48  1  0.83413586  0.49872824  0.00404567  1
  Cu+  Cu49  1  0.83423170  0.49962369  0.34191592  1
  Cu+  Cu50  1  0.83588207  0.49692796  0.66859941  1
  Cu+  Cu51  1  0.82867153  0.84564608  -0.00417828  1
  Cu+  Cu52  1  0.82706764  0.83964790  0.33526356  1
  Cu+  Cu53  1  0.83343497  0.83200085  0.66404877  1
  Cu+  Cu54  1  0.16135176  -0.00312727  0.16863359  1
  Cu+  Cu55  1  0.16765303  -0.00035506  0.50026969  1
  Cu+  Cu56  1  0.16287295  0.00170519  0.83655164  1
  Cu+  Cu57  1  0.16880922  0.33328632  0.16931396  1
  Cu+  Cu58  1  0.16703308  0.33342355  0.49837585  1
  Cu+  Cu59  1  0.16632716  0.33584161  0.82756031  1
  Cu+  Cu60  1  0.16892403  0.66743860  0.16250792  1
  Cu+  Cu61  1  0.17024714  0.66607506  0.49834776  1
  Cu+  Cu62  1  0.16649212  0.66723981  0.84307810  1
  Cu+  Cu63  1  0.49877244  0.00173577  0.16520953  1
  Cu+  Cu64  1  0.50103546  0.00075739  0.50028844  1
  Cu+  Cu65  1  0.49289687  -0.00255899  0.83078100  1
  Cu+  Cu66  1  0.50365618  0.33359252  0.16963442  1
  Cu+  Cu67  1  0.49957725  0.33423317  0.49914874  1
  Cu+  Cu68  1  0.49958085  0.32818219  0.83367021  1
  Cu+  Cu69  1  0.51070884  0.66681921  0.16582642  1
  Cu+  Cu70  1  0.49649790  0.66679389  0.50359957  1
  Cu+  Cu71  1  0.50129857  0.66323962  0.82885175  1
  Cu+  Cu72  1  0.82192297  0.00608805  0.15701428  1
  Cu+  Cu73  1  0.83536618  -0.00237402  0.49450171  1
  Cu+  Cu74  1  0.83834880  -0.00082523  0.83244340  1
  Cu+  Cu75  1  0.84080130  0.34091791  0.16708234  1
  Cu+  Cu76  1  0.83482390  0.33207677  0.50180339  1
  Cu+  Cu77  1  0.83200099  0.33140249  0.83699190  1
  Cu+  Cu78  1  0.82154581  0.66612676  0.16497458  1
  Cu+  Cu79  1  0.83601341  0.66450597  0.50387413  1
  Cu+  Cu80  1  0.83308623  0.66476344  0.83475202  1
  Cu+  Cu81  1  -0.00278529  0.17273848  0.16495172  1
  Cu+  Cu82  1  0.00309958  0.16468874  0.49641022  1
  Cu+  Cu83  1  -0.00046461  0.16416142  0.83023214  1
  Cu+  Cu84  1  0.00299969  0.50039678  0.16828570  1
  Cu+  Cu85  1  0.00213860  0.49895398  0.50272597  1
  Cu+  Cu86  1  -0.00133377  0.50177454  0.83250821  1
  Cu+  Cu87  1  -0.00386428  0.83522937  0.16945912  1
  Cu+  Cu88  1  0.00244153  0.83436055  0.50131085  1
  Cu+  Cu89  1  0.00065011  0.83465072  0.84165864  1
  Cu+  Cu90  1  0.33128403  0.16903569  0.16787358  1
  Cu+  Cu91  1  0.33567617  0.16601903  0.49706237  1
  Cu+  Cu92  1  0.33166988  0.16584688  0.83040193  1
  Cu+  Cu93  1  0.33979533  0.49945341  0.16604556  1
  Cu+  Cu94  1  0.33482054  0.50083018  0.49960890  1
  Cu+  Cu95  1  0.33249997  0.49763201  0.83085614  1
  Cu+  Cu96  1  0.33451956  0.83281166  0.16771755  1
  Cu+  Cu97  1  0.33436829  0.82819148  0.49902561  1
  Cu+  Cu98  1  0.33033273  0.82997279  0.83302153  1
  Cu+  Cu99  1  0.66475687  0.17117294  0.17018604  1
  Cu+  Cu100  1  0.66698811  0.16531142  0.50005300  1
  Cu+  Cu101  1  0.66199296  0.16401329  0.83695034  1
  Cu+  Cu102  1  0.66638589  0.50950501  0.17211216  1
  Cu+  Cu103  1  0.66787934  0.49928389  0.50221162  1
  Cu+  Cu104  1  0.66911545  0.49672135  0.83319814  1
  Cu+  Cu105  1  0.66700321  0.83224180  0.15936796  1
  Cu+  Cu106  1  0.67254410  0.83314977  0.50390352  1
  Cu+  Cu107  1  0.66086006  0.83209592  0.82614525  1
  Cu+  Cu108  1  0.92872099  0.07595184  0.08202404  1
  Cu+  Cu109  1  0.24880522  0.74075291  0.74372958  1
  Cu+  Cu110  1  0.58767833  0.59639322  0.26860079  1
  Cu+  Cu111  1  0.06661949  0.73674435  0.93216514  1
  Cu+  Cu112  1  0.92700807  0.26270988  0.26188598  1
  Cu+  Cu113  1  0.59077968  0.25730059  0.92497154  1
  Cu+  Cu114  1  0.92966382  0.92579452  0.92621716  1
  Cu+  Cu115  1  0.92766276  0.07113263  0.73487591  1
  Cu+  Cu116  1  0.26095892  0.73889565  0.40523329  1
  Cu+  Cu117  1  0.26201439  0.26175323  0.26052144  1
  Cu+  Cu118  1  0.59300724  0.26179477  0.26476072  1
  Cu+  Cu119  1  0.93313941  0.41892146  0.07405453  1
  Cu+  Cu120  1  0.26410003  0.74436127  0.07936797  1
  Cu+  Cu121  1  0.73757667  0.92777743  0.41316245  1
  Cu+  Cu122  1  0.74086365  0.58437975  0.06986955  1
  Cu+  Cu123  1  0.59297650  0.74013493  0.06700788  1
  Cu+  Cu124  1  0.26002325  0.40512828  0.73669728  1
  Cu+  Cu125  1  0.74963967  0.73489773  0.59443534  1
  Cu+  Cu126  1  0.73255667  0.93528975  0.06337550  1
  Cu+  Cu127  1  0.73985736  0.07993933  0.25656726  1
  Cu+  Cu128  1  0.59294094  0.73506876  0.73833295  1
  Cu+  Cu129  1  0.26672582  0.58781543  0.92449161  1
  Cu+  Cu130  1  0.40392340  0.73797879  0.59300653  1
  Cu+  Cu131  1  0.74578388  0.74224205  0.26345191  1
  Cu+  Cu132  1  0.93206431  0.26133033  0.91380046  1
  Te2-  Te133  1  0.25012693  0.25224948  0.07947137  1
  Te2-  Te134  1  0.25541526  0.25434946  0.41325647  1
  Te2-  Te135  1  0.25144301  0.25116385  0.74381511  1
  Te2-  Te136  1  0.25924010  0.58694051  0.07983184  1
  Te2-  Te137  1  0.25604173  0.58541222  0.41193931  1
  Te2-  Te138  1  0.25127705  0.58820408  0.74764852  1
  Te2-  Te139  1  0.24800253  0.91601673  0.08328769  1
  Te2-  Te140  1  0.25382955  0.91799896  0.41607408  1
  Te2-  Te141  1  0.25005097  0.92059494  0.75376551  1
  Te2-  Te142  1  0.58559758  0.25433805  0.07891098  1
  Te2-  Te143  1  0.58948266  0.25549747  0.41584864  1
  Te2-  Te144  1  0.58470208  0.24851433  0.74641504  1
  Te2-  Te145  1  0.58895227  0.58573417  0.07217019  1
  Te2-  Te146  1  0.58744196  0.58874903  0.41958888  1
  Te2-  Te147  1  0.58877788  0.58135431  0.74537989  1
  Te2-  Te148  1  0.58296763  0.92256384  0.07665666  1
  Te2-  Te149  1  0.58661377  0.91868186  0.41623838  1
  Te2-  Te150  1  0.57854239  0.91853831  0.74395543  1
  Te2-  Te151  1  0.92249079  0.26132137  0.07509702  1
  Te2-  Te152  1  0.91978503  0.25169811  0.41369823  1
  Te2-  Te153  1  0.91619585  0.25158965  0.74742166  1
  Te2-  Te154  1  0.91866602  0.58825635  0.08585393  1
  Te2-  Te155  1  0.92126325  0.58569161  0.41877901  1
  Te2-  Te156  1  0.91796188  0.58610367  0.74831333  1
  Te2-  Te157  1  0.92023621  0.92308001  0.08050010  1
  Te2-  Te158  1  0.92328901  0.91734765  0.41193195  1
  Te2-  Te159  1  0.92215904  0.91540317  0.74520396  1
  Te2-  Te160  1  0.25018187  0.07890343  0.24965065  1
  Te2-  Te161  1  0.25326693  0.08227924  0.58313503  1
  Te2-  Te162  1  0.24988122  0.08380139  0.91850131  1
  Te2-  Te163  1  0.25636422  0.41674813  0.25280292  1
  Te2-  Te164  1  0.25486746  0.41278338  0.58399340  1
  Te2-  Te165  1  0.25060585  0.41390752  0.91902335  1
  Te2-  Te166  1  0.25375839  0.74532398  0.25287168  1
  Te2-  Te167  1  0.25267743  0.74387620  0.59117039  1
  Te2-  Te168  1  0.25810988  0.74522869  0.92720309  1
  Te2-  Te169  1  0.58503551  0.07925935  0.25314692  1
  Te2-  Te170  1  0.58615901  0.08069465  0.58569105  1
  Te2-  Te171  1  0.57958404  0.07534790  0.91785395  1
  Te2-  Te172  1  0.58910687  0.41575616  0.25566026  1
  Te2-  Te173  1  0.58493376  0.41395861  0.58561537  1
  Te2-  Te174  1  0.58704597  0.41162611  0.91758164  1
  Te2-  Te175  1  0.59187930  0.74903899  0.25746900  1
  Te2-  Te176  1  0.59115385  0.74242557  0.58611504  1
  Te2-  Te177  1  0.58667324  0.74379042  0.91585159  1
  Te2-  Te178  1  0.91480121  0.08079695  0.24560717  1
  Te2-  Te179  1  0.92136633  0.07783560  0.58122837  1
  Te2-  Te180  1  0.92425416  0.07770511  0.92342931  1
  Te2-  Te181  1  0.92257915  0.41849196  0.25964317  1
  Te2-  Te182  1  0.92099913  0.41256030  0.58689424  1
  Te2-  Te183  1  0.92238810  0.41397600  0.92136930  1
  Te2-  Te184  1  0.90844510  0.75154891  0.24969420  1
  Te2-  Te185  1  0.92286773  0.74771009  0.58637242  1
  Te2-  Te186  1  0.91310658  0.74795231  0.92294028  1
  Te2-  Te187  1  0.07870710  0.25497245  0.25411327  1
  Te2-  Te188  1  0.08065190  0.25226748  0.58180956  1
  Te2-  Te189  1  0.08202502  0.25508910  0.91665478  1
  Te2-  Te190  1  0.08478791  0.58676014  0.25027143  1
  Te2-  Te191  1  0.08439544  0.58592010  0.58535956  1
  Te2-  Te192  1  0.07464749  0.58540858  0.92254121  1
  Te2-  Te193  1  0.07930748  0.91587039  0.25637352  1
  Te2-  Te194  1  0.08381949  0.91824473  0.58734782  1
  Te2-  Te195  1  0.08231216  0.92217559  0.92755198  1
  Te2-  Te196  1  0.41482318  0.25410417  0.25414134  1
  Te2-  Te197  1  0.41543998  0.25130315  0.58355769  1
  Te2-  Te198  1  0.41013759  0.25061930  0.91753330  1
  Te2-  Te199  1  0.41932927  0.58807372  0.25018939  1
  Te2-  Te200  1  0.41165403  0.58465135  0.58912195  1
  Te2-  Te201  1  0.41753190  0.58405791  0.91808754  1
  Te2-  Te202  1  0.41641445  0.91797391  0.25057479  1
  Te2-  Te203  1  0.41588654  0.91619879  0.58354056  1
  Te2-  Te204  1  0.41278620  0.91416305  0.91845444  1
  Te2-  Te205  1  0.74753680  0.26207484  0.25081636  1
  Te2-  Te206  1  0.75109409  0.24712993  0.58576563  1
  Te2-  Te207  1  0.74508173  0.25089485  0.92095484  1
  Te2-  Te208  1  0.74653643  0.58776899  0.26438408  1
  Te2-  Te209  1  0.74799996  0.58282122  0.59021717  1
  Te2-  Te210  1  0.74669092  0.58451685  0.91893049  1
  Te2-  Te211  1  0.73968721  0.92465629  0.25141576  1
  Te2-  Te212  1  0.75065549  0.92334292  0.58694910  1
  Te2-  Te213  1  0.73920411  0.92304389  0.91034104  1
  Te2-  Te214  1  0.07975695  0.08055102  0.08094064  1
  Te2-  Te215  1  0.08437862  0.08010523  0.41151245  1
  Te2-  Te216  1  0.08100439  0.07913926  0.74431224  1
  Te2-  Te217  1  0.08602450  0.41514400  0.08002842  1
  Te2-  Te218  1  0.08306709  0.41655112  0.41442259  1
  Te2-  Te219  1  0.07800623  0.41729804  0.74617360  1
  Te2-  Te220  1  0.07088901  0.74326473  0.08571363  1
  Te2-  Te221  1  0.08094216  0.74683302  0.41680684  1
  Te2-  Te222  1  0.08032824  0.74837410  0.75392411  1
  Te2-  Te223  1  0.41348197  0.08444616  0.08190792  1
  Te2-  Te224  1  0.41720462  0.08104681  0.41262230  1
  Te2-  Te225  1  0.41050984  0.07952734  0.74471807  1
  Te2-  Te226  1  0.41861495  0.41265493  0.08254761  1
  Te2-  Te227  1  0.41592314  0.41654601  0.41363464  1
  Te2-  Te228  1  0.41528329  0.41078857  0.74643215  1
  Te2-  Te229  1  0.41765440  0.74460340  0.08195888  1
  Te2-  Te230  1  0.41692642  0.74522040  0.40977246  1
  Te2-  Te231  1  0.40797812  0.74100822  0.74698073  1
  Te2-  Te232  1  0.73921285  0.09068103  0.07253380  1
  Te2-  Te233  1  0.74513776  0.08072941  0.41017298  1
  Te2-  Te234  1  0.74540404  0.07922819  0.75135732  1
  Te2-  Te235  1  0.74450249  0.41766996  0.08750510  1
  Te2-  Te236  1  0.74797091  0.41295275  0.41836049  1
  Te2-  Te237  1  0.75040589  0.41140129  0.74936863  1
  Te2-  Te238  1  0.74569329  0.74722986  0.06927405  1
  Te2-  Te239  1  0.74858530  0.74403784  0.41638623  1
  Te2-  Te240  1  0.74781937  0.74465881  0.74684878  1
