# generated using pymatgen
data_Ti27(Cu53Te54)2
_symmetry_space_group_name_H-M   'P 1'
_cell_length_a   17.90345788
_cell_length_b   17.90208345
_cell_length_c   17.89755635
_cell_angle_alpha   90.05022592
_cell_angle_beta   89.99575221
_cell_angle_gamma   90.00888602
_symmetry_Int_Tables_number   1
_chemical_formula_structural   Ti27(Cu53Te54)2
_chemical_formula_sum   'Ti27 Cu106 Te108'
_cell_volume   5736.32912841
_cell_formula_units_Z   1
loop_
 _symmetry_equiv_pos_site_id
 _symmetry_equiv_pos_as_xyz
  1  'x, y, z'
loop_
 _atom_type_symbol
 _atom_type_oxidation_number
  Ti4+  4.0
  Cu+  1.0
  Te2-  -2.0
loop_
 _atom_site_type_symbol
 _atom_site_label
 _atom_site_symmetry_multiplicity
 _atom_site_fract_x
 _atom_site_fract_y
 _atom_site_fract_z
 _atom_site_occupancy
  Ti4+  Ti0  1  0.16648414  0.16773016  0.16439689  1
  Ti4+  Ti1  1  0.16885136  0.16716705  0.49877929  1
  Ti4+  Ti2  1  0.16597805  0.16516295  0.83393306  1
  Ti4+  Ti3  1  0.16684244  0.50110664  0.16914261  1
  Ti4+  Ti4  1  0.16771779  0.49928288  0.50107305  1
  Ti4+  Ti5  1  0.16602932  0.50152396  0.83762871  1
  Ti4+  Ti6  1  0.17041158  0.83347166  0.16640052  1
  Ti4+  Ti7  1  0.16844054  0.83575957  0.49937594  1
  Ti4+  Ti8  1  0.16156341  0.82802411  0.82860084  1
  Ti4+  Ti9  1  0.49705439  0.16852673  0.16454041  1
  Ti4+  Ti10  1  0.49862201  0.17007427  0.50126215  1
  Ti4+  Ti11  1  0.49866555  0.16622176  0.83249453  1
  Ti4+  Ti12  1  0.49904254  0.49833948  0.16547730  1
  Ti4+  Ti13  1  0.49999037  0.50016806  0.50473163  1
  Ti4+  Ti14  1  0.50268891  0.49632764  0.83132140  1
  Ti4+  Ti15  1  0.50031277  0.83277407  0.16637421  1
  Ti4+  Ti16  1  0.50355250  0.83495676  0.50297672  1
  Ti4+  Ti17  1  0.49984976  0.83079102  0.83115046  1
  Ti4+  Ti18  1  0.83105053  0.16611281  0.16518790  1
  Ti4+  Ti19  1  0.83331034  0.16795217  0.49816444  1
  Ti4+  Ti20  1  0.83527097  0.16609499  0.83485283  1
  Ti4+  Ti21  1  0.83174392  0.50059772  0.17047110  1
  Ti4+  Ti22  1  0.83441934  0.50204431  0.49973952  1
  Ti4+  Ti23  1  0.83512725  0.49899234  0.83652432  1
  Ti4+  Ti24  1  0.83753101  0.83453068  0.16743106  1
  Ti4+  Ti25  1  0.83188372  0.83259013  0.49701189  1
  Ti4+  Ti26  1  0.83601502  0.83760710  0.83480828  1
  Cu+  Cu27  1  0.17039471  0.16160348  0.00004938  1
  Cu+  Cu28  1  0.16739805  0.16712213  0.33099309  1
  Cu+  Cu29  1  0.16828834  0.16794557  0.66407892  1
  Cu+  Cu30  1  0.16796662  0.50126337  0.00535528  1
  Cu+  Cu31  1  0.16859867  0.49938882  0.33582856  1
  Cu+  Cu32  1  0.16790572  0.50038423  0.67061463  1
  Cu+  Cu33  1  0.16564577  0.82912309  -0.00274686  1
  Cu+  Cu34  1  0.17278140  0.83611310  0.33343353  1
  Cu+  Cu35  1  0.15711184  0.83172548  0.66091375  1
  Cu+  Cu36  1  0.49518672  0.16935055  0.00000908  1
  Cu+  Cu37  1  0.49726926  0.17346330  0.33319049  1
  Cu+  Cu38  1  0.49698524  0.17017725  0.66752017  1
  Cu+  Cu39  1  0.50560900  0.49265699  -0.00061044  1
  Cu+  Cu40  1  0.49918456  0.49859483  0.33138612  1
  Cu+  Cu41  1  0.49965658  0.50219215  0.66658287  1
  Cu+  Cu42  1  0.49997815  0.83067812  -0.00336938  1
  Cu+  Cu43  1  0.50293755  0.83555249  0.33633486  1
  Cu+  Cu44  1  0.49983526  0.83002801  0.66645394  1
  Cu+  Cu45  1  0.83591865  0.16162496  -0.00129194  1
  Cu+  Cu46  1  0.83255383  0.16784992  0.33227716  1
  Cu+  Cu47  1  0.83391636  0.16728316  0.66541219  1
  Cu+  Cu48  1  0.83206283  0.50051952  0.00300092  1
  Cu+  Cu49  1  0.83412287  0.50812464  0.33345283  1
  Cu+  Cu50  1  0.83451972  0.49639055  0.66753098  1
  Cu+  Cu51  1  0.83307906  0.84182674  0.00490892  1
  Cu+  Cu52  1  0.83093003  0.82975636  0.33028438  1
  Cu+  Cu53  1  0.83695833  0.83544772  0.66580527  1
  Cu+  Cu54  1  0.17228514  -0.00056091  0.16278539  1
  Cu+  Cu55  1  0.17091423  0.00213995  0.49805972  1
  Cu+  Cu56  1  0.16316701  -0.00553806  0.83036977  1
  Cu+  Cu57  1  0.16349725  0.33707015  0.16781963  1
  Cu+  Cu58  1  0.16882434  0.33226991  0.50019323  1
  Cu+  Cu59  1  0.16716647  0.33683349  0.83857042  1
  Cu+  Cu60  1  0.16941528  0.66711057  0.16957014  1
  Cu+  Cu61  1  0.16965619  0.66684753  0.49969890  1
  Cu+  Cu62  1  0.15495176  0.66416040  0.83325964  1
  Cu+  Cu63  1  0.50036906  -0.00060621  0.16891642  1
  Cu+  Cu64  1  0.50041913  0.00359077  0.50302788  1
  Cu+  Cu65  1  0.49963599  -0.00478073  0.83251422  1
  Cu+  Cu66  1  0.49822819  0.33425369  0.15952823  1
  Cu+  Cu67  1  0.49861046  0.33305589  0.50613408  1
  Cu+  Cu68  1  0.49815255  0.32883399  0.82953100  1
  Cu+  Cu69  1  0.50015304  0.66467983  0.16608464  1
  Cu+  Cu70  1  0.50395301  0.66904564  0.50920421  1
  Cu+  Cu71  1  0.50209027  0.66362945  0.82920668  1
  Cu+  Cu72  1  0.83412017  -0.00026235  0.15851674  1
  Cu+  Cu73  1  0.83230804  0.00026209  0.49731684  1
  Cu+  Cu74  1  0.83417979  0.00642592  0.83518428  1
  Cu+  Cu75  1  0.83378745  0.33119395  0.17132526  1
  Cu+  Cu76  1  0.83334546  0.33691072  0.49645702  1
  Cu+  Cu77  1  0.83801266  0.33113048  0.83964175  1
  Cu+  Cu78  1  0.83486067  0.66852370  0.17593754  1
  Cu+  Cu79  1  0.82768195  0.66307304  0.49306940  1
  Cu+  Cu80  1  0.83539871  0.66785059  0.83780274  1
  Cu+  Cu81  1  -0.00316084  0.16655270  0.16585815  1
  Cu+  Cu82  1  0.00306099  0.16728584  0.49713859  1
  Cu+  Cu83  1  -0.00080932  0.16762374  0.83451127  1
  Cu+  Cu84  1  -0.00048058  0.50314751  0.17268672  1
  Cu+  Cu85  1  0.00096034  0.49773988  0.49902961  1
  Cu+  Cu86  1  0.00076745  0.50077503  0.83747437  1
  Cu+  Cu87  1  0.00732711  0.83575886  0.16915131  1
  Cu+  Cu88  1  -0.00106854  0.83448890  0.49717416  1
  Cu+  Cu89  1  -0.00124050  0.82884410  0.82812660  1
  Cu+  Cu90  1  0.33241652  0.16947836  0.15861593  1
  Cu+  Cu91  1  0.33529137  0.16665040  0.49770251  1
  Cu+  Cu92  1  0.33058931  0.16498549  0.83166142  1
  Cu+  Cu93  1  0.33199235  0.49923742  0.16894300  1
  Cu+  Cu94  1  0.33128960  0.49660520  0.50409333  1
  Cu+  Cu95  1  0.33337052  0.50119486  0.83451859  1
  Cu+  Cu96  1  0.33567249  0.83348195  0.16532588  1
  Cu+  Cu97  1  0.33577429  0.83465819  0.50203863  1
  Cu+  Cu98  1  0.32909563  0.82996393  0.82993842  1
  Cu+  Cu99  1  0.66276933  0.16637287  0.16704916  1
  Cu+  Cu100  1  0.66710189  0.17102134  0.50049670  1
  Cu+  Cu101  1  0.66756837  0.16316358  0.83544020  1
  Cu+  Cu102  1  0.66149481  0.49491870  0.16488687  1
  Cu+  Cu103  1  0.66621881  0.50459728  0.50327901  1
  Cu+  Cu104  1  0.67219900  0.49551802  0.83473992  1
  Cu+  Cu105  1  0.66609342  0.83323087  0.16668482  1
  Cu+  Cu106  1  0.66721695  0.83578404  0.49932322  1
  Cu+  Cu107  1  0.66538634  0.83527398  0.83444355  1
  Cu+  Cu108  1  0.26354704  0.06842931  0.07201750  1
  Cu+  Cu109  1  0.06972334  0.74010046  0.93223525  1
  Cu+  Cu110  1  0.40328903  0.40858277  0.59355457  1
  Cu+  Cu111  1  0.73534724  0.74323331  0.25523035  1
  Cu+  Cu112  1  0.40153286  0.26489765  0.06994250  1
  Cu+  Cu113  1  0.06752951  0.73542046  0.57329133  1
  Cu+  Cu114  1  0.73477728  0.07742902  0.92717183  1
  Cu+  Cu115  1  0.40721917  0.07349691  0.59340010  1
  Cu+  Cu116  1  0.91320196  0.73635013  0.73672819  1
  Cu+  Cu117  1  0.07568076  0.92789003  0.73346774  1
  Cu+  Cu118  1  0.92620287  0.25669204  0.26212629  1
  Cu+  Cu119  1  0.73196858  0.58644821  0.40363510  1
  Cu+  Cu120  1  0.92770994  0.08374897  0.73349095  1
  Cu+  Cu121  1  0.40619131  0.26249782  0.40409590  1
  Cu+  Cu122  1  0.40503541  0.74283174  0.59008082  1
  Cu+  Cu123  1  0.39988743  0.25570249  0.74265314  1
  Cu+  Cu124  1  0.59691038  0.40265148  0.06939784  1
  Cu+  Cu125  1  0.59817919  0.59721817  0.59673006  1
  Cu+  Cu126  1  0.06893062  0.57899968  0.73784463  1
  Cu+  Cu127  1  0.40502623  0.59257034  0.74653111  1
  Cu+  Cu128  1  0.73468302  0.92382671  0.07942228  1
  Cu+  Cu129  1  0.59875345  0.25670741  0.59597853  1
  Cu+  Cu130  1  0.93245122  0.59818155  0.26174026  1
  Cu+  Cu131  1  0.92935400  0.07235563  0.07476582  1
  Cu+  Cu132  1  0.93097358  0.26182613  0.92685008  1
  Te2-  Te133  1  0.24821448  0.25845149  0.07731688  1
  Te2-  Te134  1  0.25336872  0.25364883  0.41144110  1
  Te2-  Te135  1  0.24801548  0.25459162  0.74878519  1
  Te2-  Te136  1  0.25354220  0.58639956  0.08430026  1
  Te2-  Te137  1  0.25466901  0.58428764  0.41709951  1
  Te2-  Te138  1  0.25154932  0.58882731  0.75020705  1
  Te2-  Te139  1  0.25522396  0.91497814  0.07513282  1
  Te2-  Te140  1  0.25713082  0.91985368  0.41607359  1
  Te2-  Te141  1  0.24791699  0.91395654  0.74339452  1
  Te2-  Te142  1  0.58739206  0.25113452  0.07718844  1
  Te2-  Te143  1  0.58489680  0.25654092  0.41508458  1
  Te2-  Te144  1  0.59057658  0.25073364  0.74918167  1
  Te2-  Te145  1  0.58508567  0.58450511  0.07992356  1
  Te2-  Te146  1  0.58079015  0.58694428  0.41429109  1
  Te2-  Te147  1  0.59270122  0.58280326  0.74862245  1
  Te2-  Te148  1  0.58346452  0.91933052  0.07851954  1
  Te2-  Te149  1  0.58595322  0.92289427  0.41708284  1
  Te2-  Te150  1  0.58520523  0.91718138  0.74624269  1
  Te2-  Te151  1  0.91824811  0.25451984  0.07933656  1
  Te2-  Te152  1  0.92022025  0.25418864  0.41394411  1
  Te2-  Te153  1  0.92032673  0.25324297  0.74700758  1
  Te2-  Te154  1  0.91626246  0.58646679  0.08545624  1
  Te2-  Te155  1  0.92481617  0.58863468  0.41494559  1
  Te2-  Te156  1  0.91899783  0.58548755  0.74656945  1
  Te2-  Te157  1  0.92828480  0.91925759  0.08111369  1
  Te2-  Te158  1  0.91598220  0.91712680  0.41183563  1
  Te2-  Te159  1  0.92059986  0.92527081  0.74525000  1
  Te2-  Te160  1  0.25455453  0.08442869  0.24893092  1
  Te2-  Te161  1  0.25447520  0.08099749  0.58639201  1
  Te2-  Te162  1  0.25182806  0.07511756  0.91510358  1
  Te2-  Te163  1  0.25167060  0.41380198  0.25357551  1
  Te2-  Te164  1  0.24954164  0.41215937  0.59066082  1
  Te2-  Te165  1  0.25334768  0.41758859  0.92231251  1
  Te2-  Te166  1  0.25560510  0.74913735  0.25237864  1
  Te2-  Te167  1  0.25272756  0.74823193  0.58744191  1
  Te2-  Te168  1  0.24870334  0.74347958  0.91369141  1
  Te2-  Te169  1  0.58098773  0.08512325  0.25366203  1
  Te2-  Te170  1  0.58669728  0.08546435  0.58746258  1
  Te2-  Te171  1  0.58062746  0.07907630  0.92020175  1
  Te2-  Te172  1  0.58231554  0.41054187  0.25243577  1
  Te2-  Te173  1  0.58925542  0.41419941  0.58942529  1
  Te2-  Te174  1  0.58857154  0.40749900  0.91498033  1
  Te2-  Te175  1  0.58396119  0.74646007  0.25366703  1
  Te2-  Te176  1  0.59407840  0.75011121  0.59042035  1
  Te2-  Te177  1  0.58561001  0.74562160  0.91585412  1
  Te2-  Te178  1  0.91585700  0.07924965  0.25096577  1
  Te2-  Te179  1  0.92055269  0.08085781  0.58109185  1
  Te2-  Te180  1  0.92634588  0.07698070  0.92159394  1
  Te2-  Te181  1  0.91819377  0.41481584  0.25669698  1
  Te2-  Te182  1  0.91915756  0.41438095  0.58379642  1
  Te2-  Te183  1  0.92179940  0.41629028  0.92477588  1
  Te2-  Te184  1  0.92669660  0.75065589  0.25532503  1
  Te2-  Te185  1  0.91672933  0.74306882  0.58217065  1
  Te2-  Te186  1  0.91704938  0.75110678  0.92523425  1
  Te2-  Te187  1  0.08000772  0.25253663  0.25175583  1
  Te2-  Te188  1  0.08222347  0.25203026  0.58407658  1
  Te2-  Te189  1  0.08366603  0.25127607  0.92184044  1
  Te2-  Te190  1  0.08413483  0.58855359  0.25751821  1
  Te2-  Te191  1  0.07864358  0.58546640  0.58613857  1
  Te2-  Te192  1  0.07786929  0.58505384  0.92759982  1
  Te2-  Te193  1  0.08829560  0.92186038  0.25237852  1
  Te2-  Te194  1  0.07794470  0.92549117  0.58051792  1
  Te2-  Te195  1  0.07866867  0.91460660  0.91738946  1
  Te2-  Te196  1  0.41070706  0.25633486  0.24862452  1
  Te2-  Te197  1  0.40541032  0.25616196  0.59023613  1
  Te2-  Te198  1  0.40994556  0.25322266  0.91751599  1
  Te2-  Te199  1  0.41456099  0.58468127  0.25184855  1
  Te2-  Te200  1  0.40842585  0.58820657  0.58934242  1
  Te2-  Te201  1  0.42045881  0.58177580  0.91931585  1
  Te2-  Te202  1  0.41577043  0.91742146  0.25323532  1
  Te2-  Te203  1  0.41524932  0.92085699  0.58913416  1
  Te2-  Te204  1  0.41186714  0.91400248  0.91535410  1
  Te2-  Te205  1  0.74415817  0.25047394  0.25145798  1
  Te2-  Te206  1  0.75122514  0.25638384  0.58614288  1
  Te2-  Te207  1  0.74718990  0.25042835  0.92147447  1
  Te2-  Te208  1  0.73817264  0.58641086  0.25188121  1
  Te2-  Te209  1  0.75034806  0.58757459  0.59100361  1
  Te2-  Te210  1  0.74887213  0.58511579  0.91997547  1
  Te2-  Te211  1  0.74993382  0.92169339  0.25064722  1
  Te2-  Te212  1  0.75036945  0.91859844  0.58475825  1
  Te2-  Te213  1  0.74550260  0.92266161  0.92036087  1
  Te2-  Te214  1  0.08080234  0.07918936  0.08022861  1
  Te2-  Te215  1  0.08424870  0.08150246  0.41265198  1
  Te2-  Te216  1  0.08069904  0.08158908  0.74362507  1
  Te2-  Te217  1  0.07806960  0.41831996  0.08420048  1
  Te2-  Te218  1  0.08348510  0.41362140  0.41552682  1
  Te2-  Te219  1  0.08081964  0.41450049  0.75107458  1
  Te2-  Te220  1  0.08189827  0.74537552  0.08421946  1
  Te2-  Te221  1  0.08468626  0.74952974  0.41258815  1
  Te2-  Te222  1  0.07252188  0.73926764  0.73757717  1
  Te2-  Te223  1  0.41482963  0.07702433  0.07884950  1
  Te2-  Te224  1  0.41646303  0.08152182  0.41280344  1
  Te2-  Te225  1  0.41319839  0.07732764  0.74847258  1
  Te2-  Te226  1  0.40858659  0.41612549  0.07705747  1
  Te2-  Te227  1  0.41408018  0.41569054  0.41521497  1
  Te2-  Te228  1  0.41048130  0.41157880  0.74668709  1
  Te2-  Te229  1  0.41634906  0.74693593  0.08063299  1
  Te2-  Te230  1  0.41879765  0.74822349  0.41827331  1
  Te2-  Te231  1  0.41066649  0.74396662  0.74478192  1
  Te2-  Te232  1  0.73978846  0.07937610  0.07905336  1
  Te2-  Te233  1  0.74649238  0.08387249  0.41512092  1
  Te2-  Te234  1  0.74776971  0.08130509  0.74595948  1
  Te2-  Te235  1  0.74962163  0.41213143  0.08292275  1
  Te2-  Te236  1  0.74667741  0.41958883  0.41391544  1
  Te2-  Te237  1  0.75377769  0.41008037  0.75113753  1
  Te2-  Te238  1  0.75195340  0.74733943  0.08219402  1
  Te2-  Te239  1  0.74190230  0.74619663  0.41107490  1
  Te2-  Te240  1  0.75073975  0.75116568  0.75071476  1
