# generated using pymatgen
data_Ti27(Cu53Te54)2
_symmetry_space_group_name_H-M   'P 1'
_cell_length_a   17.88462353
_cell_length_b   17.88417243
_cell_length_c   17.88546414
_cell_angle_alpha   90.02386685
_cell_angle_beta   89.98793678
_cell_angle_gamma   90.00716161
_symmetry_Int_Tables_number   1
_chemical_formula_structural   Ti27(Cu53Te54)2
_chemical_formula_sum   'Ti27 Cu106 Te108'
_cell_volume   5720.69528082
_cell_formula_units_Z   1
loop_
 _symmetry_equiv_pos_site_id
 _symmetry_equiv_pos_as_xyz
  1  'x, y, z'
loop_
 _atom_type_symbol
 _atom_type_oxidation_number
  Ti4+  4.0
  Cu+  1.0
  Te2-  -2.0
loop_
 _atom_site_type_symbol
 _atom_site_label
 _atom_site_symmetry_multiplicity
 _atom_site_fract_x
 _atom_site_fract_y
 _atom_site_fract_z
 _atom_site_occupancy
  Ti4+  Ti0  1  0.16589001  0.16819185  0.16932396  1
  Ti4+  Ti1  1  0.16391474  0.16642104  0.50153615  1
  Ti4+  Ti2  1  0.16533141  0.16609250  0.83055916  1
  Ti4+  Ti3  1  0.16741429  0.50172497  0.16510413  1
  Ti4+  Ti4  1  0.16963987  0.50315856  0.49735059  1
  Ti4+  Ti5  1  0.16574413  0.49881407  0.82924757  1
  Ti4+  Ti6  1  0.16851691  0.83563962  0.16609078  1
  Ti4+  Ti7  1  0.16689546  0.83447589  0.49960372  1
  Ti4+  Ti8  1  0.16758155  0.83275742  0.83031219  1
  Ti4+  Ti9  1  0.50130696  0.16555147  0.16636044  1
  Ti4+  Ti10  1  0.49752979  0.16619119  0.50091676  1
  Ti4+  Ti11  1  0.49928225  0.16496774  0.83256929  1
  Ti4+  Ti12  1  0.49969873  0.49670463  0.16655232  1
  Ti4+  Ti13  1  0.50218967  0.49937520  0.49977114  1
  Ti4+  Ti14  1  0.49935055  0.49954154  0.83369394  1
  Ti4+  Ti15  1  0.49496386  0.83267215  0.17000057  1
  Ti4+  Ti16  1  0.50442354  0.83557930  0.49603641  1
  Ti4+  Ti17  1  0.49914749  0.83428670  0.83552735  1
  Ti4+  Ti18  1  0.83636474  0.16626353  0.16688819  1
  Ti4+  Ti19  1  0.83208563  0.16845548  0.49921565  1
  Ti4+  Ti20  1  0.83243644  0.16526358  0.83016677  1
  Ti4+  Ti21  1  0.83218658  0.50100542  0.17004162  1
  Ti4+  Ti22  1  0.83476787  0.50382306  0.50107966  1
  Ti4+  Ti23  1  0.83648255  0.49692376  0.83739918  1
  Ti4+  Ti24  1  0.83425585  0.83044697  0.16791575  1
  Ti4+  Ti25  1  0.82971590  0.83169425  0.50251039  1
  Ti4+  Ti26  1  0.83247984  0.83057710  0.83425357  1
  Cu+  Cu27  1  0.16796989  0.16545517  0.00483186  1
  Cu+  Cu28  1  0.16048313  0.16491696  0.33557056  1
  Cu+  Cu29  1  0.16548617  0.16678275  0.66993101  1
  Cu+  Cu30  1  0.16729999  0.50091903  -0.00421995  1
  Cu+  Cu31  1  0.16845879  0.50288477  0.33181174  1
  Cu+  Cu32  1  0.16590843  0.49777721  0.65956337  1
  Cu+  Cu33  1  0.17126415  0.83611981  -0.00401265  1
  Cu+  Cu34  1  0.17228701  0.83134867  0.33417108  1
  Cu+  Cu35  1  0.16228616  0.83623396  0.66549904  1
  Cu+  Cu36  1  0.50134135  0.16567763  -0.00276788  1
  Cu+  Cu37  1  0.49894246  0.16137953  0.33273229  1
  Cu+  Cu38  1  0.49477021  0.16972255  0.66924871  1
  Cu+  Cu39  1  0.49775479  0.49984864  0.00020842  1
  Cu+  Cu40  1  0.50164952  0.49711447  0.33370814  1
  Cu+  Cu41  1  0.50321943  0.50045483  0.66404390  1
  Cu+  Cu42  1  0.49492309  0.83326388  0.00333913  1
  Cu+  Cu43  1  0.50216363  0.84270312  0.33253050  1
  Cu+  Cu44  1  0.50104955  0.83373310  0.66745978  1
  Cu+  Cu45  1  0.83479181  0.16654516  -0.00354594  1
  Cu+  Cu46  1  0.83874051  0.17111968  0.32946186  1
  Cu+  Cu47  1  0.82757729  0.16360805  0.66175518  1
  Cu+  Cu48  1  0.83642299  0.49536750  0.00674190  1
  Cu+  Cu49  1  0.83662112  0.50810973  0.33356660  1
  Cu+  Cu50  1  0.83457214  0.50199540  0.67351073  1
  Cu+  Cu51  1  0.83421489  0.83015447  0.00002765  1
  Cu+  Cu52  1  0.82901724  0.82476059  0.33467477  1
  Cu+  Cu53  1  0.82890287  0.82853726  0.66722560  1
  Cu+  Cu54  1  0.16404100  0.00320064  0.17068320  1
  Cu+  Cu55  1  0.16426614  0.00079018  0.50310276  1
  Cu+  Cu56  1  0.16928754  -0.00239048  0.82741139  1
  Cu+  Cu57  1  0.16890807  0.33410936  0.16614530  1
  Cu+  Cu58  1  0.16565616  0.33665561  0.50003893  1
  Cu+  Cu59  1  0.15998561  0.33269389  0.83008630  1
  Cu+  Cu60  1  0.16800677  0.67009615  0.16365863  1
  Cu+  Cu61  1  0.17323395  0.67023149  0.49555131  1
  Cu+  Cu62  1  0.16840911  0.66509652  0.82842874  1
  Cu+  Cu63  1  0.49411864  0.00107803  0.17362389  1
  Cu+  Cu64  1  0.50429257  0.00281303  0.49130894  1
  Cu+  Cu65  1  0.50044087  -0.00046203  0.83455689  1
  Cu+  Cu66  1  0.50172320  0.33154360  0.16536367  1
  Cu+  Cu67  1  0.50031071  0.33400420  0.50223261  1
  Cu+  Cu68  1  0.49808083  0.33280550  0.83248584  1
  Cu+  Cu69  1  0.49644722  0.66015245  0.16474696  1
  Cu+  Cu70  1  0.50364964  0.66487895  0.49851886  1
  Cu+  Cu71  1  0.49974530  0.67011651  0.83573924  1
  Cu+  Cu72  1  0.83706851  -0.00001230  0.16316881  1
  Cu+  Cu73  1  0.82604917  0.00172513  0.50347399  1
  Cu+  Cu74  1  0.83159331  -0.00217134  0.83171165  1
  Cu+  Cu75  1  0.83794812  0.33297594  0.16957300  1
  Cu+  Cu76  1  0.83299190  0.33691785  0.49927167  1
  Cu+  Cu77  1  0.83766153  0.32879123  0.83585751  1
  Cu+  Cu78  1  0.82938382  0.66694143  0.17629063  1
  Cu+  Cu79  1  0.83342730  0.67007980  0.50271601  1
  Cu+  Cu80  1  0.83371176  0.66134369  0.83423916  1
  Cu+  Cu81  1  0.00272301  0.16812993  0.17494420  1
  Cu+  Cu82  1  -0.00326373  0.16790257  0.49930331  1
  Cu+  Cu83  1  -0.00291676  0.16983065  0.83001544  1
  Cu+  Cu84  1  -0.00188196  0.50273722  0.16616060  1
  Cu+  Cu85  1  0.00405930  0.50347253  0.50143348  1
  Cu+  Cu86  1  0.00442275  0.49380264  0.83829333  1
  Cu+  Cu87  1  0.00454310  0.83474377  0.16613748  1
  Cu+  Cu88  1  -0.00386720  0.83269831  0.49926052  1
  Cu+  Cu89  1  -0.00026486  0.83154583  0.83038621  1
  Cu+  Cu90  1  0.33330181  0.16565620  0.16931831  1
  Cu+  Cu91  1  0.32733584  0.16913400  0.50320817  1
  Cu+  Cu92  1  0.33485292  0.16551390  0.82745964  1
  Cu+  Cu93  1  0.33503092  0.50088014  0.16233695  1
  Cu+  Cu94  1  0.33788181  0.50277376  0.49791012  1
  Cu+  Cu95  1  0.32993495  0.49912608  0.83082325  1
  Cu+  Cu96  1  0.33370423  0.83780662  0.16216148  1
  Cu+  Cu97  1  0.33376495  0.83196150  0.49627538  1
  Cu+  Cu98  1  0.33190805  0.83516238  0.83646114  1
  Cu+  Cu99  1  0.67159673  0.16692318  0.16137450  1
  Cu+  Cu100  1  0.66479053  0.16375694  0.50255042  1
  Cu+  Cu101  1  0.66447623  0.16539913  0.83172844  1
  Cu+  Cu102  1  0.66380729  0.49682069  0.16739918  1
  Cu+  Cu103  1  0.66601222  0.50034324  0.50015387  1
  Cu+  Cu104  1  0.66715716  0.49856132  0.83616970  1
  Cu+  Cu105  1  0.66390260  0.82681168  0.17168109  1
  Cu+  Cu106  1  0.67179214  0.83494532  0.50013469  1
  Cu+  Cu107  1  0.66372333  0.83316123  0.83699471  1
  Cu+  Cu108  1  0.08402769  0.40497290  0.93006621  1
  Cu+  Cu109  1  0.07109630  0.40864194  0.58498087  1
  Cu+  Cu110  1  0.93188786  0.59547649  0.25624817  1
  Cu+  Cu111  1  0.92654301  0.25178928  0.92664978  1
  Cu+  Cu112  1  0.25684400  0.93045067  0.92507533  1
  Cu+  Cu113  1  0.06831128  0.25899969  0.73842194  1
  Cu+  Cu114  1  0.93080585  0.26418483  0.26432820  1
  Cu+  Cu115  1  0.92698507  0.40630306  0.08184127  1
  Cu+  Cu116  1  0.40153404  0.92946455  0.41595959  1
  Cu+  Cu117  1  0.40487210  0.58926929  0.06882815  1
  Cu+  Cu118  1  0.59745270  0.08322588  0.40354500  1
  Cu+  Cu119  1  0.26360989  0.07006451  0.73890660  1
  Cu+  Cu120  1  0.59681406  0.92920565  0.24834240  1
  Cu+  Cu121  1  0.40683064  0.26569890  0.74039858  1
  Cu+  Cu122  1  0.73214654  0.07353360  0.59671295  1
  Cu+  Cu123  1  0.41233090  0.93161147  0.07415435  1
  Cu+  Cu124  1  0.40125430  0.07776561  0.26159450  1
  Cu+  Cu125  1  0.73724068  0.73779902  0.59685504  1
  Cu+  Cu126  1  0.75631049  0.93144466  0.40013752  1
  Cu+  Cu127  1  0.07023620  0.06884601  0.26473936  1
  Cu+  Cu128  1  0.06699457  0.92389929  0.73908417  1
  Cu+  Cu129  1  0.92736787  0.74356306  0.40984715  1
  Cu+  Cu130  1  0.73038449  0.73417299  0.26272827  1
  Cu+  Cu131  1  0.26723376  0.73864802  0.40225603  1
  Cu+  Cu132  1  0.73796712  0.58784448  0.74729823  1
  Te2-  Te133  1  0.25392625  0.25133371  0.08316706  1
  Te2-  Te134  1  0.24724625  0.25147316  0.41529529  1
  Te2-  Te135  1  0.25183055  0.25628882  0.74689064  1
  Te2-  Te136  1  0.25107068  0.58702906  0.07695258  1
  Te2-  Te137  1  0.25790882  0.58690368  0.40985297  1
  Te2-  Te138  1  0.25074137  0.58271792  0.74275331  1
  Te2-  Te139  1  0.25212773  0.92701539  0.08044042  1
  Te2-  Te140  1  0.25006577  0.92464198  0.41426914  1
  Te2-  Te141  1  0.25745684  0.91677476  0.74105238  1
  Te2-  Te142  1  0.58563564  0.24993221  0.07976644  1
  Te2-  Te143  1  0.58321440  0.24979655  0.41518691  1
  Te2-  Te144  1  0.58532164  0.25208999  0.74752186  1
  Te2-  Te145  1  0.58661511  0.58327316  0.08081629  1
  Te2-  Te146  1  0.58723904  0.58433361  0.41243799  1
  Te2-  Te147  1  0.58464907  0.58693774  0.74936564  1
  Te2-  Te148  1  0.58353719  0.91780544  0.08649699  1
  Te2-  Te149  1  0.59717572  0.92378600  0.40916915  1
  Te2-  Te150  1  0.58533973  0.91835392  0.74950028  1
  Te2-  Te151  1  0.92478876  0.25138665  0.08027570  1
  Te2-  Te152  1  0.92006531  0.25672226  0.41591056  1
  Te2-  Te153  1  0.91499341  0.25218090  0.73906965  1
  Te2-  Te154  1  0.91514113  0.59109761  0.08421254  1
  Te2-  Te155  1  0.92416771  0.59022427  0.41607208  1
  Te2-  Te156  1  0.92485566  0.58183978  0.75354164  1
  Te2-  Te157  1  0.91955381  0.91481766  0.08137899  1
  Te2-  Te158  1  0.91314228  0.91968382  0.41472925  1
  Te2-  Te159  1  0.91500596  0.91712597  0.74476520  1
  Te2-  Te160  1  0.25053980  0.08135105  0.25709888  1
  Te2-  Te161  1  0.25073041  0.08010649  0.58735154  1
  Te2-  Te162  1  0.25222056  0.08341503  0.91866589  1
  Te2-  Te163  1  0.25319340  0.41771835  0.24957154  1
  Te2-  Te164  1  0.25646003  0.41615195  0.58105450  1
  Te2-  Te165  1  0.25028430  0.41137855  0.91549538  1
  Te2-  Te166  1  0.25665505  0.74786132  0.24885655  1
  Te2-  Te167  1  0.25285731  0.75193908  0.58661956  1
  Te2-  Te168  1  0.25165720  0.74477511  0.91616131  1
  Te2-  Te169  1  0.59373146  0.08060474  0.25097569  1
  Te2-  Te170  1  0.58014544  0.07955772  0.59026701  1
  Te2-  Te171  1  0.58616219  0.07997149  0.91818719  1
  Te2-  Te172  1  0.58516394  0.41088520  0.25265307  1
  Te2-  Te173  1  0.58811636  0.41325725  0.58573280  1
  Te2-  Te174  1  0.58313821  0.41363637  0.91915044  1
  Te2-  Te175  1  0.57800584  0.74178977  0.25530957  1
  Te2-  Te176  1  0.58540768  0.74868385  0.58479347  1
  Te2-  Te177  1  0.58299200  0.74973298  0.92368845  1
  Te2-  Te178  1  0.91929374  0.07610773  0.25450777  1
  Te2-  Te179  1  0.91780181  0.08058705  0.58321803  1
  Te2-  Te180  1  0.91926261  0.07925635  0.91484052  1
  Te2-  Te181  1  0.92205475  0.41643519  0.25783837  1
  Te2-  Te182  1  0.91771485  0.41678855  0.58727813  1
  Te2-  Te183  1  0.92468216  0.40771902  0.92535216  1
  Te2-  Te184  1  0.92649529  0.74797779  0.25471820  1
  Te2-  Te185  1  0.91985211  0.74805461  0.58890177  1
  Te2-  Te186  1  0.91944251  0.74605932  0.91738438  1
  Te2-  Te187  1  0.08331058  0.25947430  0.25650806  1
  Te2-  Te188  1  0.07689344  0.25373384  0.58612746  1
  Te2-  Te189  1  0.08057447  0.25036866  0.92406450  1
  Te2-  Te190  1  0.08376908  0.58933092  0.25135241  1
  Te2-  Te191  1  0.08601438  0.59212219  0.58267411  1
  Te2-  Te192  1  0.08300804  0.58760133  0.91583355  1
  Te2-  Te193  1  0.08214800  0.91676376  0.25670621  1
  Te2-  Te194  1  0.07562974  0.92000251  0.58339560  1
  Te2-  Te195  1  0.08136495  0.91959889  0.91574355  1
  Te2-  Te196  1  0.41699489  0.25163962  0.25259658  1
  Te2-  Te197  1  0.41106995  0.25423472  0.58485268  1
  Te2-  Te198  1  0.41277526  0.24996777  0.91853929  1
  Te2-  Te199  1  0.41419950  0.58151428  0.25446469  1
  Te2-  Te200  1  0.41735718  0.58719884  0.58491932  1
  Te2-  Te201  1  0.41099332  0.58607725  0.91634624  1
  Te2-  Te202  1  0.40445102  0.92174027  0.25891289  1
  Te2-  Te203  1  0.41851083  0.91910333  0.58057588  1
  Te2-  Te204  1  0.41192996  0.92386323  0.92162532  1
  Te2-  Te205  1  0.74803180  0.25241059  0.25017235  1
  Te2-  Te206  1  0.74565647  0.25523447  0.58236626  1
  Te2-  Te207  1  0.74600822  0.25000305  0.91664335  1
  Te2-  Te208  1  0.73983558  0.58298165  0.25611196  1
  Te2-  Te209  1  0.74564973  0.58559266  0.58926857  1
  Te2-  Te210  1  0.75109939  0.58057736  0.92450057  1
  Te2-  Te211  1  0.74905537  0.92221012  0.25060431  1
  Te2-  Te212  1  0.74360708  0.91992621  0.59235754  1
  Te2-  Te213  1  0.74907584  0.91645901  0.91972937  1
  Te2-  Te214  1  0.07932593  0.08259341  0.08325539  1
  Te2-  Te215  1  0.07628379  0.07859580  0.41772672  1
  Te2-  Te216  1  0.07611377  0.07912833  0.74695395  1
  Te2-  Te217  1  0.08060898  0.41310885  0.08121290  1
  Te2-  Te218  1  0.08202618  0.41770994  0.41204481  1
  Te2-  Te219  1  0.07600838  0.41284169  0.74003556  1
  Te2-  Te220  1  0.08493660  0.75228590  0.07823287  1
  Te2-  Te221  1  0.08117906  0.74841493  0.41280526  1
  Te2-  Te222  1  0.08161653  0.74575102  0.74549730  1
  Te2-  Te223  1  0.41335062  0.08280707  0.07855943  1
  Te2-  Te224  1  0.40509954  0.08187388  0.41488440  1
  Te2-  Te225  1  0.41521770  0.07454086  0.74492860  1
  Te2-  Te226  1  0.41439918  0.41016316  0.08011313  1
  Te2-  Te227  1  0.41607182  0.41319335  0.41478675  1
  Te2-  Te228  1  0.41365973  0.41691585  0.74456550  1
  Te2-  Te229  1  0.41117923  0.74487670  0.08162974  1
  Te2-  Te230  1  0.42034705  0.74684862  0.41111129  1
  Te2-  Te231  1  0.41392876  0.75032969  0.74904574  1
  Te2-  Te232  1  0.75275201  0.08090489  0.07860357  1
  Te2-  Te233  1  0.74869534  0.08384364  0.40649551  1
  Te2-  Te234  1  0.74390627  0.07812500  0.74759299  1
  Te2-  Te235  1  0.74786800  0.41178355  0.08564869  1
  Te2-  Te236  1  0.75130243  0.42026658  0.41413292  1
  Te2-  Te237  1  0.75066048  0.41161040  0.75209196  1
  Te2-  Te238  1  0.74763040  0.74637865  0.08312344  1
  Te2-  Te239  1  0.74099078  0.74032320  0.41497991  1
  Te2-  Te240  1  0.74202115  0.74337177  0.75093009  1
