# generated using pymatgen
data_Ti27(Cu53Te54)2
_symmetry_space_group_name_H-M   'P 1'
_cell_length_a   17.87326135
_cell_length_b   17.87212303
_cell_length_c   17.87214609
_cell_angle_alpha   90.01506329
_cell_angle_beta   90.00693848
_cell_angle_gamma   89.99324637
_symmetry_Int_Tables_number   1
_chemical_formula_structural   Ti27(Cu53Te54)2
_chemical_formula_sum   'Ti27 Cu106 Te108'
_cell_volume   5708.95521358
_cell_formula_units_Z   1
loop_
 _symmetry_equiv_pos_site_id
 _symmetry_equiv_pos_as_xyz
  1  'x, y, z'
loop_
 _atom_type_symbol
 _atom_type_oxidation_number
  Ti4+  4.0
  Cu+  1.0
  Te2-  -2.0
loop_
 _atom_site_type_symbol
 _atom_site_label
 _atom_site_symmetry_multiplicity
 _atom_site_fract_x
 _atom_site_fract_y
 _atom_site_fract_z
 _atom_site_occupancy
  Ti4+  Ti0  1  0.16755755  0.16609661  0.16513332  1
  Ti4+  Ti1  1  0.16514295  0.16693878  0.50140792  1
  Ti4+  Ti2  1  0.16998700  0.16741438  0.82924802  1
  Ti4+  Ti3  1  0.16726196  0.50167041  0.16672533  1
  Ti4+  Ti4  1  0.16675837  0.50099095  0.50099495  1
  Ti4+  Ti5  1  0.16370105  0.49658019  0.83386649  1
  Ti4+  Ti6  1  0.16564598  0.83124998  0.16319598  1
  Ti4+  Ti7  1  0.16472142  0.83348684  0.49999248  1
  Ti4+  Ti8  1  0.16628090  0.83383406  0.83373645  1
  Ti4+  Ti9  1  0.50170790  0.16495766  0.16988413  1
  Ti4+  Ti10  1  0.49752810  0.16512116  0.50005908  1
  Ti4+  Ti11  1  0.50189436  0.16175233  0.83519839  1
  Ti4+  Ti12  1  0.50058265  0.49902205  0.16753476  1
  Ti4+  Ti13  1  0.49996613  0.50151672  0.50048595  1
  Ti4+  Ti14  1  0.49854956  0.50008483  0.83339671  1
  Ti4+  Ti15  1  0.50010210  0.83330063  0.16903090  1
  Ti4+  Ti16  1  0.49859888  0.83485400  0.49965485  1
  Ti4+  Ti17  1  0.50092701  0.83504906  0.83133978  1
  Ti4+  Ti18  1  0.83605961  0.16628477  0.16781781  1
  Ti4+  Ti19  1  0.83293218  0.16758481  0.50139667  1
  Ti4+  Ti20  1  0.83238220  0.16686800  0.83621876  1
  Ti4+  Ti21  1  0.83299310  0.49907372  0.16373193  1
  Ti4+  Ti22  1  0.83183627  0.49857322  0.49781365  1
  Ti4+  Ti23  1  0.83380805  0.50230026  0.83071614  1
  Ti4+  Ti24  1  0.83392263  0.83511107  0.16906293  1
  Ti4+  Ti25  1  0.83257645  0.83286570  0.49885762  1
  Ti4+  Ti26  1  0.83457720  0.83507453  0.83458621  1
  Cu+  Cu27  1  0.16952583  0.16485363  -0.00248652  1
  Cu+  Cu28  1  0.16651753  0.16899793  0.33295459  1
  Cu+  Cu29  1  0.16422959  0.17110577  0.66649064  1
  Cu+  Cu30  1  0.17023193  0.50115057  -0.00039247  1
  Cu+  Cu31  1  0.16728144  0.50173428  0.33455262  1
  Cu+  Cu32  1  0.16399935  0.49685137  0.66737143  1
  Cu+  Cu33  1  0.16744270  0.83282163  -0.00559602  1
  Cu+  Cu34  1  0.16381742  0.83020816  0.33185819  1
  Cu+  Cu35  1  0.16400073  0.83591601  0.66615926  1
  Cu+  Cu36  1  0.50284598  0.16400137  0.00553782  1
  Cu+  Cu37  1  0.49481596  0.16362179  0.33349990  1
  Cu+  Cu38  1  0.49743683  0.16013096  0.66675025  1
  Cu+  Cu39  1  0.49667979  0.50017016  0.00370607  1
  Cu+  Cu40  1  0.50010397  0.49916314  0.33278564  1
  Cu+  Cu41  1  0.49994390  0.50173658  0.66469977  1
  Cu+  Cu42  1  0.50128914  0.83394426  -0.00178626  1
  Cu+  Cu43  1  0.50463938  0.83265109  0.33616221  1
  Cu+  Cu44  1  0.49720065  0.83530750  0.66554940  1
  Cu+  Cu45  1  0.83018583  0.16657518  0.00158872  1
  Cu+  Cu46  1  0.83813222  0.16187642  0.33797689  1
  Cu+  Cu47  1  0.83269082  0.16996776  0.66605790  1
  Cu+  Cu48  1  0.83187619  0.49899322  -0.00602732  1
  Cu+  Cu49  1  0.83300439  0.49695946  0.33058846  1
  Cu+  Cu50  1  0.83686480  0.50277025  0.66238402  1
  Cu+  Cu51  1  0.83739440  0.83240365  0.00758148  1
  Cu+  Cu52  1  0.83290006  0.83405327  0.33394718  1
  Cu+  Cu53  1  0.83262123  0.83516971  0.66734228  1
  Cu+  Cu54  1  0.16762264  -0.00352666  0.16319040  1
  Cu+  Cu55  1  0.16583653  -0.00090173  0.50016867  1
  Cu+  Cu56  1  0.16650609  0.00053367  0.83440001  1
  Cu+  Cu57  1  0.16938400  0.33368676  0.16561880  1
  Cu+  Cu58  1  0.16588136  0.33403322  0.50185169  1
  Cu+  Cu59  1  0.16937413  0.33274815  0.82247345  1
  Cu+  Cu60  1  0.16242309  0.66872526  0.16942607  1
  Cu+  Cu61  1  0.16867778  0.66824789  0.50099970  1
  Cu+  Cu62  1  0.16355671  0.66325707  0.83755351  1
  Cu+  Cu63  1  0.50023592  -0.00070520  0.17472520  1
  Cu+  Cu64  1  0.49358473  0.00285366  0.50317711  1
  Cu+  Cu65  1  0.51175769  -0.00273494  0.83270952  1
  Cu+  Cu66  1  0.50293039  0.33348343  0.16886825  1
  Cu+  Cu67  1  0.50075548  0.33538836  0.49912170  1
  Cu+  Cu68  1  0.49852062  0.32920718  0.83522211  1
  Cu+  Cu69  1  0.49879980  0.66449541  0.16546034  1
  Cu+  Cu70  1  0.50199798  0.66858484  0.49761248  1
  Cu+  Cu71  1  0.49617970  0.66916573  0.83208115  1
  Cu+  Cu72  1  0.83551905  0.00431964  0.17165134  1
  Cu+  Cu73  1  0.83544189  -0.00044931  0.49847902  1
  Cu+  Cu74  1  0.83261453  0.00089947  0.83769540  1
  Cu+  Cu75  1  0.83250431  0.33104664  0.16295829  1
  Cu+  Cu76  1  0.82937112  0.33274597  0.49838518  1
  Cu+  Cu77  1  0.83108689  0.33926390  0.83593955  1
  Cu+  Cu78  1  0.83259633  0.66610821  0.16402096  1
  Cu+  Cu79  1  0.83315900  0.66445628  0.49954507  1
  Cu+  Cu80  1  0.83296854  0.66855655  0.83232743  1
  Cu+  Cu81  1  0.00104753  0.16619742  0.16301886  1
  Cu+  Cu82  1  -0.00239392  0.16403044  0.50001200  1
  Cu+  Cu83  1  0.00335333  0.16987301  0.83416198  1
  Cu+  Cu84  1  0.00021877  0.50067084  0.16421796  1
  Cu+  Cu85  1  -0.00252232  0.49983185  0.50132612  1
  Cu+  Cu86  1  0.00032453  0.50430398  0.82680743  1
  Cu+  Cu87  1  -0.00014901  0.82733288  0.16625911  1
  Cu+  Cu88  1  -0.00058609  0.83209688  0.50042479  1
  Cu+  Cu89  1  0.00157232  0.83476838  0.83276284  1
  Cu+  Cu90  1  0.33316841  0.16428024  0.16855708  1
  Cu+  Cu91  1  0.33077760  0.16421656  0.50436698  1
  Cu+  Cu92  1  0.34057709  0.17051247  0.82869138  1
  Cu+  Cu93  1  0.33535426  0.50165965  0.16496268  1
  Cu+  Cu94  1  0.33528164  0.50333066  0.50154480  1
  Cu+  Cu95  1  0.32895106  0.49456176  0.83681718  1
  Cu+  Cu96  1  0.33280599  0.83296975  0.16354099  1
  Cu+  Cu97  1  0.32987895  0.83513496  0.49827190  1
  Cu+  Cu98  1  0.33318441  0.83635313  0.83381772  1
  Cu+  Cu99  1  0.67222726  0.16809194  0.16948554  1
  Cu+  Cu100  1  0.66463377  0.17151135  0.49932512  1
  Cu+  Cu101  1  0.66615463  0.15741834  0.83460655  1
  Cu+  Cu102  1  0.66492245  0.49895147  0.16597379  1
  Cu+  Cu103  1  0.66680557  0.49830506  0.49885835  1
  Cu+  Cu104  1  0.66553170  0.49992022  0.83203608  1
  Cu+  Cu105  1  0.66514374  0.83875460  0.17298280  1
  Cu+  Cu106  1  0.66621245  0.83187036  0.49664379  1
  Cu+  Cu107  1  0.66679402  0.83745566  0.83586637  1
  Cu+  Cu108  1  0.59560398  0.73634327  0.40728261  1
  Cu+  Cu109  1  0.07927847  0.59503389  0.73831456  1
  Cu+  Cu110  1  0.07070171  0.73940097  0.26528795  1
  Cu+  Cu111  1  0.41959046  0.26050637  0.73593421  1
  Cu+  Cu112  1  0.07379359  0.92871219  0.73724778  1
  Cu+  Cu113  1  0.92591586  0.59604398  0.58659515  1
  Cu+  Cu114  1  0.25871547  0.59066624  0.92447913  1
  Cu+  Cu115  1  0.93117290  0.06833166  0.41159528  1
  Cu+  Cu116  1  0.07058748  0.73691985  0.92148576  1
  Cu+  Cu117  1  0.40014360  0.07145029  0.25901682  1
  Cu+  Cu118  1  0.06798999  0.25949737  0.73754866  1
  Cu+  Cu119  1  0.26128894  0.41148267  0.73625348  1
  Cu+  Cu120  1  0.73540077  0.41351810  0.92294502  1
  Cu+  Cu121  1  0.59752277  0.07186833  0.73386163  1
  Cu+  Cu122  1  0.26329516  0.93120555  0.92359960  1
  Cu+  Cu123  1  0.92656916  0.07574176  0.07269855  1
  Cu+  Cu124  1  0.92509115  0.73491521  0.07743453  1
  Cu+  Cu125  1  0.39936536  0.07135210  0.59848148  1
  Cu+  Cu126  1  0.74126427  0.07125035  0.92966216  1
  Cu+  Cu127  1  0.40790875  0.59466336  0.07607803  1
  Cu+  Cu128  1  0.59709526  0.92040430  0.93208827  1
  Cu+  Cu129  1  0.07797782  0.07712923  0.92400145  1
  Cu+  Cu130  1  0.74307508  0.07970525  0.26692086  1
  Cu+  Cu131  1  0.73993114  0.25956054  0.07494292  1
  Cu+  Cu132  1  0.59115159  0.92813607  0.26754033  1
  Te2-  Te133  1  0.25439122  0.24954349  0.08081541  1
  Te2-  Te134  1  0.25166657  0.25155300  0.41752430  1
  Te2-  Te135  1  0.25978139  0.25279665  0.74044829  1
  Te2-  Te136  1  0.25318775  0.59182537  0.08056145  1
  Te2-  Te137  1  0.25237732  0.58621546  0.41612082  1
  Te2-  Te138  1  0.25067188  0.58502045  0.74875707  1
  Te2-  Te139  1  0.25386256  0.91828134  0.07728787  1
  Te2-  Te140  1  0.24795155  0.91786265  0.41189327  1
  Te2-  Te141  1  0.25132966  0.92014997  0.74705200  1
  Te2-  Te142  1  0.58723416  0.25208819  0.08322349  1
  Te2-  Te143  1  0.58073932  0.25090867  0.41281950  1
  Te2-  Te144  1  0.58637368  0.24781440  0.74831574  1
  Te2-  Te145  1  0.58670385  0.58539884  0.08008117  1
  Te2-  Te146  1  0.58774698  0.58447646  0.41201573  1
  Te2-  Te147  1  0.58255228  0.58566614  0.74978659  1
  Te2-  Te148  1  0.58516979  0.92120566  0.08338714  1
  Te2-  Te149  1  0.58584847  0.92601825  0.41823611  1
  Te2-  Te150  1  0.59067750  0.91704004  0.74056966  1
  Te2-  Te151  1  0.92048273  0.25232221  0.07800612  1
  Te2-  Te152  1  0.91846071  0.25369582  0.41562416  1
  Te2-  Te153  1  0.91548695  0.25430779  0.75018404  1
  Te2-  Te154  1  0.91855847  0.58341095  0.07615102  1
  Te2-  Te155  1  0.91824095  0.58376978  0.41131513  1
  Te2-  Te156  1  0.92002217  0.59281525  0.74375056  1
  Te2-  Te157  1  0.92189256  0.92217429  0.08476053  1
  Te2-  Te158  1  0.92182543  0.91708108  0.41236082  1
  Te2-  Te159  1  0.91833484  0.92179412  0.74813332  1
  Te2-  Te160  1  0.24845606  0.07779111  0.25338613  1
  Te2-  Te161  1  0.24781661  0.07879348  0.59006359  1
  Te2-  Te162  1  0.25943072  0.08376596  0.91557723  1
  Te2-  Te163  1  0.25260281  0.41746788  0.25132434  1
  Te2-  Te164  1  0.25445318  0.41479369  0.58473778  1
  Te2-  Te165  1  0.24804324  0.40753267  0.92000087  1
  Te2-  Te166  1  0.25312086  0.74888161  0.25012829  1
  Te2-  Te167  1  0.25119518  0.75053405  0.58701209  1
  Te2-  Te168  1  0.25579982  0.74540355  0.91764169  1
  Te2-  Te169  1  0.59080787  0.08138650  0.25853526  1
  Te2-  Te170  1  0.58882355  0.08013089  0.58296994  1
  Te2-  Te171  1  0.58830957  0.07657797  0.92905408  1
  Te2-  Te172  1  0.58720124  0.41409771  0.25384745  1
  Te2-  Te173  1  0.58542504  0.41483597  0.58569988  1
  Te2-  Te174  1  0.58170401  0.41330354  0.91986727  1
  Te2-  Te175  1  0.58670461  0.74347546  0.25163420  1
  Te2-  Te176  1  0.58440879  0.75035981  0.58617004  1
  Te2-  Te177  1  0.58504964  0.74739002  0.91686446  1
  Te2-  Te178  1  0.92698274  0.08045699  0.25532987  1
  Te2-  Te179  1  0.91710257  0.08095193  0.58860163  1
  Te2-  Te180  1  0.92327238  0.08106644  0.92044875  1
  Te2-  Te181  1  0.91835579  0.41290981  0.24741402  1
  Te2-  Te182  1  0.91698374  0.41077488  0.58357801  1
  Te2-  Te183  1  0.92345823  0.41802147  0.91536320  1
  Te2-  Te184  1  0.91657234  0.74450092  0.25512675  1
  Te2-  Te185  1  0.91841927  0.74892489  0.58696548  1
  Te2-  Te186  1  0.91937738  0.74598871  0.92068682  1
  Te2-  Te187  1  0.08184017  0.25211275  0.24877218  1
  Te2-  Te188  1  0.07591432  0.25395932  0.58424442  1
  Te2-  Te189  1  0.08814902  0.25546110  0.91649341  1
  Te2-  Te190  1  0.07824991  0.58451114  0.25394952  1
  Te2-  Te191  1  0.07993025  0.58940137  0.58685750  1
  Te2-  Te192  1  0.07545842  0.58225105  0.92362055  1
  Te2-  Te193  1  0.08065581  0.91693514  0.24871436  1
  Te2-  Te194  1  0.07665724  0.92113503  0.58477567  1
  Te2-  Te195  1  0.07781471  0.92172134  0.92167148  1
  Te2-  Te196  1  0.41483447  0.25276091  0.25114739  1
  Te2-  Te197  1  0.41433288  0.25443051  0.58499794  1
  Te2-  Te198  1  0.41773170  0.24747188  0.92422559  1
  Te2-  Te199  1  0.41459789  0.58562871  0.25396098  1
  Te2-  Te200  1  0.41603723  0.58993360  0.58528620  1
  Te2-  Te201  1  0.41134495  0.58711481  0.91921092  1
  Te2-  Te202  1  0.41064834  0.91548873  0.25637170  1
  Te2-  Te203  1  0.40900641  0.91856339  0.58674697  1
  Te2-  Te204  1  0.41610748  0.92275090  0.91900654  1
  Te2-  Te205  1  0.75329076  0.25204940  0.25764179  1
  Te2-  Te206  1  0.74592785  0.25350172  0.58614193  1
  Te2-  Te207  1  0.74236535  0.25490598  0.91861421  1
  Te2-  Te208  1  0.74865834  0.58411811  0.24946989  1
  Te2-  Te209  1  0.74546037  0.58483537  0.58430572  1
  Te2-  Te210  1  0.74663584  0.58782117  0.91631292  1
  Te2-  Te211  1  0.74806982  0.92320055  0.25832572  1
  Te2-  Te212  1  0.74793286  0.91868442  0.58269309  1
  Te2-  Te213  1  0.75002916  0.91840607  0.92719994  1
  Te2-  Te214  1  0.08174413  0.07708657  0.07774728  1
  Te2-  Te215  1  0.08260327  0.08025966  0.41302519  1
  Te2-  Te216  1  0.07964894  0.08090741  0.74513322  1
  Te2-  Te217  1  0.08385806  0.41573220  0.08024982  1
  Te2-  Te218  1  0.08149128  0.41641225  0.41599392  1
  Te2-  Te219  1  0.07469934  0.41157957  0.74385974  1
  Te2-  Te220  1  0.07963247  0.74361586  0.07419981  1
  Te2-  Te221  1  0.07855704  0.74443811  0.41649318  1
  Te2-  Te222  1  0.08031897  0.74638600  0.74611664  1
  Te2-  Te223  1  0.41671375  0.07832874  0.08466493  1
  Te2-  Te224  1  0.40838492  0.07930556  0.41404989  1
  Te2-  Te225  1  0.41348990  0.07169082  0.75098222  1
  Te2-  Te226  1  0.41459725  0.41034291  0.08314789  1
  Te2-  Te227  1  0.41381314  0.41608526  0.41544567  1
  Te2-  Te228  1  0.41393784  0.41356712  0.74509916  1
  Te2-  Te229  1  0.41540199  0.74962105  0.07874175  1
  Te2-  Te230  1  0.41278613  0.74979305  0.41406434  1
  Te2-  Te231  1  0.41225219  0.75092550  0.74712811  1
  Te2-  Te232  1  0.74615345  0.07685662  0.08240939  1
  Te2-  Te233  1  0.74345429  0.08010567  0.41804212  1
  Te2-  Te234  1  0.75186274  0.07942548  0.74500717  1
  Te2-  Te235  1  0.74389517  0.41317027  0.07734218  1
  Te2-  Te236  1  0.74603381  0.41347703  0.41160981  1
  Te2-  Te237  1  0.74887235  0.41753440  0.74365221  1
  Te2-  Te238  1  0.74405199  0.75182318  0.08570284  1
  Te2-  Te239  1  0.74905861  0.74448995  0.41167657  1
  Te2-  Te240  1  0.74766336  0.75210696  0.75043719  1
