# generated using pymatgen
data_Ti27(Cu53Te54)2
_symmetry_space_group_name_H-M   'P 1'
_cell_length_a   17.89698931
_cell_length_b   17.90167767
_cell_length_c   17.89469951
_cell_angle_alpha   89.96195380
_cell_angle_beta   90.01465567
_cell_angle_gamma   90.07158811
_symmetry_Int_Tables_number   1
_chemical_formula_structural   Ti27(Cu53Te54)2
_chemical_formula_sum   'Ti27 Cu106 Te108'
_cell_volume   5733.20766820
_cell_formula_units_Z   1
loop_
 _symmetry_equiv_pos_site_id
 _symmetry_equiv_pos_as_xyz
  1  'x, y, z'
loop_
 _atom_type_symbol
 _atom_type_oxidation_number
  Ti4+  4.0
  Cu+  1.0
  Te2-  -2.0
loop_
 _atom_site_type_symbol
 _atom_site_label
 _atom_site_symmetry_multiplicity
 _atom_site_fract_x
 _atom_site_fract_y
 _atom_site_fract_z
 _atom_site_occupancy
  Ti4+  Ti0  1  0.16786026  0.16444735  0.17001539  1
  Ti4+  Ti1  1  0.17082081  0.16805036  0.50224305  1
  Ti4+  Ti2  1  0.16837845  0.16704338  0.82939734  1
  Ti4+  Ti3  1  0.16785467  0.49690811  0.16517902  1
  Ti4+  Ti4  1  0.16299482  0.50120156  0.50049484  1
  Ti4+  Ti5  1  0.16254966  0.50415450  0.83721345  1
  Ti4+  Ti6  1  0.16705854  0.82984482  0.16936080  1
  Ti4+  Ti7  1  0.16715633  0.83413109  0.50016642  1
  Ti4+  Ti8  1  0.16702877  0.83519977  0.83666610  1
  Ti4+  Ti9  1  0.49724662  0.16680010  0.16549698  1
  Ti4+  Ti10  1  0.50236361  0.16742782  0.49876125  1
  Ti4+  Ti11  1  0.50057298  0.16645394  0.83142472  1
  Ti4+  Ti12  1  0.50091602  0.49993594  0.16329987  1
  Ti4+  Ti13  1  0.49938900  0.50043372  0.49748501  1
  Ti4+  Ti14  1  0.49725166  0.50197513  0.83041309  1
  Ti4+  Ti15  1  0.50199258  0.83338923  0.16832304  1
  Ti4+  Ti16  1  0.50212804  0.83153026  0.49955532  1
  Ti4+  Ti17  1  0.49872866  0.83512516  0.83562811  1
  Ti4+  Ti18  1  0.83397346  0.16985756  0.16540108  1
  Ti4+  Ti19  1  0.83443887  0.16475429  0.50065536  1
  Ti4+  Ti20  1  0.83359889  0.16551886  0.83443450  1
  Ti4+  Ti21  1  0.83167137  0.49849306  0.16453514  1
  Ti4+  Ti22  1  0.83201824  0.49725118  0.49902230  1
  Ti4+  Ti23  1  0.83098757  0.49708025  0.83257566  1
  Ti4+  Ti24  1  0.83372015  0.83642294  0.16714106  1
  Ti4+  Ti25  1  0.83372925  0.83130431  0.49962454  1
  Ti4+  Ti26  1  0.83438148  0.83388010  0.83422724  1
  Cu+  Cu27  1  0.16410061  0.16308908  -0.00024723  1
  Cu+  Cu28  1  0.17143343  0.16909137  0.33917115  1
  Cu+  Cu29  1  0.17309700  0.16486287  0.66747332  1
  Cu+  Cu30  1  0.16970911  0.50505225  -0.00136234  1
  Cu+  Cu31  1  0.16469071  0.49535446  0.33384297  1
  Cu+  Cu32  1  0.16154894  0.50337286  0.67013044  1
  Cu+  Cu33  1  0.16177231  0.83040519  0.00072408  1
  Cu+  Cu34  1  0.17304108  0.83115495  0.33449916  1
  Cu+  Cu35  1  0.16297525  0.83552184  0.66682143  1
  Cu+  Cu36  1  0.49730084  0.16357181  -0.00305600  1
  Cu+  Cu37  1  0.50101593  0.16488922  0.33075270  1
  Cu+  Cu38  1  0.50100003  0.17047104  0.66447103  1
  Cu+  Cu39  1  0.49986218  0.50150754  -0.00268198  1
  Cu+  Cu40  1  0.50221354  0.49716814  0.32979293  1
  Cu+  Cu41  1  0.49595917  0.50469674  0.66257577  1
  Cu+  Cu42  1  0.49744192  0.83655654  0.00380280  1
  Cu+  Cu43  1  0.50535919  0.82956339  0.33539981  1
  Cu+  Cu44  1  0.50333548  0.83233123  0.66923014  1
  Cu+  Cu45  1  0.82975223  0.17079773  0.00167461  1
  Cu+  Cu46  1  0.83345407  0.16910388  0.33269270  1
  Cu+  Cu47  1  0.83696241  0.16093265  0.66861997  1
  Cu+  Cu48  1  0.83523507  0.49551409  -0.00054163  1
  Cu+  Cu49  1  0.83353869  0.49946081  0.32949885  1
  Cu+  Cu50  1  0.82923741  0.49579767  0.66521061  1
  Cu+  Cu51  1  0.83583154  0.84018674  0.00114871  1
  Cu+  Cu52  1  0.83011888  0.83609800  0.33352753  1
  Cu+  Cu53  1  0.83370854  0.83008497  0.66472346  1
  Cu+  Cu54  1  0.16966927  -0.00596474  0.17417198  1
  Cu+  Cu55  1  0.16986692  0.00237506  0.50023552  1
  Cu+  Cu56  1  0.16858725  0.00143729  0.82874407  1
  Cu+  Cu57  1  0.16631418  0.32697546  0.16674589  1
  Cu+  Cu58  1  0.16504066  0.33465632  0.49882826  1
  Cu+  Cu59  1  0.16524053  0.33887217  0.83126395  1
  Cu+  Cu60  1  0.16626812  0.66198190  0.16730915  1
  Cu+  Cu61  1  0.16572615  0.66899806  0.49996569  1
  Cu+  Cu62  1  0.16333421  0.67069526  0.84301291  1
  Cu+  Cu63  1  0.49627316  -0.00198573  0.16343611  1
  Cu+  Cu64  1  0.50143206  -0.00053913  0.50426050  1
  Cu+  Cu65  1  0.49667319  0.00277353  0.83834178  1
  Cu+  Cu66  1  0.49661561  0.33556991  0.16570261  1
  Cu+  Cu67  1  0.50395996  0.33653929  0.49540307  1
  Cu+  Cu68  1  0.49557698  0.33183208  0.82795207  1
  Cu+  Cu69  1  0.50283369  0.66565671  0.16741057  1
  Cu+  Cu70  1  0.50331121  0.66706175  0.49684932  1
  Cu+  Cu71  1  0.50206698  0.67071242  0.83215392  1
  Cu+  Cu72  1  0.83580464  0.00493635  0.16835392  1
  Cu+  Cu73  1  0.83164075  -0.00404047  0.49951663  1
  Cu+  Cu74  1  0.83981209  -0.00036240  0.83473977  1
  Cu+  Cu75  1  0.83092611  0.33465453  0.15939265  1
  Cu+  Cu76  1  0.83045498  0.33002708  0.50032543  1
  Cu+  Cu77  1  0.83103067  0.33145916  0.83273213  1
  Cu+  Cu78  1  0.83173435  0.67052075  0.16571230  1
  Cu+  Cu79  1  0.83376359  0.66251474  0.50131213  1
  Cu+  Cu80  1  0.83212293  0.66199971  0.83418009  1
  Cu+  Cu81  1  0.00483392  0.16865521  0.16559872  1
  Cu+  Cu82  1  0.00372848  0.16881123  0.50458183  1
  Cu+  Cu83  1  -0.00257250  0.16291834  0.83132314  1
  Cu+  Cu84  1  -0.00119290  0.49403330  0.16193952  1
  Cu+  Cu85  1  -0.00376066  0.49971144  0.50332251  1
  Cu+  Cu86  1  -0.00709772  0.50652290  0.83815195  1
  Cu+  Cu87  1  -0.00070531  0.83222341  0.16791059  1
  Cu+  Cu88  1  0.00034719  0.83363430  0.50061333  1
  Cu+  Cu89  1  0.00107009  0.83710502  0.84075730  1
  Cu+  Cu90  1  0.33004141  0.16781354  0.17058802  1
  Cu+  Cu91  1  0.33756426  0.16443983  0.49987154  1
  Cu+  Cu92  1  0.33627100  0.16559564  0.82587978  1
  Cu+  Cu93  1  0.33928128  0.49674158  0.16681547  1
  Cu+  Cu94  1  0.33004319  0.50135261  0.49842130  1
  Cu+  Cu95  1  0.32819320  0.50413719  0.83370560  1
  Cu+  Cu96  1  0.33522039  0.83396709  0.17000937  1
  Cu+  Cu97  1  0.33356506  0.82907741  0.50129373  1
  Cu+  Cu98  1  0.33361760  0.83494969  0.83456600  1
  Cu+  Cu99  1  0.66484592  0.17023643  0.16346582  1
  Cu+  Cu100  1  0.66972757  0.16850098  0.49870738  1
  Cu+  Cu101  1  0.66668564  0.16510795  0.83232379  1
  Cu+  Cu102  1  0.66611205  0.50314905  0.16491492  1
  Cu+  Cu103  1  0.66499081  0.49601583  0.49718162  1
  Cu+  Cu104  1  0.66556833  0.49899512  0.83127751  1
  Cu+  Cu105  1  0.66886216  0.83555158  0.16789394  1
  Cu+  Cu106  1  0.66910223  0.83120638  0.49569540  1
  Cu+  Cu107  1  0.66474681  0.83212433  0.83252582  1
  Cu+  Cu108  1  0.41001101  0.26208136  0.73300327  1
  Cu+  Cu109  1  0.07223213  0.25942042  0.41192551  1
  Cu+  Cu110  1  0.59555331  0.40726184  0.40132671  1
  Cu+  Cu111  1  0.40244951  0.07938235  0.92586223  1
  Cu+  Cu112  1  0.92687268  0.06902052  0.73686330  1
  Cu+  Cu113  1  0.92816487  0.40585668  0.06986419  1
  Cu+  Cu114  1  0.25468496  0.41700037  0.74098873  1
  Cu+  Cu115  1  0.26521765  0.92075580  0.26234473  1
  Cu+  Cu116  1  0.06911260  0.74221873  0.93067596  1
  Cu+  Cu117  1  0.26532230  0.06809211  0.74023158  1
  Cu+  Cu118  1  0.73268284  0.26204105  0.06933072  1
  Cu+  Cu119  1  0.73958943  0.92706600  0.40518305  1
  Cu+  Cu120  1  0.59499847  0.74036736  0.74049881  1
  Cu+  Cu121  1  0.25570898  0.40999851  0.41087356  1
  Cu+  Cu122  1  0.26016403  0.73704632  0.40878906  1
  Cu+  Cu123  1  0.40281390  0.92249207  0.07506558  1
  Cu+  Cu124  1  0.74192704  0.25886661  0.40621509  1
  Cu+  Cu125  1  0.26523926  0.07376861  0.41052167  1
  Cu+  Cu126  1  0.91463426  0.59340816  0.93074809  1
  Cu+  Cu127  1  0.59884639  0.73788219  0.40406633  1
  Cu+  Cu128  1  0.25857337  0.25877767  0.26134639  1
  Cu+  Cu129  1  0.26369581  0.59810993  0.92687221  1
  Cu+  Cu130  1  0.92881420  0.93244033  0.93229233  1
  Cu+  Cu131  1  0.08011713  0.25534928  0.06842824  1
  Cu+  Cu132  1  0.41174299  0.40780436  0.25959019  1
  Te2-  Te133  1  0.25237280  0.24897883  0.07870902  1
  Te2-  Te134  1  0.26121369  0.25727821  0.41627480  1
  Te2-  Te135  1  0.25400322  0.25848487  0.74460959  1
  Te2-  Te136  1  0.25628277  0.58451230  0.08372756  1
  Te2-  Te137  1  0.24949808  0.58588037  0.41181054  1
  Te2-  Te138  1  0.24580664  0.59218864  0.75021668  1
  Te2-  Te139  1  0.25002553  0.91720067  0.08041977  1
  Te2-  Te140  1  0.25865413  0.92127188  0.41519420  1
  Te2-  Te141  1  0.25367623  0.91695509  0.74579273  1
  Te2-  Te142  1  0.57909180  0.25326444  0.07772201  1
  Te2-  Te143  1  0.58764861  0.25267922  0.40899073  1
  Te2-  Te144  1  0.58766278  0.25267810  0.74686488  1
  Te2-  Te145  1  0.58559335  0.58679533  0.07835035  1
  Te2-  Te146  1  0.58776688  0.58462968  0.41023440  1
  Te2-  Te147  1  0.58536087  0.58600166  0.74518066  1
  Te2-  Te148  1  0.58727934  0.91952196  0.08240207  1
  Te2-  Te149  1  0.58621972  0.92205952  0.41438350  1
  Te2-  Te150  1  0.58370076  0.92243610  0.75148351  1
  Te2-  Te151  1  0.92454693  0.25389581  0.07663142  1
  Te2-  Te152  1  0.92065736  0.25238853  0.41536097  1
  Te2-  Te153  1  0.91814453  0.25212967  0.74834930  1
  Te2-  Te154  1  0.91884562  0.58801911  0.08228008  1
  Te2-  Te155  1  0.91760084  0.58248645  0.41384676  1
  Te2-  Te156  1  0.91441774  0.58349923  0.74412634  1
  Te2-  Te157  1  0.92280779  0.92365172  0.08445778  1
  Te2-  Te158  1  0.91980258  0.91779693  0.41436108  1
  Te2-  Te159  1  0.92190749  0.91549044  0.74477051  1
  Te2-  Te160  1  0.25644293  0.07656614  0.25759093  1
  Te2-  Te161  1  0.25830122  0.07918776  0.58722471  1
  Te2-  Te162  1  0.25136120  0.08111038  0.91819652  1
  Te2-  Te163  1  0.25484069  0.41075975  0.25356023  1
  Te2-  Te164  1  0.24993558  0.41677635  0.58779383  1
  Te2-  Te165  1  0.25093846  0.41503313  0.92008095  1
  Te2-  Te166  1  0.25525506  0.74124170  0.25181782  1
  Te2-  Te167  1  0.24991913  0.74831762  0.58878164  1
  Te2-  Te168  1  0.25632466  0.75085779  0.92391236  1
  Te2-  Te169  1  0.58414505  0.08155847  0.24680308  1
  Te2-  Te170  1  0.58716165  0.08426917  0.58465852  1
  Te2-  Te171  1  0.58711548  0.08140669  0.91894605  1
  Te2-  Te172  1  0.58982810  0.41166054  0.24814397  1
  Te2-  Te173  1  0.58297867  0.41623645  0.58671197  1
  Te2-  Te174  1  0.58037710  0.41445031  0.91356377  1
  Te2-  Te175  1  0.59039893  0.74573963  0.25148529  1
  Te2-  Te176  1  0.58875942  0.74611695  0.58580230  1
  Te2-  Te177  1  0.58365851  0.75093942  0.92300111  1
  Te2-  Te178  1  0.92080723  0.08668111  0.25185027  1
  Te2-  Te179  1  0.92173988  0.07675220  0.58312506  1
  Te2-  Te180  1  0.92022558  0.08382869  0.92583445  1
  Te2-  Te181  1  0.91690390  0.41173833  0.24953198  1
  Te2-  Te182  1  0.91575386  0.41147138  0.58523813  1
  Te2-  Te183  1  0.92003729  0.40848522  0.91728759  1
  Te2-  Te184  1  0.91622204  0.74969142  0.25333217  1
  Te2-  Te185  1  0.91982425  0.74551046  0.58420177  1
  Te2-  Te186  1  0.91744658  0.74592951  0.92389519  1
  Te2-  Te187  1  0.08078947  0.25213800  0.25775215  1
  Te2-  Te188  1  0.08573291  0.25265740  0.58985735  1
  Te2-  Te189  1  0.08100389  0.25130972  0.91438346  1
  Te2-  Te190  1  0.08015030  0.57857245  0.24967374  1
  Te2-  Te191  1  0.07906679  0.58725481  0.58502177  1
  Te2-  Te192  1  0.07365632  0.58875095  0.92714839  1
  Te2-  Te193  1  0.08135197  0.91392013  0.25583788  1
  Te2-  Te194  1  0.08155048  0.92137877  0.58356190  1
  Te2-  Te195  1  0.08385010  0.92639422  0.92222775  1
  Te2-  Te196  1  0.41334994  0.25337912  0.25555909  1
  Te2-  Te197  1  0.41581623  0.25610210  0.58086825  1
  Te2-  Te198  1  0.41245901  0.25161416  0.91747683  1
  Te2-  Te199  1  0.41667732  0.58561627  0.25191135  1
  Te2-  Te200  1  0.41279349  0.58832041  0.57953291  1
  Te2-  Te201  1  0.41541567  0.58908697  0.91788520  1
  Te2-  Te202  1  0.41815154  0.91907521  0.25855416  1
  Te2-  Te203  1  0.41662896  0.91497186  0.58585430  1
  Te2-  Te204  1  0.40918426  0.92221871  0.92236760  1
  Te2-  Te205  1  0.74628053  0.25523855  0.25085512  1
  Te2-  Te206  1  0.75046020  0.24789887  0.58967670  1
  Te2-  Te207  1  0.74434063  0.25310137  0.91767321  1
  Te2-  Te208  1  0.74848815  0.58586036  0.24977670  1
  Te2-  Te209  1  0.74543707  0.58152738  0.58333076  1
  Te2-  Te210  1  0.74570214  0.58199253  0.92026601  1
  Te2-  Te211  1  0.74721541  0.92432503  0.25138645  1
  Te2-  Te212  1  0.74708456  0.91570798  0.58644057  1
  Te2-  Te213  1  0.74745177  0.91936529  0.91655526  1
  Te2-  Te214  1  0.08427852  0.07559471  0.08606108  1
  Te2-  Te215  1  0.08263314  0.08305291  0.41713927  1
  Te2-  Te216  1  0.08080797  0.08048543  0.74412054  1
  Te2-  Te217  1  0.08424086  0.41114150  0.07544693  1
  Te2-  Te218  1  0.07486278  0.41425647  0.41470464  1
  Te2-  Te219  1  0.07430685  0.42025340  0.75190158  1
  Te2-  Te220  1  0.07874738  0.74411850  0.08453758  1
  Te2-  Te221  1  0.08082999  0.74968637  0.41389791  1
  Te2-  Te222  1  0.08056949  0.75084899  0.75187256  1
  Te2-  Te223  1  0.40758853  0.08080546  0.08115931  1
  Te2-  Te224  1  0.41869662  0.07835406  0.41347000  1
  Te2-  Te225  1  0.41781349  0.07700726  0.74057102  1
  Te2-  Te226  1  0.41494483  0.41432102  0.07561884  1
  Te2-  Te227  1  0.41063833  0.41233962  0.41186095  1
  Te2-  Te228  1  0.40941262  0.41756747  0.74257064  1
  Te2-  Te229  1  0.41534539  0.74678526  0.08448310  1
  Te2-  Te230  1  0.41427468  0.74559134  0.41268575  1
  Te2-  Te231  1  0.41296674  0.74989473  0.74901617  1
  Te2-  Te232  1  0.74803805  0.08228978  0.08230122  1
  Te2-  Te233  1  0.74805073  0.08029497  0.41228301  1
  Te2-  Te234  1  0.74884808  0.07806495  0.75014582  1
  Te2-  Te235  1  0.74104287  0.41541889  0.07677267  1
  Te2-  Te236  1  0.74723811  0.41121944  0.40845713  1
  Te2-  Te237  1  0.74522842  0.41145208  0.74760527  1
  Te2-  Te238  1  0.74905572  0.75285564  0.07974523  1
  Te2-  Te239  1  0.75042379  0.74177094  0.41186771  1
  Te2-  Te240  1  0.74939124  0.74593064  0.74871484  1
