# generated using pymatgen
data_Ti27(Cu53Te54)2
_symmetry_space_group_name_H-M   'P 1'
_cell_length_a   17.91130796
_cell_length_b   17.90564118
_cell_length_c   17.90878788
_cell_angle_alpha   90.01126550
_cell_angle_beta   90.08512377
_cell_angle_gamma   89.99864268
_symmetry_Int_Tables_number   1
_chemical_formula_structural   Ti27(Cu53Te54)2
_chemical_formula_sum   'Ti27 Cu106 Te108'
_cell_volume   5743.58275430
_cell_formula_units_Z   1
loop_
 _symmetry_equiv_pos_site_id
 _symmetry_equiv_pos_as_xyz
  1  'x, y, z'
loop_
 _atom_type_symbol
 _atom_type_oxidation_number
  Ti4+  4.0
  Cu+  1.0
  Te2-  -2.0
loop_
 _atom_site_type_symbol
 _atom_site_label
 _atom_site_symmetry_multiplicity
 _atom_site_fract_x
 _atom_site_fract_y
 _atom_site_fract_z
 _atom_site_occupancy
  Ti4+  Ti0  1  0.16861800  0.16612888  0.16993826  1
  Ti4+  Ti1  1  0.16641855  0.16246282  0.49887909  1
  Ti4+  Ti2  1  0.16630025  0.16952067  0.83338355  1
  Ti4+  Ti3  1  0.17085840  0.49930642  0.16742283  1
  Ti4+  Ti4  1  0.16408451  0.49743550  0.50068606  1
  Ti4+  Ti5  1  0.16430487  0.49882787  0.83229762  1
  Ti4+  Ti6  1  0.16279590  0.83018087  0.16484471  1
  Ti4+  Ti7  1  0.17153202  0.83278175  0.49869766  1
  Ti4+  Ti8  1  0.16590045  0.83646214  0.83392154  1
  Ti4+  Ti9  1  0.50023682  0.16890378  0.17098801  1
  Ti4+  Ti10  1  0.50207049  0.16679298  0.50128789  1
  Ti4+  Ti11  1  0.49931527  0.16824483  0.83283760  1
  Ti4+  Ti12  1  0.50626847  0.50206969  0.16532062  1
  Ti4+  Ti13  1  0.50197105  0.50064478  0.49951956  1
  Ti4+  Ti14  1  0.49841730  0.49975455  0.83180459  1
  Ti4+  Ti15  1  0.49993241  0.83478372  0.16346493  1
  Ti4+  Ti16  1  0.49897675  0.83361679  0.49949963  1
  Ti4+  Ti17  1  0.49746720  0.83197566  0.83055726  1
  Ti4+  Ti18  1  0.83198662  0.16026804  0.16425729  1
  Ti4+  Ti19  1  0.83282852  0.16701664  0.50244699  1
  Ti4+  Ti20  1  0.83172137  0.16941563  0.83176959  1
  Ti4+  Ti21  1  0.83650141  0.49900548  0.16550041  1
  Ti4+  Ti22  1  0.83540588  0.50076010  0.50052175  1
  Ti4+  Ti23  1  0.83246352  0.50226377  0.83206177  1
  Ti4+  Ti24  1  0.83058328  0.83588754  0.17256420  1
  Ti4+  Ti25  1  0.83552282  0.83398495  0.50404149  1
  Ti4+  Ti26  1  0.83302760  0.83565022  0.83263553  1
  Cu+  Cu27  1  0.16451110  0.17104374  0.00068450  1
  Cu+  Cu28  1  0.16869403  0.16237108  0.33264720  1
  Cu+  Cu29  1  0.16946677  0.16465335  0.66894856  1
  Cu+  Cu30  1  0.16702693  0.50290710  0.00071013  1
  Cu+  Cu31  1  0.16512008  0.49390713  0.33294509  1
  Cu+  Cu32  1  0.16359591  0.49205623  0.66588676  1
  Cu+  Cu33  1  0.16202072  0.83360574  -0.00151073  1
  Cu+  Cu34  1  0.16894743  0.83333695  0.33013780  1
  Cu+  Cu35  1  0.17091007  0.83336911  0.66704938  1
  Cu+  Cu36  1  0.49951277  0.16919617  0.00323453  1
  Cu+  Cu37  1  0.50233781  0.17228030  0.33892480  1
  Cu+  Cu38  1  0.49825493  0.16703094  0.66464824  1
  Cu+  Cu39  1  0.50165592  0.50417222  -0.00109060  1
  Cu+  Cu40  1  0.50480217  0.50053340  0.33358366  1
  Cu+  Cu41  1  0.49934312  0.49955887  0.66549712  1
  Cu+  Cu42  1  0.49729188  0.83282732  -0.00668560  1
  Cu+  Cu43  1  0.50156135  0.83505331  0.33224705  1
  Cu+  Cu44  1  0.49572248  0.83092284  0.66458039  1
  Cu+  Cu45  1  0.82981629  0.16420309  -0.00532129  1
  Cu+  Cu46  1  0.83398255  0.16340681  0.33373994  1
  Cu+  Cu47  1  0.82866656  0.16609079  0.66948801  1
  Cu+  Cu48  1  0.83286983  0.49963977  -0.00264787  1
  Cu+  Cu49  1  0.83840717  0.50070021  0.33344850  1
  Cu+  Cu50  1  0.83735632  0.50435774  0.66511055  1
  Cu+  Cu51  1  0.83339700  0.83630796  0.00052571  1
  Cu+  Cu52  1  0.83343345  0.83442761  0.34069901  1
  Cu+  Cu53  1  0.83505576  0.83484600  0.66823920  1
  Cu+  Cu54  1  0.16648028  -0.00458030  0.17190949  1
  Cu+  Cu55  1  0.17319396  -0.00120697  0.49268518  1
  Cu+  Cu56  1  0.16702971  0.00289759  0.83532119  1
  Cu+  Cu57  1  0.16999998  0.33339601  0.17431863  1
  Cu+  Cu58  1  0.15984173  0.33197440  0.50293314  1
  Cu+  Cu59  1  0.16769914  0.33467819  0.83049211  1
  Cu+  Cu60  1  0.16320653  0.66285565  0.16005049  1
  Cu+  Cu61  1  0.16688471  0.66499975  0.49872141  1
  Cu+  Cu62  1  0.16512638  0.66878454  0.83261737  1
  Cu+  Cu63  1  0.50388095  0.00118222  0.16769679  1
  Cu+  Cu64  1  0.49812333  0.00133792  0.50297771  1
  Cu+  Cu65  1  0.49999923  -0.00441281  0.83163299  1
  Cu+  Cu66  1  0.50176256  0.33797053  0.17222063  1
  Cu+  Cu67  1  0.50358849  0.33320829  0.49999019  1
  Cu+  Cu68  1  0.49894483  0.33401459  0.83510913  1
  Cu+  Cu69  1  0.50150383  0.66691587  0.15969117  1
  Cu+  Cu70  1  0.49894751  0.66563568  0.49829446  1
  Cu+  Cu71  1  0.49784359  0.66479972  0.83228685  1
  Cu+  Cu72  1  0.81968672  -0.00211905  0.16976125  1
  Cu+  Cu73  1  0.83426375  0.00003663  0.50423861  1
  Cu+  Cu74  1  0.83502245  0.00390625  0.83249787  1
  Cu+  Cu75  1  0.83677721  0.32808347  0.16359310  1
  Cu+  Cu76  1  0.83299848  0.33417338  0.49817038  1
  Cu+  Cu77  1  0.82934690  0.33606546  0.82866151  1
  Cu+  Cu78  1  0.83656341  0.66959176  0.16686176  1
  Cu+  Cu79  1  0.83990563  0.66635183  0.50422485  1
  Cu+  Cu80  1  0.83180314  0.66874898  0.83469119  1
  Cu+  Cu81  1  0.00183236  0.16187714  0.16909281  1
  Cu+  Cu82  1  -0.00425073  0.16349520  0.49576570  1
  Cu+  Cu83  1  -0.00030307  0.17089434  0.83030168  1
  Cu+  Cu84  1  0.00310696  0.49908402  0.16533681  1
  Cu+  Cu85  1  -0.00051316  0.49941295  0.50695468  1
  Cu+  Cu86  1  -0.00294539  0.50117365  0.83373468  1
  Cu+  Cu87  1  -0.00717504  0.82899941  0.16411884  1
  Cu+  Cu88  1  0.00680077  0.83462665  0.50198627  1
  Cu+  Cu89  1  0.00170443  0.83795123  0.83523038  1
  Cu+  Cu90  1  0.33328236  0.17349665  0.17295418  1
  Cu+  Cu91  1  0.33535751  0.16377224  0.49940295  1
  Cu+  Cu92  1  0.33280401  0.16859736  0.83327696  1
  Cu+  Cu93  1  0.34336135  0.50134690  0.16595098  1
  Cu+  Cu94  1  0.33213197  0.49899039  0.49706442  1
  Cu+  Cu95  1  0.33019858  0.49664379  0.83073271  1
  Cu+  Cu96  1  0.33026142  0.83035583  0.16469471  1
  Cu+  Cu97  1  0.33855742  0.82860138  0.50126089  1
  Cu+  Cu98  1  0.32955288  0.83128723  0.83031406  1
  Cu+  Cu99  1  0.66319848  0.16027068  0.16436439  1
  Cu+  Cu100  1  0.66812782  0.16495494  0.50645712  1
  Cu+  Cu101  1  0.66759896  0.17222852  0.83197972  1
  Cu+  Cu102  1  0.67162486  0.50116354  0.16474911  1
  Cu+  Cu103  1  0.66862371  0.50001125  0.49956675  1
  Cu+  Cu104  1  0.66486788  0.50204601  0.83282707  1
  Cu+  Cu105  1  0.66413243  0.84292582  0.16988683  1
  Cu+  Cu106  1  0.66687808  0.83351758  0.50033321  1
  Cu+  Cu107  1  0.66361862  0.83224538  0.83061023  1
  Cu+  Cu108  1  0.73723321  0.91608219  0.06876013  1
  Cu+  Cu109  1  0.92895918  0.07618211  0.74354070  1
  Cu+  Cu110  1  0.25369240  0.73718080  0.74170860  1
  Cu+  Cu111  1  0.26673716  0.07397347  0.40630545  1
  Cu+  Cu112  1  0.58949566  0.92671030  0.26661880  1
  Cu+  Cu113  1  0.73612788  0.08161370  0.26464085  1
  Cu+  Cu114  1  0.58229576  0.07356026  0.06959741  1
  Cu+  Cu115  1  0.73836861  0.07469908  0.91748323  1
  Cu+  Cu116  1  0.07129513  0.40793843  0.25734453  1
  Cu+  Cu117  1  0.06757509  0.39897103  0.59705305  1
  Cu+  Cu118  1  0.41341910  0.73251809  0.59252649  1
  Cu+  Cu119  1  0.91918436  0.07002501  0.40662729  1
  Cu+  Cu120  1  0.26233725  0.07238442  0.75127925  1
  Cu+  Cu121  1  0.92999936  0.59803707  0.59637142  1
  Cu+  Cu122  1  0.41488456  0.41399432  0.26296950  1
  Cu+  Cu123  1  0.41201620  0.59516727  0.06870422  1
  Cu+  Cu124  1  0.26068963  0.91845869  0.25531788  1
  Cu+  Cu125  1  0.91678204  0.74127363  0.07086976  1
  Cu+  Cu126  1  0.74121495  0.06964119  0.59482142  1
  Cu+  Cu127  1  0.40629202  0.07449857  0.59407625  1
  Cu+  Cu128  1  0.07188717  0.58664689  0.07076759  1
  Cu+  Cu129  1  0.07302352  0.06611049  0.25515238  1
  Cu+  Cu130  1  0.26129491  0.40572536  0.73727865  1
  Cu+  Cu131  1  0.25813936  0.26196636  0.26675888  1
  Cu+  Cu132  1  0.73700986  0.26771700  0.73862963  1
  Te2-  Te133  1  0.25147499  0.25314800  0.08318743  1
  Te2-  Te134  1  0.25099333  0.25380758  0.41849365  1
  Te2-  Te135  1  0.25432223  0.25424085  0.74500019  1
  Te2-  Te136  1  0.25780722  0.58521107  0.08030001  1
  Te2-  Te137  1  0.24868192  0.58181976  0.41342846  1
  Te2-  Te138  1  0.24962040  0.58387658  0.74495759  1
  Te2-  Te139  1  0.24818297  0.91692596  0.08051133  1
  Te2-  Te140  1  0.26084008  0.91646398  0.41067603  1
  Te2-  Te141  1  0.25342596  0.92281888  0.74703868  1
  Te2-  Te142  1  0.58464693  0.25448683  0.08581898  1
  Te2-  Te143  1  0.59132178  0.25204335  0.41885512  1
  Te2-  Te144  1  0.58264987  0.25462341  0.74603467  1
  Te2-  Te145  1  0.59187277  0.58712773  0.07843235  1
  Te2-  Te146  1  0.58732369  0.58638740  0.41538964  1
  Te2-  Te147  1  0.58311943  0.58565389  0.74674214  1
  Te2-  Te148  1  0.58410962  0.92084123  0.07194356  1
  Te2-  Te149  1  0.58638332  0.92184480  0.41767452  1
  Te2-  Te150  1  0.58288208  0.91610178  0.74410419  1
  Te2-  Te151  1  0.91921021  0.24314187  0.08027631  1
  Te2-  Te152  1  0.91650345  0.25235584  0.41333190  1
  Te2-  Te153  1  0.91754273  0.25532813  0.74505860  1
  Te2-  Te154  1  0.92023784  0.58642068  0.07652845  1
  Te2-  Te155  1  0.92304163  0.58504718  0.41581619  1
  Te2-  Te156  1  0.92033979  0.59032246  0.74914029  1
  Te2-  Te157  1  0.91456503  0.92420697  0.08569130  1
  Te2-  Te158  1  0.92242000  0.91894736  0.41785508  1
  Te2-  Te159  1  0.92060318  0.92099786  0.74786298  1
  Te2-  Te160  1  0.25970735  0.07610350  0.25422383  1
  Te2-  Te161  1  0.25341342  0.07721545  0.58785642  1
  Te2-  Te162  1  0.25135012  0.08539659  0.92131479  1
  Te2-  Te163  1  0.26104978  0.41517193  0.25624917  1
  Te2-  Te164  1  0.25383679  0.41045428  0.58331416  1
  Te2-  Te165  1  0.24955494  0.41532683  0.92015147  1
  Te2-  Te166  1  0.24882303  0.74281812  0.24786282  1
  Te2-  Te167  1  0.25522129  0.74305780  0.58593230  1
  Te2-  Te168  1  0.25003597  0.74887630  0.92027025  1
  Te2-  Te169  1  0.58514680  0.08096738  0.26118465  1
  Te2-  Te170  1  0.58679697  0.07839942  0.58987913  1
  Te2-  Te171  1  0.58458347  0.07954328  0.91742544  1
  Te2-  Te172  1  0.59271191  0.41716693  0.25277143  1
  Te2-  Te173  1  0.58691697  0.41573099  0.58533826  1
  Te2-  Te174  1  0.58457424  0.41647250  0.91805182  1
  Te2-  Te175  1  0.58467762  0.74854953  0.24828505  1
  Te2-  Te176  1  0.58472537  0.74759390  0.58431803  1
  Te2-  Te177  1  0.58347282  0.74671031  0.91571695  1
  Te2-  Te178  1  0.91927931  0.07296730  0.25253560  1
  Te2-  Te179  1  0.92061212  0.08095245  0.59011355  1
  Te2-  Te180  1  0.92192452  0.08377015  0.91726148  1
  Te2-  Te181  1  0.91985960  0.41134075  0.25117607  1
  Te2-  Te182  1  0.91746918  0.40938262  0.58883041  1
  Te2-  Te183  1  0.91619940  0.41374354  0.91588699  1
  Te2-  Te184  1  0.91646987  0.74946837  0.25812148  1
  Te2-  Te185  1  0.92491810  0.75153744  0.58923734  1
  Te2-  Te186  1  0.91916059  0.75047829  0.91828705  1
  Te2-  Te187  1  0.07867151  0.25174896  0.25626261  1
  Te2-  Te188  1  0.07838506  0.24499900  0.58621965  1
  Te2-  Te189  1  0.08029767  0.25508199  0.91723583  1
  Te2-  Te190  1  0.08339099  0.58437563  0.25309484  1
  Te2-  Te191  1  0.08343885  0.58773096  0.58872960  1
  Te2-  Te192  1  0.07945635  0.58721299  0.91720428  1
  Te2-  Te193  1  0.07423923  0.91322413  0.25281158  1
  Te2-  Te194  1  0.08961372  0.92069442  0.58363252  1
  Te2-  Te195  1  0.08114843  0.92346729  0.91988797  1
  Te2-  Te196  1  0.41511226  0.25719289  0.25989359  1
  Te2-  Te197  1  0.41458014  0.25360794  0.58333732  1
  Te2-  Te198  1  0.41516277  0.25121272  0.91928311  1
  Te2-  Te199  1  0.42081334  0.58897031  0.25305259  1
  Te2-  Te200  1  0.41183675  0.58256310  0.58486035  1
  Te2-  Te201  1  0.41014935  0.58521827  0.91594603  1
  Te2-  Te202  1  0.41368600  0.91920981  0.25004701  1
  Te2-  Te203  1  0.41140709  0.92074457  0.58682841  1
  Te2-  Te204  1  0.41092250  0.91788638  0.91479759  1
  Te2-  Te205  1  0.74878151  0.24739524  0.24834257  1
  Te2-  Te206  1  0.74675507  0.25712669  0.58638933  1
  Te2-  Te207  1  0.74686556  0.25695969  0.91955789  1
  Te2-  Te208  1  0.75350501  0.58566425  0.25058676  1
  Te2-  Te209  1  0.74850650  0.58630955  0.58479943  1
  Te2-  Te210  1  0.74713062  0.58617820  0.91828026  1
  Te2-  Te211  1  0.74328624  0.92142127  0.26541154  1
  Te2-  Te212  1  0.74625461  0.91785442  0.58871349  1
  Te2-  Te213  1  0.74313899  0.92060711  0.91663176  1
  Te2-  Te214  1  0.08528928  0.08001295  0.08268042  1
  Te2-  Te215  1  0.07831789  0.07579105  0.41148418  1
  Te2-  Te216  1  0.08053753  0.08103693  0.74721015  1
  Te2-  Te217  1  0.08636616  0.41148152  0.08187743  1
  Te2-  Te218  1  0.07603730  0.41200101  0.41471434  1
  Te2-  Te219  1  0.07437957  0.41165408  0.74913880  1
  Te2-  Te220  1  0.07527160  0.74518675  0.07574879  1
  Te2-  Te221  1  0.08478424  0.74928669  0.41438795  1
  Te2-  Te222  1  0.07982370  0.75156766  0.74714177  1
  Te2-  Te223  1  0.41323831  0.08498681  0.08660712  1
  Te2-  Te224  1  0.41759104  0.07998206  0.41068309  1
  Te2-  Te225  1  0.41407358  0.07869788  0.74738634  1
  Te2-  Te226  1  0.42003136  0.41388238  0.07913355  1
  Te2-  Te227  1  0.41608536  0.41325704  0.41513478  1
  Te2-  Te228  1  0.41427171  0.41188312  0.74533320  1
  Te2-  Te229  1  0.41304434  0.74957811  0.07738048  1
  Te2-  Te230  1  0.41676306  0.74783335  0.40981105  1
  Te2-  Te231  1  0.40983646  0.74239817  0.74541243  1
  Te2-  Te232  1  0.74106844  0.07556095  0.07297466  1
  Te2-  Te233  1  0.74508658  0.07868267  0.41727833  1
  Te2-  Te234  1  0.74147070  0.07816305  0.74791174  1
  Te2-  Te235  1  0.75167425  0.41315054  0.08104601  1
  Te2-  Te236  1  0.75025892  0.41666200  0.41310496  1
  Te2-  Te237  1  0.74538207  0.42048947  0.74310615  1
  Te2-  Te238  1  0.74494200  0.75150646  0.08469132  1
  Te2-  Te239  1  0.75096346  0.74656022  0.42053679  1
  Te2-  Te240  1  0.74887648  0.74967466  0.74779596  1
