# generated using pymatgen
data_Ti27(Cu53Te54)2
_symmetry_space_group_name_H-M   'P 1'
_cell_length_a   17.87426405
_cell_length_b   17.87361280
_cell_length_c   17.87215634
_cell_angle_alpha   89.99880019
_cell_angle_beta   89.97639025
_cell_angle_gamma   90.02957735
_symmetry_Int_Tables_number   1
_chemical_formula_structural   Ti27(Cu53Te54)2
_chemical_formula_sum   'Ti27 Cu106 Te108'
_cell_volume   5709.75370355
_cell_formula_units_Z   1
loop_
 _symmetry_equiv_pos_site_id
 _symmetry_equiv_pos_as_xyz
  1  'x, y, z'
loop_
 _atom_type_symbol
 _atom_type_oxidation_number
  Ti4+  4.0
  Cu+  1.0
  Te2-  -2.0
loop_
 _atom_site_type_symbol
 _atom_site_label
 _atom_site_symmetry_multiplicity
 _atom_site_fract_x
 _atom_site_fract_y
 _atom_site_fract_z
 _atom_site_occupancy
  Ti4+  Ti0  1  0.16942626  0.16635024  0.16641196  1
  Ti4+  Ti1  1  0.16517771  0.16680540  0.50171888  1
  Ti4+  Ti2  1  0.16974015  0.16651314  0.82754338  1
  Ti4+  Ti3  1  0.16722613  0.49869574  0.16976789  1
  Ti4+  Ti4  1  0.16800731  0.49906761  0.50230800  1
  Ti4+  Ti5  1  0.16261789  0.50020492  0.83547595  1
  Ti4+  Ti6  1  0.16587298  0.83687708  0.16280570  1
  Ti4+  Ti7  1  0.16313430  0.83284808  0.49748281  1
  Ti4+  Ti8  1  0.16677834  0.83237822  0.83659066  1
  Ti4+  Ti9  1  0.49742660  0.16851875  0.16670797  1
  Ti4+  Ti10  1  0.49947548  0.16583749  0.50020219  1
  Ti4+  Ti11  1  0.50139157  0.16743675  0.83315591  1
  Ti4+  Ti12  1  0.49988687  0.50091484  0.16458375  1
  Ti4+  Ti13  1  0.50288738  0.50118074  0.50046201  1
  Ti4+  Ti14  1  0.50204126  0.49846703  0.83571371  1
  Ti4+  Ti15  1  0.49794930  0.83142116  0.16831158  1
  Ti4+  Ti16  1  0.49841182  0.83230961  0.50217200  1
  Ti4+  Ti17  1  0.50092578  0.83310796  0.83743267  1
  Ti4+  Ti18  1  0.83103679  0.16806364  0.16794502  1
  Ti4+  Ti19  1  0.83238981  0.16513635  0.49895451  1
  Ti4+  Ti20  1  0.83654845  0.16379756  0.83303812  1
  Ti4+  Ti21  1  0.83252845  0.49880865  0.16632626  1
  Ti4+  Ti22  1  0.83546869  0.50114149  0.49900961  1
  Ti4+  Ti23  1  0.83215618  0.49838221  0.83244157  1
  Ti4+  Ti24  1  0.83256803  0.83291202  0.16589811  1
  Ti4+  Ti25  1  0.83273044  0.83596856  0.49900451  1
  Ti4+  Ti26  1  0.83366193  0.83308113  0.82997551  1
  Cu+  Cu27  1  0.16873177  0.16322474  -0.00382667  1
  Cu+  Cu28  1  0.16927000  0.16686994  0.33146898  1
  Cu+  Cu29  1  0.16731539  0.17385251  0.66479301  1
  Cu+  Cu30  1  0.16245402  0.50214406  0.00533102  1
  Cu+  Cu31  1  0.16704040  0.49886623  0.33835287  1
  Cu+  Cu32  1  0.16741811  0.49837304  0.66933815  1
  Cu+  Cu33  1  0.16900027  0.83085588  -0.00440536  1
  Cu+  Cu34  1  0.16252313  0.83971721  0.33112610  1
  Cu+  Cu35  1  0.16502932  0.83368096  0.66766991  1
  Cu+  Cu36  1  0.49632105  0.17066972  0.00074962  1
  Cu+  Cu37  1  0.49872023  0.16599720  0.33475816  1
  Cu+  Cu38  1  0.49582789  0.16384710  0.66504632  1
  Cu+  Cu39  1  0.50382944  0.49487217  0.00252571  1
  Cu+  Cu40  1  0.50135110  0.50267220  0.33236817  1
  Cu+  Cu41  1  0.50489211  0.49812882  0.66670954  1
  Cu+  Cu42  1  0.49618092  0.82678509  0.00383328  1
  Cu+  Cu43  1  0.49826567  0.83147974  0.33704342  1
  Cu+  Cu44  1  0.50089451  0.83358183  0.66860881  1
  Cu+  Cu45  1  0.83622518  0.16265941  0.00483256  1
  Cu+  Cu46  1  0.82903092  0.16714564  0.33340486  1
  Cu+  Cu47  1  0.83671729  0.16554998  0.66312444  1
  Cu+  Cu48  1  0.83175532  0.49998117  -0.00321687  1
  Cu+  Cu49  1  0.83444035  0.50049761  0.33069335  1
  Cu+  Cu50  1  0.83226670  0.50031622  0.66566560  1
  Cu+  Cu51  1  0.83381768  0.83391884  -0.00218967  1
  Cu+  Cu52  1  0.83379519  0.83215939  0.33120145  1
  Cu+  Cu53  1  0.82959115  0.83621714  0.66563367  1
  Cu+  Cu54  1  0.17216166  -0.00151430  0.16798267  1
  Cu+  Cu55  1  0.16078467  -0.00023637  0.49528403  1
  Cu+  Cu56  1  0.16647497  -0.00026554  0.83266947  1
  Cu+  Cu57  1  0.17137311  0.33213336  0.17132187  1
  Cu+  Cu58  1  0.17021330  0.33233162  0.50462361  1
  Cu+  Cu59  1  0.16815184  0.33751279  0.82703040  1
  Cu+  Cu60  1  0.16399136  0.66609824  0.16435667  1
  Cu+  Cu61  1  0.16360578  0.66392263  0.49887348  1
  Cu+  Cu62  1  0.16172200  0.66600746  0.83818089  1
  Cu+  Cu63  1  0.49558751  0.00008052  0.16636120  1
  Cu+  Cu64  1  0.49623508  -0.00097282  0.50348270  1
  Cu+  Cu65  1  0.50500418  0.00310832  0.83634876  1
  Cu+  Cu66  1  0.49706084  0.33434168  0.16104856  1
  Cu+  Cu67  1  0.50344985  0.33657321  0.49747552  1
  Cu+  Cu68  1  0.50529034  0.33406009  0.82967287  1
  Cu+  Cu69  1  0.50429522  0.66808183  0.16464135  1
  Cu+  Cu70  1  0.50185142  0.66623660  0.50106083  1
  Cu+  Cu71  1  0.49767402  0.66579126  0.83971983  1
  Cu+  Cu72  1  0.83144322  0.00075884  0.16713052  1
  Cu+  Cu73  1  0.83065890  0.00215320  0.49922346  1
  Cu+  Cu74  1  0.83561589  -0.00383107  0.83071355  1
  Cu+  Cu75  1  0.83215689  0.33246637  0.16821241  1
  Cu+  Cu76  1  0.83363914  0.33369013  0.49945800  1
  Cu+  Cu77  1  0.83300529  0.33175377  0.83391569  1
  Cu+  Cu78  1  0.83110140  0.66433181  0.16747730  1
  Cu+  Cu79  1  0.83735727  0.67033441  0.49829826  1
  Cu+  Cu80  1  0.83049415  0.66398517  0.83058731  1
  Cu+  Cu81  1  -0.00113063  0.16462206  0.16484460  1
  Cu+  Cu82  1  -0.00533342  0.16808551  0.50141290  1
  Cu+  Cu83  1  0.00657127  0.16328900  0.82919554  1
  Cu+  Cu84  1  -0.00044100  0.50057411  0.16707174  1
  Cu+  Cu85  1  0.00440438  0.49992081  0.49916930  1
  Cu+  Cu86  1  -0.00617027  0.49974742  0.83483066  1
  Cu+  Cu87  1  -0.00004298  0.83218645  0.16546059  1
  Cu+  Cu88  1  -0.00334630  0.83435696  0.49245780  1
  Cu+  Cu89  1  -0.00093364  0.83633359  0.83545413  1
  Cu+  Cu90  1  0.33295475  0.17347290  0.16687584  1
  Cu+  Cu91  1  0.33416122  0.16152384  0.50688273  1
  Cu+  Cu92  1  0.34096843  0.17172303  0.82691234  1
  Cu+  Cu93  1  0.33378511  0.50066035  0.17141653  1
  Cu+  Cu94  1  0.33825322  0.50062028  0.50240967  1
  Cu+  Cu95  1  0.32861216  0.50093393  0.83798668  1
  Cu+  Cu96  1  0.33211711  0.84085974  0.16481150  1
  Cu+  Cu97  1  0.33118876  0.83036581  0.50045607  1
  Cu+  Cu98  1  0.33609623  0.83024597  0.84229805  1
  Cu+  Cu99  1  0.66597483  0.16675059  0.17066942  1
  Cu+  Cu100  1  0.66615630  0.16691584  0.49931644  1
  Cu+  Cu101  1  0.66831861  0.16444227  0.83515939  1
  Cu+  Cu102  1  0.66649228  0.49850639  0.16297990  1
  Cu+  Cu103  1  0.67009165  0.50284721  0.49935369  1
  Cu+  Cu104  1  0.66703285  0.49648027  0.83036594  1
  Cu+  Cu105  1  0.66606976  0.83023424  0.16694010  1
  Cu+  Cu106  1  0.66409127  0.83376627  0.50152507  1
  Cu+  Cu107  1  0.66892875  0.83407987  0.83030319  1
  Cu+  Cu108  1  0.26253618  0.26259699  0.26409948  1
  Cu+  Cu109  1  0.92160698  0.92447975  0.92681357  1
  Cu+  Cu110  1  0.42025158  0.26539899  0.73493222  1
  Cu+  Cu111  1  0.40240508  0.26486386  0.06989519  1
  Cu+  Cu112  1  0.59875538  0.40638076  0.73518833  1
  Cu+  Cu113  1  0.07533632  0.92350495  0.73715590  1
  Cu+  Cu114  1  0.59800625  0.40138356  0.07683841  1
  Cu+  Cu115  1  0.06891487  0.59114331  0.07711865  1
  Cu+  Cu116  1  0.07861721  0.07727966  0.92467034  1
  Cu+  Cu117  1  0.07608201  0.58922430  0.40771923  1
  Cu+  Cu118  1  0.92167421  0.73995569  0.40181262  1
  Cu+  Cu119  1  0.40611059  0.73216157  0.93285142  1
  Cu+  Cu120  1  0.59706050  0.74189826  0.07292896  1
  Cu+  Cu121  1  0.40434195  0.06568755  0.59591013  1
  Cu+  Cu122  1  0.73660598  0.92820897  0.73790499  1
  Cu+  Cu123  1  0.92521576  0.07219780  0.08245407  1
  Cu+  Cu124  1  0.07284600  0.26502033  0.74372723  1
  Cu+  Cu125  1  0.91918581  0.26428749  0.59150935  1
  Cu+  Cu126  1  0.26157212  0.41654516  0.74237902  1
  Cu+  Cu127  1  0.26462354  0.26019247  0.58855845  1
  Cu+  Cu128  1  0.06571026  0.73837532  0.92142521  1
  Cu+  Cu129  1  0.26550938  0.93422562  0.91550165  1
  Cu+  Cu130  1  0.41079812  0.92921647  0.07385893  1
  Cu+  Cu131  1  0.26264678  0.92334824  0.26479447  1
  Cu+  Cu132  1  0.06718572  0.93262391  0.40133759  1
  Te2-  Te133  1  0.25002628  0.25377853  0.07479015  1
  Te2-  Te134  1  0.25559053  0.25019980  0.41717454  1
  Te2-  Te135  1  0.25978506  0.25790886  0.74295448  1
  Te2-  Te136  1  0.25353896  0.58426157  0.08417316  1
  Te2-  Te137  1  0.25495684  0.58449972  0.41738143  1
  Te2-  Te138  1  0.24851943  0.58801471  0.75171654  1
  Te2-  Te139  1  0.25275743  0.92349831  0.07217936  1
  Te2-  Te140  1  0.25364976  0.91988344  0.41623405  1
  Te2-  Te141  1  0.25617217  0.91519878  0.75099550  1
  Te2-  Te142  1  0.58857846  0.25019797  0.08065597  1
  Te2-  Te143  1  0.58504935  0.25129181  0.41406384  1
  Te2-  Te144  1  0.58981028  0.24895045  0.74373826  1
  Te2-  Te145  1  0.58822321  0.58727597  0.07742495  1
  Te2-  Te146  1  0.58747439  0.58650854  0.41420233  1
  Te2-  Te147  1  0.58398557  0.58773711  0.75147497  1
  Te2-  Te148  1  0.58313341  0.91751959  0.08170189  1
  Te2-  Te149  1  0.58237192  0.91940758  0.41672874  1
  Te2-  Te150  1  0.58418223  0.92057613  0.74859622  1
  Te2-  Te151  1  0.91895919  0.25373364  0.08216034  1
  Te2-  Te152  1  0.91701150  0.25188522  0.41167387  1
  Te2-  Te153  1  0.92097251  0.25308771  0.74724505  1
  Te2-  Te154  1  0.91666824  0.58630000  0.07926764  1
  Te2-  Te155  1  0.92227163  0.58671635  0.41016599  1
  Te2-  Te156  1  0.91757762  0.58509647  0.74660688  1
  Te2-  Te157  1  0.92160701  0.91995363  0.08005516  1
  Te2-  Te158  1  0.91565445  0.92512937  0.40950466  1
  Te2-  Te159  1  0.92231433  0.91941067  0.74223695  1
  Te2-  Te160  1  0.25720983  0.08052149  0.25290121  1
  Te2-  Te161  1  0.24697793  0.07538486  0.58814777  1
  Te2-  Te162  1  0.26016420  0.08456647  0.91414462  1
  Te2-  Te163  1  0.25498716  0.41558192  0.25844217  1
  Te2-  Te164  1  0.25872129  0.41421438  0.58910975  1
  Te2-  Te165  1  0.24616969  0.41495302  0.92316777  1
  Te2-  Te166  1  0.24900686  0.75137350  0.24919735  1
  Te2-  Te167  1  0.24688331  0.74730986  0.58483711  1
  Te2-  Te168  1  0.25379828  0.73970630  0.92163189  1
  Te2-  Te169  1  0.58137125  0.08047862  0.25128209  1
  Te2-  Te170  1  0.58576669  0.08171886  0.58583392  1
  Te2-  Te171  1  0.58535273  0.08470537  0.92335591  1
  Te2-  Te172  1  0.58335885  0.41401241  0.24970082  1
  Te2-  Te173  1  0.59175924  0.41301974  0.58395817  1
  Te2-  Te174  1  0.58933554  0.41031400  0.92002143  1
  Te2-  Te175  1  0.58464041  0.74828505  0.25551843  1
  Te2-  Te176  1  0.58512367  0.74784292  0.58758853  1
  Te2-  Te177  1  0.59046001  0.74757606  0.91965374  1
  Te2-  Te178  1  0.91715962  0.08192402  0.25397929  1
  Te2-  Te179  1  0.91947589  0.07669101  0.58422824  1
  Te2-  Te180  1  0.92446969  0.07795304  0.92089660  1
  Te2-  Te181  1  0.91937517  0.41410496  0.25123295  1
  Te2-  Te182  1  0.92122211  0.41667758  0.58581865  1
  Te2-  Te183  1  0.91711428  0.41214670  0.91952642  1
  Te2-  Te184  1  0.91992387  0.74511422  0.24901514  1
  Te2-  Te185  1  0.91903519  0.75282830  0.58631679  1
  Te2-  Te186  1  0.91575113  0.74351781  0.91815042  1
  Te2-  Te187  1  0.08024735  0.24933911  0.25047055  1
  Te2-  Te188  1  0.07576857  0.25611690  0.58629384  1
  Te2-  Te189  1  0.08575228  0.25287812  0.91464838  1
  Te2-  Te190  1  0.08073221  0.58627077  0.25487731  1
  Te2-  Te191  1  0.08225857  0.58401814  0.58946656  1
  Te2-  Te192  1  0.07301171  0.58500417  0.92252162  1
  Te2-  Te193  1  0.07593417  0.92326280  0.24767673  1
  Te2-  Te194  1  0.07751210  0.91840308  0.58387419  1
  Te2-  Te195  1  0.07890947  0.92260658  0.92515829  1
  Te2-  Te196  1  0.41586428  0.25676711  0.25612350  1
  Te2-  Te197  1  0.41547237  0.26022764  0.58486572  1
  Te2-  Te198  1  0.41469625  0.25777588  0.91747397  1
  Te2-  Te199  1  0.41742964  0.58838505  0.25088685  1
  Te2-  Te200  1  0.41828784  0.58534738  0.58860241  1
  Te2-  Te201  1  0.41358079  0.57993453  0.92411141  1
  Te2-  Te202  1  0.41469226  0.92002335  0.25772894  1
  Te2-  Te203  1  0.40934749  0.91543098  0.59001505  1
  Te2-  Te204  1  0.41696865  0.92523162  0.92259905  1
  Te2-  Te205  1  0.74530432  0.25421674  0.25386763  1
  Te2-  Te206  1  0.74729148  0.25179563  0.58542791  1
  Te2-  Te207  1  0.75236182  0.24710777  0.91958392  1
  Te2-  Te208  1  0.74518296  0.58333205  0.25122408  1
  Te2-  Te209  1  0.75166690  0.58882041  0.58312981  1
  Te2-  Te210  1  0.74520937  0.58430405  0.91654993  1
  Te2-  Te211  1  0.74718252  0.91712048  0.25086663  1
  Te2-  Te212  1  0.74427377  0.92229989  0.58402346  1
  Te2-  Te213  1  0.74766380  0.91896039  0.91810309  1
  Te2-  Te214  1  0.08294864  0.07715428  0.08023913  1
  Te2-  Te215  1  0.07748938  0.08620721  0.41183355  1
  Te2-  Te216  1  0.08449439  0.07745865  0.73986547  1
  Te2-  Te217  1  0.08225128  0.41051749  0.08597628  1
  Te2-  Te218  1  0.08415429  0.40946840  0.41731708  1
  Te2-  Te219  1  0.07405646  0.41728649  0.74628890  1
  Te2-  Te220  1  0.07792870  0.74779565  0.07728880  1
  Te2-  Te221  1  0.07942942  0.74522524  0.40782533  1
  Te2-  Te222  1  0.07933256  0.74762677  0.74981302  1
  Te2-  Te223  1  0.41004030  0.08304272  0.08004088  1
  Te2-  Te224  1  0.41261685  0.08087670  0.41519294  1
  Te2-  Te225  1  0.41468139  0.07515599  0.74927180  1
  Te2-  Te226  1  0.40742203  0.41680222  0.07906132  1
  Te2-  Te227  1  0.41687505  0.41680303  0.41374882  1
  Te2-  Te228  1  0.41255880  0.41642436  0.74675737  1
  Te2-  Te229  1  0.40664745  0.74274512  0.08559092  1
  Te2-  Te230  1  0.41355393  0.74547376  0.41696250  1
  Te2-  Te231  1  0.41550400  0.74903354  0.75121080  1
  Te2-  Te232  1  0.74400277  0.08118692  0.08282500  1
  Te2-  Te233  1  0.74466965  0.08065018  0.41342959  1
  Te2-  Te234  1  0.74986521  0.08173849  0.74633003  1
  Te2-  Te235  1  0.74951018  0.41163994  0.07811273  1
  Te2-  Te236  1  0.75009926  0.41586447  0.41422736  1
  Te2-  Te237  1  0.74961278  0.40974335  0.74400551  1
  Te2-  Te238  1  0.74984918  0.74613791  0.07817293  1
  Te2-  Te239  1  0.74657033  0.74976915  0.41494633  1
  Te2-  Te240  1  0.74743750  0.74617782  0.74572424  1
