# generated using pymatgen
data_Ti27(Cu53Te54)2
_symmetry_space_group_name_H-M   'P 1'
_cell_length_a   17.95255883
_cell_length_b   17.93363408
_cell_length_c   17.94177861
_cell_angle_alpha   89.97351020
_cell_angle_beta   89.91365789
_cell_angle_gamma   89.94761395
_symmetry_Int_Tables_number   1
_chemical_formula_structural   Ti27(Cu53Te54)2
_chemical_formula_sum   'Ti27 Cu106 Te108'
_cell_volume   5776.42894145
_cell_formula_units_Z   1
loop_
 _symmetry_equiv_pos_site_id
 _symmetry_equiv_pos_as_xyz
  1  'x, y, z'
loop_
 _atom_type_symbol
 _atom_type_oxidation_number
  Ti4+  4.0
  Cu+  1.0
  Te2-  -2.0
loop_
 _atom_site_type_symbol
 _atom_site_label
 _atom_site_symmetry_multiplicity
 _atom_site_fract_x
 _atom_site_fract_y
 _atom_site_fract_z
 _atom_site_occupancy
  Ti4+  Ti0  1  0.16704293  0.16632993  0.16674746  1
  Ti4+  Ti1  1  0.16530508  0.16399964  0.49798370  1
  Ti4+  Ti2  1  0.16910921  0.16871339  0.83356188  1
  Ti4+  Ti3  1  0.16499916  0.50040751  0.16807498  1
  Ti4+  Ti4  1  0.16569043  0.49804097  0.50089240  1
  Ti4+  Ti5  1  0.16858749  0.49884666  0.83174116  1
  Ti4+  Ti6  1  0.16489408  0.83238552  0.16706028  1
  Ti4+  Ti7  1  0.16780324  0.83189909  0.49878629  1
  Ti4+  Ti8  1  0.16458066  0.83125587  0.83171519  1
  Ti4+  Ti9  1  0.49590834  0.16381562  0.16365654  1
  Ti4+  Ti10  1  0.49950870  0.16999213  0.49720654  1
  Ti4+  Ti11  1  0.49916160  0.16787260  0.83422869  1
  Ti4+  Ti12  1  0.50027566  0.50043380  0.16652771  1
  Ti4+  Ti13  1  0.50174631  0.49893985  0.50458026  1
  Ti4+  Ti14  1  0.50349215  0.50130174  0.83305440  1
  Ti4+  Ti15  1  0.49830176  0.83009689  0.16384648  1
  Ti4+  Ti16  1  0.50248867  0.83448477  0.49836831  1
  Ti4+  Ti17  1  0.49735290  0.83376162  0.83142505  1
  Ti4+  Ti18  1  0.82972420  0.16116468  0.16842599  1
  Ti4+  Ti19  1  0.83131687  0.17147625  0.49865906  1
  Ti4+  Ti20  1  0.83765161  0.16657831  0.83417173  1
  Ti4+  Ti21  1  0.83439648  0.49951650  0.16854894  1
  Ti4+  Ti22  1  0.83481334  0.49936576  0.50069805  1
  Ti4+  Ti23  1  0.83599230  0.49788798  0.83648735  1
  Ti4+  Ti24  1  0.83211751  0.83955146  0.16669150  1
  Ti4+  Ti25  1  0.83466980  0.83349529  0.50225448  1
  Ti4+  Ti26  1  0.83020766  0.83531615  0.83403326  1
  Cu+  Cu27  1  0.17252378  0.17303533  -0.00136887  1
  Cu+  Cu28  1  0.16548913  0.15739973  0.33384220  1
  Cu+  Cu29  1  0.16907280  0.16920942  0.66569623  1
  Cu+  Cu30  1  0.16500850  0.49703785  0.00053116  1
  Cu+  Cu31  1  0.16245134  0.50180520  0.33497563  1
  Cu+  Cu32  1  0.17226994  0.50246371  0.66267533  1
  Cu+  Cu33  1  0.16456690  0.83118605  0.00081055  1
  Cu+  Cu34  1  0.16937250  0.83171943  0.33295546  1
  Cu+  Cu35  1  0.16271866  0.82836648  0.66500203  1
  Cu+  Cu36  1  0.49290249  0.16021695  -0.00184983  1
  Cu+  Cu37  1  0.49832371  0.16995367  0.32879132  1
  Cu+  Cu38  1  0.50134476  0.16891480  0.66758450  1
  Cu+  Cu39  1  0.50306415  0.50155022  0.00010659  1
  Cu+  Cu40  1  0.50109594  0.49850819  0.33696341  1
  Cu+  Cu41  1  0.49890202  0.50284131  0.67113618  1
  Cu+  Cu42  1  0.49572786  0.82931245  -0.00264654  1
  Cu+  Cu43  1  0.50276935  0.83185808  0.33131658  1
  Cu+  Cu44  1  0.50048187  0.83513678  0.66360241  1
  Cu+  Cu45  1  0.83136151  0.15661884  -0.00000747  1
  Cu+  Cu46  1  0.83188611  0.17293688  0.33161025  1
  Cu+  Cu47  1  0.83423803  0.16955694  0.66730546  1
  Cu+  Cu48  1  0.83589542  0.49957858  0.00488917  1
  Cu+  Cu49  1  0.83772128  0.49922868  0.33320109  1
  Cu+  Cu50  1  0.83472585  0.49710866  0.67175184  1
  Cu+  Cu51  1  0.83263290  0.84241321  -0.00217303  1
  Cu+  Cu52  1  0.82958992  0.84005140  0.33885784  1
  Cu+  Cu53  1  0.83295460  0.83360234  0.66853052  1
  Cu+  Cu54  1  0.16360087  0.00022556  0.16700085  1
  Cu+  Cu55  1  0.17034492  -0.00022979  0.49392136  1
  Cu+  Cu56  1  0.16685342  -0.00145301  0.83013792  1
  Cu+  Cu57  1  0.16667345  0.33510083  0.16879184  1
  Cu+  Cu58  1  0.16796106  0.32793686  0.50165400  1
  Cu+  Cu59  1  0.16822133  0.33514404  0.83819097  1
  Cu+  Cu60  1  0.16400466  0.66678364  0.16608819  1
  Cu+  Cu61  1  0.16196640  0.66561086  0.50276576  1
  Cu+  Cu62  1  0.16611936  0.66644103  0.83139736  1
  Cu+  Cu63  1  0.49754062  -0.00395436  0.16608077  1
  Cu+  Cu64  1  0.50052245  0.00316656  0.49736984  1
  Cu+  Cu65  1  0.49480967  0.00072728  0.83429623  1
  Cu+  Cu66  1  0.49895379  0.33549087  0.16226881  1
  Cu+  Cu67  1  0.50303280  0.33259351  0.50528456  1
  Cu+  Cu68  1  0.50446965  0.33651619  0.83504036  1
  Cu+  Cu69  1  0.49915523  0.66502212  0.16632327  1
  Cu+  Cu70  1  0.50376888  0.66847679  0.50076577  1
  Cu+  Cu71  1  0.49970847  0.66757644  0.82866253  1
  Cu+  Cu72  1  0.83214399  -0.00100465  0.15980261  1
  Cu+  Cu73  1  0.83060089  0.00230644  0.49929828  1
  Cu+  Cu74  1  0.83407003  0.00111179  0.83987662  1
  Cu+  Cu75  1  0.83257392  0.33052193  0.17033928  1
  Cu+  Cu76  1  0.82947585  0.33813429  0.49590188  1
  Cu+  Cu77  1  0.84186833  0.33184517  0.83366535  1
  Cu+  Cu78  1  0.83126654  0.66923798  0.16744484  1
  Cu+  Cu79  1  0.83666480  0.66743924  0.50333919  1
  Cu+  Cu80  1  0.83069150  0.66638429  0.83353984  1
  Cu+  Cu81  1  0.00055028  0.15848171  0.17163449  1
  Cu+  Cu82  1  -0.00198682  0.16721466  0.49837859  1
  Cu+  Cu83  1  0.00479057  0.16879330  0.83079152  1
  Cu+  Cu84  1  -0.00072521  0.50070606  0.16714456  1
  Cu+  Cu85  1  0.00152744  0.49954084  0.49309444  1
  Cu+  Cu86  1  0.00273523  0.49159777  0.83375960  1
  Cu+  Cu87  1  -0.00063991  0.83568001  0.16810170  1
  Cu+  Cu88  1  0.00262330  0.82964713  0.50467655  1
  Cu+  Cu89  1  -0.00229934  0.83410383  0.83354534  1
  Cu+  Cu90  1  0.33343507  0.16576927  0.16308399  1
  Cu+  Cu91  1  0.33040349  0.16572269  0.49687533  1
  Cu+  Cu92  1  0.33368772  0.16941326  0.83881397  1
  Cu+  Cu93  1  0.33263160  0.50129861  0.16793513  1
  Cu+  Cu94  1  0.33443208  0.49907981  0.50427125  1
  Cu+  Cu95  1  0.33743836  0.50234028  0.82990552  1
  Cu+  Cu96  1  0.33143437  0.82989528  0.16390832  1
  Cu+  Cu97  1  0.33817228  0.83343361  0.49801305  1
  Cu+  Cu98  1  0.32909511  0.83096650  0.83085523  1
  Cu+  Cu99  1  0.65767906  0.16668221  0.16686948  1
  Cu+  Cu100  1  0.66625627  0.17641080  0.49703837  1
  Cu+  Cu101  1  0.67062130  0.16623510  0.83487354  1
  Cu+  Cu102  1  0.66930615  0.49948959  0.16733146  1
  Cu+  Cu103  1  0.66824209  0.49650615  0.50749934  1
  Cu+  Cu104  1  0.67069343  0.50354241  0.83325061  1
  Cu+  Cu105  1  0.66320599  0.83870806  0.16644119  1
  Cu+  Cu106  1  0.66902887  0.83484798  0.49823297  1
  Cu+  Cu107  1  0.66053706  0.83364649  0.83042291  1
  Cu+  Cu108  1  0.07095216  0.73782359  0.59685903  1
  Cu+  Cu109  1  0.73719919  0.07442461  0.92293793  1
  Cu+  Cu110  1  0.93165494  0.40437738  0.74062088  1
  Cu+  Cu111  1  0.26469118  0.26546521  0.93071415  1
  Cu+  Cu112  1  0.74288226  0.41072814  0.59956032  1
  Cu+  Cu113  1  0.93295761  0.91013950  0.27158660  1
  Cu+  Cu114  1  0.58514730  0.92559023  0.25944392  1
  Cu+  Cu115  1  0.59340416  0.25588043  0.59929201  1
  Cu+  Cu116  1  0.93180295  0.92595373  0.92151132  1
  Cu+  Cu117  1  0.07435492  0.59573059  0.40430539  1
  Cu+  Cu118  1  0.74471217  0.59553187  0.74197550  1
  Cu+  Cu119  1  0.73100380  0.92008001  0.06916633  1
  Cu+  Cu120  1  0.07372707  0.40771034  0.93148102  1
  Cu+  Cu121  1  0.92961456  0.40979727  0.40466479  1
  Cu+  Cu122  1  0.93123880  0.07792493  0.07289796  1
  Cu+  Cu123  1  0.92910206  0.25758753  0.25093807  1
  Cu+  Cu124  1  0.40224791  0.06841813  0.92520770  1
  Cu+  Cu125  1  0.25960609  0.25618440  0.59202445  1
  Cu+  Cu126  1  0.07610448  0.07039304  0.26243730  1
  Cu+  Cu127  1  0.73884643  0.93042896  0.41512408  1
  Cu+  Cu128  1  0.73804137  0.26666322  0.40331751  1
  Cu+  Cu129  1  0.26210105  0.59708282  0.58427947  1
  Cu+  Cu130  1  0.26459235  0.06996193  0.40543927  1
  Cu+  Cu131  1  0.58218204  0.26512636  0.25291952  1
  Cu+  Cu132  1  0.40631973  0.59746303  0.74402766  1
  Te2-  Te133  1  0.25411257  0.25608621  0.08413366  1
  Te2-  Te134  1  0.24899546  0.24987681  0.40928811  1
  Te2-  Te135  1  0.25476705  0.25508410  0.74834030  1
  Te2-  Te136  1  0.24868949  0.58412532  0.08175167  1
  Te2-  Te137  1  0.25192801  0.58453119  0.41756622  1
  Te2-  Te138  1  0.25366640  0.58917726  0.74518984  1
  Te2-  Te139  1  0.24911904  0.91738876  0.08199719  1
  Te2-  Te140  1  0.25605521  0.91603728  0.41170499  1
  Te2-  Te141  1  0.24862827  0.91507601  0.74471707  1
  Te2-  Te142  1  0.57997662  0.24855091  0.07617858  1
  Te2-  Te143  1  0.58406003  0.25897782  0.40811628  1
  Te2-  Te144  1  0.58911262  0.25311688  0.75148832  1
  Te2-  Te145  1  0.58734233  0.58514475  0.08314173  1
  Te2-  Te146  1  0.58759280  0.58178012  0.42004830  1
  Te2-  Te147  1  0.59035688  0.58808438  0.74578856  1
  Te2-  Te148  1  0.57983847  0.91908644  0.07417628  1
  Te2-  Te149  1  0.58782923  0.92392809  0.41173518  1
  Te2-  Te150  1  0.58077778  0.92151996  0.74747624  1
  Te2-  Te151  1  0.91661841  0.24488678  0.08393130  1
  Te2-  Te152  1  0.92203641  0.25552849  0.41211659  1
  Te2-  Te153  1  0.92407926  0.25147847  0.74519037  1
  Te2-  Te154  1  0.91805703  0.58736197  0.08451840  1
  Te2-  Te155  1  0.91847263  0.58909886  0.41349560  1
  Te2-  Te156  1  0.92188538  0.58329596  0.75143577  1
  Te2-  Te157  1  0.92536008  0.92288190  0.07736594  1
  Te2-  Te158  1  0.92421406  0.92105626  0.42088820  1
  Te2-  Te159  1  0.91582497  0.92065964  0.74881796  1
  Te2-  Te160  1  0.25552603  0.07850223  0.24923404  1
  Te2-  Te161  1  0.25161182  0.07949787  0.58487899  1
  Te2-  Te162  1  0.25045947  0.07784624  0.91958548  1
  Te2-  Te163  1  0.25022810  0.41727978  0.25451613  1
  Te2-  Te164  1  0.25365456  0.41031857  0.58569335  1
  Te2-  Te165  1  0.25835755  0.41840099  0.91926917  1
  Te2-  Te166  1  0.25082137  0.74629906  0.25028897  1
  Te2-  Te167  1  0.25576665  0.74825404  0.58427792  1
  Te2-  Te168  1  0.24908348  0.74681349  0.91797433  1
  Te2-  Te169  1  0.58182743  0.07825352  0.25240598  1
  Te2-  Te170  1  0.58651247  0.08601000  0.58145022  1
  Te2-  Te171  1  0.58478321  0.07998353  0.91840003  1
  Te2-  Te172  1  0.58652569  0.41537130  0.25264805  1
  Te2-  Te173  1  0.58664678  0.41247966  0.59476065  1
  Te2-  Te174  1  0.58953754  0.41774376  0.91907434  1
  Te2-  Te175  1  0.58672791  0.74633309  0.24865020  1
  Te2-  Te176  1  0.58802515  0.75106108  0.58437797  1
  Te2-  Te177  1  0.58248071  0.74743144  0.91586669  1
  Te2-  Te178  1  0.91499859  0.07346004  0.25827261  1
  Te2-  Te179  1  0.91504061  0.08463130  0.58287692  1
  Te2-  Te180  1  0.92890366  0.08045061  0.91933913  1
  Te2-  Te181  1  0.92368950  0.41077701  0.25327116  1
  Te2-  Te182  1  0.92196302  0.41281061  0.58509262  1
  Te2-  Te183  1  0.92031573  0.41168234  0.92602824  1
  Te2-  Te184  1  0.91396988  0.75268674  0.25369547  1
  Te2-  Te185  1  0.91897306  0.74675942  0.59077154  1
  Te2-  Te186  1  0.91392866  0.74900837  0.91928845  1
  Te2-  Te187  1  0.08211782  0.25110034  0.25442725  1
  Te2-  Te188  1  0.07911199  0.24946314  0.58434929  1
  Te2-  Te189  1  0.07988123  0.25318328  0.92071184  1
  Te2-  Te190  1  0.07759134  0.58774049  0.25217904  1
  Te2-  Te191  1  0.07560233  0.58196314  0.58834507  1
  Te2-  Te192  1  0.08201470  0.58296274  0.91573568  1
  Te2-  Te193  1  0.08090850  0.91983439  0.25822949  1
  Te2-  Te194  1  0.08518721  0.92060288  0.58257057  1
  Te2-  Te195  1  0.08292322  0.91936424  0.91898886  1
  Te2-  Te196  1  0.41215211  0.25320713  0.24742965  1
  Te2-  Te197  1  0.41186915  0.25136018  0.58564079  1
  Te2-  Te198  1  0.41702937  0.25799567  0.92122821  1
  Te2-  Te199  1  0.41654963  0.58374337  0.25411763  1
  Te2-  Te200  1  0.41566713  0.58995828  0.58758250  1
  Te2-  Te201  1  0.41715092  0.58643001  0.91809277  1
  Te2-  Te202  1  0.41216523  0.91417498  0.25067049  1
  Te2-  Te203  1  0.41684673  0.92091403  0.58207967  1
  Te2-  Te204  1  0.40889999  0.91576280  0.91860982  1
  Te2-  Te205  1  0.74003429  0.25310644  0.25050071  1
  Te2-  Te206  1  0.74757351  0.25701320  0.59063487  1
  Te2-  Te207  1  0.75381497  0.25207609  0.92014278  1
  Te2-  Te208  1  0.75002270  0.58504492  0.25354269  1
  Te2-  Te209  1  0.75031033  0.58664195  0.58801408  1
  Te2-  Te210  1  0.75138260  0.58356098  0.92292726  1
  Te2-  Te211  1  0.74380640  0.92577081  0.25501596  1
  Te2-  Te212  1  0.74870188  0.91946451  0.58692125  1
  Te2-  Te213  1  0.73749579  0.92159780  0.91781183  1
  Te2-  Te214  1  0.08486828  0.08247094  0.07614778  1
  Te2-  Te215  1  0.07461960  0.07663195  0.41527623  1
  Te2-  Te216  1  0.08528061  0.08363041  0.74681520  1
  Te2-  Te217  1  0.07878621  0.41225321  0.08382752  1
  Te2-  Te218  1  0.08378315  0.40772947  0.41380516  1
  Te2-  Te219  1  0.08694590  0.41225943  0.74225429  1
  Te2-  Te220  1  0.07785491  0.74869261  0.08287516  1
  Te2-  Te221  1  0.08036017  0.74795320  0.41159557  1
  Te2-  Te222  1  0.07585071  0.74447568  0.74901865  1
  Te2-  Te223  1  0.40929325  0.07457858  0.08049767  1
  Te2-  Te224  1  0.41590340  0.08264019  0.41071816  1
  Te2-  Te225  1  0.41327886  0.08551641  0.74768196  1
  Te2-  Te226  1  0.41437503  0.41806576  0.07998932  1
  Te2-  Te227  1  0.41682965  0.41466320  0.42015529  1
  Te2-  Te228  1  0.41744340  0.41283801  0.74917422  1
  Te2-  Te229  1  0.41293998  0.74429573  0.08030000  1
  Te2-  Te230  1  0.41889535  0.74749067  0.41374027  1
  Te2-  Te231  1  0.41248350  0.75008446  0.74300142  1
  Te2-  Te232  1  0.73701468  0.07858783  0.08091297  1
  Te2-  Te233  1  0.74569458  0.08539520  0.41330207  1
  Te2-  Te234  1  0.75238577  0.08205712  0.74852273  1
  Te2-  Te235  1  0.75069210  0.41289482  0.08362110  1
  Te2-  Te236  1  0.74407526  0.41936888  0.41020290  1
  Te2-  Te237  1  0.74760290  0.40903310  0.75308984  1
  Te2-  Te238  1  0.74877543  0.75383258  0.08135916  1
  Te2-  Te239  1  0.75098189  0.74628942  0.41666434  1
  Te2-  Te240  1  0.74506445  0.74951958  0.74728380  1
