# generated using pymatgen
data_Ti27(Cu53Te54)2
_symmetry_space_group_name_H-M   'P 1'
_cell_length_a   17.87660831
_cell_length_b   17.87360611
_cell_length_c   17.87590684
_cell_angle_alpha   90.01845947
_cell_angle_beta   90.00043462
_cell_angle_gamma   90.00702825
_symmetry_Int_Tables_number   1
_chemical_formula_structural   Ti27(Cu53Te54)2
_chemical_formula_sum   'Ti27 Cu106 Te108'
_cell_volume   5711.69968124
_cell_formula_units_Z   1
loop_
 _symmetry_equiv_pos_site_id
 _symmetry_equiv_pos_as_xyz
  1  'x, y, z'
loop_
 _atom_type_symbol
 _atom_type_oxidation_number
  Ti4+  4.0
  Cu+  1.0
  Te2-  -2.0
loop_
 _atom_site_type_symbol
 _atom_site_label
 _atom_site_symmetry_multiplicity
 _atom_site_fract_x
 _atom_site_fract_y
 _atom_site_fract_z
 _atom_site_occupancy
  Ti4+  Ti0  1  0.16691811  0.16721279  0.16756790  1
  Ti4+  Ti1  1  0.16511918  0.16900990  0.50150629  1
  Ti4+  Ti2  1  0.16547883  0.16082185  0.83015534  1
  Ti4+  Ti3  1  0.16685919  0.50250734  0.16383930  1
  Ti4+  Ti4  1  0.17194843  0.50385033  0.49880012  1
  Ti4+  Ti5  1  0.16605495  0.49981170  0.83231998  1
  Ti4+  Ti6  1  0.16729480  0.83512467  0.16836254  1
  Ti4+  Ti7  1  0.16357761  0.83298834  0.49888939  1
  Ti4+  Ti8  1  0.16569861  0.83177380  0.83155701  1
  Ti4+  Ti9  1  0.50229883  0.16721897  0.16931408  1
  Ti4+  Ti10  1  0.50035800  0.16732252  0.50175671  1
  Ti4+  Ti11  1  0.49916668  0.16782156  0.83732564  1
  Ti4+  Ti12  1  0.49944828  0.49554305  0.16664859  1
  Ti4+  Ti13  1  0.50168489  0.49604065  0.50257060  1
  Ti4+  Ti14  1  0.49927057  0.49815375  0.83400685  1
  Ti4+  Ti15  1  0.50016159  0.83234765  0.16482025  1
  Ti4+  Ti16  1  0.50050616  0.83226984  0.50074027  1
  Ti4+  Ti17  1  0.50056825  0.83370075  0.83195596  1
  Ti4+  Ti18  1  0.83500529  0.16895315  0.16781882  1
  Ti4+  Ti19  1  0.83520065  0.16661366  0.49941870  1
  Ti4+  Ti20  1  0.83336977  0.16645972  0.83401937  1
  Ti4+  Ti21  1  0.83285670  0.50171290  0.16470191  1
  Ti4+  Ti22  1  0.83577987  0.50385596  0.50034470  1
  Ti4+  Ti23  1  0.83415933  0.49804802  0.83278578  1
  Ti4+  Ti24  1  0.83195409  0.83431669  0.16585453  1
  Ti4+  Ti25  1  0.82826111  0.83383796  0.49963150  1
  Ti4+  Ti26  1  0.83078584  0.83246049  0.83514565  1
  Cu+  Cu27  1  0.16859606  0.16229159  -0.00114766  1
  Cu+  Cu28  1  0.16795076  0.16905175  0.33293126  1
  Cu+  Cu29  1  0.15734895  0.16337707  0.66555727  1
  Cu+  Cu30  1  0.16594598  0.50004305  -0.00168376  1
  Cu+  Cu31  1  0.16875454  0.50702982  0.32945353  1
  Cu+  Cu32  1  0.16945956  0.49743725  0.66548866  1
  Cu+  Cu33  1  0.16788920  0.83382898  -0.00125824  1
  Cu+  Cu34  1  0.16840808  0.83399882  0.33453881  1
  Cu+  Cu35  1  0.16268033  0.83253943  0.66623347  1
  Cu+  Cu36  1  0.49833053  0.16882845  0.00396435  1
  Cu+  Cu37  1  0.50243463  0.17099844  0.33619701  1
  Cu+  Cu38  1  0.49981173  0.16575089  0.67212002  1
  Cu+  Cu39  1  0.49792003  0.49473210  0.00297554  1
  Cu+  Cu40  1  0.50203478  0.49750717  0.33509905  1
  Cu+  Cu41  1  0.49864394  0.49432832  0.66919092  1
  Cu+  Cu42  1  0.50398221  0.83476547  -0.00416252  1
  Cu+  Cu43  1  0.50001571  0.83301504  0.33204583  1
  Cu+  Cu44  1  0.50251106  0.83635649  0.66327595  1
  Cu+  Cu45  1  0.83336994  0.16632178  -0.00006366  1
  Cu+  Cu46  1  0.83584245  0.16827723  0.33489080  1
  Cu+  Cu47  1  0.83449755  0.16457592  0.66848086  1
  Cu+  Cu48  1  0.83927189  0.49963765  -0.00154653  1
  Cu+  Cu49  1  0.83399540  0.50427404  0.33216491  1
  Cu+  Cu50  1  0.83068997  0.49791745  0.66420670  1
  Cu+  Cu51  1  0.83375066  0.83473401  0.00226263  1
  Cu+  Cu52  1  0.82782140  0.83022680  0.32978027  1
  Cu+  Cu53  1  0.82590870  0.83259430  0.67014374  1
  Cu+  Cu54  1  0.16796187  0.00109789  0.16917710  1
  Cu+  Cu55  1  0.16202599  0.00103555  0.50333636  1
  Cu+  Cu56  1  0.16686190  -0.00481337  0.83123555  1
  Cu+  Cu57  1  0.16611893  0.33605541  0.16757730  1
  Cu+  Cu58  1  0.16783716  0.33957705  0.50307497  1
  Cu+  Cu59  1  0.16614794  0.32792010  0.82772647  1
  Cu+  Cu60  1  0.16995877  0.67098398  0.16391298  1
  Cu+  Cu61  1  0.16743147  0.66686013  0.49179140  1
  Cu+  Cu62  1  0.16574851  0.66723280  0.83296253  1
  Cu+  Cu63  1  0.50198195  0.00051408  0.16884599  1
  Cu+  Cu64  1  0.50213777  -0.00015108  0.50153794  1
  Cu+  Cu65  1  0.50291541  0.00048484  0.83728351  1
  Cu+  Cu66  1  0.50502854  0.32887075  0.16653992  1
  Cu+  Cu67  1  0.49483011  0.32909147  0.50188230  1
  Cu+  Cu68  1  0.50005574  0.33674574  0.83764270  1
  Cu+  Cu69  1  0.49754188  0.66484471  0.16535075  1
  Cu+  Cu70  1  0.50247041  0.66295931  0.49751728  1
  Cu+  Cu71  1  0.49698790  0.66607762  0.82815276  1
  Cu+  Cu72  1  0.83511719  0.00158423  0.16736500  1
  Cu+  Cu73  1  0.83072485  -0.00020830  0.49774608  1
  Cu+  Cu74  1  0.83223680  0.00112533  0.83369757  1
  Cu+  Cu75  1  0.83624527  0.33614412  0.16352134  1
  Cu+  Cu76  1  0.83755512  0.33238393  0.50036928  1
  Cu+  Cu77  1  0.83336907  0.33075760  0.83403256  1
  Cu+  Cu78  1  0.82761452  0.66929262  0.16883381  1
  Cu+  Cu79  1  0.83290866  0.67294580  0.49829174  1
  Cu+  Cu80  1  0.83441259  0.66320801  0.83484763  1
  Cu+  Cu81  1  0.00239417  0.16803761  0.16721937  1
  Cu+  Cu82  1  -0.00014731  0.16473437  0.50384684  1
  Cu+  Cu83  1  -0.00083306  0.16415054  0.82841961  1
  Cu+  Cu84  1  -0.00170926  0.49997199  0.16208957  1
  Cu+  Cu85  1  0.00499402  0.50678014  0.49818601  1
  Cu+  Cu86  1  -0.00300922  0.50346246  0.83533092  1
  Cu+  Cu87  1  0.00178572  0.83804179  0.16893696  1
  Cu+  Cu88  1  -0.00707759  0.83289299  0.49708828  1
  Cu+  Cu89  1  -0.00020048  0.83117822  0.83251832  1
  Cu+  Cu90  1  0.33359722  0.16631477  0.16577904  1
  Cu+  Cu91  1  0.33235094  0.16960723  0.49823523  1
  Cu+  Cu92  1  0.32872121  0.16709344  0.83663922  1
  Cu+  Cu93  1  0.33322547  0.50488203  0.16459015  1
  Cu+  Cu94  1  0.34040298  0.50041732  0.50036749  1
  Cu+  Cu95  1  0.33454952  0.50080793  0.83232532  1
  Cu+  Cu96  1  0.33278629  0.83109379  0.16421261  1
  Cu+  Cu97  1  0.33091673  0.83070083  0.49909051  1
  Cu+  Cu98  1  0.33377549  0.83385354  0.83105087  1
  Cu+  Cu99  1  0.66919669  0.16887581  0.17390216  1
  Cu+  Cu100  1  0.66891129  0.16468306  0.50143015  1
  Cu+  Cu101  1  0.66862070  0.16746450  0.83574111  1
  Cu+  Cu102  1  0.66497520  0.49572806  0.16544395  1
  Cu+  Cu103  1  0.67046196  0.49680163  0.50500642  1
  Cu+  Cu104  1  0.66643067  0.49674202  0.83032858  1
  Cu+  Cu105  1  0.66782331  0.83083247  0.16689639  1
  Cu+  Cu106  1  0.66441661  0.83318281  0.50652318  1
  Cu+  Cu107  1  0.66364771  0.83643518  0.83664892  1
  Cu+  Cu108  1  0.59523736  0.93077993  0.93047589  1
  Cu+  Cu109  1  0.40721608  0.40055370  0.59582260  1
  Cu+  Cu110  1  0.92228806  0.74720913  0.40136950  1
  Cu+  Cu111  1  0.40216988  0.41288156  0.92935691  1
  Cu+  Cu112  1  0.40462026  0.59627191  0.73877609  1
  Cu+  Cu113  1  0.59636209  0.40177671  0.07405744  1
  Cu+  Cu114  1  0.07380113  0.59138511  0.40038041  1
  Cu+  Cu115  1  0.25733257  0.74523787  0.06729187  1
  Cu+  Cu116  1  0.41089614  0.59351701  0.07224192  1
  Cu+  Cu117  1  0.41642965  0.59210207  0.40504198  1
  Cu+  Cu118  1  0.59390171  0.93184315  0.59243391  1
  Cu+  Cu119  1  0.07035254  0.25912740  0.74137409  1
  Cu+  Cu120  1  0.59290054  0.40466203  0.74093953  1
  Cu+  Cu121  1  0.26212154  0.74401438  0.40569057  1
  Cu+  Cu122  1  0.73411286  0.73820873  0.25958471  1
  Cu+  Cu123  1  0.93038237  0.40333431  0.07120086  1
  Cu+  Cu124  1  0.06814503  0.06811492  0.59261118  1
  Cu+  Cu125  1  0.74462161  0.40072806  0.58748547  1
  Cu+  Cu126  1  0.07370610  0.41658291  0.58973621  1
  Cu+  Cu127  1  0.40484124  0.25394692  0.07647143  1
  Cu+  Cu128  1  0.24787855  0.25742316  0.92535885  1
  Cu+  Cu129  1  0.73786296  0.74062449  0.60105324  1
  Cu+  Cu130  1  0.40213172  0.25648794  0.40470036  1
  Cu+  Cu131  1  0.92653232  0.59728932  0.92861759  1
  Cu+  Cu132  1  0.60098815  0.25785892  0.26797513  1
  Te2-  Te133  1  0.25196533  0.25591940  0.07925937  1
  Te2-  Te134  1  0.24948070  0.25732912  0.41420765  1
  Te2-  Te135  1  0.25138521  0.24635439  0.74181383  1
  Te2-  Te136  1  0.25416080  0.58855331  0.07446766  1
  Te2-  Te137  1  0.26144952  0.58742403  0.40994971  1
  Te2-  Te138  1  0.25134905  0.58635294  0.74707912  1
  Te2-  Te139  1  0.25238779  0.92048613  0.08169783  1
  Te2-  Te140  1  0.24991706  0.92212925  0.41803484  1
  Te2-  Te141  1  0.25155392  0.91626420  0.74451498  1
  Te2-  Te142  1  0.59277071  0.24984786  0.07892850  1
  Te2-  Te143  1  0.59082154  0.25515768  0.41992590  1
  Te2-  Te144  1  0.58584931  0.25217373  0.75125936  1
  Te2-  Te145  1  0.58400264  0.58330516  0.08087532  1
  Te2-  Te146  1  0.59002455  0.57953133  0.41661643  1
  Te2-  Te147  1  0.58526390  0.58328952  0.74668987  1
  Te2-  Te148  1  0.58806843  0.91966611  0.08311129  1
  Te2-  Te149  1  0.58577725  0.91690136  0.41452206  1
  Te2-  Te150  1  0.58679024  0.92223165  0.74650339  1
  Te2-  Te151  1  0.92204726  0.25142350  0.07896294  1
  Te2-  Te152  1  0.92278811  0.25204307  0.41610064  1
  Te2-  Te153  1  0.91831127  0.25401161  0.74504731  1
  Te2-  Te154  1  0.91819639  0.59267910  0.08210531  1
  Te2-  Te155  1  0.92017976  0.59069790  0.41089559  1
  Te2-  Te156  1  0.91697169  0.58368425  0.74426931  1
  Te2-  Te157  1  0.91945003  0.92008735  0.08208501  1
  Te2-  Te158  1  0.91303248  0.91828358  0.41065961  1
  Te2-  Te159  1  0.91523563  0.91621739  0.74901762  1
  Te2-  Te160  1  0.25371664  0.08335668  0.25313984  1
  Te2-  Te161  1  0.25177426  0.08350910  0.58505949  1
  Te2-  Te162  1  0.25124506  0.07505368  0.91758217  1
  Te2-  Te163  1  0.25260240  0.41863941  0.25006719  1
  Te2-  Te164  1  0.25787029  0.41517302  0.58632135  1
  Te2-  Te165  1  0.25080360  0.41182731  0.91860979  1
  Te2-  Te166  1  0.25514736  0.74685923  0.25423273  1
  Te2-  Te167  1  0.24786328  0.74676798  0.58481770  1
  Te2-  Te168  1  0.25497659  0.74601956  0.91603989  1
  Te2-  Te169  1  0.58607098  0.08112496  0.25630582  1
  Te2-  Te170  1  0.58651907  0.08348391  0.58942952  1
  Te2-  Te171  1  0.58701674  0.08462628  0.92372159  1
  Te2-  Te172  1  0.58721187  0.41228015  0.25641577  1
  Te2-  Te173  1  0.58891251  0.40703692  0.58785687  1
  Te2-  Te174  1  0.58969273  0.41368903  0.92197144  1
  Te2-  Te175  1  0.58278541  0.74440008  0.25185717  1
  Te2-  Te176  1  0.58394891  0.74136508  0.58762593  1
  Te2-  Te177  1  0.58376703  0.74299526  0.91557177  1
  Te2-  Te178  1  0.92035939  0.08327909  0.25225430  1
  Te2-  Te179  1  0.91643893  0.07675463  0.58705345  1
  Te2-  Te180  1  0.91960302  0.08116591  0.91842045  1
  Te2-  Te181  1  0.91857067  0.41797364  0.25234251  1
  Te2-  Te182  1  0.92290813  0.41746311  0.58414578  1
  Te2-  Te183  1  0.92217161  0.40931788  0.91729098  1
  Te2-  Te184  1  0.92158870  0.74693026  0.24966227  1
  Te2-  Te185  1  0.91538838  0.75115181  0.58900451  1
  Te2-  Te186  1  0.91897921  0.74864109  0.92085361  1
  Te2-  Te187  1  0.08227253  0.25402515  0.25243787  1
  Te2-  Te188  1  0.07703739  0.25933498  0.58635883  1
  Te2-  Te189  1  0.08082339  0.24806657  0.91766399  1
  Te2-  Te190  1  0.07941807  0.58974163  0.24629179  1
  Te2-  Te191  1  0.08706578  0.58918425  0.58687483  1
  Te2-  Te192  1  0.08204838  0.58693531  0.91907775  1
  Te2-  Te193  1  0.08302896  0.92086034  0.25539076  1
  Te2-  Te194  1  0.07439540  0.91535974  0.58519022  1
  Te2-  Te195  1  0.08074768  0.91686757  0.91818048  1
  Te2-  Te196  1  0.41194307  0.25465581  0.25306572  1
  Te2-  Te197  1  0.41191801  0.24843566  0.59254394  1
  Te2-  Te198  1  0.40949404  0.25618074  0.92244662  1
  Te2-  Te199  1  0.41553323  0.58453177  0.25395524  1
  Te2-  Te200  1  0.41734677  0.58694273  0.58839808  1
  Te2-  Te201  1  0.41390886  0.58677859  0.92071398  1
  Te2-  Te202  1  0.41490029  0.91699801  0.24987237  1
  Te2-  Te203  1  0.41154414  0.91767775  0.58253297  1
  Te2-  Te204  1  0.41376134  0.91837690  0.91779262  1
  Te2-  Te205  1  0.75288121  0.25822634  0.25551439  1
  Te2-  Te206  1  0.74897282  0.25038866  0.58772914  1
  Te2-  Te207  1  0.74845391  0.25267486  0.92058424  1
  Te2-  Te208  1  0.74276951  0.58370229  0.25247504  1
  Te2-  Te209  1  0.74834481  0.58934382  0.58603941  1
  Te2-  Te210  1  0.74630868  0.58089244  0.91814584  1
  Te2-  Te211  1  0.74675186  0.92115178  0.25103114  1
  Te2-  Te212  1  0.74640890  0.92383208  0.58849130  1
  Te2-  Te213  1  0.74807484  0.92135698  0.92204773  1
  Te2-  Te214  1  0.08263423  0.08121890  0.08215744  1
  Te2-  Te215  1  0.08187769  0.08386379  0.41376523  1
  Te2-  Te216  1  0.07672959  0.07158241  0.74671437  1
  Te2-  Te217  1  0.08255743  0.41364547  0.07829414  1
  Te2-  Te218  1  0.08533716  0.41914707  0.41184516  1
  Te2-  Te219  1  0.07745243  0.41497415  0.74710537  1
  Te2-  Te220  1  0.08012964  0.75128834  0.08193627  1
  Te2-  Te221  1  0.07602554  0.74728774  0.40907418  1
  Te2-  Te222  1  0.07933702  0.74547408  0.74685947  1
  Te2-  Te223  1  0.41643674  0.07996298  0.08353203  1
  Te2-  Te224  1  0.41674582  0.08140678  0.41532484  1
  Te2-  Te225  1  0.41473043  0.08173884  0.75413641  1
  Te2-  Te226  1  0.40784609  0.40798717  0.08300319  1
  Te2-  Te227  1  0.41445053  0.41132427  0.41195906  1
  Te2-  Te228  1  0.40986774  0.40825858  0.74849314  1
  Te2-  Te229  1  0.41448904  0.74712061  0.07472863  1
  Te2-  Te230  1  0.41521047  0.74556170  0.41137362  1
  Te2-  Te231  1  0.41320528  0.75037017  0.74260011  1
  Te2-  Te232  1  0.74779356  0.08358700  0.08476429  1
  Te2-  Te233  1  0.74837829  0.08269001  0.41303822  1
  Te2-  Te234  1  0.74653042  0.08153280  0.74874648  1
  Te2-  Te235  1  0.74872762  0.41429407  0.07696433  1
  Te2-  Te236  1  0.75253621  0.41621509  0.41504807  1
  Te2-  Te237  1  0.74782617  0.40863235  0.74537750  1
  Te2-  Te238  1  0.74685350  0.74807345  0.07794214  1
  Te2-  Te239  1  0.73941911  0.74702044  0.41335336  1
  Te2-  Te240  1  0.74260426  0.74408992  0.75365095  1
