# generated using pymatgen
data_Ti27(Cu53Te54)2
_symmetry_space_group_name_H-M   'P 1'
_cell_length_a   17.87308418
_cell_length_b   17.87386424
_cell_length_c   17.87388507
_cell_angle_alpha   89.96995478
_cell_angle_beta   90.04274282
_cell_angle_gamma   89.98905589
_symmetry_Int_Tables_number   1
_chemical_formula_structural   Ti27(Cu53Te54)2
_chemical_formula_sum   'Ti27 Cu106 Te108'
_cell_volume   5710.00815238
_cell_formula_units_Z   1
loop_
 _symmetry_equiv_pos_site_id
 _symmetry_equiv_pos_as_xyz
  1  'x, y, z'
loop_
 _atom_type_symbol
 _atom_type_oxidation_number
  Ti4+  4.0
  Cu+  1.0
  Te2-  -2.0
loop_
 _atom_site_type_symbol
 _atom_site_label
 _atom_site_symmetry_multiplicity
 _atom_site_fract_x
 _atom_site_fract_y
 _atom_site_fract_z
 _atom_site_occupancy
  Ti4+  Ti0  1  0.16870901  0.16914943  0.16418685  1
  Ti4+  Ti1  1  0.16084614  0.16983736  0.50128282  1
  Ti4+  Ti2  1  0.16626185  0.16209623  0.83389106  1
  Ti4+  Ti3  1  0.16840185  0.50210479  0.16480877  1
  Ti4+  Ti4  1  0.16812415  0.50082134  0.49603878  1
  Ti4+  Ti5  1  0.16663962  0.50233514  0.83403048  1
  Ti4+  Ti6  1  0.16685702  0.83584456  0.16840575  1
  Ti4+  Ti7  1  0.16746636  0.83360178  0.50107177  1
  Ti4+  Ti8  1  0.16583641  0.83112909  0.83119140  1
  Ti4+  Ti9  1  0.50036345  0.16535164  0.16562717  1
  Ti4+  Ti10  1  0.49623753  0.16890634  0.49721682  1
  Ti4+  Ti11  1  0.49839746  0.16809486  0.83447119  1
  Ti4+  Ti12  1  0.50131059  0.50266171  0.16670233  1
  Ti4+  Ti13  1  0.50238634  0.49932220  0.49922504  1
  Ti4+  Ti14  1  0.50080828  0.50015781  0.83409405  1
  Ti4+  Ti15  1  0.49986113  0.83373488  0.16928371  1
  Ti4+  Ti16  1  0.50031339  0.83169021  0.50024598  1
  Ti4+  Ti17  1  0.50205621  0.83155872  0.83228581  1
  Ti4+  Ti18  1  0.83585708  0.16589601  0.16651198  1
  Ti4+  Ti19  1  0.83150956  0.16604158  0.50308637  1
  Ti4+  Ti20  1  0.83248043  0.16780677  0.83148016  1
  Ti4+  Ti21  1  0.83537557  0.49987476  0.16758020  1
  Ti4+  Ti22  1  0.83268240  0.49607238  0.49791968  1
  Ti4+  Ti23  1  0.83231596  0.50233014  0.83324008  1
  Ti4+  Ti24  1  0.83291248  0.83504414  0.16727305  1
  Ti4+  Ti25  1  0.83127968  0.83287711  0.50159077  1
  Ti4+  Ti26  1  0.83324476  0.82969747  0.83270569  1
  Cu+  Cu27  1  0.17661822  0.16584157  -0.00089738  1
  Cu+  Cu28  1  0.16261223  0.16827373  0.33245954  1
  Cu+  Cu29  1  0.15610112  0.16601769  0.66880780  1
  Cu+  Cu30  1  0.16765472  0.50181814  0.00228188  1
  Cu+  Cu31  1  0.16961800  0.50247910  0.32897566  1
  Cu+  Cu32  1  0.16818429  0.50268310  0.66406670  1
  Cu+  Cu33  1  0.16554719  0.83541862  0.00071377  1
  Cu+  Cu34  1  0.16702401  0.83724599  0.33679026  1
  Cu+  Cu35  1  0.17080391  0.83149011  0.66692585  1
  Cu+  Cu36  1  0.50156900  0.16917484  -0.00096057  1
  Cu+  Cu37  1  0.49774454  0.16285642  0.33310335  1
  Cu+  Cu38  1  0.49404633  0.16995418  0.66591465  1
  Cu+  Cu39  1  0.50179360  0.50457236  -0.00067661  1
  Cu+  Cu40  1  0.50299959  0.50003058  0.33271106  1
  Cu+  Cu41  1  0.49631548  0.49966191  0.66784177  1
  Cu+  Cu42  1  0.50114051  0.83182416  0.00259804  1
  Cu+  Cu43  1  0.49847282  0.82776542  0.33397207  1
  Cu+  Cu44  1  0.50371794  0.83175040  0.66708747  1
  Cu+  Cu45  1  0.83504549  0.16717230  0.00017789  1
  Cu+  Cu46  1  0.82927346  0.16291928  0.33111625  1
  Cu+  Cu47  1  0.84018744  0.16637665  0.66884068  1
  Cu+  Cu48  1  0.83399875  0.50288686  0.00210275  1
  Cu+  Cu49  1  0.83809989  0.49634140  0.33268704  1
  Cu+  Cu50  1  0.82623762  0.49864209  0.66570340  1
  Cu+  Cu51  1  0.83112367  0.83610487  0.00114340  1
  Cu+  Cu52  1  0.83319771  0.83427958  0.33440719  1
  Cu+  Cu53  1  0.83001753  0.83161745  0.66806482  1
  Cu+  Cu54  1  0.16817289  0.00286963  0.16584541  1
  Cu+  Cu55  1  0.16412103  0.00109103  0.50137995  1
  Cu+  Cu56  1  0.16606728  -0.00733172  0.83530294  1
  Cu+  Cu57  1  0.16823185  0.33730840  0.16468707  1
  Cu+  Cu58  1  0.16347558  0.33933129  0.50226766  1
  Cu+  Cu59  1  0.16754316  0.33161921  0.83550849  1
  Cu+  Cu60  1  0.16863833  0.66612742  0.16567427  1
  Cu+  Cu61  1  0.16795747  0.66631944  0.49709801  1
  Cu+  Cu62  1  0.16554057  0.67048036  0.83221441  1
  Cu+  Cu63  1  0.49811607  -0.00324376  0.16737260  1
  Cu+  Cu64  1  0.49649718  0.00090075  0.49766912  1
  Cu+  Cu65  1  0.49619882  0.00179634  0.83405546  1
  Cu+  Cu66  1  0.49894543  0.33315747  0.16647165  1
  Cu+  Cu67  1  0.50384693  0.33297328  0.49803359  1
  Cu+  Cu68  1  0.50164740  0.33333038  0.83685203  1
  Cu+  Cu69  1  0.50004085  0.67133368  0.16821803  1
  Cu+  Cu70  1  0.50316510  0.66614349  0.49711416  1
  Cu+  Cu71  1  0.50529868  0.66509171  0.83292394  1
  Cu+  Cu72  1  0.83279497  0.00096049  0.16910330  1
  Cu+  Cu73  1  0.82859179  -0.00367395  0.50117514  1
  Cu+  Cu74  1  0.83012265  -0.00061744  0.82845340  1
  Cu+  Cu75  1  0.83637394  0.33143149  0.16360035  1
  Cu+  Cu76  1  0.83362648  0.33392756  0.50097700  1
  Cu+  Cu77  1  0.83055283  0.33787865  0.83451045  1
  Cu+  Cu78  1  0.83304861  0.66840879  0.16930454  1
  Cu+  Cu79  1  0.83207050  0.66244063  0.50011483  1
  Cu+  Cu80  1  0.84202419  0.66402937  0.83499163  1
  Cu+  Cu81  1  0.00354945  0.16547463  0.16758639  1
  Cu+  Cu82  1  -0.00269374  0.16558438  0.50861217  1
  Cu+  Cu83  1  -0.00069495  0.16478422  0.82666746  1
  Cu+  Cu84  1  0.00407680  0.50019471  0.16675394  1
  Cu+  Cu85  1  0.00179430  0.49437886  0.49574966  1
  Cu+  Cu86  1  -0.00364657  0.50513898  0.83414309  1
  Cu+  Cu87  1  -0.00256557  0.83796197  0.16671387  1
  Cu+  Cu88  1  -0.00081971  0.83338115  0.50062104  1
  Cu+  Cu89  1  0.00125077  0.82230284  0.83303509  1
  Cu+  Cu90  1  0.33366115  0.16477698  0.16080007  1
  Cu+  Cu91  1  0.32889364  0.17090555  0.49828577  1
  Cu+  Cu92  1  0.33095446  0.16753493  0.83723081  1
  Cu+  Cu93  1  0.33393493  0.50324353  0.16454647  1
  Cu+  Cu94  1  0.33513392  0.50270347  0.49779563  1
  Cu+  Cu95  1  0.33601838  0.50021384  0.83236833  1
  Cu+  Cu96  1  0.33509449  0.83343516  0.17237062  1
  Cu+  Cu97  1  0.33340076  0.83606875  0.50243905  1
  Cu+  Cu98  1  0.33272267  0.83054962  0.83156760  1
  Cu+  Cu99  1  0.67053927  0.16490565  0.16791282  1
  Cu+  Cu100  1  0.65925985  0.16914647  0.49884204  1
  Cu+  Cu101  1  0.66484614  0.16922191  0.83604786  1
  Cu+  Cu102  1  0.67193220  0.50121800  0.16785693  1
  Cu+  Cu103  1  0.66656127  0.49057462  0.49672013  1
  Cu+  Cu104  1  0.66432823  0.50422584  0.83667793  1
  Cu+  Cu105  1  0.66623351  0.83449720  0.16549135  1
  Cu+  Cu106  1  0.66588132  0.83026380  0.49842088  1
  Cu+  Cu107  1  0.66831301  0.83199151  0.82522588  1
  Cu+  Cu108  1  0.07583549  0.41873163  0.59646791  1
  Cu+  Cu109  1  0.92221824  0.26251929  0.59304816  1
  Cu+  Cu110  1  0.07537969  0.26337619  0.74954571  1
  Cu+  Cu111  1  0.07946568  0.74195393  0.93381198  1
  Cu+  Cu112  1  0.59479376  0.74397363  0.07491842  1
  Cu+  Cu113  1  0.92721102  0.73621038  0.73455351  1
  Cu+  Cu114  1  0.93201353  0.40387157  0.40077153  1
  Cu+  Cu115  1  0.73680726  0.93068422  0.73880685  1
  Cu+  Cu116  1  0.58551978  0.25737481  0.59633951  1
  Cu+  Cu117  1  0.73860689  0.07042488  0.25567602  1
  Cu+  Cu118  1  0.07726227  0.07391243  0.25823690  1
  Cu+  Cu119  1  0.07531582  0.06674831  0.59355103  1
  Cu+  Cu120  1  0.26391128  0.73933383  0.73851376  1
  Cu+  Cu121  1  0.59253040  0.59547731  0.92913974  1
  Cu+  Cu122  1  0.25948304  0.26395494  0.92572430  1
  Cu+  Cu123  1  0.59724330  0.25946260  0.93168301  1
  Cu+  Cu124  1  0.73778496  0.40635606  0.59625040  1
  Cu+  Cu125  1  0.92568227  0.06691381  0.74410993  1
  Cu+  Cu126  1  0.40181021  0.73853739  0.26233797  1
  Cu+  Cu127  1  0.58727040  0.06987547  0.40865404  1
  Cu+  Cu128  1  0.92827438  0.58844534  0.93390176  1
  Cu+  Cu129  1  0.59118006  0.40378346  0.39969956  1
  Cu+  Cu130  1  0.59608815  0.73592896  0.73693485  1
  Cu+  Cu131  1  0.26280211  0.06855032  0.07356571  1
  Cu+  Cu132  1  0.59682904  0.73714257  0.40571854  1
  Te2-  Te133  1  0.25621556  0.25882036  0.07994771  1
  Te2-  Te134  1  0.24525740  0.25488300  0.41506064  1
  Te2-  Te135  1  0.24971126  0.24873179  0.74603877  1
  Te2-  Te136  1  0.25438322  0.58883692  0.07894904  1
  Te2-  Te137  1  0.25409569  0.58641311  0.41179820  1
  Te2-  Te138  1  0.25274291  0.58577982  0.74749183  1
  Te2-  Te139  1  0.25526860  0.91727610  0.08149038  1
  Te2-  Te140  1  0.25224647  0.92217761  0.41758068  1
  Te2-  Te141  1  0.25369169  0.91879135  0.74764930  1
  Te2-  Te142  1  0.58874075  0.25253149  0.08403922  1
  Te2-  Te143  1  0.58557544  0.25284606  0.40616153  1
  Te2-  Te144  1  0.58518548  0.25375951  0.74765941  1
  Te2-  Te145  1  0.59074775  0.58953592  0.08251085  1
  Te2-  Te146  1  0.59096449  0.58415942  0.41297983  1
  Te2-  Te147  1  0.58740394  0.58356055  0.74234355  1
  Te2-  Te148  1  0.58500256  0.92022872  0.08124213  1
  Te2-  Te149  1  0.58477657  0.91774012  0.41268389  1
  Te2-  Te150  1  0.58333251  0.92368715  0.74705798  1
  Te2-  Te151  1  0.92287458  0.24979943  0.08039643  1
  Te2-  Te152  1  0.91741290  0.24810663  0.41411988  1
  Te2-  Te153  1  0.91935401  0.26161037  0.74841806  1
  Te2-  Te154  1  0.92146542  0.58853372  0.08498506  1
  Te2-  Te155  1  0.91976921  0.58373414  0.41579108  1
  Te2-  Te156  1  0.91862998  0.58313835  0.73924391  1
  Te2-  Te157  1  0.91678373  0.92203432  0.08080729  1
  Te2-  Te158  1  0.91695691  0.91886358  0.41675788  1
  Te2-  Te159  1  0.92193495  0.91449518  0.74769510  1
  Te2-  Te160  1  0.25328702  0.08436180  0.25345427  1
  Te2-  Te161  1  0.24844968  0.08642330  0.58636409  1
  Te2-  Te162  1  0.25458634  0.07245574  0.91748579  1
  Te2-  Te163  1  0.25509474  0.41613420  0.24985770  1
  Te2-  Te164  1  0.25529572  0.41725634  0.58383120  1
  Te2-  Te165  1  0.25274896  0.41738133  0.91905812  1
  Te2-  Te166  1  0.24922287  0.74788028  0.25559450  1
  Te2-  Te167  1  0.25490844  0.74461445  0.58424090  1
  Te2-  Te168  1  0.25241189  0.74809436  0.92072866  1
  Te2-  Te169  1  0.58609372  0.07662480  0.25297192  1
  Te2-  Te170  1  0.58044685  0.08238512  0.58579064  1
  Te2-  Te171  1  0.58418208  0.08028419  0.91832627  1
  Te2-  Te172  1  0.58803091  0.41389308  0.24857448  1
  Te2-  Te173  1  0.58539099  0.41190509  0.59218536  1
  Te2-  Te174  1  0.58782315  0.41416977  0.92261636  1
  Te2-  Te175  1  0.59118404  0.74634884  0.25431617  1
  Te2-  Te176  1  0.58789764  0.74432035  0.58589259  1
  Te2-  Te177  1  0.59197749  0.74850527  0.92079021  1
  Te2-  Te178  1  0.92218547  0.07925562  0.25482943  1
  Te2-  Te179  1  0.91731121  0.07214158  0.58778520  1
  Te2-  Te180  1  0.91725231  0.08051601  0.91535092  1
  Te2-  Te181  1  0.92316846  0.41092173  0.24909999  1
  Te2-  Te182  1  0.92089644  0.41452360  0.59146134  1
  Te2-  Te183  1  0.91808469  0.41625752  0.91950573  1
  Te2-  Te184  1  0.91923226  0.75051744  0.25282565  1
  Te2-  Te185  1  0.91786506  0.74512974  0.58402098  1
  Te2-  Te186  1  0.91940286  0.74624948  0.92748661  1
  Te2-  Te187  1  0.08274475  0.25617709  0.24906174  1
  Te2-  Te188  1  0.07542385  0.26132539  0.59104926  1
  Te2-  Te189  1  0.07989266  0.24673677  0.91981347  1
  Te2-  Te190  1  0.08234930  0.58755570  0.25132066  1
  Te2-  Te191  1  0.07954963  0.58519782  0.58104586  1
  Te2-  Te192  1  0.08126271  0.58843466  0.92197964  1
  Te2-  Te193  1  0.08076696  0.92121844  0.25355813  1
  Te2-  Te194  1  0.07985388  0.91576324  0.58884279  1
  Te2-  Te195  1  0.07655454  0.91525114  0.91728821  1
  Te2-  Te196  1  0.41387653  0.24892044  0.24961915  1
  Te2-  Te197  1  0.41114245  0.25654525  0.58197007  1
  Te2-  Te198  1  0.41245957  0.25518149  0.92155197  1
  Te2-  Te199  1  0.41505840  0.58607211  0.25393226  1
  Te2-  Te200  1  0.41702129  0.58607097  0.58312800  1
  Te2-  Te201  1  0.41464882  0.58795429  0.91749270  1
  Te2-  Te202  1  0.41520580  0.91996877  0.25705844  1
  Te2-  Te203  1  0.41746378  0.91851044  0.58710092  1
  Te2-  Te204  1  0.41521250  0.91425414  0.91802622  1
  Te2-  Te205  1  0.75009636  0.25404011  0.25067613  1
  Te2-  Te206  1  0.74392348  0.25198004  0.58976016  1
  Te2-  Te207  1  0.75000413  0.25408046  0.92064440  1
  Te2-  Te208  1  0.75160160  0.58472684  0.25547821  1
  Te2-  Te209  1  0.74377473  0.58195779  0.58077758  1
  Te2-  Te210  1  0.74803369  0.58944061  0.92105517  1
  Te2-  Te211  1  0.74535121  0.91832292  0.25479987  1
  Te2-  Te212  1  0.74229930  0.91797272  0.58673267  1
  Te2-  Te213  1  0.74671419  0.91767346  0.91538468  1
  Te2-  Te214  1  0.08367839  0.08336779  0.07644373  1
  Te2-  Te215  1  0.07630110  0.08211536  0.41520914  1
  Te2-  Te216  1  0.07894993  0.06991234  0.74761486  1
  Te2-  Te217  1  0.08167646  0.41538103  0.07926193  1
  Te2-  Te218  1  0.08404432  0.41277242  0.40568014  1
  Te2-  Te219  1  0.07875117  0.41657137  0.75001153  1
  Te2-  Te220  1  0.07986000  0.74908918  0.08534314  1
  Te2-  Te221  1  0.08135652  0.74941488  0.41505192  1
  Te2-  Te222  1  0.08022076  0.74347937  0.73955738  1
  Te2-  Te223  1  0.41749487  0.07844052  0.07744981  1
  Te2-  Te224  1  0.40798629  0.08222912  0.41476486  1
  Te2-  Te225  1  0.41155250  0.08402112  0.74865144  1
  Te2-  Te226  1  0.41746605  0.41829625  0.08077110  1
  Te2-  Te227  1  0.41591022  0.41485230  0.41426751  1
  Te2-  Te228  1  0.41549315  0.41259270  0.74971553  1
  Te2-  Te229  1  0.41231912  0.74899103  0.08181338  1
  Te2-  Te230  1  0.41011092  0.74549243  0.41733316  1
  Te2-  Te231  1  0.41674360  0.74451980  0.74672609  1
  Te2-  Te232  1  0.74985605  0.08082624  0.07928413  1
  Te2-  Te233  1  0.74380727  0.07928423  0.41655605  1
  Te2-  Te234  1  0.74279641  0.08539039  0.74462768  1
  Te2-  Te235  1  0.75031571  0.41503173  0.08083342  1
  Te2-  Te236  1  0.74817121  0.40801441  0.40799697  1
  Te2-  Te237  1  0.74237185  0.41469511  0.75093267  1
  Te2-  Te238  1  0.74854330  0.74683374  0.08060566  1
  Te2-  Te239  1  0.74983018  0.74503303  0.41309123  1
  Te2-  Te240  1  0.74924858  0.73815009  0.74710933  1
