# generated using pymatgen
data_HfZrTaTiMo
_symmetry_space_group_name_H-M   'P 1'
_cell_length_a   15.22096558
_cell_length_b   15.20795914
_cell_length_c   16.81647486
_cell_angle_alpha   89.91085219
_cell_angle_beta   89.99008573
_cell_angle_gamma   89.91713045
_symmetry_Int_Tables_number   1
_chemical_formula_structural   HfZrTaTiMo
_chemical_formula_sum   'Hf40 Zr40 Ta40 Ti40 Mo40'
_cell_volume   3892.66577527
_cell_formula_units_Z   40
loop_
 _symmetry_equiv_pos_site_id
 _symmetry_equiv_pos_as_xyz
  1  'x, y, z'
loop_
 _atom_site_type_symbol
 _atom_site_label
 _atom_site_symmetry_multiplicity
 _atom_site_fract_x
 _atom_site_fract_y
 _atom_site_fract_z
 _atom_site_occupancy
  Hf  Hf0  1  0.39526166  0.18876630  0.25144564  1
  Hf  Hf1  1  0.48670273  0.90528218  0.62850553  1
  Hf  Hf2  1  0.00328637  0.39433664  -0.02560998  1
  Hf  Hf3  1  0.39254338  0.20910320  0.74763778  1
  Hf  Hf4  1  0.18945662  0.61275055  0.51609229  1
  Hf  Hf5  1  0.49764333  0.09799638  0.87215408  1
  Hf  Hf6  1  0.30709943  0.90696125  0.36194672  1
  Hf  Hf7  1  0.89246414  0.89369291  0.37156486  1
  Hf  Hf8  1  0.21355975  0.60786071  0.74561984  1
  Hf  Hf9  1  0.39835456  0.40701242  0.25639691  1
  Hf  Hf10  1  0.50863134  0.88733289  0.88165897  1
  Hf  Hf11  1  0.40761637  0.40838115  0.52165086  1
  Hf  Hf12  1  0.09595171  0.28720234  0.63190201  1
  Hf  Hf13  1  0.68824157  0.50097806  0.11773123  1
  Hf  Hf14  1  0.29641674  0.49971712  0.11444560  1
  Hf  Hf15  1  0.89805541  0.49539191  0.11696992  1
  Hf  Hf16  1  0.20328175  0.39770438  0.52552561  1
  Hf  Hf17  1  0.61443218  0.59499517  0.53125641  1
  Hf  Hf18  1  0.79203746  0.40137091  -0.01422066  1
  Hf  Hf19  1  0.50114964  0.49831488  0.85018063  1
  Hf  Hf20  1  0.00461549  0.19422595  0.48751267  1
  Hf  Hf21  1  0.49551958  0.50668490  0.12300152  1
  Hf  Hf22  1  0.52052419  0.90234561  0.11808545  1
  Hf  Hf23  1  0.00523292  0.00054835  0.48873351  1
  Hf  Hf24  1  0.11643609  0.89578004  0.62690841  1
  Hf  Hf25  1  -0.00771516  0.59588609  -0.03165311  1
  Hf  Hf26  1  0.20612067  0.00347930  0.22735007  1
  Hf  Hf27  1  0.89302679  0.30704270  0.38297152  1
  Hf  Hf28  1  0.39725650  0.61248629  0.25391745  1
  Hf  Hf29  1  0.70326585  0.90060857  0.62490377  1
  Hf  Hf30  1  0.90947537  0.28756716  0.10934423  1
  Hf  Hf31  1  0.10526560  0.09378180  0.63293797  1
  Hf  Hf32  1  0.20754002  0.19621783  0.00055176  1
  Hf  Hf33  1  0.31234019  0.50230539  0.86808913  1
  Hf  Hf34  1  0.00384544  0.80775875  0.23614999  1
  Hf  Hf35  1  -0.01993612  0.60391203  0.50716577  1
  Hf  Hf36  1  0.51068935  0.90455278  0.37066398  1
  Hf  Hf37  1  0.70958833  0.09006255  0.89188003  1
  Hf  Hf38  1  0.08556018  0.50161003  0.64214343  1
  Hf  Hf39  1  0.69075911  0.08576059  0.37158489  1
  Zr  Zr40  1  0.30152357  0.90009425  0.89095612  1
  Zr  Zr41  1  0.89445800  0.30680059  0.62830452  1
  Zr  Zr42  1  0.10016240  0.69796086  0.10878542  1
  Zr  Zr43  1  0.80572798  0.18150797  0.25703162  1
  Zr  Zr44  1  0.11326001  0.90005486  0.36693536  1
  Zr  Zr45  1  0.31679106  0.69902410  0.10259309  1
  Zr  Zr46  1  0.80500426  0.77932529  0.50849852  1
  Zr  Zr47  1  0.51096336  0.30682195  0.13714059  1
  Zr  Zr48  1  0.70227388  0.28586949  0.12177617  1
  Zr  Zr49  1  0.51158477  0.30204423  0.37213129  1
  Zr  Zr50  1  0.10252440  0.31212981  0.11860148  1
  Zr  Zr51  1  0.39640899  0.00860334  0.00850478  1
  Zr  Zr52  1  0.00153026  -0.00382037  0.76599189  1
  Zr  Zr53  1  0.30134366  0.29694319  0.38617588  1
  Zr  Zr54  1  0.08277015  0.11176322  0.11665012  1
  Zr  Zr55  1  0.80389034  0.00407154  0.50254167  1
  Zr  Zr56  1  0.70273057  0.68679387  0.38273028  1
  Zr  Zr57  1  0.29407242  0.50837273  0.39042178  1
  Zr  Zr58  1  0.19540407  0.20412830  0.24833606  1
  Zr  Zr59  1  -0.00967571  0.38864246  0.77257917  1
  Zr  Zr60  1  0.87068317  0.09048897  0.10265167  1
  Zr  Zr61  1  0.38767997  0.80427701  0.74464931  1
  Zr  Zr62  1  0.89352786  0.51234966  0.37598284  1
  Zr  Zr63  1  0.90390033  0.10475152  0.62829627  1
  Zr  Zr64  1  -0.01119778  0.01311309  0.25016959  1
  Zr  Zr65  1  0.40382874  0.01929731  0.48762922  1
  Zr  Zr66  1  0.79975118  0.39690303  0.24565195  1
  Zr  Zr67  1  0.88326582  0.70264258  0.11230897  1
  Zr  Zr68  1  0.01020158  0.79492405  0.50094048  1
  Zr  Zr69  1  0.50244709  0.09742992  0.63593160  1
  Zr  Zr70  1  0.58842470  0.60677772  -0.01434791  1
  Zr  Zr71  1  0.79117352  0.61098305  -0.02533684  1
  Zr  Zr72  1  0.09621540  0.50071203  0.11472427  1
  Zr  Zr73  1  0.59433844  0.19334017  0.50238827  1
  Zr  Zr74  1  0.61481458  0.19784972  0.74919562  1
  Zr  Zr75  1  0.10259552  0.31388543  0.38324483  1
  Zr  Zr76  1  -0.00784714  0.60191426  0.25044477  1
  Zr  Zr77  1  0.50504128  0.51115234  0.38678540  1
  Zr  Zr78  1  -0.00645996  -0.01167817  -0.00184319  1
  Zr  Zr79  1  0.29724480  0.71017715  0.38413259  1
  Ta  Ta80  1  0.69560496  0.88659970  0.37976253  1
  Ta  Ta81  1  0.19959186  0.41277169  0.25225222  1
  Ta  Ta82  1  0.60633694  -0.00982596  0.75387554  1
  Ta  Ta83  1  0.29899087  0.09226187  0.63447063  1
  Ta  Ta84  1  0.88570327  0.50463573  0.64796586  1
  Ta  Ta85  1  0.69379399  0.49007120  0.37872228  1
  Ta  Ta86  1  -0.01062770  0.79794841  -0.01337519  1
  Ta  Ta87  1  0.30581281  0.30482894  0.87221445  1
  Ta  Ta88  1  0.58990998  0.20605355  -0.00453421  1
  Ta  Ta89  1  0.79004291  0.20577470  0.49873148  1
  Ta  Ta90  1  0.09710108  0.69880960  0.37014276  1
  Ta  Ta91  1  0.20088482  0.59498887  -0.01727982  1
  Ta  Ta92  1  0.61220051  0.79845391  0.24485372  1
  Ta  Ta93  1  0.39420465  0.80975683  0.50624768  1
  Ta  Ta94  1  -0.00307525  0.60425673  0.77034890  1
  Ta  Ta95  1  0.61118400  0.39559816  0.52284946  1
  Ta  Ta96  1  0.80395097  0.20006811  0.75689398  1
  Ta  Ta97  1  0.79385693  0.41269458  0.50922197  1
  Ta  Ta98  1  0.91089892  0.89525356  0.63312047  1
  Ta  Ta99  1  0.31169954  0.70211562  0.88744097  1
  Ta  Ta100  1  0.20977149  0.39100572  0.74159807  1
  Ta  Ta101  1  0.89865742  0.69820999  0.64948056  1
  Ta  Ta102  1  0.11045933  0.70672234  0.87679741  1
  Ta  Ta103  1  0.78966710  0.60299371  0.76443284  1
  Ta  Ta104  1  0.50243181  0.30165664  0.63065309  1
  Ta  Ta105  1  0.20927932  0.79590012  0.23195026  1
  Ta  Ta106  1  0.29615770  0.10344680  0.87064747  1
  Ta  Ta107  1  0.20591836  0.01084076  0.49382957  1
  Ta  Ta108  1  0.79750063  0.00747924  0.74725314  1
  Ta  Ta109  1  0.10525064  0.89813862  0.88379931  1
  Ta  Ta110  1  0.40499039  0.61215040  0.52918104  1
  Ta  Ta111  1  0.59945422  0.78953402  0.73719205  1
  Ta  Ta112  1  0.19777669  0.60363829  0.25052475  1
  Ta  Ta113  1  0.41270504  0.80145438  0.24456109  1
  Ta  Ta114  1  0.50282786  0.70969205  0.38594395  1
  Ta  Ta115  1  0.78252350  0.60156011  0.24441516  1
  Ta  Ta116  1  0.60323775  -0.00534720  0.50352578  1
  Ta  Ta117  1  0.30712297  0.30371678  0.12112348  1
  Ta  Ta118  1  0.80094787  0.79030684  0.24998839  1
  Ta  Ta119  1  0.41516757  0.39703618  -0.00589381  1
  Ti  Ti120  1  0.19766239  -0.00092086  0.01821269  1
  Ti  Ti121  1  0.19635955  0.80396066  0.75983558  1
  Ti  Ti122  1  0.39871299  0.20850534  -0.00158699  1
  Ti  Ti123  1  0.59807873  0.17911807  0.25035824  1
  Ti  Ti124  1  0.69560918  0.30238311  0.37125113  1
  Ti  Ti125  1  0.09901072  0.50657881  0.38023559  1
  Ti  Ti126  1  0.39320649  0.41003316  0.72645753  1
  Ti  Ti127  1  0.79870342  0.80813007  0.75031374  1
  Ti  Ti128  1  0.19809922  0.19589331  0.75660043  1
  Ti  Ti129  1  0.67947663  0.07738481  0.11012259  1
  Ti  Ti130  1  -0.00004679  0.80292706  0.76675852  1
  Ti  Ti131  1  0.21094975  0.39687645  -0.01122600  1
  Ti  Ti132  1  0.11476434  0.49413177  0.86196940  1
  Ti  Ti133  1  0.41143035  0.00265222  0.24083087  1
  Ti  Ti134  1  0.68889159  0.29809784  0.88054462  1
  Ti  Ti135  1  0.08932678  0.70603359  0.64060564  1
  Ti  Ti136  1  0.49846651  0.10530429  0.11939425  1
  Ti  Ti137  1  0.19737932  0.80602762  0.00671509  1
  Ti  Ti138  1  0.68930336  0.49290721  0.85983807  1
  Ti  Ti139  1  0.61018425  0.39821100  0.73145553  1
  Ti  Ti140  1  0.11264605  0.28893688  0.87357473  1
  Ti  Ti141  1  0.63051374  0.81037420  0.00183123  1
  Ti  Ti142  1  0.21382314  -0.00602662  0.75831003  1
  Ti  Ti143  1  0.28853272  0.72616537  0.61941856  1
  Ti  Ti144  1  0.10248102  0.09449576  0.88441735  1
  Ti  Ti145  1  -0.00338486  0.18913131  0.77255751  1
  Ti  Ti146  1  0.00464609  0.40091815  0.25210222  1
  Ti  Ti147  1  0.38826844  0.20451269  0.51007880  1
  Ti  Ti148  1  0.78371078  -0.01817736  0.24329262  1
  Ti  Ti149  1  0.88538907  0.27637605  0.88783076  1
  Ti  Ti150  1  0.51132884  0.70451991  0.11743381  1
  Ti  Ti151  1  -0.00533869  0.40841551  0.50799984  1
  Ti  Ti152  1  0.31325561  0.89354485  0.12018212  1
  Ti  Ti153  1  0.49964668  0.30872319  0.86427202  1
  Ti  Ti154  1  0.69159745  0.71767685  0.86323015  1
  Ti  Ti155  1  0.59454135  0.79362011  0.51517496  1
  Ti  Ti156  1  0.49351364  0.69160041  0.86010571  1
  Ti  Ti157  1  -0.00042407  0.20471107  0.26529888  1
  Ti  Ti158  1  0.87889260  0.90325506  0.87626490  1
  Ti  Ti159  1  0.59597238  0.60483608  0.25099884  1
  Mo  Mo160  1  0.29325161  0.91457985  0.62308232  1
  Mo  Mo161  1  0.89726163  0.71117279  0.85701079  1
  Mo  Mo162  1  0.42273614  0.78856415  -0.00293335  1
  Mo  Mo163  1  0.70989509  0.69824296  0.63993212  1
  Mo  Mo164  1  0.29661422  0.50970840  0.62897059  1
  Mo  Mo165  1  0.68913336  0.69986660  0.12622799  1
  Mo  Mo166  1  0.30751806  0.10653628  0.11995554  1
  Mo  Mo167  1  0.79130013  0.38874276  0.76879904  1
  Mo  Mo168  1  0.89581818  0.89366861  0.12443784  1
  Mo  Mo169  1  0.11163940  0.10416901  0.37182797  1
  Mo  Mo170  1  0.20759273  0.18898948  0.50601184  1
  Mo  Mo171  1  0.20442388  0.80785740  0.49866220  1
  Mo  Mo172  1  0.90078340  0.69987854  0.36880068  1
  Mo  Mo173  1  0.29255903  0.10019101  0.37274477  1
  Mo  Mo174  1  0.49868101  0.70881892  0.62358262  1
  Mo  Mo175  1  0.80336666  0.59254016  0.51334699  1
  Mo  Mo176  1  0.10437710  0.89469267  0.11606802  1
  Mo  Mo177  1  0.78805593  0.19625523  -0.00230625  1
  Mo  Mo178  1  0.59428170  0.39609906  -0.01348411  1
  Mo  Mo179  1  0.70764780  0.09874294  0.62693817  1
  Mo  Mo180  1  0.49729988  0.09763127  0.36914130  1
  Mo  Mo181  1  0.40384940  0.59412769  -0.01060950  1
  Mo  Mo182  1  0.80267072  0.80049657  -0.01182117  1
  Mo  Mo183  1  0.40198570  0.60963285  0.72808368  1
  Mo  Mo184  1  0.89812223  0.09596743  0.88508429  1
  Mo  Mo185  1  0.71095777  0.49241223  0.64435861  1
  Mo  Mo186  1  0.69655866  0.89544409  0.86120538  1
  Mo  Mo187  1  0.88866271  0.49391331  0.85997391  1
  Mo  Mo188  1  0.89694926  0.10265231  0.37267908  1
  Mo  Mo189  1  0.60108156  0.60323501  0.73950732  1
  Mo  Mo190  1  0.39715162  0.00407170  0.76055504  1
  Mo  Mo191  1  0.60048814  -0.00238826  0.24618908  1
  Mo  Mo192  1  0.29868666  0.29147280  0.62959972  1
  Mo  Mo193  1  0.78520511  -0.02645511  0.00132056  1
  Mo  Mo194  1  0.71578347  0.89206210  0.12539872  1
  Mo  Mo195  1  0.50416210  0.50291024  0.64187923  1
  Mo  Mo196  1  0.61020388  0.41496068  0.25632881  1
  Mo  Mo197  1  0.59721971  0.00002727  -0.00319003  1
  Mo  Mo198  1  0.70755863  0.29183683  0.62500544  1
  Mo  Mo199  1  -0.00060282  0.19538499  -0.02173820  1
