# generated using pymatgen
data_HfZrTaTiMo
_symmetry_space_group_name_H-M   'P 1'
_cell_length_a   15.20487601
_cell_length_b   15.21811002
_cell_length_c   16.84927447
_cell_angle_alpha   90.04409183
_cell_angle_beta   90.07281192
_cell_angle_gamma   90.09873478
_symmetry_Int_Tables_number   1
_chemical_formula_structural   HfZrTaTiMo
_chemical_formula_sum   'Hf40 Zr40 Ta40 Ti40 Mo40'
_cell_volume   3898.73469284
_cell_formula_units_Z   40
loop_
 _symmetry_equiv_pos_site_id
 _symmetry_equiv_pos_as_xyz
  1  'x, y, z'
loop_
 _atom_site_type_symbol
 _atom_site_label
 _atom_site_symmetry_multiplicity
 _atom_site_fract_x
 _atom_site_fract_y
 _atom_site_fract_z
 _atom_site_occupancy
  Hf  Hf0  1  -0.00843048  0.18994359  0.76447451  1
  Hf  Hf1  1  0.32049331  0.49580856  0.36076862  1
  Hf  Hf2  1  0.90291029  0.89636574  0.13885771  1
  Hf  Hf3  1  0.80222180  0.00722974  -0.01121808  1
  Hf  Hf4  1  0.80072518  0.61077374  0.73112541  1
  Hf  Hf5  1  0.31376652  0.29245944  0.87223941  1
  Hf  Hf6  1  0.51324073  0.89895719  0.39400399  1
  Hf  Hf7  1  0.89616488  0.29708602  0.63233518  1
  Hf  Hf8  1  0.30129825  0.70103699  0.88175707  1
  Hf  Hf9  1  0.09623824  0.09249215  0.63233033  1
  Hf  Hf10  1  0.20551269  0.39425854  0.24659928  1
  Hf  Hf11  1  0.80710616  0.79728799  0.00376534  1
  Hf  Hf12  1  0.70152472  0.68641303  0.87404063  1
  Hf  Hf13  1  0.38547577  -0.00207062  0.25890523  1
  Hf  Hf14  1  0.39419067  0.60247932  0.75382317  1
  Hf  Hf15  1  0.00509950  0.00289874  0.48750003  1
  Hf  Hf16  1  0.21027724  0.41440749  -0.00702515  1
  Hf  Hf17  1  0.20011212  0.18318439  0.23904770  1
  Hf  Hf18  1  0.70879063  0.72457682  0.38637377  1
  Hf  Hf19  1  0.80514187  0.20238420  0.01173649  1
  Hf  Hf20  1  0.60676047  0.00362475  0.74062131  1
  Hf  Hf21  1  0.79737007  0.39690898  0.49906387  1
  Hf  Hf22  1  0.20584534  0.19481668  0.00258723  1
  Hf  Hf23  1  0.19216926  0.61194208  0.00862418  1
  Hf  Hf24  1  0.10047277  0.90077322  0.36708340  1
  Hf  Hf25  1  0.27496049  0.09108869  0.38428261  1
  Hf  Hf26  1  0.80146473  0.60853337  0.25571514  1
  Hf  Hf27  1  0.60037469  0.59666358  0.49679132  1
  Hf  Hf28  1  0.49963316  0.30974444  0.62195771  1
  Hf  Hf29  1  0.28702346  0.69283230  0.36898596  1
  Hf  Hf30  1  0.89726266  0.30227154  0.87779914  1
  Hf  Hf31  1  0.79278709  0.40733779  0.74844254  1
  Hf  Hf32  1  0.09814860  0.30066322  0.63573469  1
  Hf  Hf33  1  0.61661400  0.81049393  0.25185566  1
  Hf  Hf34  1  0.50243030  0.89446513  0.61207484  1
  Hf  Hf35  1  0.00992130  0.78860745  0.01301455  1
  Hf  Hf36  1  0.00607382  0.40901861  0.75795241  1
  Hf  Hf37  1  0.40247865  0.79938068  0.25210890  1
  Hf  Hf38  1  0.20866333  0.40714195  0.49352279  1
  Hf  Hf39  1  0.90618166  0.49768630  0.36907796  1
  Zr  Zr40  1  0.08979014  0.08857202  0.12276292  1
  Zr  Zr41  1  0.00291583  -0.01203614  -0.00963254  1
  Zr  Zr42  1  0.59148696  0.40537392  0.24862609  1
  Zr  Zr43  1  0.69391400  0.49484930  0.61986907  1
  Zr  Zr44  1  0.69372966  0.30942269  0.87201377  1
  Zr  Zr45  1  0.59949006  0.00029076  -0.01211442  1
  Zr  Zr46  1  0.79528244  0.19118556  0.49570124  1
  Zr  Zr47  1  0.61712931  0.01004842  0.51943655  1
  Zr  Zr48  1  0.90876840  0.90454100  0.62328726  1
  Zr  Zr49  1  0.59942596  0.60070315  0.00172999  1
  Zr  Zr50  1  0.00666243  0.39848667  0.49661591  1
  Zr  Zr51  1  0.09315524  0.51647402  0.13646325  1
  Zr  Zr52  1  0.09855437  0.29530520  0.36862828  1
  Zr  Zr53  1  0.49717646  0.11413225  0.37962063  1
  Zr  Zr54  1  0.50064180  0.69498314  0.12657510  1
  Zr  Zr55  1  0.30473537  0.09007979  0.87545960  1
  Zr  Zr56  1  0.39442469  0.20953563  0.24941022  1
  Zr  Zr57  1  0.49673135  0.11088724  0.86903598  1
  Zr  Zr58  1  0.49054056  0.49749089  0.62571566  1
  Zr  Zr59  1  0.29775446  0.30620336  0.63986519  1
  Zr  Zr60  1  0.70158730  0.89515456  0.86969558  1
  Zr  Zr61  1  0.48532924  0.10417036  0.11487342  1
  Zr  Zr62  1  0.69446035  0.29503651  0.36803905  1
  Zr  Zr63  1  0.09645036  0.30195161  0.11431568  1
  Zr  Zr64  1  0.39983048  0.01388114  0.50927758  1
  Zr  Zr65  1  0.79539523  0.19616025  0.24001436  1
  Zr  Zr66  1  0.60061795  0.20436806  -0.00241770  1
  Zr  Zr67  1  0.48940879  0.32492356  0.39356835  1
  Zr  Zr68  1  0.49440962  0.90392349  0.11811466  1
  Zr  Zr69  1  0.09522170  0.70492360  0.87192395  1
  Zr  Zr70  1  0.60671818  0.41068023  0.00432506  1
  Zr  Zr71  1  0.49342131  0.69657362  0.38271795  1
  Zr  Zr72  1  0.19014547  0.19459658  0.50554806  1
  Zr  Zr73  1  0.39774837  0.80340514  0.74644911  1
  Zr  Zr74  1  0.02091893  0.60501249  0.48766359  1
  Zr  Zr75  1  0.20228428  0.79956609  0.74305928  1
  Zr  Zr76  1  0.80925846  0.60941259  0.50203045  1
  Zr  Zr77  1  0.89857492  0.70015538  0.87042462  1
  Zr  Zr78  1  0.20789901  0.82097384  0.01478373  1
  Zr  Zr79  1  0.60106508  0.78880368  0.74049054  1
  Ta  Ta80  1  0.80440735  -0.00417942  0.49406004  1
  Ta  Ta81  1  0.10403231  0.29811740  0.88012325  1
  Ta  Ta82  1  0.00902199  -0.00995738  0.76149567  1
  Ta  Ta83  1  0.78781812  -0.01478594  0.25548546  1
  Ta  Ta84  1  -0.00650682  0.39901220  0.24449867  1
  Ta  Ta85  1  0.20412345  0.80265253  0.24350114  1
  Ta  Ta86  1  0.70179941  0.90306253  0.12004298  1
  Ta  Ta87  1  0.39863134  0.00170557  0.73388624  1
  Ta  Ta88  1  0.49045559  0.69740552  0.61140263  1
  Ta  Ta89  1  -0.01162431  0.59062012  0.00438736  1
  Ta  Ta90  1  0.90044192  0.09312830  0.36165991  1
  Ta  Ta91  1  0.80066859  0.80673138  0.73347362  1
  Ta  Ta92  1  0.18534966  0.78637833  0.49831319  1
  Ta  Ta93  1  0.10229357  0.69524709  0.62614339  1
  Ta  Ta94  1  0.69522634  0.09030407  0.37029972  1
  Ta  Ta95  1  0.81091285  0.01229184  0.75998339  1
  Ta  Ta96  1  0.80081772  0.59398972  0.01327163  1
  Ta  Ta97  1  0.91341717  0.50313195  0.62243538  1
  Ta  Ta98  1  0.59875982  0.20315547  0.51420297  1
  Ta  Ta99  1  0.89596798  0.09933963  0.62777914  1
  Ta  Ta100  1  0.50759217  0.49580283  0.86817079  1
  Ta  Ta101  1  0.70787033  0.70825292  0.12878005  1
  Ta  Ta102  1  0.10596849  0.09093255  0.87567203  1
  Ta  Ta103  1  0.69695375  0.30232039  0.12866796  1
  Ta  Ta104  1  0.39303393  0.58551398  -0.00614002  1
  Ta  Ta105  1  -0.00514966  0.19969682  0.24613904  1
  Ta  Ta106  1  0.59494296  0.00426238  0.25004813  1
  Ta  Ta107  1  0.59833071  0.20549001  0.74261496  1
  Ta  Ta108  1  0.49579353  0.30631897  0.12130412  1
  Ta  Ta109  1  0.48673838  0.49870907  0.12838966  1
  Ta  Ta110  1  0.10130503  0.89389588  0.61457695  1
  Ta  Ta111  1  0.80775616  0.40792951  0.01877344  1
  Ta  Ta112  1  0.80360733  0.40128788  0.23596576  1
  Ta  Ta113  1  0.88781983  0.50544059  0.87825816  1
  Ta  Ta114  1  0.19574176  0.59318015  0.75113805  1
  Ta  Ta115  1  0.60167068  0.79961487  -0.00193369  1
  Ta  Ta116  1  -0.00977070  0.19606412  0.49504428  1
  Ta  Ta117  1  0.29948611  0.89077241  0.39558392  1
  Ta  Ta118  1  0.29432648  0.89147707  0.60446910  1
  Ta  Ta119  1  0.69415817  0.50006360  0.37339228  1
  Ti  Ti120  1  0.00009861  0.60115868  0.74552748  1
  Ti  Ti121  1  0.59369500  0.19810049  0.24344573  1
  Ti  Ti122  1  0.88873731  0.89080238  0.37024194  1
  Ti  Ti123  1  0.10581636  0.50001684  0.62966153  1
  Ti  Ti124  1  0.40854893  0.39490921  -0.01059459  1
  Ti  Ti125  1  0.91056626  0.68561226  0.13636293  1
  Ti  Ti126  1  0.89724242  0.29592918  0.36827182  1
  Ti  Ti127  1  0.39234492  0.20930656  0.51128593  1
  Ti  Ti128  1  0.91017810  0.70866157  0.61369130  1
  Ti  Ti129  1  0.59361177  0.60542961  0.25800207  1
  Ti  Ti130  1  0.00217905  0.79845403  0.74570599  1
  Ti  Ti131  1  0.20173181  0.19412830  0.75675503  1
  Ti  Ti132  1  0.90899885  0.89272617  0.86708169  1
  Ti  Ti133  1  0.29590285  0.90505622  0.87672428  1
  Ti  Ti134  1  0.89690082  0.09023068  0.13555049  1
  Ti  Ti135  1  0.48731818  0.89935150  0.87686150  1
  Ti  Ti136  1  -0.00546012  0.40139520  0.00210600  1
  Ti  Ti137  1  0.09423608  0.50475721  0.88054295  1
  Ti  Ti138  1  0.30089290  0.29508180  0.37836207  1
  Ti  Ti139  1  0.40610115  0.39915148  0.76255426  1
  Ti  Ti140  1  0.29347209  0.06817177  0.11033068  1
  Ti  Ti141  1  0.69694453  0.51091012  0.13752277  1
  Ti  Ti142  1  0.29660515  0.09877056  0.62909918  1
  Ti  Ti143  1  0.69366864  0.09258603  0.12908919  1
  Ti  Ti144  1  0.20448797  0.59640250  0.49953024  1
  Ti  Ti145  1  0.31255191  0.30071774  0.11354704  1
  Ti  Ti146  1  0.20497090  0.41007430  0.76818815  1
  Ti  Ti147  1  0.50040373  0.70063781  0.87972212  1
  Ti  Ti148  1  0.10653173  0.90648586  0.14339317  1
  Ti  Ti149  1  0.29628181  0.50407498  0.62854327  1
  Ti  Ti150  1  0.40271576  0.79770733  0.00330815  1
  Ti  Ti151  1  0.39046658  0.59270988  0.50158395  1
  Ti  Ti152  1  0.60132004  0.59213730  0.74696082  1
  Ti  Ti153  1  0.91210378  0.71111940  0.37742692  1
  Ti  Ti154  1  0.30023473  0.69287498  0.13268008  1
  Ti  Ti155  1  0.30617260  0.50126487  0.13462542  1
  Ti  Ti156  1  0.20320476  -0.00987517  0.74589979  1
  Ti  Ti157  1  0.00190235  0.78976243  0.24985139  1
  Ti  Ti158  1  -0.00360742  0.19474581  -0.00751897  1
  Ti  Ti159  1  0.69729934  0.29637228  0.63033743  1
  Mo  Mo160  1  0.60792132  0.79912123  0.51529794  1
  Mo  Mo161  1  0.90469841  0.29807296  0.12122067  1
  Mo  Mo162  1  0.71429140  0.90613863  0.63115420  1
  Mo  Mo163  1  0.49597933  0.11119837  0.63368175  1
  Mo  Mo164  1  0.10564301  0.89864128  0.86820895  1
  Mo  Mo165  1  0.10089331  0.70101682  0.36307833  1
  Mo  Mo166  1  0.69658785  0.71046808  0.61504811  1
  Mo  Mo167  1  0.70428796  0.90863740  0.37957149  1
  Mo  Mo168  1  0.39943372  0.19422925  0.73829172  1
  Mo  Mo169  1  0.29533099  0.69065195  0.61594534  1
  Mo  Mo170  1  0.40362291  0.59631838  0.24358240  1
  Mo  Mo171  1  0.80792450  0.79881917  0.24543789  1
  Mo  Mo172  1  -0.00508592  -0.00041827  0.25878464  1
  Mo  Mo173  1  0.39784263  0.39668764  0.23998498  1
  Mo  Mo174  1  0.19593488  -0.00748677  0.50726028  1
  Mo  Mo175  1  0.60516073  0.39763258  0.49480044  1
  Mo  Mo176  1  0.80408001  0.81147637  0.51129680  1
  Mo  Mo177  1  0.00414078  0.60350943  0.26503276  1
  Mo  Mo178  1  0.70751023  0.50699261  0.87396205  1
  Mo  Mo179  1  0.79166110  0.19586130  0.75058254  1
  Mo  Mo180  1  0.19635364  -0.00305039  -0.00384084  1
  Mo  Mo181  1  0.39141222  0.78879650  0.50274069  1
  Mo  Mo182  1  0.08722499  0.10059457  0.36417875  1
  Mo  Mo183  1  0.70929071  0.11016935  0.86106587  1
  Mo  Mo184  1  0.71102292  0.10856428  0.63396886  1
  Mo  Mo185  1  0.90314418  0.10046001  0.87583672  1
  Mo  Mo186  1  0.89702425  0.50000570  0.13439649  1
  Mo  Mo187  1  0.20229854  -0.00928513  0.25118085  1
  Mo  Mo188  1  0.59528295  0.40280573  0.75499451  1
  Mo  Mo189  1  0.38981165  -0.01399135  -0.00776154  1
  Mo  Mo190  1  0.38915789  0.40565474  0.50480068  1
  Mo  Mo191  1  0.30404220  0.89608643  0.12947246  1
  Mo  Mo192  1  0.11390091  0.51221594  0.35283300  1
  Mo  Mo193  1  -0.00183657  0.79807585  0.49386259  1
  Mo  Mo194  1  0.29940445  0.50101264  0.87425346  1
  Mo  Mo195  1  0.50401946  0.50763527  0.37576286  1
  Mo  Mo196  1  0.49774260  0.30423257  0.86692332  1
  Mo  Mo197  1  0.09762406  0.70937924  0.13593115  1
  Mo  Mo198  1  0.39933329  0.20233470  0.00608684  1
  Mo  Mo199  1  0.20277431  0.60627845  0.24076420  1
