# generated using pymatgen
data_HfZrTaTiMo
_symmetry_space_group_name_H-M   'P 1'
_cell_length_a   15.20577935
_cell_length_b   15.22173533
_cell_length_c   16.84655820
_cell_angle_alpha   89.95891518
_cell_angle_beta   89.99903150
_cell_angle_gamma   89.83187813
_symmetry_Int_Tables_number   1
_chemical_formula_structural   HfZrTaTiMo
_chemical_formula_sum   'Hf40 Zr40 Ta40 Ti40 Mo40'
_cell_volume   3899.25875210
_cell_formula_units_Z   40
loop_
 _symmetry_equiv_pos_site_id
 _symmetry_equiv_pos_as_xyz
  1  'x, y, z'
loop_
 _atom_site_type_symbol
 _atom_site_label
 _atom_site_symmetry_multiplicity
 _atom_site_fract_x
 _atom_site_fract_y
 _atom_site_fract_z
 _atom_site_occupancy
  Hf  Hf0  1  0.03294506  0.39565060  0.48492354  1
  Hf  Hf1  1  0.09763701  0.09184904  0.12682022  1
  Hf  Hf2  1  0.90709409  0.48541209  0.13547387  1
  Hf  Hf3  1  0.11537393  0.49944334  0.13679236  1
  Hf  Hf4  1  0.09405437  0.89577283  0.88987214  1
  Hf  Hf5  1  0.08242869  0.69832133  0.37129996  1
  Hf  Hf6  1  0.49896574  0.10685051  0.87964729  1
  Hf  Hf7  1  0.09975180  0.90479902  0.62953433  1
  Hf  Hf8  1  0.88504563  0.10419775  0.14173195  1
  Hf  Hf9  1  0.09407084  0.30154055  0.85902829  1
  Hf  Hf10  1  0.42043284  0.41106735  0.75192002  1
  Hf  Hf11  1  0.28789989  0.30268212  0.37317190  1
  Hf  Hf12  1  0.82553032  0.38408134  0.74193892  1
  Hf  Hf13  1  0.41088566  0.61538140  0.49557402  1
  Hf  Hf14  1  0.20506691  0.60271539  0.25496265  1
  Hf  Hf15  1  0.39760072  0.79825770  0.74889951  1
  Hf  Hf16  1  0.40197794  0.19340964  0.23167655  1
  Hf  Hf17  1  0.59930265  0.78539312  0.74501092  1
  Hf  Hf18  1  0.61715549  0.60250421  0.24087803  1
  Hf  Hf19  1  0.20391361  0.19299749  0.24272597  1
  Hf  Hf20  1  0.61134341  0.38821186  0.75446950  1
  Hf  Hf21  1  0.71878860  0.50092589  0.38696684  1
  Hf  Hf22  1  0.81062383  0.60646077  -0.00754287  1
  Hf  Hf23  1  0.81555366  0.37497886  -0.00567510  1
  Hf  Hf24  1  0.58018328  0.00869107  0.26922580  1
  Hf  Hf25  1  0.72522049  0.28890683  0.12596014  1
  Hf  Hf26  1  0.89274376  0.30687939  0.38660719  1
  Hf  Hf27  1  -0.02441128  0.20828781  0.00817377  1
  Hf  Hf28  1  0.51005563  0.49826881  0.90244970  1
  Hf  Hf29  1  0.50199797  0.90540043  0.87565538  1
  Hf  Hf30  1  0.69777084  0.89043045  0.39212877  1
  Hf  Hf31  1  0.51216971  0.50148873  0.36484979  1
  Hf  Hf32  1  0.60715649  0.20121022  0.25124264  1
  Hf  Hf33  1  0.59348205  0.80503845  0.24949001  1
  Hf  Hf34  1  0.29183340  0.11243643  0.87406169  1
  Hf  Hf35  1  0.30219035  0.90929556  0.62731207  1
  Hf  Hf36  1  0.30453666  0.50000691  0.37312250  1
  Hf  Hf37  1  0.30477362  0.72094330  0.37563074  1
  Hf  Hf38  1  0.00602618  0.18993866  0.50131625  1
  Hf  Hf39  1  0.91712980  0.49127038  0.86520678  1
  Zr  Zr40  1  0.01601260  0.39396228  0.00455954  1
  Zr  Zr41  1  0.90308980  0.09181054  0.37712541  1
  Zr  Zr42  1  0.28542531  0.11258941  0.63916665  1
  Zr  Zr43  1  0.79056030  0.79638307  0.25702660  1
  Zr  Zr44  1  0.31530759  0.50979899  0.61760966  1
  Zr  Zr45  1  0.41233442  0.39980716  0.49871537  1
  Zr  Zr46  1  0.59344501  0.19421430  0.49780193  1
  Zr  Zr47  1  0.70509704  0.49918444  0.61724609  1
  Zr  Zr48  1  0.77918637  0.00180874  -0.00235952  1
  Zr  Zr49  1  0.62452176  0.20033697  -0.00686335  1
  Zr  Zr50  1  0.57622003  -0.00787862  0.50338210  1
  Zr  Zr51  1  -0.03225969  0.79403775  0.00095683  1
  Zr  Zr52  1  0.18719791  0.60209358  0.49378399  1
  Zr  Zr53  1  0.29636548  0.69798909  0.89294174  1
  Zr  Zr54  1  0.18840442  0.20169303  0.00767582  1
  Zr  Zr55  1  0.89656711  0.91470919  0.85630809  1
  Zr  Zr56  1  0.21356299  0.40270238  0.75641341  1
  Zr  Zr57  1  0.08898194  0.89978398  0.10833504  1
  Zr  Zr58  1  0.88518412  0.70395707  0.62391636  1
  Zr  Zr59  1  0.49804483  0.29655036  0.36598790  1
  Zr  Zr60  1  0.51561188  0.09491691  0.10950145  1
  Zr  Zr61  1  0.72017956  0.71505952  0.11587614  1
  Zr  Zr62  1  0.70484673  0.48737705  0.88434239  1
  Zr  Zr63  1  0.21348637  0.60847211  0.74680080  1
  Zr  Zr64  1  0.90907895  0.49509308  0.60560057  1
  Zr  Zr65  1  0.61040347  0.81533666  0.00234263  1
  Zr  Zr66  1  0.07666178  0.10245764  0.86642776  1
  Zr  Zr67  1  0.90841978  0.89692335  0.38246504  1
  Zr  Zr68  1  0.29383977  0.90281666  0.88642099  1
  Zr  Zr69  1  0.31820265  0.50293323  0.89585599  1
  Zr  Zr70  1  0.39901025  0.80181595  0.01088343  1
  Zr  Zr71  1  0.00568380  0.59511275  0.00034973  1
  Zr  Zr72  1  0.18945349  -0.00284754  0.75931720  1
  Zr  Zr73  1  0.87766707  0.69655815  0.39265716  1
  Zr  Zr74  1  0.70045741  0.88297226  0.61846805  1
  Zr  Zr75  1  0.01114163  0.60215399  0.74145193  1
  Zr  Zr76  1  0.29931452  0.30578562  0.62191051  1
  Zr  Zr77  1  0.87930090  0.89613301  0.13017389  1
  Zr  Zr78  1  0.46232598  0.89718153  0.36743001  1
  Zr  Zr79  1  0.19590485  0.81952599  0.24848999  1
  Ta  Ta80  1  0.59048618  -0.00384315  0.73356161  1
  Ta  Ta81  1  0.59328912  0.59063446  0.75422201  1
  Ta  Ta82  1  0.40776208  0.21356118  0.75537883  1
  Ta  Ta83  1  0.09851355  0.29831327  0.63668583  1
  Ta  Ta84  1  0.01456030  0.40061871  0.26971774  1
  Ta  Ta85  1  0.40473624  0.60346995  0.23626859  1
  Ta  Ta86  1  0.58459432  0.78133941  0.49882551  1
  Ta  Ta87  1  0.50275746  0.70274984  0.12582491  1
  Ta  Ta88  1  0.70431486  0.29675216  0.62211855  1
  Ta  Ta89  1  0.50074336  0.69951328  0.36406060  1
  Ta  Ta90  1  0.00395766  0.79150096  0.51230989  1
  Ta  Ta91  1  0.79791176  0.20332283  0.26760288  1
  Ta  Ta92  1  0.39805673  0.19356282  0.49955691  1
  Ta  Ta93  1  0.39703389  0.40215171  0.23073002  1
  Ta  Ta94  1  0.90141111  0.90505925  0.62551625  1
  Ta  Ta95  1  0.80870492  0.18690499  0.72169158  1
  Ta  Ta96  1  0.88263361  0.11714222  0.86313340  1
  Ta  Ta97  1  0.69792500  0.10422593  0.38683284  1
  Ta  Ta98  1  0.60621285  0.60675476  0.01078629  1
  Ta  Ta99  1  0.69873165  0.89711105  0.85598215  1
  Ta  Ta100  1  0.70927959  0.49548124  0.11556564  1
  Ta  Ta101  1  0.48678044  0.90694459  0.12872660  1
  Ta  Ta102  1  0.69665368  0.08713007  0.85422410  1
  Ta  Ta103  1  0.78887615  0.60075886  0.75308445  1
  Ta  Ta104  1  0.92076751  0.51101804  0.38595153  1
  Ta  Ta105  1  0.39035463  0.21419800  0.01294103  1
  Ta  Ta106  1  0.11231960  0.49446447  0.62120962  1
  Ta  Ta107  1  0.09964965  0.70113446  0.88295949  1
  Ta  Ta108  1  0.11560252  0.08460724  0.37150506  1
  Ta  Ta109  1  0.89694832  0.70458309  0.85540228  1
  Ta  Ta110  1  0.19341958  0.81575055  0.49868797  1
  Ta  Ta111  1  0.61465649  0.39078305  0.49639525  1
  Ta  Ta112  1  0.38312269  0.00889065  0.50264760  1
  Ta  Ta113  1  0.29324851  0.71233841  0.61614433  1
  Ta  Ta114  1  0.50738128  0.29613535  0.62488685  1
  Ta  Ta115  1  0.11897658  0.50498899  0.88061493  1
  Ta  Ta116  1  0.09897085  0.69929274  0.12692591  1
  Ta  Ta117  1  0.50647353  0.50032363  0.11729361  1
  Ta  Ta118  1  0.21659953  0.39553259  0.00944728  1
  Ta  Ta119  1  0.61119136  0.40122283  0.23880770  1
  Ti  Ti120  1  0.80275115  0.00238551  0.50637484  1
  Ti  Ti121  1  0.39991220  0.81281515  0.50751653  1
  Ti  Ti122  1  0.09577713  0.30275502  0.13943236  1
  Ti  Ti123  1  0.69266822  0.68585889  0.61278022  1
  Ti  Ti124  1  0.69449327  0.09616045  0.61891601  1
  Ti  Ti125  1  0.80371346  0.39870438  0.25609262  1
  Ti  Ti126  1  0.72619877  0.27494667  0.86315124  1
  Ti  Ti127  1  0.28163483  0.91246120  0.10914571  1
  Ti  Ti128  1  0.60198956  0.19333781  0.74505299  1
  Ti  Ti129  1  0.37000816  -0.00000210  0.23923283  1
  Ti  Ti130  1  0.19357864  0.79386324  0.74974826  1
  Ti  Ti131  1  0.81013184  0.59326736  0.25308663  1
  Ti  Ti132  1  0.30920685  0.30360337  0.87790229  1
  Ti  Ti133  1  0.01637864  -0.00615458  0.50116099  1
  Ti  Ti134  1  0.26796864  0.92482510  0.38349527  1
  Ti  Ti135  1  -0.01865980  0.01250476  -0.00102731  1
  Ti  Ti136  1  0.41055837  0.60648082  0.75064997  1
  Ti  Ti137  1  0.30843437  0.10271000  0.37513343  1
  Ti  Ti138  1  0.51563851  0.50128101  0.61902158  1
  Ti  Ti139  1  0.79663564  0.20250556  0.50695566  1
  Ti  Ti140  1  0.19527709  0.20213722  0.49660551  1
  Ti  Ti141  1  0.00275865  0.80470665  0.74439176  1
  Ti  Ti142  1  0.68010063  0.92622911  0.13325053  1
  Ti  Ti143  1  -0.00556076  0.79491981  0.24858371  1
  Ti  Ti144  1  0.01039525  -0.01017268  0.25513233  1
  Ti  Ti145  1  0.00109840  0.20221859  0.26231424  1
  Ti  Ti146  1  0.50056068  0.69253522  0.88617945  1
  Ti  Ti147  1  0.48732766  0.09969839  0.63090338  1
  Ti  Ti148  1  0.29135210  0.69017348  0.11321049  1
  Ti  Ti149  1  0.38747395  0.79837826  0.23122294  1
  Ti  Ti150  1  0.90836310  0.68690734  0.13803293  1
  Ti  Ti151  1  0.08648851  0.10593056  0.64197524  1
  Ti  Ti152  1  0.50486789  0.30617695  0.89268459  1
  Ti  Ti153  1  0.78228281  0.00397153  0.26161133  1
  Ti  Ti154  1  0.49760338  0.69630320  0.62414906  1
  Ti  Ti155  1  0.79471913  -0.00181018  0.73225535  1
  Ti  Ti156  1  0.69617373  0.69691477  0.87446140  1
  Ti  Ti157  1  0.40209208  0.00547449  0.75192334  1
  Ti  Ti158  1  0.51073271  0.30608142  0.11653427  1
  Ti  Ti159  1  0.39111843  0.01130106  0.00449002  1
  Mo  Mo160  1  0.01225159  0.40695296  0.74044488  1
  Mo  Mo161  1  0.79262701  0.80489360  0.50441704  1
  Mo  Mo162  1  0.79645091  0.79818677  -0.03114932  1
  Mo  Mo163  1  0.91071438  0.29766882  0.15166561  1
  Mo  Mo164  1  0.30864656  0.50343538  0.12026162  1
  Mo  Mo165  1  0.19505525  0.00413207  -0.00721319  1
  Mo  Mo166  1  0.61064962  0.39850097  0.01714735  1
  Mo  Mo167  1  0.79689368  0.59933081  0.50144655  1
  Mo  Mo168  1  0.20060533  0.20557913  0.75403488  1
  Mo  Mo169  1  0.11099237  0.49518845  0.36396313  1
  Mo  Mo170  1  0.70616450  0.09422892  0.13785514  1
  Mo  Mo171  1  0.09416768  0.89659864  0.38144801  1
  Mo  Mo172  1  0.49161404  0.89690200  0.62770538  1
  Mo  Mo173  1  0.10457347  0.28448293  0.36721811  1
  Mo  Mo174  1  0.29370829  0.30361815  0.12988050  1
  Mo  Mo175  1  0.18645204  0.79295288  0.01022359  1
  Mo  Mo176  1  0.90458491  0.29187150  0.86305509  1
  Mo  Mo177  1  0.80801154  0.38988345  0.50252506  1
  Mo  Mo178  1  0.20587614  0.39218487  0.50269262  1
  Mo  Mo179  1  -0.00298433  0.60065145  0.25080895  1
  Mo  Mo180  1  0.48349139  0.09862842  0.37429124  1
  Mo  Mo181  1  0.69977479  0.30332996  0.37174230  1
  Mo  Mo182  1  -0.02037486  0.01463088  0.73760133  1
  Mo  Mo183  1  0.20747783  0.39597064  0.24321216  1
  Mo  Mo184  1  0.30102973  0.09297499  0.11364857  1
  Mo  Mo185  1  0.79479695  0.79304811  0.75508681  1
  Mo  Mo186  1  0.19197900  0.01755366  0.50582741  1
  Mo  Mo187  1  0.59496906  0.59573734  0.49597320  1
  Mo  Mo188  1  0.90514725  0.29600239  0.60418596  1
  Mo  Mo189  1  0.80476626  0.18548950  -0.00377426  1
  Mo  Mo190  1  -0.01451334  0.21361298  0.73282674  1
  Mo  Mo191  1  0.89802189  0.09051007  0.60882553  1
  Mo  Mo192  1  0.19812828  0.59737750  0.00817530  1
  Mo  Mo193  1  0.40750796  0.60307486  0.02142913  1
  Mo  Mo194  1  0.19828640  0.00151941  0.24695111  1
  Mo  Mo195  1  0.59301235  -0.00040127  -0.00603217  1
  Mo  Mo196  1  0.68297379  0.69164419  0.38668957  1
  Mo  Mo197  1  0.00574407  0.60095802  0.50726123  1
  Mo  Mo198  1  0.10359788  0.70677807  0.62258008  1
  Mo  Mo199  1  0.40673349  0.39279803  0.01807672  1
