# generated using pymatgen
data_HfZrTaTiMo
_symmetry_space_group_name_H-M   'P 1'
_cell_length_a   15.18662323
_cell_length_b   15.19599922
_cell_length_c   16.80806076
_cell_angle_alpha   89.94938081
_cell_angle_beta   89.98592459
_cell_angle_gamma   90.05368927
_symmetry_Int_Tables_number   1
_chemical_formula_structural   HfZrTaTiMo
_chemical_formula_sum   'Hf40 Zr40 Ta40 Ti40 Mo40'
_cell_volume   3878.89226184
_cell_formula_units_Z   40
loop_
 _symmetry_equiv_pos_site_id
 _symmetry_equiv_pos_as_xyz
  1  'x, y, z'
loop_
 _atom_site_type_symbol
 _atom_site_label
 _atom_site_symmetry_multiplicity
 _atom_site_fract_x
 _atom_site_fract_y
 _atom_site_fract_z
 _atom_site_occupancy
  Hf  Hf0  1  0.10341494  0.70076104  0.89961930  1
  Hf  Hf1  1  0.10829459  0.90031685  0.11767326  1
  Hf  Hf2  1  0.78573131  0.41589512  -0.00433421  1
  Hf  Hf3  1  0.48833254  0.31543397  0.13460181  1
  Hf  Hf4  1  0.67909848  0.51045868  0.86307334  1
  Hf  Hf5  1  0.19071992  0.78812728  0.75684959  1
  Hf  Hf6  1  0.29781994  0.89321419  0.87401918  1
  Hf  Hf7  1  0.49741342  0.50551698  0.38160097  1
  Hf  Hf8  1  0.80356523  0.20702090  0.74721020  1
  Hf  Hf9  1  0.89219387  0.69201387  0.12444062  1
  Hf  Hf10  1  0.68519774  0.90830274  0.37999605  1
  Hf  Hf11  1  0.00552775  0.79486278  0.23889670  1
  Hf  Hf12  1  0.10325079  0.89120375  0.37691511  1
  Hf  Hf13  1  0.29926647  0.09676478  0.86594764  1
  Hf  Hf14  1  0.48150502  0.90111714  0.36331632  1
  Hf  Hf15  1  0.89573383  0.91277734  0.87181598  1
  Hf  Hf16  1  0.29620246  0.90894312  0.63712850  1
  Hf  Hf17  1  0.89235508  0.90404396  0.36337453  1
  Hf  Hf18  1  0.40446662  0.78533584  0.75233208  1
  Hf  Hf19  1  0.29931190  0.29918224  0.39143363  1
  Hf  Hf20  1  0.11265565  0.11377134  0.12352397  1
  Hf  Hf21  1  0.39464912  0.39120399  0.73504036  1
  Hf  Hf22  1  0.58642331  0.60947147  0.72895033  1
  Hf  Hf23  1  0.88668689  0.48198318  0.13763103  1
  Hf  Hf24  1  0.21399777  0.78105089  0.25263969  1
  Hf  Hf25  1  0.00187795  0.20007269  0.25924051  1
  Hf  Hf26  1  0.11078126  0.49243980  0.11507801  1
  Hf  Hf27  1  0.01845888  0.19148375  0.74424476  1
  Hf  Hf28  1  0.41659795  0.57311367  -0.00479730  1
  Hf  Hf29  1  0.17756233  -0.00062034  0.74711060  1
  Hf  Hf30  1  0.60718432  0.80108421  0.74401168  1
  Hf  Hf31  1  0.89903504  0.29717141  0.37646662  1
  Hf  Hf32  1  0.89809368  0.50973570  0.63470305  1
  Hf  Hf33  1  0.68443535  0.69670095  0.11808554  1
  Hf  Hf34  1  0.00385910  0.39390559  0.74512057  1
  Hf  Hf35  1  0.79880721  0.40826575  0.50542153  1
  Hf  Hf36  1  0.50571627  0.11094181  0.13128616  1
  Hf  Hf37  1  0.38892811  0.80734501  0.50379651  1
  Hf  Hf38  1  0.80741164  0.80404294  0.49787810  1
  Hf  Hf39  1  0.69195389  0.29121471  0.62690945  1
  Zr  Zr40  1  0.31053170  0.08891331  0.38591566  1
  Zr  Zr41  1  0.69968850  0.31734190  0.12883401  1
  Zr  Zr42  1  0.70435696  0.10282416  0.87241151  1
  Zr  Zr43  1  0.80943246  0.20483746  -0.00232335  1
  Zr  Zr44  1  0.20653506  0.58677037  0.25831231  1
  Zr  Zr45  1  0.41019218  -0.00340218  -0.00269684  1
  Zr  Zr46  1  0.78329729  0.59739277  0.25534667  1
  Zr  Zr47  1  -0.01276750  0.01598834  0.01034682  1
  Zr  Zr48  1  0.39243395  0.20116342  -0.00385464  1
  Zr  Zr49  1  0.60141399  0.21602729  -0.00808198  1
  Zr  Zr50  1  0.29321667  0.49176837  0.61411322  1
  Zr  Zr51  1  0.58732656  0.39852942  0.73595471  1
  Zr  Zr52  1  0.20338034  0.58859608  0.76080148  1
  Zr  Zr53  1  0.28906880  0.28269339  0.13095395  1
  Zr  Zr54  1  -0.01511596  0.58559750  -0.00153087  1
  Zr  Zr55  1  0.49940585  0.91331705  0.63248175  1
  Zr  Zr56  1  0.30767058  0.87075444  0.11285540  1
  Zr  Zr57  1  0.01072828  0.61045378  0.75956348  1
  Zr  Zr58  1  0.90068891  0.49838602  0.36628851  1
  Zr  Zr59  1  0.68925266  0.70126727  0.38706482  1
  Zr  Zr60  1  0.87886946  0.91545850  0.14144289  1
  Zr  Zr61  1  0.49804238  0.90536015  0.13827935  1
  Zr  Zr62  1  0.28741459  0.69678887  0.62330282  1
  Zr  Zr63  1  0.21657459  -0.00618763  0.25390914  1
  Zr  Zr64  1  0.21250301  0.20056540  0.73101103  1
  Zr  Zr65  1  0.90746755  0.10525857  0.62123933  1
  Zr  Zr66  1  0.88197705  0.49979574  0.85639446  1
  Zr  Zr67  1  0.00628961  0.01146354  0.25524704  1
  Zr  Zr68  1  0.91940585  0.70685947  0.62493496  1
  Zr  Zr69  1  0.69540119  0.90081695  0.87268009  1
  Zr  Zr70  1  -0.01025076  0.80625008  0.00733072  1
  Zr  Zr71  1  0.48008676  0.70413697  0.11153069  1
  Zr  Zr72  1  0.50343280  0.11814567  0.61993151  1
  Zr  Zr73  1  0.61366981  0.20736262  0.26341638  1
  Zr  Zr74  1  0.19302640  0.38950984  0.74497271  1
  Zr  Zr75  1  0.90442776  0.90867728  0.62674591  1
  Zr  Zr76  1  0.19507461  0.59292197  0.47897553  1
  Zr  Zr77  1  0.79822265  0.20504754  0.49878642  1
  Zr  Zr78  1  0.78440703  0.81172310  0.00722086  1
  Zr  Zr79  1  0.01252064  0.59695222  0.24810103  1
  Ta  Ta80  1  0.69956188  0.90454923  0.61700322  1
  Ta  Ta81  1  0.31610892  0.48233506  0.12654114  1
  Ta  Ta82  1  0.79732147  0.00021346  0.74299012  1
  Ta  Ta83  1  0.51215075  0.69516843  0.88325419  1
  Ta  Ta84  1  0.20242837  0.39031269  0.25670771  1
  Ta  Ta85  1  0.10680901  0.08758160  0.60144236  1
  Ta  Ta86  1  -0.00215045  -0.00334529  0.48827375  1
  Ta  Ta87  1  0.59859958  0.39573516  0.50852462  1
  Ta  Ta88  1  0.50073696  0.30121119  0.38219370  1
  Ta  Ta89  1  0.49899032  0.90564739  0.86692252  1
  Ta  Ta90  1  0.00356476  0.61069500  0.48905135  1
  Ta  Ta91  1  0.19759108  0.19738990  0.26534066  1
  Ta  Ta92  1  0.90465328  0.70630974  0.37158659  1
  Ta  Ta93  1  0.58673540  0.60930350  0.25522891  1
  Ta  Ta94  1  0.09517103  0.88452062  0.61280663  1
  Ta  Ta95  1  0.61023440  0.00329902  0.00871518  1
  Ta  Ta96  1  0.60209858  0.41371438  0.26067413  1
  Ta  Ta97  1  0.88733746  0.70425097  0.87401968  1
  Ta  Ta98  1  0.59273652  0.79651618  0.25138591  1
  Ta  Ta99  1  0.30870084  0.68643075  0.89366200  1
  Ta  Ta100  1  0.12057962  0.69505558  0.10525787  1
  Ta  Ta101  1  0.69591866  0.09187122  0.61976476  1
  Ta  Ta102  1  0.40101855  0.19425004  0.26480246  1
  Ta  Ta103  1  0.00539837  0.81439301  0.76164217  1
  Ta  Ta104  1  -0.00874118  0.38752350  -0.00104861  1
  Ta  Ta105  1  0.20487726  0.00659057  0.00047004  1
  Ta  Ta106  1  0.30615460  0.48119453  0.87976344  1
  Ta  Ta107  1  0.39811143  0.59927577  0.24738537  1
  Ta  Ta108  1  0.40925398  0.60799658  0.50441757  1
  Ta  Ta109  1  0.70905064  0.70192128  0.61656799  1
  Ta  Ta110  1  0.00380907  0.20707951  0.00108493  1
  Ta  Ta111  1  0.00728083  0.41022064  0.50137526  1
  Ta  Ta112  1  0.51702027  0.50148200  0.12944425  1
  Ta  Ta113  1  0.60084903  0.59525882  0.51664169  1
  Ta  Ta114  1  0.80380171  0.60145386  0.49720730  1
  Ta  Ta115  1  0.20422742  0.38534774  -0.00268289  1
  Ta  Ta116  1  0.79693931  0.00538151  0.49444267  1
  Ta  Ta117  1  0.80192870  0.79613819  0.74612768  1
  Ta  Ta118  1  0.09812614  0.90929578  0.88829689  1
  Ta  Ta119  1  0.90422031  0.29998713  0.86939328  1
  Ti  Ti120  1  0.58398955  0.79806217  0.50821263  1
  Ti  Ti121  1  0.89857778  0.29027373  0.13862591  1
  Ti  Ti122  1  0.70393025  0.31455829  0.86419885  1
  Ti  Ti123  1  0.60241773  0.00676496  0.25094525  1
  Ti  Ti124  1  0.21015134  -0.01768521  0.49677973  1
  Ti  Ti125  1  0.90921239  0.10389302  0.86546931  1
  Ti  Ti126  1  0.59510195  0.20470864  0.75814709  1
  Ti  Ti127  1  0.69610756  0.49496162  0.38224815  1
  Ti  Ti128  1  0.58851107  0.81173482  -0.00057604  1
  Ti  Ti129  1  0.31813401  0.70145748  0.37631770  1
  Ti  Ti130  1  0.10199211  0.48735418  0.88810894  1
  Ti  Ti131  1  0.50121988  0.10058272  0.87079258  1
  Ti  Ti132  1  0.10448129  0.30161081  0.39360676  1
  Ti  Ti133  1  0.40839623  0.20023665  0.74999215  1
  Ti  Ti134  1  0.10174075  0.10863285  0.39685318  1
  Ti  Ti135  1  0.70679249  0.50161578  0.63445300  1
  Ti  Ti136  1  0.30615456  0.28425421  0.59860009  1
  Ti  Ti137  1  0.30763016  0.09685157  0.61262226  1
  Ti  Ti138  1  0.59759345  0.00980339  0.74964065  1
  Ti  Ti139  1  0.49355202  0.32578185  0.88114186  1
  Ti  Ti140  1  0.90643529  0.30661510  0.62061040  1
  Ti  Ti141  1  0.01275945  0.39625478  0.25629998  1
  Ti  Ti142  1  0.10365176  0.29267912  0.60022959  1
  Ti  Ti143  1  0.70375744  0.69799437  0.88002707  1
  Ti  Ti144  1  0.30939715  0.08865041  0.13332424  1
  Ti  Ti145  1  0.29768204  0.29387057  0.87613603  1
  Ti  Ti146  1  0.79744459  0.02759021  0.25912946  1
  Ti  Ti147  1  0.30563820  0.48828140  0.37949729  1
  Ti  Ti148  1  0.78373867  0.80284050  0.24874208  1
  Ti  Ti149  1  0.10031334  0.10195310  0.88306006  1
  Ti  Ti150  1  0.69985711  0.10941221  0.38353966  1
  Ti  Ti151  1  0.40715115  0.40198889  0.50961204  1
  Ti  Ti152  1  0.41596689  0.00324400  0.49820701  1
  Ti  Ti153  1  0.18862430  0.78594951  0.49137157  1
  Ti  Ti154  1  0.09702037  0.51076476  0.61853792  1
  Ti  Ti155  1  0.10284559  0.29254193  0.88087742  1
  Ti  Ti156  1  0.40086640  0.58968571  0.75165422  1
  Ti  Ti157  1  0.79459612  0.00957405  0.01021347  1
  Ti  Ti158  1  0.71226891  0.10509763  0.13126378  1
  Ti  Ti159  1  0.09607896  0.30224873  0.12608744  1
  Mo  Mo160  1  0.20860742  0.58184962  -0.00371531  1
  Mo  Mo161  1  0.40692638  0.79381319  -0.01914397  1
  Mo  Mo162  1  0.89706939  0.11659991  0.12998501  1
  Mo  Mo163  1  0.00400240  0.20369665  0.49970646  1
  Mo  Mo164  1  0.51089398  0.09819905  0.37741195  1
  Mo  Mo165  1  0.40188755  0.38996135  -0.00026295  1
  Mo  Mo166  1  0.39990656  0.00942458  0.75522159  1
  Mo  Mo167  1  0.49914561  0.69986309  0.38055101  1
  Mo  Mo168  1  0.69013230  0.91257425  0.13709202  1
  Mo  Mo169  1  0.80293780  0.19920748  0.25785580  1
  Mo  Mo170  1  0.90237889  0.09927589  0.38455513  1
  Mo  Mo171  1  0.40889243  0.19993171  0.49170992  1
  Mo  Mo172  1  0.49910193  0.70506407  0.61917513  1
  Mo  Mo173  1  0.10250931  0.48224765  0.37523589  1
  Mo  Mo174  1  0.20279934  0.18917570  0.50464989  1
  Mo  Mo175  1  0.39609147  0.40523745  0.25777844  1
  Mo  Mo176  1  0.61234334  0.59655966  -0.00339078  1
  Mo  Mo177  1  0.49369616  0.29804515  0.61172647  1
  Mo  Mo178  1  0.78945465  0.38819570  0.25875369  1
  Mo  Mo179  1  0.60375572  -0.00147782  0.49661360  1
  Mo  Mo180  1  0.29522011  0.67501843  0.10533753  1
  Mo  Mo181  1  0.69340606  0.50398296  0.12925716  1
  Mo  Mo182  1  0.20434221  0.79881029  -0.00728957  1
  Mo  Mo183  1  0.29753439  0.89042079  0.37953130  1
  Mo  Mo184  1  0.00365066  0.79968118  0.48947468  1
  Mo  Mo185  1  0.49587657  0.50152015  0.61281741  1
  Mo  Mo186  1  0.19310789  0.19631792  -0.00476180  1
  Mo  Mo187  1  0.78808539  0.61540171  0.74505123  1
  Mo  Mo188  1  0.59950092  0.19793173  0.48475064  1
  Mo  Mo189  1  0.40473842  0.00488834  0.24822813  1
  Mo  Mo190  1  0.19652074  0.39784369  0.50415234  1
  Mo  Mo191  1  0.79946114  0.40010991  0.74289318  1
  Mo  Mo192  1  0.00340736  0.00059768  0.75218446  1
  Mo  Mo193  1  0.48950942  0.50633408  0.86352719  1
  Mo  Mo194  1  0.79270864  0.60445303  -0.00133531  1
  Mo  Mo195  1  0.58289206  0.41710190  -0.00546822  1
  Mo  Mo196  1  0.40105532  0.78222936  0.25304437  1
  Mo  Mo197  1  0.09569319  0.69561680  0.36898151  1
  Mo  Mo198  1  0.69712657  0.31512462  0.37880968  1
  Mo  Mo199  1  0.09882717  0.70112618  0.62156457  1
