# generated using pymatgen
data_HfZrTaTiMo
_symmetry_space_group_name_H-M   'P 1'
_cell_length_a   15.21508897
_cell_length_b   15.21522072
_cell_length_c   16.83931225
_cell_angle_alpha   89.98790907
_cell_angle_beta   89.99933495
_cell_angle_gamma   89.96502585
_symmetry_Int_Tables_number   1
_chemical_formula_structural   HfZrTaTiMo
_chemical_formula_sum   'Hf40 Zr40 Ta40 Ti40 Mo40'
_cell_volume   3898.31575018
_cell_formula_units_Z   40
loop_
 _symmetry_equiv_pos_site_id
 _symmetry_equiv_pos_as_xyz
  1  'x, y, z'
loop_
 _atom_site_type_symbol
 _atom_site_label
 _atom_site_symmetry_multiplicity
 _atom_site_fract_x
 _atom_site_fract_y
 _atom_site_fract_z
 _atom_site_occupancy
  Hf  Hf0  1  0.20228288  -0.00704764  0.50158161  1
  Hf  Hf1  1  0.32084492  0.09378411  0.62540331  1
  Hf  Hf2  1  0.11815085  0.88721341  0.87011944  1
  Hf  Hf3  1  0.80355202  0.20155216  -0.00523670  1
  Hf  Hf4  1  0.69555512  0.50923220  0.13303193  1
  Hf  Hf5  1  0.00512863  0.59274484  -0.00725485  1
  Hf  Hf6  1  0.90547936  0.89669968  0.63971619  1
  Hf  Hf7  1  0.90497787  0.89762859  0.85203254  1
  Hf  Hf8  1  0.19495889  0.00398431  0.00584456  1
  Hf  Hf9  1  0.69007014  0.88601661  0.62666757  1
  Hf  Hf10  1  0.58347109  -0.00281478  0.76997490  1
  Hf  Hf11  1  0.59057198  0.20347308  0.76215511  1
  Hf  Hf12  1  0.49605582  0.91967200  0.62163840  1
  Hf  Hf13  1  0.00798977  0.00030485  0.51655171  1
  Hf  Hf14  1  0.67794916  0.10453522  0.62802143  1
  Hf  Hf15  1  0.41578680  0.19432470  0.49114979  1
  Hf  Hf16  1  0.29852789  0.29620844  0.11982228  1
  Hf  Hf17  1  0.79620375  0.21273406  0.74388541  1
  Hf  Hf18  1  0.29444338  0.70271996  0.14489612  1
  Hf  Hf19  1  0.69497010  0.89166346  0.12617548  1
  Hf  Hf20  1  0.59355175  0.20577973  -0.01035489  1
  Hf  Hf21  1  0.91501529  0.32126587  0.63097948  1
  Hf  Hf22  1  -0.01812102  0.59135654  0.50619124  1
  Hf  Hf23  1  0.40106991  -0.00212681  0.25243229  1
  Hf  Hf24  1  -0.00191237  -0.00510265  -0.00126111  1
  Hf  Hf25  1  0.19929039  0.39832705  0.74961755  1
  Hf  Hf26  1  0.30519575  0.30186731  0.61316686  1
  Hf  Hf27  1  0.68853109  0.90314685  0.36485458  1
  Hf  Hf28  1  0.60962528  0.20370721  0.48611118  1
  Hf  Hf29  1  0.90876121  0.89485527  0.38004016  1
  Hf  Hf30  1  0.30625273  0.88885859  0.61886675  1
  Hf  Hf31  1  0.58397359  0.39743558  0.25405922  1
  Hf  Hf32  1  0.69490017  0.30380148  0.12202488  1
  Hf  Hf33  1  0.79831552  0.00354401  0.51276450  1
  Hf  Hf34  1  0.70199750  0.09976401  0.13267730  1
  Hf  Hf35  1  0.51184980  0.70021960  0.13417554  1
  Hf  Hf36  1  0.59973270  0.59137226  -0.00017760  1
  Hf  Hf37  1  0.89528918  0.69215647  0.63819586  1
  Hf  Hf38  1  0.00939689  0.20555432  0.24586340  1
  Hf  Hf39  1  0.29584772  0.30287761  0.38244644  1
  Zr  Zr40  1  0.49938360  0.71421252  0.88873869  1
  Zr  Zr41  1  0.90588381  0.70255291  0.86322829  1
  Zr  Zr42  1  0.69732391  0.50486381  0.36020769  1
  Zr  Zr43  1  0.29411238  0.50930076  0.87962406  1
  Zr  Zr44  1  0.29962827  0.49628174  0.61039699  1
  Zr  Zr45  1  0.19410701  0.60609731  0.73711020  1
  Zr  Zr46  1  0.00761181  0.79450107  -0.00408319  1
  Zr  Zr47  1  0.04099308  0.78924806  0.73490972  1
  Zr  Zr48  1  0.50430683  0.49181196  0.62501727  1
  Zr  Zr49  1  0.11273649  0.28878418  0.88170397  1
  Zr  Zr50  1  0.81415613  -0.00313655  0.24762954  1
  Zr  Zr51  1  0.09624202  0.09096086  0.85368168  1
  Zr  Zr52  1  0.58978076  0.00102107  -0.01740227  1
  Zr  Zr53  1  0.18210929  0.59896149  0.49637300  1
  Zr  Zr54  1  0.10410418  0.10105760  0.37265725  1
  Zr  Zr55  1  0.71193998  0.69623114  0.88999135  1
  Zr  Zr56  1  0.29567099  0.10587143  0.87778290  1
  Zr  Zr57  1  0.89468034  0.29631254  0.87240406  1
  Zr  Zr58  1  0.40185256  0.40273833  0.00514251  1
  Zr  Zr59  1  0.80814241  0.21486731  0.51033397  1
  Zr  Zr60  1  0.39725084  0.61612053  0.49127448  1
  Zr  Zr61  1  0.61169018  0.60162544  0.50183191  1
  Zr  Zr62  1  0.78737968  -0.00263248  0.74769276  1
  Zr  Zr63  1  0.91260873  0.10648431  0.38038146  1
  Zr  Zr64  1  0.79798585  0.78817067  0.50291989  1
  Zr  Zr65  1  0.50380055  0.11005055  0.13050801  1
  Zr  Zr66  1  0.30157540  0.09755107  0.37108684  1
  Zr  Zr67  1  0.90796143  0.09830985  0.12653434  1
  Zr  Zr68  1  -0.00902065  0.39722754  0.24866516  1
  Zr  Zr69  1  0.49714949  0.71484775  0.62644734  1
  Zr  Zr70  1  0.28444359  0.50231969  0.13425149  1
  Zr  Zr71  1  -0.00905554  0.40204029  -0.00926333  1
  Zr  Zr72  1  0.59154537  0.39325562  0.48755092  1
  Zr  Zr73  1  0.49378118  0.89796300  0.11490088  1
  Zr  Zr74  1  0.71474112  0.10193749  0.36985282  1
  Zr  Zr75  1  0.80230089  -0.00886073  -0.00827659  1
  Zr  Zr76  1  0.08804744  0.69589611  0.14733154  1
  Zr  Zr77  1  0.79993348  0.42772452  0.50892424  1
  Zr  Zr78  1  0.70130346  0.70177059  0.36054623  1
  Zr  Zr79  1  0.40138963  0.60636844  0.74949345  1
  Ta  Ta80  1  0.40175361  0.81629014  0.75851945  1
  Ta  Ta81  1  0.39720648  0.80657013  0.26054361  1
  Ta  Ta82  1  0.00866439  0.19078257  0.00175752  1
  Ta  Ta83  1  0.70637858  0.10668511  0.87099139  1
  Ta  Ta84  1  0.29816400  0.89743901  0.11689724  1
  Ta  Ta85  1  0.38795521  0.61118097  0.00976908  1
  Ta  Ta86  1  0.31565202  0.89685762  0.89605275  1
  Ta  Ta87  1  0.07945479  0.48061191  0.62319484  1
  Ta  Ta88  1  0.89838327  0.30535141  0.11547105  1
  Ta  Ta89  1  0.51361977  0.09098622  0.35945384  1
  Ta  Ta90  1  0.60865011  0.21001143  0.26181312  1
  Ta  Ta91  1  0.01631507  0.79286590  0.51010693  1
  Ta  Ta92  1  0.50396459  0.70249743  0.35987123  1
  Ta  Ta93  1  0.90471712  0.87763813  0.12501502  1
  Ta  Ta94  1  0.08867802  0.69835341  0.35848809  1
  Ta  Ta95  1  0.90739684  0.09980931  0.85464883  1
  Ta  Ta96  1  0.40932598  0.21216561  0.25240886  1
  Ta  Ta97  1  0.17390763  0.38661096  0.49575823  1
  Ta  Ta98  1  0.28886098  0.49760463  0.37506728  1
  Ta  Ta99  1  0.30209753  0.09735726  0.12470372  1
  Ta  Ta100  1  0.40041098  0.59404460  0.25696160  1
  Ta  Ta101  1  0.49986656  0.29021566  0.62726060  1
  Ta  Ta102  1  0.59572840  0.40067525  -0.00098610  1
  Ta  Ta103  1  0.01842755  0.21602658  0.51095657  1
  Ta  Ta104  1  0.90313792  0.69789677  0.37188358  1
  Ta  Ta105  1  0.10281275  0.30177408  0.11331607  1
  Ta  Ta106  1  0.00034362  0.58403262  0.75281767  1
  Ta  Ta107  1  0.20416292  0.79405630  0.48849206  1
  Ta  Ta108  1  0.68925758  0.31986643  0.63270953  1
  Ta  Ta109  1  0.58101223  0.80624493  0.48999403  1
  Ta  Ta110  1  0.80991504  0.21901833  0.25247212  1
  Ta  Ta111  1  0.49067465  0.30622935  0.87459538  1
  Ta  Ta112  1  0.89472836  0.51083940  0.36898354  1
  Ta  Ta113  1  0.20204978  -0.00831696  0.24232296  1
  Ta  Ta114  1  0.48474222  0.49817684  0.37529943  1
  Ta  Ta115  1  0.91204992  0.10913658  0.64122023  1
  Ta  Ta116  1  0.28855163  0.70060113  0.35838328  1
  Ta  Ta117  1  0.09542310  0.49898712  0.13430251  1
  Ta  Ta118  1  0.60643443  0.59805958  0.75885275  1
  Ta  Ta119  1  -0.00027326  0.40069305  0.76710858  1
  Ti  Ti120  1  0.29513569  0.70576642  0.62172653  1
  Ti  Ti121  1  0.80704811  0.79435173  0.24481000  1
  Ti  Ti122  1  0.19001007  0.41654840  -0.00334049  1
  Ti  Ti123  1  0.79233751  0.59404717  0.75589093  1
  Ti  Ti124  1  0.40753381  -0.01397931  0.47956544  1
  Ti  Ti125  1  0.10370758  0.89169467  0.13259498  1
  Ti  Ti126  1  0.59321013  0.00584059  0.49555577  1
  Ti  Ti127  1  0.39841152  0.00480517  0.76439578  1
  Ti  Ti128  1  0.20609531  0.20064934  0.24597605  1
  Ti  Ti129  1  0.49186087  0.49752281  0.13040639  1
  Ti  Ti130  1  0.39148440  0.39541955  0.25126731  1
  Ti  Ti131  1  0.79363396  0.41613052  0.75382409  1
  Ti  Ti132  1  0.39803428  0.19401958  -0.00127227  1
  Ti  Ti133  1  0.69514642  0.31362614  0.87610190  1
  Ti  Ti134  1  0.08762570  0.49471574  0.36896402  1
  Ti  Ti135  1  0.19879882  0.19262953  0.50883539  1
  Ti  Ti136  1  0.79864669  0.39985597  0.24845479  1
  Ti  Ti137  1  0.79174465  0.41992316  -0.00632592  1
  Ti  Ti138  1  0.30166853  0.70804470  0.88036121  1
  Ti  Ti139  1  0.10638776  0.09846026  0.64022290  1
  Ti  Ti140  1  0.40191338  0.39596264  0.75320769  1
  Ti  Ti141  1  0.40126420  0.20197923  0.75429193  1
  Ti  Ti142  1  0.49813192  0.50203948  0.87572143  1
  Ti  Ti143  1  0.20662865  0.78212908  0.00673077  1
  Ti  Ti144  1  0.20868791  0.20089010  0.74139436  1
  Ti  Ti145  1  0.71349594  0.70363480  0.11340350  1
  Ti  Ti146  1  0.30221341  0.30201669  0.88370812  1
  Ti  Ti147  1  0.18900804  0.39057341  0.25641693  1
  Ti  Ti148  1  0.10908816  0.10334336  0.12787574  1
  Ti  Ti149  1  0.00962079  -0.00971406  0.24479303  1
  Ti  Ti150  1  0.69590736  0.68988610  0.63174683  1
  Ti  Ti151  1  0.20665602  -0.02176724  0.74239631  1
  Ti  Ti152  1  0.59726859  0.40687151  0.75768322  1
  Ti  Ti153  1  0.10522204  0.89012641  0.36644013  1
  Ti  Ti154  1  0.89808886  0.50866964  0.12409702  1
  Ti  Ti155  1  0.80801568  0.60494138  0.23955974  1
  Ti  Ti156  1  0.11920891  0.68339500  0.87737003  1
  Ti  Ti157  1  0.60039509  0.79769338  0.75840686  1
  Ti  Ti158  1  0.69938060  0.88437309  0.88023446  1
  Ti  Ti159  1  0.90689271  0.31155545  0.38531347  1
  Mo  Mo160  1  0.69406652  0.49558801  0.87567519  1
  Mo  Mo161  1  0.39155551  0.40021395  0.49067835  1
  Mo  Mo162  1  0.60841983  0.80070301  0.00038828  1
  Mo  Mo163  1  0.89375327  0.50234980  0.64188443  1
  Mo  Mo164  1  0.19608794  0.80758431  0.25555888  1
  Mo  Mo165  1  0.29404111  0.89542460  0.37422293  1
  Mo  Mo166  1  0.59914374  0.80249336  0.25054100  1
  Mo  Mo167  1  0.19109738  0.58788204  0.26560801  1
  Mo  Mo168  1  0.09869315  0.29805729  0.37470679  1
  Mo  Mo169  1  -0.01174788  0.59585112  0.25143564  1
  Mo  Mo170  1  0.71475166  0.30539605  0.36629863  1
  Mo  Mo171  1  0.39305205  0.00544339  0.00363085  1
  Mo  Mo172  1  0.49551442  0.29790028  0.37038036  1
  Mo  Mo173  1  0.09862674  0.50001117  0.87045405  1
  Mo  Mo174  1  0.10602134  0.29384856  0.63234583  1
  Mo  Mo175  1  0.77846745  0.78809390  0.74600249  1
  Mo  Mo176  1  0.00896063  0.20521707  0.74141412  1
  Mo  Mo177  1  0.81040564  0.59283306  0.00525862  1
  Mo  Mo178  1  0.79739992  0.60699348  0.50242826  1
  Mo  Mo179  1  0.49836570  0.30453437  0.12586345  1
  Mo  Mo180  1  0.19768712  0.60494317  0.00388122  1
  Mo  Mo181  1  0.80816719  0.80092391  0.00390019  1
  Mo  Mo182  1  -0.00982799  0.80589810  0.25284925  1
  Mo  Mo183  1  0.89203334  0.69303424  0.12099349  1
  Mo  Mo184  1  0.20064540  0.20289706  0.00785908  1
  Mo  Mo185  1  0.11647433  0.89244662  0.62029872  1
  Mo  Mo186  1  0.22783580  0.79511376  0.75452018  1
  Mo  Mo187  1  0.10719112  0.69074728  0.61626965  1
  Mo  Mo188  1  0.49669142  0.89819113  0.88467559  1
  Mo  Mo189  1  0.69722107  0.50353812  0.63766591  1
  Mo  Mo190  1  0.60156965  0.00288499  0.24675373  1
  Mo  Mo191  1  0.48901957  0.10804741  0.87928459  1
  Mo  Mo192  1  0.49624033  0.10483206  0.62498196  1
  Mo  Mo193  1  0.39584161  0.79548947  0.00985658  1
  Mo  Mo194  1  0.50010757  0.89949655  0.37098579  1
  Mo  Mo195  1  0.59360808  0.60176669  0.24331843  1
  Mo  Mo196  1  0.88750643  0.50403375  0.87001207  1
  Mo  Mo197  1  0.39469923  0.80238852  0.47736494  1
  Mo  Mo198  1  -0.00420479  0.40108931  0.49240940  1
  Mo  Mo199  1  0.01149345  -0.00277864  0.73410678  1
