# generated using pymatgen
data_HfZrTaTiMo
_symmetry_space_group_name_H-M   'P 1'
_cell_length_a   15.21549297
_cell_length_b   15.22125144
_cell_length_c   16.85591924
_cell_angle_alpha   89.99405218
_cell_angle_beta   89.98084437
_cell_angle_gamma   90.21529008
_symmetry_Int_Tables_number   1
_chemical_formula_structural   HfZrTaTiMo
_chemical_formula_sum   'Hf40 Zr40 Ta40 Ti40 Mo40'
_cell_volume   3903.78361827
_cell_formula_units_Z   40
loop_
 _symmetry_equiv_pos_site_id
 _symmetry_equiv_pos_as_xyz
  1  'x, y, z'
loop_
 _atom_site_type_symbol
 _atom_site_label
 _atom_site_symmetry_multiplicity
 _atom_site_fract_x
 _atom_site_fract_y
 _atom_site_fract_z
 _atom_site_occupancy
  Hf  Hf0  1  0.69824471  0.08964282  0.36502640  1
  Hf  Hf1  1  0.40917492  0.39848575  0.24438595  1
  Hf  Hf2  1  0.07565533  0.49538378  0.11492555  1
  Hf  Hf3  1  0.79464731  0.39734920  0.48964910  1
  Hf  Hf4  1  0.50169617  0.50224459  0.87289186  1
  Hf  Hf5  1  0.68561630  0.31112493  0.62359894  1
  Hf  Hf6  1  0.10186011  0.88601870  0.63441821  1
  Hf  Hf7  1  0.10439194  0.10201730  0.11618038  1
  Hf  Hf8  1  0.20779855  -0.01165277  -0.00432383  1
  Hf  Hf9  1  0.28504595  0.50888139  0.12979325  1
  Hf  Hf10  1  0.31049755  0.08197775  0.12414990  1
  Hf  Hf11  1  0.30032851  0.50337938  0.36075054  1
  Hf  Hf12  1  0.70444474  0.70596471  0.63171498  1
  Hf  Hf13  1  0.60156939  0.20092345  0.48743470  1
  Hf  Hf14  1  0.11595017  0.49284139  0.64501886  1
  Hf  Hf15  1  0.80042673  0.60651361  0.00231649  1
  Hf  Hf16  1  0.40177033  0.19210936  0.25774812  1
  Hf  Hf17  1  0.01299369  -0.00133481  0.23767225  1
  Hf  Hf18  1  0.80419962  0.60541556  0.49592129  1
  Hf  Hf19  1  0.21970159  0.39986115  0.50273384  1
  Hf  Hf20  1  0.40869181  0.01060965  0.74288335  1
  Hf  Hf21  1  0.79925718  0.80726684  0.49531737  1
  Hf  Hf22  1  0.91384473  0.68437301  0.12968024  1
  Hf  Hf23  1  0.88631453  0.29345980  0.63550756  1
  Hf  Hf24  1  0.79396883  -0.01142710  0.01873250  1
  Hf  Hf25  1  0.28261743  0.69607574  0.63352522  1
  Hf  Hf26  1  0.30382807  0.11598484  0.62593182  1
  Hf  Hf27  1  0.90011070  0.90819576  0.36082255  1
  Hf  Hf28  1  0.70787494  0.50465113  0.63523392  1
  Hf  Hf29  1  0.58718055  0.40136454  0.47831995  1
  Hf  Hf30  1  0.90473420  0.30738797  0.12428217  1
  Hf  Hf31  1  0.49990425  0.91214706  0.88772454  1
  Hf  Hf32  1  0.70358670  0.70367624  0.86560312  1
  Hf  Hf33  1  0.40737173  0.40685871  0.01268478  1
  Hf  Hf34  1  0.18664183  0.38943453  -0.00277692  1
  Hf  Hf35  1  0.49611857  0.92468335  0.11266265  1
  Hf  Hf36  1  0.09968478  0.08708282  0.62609415  1
  Hf  Hf37  1  0.59249479  0.80525561  0.74682576  1
  Hf  Hf38  1  0.90548277  0.70365813  0.36258963  1
  Hf  Hf39  1  0.80505824  0.40909479  -0.00303466  1
  Zr  Zr40  1  0.30979612  0.29430524  0.86647105  1
  Zr  Zr41  1  0.19281260  0.78050290  -0.00641516  1
  Zr  Zr42  1  0.00915872  0.39556314  0.51200133  1
  Zr  Zr43  1  0.60241997  0.22346572  0.26380404  1
  Zr  Zr44  1  0.59973669  0.60070580  0.00554376  1
  Zr  Zr45  1  0.39185846  0.58807523  0.50371377  1
  Zr  Zr46  1  0.89779001  0.08639736  0.88119019  1
  Zr  Zr47  1  0.59711553  0.21643995  0.75454141  1
  Zr  Zr48  1  0.39853148  0.80896022  0.74780664  1
  Zr  Zr49  1  0.89719783  0.29987149  0.87276521  1
  Zr  Zr50  1  0.89507955  0.11684798  0.34921043  1
  Zr  Zr51  1  0.19187020  0.18947713  0.25550850  1
  Zr  Zr52  1  0.29967708  0.49470023  0.86676607  1
  Zr  Zr53  1  0.80344281  0.58427415  0.25418344  1
  Zr  Zr54  1  0.50168480  0.48997273  0.62616621  1
  Zr  Zr55  1  0.79802779  0.19672463  0.01280521  1
  Zr  Zr56  1  0.40605699  0.20037188  0.00725263  1
  Zr  Zr57  1  -0.03056914  0.78836176  0.76491729  1
  Zr  Zr58  1  0.09847423  0.48884482  0.86378519  1
  Zr  Zr59  1  0.00010001  0.19123935  0.74934231  1
  Zr  Zr60  1  0.09648781  0.08758752  0.37616310  1
  Zr  Zr61  1  0.71926713  0.11157217  0.62871380  1
  Zr  Zr62  1  0.19422751  0.20146527  0.49470995  1
  Zr  Zr63  1  0.07731685  0.68536140  0.64047637  1
  Zr  Zr64  1  0.72714942  0.90942469  0.86453875  1
  Zr  Zr65  1  0.49059716  0.71550197  0.38417020  1
  Zr  Zr66  1  0.60555200  0.00755169  0.74774169  1
  Zr  Zr67  1  0.29126458  0.29393537  0.12956223  1
  Zr  Zr68  1  0.49711420  0.71318369  0.12189458  1
  Zr  Zr69  1  0.39464710  0.22014038  0.48423864  1
  Zr  Zr70  1  0.40469632  0.59995855  0.74098815  1
  Zr  Zr71  1  -0.00293265  0.78759874  0.50094980  1
  Zr  Zr72  1  0.30229939  0.90230029  0.61892635  1
  Zr  Zr73  1  0.59623880  0.82610960  0.25076605  1
  Zr  Zr74  1  0.28665971  0.69737669  0.86275367  1
  Zr  Zr75  1  0.91234710  0.49645842  0.38392582  1
  Zr  Zr76  1  0.31374897  0.89210593  0.38209037  1
  Zr  Zr77  1  0.89191700  0.88112485  0.13708583  1
  Zr  Zr78  1  0.62279523  0.81279543  0.00495941  1
  Zr  Zr79  1  -0.01302115  0.18975821  0.50749453  1
  Ta  Ta80  1  0.10666447  0.49810951  0.37490584  1
  Ta  Ta81  1  0.49561105  0.70462915  0.88401656  1
  Ta  Ta82  1  -0.01016048  0.79275313  -0.00916334  1
  Ta  Ta83  1  0.60795690  0.40248361  0.00188828  1
  Ta  Ta84  1  0.19780710  -0.00839953  0.49778266  1
  Ta  Ta85  1  0.50801433  0.10560913  0.61292244  1
  Ta  Ta86  1  0.71218439  0.71348246  0.14374601  1
  Ta  Ta87  1  0.79240165  0.38198638  0.26567592  1
  Ta  Ta88  1  0.20986325  -0.02054145  0.24776397  1
  Ta  Ta89  1  0.80804260  0.00801818  0.49853960  1
  Ta  Ta90  1  0.60626158  0.21306739  -0.00154119  1
  Ta  Ta91  1  0.38672986  0.60837944  0.00207520  1
  Ta  Ta92  1  0.30159319  0.88773565  0.12508451  1
  Ta  Ta93  1  0.20058117  -0.00365576  0.75931599  1
  Ta  Ta94  1  0.40576106  0.00874498  0.50214569  1
  Ta  Ta95  1  0.49918537  0.11276145  0.87972892  1
  Ta  Ta96  1  0.69156555  0.69636750  0.36298568  1
  Ta  Ta97  1  -0.00275455  -0.01047476  0.75446198  1
  Ta  Ta98  1  0.70171811  0.49701195  0.86447684  1
  Ta  Ta99  1  0.20018702  0.79050774  0.49723257  1
  Ta  Ta100  1  0.09446818  0.89373915  0.87305689  1
  Ta  Ta101  1  0.70710693  0.90983405  0.62399603  1
  Ta  Ta102  1  0.00151823  -0.00790852  0.00850043  1
  Ta  Ta103  1  -0.00979273  0.39917386  0.25301604  1
  Ta  Ta104  1  0.10615309  0.88554279  0.37332701  1
  Ta  Ta105  1  0.48601890  0.29708614  0.62680978  1
  Ta  Ta106  1  0.70483142  0.11666915  0.87014697  1
  Ta  Ta107  1  -0.00001555  0.59423595  -0.02077426  1
  Ta  Ta108  1  0.29462316  0.70054412  0.12607063  1
  Ta  Ta109  1  0.49952744  0.70787937  0.60916934  1
  Ta  Ta110  1  0.90992534  0.51405332  0.63068050  1
  Ta  Ta111  1  0.30881300  0.09310225  0.87399063  1
  Ta  Ta112  1  0.08425741  0.30091589  0.36835333  1
  Ta  Ta113  1  0.50904459  0.51579614  0.35840342  1
  Ta  Ta114  1  0.39774489  0.61332117  0.24696129  1
  Ta  Ta115  1  0.10521479  0.88446596  0.12255547  1
  Ta  Ta116  1  0.69948361  0.49764112  0.13585628  1
  Ta  Ta117  1  0.18651110  0.59658427  0.50256899  1
  Ta  Ta118  1  0.10401490  0.09395002  0.88014377  1
  Ta  Ta119  1  0.29066592  0.69667292  0.37535043  1
  Ti  Ti120  1  0.50694748  0.11327048  0.12745836  1
  Ti  Ti121  1  0.39321436  0.80624965  0.24759385  1
  Ti  Ti122  1  0.60396835  0.02284956  -0.00134750  1
  Ti  Ti123  1  0.51485252  0.30955703  0.12730867  1
  Ti  Ti124  1  0.20320034  0.19589278  0.75820126  1
  Ti  Ti125  1  0.18395104  0.40461451  0.24727328  1
  Ti  Ti126  1  -0.00512322  0.39693918  0.74863457  1
  Ti  Ti127  1  0.41110621  -0.00632460  0.25785721  1
  Ti  Ti128  1  0.39326606  0.80575285  -0.00390359  1
  Ti  Ti129  1  0.60655030  0.60106780  0.49618522  1
  Ti  Ti130  1  0.59894099  0.60406987  0.75013189  1
  Ti  Ti131  1  0.77934163  -0.01148782  0.23609397  1
  Ti  Ti132  1  0.11096304  0.29218326  0.63494221  1
  Ti  Ti133  1  0.50852904  0.30999695  0.87383501  1
  Ti  Ti134  1  0.50683411  0.50989199  0.13579666  1
  Ti  Ti135  1  0.20199250  0.78715227  0.25011125  1
  Ti  Ti136  1  0.29969586  0.90000927  0.87084165  1
  Ti  Ti137  1  0.01465299  0.79223013  0.24843250  1
  Ti  Ti138  1  0.50844824  0.90531312  0.60641344  1
  Ti  Ti139  1  0.80035421  0.20374037  0.49039663  1
  Ti  Ti140  1  0.01049415  0.20933899  -0.00746283  1
  Ti  Ti141  1  0.10891011  0.68724053  0.12197575  1
  Ti  Ti142  1  0.51128555  0.91419684  0.39438644  1
  Ti  Ti143  1  0.69826587  0.90141571  0.37743755  1
  Ti  Ti144  1  0.89488270  0.89879846  0.62784743  1
  Ti  Ti145  1  0.60558582  0.80292943  0.50000499  1
  Ti  Ti146  1  0.79252656  0.39517282  0.75777447  1
  Ti  Ti147  1  0.09352411  0.29670201  0.12866130  1
  Ti  Ti148  1  0.29851521  0.08816395  0.37580299  1
  Ti  Ti149  1  0.81817057  0.61064261  0.75568858  1
  Ti  Ti150  1  0.70050193  0.30583140  0.13074281  1
  Ti  Ti151  1  0.10284143  0.68829096  0.37481001  1
  Ti  Ti152  1  0.68932788  0.10260351  0.13808884  1
  Ti  Ti153  1  0.90267126  0.10479736  0.13321699  1
  Ti  Ti154  1  0.29165350  0.30713153  0.36213962  1
  Ti  Ti155  1  0.30449500  0.31776003  0.64271242  1
  Ti  Ti156  1  0.49943835  0.09481678  0.37991327  1
  Ti  Ti157  1  0.20104992  0.19534465  -0.00983083  1
  Ti  Ti158  1  -0.00233270  -0.01282991  0.50039317  1
  Ti  Ti159  1  0.01552086  0.59185472  0.25099888  1
  Mo  Mo160  1  0.00680684  0.59290418  0.50061749  1
  Mo  Mo161  1  0.88962277  0.69319409  0.62396417  1
  Mo  Mo162  1  0.89427500  0.49634188  0.12796626  1
  Mo  Mo163  1  0.19296168  0.60264226  0.25087409  1
  Mo  Mo164  1  -0.00983480  0.58934636  0.76768134  1
  Mo  Mo165  1  0.69495466  0.50702070  0.37020960  1
  Mo  Mo166  1  0.58502324  0.01452043  0.25088475  1
  Mo  Mo167  1  0.88974803  0.70165792  0.88539238  1
  Mo  Mo168  1  0.19834568  0.38411557  0.75104874  1
  Mo  Mo169  1  0.10167394  0.28528079  0.87192310  1
  Mo  Mo170  1  0.18645697  0.80692708  0.76045489  1
  Mo  Mo171  1  0.69157798  0.90791502  0.12804367  1
  Mo  Mo172  1  0.30075038  0.49340460  0.63510440  1
  Mo  Mo173  1  0.40194967  0.79860046  0.50677633  1
  Mo  Mo174  1  0.60976483  -0.00226305  0.50325753  1
  Mo  Mo175  1  0.48883343  0.31297990  0.36859586  1
  Mo  Mo176  1  0.90177303  0.08292609  0.62506717  1
  Mo  Mo177  1  0.59689444  0.60984639  0.24167139  1
  Mo  Mo178  1  0.40986565  0.38965265  0.75081747  1
  Mo  Mo179  1  0.79849704  0.19556070  0.23027856  1
  Mo  Mo180  1  0.90452830  0.90216476  0.88649449  1
  Mo  Mo181  1  0.81622842  0.00272405  0.74322492  1
  Mo  Mo182  1  0.60722060  0.41688547  0.25592097  1
  Mo  Mo183  1  0.19613000  0.59575269  0.00069295  1
  Mo  Mo184  1  0.90022487  0.29622878  0.37074687  1
  Mo  Mo185  1  0.69538574  0.30694673  0.87989449  1
  Mo  Mo186  1  0.80436692  0.79408680  0.00656589  1
  Mo  Mo187  1  0.09186095  0.69159868  0.86619843  1
  Mo  Mo188  1  0.19727601  0.59781079  0.74960686  1
  Mo  Mo189  1  0.39762079  0.40126124  0.48835409  1
  Mo  Mo190  1  0.79461605  0.80714424  0.74205354  1
  Mo  Mo191  1  -0.00394866  0.39511574  -0.00671657  1
  Mo  Mo192  1  0.40342513  0.19686856  0.74943680  1
  Mo  Mo193  1  0.89319425  0.50108832  0.86406050  1
  Mo  Mo194  1  0.40297132  0.00023370  -0.00667520  1
  Mo  Mo195  1  0.60122992  0.40988369  0.75380405  1
  Mo  Mo196  1  0.70624565  0.29613417  0.37505082  1
  Mo  Mo197  1  0.79806588  0.20042285  0.75362619  1
  Mo  Mo198  1  0.79561020  0.79833230  0.26160444  1
  Mo  Mo199  1  0.00005042  0.20830294  0.24151552  1
