# generated using pymatgen
data_HfZrTaTiMo
_symmetry_space_group_name_H-M   'P 1'
_cell_length_a   15.21822061
_cell_length_b   15.20517522
_cell_length_c   16.82817277
_cell_angle_alpha   89.97054245
_cell_angle_beta   90.05396061
_cell_angle_gamma   90.13501659
_symmetry_Int_Tables_number   1
_chemical_formula_structural   HfZrTaTiMo
_chemical_formula_sum   'Hf40 Zr40 Ta40 Ti40 Mo40'
_cell_volume   3893.95395145
_cell_formula_units_Z   40
loop_
 _symmetry_equiv_pos_site_id
 _symmetry_equiv_pos_as_xyz
  1  'x, y, z'
loop_
 _atom_site_type_symbol
 _atom_site_label
 _atom_site_symmetry_multiplicity
 _atom_site_fract_x
 _atom_site_fract_y
 _atom_site_fract_z
 _atom_site_occupancy
  Hf  Hf0  1  0.80174181  0.40650214  0.75299107  1
  Hf  Hf1  1  0.89788934  0.50230651  0.13463174  1
  Hf  Hf2  1  0.21490791  0.40461981  0.50607166  1
  Hf  Hf3  1  0.69892606  0.70388143  0.89223917  1
  Hf  Hf4  1  0.79448872  0.40397625  0.50166907  1
  Hf  Hf5  1  0.80093422  0.61103211  0.25597524  1
  Hf  Hf6  1  0.39926459  0.80564580  0.74880576  1
  Hf  Hf7  1  0.69796219  0.09705169  0.11739636  1
  Hf  Hf8  1  0.18636181  0.79066955  0.25488909  1
  Hf  Hf9  1  0.49707933  0.30250827  0.37024615  1
  Hf  Hf10  1  0.30749540  0.90401796  0.36887790  1
  Hf  Hf11  1  0.69753387  0.30022952  0.37404015  1
  Hf  Hf12  1  0.79406166  0.81116543  0.48500831  1
  Hf  Hf13  1  0.19895336  0.59868500  0.26932092  1
  Hf  Hf14  1  0.29923093  0.49278845  0.13789603  1
  Hf  Hf15  1  0.49398857  0.30347201  0.86727316  1
  Hf  Hf16  1  0.21079114  0.78385926  -0.01176485  1
  Hf  Hf17  1  0.91735182  0.30011516  0.11400472  1
  Hf  Hf18  1  0.81378892  0.19092953  -0.00622519  1
  Hf  Hf19  1  0.69239475  0.70530628  0.61720218  1
  Hf  Hf20  1  0.48549468  0.70802627  0.12694031  1
  Hf  Hf21  1  0.10811977  0.29516465  0.87993960  1
  Hf  Hf22  1  0.50303815  0.91176832  0.12699977  1
  Hf  Hf23  1  0.90281066  0.69638987  0.61208063  1
  Hf  Hf24  1  0.30304689  0.88842946  0.13142138  1
  Hf  Hf25  1  0.09757837  0.69155219  0.11289627  1
  Hf  Hf26  1  0.28931459  0.69931858  0.62599382  1
  Hf  Hf27  1  0.61058044  -0.00018915  0.75183233  1
  Hf  Hf28  1  0.08133789  0.09774176  0.36205061  1
  Hf  Hf29  1  0.69514993  0.29697327  0.88745334  1
  Hf  Hf30  1  0.89940605  0.71551877  0.10844659  1
  Hf  Hf31  1  0.40915191  0.40092120  0.50884808  1
  Hf  Hf32  1  0.69923835  0.70168713  0.11715756  1
  Hf  Hf33  1  0.90572801  0.49792245  0.62652560  1
  Hf  Hf34  1  0.30901064  0.10215977  0.13467482  1
  Hf  Hf35  1  0.21319582  0.19390294  0.00174076  1
  Hf  Hf36  1  0.20083556  0.20891252  0.24985971  1
  Hf  Hf37  1  0.59687334  0.80141388  0.75402082  1
  Hf  Hf38  1  0.50605348  0.89756415  0.61635941  1
  Hf  Hf39  1  0.89412393  0.89742307  0.88148031  1
  Zr  Zr40  1  0.10566234  0.51589821  0.61229423  1
  Zr  Zr41  1  0.09730616  0.49153163  0.12338078  1
  Zr  Zr42  1  0.61213971  -0.00104416  0.48442685  1
  Zr  Zr43  1  0.79702237  0.18991668  0.76572929  1
  Zr  Zr44  1  0.01102273  0.59276473  0.76360023  1
  Zr  Zr45  1  0.58539674  0.59558040  0.00761079  1
  Zr  Zr46  1  -0.00435647  0.79258407  0.75745360  1
  Zr  Zr47  1  0.20546907  0.79772233  0.49204502  1
  Zr  Zr48  1  0.71258985  0.10493222  0.61686727  1
  Zr  Zr49  1  0.60471455  0.00568105  0.26175930  1
  Zr  Zr50  1  0.69539890  0.49382824  0.35749051  1
  Zr  Zr51  1  0.69678885  0.49884469  0.88349631  1
  Zr  Zr52  1  0.18461323  0.39776456  0.73868695  1
  Zr  Zr53  1  0.39238139  0.59945062  0.48849861  1
  Zr  Zr54  1  -0.00605486  0.00003683  0.00970904  1
  Zr  Zr55  1  0.09982306  0.29676907  0.39074341  1
  Zr  Zr56  1  0.10142178  0.90141653  0.37130893  1
  Zr  Zr57  1  0.68511241  0.30798258  0.62246212  1
  Zr  Zr58  1  0.57549466  0.39263221  0.01398553  1
  Zr  Zr59  1  0.80426216  0.00370812  0.25468779  1
  Zr  Zr60  1  0.89129138  0.28681077  0.62046291  1
  Zr  Zr61  1  0.19979498  -0.00896789  0.00393585  1
  Zr  Zr62  1  0.70447048  0.29950297  0.11743756  1
  Zr  Zr63  1  0.01107942  0.18788790  0.74028782  1
  Zr  Zr64  1  0.20214742  0.01368477  0.50246442  1
  Zr  Zr65  1  0.90102718  0.28404398  0.38617471  1
  Zr  Zr66  1  0.37682453  0.59786309  -0.00027745  1
  Zr  Zr67  1  0.90564043  0.90889216  0.62012447  1
  Zr  Zr68  1  0.91657366  0.90210358  0.37369371  1
  Zr  Zr69  1  0.79278023  0.80166406  0.75085007  1
  Zr  Zr70  1  0.28789837  0.50902546  0.85448152  1
  Zr  Zr71  1  0.19612988  0.78484749  0.76523606  1
  Zr  Zr72  1  0.91621552  0.31225159  0.87873775  1
  Zr  Zr73  1  0.09298431  0.10449457  0.13497868  1
  Zr  Zr74  1  0.58986500  0.19434051  0.75048565  1
  Zr  Zr75  1  0.59566001  0.60054656  0.75175477  1
  Zr  Zr76  1  0.79668164  0.60167886  0.48446291  1
  Zr  Zr77  1  0.10494604  0.90310066  0.62817740  1
  Zr  Zr78  1  0.20988643  0.00444930  0.75366584  1
  Zr  Zr79  1  0.39751482  0.01198171  -0.00458952  1
  Ta  Ta80  1  0.58972870  0.59449096  0.49583611  1
  Ta  Ta81  1  0.59030837  0.81065286  0.00006537  1
  Ta  Ta82  1  0.09445904  0.89849902  0.87816137  1
  Ta  Ta83  1  0.09611892  0.29747999  0.61534067  1
  Ta  Ta84  1  -0.00787636  0.58532065  -0.00975868  1
  Ta  Ta85  1  0.49015127  0.49710607  0.14733973  1
  Ta  Ta86  1  0.70633514  0.89361718  0.11994171  1
  Ta  Ta87  1  0.89623233  0.69542855  0.89474199  1
  Ta  Ta88  1  0.40576803  0.22723506  0.01132382  1
  Ta  Ta89  1  0.50350824  0.89395000  0.37347811  1
  Ta  Ta90  1  0.40574970  0.00839565  0.25688799  1
  Ta  Ta91  1  0.40996044  0.01465546  0.75728591  1
  Ta  Ta92  1  0.19832690  0.39485877  0.25743507  1
  Ta  Ta93  1  0.48381213  0.49900309  0.86783123  1
  Ta  Ta94  1  0.29475847  0.69223777  0.13329896  1
  Ta  Ta95  1  -0.00552491  0.16706020  0.51510260  1
  Ta  Ta96  1  0.00034428  0.38872956  0.25522001  1
  Ta  Ta97  1  0.59375751  0.60779791  0.24416493  1
  Ta  Ta98  1  0.82329412  0.01989786  0.48992665  1
  Ta  Ta99  1  0.60583454  0.80356396  0.25452933  1
  Ta  Ta100  1  0.31519460  0.51061962  0.63825981  1
  Ta  Ta101  1  0.10617038  0.09672547  0.87646479  1
  Ta  Ta102  1  0.80220058  0.80379838  0.25697667  1
  Ta  Ta103  1  0.48241836  0.70534064  0.88159142  1
  Ta  Ta104  1  0.40442929  0.00341622  0.49153952  1
  Ta  Ta105  1  0.39432418  0.19681553  0.50054689  1
  Ta  Ta106  1  0.49974835  0.49946365  0.35572550  1
  Ta  Ta107  1  0.50358150  0.90751421  0.88142516  1
  Ta  Ta108  1  0.20306665  0.20044337  0.51094366  1
  Ta  Ta109  1  0.49012179  0.68691712  0.62038072  1
  Ta  Ta110  1  0.49840957  0.09682035  0.61690607  1
  Ta  Ta111  1  0.50724361  0.11500591  0.12061683  1
  Ta  Ta112  1  0.21919303  0.40078311  -0.00263338  1
  Ta  Ta113  1  0.80787866  0.21020119  0.24636764  1
  Ta  Ta114  1  0.90623648  0.49409364  0.36566458  1
  Ta  Ta115  1  0.80411926  0.60658720  0.75508331  1
  Ta  Ta116  1  0.70091557  0.49908250  0.13239597  1
  Ta  Ta117  1  0.70516036  0.90519174  0.61750618  1
  Ta  Ta118  1  0.30778965  0.29803276  0.86782624  1
  Ta  Ta119  1  0.00066301  0.60907329  0.25831205  1
  Ti  Ti120  1  0.21444009  0.19966440  0.74067560  1
  Ti  Ti121  1  0.31263845  0.90841805  0.62107150  1
  Ti  Ti122  1  0.09472606  0.49613367  0.37949719  1
  Ti  Ti123  1  0.69242459  0.08966123  0.89221247  1
  Ti  Ti124  1  0.68798386  0.70557966  0.37206295  1
  Ti  Ti125  1  0.10816201  0.30221160  0.11479159  1
  Ti  Ti126  1  0.81583023  0.41982598  -0.00400941  1
  Ti  Ti127  1  0.39884863  0.39430273  0.73551597  1
  Ti  Ti128  1  0.69785943  0.90341491  0.88877393  1
  Ti  Ti129  1  0.69689478  0.51081424  0.62663088  1
  Ti  Ti130  1  0.59279140  0.79335183  0.49050585  1
  Ti  Ti131  1  0.49629954  0.10585067  0.37634933  1
  Ti  Ti132  1  0.49810408  0.10911394  0.88665343  1
  Ti  Ti133  1  0.48723344  0.29023773  0.62816193  1
  Ti  Ti134  1  0.19950927  0.60226478  0.48034315  1
  Ti  Ti135  1  0.59314680  0.20432167  0.49975855  1
  Ti  Ti136  1  -0.00028557  0.40236722  0.49948127  1
  Ti  Ti137  1  0.07470799  0.70283670  0.38636390  1
  Ti  Ti138  1  0.09026458  0.48854540  0.88230735  1
  Ti  Ti139  1  0.81085138  0.00085483  0.75284130  1
  Ti  Ti140  1  0.30053155  0.10724787  0.36988492  1
  Ti  Ti141  1  0.20047565  -0.00271166  0.24593256  1
  Ti  Ti142  1  0.08171484  0.88618597  0.12807695  1
  Ti  Ti143  1  0.49272335  0.69697517  0.36833290  1
  Ti  Ti144  1  0.30953768  0.49244061  0.36475717  1
  Ti  Ti145  1  0.90291983  0.09992176  0.13141912  1
  Ti  Ti146  1  0.59250046  0.40618849  0.74381711  1
  Ti  Ti147  1  0.31130315  0.10584074  0.62610660  1
  Ti  Ti148  1  0.30289765  0.29859958  0.37807701  1
  Ti  Ti149  1  0.59547460  0.41070152  0.50235214  1
  Ti  Ti150  1  0.59927701  0.39069143  0.23802106  1
  Ti  Ti151  1  0.31051537  0.90014165  0.87744788  1
  Ti  Ti152  1  0.40386071  0.21031672  0.24536611  1
  Ti  Ti153  1  0.71469091  0.11209570  0.37909657  1
  Ti  Ti154  1  0.40195270  0.79915805  0.49433828  1
  Ti  Ti155  1  0.09195818  0.70176678  0.60922640  1
  Ti  Ti156  1  0.79876409  -0.00897835  0.00775881  1
  Ti  Ti157  1  0.39868877  0.79438433  0.25837121  1
  Ti  Ti158  1  0.91447933  0.09445887  0.87611074  1
  Ti  Ti159  1  0.60191727  0.19765830  0.25022052  1
  Mo  Mo160  1  0.19872492  0.60375714  0.74516980  1
  Mo  Mo161  1  0.00756500  -0.00282666  0.50249911  1
  Mo  Mo162  1  0.30090101  0.29829019  0.62395357  1
  Mo  Mo163  1  -0.00027647  0.59386604  0.48502474  1
  Mo  Mo164  1  0.30252849  0.70034411  0.86878867  1
  Mo  Mo165  1  -0.00081881  0.79303163  0.50351234  1
  Mo  Mo166  1  0.40282179  0.60570278  0.74751011  1
  Mo  Mo167  1  0.00280200  -0.00166141  0.76369264  1
  Mo  Mo168  1  0.10888081  0.10070414  0.63026161  1
  Mo  Mo169  1  0.00266062  0.39461722  0.74160793  1
  Mo  Mo170  1  0.69973070  0.89824530  0.37702950  1
  Mo  Mo171  1  0.89777209  0.69892128  0.37661116  1
  Mo  Mo172  1  0.90394521  0.10423708  0.36605934  1
  Mo  Mo173  1  0.39840313  0.60508220  0.25729317  1
  Mo  Mo174  1  0.29647355  0.30427746  0.12880300  1
  Mo  Mo175  1  0.50874651  0.49531687  0.62777968  1
  Mo  Mo176  1  0.01071487  0.39942097  0.00107533  1
  Mo  Mo177  1  -0.00502343  0.20388348  0.24570929  1
  Mo  Mo178  1  0.39477287  0.40487220  -0.00226428  1
  Mo  Mo179  1  0.19154725  0.58876826  -0.00267243  1
  Mo  Mo180  1  0.79703070  0.59414899  0.00472712  1
  Mo  Mo181  1  0.59463772  0.19515386  -0.00127860  1
  Mo  Mo182  1  0.90390091  0.08762447  0.63255757  1
  Mo  Mo183  1  -0.00993266  0.78907043  0.24647828  1
  Mo  Mo184  1  0.89605302  0.90180357  0.13016826  1
  Mo  Mo185  1  0.00969323  0.19503902  -0.00591038  1
  Mo  Mo186  1  0.79181713  0.19530557  0.49826262  1
  Mo  Mo187  1  0.39946139  0.80355002  -0.00306746  1
  Mo  Mo188  1  0.89856064  0.50351432  0.87141916  1
  Mo  Mo189  1  0.80535906  0.39618441  0.24768177  1
  Mo  Mo190  1  0.30835381  0.11388280  0.87092539  1
  Mo  Mo191  1  0.30084062  0.70339129  0.37253082  1
  Mo  Mo192  1  0.00632512  0.80004045  -0.00949901  1
  Mo  Mo193  1  0.49281476  0.30087353  0.14071938  1
  Mo  Mo194  1  0.39467608  0.19531093  0.74620939  1
  Mo  Mo195  1  0.00081386  -0.00909474  0.23114315  1
  Mo  Mo196  1  0.60158633  0.00167275  -0.00151973  1
  Mo  Mo197  1  0.10288307  0.68446621  0.89244721  1
  Mo  Mo198  1  0.79639491  0.80613093  0.00002066  1
  Mo  Mo199  1  0.39247717  0.39475368  0.25773274  1
