# generated using pymatgen
data_HfZrTaTiMo
_symmetry_space_group_name_H-M   'P 1'
_cell_length_a   15.17058573
_cell_length_b   15.18410919
_cell_length_c   16.80266061
_cell_angle_alpha   89.97344842
_cell_angle_beta   90.08016250
_cell_angle_gamma   90.03033841
_symmetry_Int_Tables_number   1
_chemical_formula_structural   HfZrTaTiMo
_chemical_formula_sum   'Hf40 Zr40 Ta40 Ti40 Mo40'
_cell_volume   3870.51887852
_cell_formula_units_Z   40
loop_
 _symmetry_equiv_pos_site_id
 _symmetry_equiv_pos_as_xyz
  1  'x, y, z'
loop_
 _atom_site_type_symbol
 _atom_site_label
 _atom_site_symmetry_multiplicity
 _atom_site_fract_x
 _atom_site_fract_y
 _atom_site_fract_z
 _atom_site_occupancy
  Hf  Hf0  1  0.51427983  0.09580140  0.13378161  1
  Hf  Hf1  1  0.80435376  0.19550493  0.00950074  1
  Hf  Hf2  1  0.09255624  0.52272291  0.87205312  1
  Hf  Hf3  1  0.60448271  0.79879134  0.25599560  1
  Hf  Hf4  1  0.11091360  0.90739824  0.87456673  1
  Hf  Hf5  1  0.39714162  0.17460567  0.00443930  1
  Hf  Hf6  1  0.30008077  0.70833049  0.13811315  1
  Hf  Hf7  1  -0.01422080  0.61068170  0.25205186  1
  Hf  Hf8  1  0.10284000  0.49410018  0.62326108  1
  Hf  Hf9  1  0.19479828  0.42299467  0.00891876  1
  Hf  Hf10  1  0.51855227  0.89489665  0.61913169  1
  Hf  Hf11  1  0.40746843  0.80656508  0.25595061  1
  Hf  Hf12  1  0.31211098  0.90078262  0.87799117  1
  Hf  Hf13  1  0.40412762  0.79087720  0.74110493  1
  Hf  Hf14  1  0.20926187  0.59917906  0.49215812  1
  Hf  Hf15  1  0.29659770  0.11225128  0.38640339  1
  Hf  Hf16  1  0.79851380  0.40672331  0.25863127  1
  Hf  Hf17  1  0.59594912  0.80539165  -0.00328368  1
  Hf  Hf18  1  0.00330579  0.01648915  0.00247276  1
  Hf  Hf19  1  0.81592414  0.19775296  0.50606239  1
  Hf  Hf20  1  0.08848350  0.11269978  0.62039111  1
  Hf  Hf21  1  0.81491619  0.58909911  0.74943005  1
  Hf  Hf22  1  -0.01653456  0.40658205  0.01034505  1
  Hf  Hf23  1  0.71183820  0.69364171  0.13095889  1
  Hf  Hf24  1  0.90175989  0.09205823  0.36526123  1
  Hf  Hf25  1  0.20133525  0.80478709  0.74741301  1
  Hf  Hf26  1  0.81424820  0.18843851  0.73080172  1
  Hf  Hf27  1  0.79495484  0.00055439  0.00095454  1
  Hf  Hf28  1  0.40004814  0.38743540  0.24546650  1
  Hf  Hf29  1  0.78302613  0.59972286  0.50168974  1
  Hf  Hf30  1  0.71132391  0.69884216  0.86573701  1
  Hf  Hf31  1  0.00289800  0.40613407  0.24071174  1
  Hf  Hf32  1  0.02220313  0.20015117  0.25689391  1
  Hf  Hf33  1  0.39566534  -0.00054252  0.74144903  1
  Hf  Hf34  1  0.01364102  0.79836276  -0.00890837  1
  Hf  Hf35  1  0.50483257  0.28215709  0.88152222  1
  Hf  Hf36  1  0.29341918  0.28927864  0.88453214  1
  Hf  Hf37  1  0.19550299  0.40065761  0.75647433  1
  Hf  Hf38  1  0.00596453  0.60111590  0.01286476  1
  Hf  Hf39  1  -0.01760526  0.40823189  0.74492505  1
  Zr  Zr40  1  0.58794404  0.40864316  0.47977265  1
  Zr  Zr41  1  0.09304357  0.30748147  0.88866366  1
  Zr  Zr42  1  0.60287753  0.19227778  0.74957757  1
  Zr  Zr43  1  0.50860981  0.49045882  0.88783558  1
  Zr  Zr44  1  0.19361901  0.01376936  0.25028411  1
  Zr  Zr45  1  0.60288897  -0.00969215  0.26824470  1
  Zr  Zr46  1  0.30360792  0.90868524  0.38508568  1
  Zr  Zr47  1  0.49839409  0.10513411  0.61382787  1
  Zr  Zr48  1  0.30560509  0.49804791  0.35544948  1
  Zr  Zr49  1  -0.01183406  0.80105481  0.75139812  1
  Zr  Zr50  1  0.39860634  0.00099255  0.25137749  1
  Zr  Zr51  1  0.39845784  0.39459511  0.00857292  1
  Zr  Zr52  1  0.42296195  0.58360096  0.49514935  1
  Zr  Zr53  1  0.40968934  0.40301514  0.75973383  1
  Zr  Zr54  1  0.30076670  0.69510320  0.36029964  1
  Zr  Zr55  1  0.31363472  0.50295240  0.62857365  1
  Zr  Zr56  1  0.40736728  0.79044201  0.49929351  1
  Zr  Zr57  1  0.89469419  0.28633133  0.87528976  1
  Zr  Zr58  1  0.18187903  0.80128123  0.48571360  1
  Zr  Zr59  1  0.68030275  0.49616833  0.62420757  1
  Zr  Zr60  1  0.00037437  0.59646994  0.50053118  1
  Zr  Zr61  1  0.58906011  0.58880852  0.75789382  1
  Zr  Zr62  1  0.78829280  0.39879599  0.00353058  1
  Zr  Zr63  1  0.61015169  0.20565054  0.49345629  1
  Zr  Zr64  1  0.50068110  0.10115212  0.38303573  1
  Zr  Zr65  1  0.60976639  0.59545244  0.00149250  1
  Zr  Zr66  1  0.70190245  0.90592984  0.12803450  1
  Zr  Zr67  1  -0.01440736  0.01673196  0.74870123  1
  Zr  Zr68  1  0.78055466  -0.01892695  0.73625819  1
  Zr  Zr69  1  0.70039959  0.71656372  0.63622009  1
  Zr  Zr70  1  0.30163605  0.30050912  0.62359384  1
  Zr  Zr71  1  0.10414407  0.70515274  0.62388930  1
  Zr  Zr72  1  0.10152069  0.11575837  0.87696885  1
  Zr  Zr73  1  0.48168717  0.70085287  0.87895988  1
  Zr  Zr74  1  0.09089244  0.49654378  0.37539919  1
  Zr  Zr75  1  0.91006699  0.89249156  0.12556609  1
  Zr  Zr76  1  0.59450025  0.01316066  -0.01800024  1
  Zr  Zr77  1  0.18230830  0.21402496  0.49333146  1
  Zr  Zr78  1  0.89085570  0.90222738  0.87748880  1
  Zr  Zr79  1  0.90114121  0.09811547  0.14728017  1
  Ta  Ta80  1  0.39341742  0.59854931  0.01564094  1
  Ta  Ta81  1  0.00615189  0.80330732  0.26229523  1
  Ta  Ta82  1  0.20227799  0.39973977  0.49137813  1
  Ta  Ta83  1  0.80294118  0.78825602  -0.00243697  1
  Ta  Ta84  1  0.20176212  0.19818407  0.74341518  1
  Ta  Ta85  1  0.10080005  0.72434924  0.13033522  1
  Ta  Ta86  1  0.50631949  0.31509503  0.62669281  1
  Ta  Ta87  1  0.50251018  0.49593952  0.13145648  1
  Ta  Ta88  1  0.60384065  0.38760148  0.01245151  1
  Ta  Ta89  1  -0.00027088  0.37535073  0.50444100  1
  Ta  Ta90  1  0.19028302  0.00454883  0.50222792  1
  Ta  Ta91  1  0.21611937  0.01482147  0.00397047  1
  Ta  Ta92  1  0.28919918  0.90352007  0.12141658  1
  Ta  Ta93  1  0.50702521  0.29064200  0.13079910  1
  Ta  Ta94  1  0.61039105  0.78611942  0.48846370  1
  Ta  Ta95  1  0.39434793  0.19234065  0.75236607  1
  Ta  Ta96  1  0.29472557  0.50399816  0.13587566  1
  Ta  Ta97  1  0.29252972  0.28620954  0.11967146  1
  Ta  Ta98  1  0.19335229  0.39194187  0.24078297  1
  Ta  Ta99  1  0.18934999  0.81535904  0.26030581  1
  Ta  Ta100  1  0.08985381  0.90895168  0.62094827  1
  Ta  Ta101  1  0.90621247  0.30033142  0.37100388  1
  Ta  Ta102  1  0.49423844  0.89345356  0.12128389  1
  Ta  Ta103  1  0.69680761  0.49414215  0.13568875  1
  Ta  Ta104  1  0.79556158  0.39296399  0.48814673  1
  Ta  Ta105  1  0.29202223  0.90140394  0.61466458  1
  Ta  Ta106  1  0.70390413  0.30356896  0.62368986  1
  Ta  Ta107  1  0.69531258  0.28995386  0.14615889  1
  Ta  Ta108  1  0.70834570  0.69281818  0.36709148  1
  Ta  Ta109  1  0.50944422  0.68200523  0.36488499  1
  Ta  Ta110  1  0.90178993  0.70688723  0.39060789  1
  Ta  Ta111  1  0.20163389  0.62726718  0.00332207  1
  Ta  Ta112  1  0.88586650  0.51118574  0.13188386  1
  Ta  Ta113  1  0.09793909  0.29800251  0.11402294  1
  Ta  Ta114  1  0.89867081  0.70402822  0.61353828  1
  Ta  Ta115  1  0.81325981  0.79773480  0.25920432  1
  Ta  Ta116  1  0.79651735  -0.00469982  0.50481193  1
  Ta  Ta117  1  0.30340092  0.52008033  0.87790211  1
  Ta  Ta118  1  0.80930358  0.59213606  -0.00791316  1
  Ta  Ta119  1  0.18219281  0.60317617  0.24299962  1
  Ti  Ti120  1  0.59831495  0.59434587  0.24274461  1
  Ti  Ti121  1  0.11737996  0.10975159  0.11745683  1
  Ti  Ti122  1  0.79026521  0.39409682  0.75095756  1
  Ti  Ti123  1  0.50239203  0.69830887  0.12528542  1
  Ti  Ti124  1  0.40183368  -0.00272273  0.50507282  1
  Ti  Ti125  1  0.61088498  0.19791363  0.00219287  1
  Ti  Ti126  1  0.50407168  0.67834293  0.62664653  1
  Ti  Ti127  1  0.00537448  0.60577564  0.73991927  1
  Ti  Ti128  1  0.88852040  0.48844943  0.61190655  1
  Ti  Ti129  1  0.88838415  0.89120858  0.61440509  1
  Ti  Ti130  1  0.29741752  0.10173075  0.61295041  1
  Ti  Ti131  1  0.69775244  0.89608454  0.87644042  1
  Ti  Ti132  1  0.69585722  0.30355389  0.87149217  1
  Ti  Ti133  1  0.69289039  0.08799460  0.61777388  1
  Ti  Ti134  1  0.60686261  0.81339497  0.75671720  1
  Ti  Ti135  1  0.21180391  0.60983504  0.75444290  1
  Ti  Ti136  1  0.40317940  0.21607678  0.49595479  1
  Ti  Ti137  1  0.39768505  0.39401821  0.48195239  1
  Ti  Ti138  1  0.39856965  0.19690219  0.25017454  1
  Ti  Ti139  1  0.21001039  0.20913452  0.25673885  1
  Ti  Ti140  1  0.88861719  0.50336696  0.38145268  1
  Ti  Ti141  1  0.89942897  0.70352798  0.12445984  1
  Ti  Ti142  1  0.01082468  -0.01187532  0.25299864  1
  Ti  Ti143  1  0.20054557  0.00791977  0.73960443  1
  Ti  Ti144  1  0.71736352  0.10554110  0.86937571  1
  Ti  Ti145  1  -0.00446511  0.00631207  0.49904886  1
  Ti  Ti146  1  0.71496076  0.89420016  0.37954624  1
  Ti  Ti147  1  0.58818615  -0.00001245  0.76549572  1
  Ti  Ti148  1  0.71154998  0.09937478  0.36600503  1
  Ti  Ti149  1  0.90355069  0.89816404  0.38386418  1
  Ti  Ti150  1  0.00429827  0.21590693  0.74090766  1
  Ti  Ti151  1  0.60366850  -0.01073781  0.48632415  1
  Ti  Ti152  1  0.69767829  0.29250933  0.35835209  1
  Ti  Ti153  1  0.91463136  0.68865029  0.87435649  1
  Ti  Ti154  1  0.68698673  0.50770189  0.36562926  1
  Ti  Ti155  1  0.40769694  -0.01227198  0.00100603  1
  Ti  Ti156  1  0.38779633  0.79454051  0.00394144  1
  Ti  Ti157  1  0.30470539  0.69873798  0.62042817  1
  Ti  Ti158  1  0.70798138  0.10409341  0.15355780  1
  Ti  Ti159  1  0.89419898  0.29643595  0.13697917  1
  Mo  Mo160  1  0.19893816  0.20093593  0.00597089  1
  Mo  Mo161  1  -0.00786792  0.81132150  0.50164867  1
  Mo  Mo162  1  0.39232639  0.60335378  0.75011892  1
  Mo  Mo163  1  0.79790574  0.60315492  0.25759699  1
  Mo  Mo164  1  0.09950057  0.51103604  0.12918643  1
  Mo  Mo165  1  0.10221369  0.30364538  0.36876494  1
  Mo  Mo166  1  0.80307569  0.79315781  0.74911296  1
  Mo  Mo167  1  0.70903235  0.48767621  0.87332618  1
  Mo  Mo168  1  0.69347631  0.90088797  0.61478453  1
  Mo  Mo169  1  0.48135996  0.09191577  0.87099854  1
  Mo  Mo170  1  0.80476262  -0.01271886  0.26148649  1
  Mo  Mo171  1  0.60888975  0.38681250  0.75300551  1
  Mo  Mo172  1  0.89865156  0.30334150  0.62334660  1
  Mo  Mo173  1  0.50188221  0.89793929  0.86990051  1
  Mo  Mo174  1  0.59785229  0.39769703  0.25338372  1
  Mo  Mo175  1  0.40403519  0.60138033  0.23019850  1
  Mo  Mo176  1  0.30053617  0.30096603  0.37256581  1
  Mo  Mo177  1  0.89712137  0.10632597  0.87690300  1
  Mo  Mo178  1  0.59863584  0.60366288  0.49294253  1
  Mo  Mo179  1  0.09768355  0.30621297  0.63040226  1
  Mo  Mo180  1  0.49910182  0.49043210  0.62624530  1
  Mo  Mo181  1  0.10531431  0.70149274  0.86870122  1
  Mo  Mo182  1  0.89534940  0.50352207  0.87280444  1
  Mo  Mo183  1  0.09651011  0.09510688  0.38049692  1
  Mo  Mo184  1  0.20384575  0.81193918  0.00255305  1
  Mo  Mo185  1  0.09411827  0.70546776  0.36913924  1
  Mo  Mo186  1  0.89913237  0.08883244  0.61538980  1
  Mo  Mo187  1  0.59621385  0.20015624  0.26012288  1
  Mo  Mo188  1  0.80497083  0.20284740  0.25859395  1
  Mo  Mo189  1  0.10351726  0.90735685  0.12343233  1
  Mo  Mo190  1  0.49451548  0.29691058  0.36518136  1
  Mo  Mo191  1  0.79966411  0.80262531  0.49175806  1
  Mo  Mo192  1  -0.00419279  0.20297432  0.01719391  1
  Mo  Mo193  1  0.08806199  0.91289437  0.38230890  1
  Mo  Mo194  1  0.50779752  0.88844097  0.39276978  1
  Mo  Mo195  1  -0.00486948  0.19822797  0.48994480  1
  Mo  Mo196  1  0.28896676  0.70104873  0.87993422  1
  Mo  Mo197  1  0.50341968  0.50036841  0.34941591  1
  Mo  Mo198  1  0.29440673  0.09476518  0.86755560  1
  Mo  Mo199  1  0.30553527  0.10128271  0.13056474  1
