# generated using pymatgen
data_HfZrTaTiMo
_symmetry_space_group_name_H-M   'P 1'
_cell_length_a   15.21599211
_cell_length_b   15.21456558
_cell_length_c   16.84709946
_cell_angle_alpha   89.99716777
_cell_angle_beta   89.98944426
_cell_angle_gamma   89.79541784
_symmetry_Int_Tables_number   1
_chemical_formula_structural   HfZrTaTiMo
_chemical_formula_sum   'Hf40 Zr40 Ta40 Ti40 Mo40'
_cell_volume   3900.15793866
_cell_formula_units_Z   40
loop_
 _symmetry_equiv_pos_site_id
 _symmetry_equiv_pos_as_xyz
  1  'x, y, z'
loop_
 _atom_site_type_symbol
 _atom_site_label
 _atom_site_symmetry_multiplicity
 _atom_site_fract_x
 _atom_site_fract_y
 _atom_site_fract_z
 _atom_site_occupancy
  Hf  Hf0  1  0.30199772  0.09768996  0.61923873  1
  Hf  Hf1  1  0.79306275  0.79559885  0.00308748  1
  Hf  Hf2  1  0.09534743  0.51024586  0.11925567  1
  Hf  Hf3  1  0.18414644  0.00933287  0.00510745  1
  Hf  Hf4  1  0.69717380  0.89953086  0.36248876  1
  Hf  Hf5  1  0.27041477  0.12071714  0.38425698  1
  Hf  Hf6  1  0.39720518  0.79611004  0.49833350  1
  Hf  Hf7  1  0.49721605  0.90141445  0.14403664  1
  Hf  Hf8  1  0.70183657  0.90351551  0.63129250  1
  Hf  Hf9  1  0.19321365  0.61770987  0.48535864  1
  Hf  Hf10  1  0.50891057  0.50692597  0.11032719  1
  Hf  Hf11  1  0.20379549  0.19963480  0.74577360  1
  Hf  Hf12  1  0.39562247  0.58152317  0.75266726  1
  Hf  Hf13  1  0.90718334  0.49827734  0.62800374  1
  Hf  Hf14  1  0.19363023  0.80782370  0.01900292  1
  Hf  Hf15  1  0.09933681  0.49712694  0.36981816  1
  Hf  Hf16  1  0.90047159  0.90138939  0.87518078  1
  Hf  Hf17  1  0.39230004  0.79127963  0.25521262  1
  Hf  Hf18  1  0.11442271  0.50417295  0.61770672  1
  Hf  Hf19  1  0.70168008  0.30778343  0.11742143  1
  Hf  Hf20  1  0.70390296  0.70552639  0.37266046  1
  Hf  Hf21  1  -0.00646501  0.20550613  0.74870060  1
  Hf  Hf22  1  0.02080932  -0.01468761  0.50233426  1
  Hf  Hf23  1  0.59124846  0.80226045  0.75335512  1
  Hf  Hf24  1  0.68679200  0.50708961  0.85901202  1
  Hf  Hf25  1  0.40021873  0.00388898  0.48971833  1
  Hf  Hf26  1  0.38900834  0.21450869  0.26159110  1
  Hf  Hf27  1  0.29402884  0.89627083  0.87244920  1
  Hf  Hf28  1  0.28568298  0.69315759  0.62450341  1
  Hf  Hf29  1  0.81252407  -0.00357666  0.24249249  1
  Hf  Hf30  1  0.89964011  0.10298631  0.87470708  1
  Hf  Hf31  1  0.59294760  0.02560175  0.74646470  1
  Hf  Hf32  1  0.20853358  0.42156562  0.75368383  1
  Hf  Hf33  1  0.90539592  0.28952373  0.38218517  1
  Hf  Hf34  1  0.50550324  0.31706701  0.38563781  1
  Hf  Hf35  1  0.02879973  0.19002893  0.50014683  1
  Hf  Hf36  1  0.29213336  0.89629734  0.62453255  1
  Hf  Hf37  1  0.09242181  0.89520934  0.86708426  1
  Hf  Hf38  1  0.68939479  0.69254808  0.12208720  1
  Hf  Hf39  1  0.41706894  0.18954664  0.75078285  1
  Zr  Zr40  1  0.90029937  0.09517171  0.61853851  1
  Zr  Zr41  1  0.09883706  0.87957002  0.64121965  1
  Zr  Zr42  1  0.10423540  0.29802671  0.87640665  1
  Zr  Zr43  1  0.68846004  0.89818483  0.13488192  1
  Zr  Zr44  1  0.21125451  0.38935330  0.25477181  1
  Zr  Zr45  1  0.40885080  0.40849163  0.25236357  1
  Zr  Zr46  1  0.49505153  0.29643581  0.11787436  1
  Zr  Zr47  1  0.90179856  0.30097654  0.61598915  1
  Zr  Zr48  1  0.39363366  0.59802886  0.25431173  1
  Zr  Zr49  1  0.30889633  0.30167046  0.87716902  1
  Zr  Zr50  1  0.00340246  0.38705236  0.24937728  1
  Zr  Zr51  1  0.60644587  0.80435769  0.50945887  1
  Zr  Zr52  1  0.30086947  0.49207412  0.10903534  1
  Zr  Zr53  1  0.82080070  0.20130555  0.24216129  1
  Zr  Zr54  1  0.68975595  0.49796821  0.38382345  1
  Zr  Zr55  1  0.69616242  0.90639008  0.87111861  1
  Zr  Zr56  1  0.09652488  0.68979154  0.90101009  1
  Zr  Zr57  1  0.70759843  0.10705427  0.36887779  1
  Zr  Zr58  1  0.58547181  0.00680355  -0.00211984  1
  Zr  Zr59  1  0.30639818  0.69502411  0.89356564  1
  Zr  Zr60  1  0.27461762  0.90958732  0.37617255  1
  Zr  Zr61  1  0.00044678  0.40596887  -0.01238439  1
  Zr  Zr62  1  0.69754309  0.10356356  0.13067363  1
  Zr  Zr63  1  0.18038564  0.80139071  0.23577318  1
  Zr  Zr64  1  0.90298765  0.88733153  0.37552711  1
  Zr  Zr65  1  0.81354262  0.39235658  0.76118458  1
  Zr  Zr66  1  0.59540296  0.60113727  0.25020257  1
  Zr  Zr67  1  0.79818263  0.39739853  0.24839486  1
  Zr  Zr68  1  0.02256542  0.60770134  0.75273278  1
  Zr  Zr69  1  0.29724768  0.11589058  0.13447813  1
  Zr  Zr70  1  0.79677072  0.61361488  0.50595087  1
  Zr  Zr71  1  0.57488271  0.79753504  -0.01440978  1
  Zr  Zr72  1  0.41055997  0.17847772  -0.00552350  1
  Zr  Zr73  1  0.30035655  0.90970218  0.13405911  1
  Zr  Zr74  1  -0.00348271  0.59570302  0.49707780  1
  Zr  Zr75  1  0.69605092  0.50210968  0.63551760  1
  Zr  Zr76  1  0.70597778  0.28936333  0.87152991  1
  Zr  Zr77  1  0.80459135  0.40489998  -0.01218367  1
  Zr  Zr78  1  0.68791930  0.29431905  0.62795387  1
  Zr  Zr79  1  0.59929666  0.00736143  0.50101900  1
  Ta  Ta80  1  0.89550806  0.49731325  0.37444661  1
  Ta  Ta81  1  0.80801945  -0.00049890  0.00995136  1
  Ta  Ta82  1  0.81373040  0.19646463  0.00510473  1
  Ta  Ta83  1  0.80167081  -0.00880476  0.50059328  1
  Ta  Ta84  1  0.49395650  0.48813285  0.61201888  1
  Ta  Ta85  1  0.20516427  0.20044133  -0.00514988  1
  Ta  Ta86  1  0.19733230  0.60553951  0.25159678  1
  Ta  Ta87  1  0.00900326  0.39327484  0.49165247  1
  Ta  Ta88  1  0.92631577  0.08729115  0.11849074  1
  Ta  Ta89  1  -0.00644831  0.81314373  0.02099041  1
  Ta  Ta90  1  0.59908477  0.21151010  0.25551692  1
  Ta  Ta91  1  0.29991878  0.69117604  0.11046700  1
  Ta  Ta92  1  0.39740886  0.21192816  0.49622275  1
  Ta  Ta93  1  0.70107459  0.69875589  0.86180683  1
  Ta  Ta94  1  0.30844279  0.30814998  0.62115417  1
  Ta  Ta95  1  0.00716283  0.40831528  0.76734986  1
  Ta  Ta96  1  0.10656557  0.30610149  0.62987986  1
  Ta  Ta97  1  0.89884988  0.89061421  0.62232362  1
  Ta  Ta98  1  0.49501842  0.69299504  0.63236648  1
  Ta  Ta99  1  0.80094026  0.00402237  0.74410170  1
  Ta  Ta100  1  0.80399140  0.78805569  0.23681799  1
  Ta  Ta101  1  0.80592512  0.59573388  0.24732274  1
  Ta  Ta102  1  0.50180057  0.70189491  0.38050967  1
  Ta  Ta103  1  0.70241779  0.70120066  0.64377361  1
  Ta  Ta104  1  0.50172584  0.89951778  0.36138389  1
  Ta  Ta105  1  0.11467891  0.29432722  0.11624079  1
  Ta  Ta106  1  0.39313486  0.79362856  0.74793468  1
  Ta  Ta107  1  0.57946066  0.39821396  0.75129396  1
  Ta  Ta108  1  0.90462861  0.69485895  0.36495088  1
  Ta  Ta109  1  0.80076775  0.40012581  0.49799241  1
  Ta  Ta110  1  0.70058480  0.10070433  0.88013597  1
  Ta  Ta111  1  0.81249803  0.60643557  0.75565858  1
  Ta  Ta112  1  0.51042482  0.29538390  0.87708411  1
  Ta  Ta113  1  0.59091880  0.60698382  0.51122834  1
  Ta  Ta114  1  0.48652457  0.90714704  0.63471046  1
  Ta  Ta115  1  0.01196372  0.78488130  0.49495196  1
  Ta  Ta116  1  0.90779823  0.70832944  0.63155417  1
  Ta  Ta117  1  0.59901364  0.20750547  0.49837010  1
  Ta  Ta118  1  0.90078485  0.68588166  0.11901264  1
  Ta  Ta119  1  0.60211959  0.40291684  0.24747326  1
  Ti  Ti120  1  0.00887084  0.19016929  -0.00394186  1
  Ti  Ti121  1  0.30699693  0.50076649  0.38870832  1
  Ti  Ti122  1  0.70089663  0.30375780  0.38108932  1
  Ti  Ti123  1  0.49660234  0.50848895  0.39815882  1
  Ti  Ti124  1  0.30811102  0.08919583  0.87088747  1
  Ti  Ti125  1  0.02306584  0.18607458  0.25574510  1
  Ti  Ti126  1  0.00165853  0.60649095  0.24870301  1
  Ti  Ti127  1  0.48216354  0.91098431  0.86144067  1
  Ti  Ti128  1  0.29231187  0.70459825  0.37657242  1
  Ti  Ti129  1  0.70527163  0.50329313  0.11742136  1
  Ti  Ti130  1  0.90980619  0.09051674  0.38170487  1
  Ti  Ti131  1  0.40174912  0.39204780  0.75097806  1
  Ti  Ti132  1  0.39506099  -0.01496284  -0.00018818  1
  Ti  Ti133  1  0.80357764  0.59608770  -0.01370894  1
  Ti  Ti134  1  0.30762515  0.50022440  0.60629161  1
  Ti  Ti135  1  0.18986704  0.77048835  0.75804930  1
  Ti  Ti136  1  0.18196991  0.01842556  0.24496878  1
  Ti  Ti137  1  0.60640062  0.19905212  0.00015605  1
  Ti  Ti138  1  0.20327307  0.00081769  0.74977543  1
  Ti  Ti139  1  0.50191213  0.09568401  0.14661130  1
  Ti  Ti140  1  0.60013945  0.59860589  -0.01191947  1
  Ti  Ti141  1  0.80827684  0.80258090  0.75449202  1
  Ti  Ti142  1  0.78774363  0.18682096  0.74276223  1
  Ti  Ti143  1  0.90219986  0.70316749  0.88070552  1
  Ti  Ti144  1  0.91634183  0.29214810  0.11838903  1
  Ti  Ti145  1  0.00696240  -0.00864163  0.25316372  1
  Ti  Ti146  1  0.79597785  0.19225294  0.50179035  1
  Ti  Ti147  1  -0.00541199  0.79940258  0.23163968  1
  Ti  Ti148  1  0.89652447  0.49688431  0.12362082  1
  Ti  Ti149  1  0.50291349  0.10710198  0.37204116  1
  Ti  Ti150  1  0.29444883  0.50514476  0.89670978  1
  Ti  Ti151  1  0.10181176  0.09276481  0.86794784  1
  Ti  Ti152  1  -0.00055448  0.00077928  0.74029804  1
  Ti  Ti153  1  0.50083709  0.68276195  0.86618381  1
  Ti  Ti154  1  0.60036636  0.40356794  -0.01261588  1
  Ti  Ti155  1  0.49024517  0.70395211  0.11662144  1
  Ti  Ti156  1  0.39418598  0.00927106  0.26710696  1
  Ti  Ti157  1  0.40618757  0.39717743  -0.00780805  1
  Ti  Ti158  1  0.50730121  0.11504331  0.61615104  1
  Ti  Ti159  1  0.20201592  0.38360400  0.49055035  1
  Mo  Mo160  1  0.18706300  0.81044636  0.49299051  1
  Mo  Mo161  1  0.49245966  0.30174764  0.61940757  1
  Mo  Mo162  1  0.09864292  0.08610148  0.37271815  1
  Mo  Mo163  1  0.39617753  -0.00683062  0.74830581  1
  Mo  Mo164  1  0.09808044  0.11175395  0.12333897  1
  Mo  Mo165  1  0.11207494  0.50374095  0.88665458  1
  Mo  Mo166  1  0.30050739  0.30151638  0.10938181  1
  Mo  Mo167  1  0.09634929  0.89480194  0.36965522  1
  Mo  Mo168  1  0.30097937  0.30966729  0.38728733  1
  Mo  Mo169  1  0.10750148  0.09700704  0.63959244  1
  Mo  Mo170  1  -0.01655173  0.60257340  0.00227567  1
  Mo  Mo171  1  0.20443219  0.39513136  0.00086546  1
  Mo  Mo172  1  0.90501118  0.29340234  0.87764778  1
  Mo  Mo173  1  0.09227976  0.70657910  0.36119348  1
  Mo  Mo174  1  0.41197792  0.60315148  -0.00460830  1
  Mo  Mo175  1  0.39529582  0.40526851  0.49973362  1
  Mo  Mo176  1  0.59386658  0.60033636  0.74348933  1
  Mo  Mo177  1  0.81030866  0.80042889  0.50644220  1
  Mo  Mo178  1  0.09979088  0.70016337  0.62441748  1
  Mo  Mo179  1  0.48985423  0.49206577  0.88022654  1
  Mo  Mo180  1  -0.01198263  0.79590751  0.75572083  1
  Mo  Mo181  1  0.90533223  0.51449200  0.86899509  1
  Mo  Mo182  1  0.89484412  0.89687880  0.12637624  1
  Mo  Mo183  1  0.59361971  0.79522318  0.25386172  1
  Mo  Mo184  1  -0.00223069  0.00290603  -0.00613067  1
  Mo  Mo185  1  0.20153030  0.20417583  0.51851519  1
  Mo  Mo186  1  0.11281692  0.28477220  0.37649691  1
  Mo  Mo187  1  0.58962913  0.01178840  0.25911279  1
  Mo  Mo188  1  0.21085757  0.59708281  0.75462170  1
  Mo  Mo189  1  0.08130086  0.92059633  0.12782551  1
  Mo  Mo190  1  0.19125789  0.21153124  0.25044951  1
  Mo  Mo191  1  0.19184718  0.00728673  0.50868442  1
  Mo  Mo192  1  0.40090434  0.80599011  0.00280764  1
  Mo  Mo193  1  0.50586151  0.09894800  0.87759658  1
  Mo  Mo194  1  0.39965397  0.60654807  0.49708096  1
  Mo  Mo195  1  0.70239567  0.10015846  0.61671495  1
  Mo  Mo196  1  0.59977703  0.20570215  0.74860269  1
  Mo  Mo197  1  0.19522150  0.59614983  0.00924162  1
  Mo  Mo198  1  0.09282559  0.69847538  0.11921818  1
  Mo  Mo199  1  0.60369998  0.40288386  0.50537334  1
