# generated using pymatgen
data_HfZrTaTiMo
_symmetry_space_group_name_H-M   'P 1'
_cell_length_a   15.21926125
_cell_length_b   15.21547460
_cell_length_c   16.84311961
_cell_angle_alpha   90.04551237
_cell_angle_beta   89.96516758
_cell_angle_gamma   89.96352273
_symmetry_Int_Tables_number   1
_chemical_formula_structural   HfZrTaTiMo
_chemical_formula_sum   'Hf40 Zr40 Ta40 Ti40 Mo40'
_cell_volume   3900.32954525
_cell_formula_units_Z   40
loop_
 _symmetry_equiv_pos_site_id
 _symmetry_equiv_pos_as_xyz
  1  'x, y, z'
loop_
 _atom_site_type_symbol
 _atom_site_label
 _atom_site_symmetry_multiplicity
 _atom_site_fract_x
 _atom_site_fract_y
 _atom_site_fract_z
 _atom_site_occupancy
  Hf  Hf0  1  0.09045146  0.09580335  0.62660554  1
  Hf  Hf1  1  0.19756140  0.79564460  0.25759724  1
  Hf  Hf2  1  0.39531055  0.18784924  0.52084831  1
  Hf  Hf3  1  0.19631034  0.40619621  0.25085302  1
  Hf  Hf4  1  0.89679883  0.89641320  0.38801231  1
  Hf  Hf5  1  0.29619921  0.30090685  0.39075894  1
  Hf  Hf6  1  0.61499283  0.78635133  0.75930539  1
  Hf  Hf7  1  0.58923310  0.40768647  0.74508030  1
  Hf  Hf8  1  0.89102022  0.51222456  0.64482356  1
  Hf  Hf9  1  0.59815171  0.00939626  0.74962185  1
  Hf  Hf10  1  0.60165123  0.19456373  0.01250732  1
  Hf  Hf11  1  0.49509792  0.30072352  0.13219531  1
  Hf  Hf12  1  0.87508261  0.71185399  0.62802339  1
  Hf  Hf13  1  0.10113487  0.69576834  0.12062975  1
  Hf  Hf14  1  0.08273647  0.68352021  0.63557889  1
  Hf  Hf15  1  0.59316713  0.39394253  -0.00196741  1
  Hf  Hf16  1  -0.01653962  0.20161963  0.25364491  1
  Hf  Hf17  1  0.59985303  0.60083856  -0.01121963  1
  Hf  Hf18  1  0.72223847  0.30231894  0.12292020  1
  Hf  Hf19  1  0.80719767  0.80497367  0.24932088  1
  Hf  Hf20  1  0.39316939  0.40076657  0.25320082  1
  Hf  Hf21  1  0.30305051  0.10185551  0.37363787  1
  Hf  Hf22  1  0.80322574  0.20742296  0.50635016  1
  Hf  Hf23  1  0.29433665  0.49928764  0.61216399  1
  Hf  Hf24  1  0.09959250  0.89808023  0.61834169  1
  Hf  Hf25  1  0.69424350  0.90810751  0.38126033  1
  Hf  Hf26  1  0.09088084  0.49953123  0.38294945  1
  Hf  Hf27  1  0.20243914  0.58076534  -0.01056084  1
  Hf  Hf28  1  0.30597522  0.68399014  0.12759359  1
  Hf  Hf29  1  0.40302620  0.00404530  -0.00934513  1
  Hf  Hf30  1  0.41518462  0.18810359  0.72618806  1
  Hf  Hf31  1  0.52025261  0.68120033  0.62784940  1
  Hf  Hf32  1  0.09408643  0.30056734  0.37907874  1
  Hf  Hf33  1  0.70539606  0.90912347  0.11864151  1
  Hf  Hf34  1  0.09511518  0.69700049  0.86366541  1
  Hf  Hf35  1  0.70574337  0.10794352  0.86506954  1
  Hf  Hf36  1  0.21120556  0.79229390  -0.00961333  1
  Hf  Hf37  1  0.90909460  0.92814080  0.11024548  1
  Hf  Hf38  1  0.50019836  0.27878433  0.37853334  1
  Hf  Hf39  1  0.89841315  0.49532065  0.11221374  1
  Zr  Zr40  1  0.80365296  0.80358475  -0.01425118  1
  Zr  Zr41  1  0.59667311  0.59741196  0.24976398  1
  Zr  Zr42  1  0.29524463  0.89221586  0.38474689  1
  Zr  Zr43  1  0.09061439  0.09518802  0.11695831  1
  Zr  Zr44  1  0.30849455  0.28910836  0.87426594  1
  Zr  Zr45  1  0.10479835  0.89896884  0.39740561  1
  Zr  Zr46  1  0.19951098  0.58846480  0.74775052  1
  Zr  Zr47  1  0.60532968  0.00529260  -0.00676497  1
  Zr  Zr48  1  0.69538501  0.69997574  0.11505116  1
  Zr  Zr49  1  0.29711770  0.89733458  0.86655964  1
  Zr  Zr50  1  0.39670668  0.79400066  0.73874815  1
  Zr  Zr51  1  0.80697800  0.02304405  0.25603080  1
  Zr  Zr52  1  -0.00447313  0.20653214  0.50120274  1
  Zr  Zr53  1  -0.01837412  0.81165133  0.76027013  1
  Zr  Zr54  1  0.40578763  0.58646023  0.74361629  1
  Zr  Zr55  1  0.39016009  0.38533164  0.73178657  1
  Zr  Zr56  1  0.60337226  0.80022195  0.49993501  1
  Zr  Zr57  1  0.30190941  0.89111742  0.12579745  1
  Zr  Zr58  1  0.59530439  0.01328223  0.24737272  1
  Zr  Zr59  1  0.11348021  0.10216658  0.86838319  1
  Zr  Zr60  1  0.41802795  -0.00586829  0.49546485  1
  Zr  Zr61  1  0.90681002  0.08628941  0.86398501  1
  Zr  Zr62  1  0.90748757  0.70649045  0.11784840  1
  Zr  Zr63  1  0.19600465  0.19452514  0.24895103  1
  Zr  Zr64  1  0.30330927  0.09349062  0.12926603  1
  Zr  Zr65  1  0.48729468  0.51235048  0.12546524  1
  Zr  Zr66  1  0.69332003  0.31086252  0.38153227  1
  Zr  Zr67  1  0.59778059  0.80166954  0.25582820  1
  Zr  Zr68  1  0.50642490  0.48349143  0.38438610  1
  Zr  Zr69  1  0.90258273  0.92143839  0.61671491  1
  Zr  Zr70  1  0.70385432  0.31840131  0.62702074  1
  Zr  Zr71  1  0.50123357  0.69077066  0.38524543  1
  Zr  Zr72  1  0.80591391  0.59677683  0.24578821  1
  Zr  Zr73  1  0.01338570  0.00105966  0.26582423  1
  Zr  Zr74  1  0.10576127  0.89771580  0.12379419  1
  Zr  Zr75  1  0.39723691  0.79024912  0.51470239  1
  Zr  Zr76  1  0.48499023  0.48603506  0.87724564  1
  Zr  Zr77  1  -0.00241740  0.40041949  -0.01012370  1
  Zr  Zr78  1  0.71055713  0.89104870  0.62670633  1
  Zr  Zr79  1  0.49435076  0.89971670  0.12034553  1
  Ta  Ta80  1  0.18813293  0.39323183  0.51179687  1
  Ta  Ta81  1  0.00678597  0.59501837  0.25192852  1
  Ta  Ta82  1  0.19601475  0.38877060  -0.00228009  1
  Ta  Ta83  1  0.09476479  0.30246320  0.63075687  1
  Ta  Ta84  1  0.49454956  0.70137710  0.87268784  1
  Ta  Ta85  1  0.50061072  0.11996680  0.86807435  1
  Ta  Ta86  1  0.19887311  0.79626181  0.73773127  1
  Ta  Ta87  1  0.89787405  0.29671123  0.86055498  1
  Ta  Ta88  1  0.59734347  0.19359554  0.51691291  1
  Ta  Ta89  1  0.80658405  0.20383836  -0.00756692  1
  Ta  Ta90  1  0.38224308  0.40462782  0.00497305  1
  Ta  Ta91  1  0.29139855  0.68540715  0.38686724  1
  Ta  Ta92  1  0.10481483  0.49846809  0.12331138  1
  Ta  Ta93  1  0.40159538  0.79014801  0.26222432  1
  Ta  Ta94  1  0.71756903  0.91112149  0.86589773  1
  Ta  Ta95  1  0.62244276  0.58384709  0.50348664  1
  Ta  Ta96  1  -0.00765746  0.40276255  0.24382878  1
  Ta  Ta97  1  0.00723097  0.81091655  -0.01658434  1
  Ta  Ta98  1  0.79183740  0.41157186  0.76625516  1
  Ta  Ta99  1  0.09781867  0.69568910  0.38372353  1
  Ta  Ta100  1  0.21123735  0.20134697  0.73159074  1
  Ta  Ta101  1  0.70125521  0.49687165  0.11516009  1
  Ta  Ta102  1  0.89254885  0.32193210  0.37914068  1
  Ta  Ta103  1  0.71635117  0.50318021  0.37503647  1
  Ta  Ta104  1  0.68423449  0.29618166  0.86488398  1
  Ta  Ta105  1  0.39285345  0.60423250  -0.00946939  1
  Ta  Ta106  1  0.19583523  0.39371300  0.74126467  1
  Ta  Ta107  1  0.09210598  0.30132377  0.12183046  1
  Ta  Ta108  1  -0.00577143  0.78576905  0.50202962  1
  Ta  Ta109  1  0.90259409  0.68775066  0.37969967  1
  Ta  Ta110  1  0.29224031  0.30324197  0.12211530  1
  Ta  Ta111  1  0.79547903  0.39976547  -0.02321211  1
  Ta  Ta112  1  0.50442198  0.90349525  0.63646621  1
  Ta  Ta113  1  0.40210330  -0.00890268  0.26317399  1
  Ta  Ta114  1  0.90356960  0.50926693  0.86566214  1
  Ta  Ta115  1  0.00003611  0.20208165  -0.00599567  1
  Ta  Ta116  1  0.10197544  0.29730774  0.86345183  1
  Ta  Ta117  1  0.78139060  0.61954409  0.77119424  1
  Ta  Ta118  1  0.59264510  0.80668512  -0.01796357  1
  Ta  Ta119  1  0.60780570  0.19812108  0.23874303  1
  Ti  Ti120  1  0.60934260  0.40051299  0.24377179  1
  Ti  Ti121  1  -0.01240503  0.59121397  0.50375473  1
  Ti  Ti122  1  0.19956792  0.78424323  0.51731781  1
  Ti  Ti123  1  0.79865970  0.20946962  0.25503707  1
  Ti  Ti124  1  0.40404630  0.59440526  0.50779892  1
  Ti  Ti125  1  0.10897976  0.10233300  0.38640559  1
  Ti  Ti126  1  0.70882560  0.09769105  0.63279736  1
  Ti  Ti127  1  0.30761402  0.09593385  0.86262626  1
  Ti  Ti128  1  0.49706065  0.90507000  0.86437289  1
  Ti  Ti129  1  0.80006075  0.59641461  -0.01754974  1
  Ti  Ti130  1  0.19713909  0.00019502  -0.00729644  1
  Ti  Ti131  1  0.71290085  0.70034249  0.38145488  1
  Ti  Ti132  1  0.41130721  0.39181979  0.51442922  1
  Ti  Ti133  1  -0.00212363  0.60567056  -0.00999082  1
  Ti  Ti134  1  0.20061668  0.59565372  0.25691501  1
  Ti  Ti135  1  0.00283932  0.19898098  0.74678944  1
  Ti  Ti136  1  0.00101091  0.79198720  0.25906923  1
  Ti  Ti137  1  0.38894917  0.59532976  0.26231068  1
  Ti  Ti138  1  0.49361017  0.71088638  0.11431554  1
  Ti  Ti139  1  -0.00988790  0.01601734  0.49086923  1
  Ti  Ti140  1  0.30205155  0.69023301  0.86766890  1
  Ti  Ti141  1  0.09551195  0.91213071  0.86727297  1
  Ti  Ti142  1  0.80669309  0.40217101  0.24833617  1
  Ti  Ti143  1  0.30260976  0.90229254  0.62686800  1
  Ti  Ti144  1  0.60239312  0.00775311  0.50520500  1
  Ti  Ti145  1  -0.01216579  0.40453228  0.51361438  1
  Ti  Ti146  1  0.79843616  0.20244432  0.74407418  1
  Ti  Ti147  1  0.90065247  0.30424084  0.64073682  1
  Ti  Ti148  1  0.20312975  0.20014042  0.00025183  1
  Ti  Ti149  1  0.40339223  0.20314956  0.00465921  1
  Ti  Ti150  1  0.21152307  0.01457046  0.51213624  1
  Ti  Ti151  1  0.00156834  0.40575497  0.75072638  1
  Ti  Ti152  1  0.20537609  -0.00126974  0.74136809  1
  Ti  Ti153  1  0.79559080  0.42887032  0.50673276  1
  Ti  Ti154  1  0.29704648  0.49803616  0.39560847  1
  Ti  Ti155  1  0.18623446  0.59716258  0.50909110  1
  Ti  Ti156  1  0.69274460  0.11484228  0.38122198  1
  Ti  Ti157  1  0.41154776  0.18619257  0.24651821  1
  Ti  Ti158  1  0.10075336  0.49259236  0.86851641  1
  Ti  Ti159  1  0.79760264  0.01611371  0.49603118  1
  Mo  Mo160  1  0.71314964  0.10390274  0.12330334  1
  Mo  Mo161  1  0.29261166  0.49587333  0.12742088  1
  Mo  Mo162  1  0.90470533  0.30181637  0.11897536  1
  Mo  Mo163  1  0.80290314  0.79911988  0.48965361  1
  Mo  Mo164  1  -0.01063167  0.59556157  0.75800922  1
  Mo  Mo165  1  0.88881887  0.12421377  0.11548715  1
  Mo  Mo166  1  0.69578077  0.70341772  0.88688109  1
  Mo  Mo167  1  0.49825457  0.28979115  0.87804789  1
  Mo  Mo168  1  0.28794343  0.48830172  0.87379345  1
  Mo  Mo169  1  0.70440485  0.69246909  0.62663957  1
  Mo  Mo170  1  0.49640112  0.10401062  0.12558325  1
  Mo  Mo171  1  0.01038152  0.00363159  0.74465137  1
  Mo  Mo172  1  0.51414225  0.08862154  0.62702964  1
  Mo  Mo173  1  0.88995073  0.11228474  0.37970908  1
  Mo  Mo174  1  0.60330554  0.59374062  0.76439972  1
  Mo  Mo175  1  0.69812292  0.49720561  0.87934533  1
  Mo  Mo176  1  0.19597939  0.19761896  0.51405413  1
  Mo  Mo177  1  0.80892088  0.00020532  0.74358662  1
  Mo  Mo178  1  0.20632918  0.00221944  0.26089297  1
  Mo  Mo179  1  0.79929543  0.80788808  0.76550267  1
  Mo  Mo180  1  0.39877638  -0.00251545  0.75175614  1
  Mo  Mo181  1  0.40591041  0.79163541  -0.01432687  1
  Mo  Mo182  1  0.60453492  0.39785495  0.50620027  1
  Mo  Mo183  1  0.80094645  0.01554976  0.00011722  1
  Mo  Mo184  1  0.90266823  0.49503065  0.37564073  1
  Mo  Mo185  1  0.90113180  0.70051452  0.88289810  1
  Mo  Mo186  1  0.90687735  0.90940976  0.88364173  1
  Mo  Mo187  1  0.50004977  0.90107133  0.37136651  1
  Mo  Mo188  1  0.50693718  0.29845382  0.61331023  1
  Mo  Mo189  1  0.08570633  0.49043351  0.62103962  1
  Mo  Mo190  1  0.00525934  0.00537736  -0.00466632  1
  Mo  Mo191  1  0.80717659  0.60536792  0.49727199  1
  Mo  Mo192  1  0.29748580  0.08366316  0.63115848  1
  Mo  Mo193  1  0.69844971  0.52245484  0.63451850  1
  Mo  Mo194  1  0.60648455  0.20597118  0.73817478  1
  Mo  Mo195  1  0.29433565  0.69521754  0.61776722  1
  Mo  Mo196  1  0.89383641  0.11196765  0.63838245  1
  Mo  Mo197  1  0.50929924  0.49149473  0.61010854  1
  Mo  Mo198  1  0.51141357  0.10098236  0.37609328  1
  Mo  Mo199  1  0.29154594  0.29413133  0.61213780  1
