# generated using pymatgen
data_HfZrTaTiMo
_symmetry_space_group_name_H-M   'P 1'
_cell_length_a   15.20907884
_cell_length_b   15.21124220
_cell_length_c   16.84988789
_cell_angle_alpha   89.98973602
_cell_angle_beta   89.97856980
_cell_angle_gamma   90.07603827
_symmetry_Int_Tables_number   1
_chemical_formula_structural   HfZrTaTiMo
_chemical_formula_sum   'Hf40 Zr40 Ta40 Ti40 Mo40'
_cell_volume   3898.20063938
_cell_formula_units_Z   40
loop_
 _symmetry_equiv_pos_site_id
 _symmetry_equiv_pos_as_xyz
  1  'x, y, z'
loop_
 _atom_site_type_symbol
 _atom_site_label
 _atom_site_symmetry_multiplicity
 _atom_site_fract_x
 _atom_site_fract_y
 _atom_site_fract_z
 _atom_site_occupancy
  Hf  Hf0  1  0.51448039  0.30262130  0.36653476  1
  Hf  Hf1  1  0.10168356  0.69105634  0.63983902  1
  Hf  Hf2  1  0.89021365  0.90584709  0.12073495  1
  Hf  Hf3  1  0.79591606  0.00928859  0.25703121  1
  Hf  Hf4  1  0.39737473  0.01152529  0.74973113  1
  Hf  Hf5  1  0.09235078  0.68058235  0.85823507  1
  Hf  Hf6  1  -0.01446152  0.17984638  0.52241119  1
  Hf  Hf7  1  0.20245567  0.00197939  -0.01504835  1
  Hf  Hf8  1  0.01290114  0.38748514  -0.00060834  1
  Hf  Hf9  1  0.71894367  0.30563392  0.37216368  1
  Hf  Hf10  1  0.09891526  0.48895046  0.38061330  1
  Hf  Hf11  1  0.40094102  0.61260271  0.00943879  1
  Hf  Hf12  1  0.90689129  0.91302705  0.38153459  1
  Hf  Hf13  1  0.40166971  0.59452328  0.49077392  1
  Hf  Hf14  1  0.80160350  0.21824809  0.51130560  1
  Hf  Hf15  1  0.90015566  0.70119485  0.37768549  1
  Hf  Hf16  1  0.80774895  0.60524763  -0.02190150  1
  Hf  Hf17  1  0.71405991  0.51495987  0.64593068  1
  Hf  Hf18  1  0.41216542  0.81182642  0.74823198  1
  Hf  Hf19  1  0.30633434  0.29071985  0.88846224  1
  Hf  Hf20  1  0.10600145  0.29455850  0.62114920  1
  Hf  Hf21  1  0.00286350  0.78561952  0.00203380  1
  Hf  Hf22  1  0.70406714  0.49505304  0.12150524  1
  Hf  Hf23  1  0.29488267  0.92113478  0.61774525  1
  Hf  Hf24  1  0.19981386  0.79923868  0.50702809  1
  Hf  Hf25  1  0.79159857  0.59565269  0.49306321  1
  Hf  Hf26  1  0.20351496  0.00434040  0.76824301  1
  Hf  Hf27  1  0.68989357  0.89872451  0.13562265  1
  Hf  Hf28  1  0.40131514  0.19708640  0.24441898  1
  Hf  Hf29  1  0.90021482  0.49262647  0.11981528  1
  Hf  Hf30  1  0.40272307  0.20304511  0.47836524  1
  Hf  Hf31  1  0.30691558  0.68713582  0.62362311  1
  Hf  Hf32  1  0.50489670  0.90595594  0.61161370  1
  Hf  Hf33  1  0.00401010  0.59216108  0.24769891  1
  Hf  Hf34  1  0.80412937  0.00986140  0.50087628  1
  Hf  Hf35  1  -0.00769924  0.58582105  0.51364556  1
  Hf  Hf36  1  0.69288245  0.09205988  0.88078263  1
  Hf  Hf37  1  -0.01212729  0.79923154  0.51857778  1
  Hf  Hf38  1  0.29872746  0.69999732  0.37044632  1
  Hf  Hf39  1  0.49612977  0.50269556  0.63114781  1
  Zr  Zr40  1  0.61322906  0.20608011  0.23263979  1
  Zr  Zr41  1  0.79531199  0.59010188  0.26710868  1
  Zr  Zr42  1  0.81074293  0.39790943  -0.02310942  1
  Zr  Zr43  1  0.68887275  0.09784980  0.62792804  1
  Zr  Zr44  1  0.58026584  -0.00492381  0.00862943  1
  Zr  Zr45  1  0.69243581  0.69730949  0.12907345  1
  Zr  Zr46  1  0.00217151  0.79973049  0.24319845  1
  Zr  Zr47  1  0.08377326  0.89408206  0.86193055  1
  Zr  Zr48  1  0.18462963  0.20279091  0.00448341  1
  Zr  Zr49  1  0.49712479  0.71577352  0.87305170  1
  Zr  Zr50  1  0.50948377  0.50080214  0.36322970  1
  Zr  Zr51  1  0.28841234  0.30371381  0.12969497  1
  Zr  Zr52  1  0.09640250  0.69745846  0.38373275  1
  Zr  Zr53  1  0.62163231  0.40817264  0.50251438  1
  Zr  Zr54  1  0.40222421  0.60902568  0.23984774  1
  Zr  Zr55  1  0.11379965  0.08014833  0.62316774  1
  Zr  Zr56  1  -0.00462016  0.00681394  0.00159810  1
  Zr  Zr57  1  0.58599276  0.19580382  0.75493464  1
  Zr  Zr58  1  0.51022654  0.30050501  0.62061304  1
  Zr  Zr59  1  0.59560178  0.20509200  0.01100195  1
  Zr  Zr60  1  0.60094417  0.61437418  0.49892632  1
  Zr  Zr61  1  0.40873879  0.80298014  0.49290530  1
  Zr  Zr62  1  0.01357949  0.00445322  0.23930986  1
  Zr  Zr63  1  0.00344033  0.38280385  0.24849864  1
  Zr  Zr64  1  0.89463418  0.69716312  0.12797722  1
  Zr  Zr65  1  0.61094947  0.40051311  -0.01989924  1
  Zr  Zr66  1  0.08992117  0.08383999  0.38779390  1
  Zr  Zr67  1  0.88261359  0.89982805  0.87270637  1
  Zr  Zr68  1  0.29652887  0.50309853  0.11964159  1
  Zr  Zr69  1  0.11263596  0.49013440  0.62475760  1
  Zr  Zr70  1  0.41053564  0.39444998  0.76215771  1
  Zr  Zr71  1  0.21107186  0.18632886  0.48942127  1
  Zr  Zr72  1  0.71704863  0.31023846  0.64694714  1
  Zr  Zr73  1  0.38272496  0.59888391  0.76024986  1
  Zr  Zr74  1  0.21358390  0.40676945  0.75804745  1
  Zr  Zr75  1  0.21764225  0.79376301  0.76306320  1
  Zr  Zr76  1  0.28781058  0.08985154  0.13806396  1
  Zr  Zr77  1  0.31047310  0.30316179  0.61969330  1
  Zr  Zr78  1  0.60351226  0.60253379  -0.01331648  1
  Zr  Zr79  1  0.40975045  0.81896572  0.01380870  1
  Ta  Ta80  1  0.60272843  0.19451724  0.49586452  1
  Ta  Ta81  1  0.70995618  0.09530309  0.11638229  1
  Ta  Ta82  1  0.79224508  0.80599536  -0.00215572  1
  Ta  Ta83  1  0.19529207  0.60223521  0.24596581  1
  Ta  Ta84  1  0.70903571  0.71493459  0.63295437  1
  Ta  Ta85  1  0.19646372  0.80223826  0.24999897  1
  Ta  Ta86  1  0.60192419  0.60824651  0.75916169  1
  Ta  Ta87  1  0.82652772  0.41652156  0.76861550  1
  Ta  Ta88  1  0.79915181  0.38833397  0.24647588  1
  Ta  Ta89  1  0.40859138  0.40030678  0.24212941  1
  Ta  Ta90  1  0.51132300  0.49894728  0.12699018  1
  Ta  Ta91  1  0.39342381  0.80966635  0.24668984  1
  Ta  Ta92  1  0.69742224  0.10538526  0.37516931  1
  Ta  Ta93  1  0.92455583  0.29093699  0.86196039  1
  Ta  Ta94  1  0.81072135  0.19429210  -0.00721048  1
  Ta  Ta95  1  0.20479118  0.19846471  0.75398026  1
  Ta  Ta96  1  0.11742951  0.89301229  0.11737585  1
  Ta  Ta97  1  0.60987756  0.40881894  0.77061619  1
  Ta  Ta98  1  0.28413782  0.71495487  0.12415885  1
  Ta  Ta99  1  0.20883587  0.39582801  0.48762240  1
  Ta  Ta100  1  0.89520974  0.12378583  0.36834418  1
  Ta  Ta101  1  0.59962678  0.79846893  0.00332959  1
  Ta  Ta102  1  0.20483730  0.79704719  -0.01434622  1
  Ta  Ta103  1  0.38143875  0.00926130  0.47258756  1
  Ta  Ta104  1  -0.01433086  0.57659091  0.74050928  1
  Ta  Ta105  1  0.47699569  0.09664438  0.88533791  1
  Ta  Ta106  1  -0.03065707  0.78286512  0.73831366  1
  Ta  Ta107  1  0.41162426  0.39604007  0.00585336  1
  Ta  Ta108  1  0.09244831  0.89314297  0.63870257  1
  Ta  Ta109  1  0.48215012  0.09857355  0.61137055  1
  Ta  Ta110  1  0.58747684  -0.00659931  0.75377745  1
  Ta  Ta111  1  0.78928333  0.80127187  0.26476222  1
  Ta  Ta112  1  0.89229081  0.10097688  0.86211022  1
  Ta  Ta113  1  0.18933807  0.60626725  -0.00112960  1
  Ta  Ta114  1  0.20966136  0.58629364  0.49700912  1
  Ta  Ta115  1  0.29270093  0.30715121  0.35769756  1
  Ta  Ta116  1  0.50622069  0.09481150  0.35944645  1
  Ta  Ta117  1  -0.00142040  0.19378022  0.73392862  1
  Ta  Ta118  1  0.89823392  0.11038997  0.12895890  1
  Ta  Ta119  1  0.08513806  0.11493178  0.86503932  1
  Ti  Ti120  1  0.32749512  0.90932980  0.88486143  1
  Ti  Ti121  1  0.88310710  0.89673816  0.62799064  1
  Ti  Ti122  1  0.49470092  0.91583696  0.15007589  1
  Ti  Ti123  1  0.10180537  0.89296548  0.38503865  1
  Ti  Ti124  1  0.60928159  0.80886007  0.74910147  1
  Ti  Ti125  1  0.17319484  0.19807184  0.25215206  1
  Ti  Ti126  1  0.60317280  0.60550245  0.25244081  1
  Ti  Ti127  1  0.60633773  0.80330406  0.49303443  1
  Ti  Ti128  1  0.49704682  0.50202854  0.87749644  1
  Ti  Ti129  1  -0.01624006  0.38367501  0.50942091  1
  Ti  Ti130  1  0.50202159  0.29096370  0.88094590  1
  Ti  Ti131  1  0.20007862  0.40322977  -0.00488002  1
  Ti  Ti132  1  0.39471883  0.40609781  0.48426004  1
  Ti  Ti133  1  0.71811920  0.28894365  0.86026654  1
  Ti  Ti134  1  0.39074974  0.19666315  0.75031129  1
  Ti  Ti135  1  0.29698292  0.51121005  0.89073277  1
  Ti  Ti136  1  0.08355078  0.28665120  0.38527799  1
  Ti  Ti137  1  -0.00002794  0.19776244  0.00213194  1
  Ti  Ti138  1  0.68895600  0.90096698  0.87897356  1
  Ti  Ti139  1  0.70899787  0.71576632  0.86658075  1
  Ti  Ti140  1  0.90269645  0.29264934  0.12352418  1
  Ti  Ti141  1  0.20575485  -0.01024856  0.26212762  1
  Ti  Ti142  1  0.10437558  0.49587320  0.12251876  1
  Ti  Ti143  1  0.00392008  0.59094433  -0.00109681  1
  Ti  Ti144  1  0.19719588  0.40377821  0.25216899  1
  Ti  Ti145  1  0.40255320  0.19130350  0.02196615  1
  Ti  Ti146  1  0.49789380  0.90372364  0.36246020  1
  Ti  Ti147  1  0.59171413  0.00332446  0.48809402  1
  Ti  Ti148  1  0.71404511  0.30000381  0.11855329  1
  Ti  Ti149  1  0.68653909  0.90290559  0.36861326  1
  Ti  Ti150  1  0.09567495  0.48559911  0.86826712  1
  Ti  Ti151  1  0.29964060  0.90572214  0.12477192  1
  Ti  Ti152  1  0.89078146  0.47359075  0.38207687  1
  Ti  Ti153  1  0.50918529  0.71246404  0.36367401  1
  Ti  Ti154  1  -0.01328310  -0.00288393  0.74016757  1
  Ti  Ti155  1  0.69483956  0.90160269  0.62005140  1
  Ti  Ti156  1  0.78706935  -0.00127898  0.74499137  1
  Ti  Ti157  1  0.51271437  0.70302220  0.63048135  1
  Ti  Ti158  1  0.81252615  0.62225965  0.76249391  1
  Ti  Ti159  1  0.78897016  0.80069720  0.49221184  1
  Mo  Mo160  1  0.81204309  0.40890558  0.50794864  1
  Mo  Mo161  1  0.29758462  0.70181412  0.88883883  1
  Mo  Mo162  1  0.91005332  0.29758532  0.37948934  1
  Mo  Mo163  1  0.00980529  0.38966082  0.74792383  1
  Mo  Mo164  1  0.51043286  0.91041805  0.87468105  1
  Mo  Mo165  1  0.69336537  0.70960610  0.37149559  1
  Mo  Mo166  1  0.19835963  0.59067943  0.75968609  1
  Mo  Mo167  1  0.29219015  0.89613882  0.37392023  1
  Mo  Mo168  1  0.88422413  0.69059882  0.62269524  1
  Mo  Mo169  1  0.00101939  0.19809769  0.24617673  1
  Mo  Mo170  1  0.70162558  0.49648912  0.36748933  1
  Mo  Mo171  1  0.29784809  0.10644704  0.88214491  1
  Mo  Mo172  1  0.10639076  0.69456698  0.12022282  1
  Mo  Mo173  1  0.29619016  0.49383351  0.36120897  1
  Mo  Mo174  1  0.88936406  0.08955450  0.64356842  1
  Mo  Mo175  1  0.90316572  0.30282469  0.64649943  1
  Mo  Mo176  1  0.89519647  0.48839121  0.62628306  1
  Mo  Mo177  1  0.80847540  0.20442846  0.24225944  1
  Mo  Mo178  1  0.50103373  0.31075226  0.12390546  1
  Mo  Mo179  1  0.19840892  -0.01226362  0.49215519  1
  Mo  Mo180  1  0.59921270  0.00480146  0.25211933  1
  Mo  Mo181  1  0.30642088  0.10473353  0.62003821  1
  Mo  Mo182  1  0.30499552  0.49544479  0.61380469  1
  Mo  Mo183  1  0.59136457  0.79908464  0.25352562  1
  Mo  Mo184  1  0.39534964  0.01053409  0.00965240  1
  Mo  Mo185  1  -0.00577462  -0.01337168  0.51703187  1
  Mo  Mo186  1  0.80317435  0.19604879  0.75936254  1
  Mo  Mo187  1  0.90311486  0.70629857  0.87443550  1
  Mo  Mo188  1  0.09500385  0.09648536  0.12611043  1
  Mo  Mo189  1  0.39288955  -0.00329164  0.26654225  1
  Mo  Mo190  1  0.50037696  0.71197219  0.13294633  1
  Mo  Mo191  1  0.60803786  0.40691934  0.23981594  1
  Mo  Mo192  1  0.78779409  0.81046776  0.74828164  1
  Mo  Mo193  1  0.92156933  0.50860116  0.87584805  1
  Mo  Mo194  1  0.09475036  0.29953188  0.12851832  1
  Mo  Mo195  1  0.70763042  0.51179875  0.85560340  1
  Mo  Mo196  1  0.79322389  0.00457707  0.00187548  1
  Mo  Mo197  1  0.50124111  0.09601214  0.13986644  1
  Mo  Mo198  1  0.10413340  0.29597780  0.86690137  1
  Mo  Mo199  1  0.29420686  0.10105008  0.35392465  1
