# generated using pymatgen
data_HfZrTaTiMo
_symmetry_space_group_name_H-M   'P 1'
_cell_length_a   15.21833426
_cell_length_b   15.22308083
_cell_length_c   16.84419326
_cell_angle_alpha   90.01239449
_cell_angle_beta   89.96900090
_cell_angle_gamma   89.80969370
_symmetry_Int_Tables_number   1
_chemical_formula_structural   HfZrTaTiMo
_chemical_formula_sum   'Hf40 Zr40 Ta40 Ti40 Mo40'
_cell_volume   3902.27092565
_cell_formula_units_Z   40
loop_
 _symmetry_equiv_pos_site_id
 _symmetry_equiv_pos_as_xyz
  1  'x, y, z'
loop_
 _atom_site_type_symbol
 _atom_site_label
 _atom_site_symmetry_multiplicity
 _atom_site_fract_x
 _atom_site_fract_y
 _atom_site_fract_z
 _atom_site_occupancy
  Hf  Hf0  1  0.90327297  0.91069115  0.12463961  1
  Hf  Hf1  1  0.78116412  0.60268478  0.75337328  1
  Hf  Hf2  1  0.90862821  0.90757478  0.86607478  1
  Hf  Hf3  1  0.65624173  0.70696280  0.89083837  1
  Hf  Hf4  1  0.50229595  0.51459820  0.87780977  1
  Hf  Hf5  1  0.01270865  0.80968583  -0.00027378  1
  Hf  Hf6  1  -0.00588987  0.59853002  0.24133321  1
  Hf  Hf7  1  0.10542185  0.49366426  0.35635277  1
  Hf  Hf8  1  0.30169854  0.88591602  0.15113809  1
  Hf  Hf9  1  0.71973903  0.30387399  0.63283926  1
  Hf  Hf10  1  0.28831746  0.49142081  0.62986387  1
  Hf  Hf11  1  0.29775906  0.70201523  0.35969851  1
  Hf  Hf12  1  0.78095286  0.01860380  0.49502843  1
  Hf  Hf13  1  -0.00543976  0.79938310  0.74381140  1
  Hf  Hf14  1  0.70282386  0.51419051  0.89362710  1
  Hf  Hf15  1  0.58638539  0.03474547  0.25385101  1
  Hf  Hf16  1  0.21201217  0.79592888  0.00368059  1
  Hf  Hf17  1  0.80512690  0.02456997  0.26359323  1
  Hf  Hf18  1  0.79622494  0.61005945  0.25125618  1
  Hf  Hf19  1  0.60975198  0.60369142  0.49158619  1
  Hf  Hf20  1  0.81845047  0.40168878  0.76951559  1
  Hf  Hf21  1  0.61158506  0.41381961  0.74980193  1
  Hf  Hf22  1  0.88370094  0.70939793  0.11455998  1
  Hf  Hf23  1  0.50655789  0.49032330  0.37504740  1
  Hf  Hf24  1  0.59743724  -0.00875045  -0.00902360  1
  Hf  Hf25  1  0.40971512  0.39213853  0.01246020  1
  Hf  Hf26  1  0.88471351  0.69516410  0.88672039  1
  Hf  Hf27  1  0.09132780  0.91425998  0.61916636  1
  Hf  Hf28  1  0.09723999  0.67680231  0.62664092  1
  Hf  Hf29  1  0.88336514  0.92021297  0.62795791  1
  Hf  Hf30  1  0.39532787  0.59498576  0.49767901  1
  Hf  Hf31  1  0.30510073  0.09296083  0.37366372  1
  Hf  Hf32  1  0.77918288  0.81912007  -0.01195068  1
  Hf  Hf33  1  0.00988198  0.59764419  0.01226725  1
  Hf  Hf34  1  0.78353197  0.79357654  0.51242091  1
  Hf  Hf35  1  0.90990125  0.48367493  0.62688576  1
  Hf  Hf36  1  0.08877001  0.09907307  0.12882570  1
  Hf  Hf37  1  0.42065026  0.18466730  0.25132065  1
  Hf  Hf38  1  -0.00690366  0.79157935  0.50813079  1
  Hf  Hf39  1  0.39299120  0.60486504  0.00766510  1
  Zr  Zr40  1  0.68623049  0.91719493  0.37312612  1
  Zr  Zr41  1  0.09642163  0.70045564  0.36805022  1
  Zr  Zr42  1  0.89799508  0.28310532  0.11557443  1
  Zr  Zr43  1  0.69759518  0.12004456  0.12108583  1
  Zr  Zr44  1  0.19339876  -0.00901634  -0.00594842  1
  Zr  Zr45  1  0.29738630  0.08822352  0.14151770  1
  Zr  Zr46  1  0.89745404  0.49059831  0.12000440  1
  Zr  Zr47  1  0.80717004  0.19774029  0.76551378  1
  Zr  Zr48  1  0.21316828  0.40030512  0.00574459  1
  Zr  Zr49  1  0.60834579  0.39604862  0.50988679  1
  Zr  Zr50  1  0.10212444  0.90489920  0.38307669  1
  Zr  Zr51  1  0.88992152  0.68698576  0.62673350  1
  Zr  Zr52  1  0.29549114  0.49630418  0.86698962  1
  Zr  Zr53  1  0.50139837  0.28178088  0.63655798  1
  Zr  Zr54  1  0.89171662  0.89365628  0.38230787  1
  Zr  Zr55  1  0.40392140  0.80229411  0.72786019  1
  Zr  Zr56  1  0.60042132  0.59076864  0.25304833  1
  Zr  Zr57  1  0.20336351  0.40310200  0.48804895  1
  Zr  Zr58  1  0.77946295  0.80546842  0.75315887  1
  Zr  Zr59  1  0.00591419  0.37533367  0.24731930  1
  Zr  Zr60  1  0.70431559  0.90796894  0.13550928  1
  Zr  Zr61  1  0.20127631  0.80676292  0.73690798  1
  Zr  Zr62  1  0.39213261  -0.00535952  0.00031621  1
  Zr  Zr63  1  0.09903014  0.69308720  0.87062163  1
  Zr  Zr64  1  0.58311963  0.81525391  0.49690514  1
  Zr  Zr65  1  0.20037206  0.19781216  0.00243884  1
  Zr  Zr66  1  0.03171724  0.40576051  0.76940790  1
  Zr  Zr67  1  -0.00311413  0.38309431  0.48626349  1
  Zr  Zr68  1  0.40146905  0.38197859  0.49566093  1
  Zr  Zr69  1  0.48809234  0.70442534  0.13678396  1
  Zr  Zr70  1  0.30747406  0.28443188  0.86609277  1
  Zr  Zr71  1  0.02331849  0.38952658  0.00052048  1
  Zr  Zr72  1  0.80009015  0.02033593  -0.02174617  1
  Zr  Zr73  1  0.50130829  0.30043700  0.86197457  1
  Zr  Zr74  1  0.70331634  0.50454233  0.11112829  1
  Zr  Zr75  1  0.60493829  0.80548569  0.25225988  1
  Zr  Zr76  1  0.42803900  0.38889099  0.24790992  1
  Zr  Zr77  1  0.48043718  0.09612350  0.86716486  1
  Zr  Zr78  1  0.30623738  0.70307821  0.86647991  1
  Zr  Zr79  1  0.20860327  0.80049188  0.50978442  1
  Ta  Ta80  1  0.10446601  0.70703826  0.13757258  1
  Ta  Ta81  1  0.60575315  0.38950423  -0.00488662  1
  Ta  Ta82  1  0.29797414  0.29848089  0.14177985  1
  Ta  Ta83  1  0.10491276  0.90119142  0.14147594  1
  Ta  Ta84  1  0.09202885  0.12010905  0.61444613  1
  Ta  Ta85  1  -0.01230793  0.18348391  0.25741619  1
  Ta  Ta86  1  0.70583955  0.70606313  0.37436507  1
  Ta  Ta87  1  0.78614131  0.00769480  0.76379462  1
  Ta  Ta88  1  0.50814851  0.69018030  0.61698464  1
  Ta  Ta89  1  0.11876325  0.49085036  0.14228484  1
  Ta  Ta90  1  0.80591629  0.39382034  -0.01586247  1
  Ta  Ta91  1  0.20503238  0.20881300  0.49672606  1
  Ta  Ta92  1  -0.00117901  0.58460408  0.49105770  1
  Ta  Ta93  1  0.40924551  0.59859782  0.73964660  1
  Ta  Ta94  1  0.19515006  0.20709173  0.74183773  1
  Ta  Ta95  1  0.40244128  -0.01021762  0.51155892  1
  Ta  Ta96  1  0.31149298  0.50287756  0.14755408  1
  Ta  Ta97  1  0.18624966  0.20225856  0.25685153  1
  Ta  Ta98  1  0.91806888  0.29198808  0.88428264  1
  Ta  Ta99  1  0.30001223  0.90024095  0.36404749  1
  Ta  Ta100  1  0.09685918  0.10679409  0.38683646  1
  Ta  Ta101  1  -0.01471471  0.80125687  0.24917410  1
  Ta  Ta102  1  0.20072405  0.59825178  0.01639462  1
  Ta  Ta103  1  0.70226296  0.09933060  0.63497893  1
  Ta  Ta104  1  0.00237143  0.20825089  0.74738549  1
  Ta  Ta105  1  0.67810480  0.91267941  0.62702527  1
  Ta  Ta106  1  0.80488434  0.58959555  0.49045886  1
  Ta  Ta107  1  0.00365409  -0.00028428  0.26072883  1
  Ta  Ta108  1  0.09406036  0.10563314  0.86476092  1
  Ta  Ta109  1  0.82081146  0.20556057  0.51037063  1
  Ta  Ta110  1  0.61860901  0.18973359  0.50397003  1
  Ta  Ta111  1  0.39243141  -0.00227400  0.73287873  1
  Ta  Ta112  1  0.49894376  0.87868129  0.86982326  1
  Ta  Ta113  1  0.88509629  0.28569687  0.36757174  1
  Ta  Ta114  1  0.19669561  0.59524344  0.49476188  1
  Ta  Ta115  1  0.20435662  0.01087652  0.50790270  1
  Ta  Ta116  1  0.49406788  0.70460296  0.37088235  1
  Ta  Ta117  1  0.30422655  0.50247237  0.35233937  1
  Ta  Ta118  1  0.10476086  0.31557632  0.62347576  1
  Ta  Ta119  1  0.59851885  0.19881804  -0.01294207  1
  Ti  Ti120  1  0.19550439  0.01095929  0.73320813  1
  Ti  Ti121  1  0.49539868  0.91313952  0.13571712  1
  Ti  Ti122  1  0.70935182  0.48503447  0.36940779  1
  Ti  Ti123  1  -0.01451914  0.02096233  0.50159723  1
  Ti  Ti124  1  0.59332162  0.78577521  0.73847660  1
  Ti  Ti125  1  -0.00607467  0.59236018  0.75832789  1
  Ti  Ti126  1  0.19095986  0.58280957  0.74968996  1
  Ti  Ti127  1  0.39923026  0.39746133  0.74309926  1
  Ti  Ti128  1  0.52754245  0.28263975  0.37479695  1
  Ti  Ti129  1  0.29929315  0.68896598  0.62392973  1
  Ti  Ti130  1  0.91223314  0.50471272  0.89075376  1
  Ti  Ti131  1  0.80436991  0.39922518  0.49925734  1
  Ti  Ti132  1  0.41337324  0.18549582  0.49551222  1
  Ti  Ti133  1  0.00451043  0.00247673  -0.00692122  1
  Ti  Ti134  1  0.70177712  0.51599422  0.62281890  1
  Ti  Ti135  1  0.30239363  0.90476157  0.86396845  1
  Ti  Ti136  1  0.30130255  0.29974352  0.36129553  1
  Ti  Ti137  1  -0.00821723  0.02018268  0.74364971  1
  Ti  Ti138  1  0.29432294  0.69475523  0.15299662  1
  Ti  Ti139  1  0.68728521  0.70309006  0.10572307  1
  Ti  Ti140  1  0.89537728  0.69541421  0.37744830  1
  Ti  Ti141  1  0.89403257  0.09855254  0.12134357  1
  Ti  Ti142  1  0.39511262  0.80002682  0.50710852  1
  Ti  Ti143  1  0.28931169  0.09403074  0.85788538  1
  Ti  Ti144  1  0.30095588  0.29401522  0.62960338  1
  Ti  Ti145  1  0.59336776  -0.01253484  0.75791899  1
  Ti  Ti146  1  0.50043811  0.49717635  0.62405402  1
  Ti  Ti147  1  0.10708561  0.90813866  0.85859258  1
  Ti  Ti148  1  0.52102804  0.28654246  0.12559174  1
  Ti  Ti149  1  0.51051485  0.08699885  0.62789893  1
  Ti  Ti150  1  0.51149231  0.49563739  0.12411927  1
  Ti  Ti151  1  0.30268123  0.10718026  0.62120592  1
  Ti  Ti152  1  0.00121376  0.18926943  -0.00615721  1
  Ti  Ti153  1  0.70757174  0.30956623  0.12268760  1
  Ti  Ti154  1  0.40387162  0.19523553  0.01599349  1
  Ti  Ti155  1  0.48300625  0.91399910  0.36898402  1
  Ti  Ti156  1  0.89590167  0.49151327  0.36498907  1
  Ti  Ti157  1  0.78800344  0.20800180  -0.02521092  1
  Ti  Ti158  1  0.60744220  0.18909242  0.75887323  1
  Ti  Ti159  1  0.40765233  0.80366621  0.00093370  1
  Mo  Mo160  1  0.11227070  0.28896008  0.87452674  1
  Mo  Mo161  1  0.50210995  0.10301464  0.11284186  1
  Mo  Mo162  1  0.90155520  0.10097160  0.37979621  1
  Mo  Mo163  1  0.00489693  0.20133999  0.49841369  1
  Mo  Mo164  1  0.19822509  0.59820211  0.24279349  1
  Mo  Mo165  1  0.19076120  0.00550209  0.26095747  1
  Mo  Mo166  1  0.48301810  0.70002000  0.87416295  1
  Mo  Mo167  1  0.10800844  0.28773979  0.13138155  1
  Mo  Mo168  1  0.40704668  0.59720159  0.25585429  1
  Mo  Mo169  1  0.59204050  0.60327661  0.74197265  1
  Mo  Mo170  1  0.90816001  0.10171272  0.87489401  1
  Mo  Mo171  1  0.10475996  0.28798378  0.37405290  1
  Mo  Mo172  1  0.20831860  0.39516736  0.74725820  1
  Mo  Mo173  1  0.40281422  -0.00169242  0.25411879  1
  Mo  Mo174  1  0.10789295  0.50860906  0.88388132  1
  Mo  Mo175  1  0.50664416  0.09973227  0.38925568  1
  Mo  Mo176  1  0.60653334  0.21856860  0.24961456  1
  Mo  Mo177  1  0.29520543  0.91014460  0.61808123  1
  Mo  Mo178  1  0.40534283  0.80315874  0.25909882  1
  Mo  Mo179  1  0.79813646  0.21365689  0.24711366  1
  Mo  Mo180  1  0.57932759  0.80899339  0.01220677  1
  Mo  Mo181  1  0.79671254  0.39781712  0.25117286  1
  Mo  Mo182  1  0.79844831  0.60634842  -0.00297476  1
  Mo  Mo183  1  0.91705625  0.29232484  0.63010402  1
  Mo  Mo184  1  0.69286821  0.69940769  0.61934515  1
  Mo  Mo185  1  0.39556576  0.18622299  0.73373992  1
  Mo  Mo186  1  0.68509512  0.90040287  0.86351073  1
  Mo  Mo187  1  0.80419620  0.79975996  0.25293213  1
  Mo  Mo188  1  0.18873277  0.80438357  0.25523633  1
  Mo  Mo189  1  0.89790273  0.10630511  0.62943070  1
  Mo  Mo190  1  0.58446689  0.59860886  0.01340877  1
  Mo  Mo191  1  0.70364284  0.13522019  0.37521689  1
  Mo  Mo192  1  0.21272734  0.38924332  0.25213739  1
  Mo  Mo193  1  0.58808775  0.01509145  0.50081402  1
  Mo  Mo194  1  0.61914107  0.38944644  0.24748361  1
  Mo  Mo195  1  0.09866663  0.50285603  0.61857438  1
  Mo  Mo196  1  0.69935446  0.30626472  0.87343450  1
  Mo  Mo197  1  0.70677356  0.30611567  0.38442067  1
  Mo  Mo198  1  0.49947717  0.90098464  0.62629033  1
  Mo  Mo199  1  0.68492308  0.10228173  0.86864728  1
