# generated using pymatgen
data_HfZrTaTiMo
_symmetry_space_group_name_H-M   'P 1'
_cell_length_a   15.22611360
_cell_length_b   15.21657327
_cell_length_c   16.82884962
_cell_angle_alpha   89.99015435
_cell_angle_beta   90.03195671
_cell_angle_gamma   90.04213358
_symmetry_Int_Tables_number   1
_chemical_formula_structural   HfZrTaTiMo
_chemical_formula_sum   'Hf40 Zr40 Ta40 Ti40 Mo40'
_cell_volume   3899.06221854
_cell_formula_units_Z   40
loop_
 _symmetry_equiv_pos_site_id
 _symmetry_equiv_pos_as_xyz
  1  'x, y, z'
loop_
 _atom_site_type_symbol
 _atom_site_label
 _atom_site_symmetry_multiplicity
 _atom_site_fract_x
 _atom_site_fract_y
 _atom_site_fract_z
 _atom_site_occupancy
  Hf  Hf0  1  0.70175918  0.49470943  0.62550972  1
  Hf  Hf1  1  0.79963346  0.39281302  0.75689821  1
  Hf  Hf2  1  0.01031003  0.01370407  0.24214222  1
  Hf  Hf3  1  0.00597205  0.60063694  0.49208192  1
  Hf  Hf4  1  0.10172003  0.49785328  0.36748732  1
  Hf  Hf5  1  0.39193792  0.39905306  0.00895971  1
  Hf  Hf6  1  -0.01196507  0.39603542  0.24758018  1
  Hf  Hf7  1  0.11398819  0.09801318  0.89651504  1
  Hf  Hf8  1  0.90157315  0.09819051  0.89080227  1
  Hf  Hf9  1  0.40833811  0.01515826  -0.01107033  1
  Hf  Hf10  1  0.01060234  0.59411915  0.22740255  1
  Hf  Hf11  1  0.70301634  0.90260541  0.38724607  1
  Hf  Hf12  1  0.70340820  0.49382199  0.37382636  1
  Hf  Hf13  1  0.67731218  0.09314622  0.86986046  1
  Hf  Hf14  1  0.40935178  0.80438563  -0.00832539  1
  Hf  Hf15  1  0.81670672  0.60001008  0.75911440  1
  Hf  Hf16  1  0.90699372  0.88560376  0.63621314  1
  Hf  Hf17  1  0.70453950  0.69857307  0.36575813  1
  Hf  Hf18  1  0.49918503  0.49267589  0.63218060  1
  Hf  Hf19  1  0.92165986  0.68694285  0.88734614  1
  Hf  Hf20  1  -0.00282531  0.20237170  0.76462872  1
  Hf  Hf21  1  0.61002688  0.00169751  0.25115026  1
  Hf  Hf22  1  0.59827907  0.79577673  0.50788364  1
  Hf  Hf23  1  0.30343188  0.70835595  0.64362905  1
  Hf  Hf24  1  -0.00672124  0.39860415  0.48621262  1
  Hf  Hf25  1  0.70158544  0.10676882  0.12057700  1
  Hf  Hf26  1  0.29507583  0.28995477  0.62970779  1
  Hf  Hf27  1  0.57719040  0.19489287  0.74484864  1
  Hf  Hf28  1  0.91227381  0.71339176  0.12271918  1
  Hf  Hf29  1  0.88464899  0.31286814  0.10858184  1
  Hf  Hf30  1  0.49572157  0.49391307  0.87250008  1
  Hf  Hf31  1  -0.00176282  0.79760412  0.49575879  1
  Hf  Hf32  1  0.11368183  0.70508551  0.35521651  1
  Hf  Hf33  1  0.71562909  0.69802119  0.62779598  1
  Hf  Hf34  1  0.49845837  0.50541883  0.36771836  1
  Hf  Hf35  1  0.69697157  0.89959243  0.62871036  1
  Hf  Hf36  1  0.70271064  0.49316071  0.88026937  1
  Hf  Hf37  1  0.91395363  0.50602486  0.63135882  1
  Hf  Hf38  1  0.70439426  0.47573298  0.12025208  1
  Hf  Hf39  1  -0.00400892  0.19606185  0.49697752  1
  Zr  Zr40  1  0.39934048  0.60244663  0.50704975  1
  Zr  Zr41  1  0.30091424  0.90599123  0.11652480  1
  Zr  Zr42  1  0.22062022  0.01022769  0.50494282  1
  Zr  Zr43  1  0.20410439  0.79736062  0.50616360  1
  Zr  Zr44  1  0.50333335  0.70258027  0.36588309  1
  Zr  Zr45  1  0.49870078  0.90485040  0.37744685  1
  Zr  Zr46  1  0.81178278  0.60064345  0.49453322  1
  Zr  Zr47  1  0.60646736  0.60646158  0.00090558  1
  Zr  Zr48  1  0.80832779  0.00333568  0.74856540  1
  Zr  Zr49  1  0.49441299  0.10890462  0.13677972  1
  Zr  Zr50  1  0.51150943  0.90649414  0.12543145  1
  Zr  Zr51  1  0.88346570  0.28431583  0.36814477  1
  Zr  Zr52  1  0.20319138  0.39287809  0.48751157  1
  Zr  Zr53  1  0.49795161  0.10402226  0.38016537  1
  Zr  Zr54  1  0.58331810  0.19537589  -0.00253808  1
  Zr  Zr55  1  0.30765039  0.69683404  0.36274440  1
  Zr  Zr56  1  0.09622055  0.30728269  0.63116448  1
  Zr  Zr57  1  0.39753685  0.60522973  -0.00217910  1
  Zr  Zr58  1  0.47176534  0.09169814  0.61130137  1
  Zr  Zr59  1  0.08650867  0.69317670  0.64026044  1
  Zr  Zr60  1  0.01065947  0.00843515  0.49884523  1
  Zr  Zr61  1  0.70845728  0.70186124  0.13076519  1
  Zr  Zr62  1  0.82143618  0.58182194  0.00611827  1
  Zr  Zr63  1  0.29365901  0.49423676  0.63267352  1
  Zr  Zr64  1  0.19585562  0.81461490  0.76319547  1
  Zr  Zr65  1  0.51080627  0.70862089  0.86563874  1
  Zr  Zr66  1  0.19864198  0.78741209  -0.00591465  1
  Zr  Zr67  1  0.80134347  0.20200404  0.52237671  1
  Zr  Zr68  1  0.48721067  0.30454039  0.37167122  1
  Zr  Zr69  1  0.79139653  0.20308376  0.74708398  1
  Zr  Zr70  1  0.91042461  0.11072668  0.10225532  1
  Zr  Zr71  1  0.81390964  0.00356768  0.51342405  1
  Zr  Zr72  1  0.71366175  0.10950409  0.38112972  1
  Zr  Zr73  1  0.10628809  0.90837980  0.63384665  1
  Zr  Zr74  1  0.90613374  0.70060424  0.35333630  1
  Zr  Zr75  1  0.11027153  0.90707418  0.36973753  1
  Zr  Zr76  1  0.21514753  0.58118381  0.22938278  1
  Zr  Zr77  1  0.78512651  -0.01227536  -0.00312293  1
  Zr  Zr78  1  0.81163941  0.00837916  0.24365575  1
  Zr  Zr79  1  0.19509058  0.37559435  0.24384340  1
  Ta  Ta80  1  0.59510570  0.39071717  0.75405592  1
  Ta  Ta81  1  0.81237186  0.57849724  0.24221881  1
  Ta  Ta82  1  0.68078161  0.09511870  0.62431821  1
  Ta  Ta83  1  0.50215397  0.70371732  0.13324605  1
  Ta  Ta84  1  0.39947217  0.00894094  0.76373913  1
  Ta  Ta85  1  0.40123407  0.59564565  0.75413231  1
  Ta  Ta86  1  0.60120285  0.59787312  0.50466247  1
  Ta  Ta87  1  0.68686669  0.29967458  0.38352889  1
  Ta  Ta88  1  0.37803528  0.21402905  0.24242533  1
  Ta  Ta89  1  0.37303318  0.19764730  0.49303725  1
  Ta  Ta90  1  0.38938210  0.40954449  0.23568219  1
  Ta  Ta91  1  0.30870756  0.70196483  0.13344586  1
  Ta  Ta92  1  0.90250229  0.90691418  0.37086230  1
  Ta  Ta93  1  0.09643544  0.50558278  0.89215174  1
  Ta  Ta94  1  0.38207892  0.20451723  0.00840229  1
  Ta  Ta95  1  0.09585546  0.30684465  0.90107535  1
  Ta  Ta96  1  0.00358754  0.40839298  0.76772473  1
  Ta  Ta97  1  0.60597825  0.79766322  0.74828823  1
  Ta  Ta98  1  0.49981160  0.50500593  0.12896763  1
  Ta  Ta99  1  0.20137851  -0.00155872  0.23777012  1
  Ta  Ta100  1  0.79873541  0.39845841  0.50087468  1
  Ta  Ta101  1  0.30448521  0.90159247  0.36628082  1
  Ta  Ta102  1  0.18284730  0.18743612  0.22947817  1
  Ta  Ta103  1  0.80269795  0.79380135  -0.01685352  1
  Ta  Ta104  1  0.29448463  0.91423925  0.87883780  1
  Ta  Ta105  1  0.50241399  0.70028136  0.63940212  1
  Ta  Ta106  1  0.60899676  0.59694824  0.75309695  1
  Ta  Ta107  1  0.80592154  0.79405656  0.76965564  1
  Ta  Ta108  1  0.39757012  0.81129601  0.50763430  1
  Ta  Ta109  1  0.48712177  0.29286581  0.87566583  1
  Ta  Ta110  1  0.18661521  0.19889065  0.49093067  1
  Ta  Ta111  1  0.30459895  0.69865999  0.86157212  1
  Ta  Ta112  1  0.31418739  0.91518627  0.63903091  1
  Ta  Ta113  1  0.49788571  0.89850990  0.63648230  1
  Ta  Ta114  1  0.60929347  0.80557580  0.24496601  1
  Ta  Ta115  1  0.20135857  0.59841141  0.49963384  1
  Ta  Ta116  1  0.09366385  0.89925681  0.10708450  1
  Ta  Ta117  1  0.61337559  0.81450050  -0.00017204  1
  Ta  Ta118  1  0.69398358  0.89443843  0.86449828  1
  Ta  Ta119  1  0.28919045  0.10409306  0.36140032  1
  Ti  Ti120  1  0.60649033  0.59659237  0.24223843  1
  Ti  Ti121  1  0.90125082  0.90307881  0.11134123  1
  Ti  Ti122  1  0.20486262  0.01807516  0.75632442  1
  Ti  Ti123  1  0.77929823  0.21527709  -0.01307977  1
  Ti  Ti124  1  0.28765754  0.29747678  0.88435783  1
  Ti  Ti125  1  0.19418508  0.20534851  0.76134238  1
  Ti  Ti126  1  0.19555380  0.58970159  0.75738652  1
  Ti  Ti127  1  0.80401543  0.81088913  0.24603138  1
  Ti  Ti128  1  0.60999824  0.21095014  0.25054808  1
  Ti  Ti129  1  0.68524843  0.30180235  0.62058178  1
  Ti  Ti130  1  0.59507151  0.39972150  0.50126132  1
  Ti  Ti131  1  0.80977793  0.79613154  0.49841176  1
  Ti  Ti132  1  0.60007468  0.38616366  -0.00157424  1
  Ti  Ti133  1  0.40036991  0.80711589  0.24515843  1
  Ti  Ti134  1  -0.00598830  0.20269891  0.24581526  1
  Ti  Ti135  1  0.59552152  0.39767910  0.24793667  1
  Ti  Ti136  1  0.90385740  0.30380230  0.63144994  1
  Ti  Ti137  1  0.39664842  0.39414412  0.49825828  1
  Ti  Ti138  1  0.39307946  0.39068555  0.75665764  1
  Ti  Ti139  1  0.10653890  0.09464924  0.09592946  1
  Ti  Ti140  1  0.30571711  0.49269621  0.37220038  1
  Ti  Ti141  1  0.01023358  0.81527107  0.24224563  1
  Ti  Ti142  1  0.19430427  0.39754606  0.76540903  1
  Ti  Ti143  1  -0.00281386  0.79917427  0.76875491  1
  Ti  Ti144  1  0.38097056  0.19593897  0.75823950  1
  Ti  Ti145  1  0.49957525  0.30629467  0.13056607  1
  Ti  Ti146  1  0.39576322  0.00804185  0.24914603  1
  Ti  Ti147  1  0.89417315  0.30937800  0.88995905  1
  Ti  Ti148  1  0.09987299  0.10898671  0.63576905  1
  Ti  Ti149  1  0.00991885  -0.00397570  0.76502953  1
  Ti  Ti150  1  0.49052298  0.29905623  0.62121412  1
  Ti  Ti151  1  0.58955904  0.19991081  0.50538956  1
  Ti  Ti152  1  0.78899924  0.38353286  0.25120537  1
  Ti  Ti153  1  0.02347186  0.60731485  0.02223694  1
  Ti  Ti154  1  0.20975148  0.59102175  0.01469928  1
  Ti  Ti155  1  0.10931413  0.69429343  0.87513323  1
  Ti  Ti156  1  0.29200219  0.49817777  0.87653925  1
  Ti  Ti157  1  0.09908673  0.46770244  0.10600289  1
  Ti  Ti158  1  0.10421438  0.49706500  0.62731692  1
  Ti  Ti159  1  0.50924404  0.91365197  0.86372420  1
  Mo  Mo160  1  0.29465296  0.29347499  0.36996727  1
  Mo  Mo161  1  0.29713899  0.09964973  0.13155089  1
  Mo  Mo162  1  0.40168248  0.80817500  0.76175294  1
  Mo  Mo163  1  0.91084422  0.49327846  0.87430470  1
  Mo  Mo164  1  -0.00557230  0.20563205  -0.00835196  1
  Mo  Mo165  1  0.89471900  0.49480019  0.36670482  1
  Mo  Mo166  1  0.20400644  0.80702452  0.23778298  1
  Mo  Mo167  1  0.09233464  0.90000787  0.88958569  1
  Mo  Mo168  1  0.20263672  0.20561438  0.01461998  1
  Mo  Mo169  1  0.90691399  0.09285124  0.36900748  1
  Mo  Mo170  1  0.19962513  0.40181315  -0.00305265  1
  Mo  Mo171  1  0.28273966  0.10425632  0.63544583  1
  Mo  Mo172  1  0.41142069  0.59796442  0.24081718  1
  Mo  Mo173  1  0.01639969  0.59570075  0.75796394  1
  Mo  Mo174  1  0.59827125  0.00234601  0.50820770  1
  Mo  Mo175  1  0.39473493  -0.00380569  0.49741977  1
  Mo  Mo176  1  0.90474090  0.70490958  0.63456767  1
  Mo  Mo177  1  0.48674985  0.10457035  0.87146428  1
  Mo  Mo178  1  0.78821817  0.39185932  -0.01206914  1
  Mo  Mo179  1  0.91866767  0.10037878  0.64419832  1
  Mo  Mo180  1  0.79816209  0.20673196  0.24452235  1
  Mo  Mo181  1  0.30299962  0.49671356  0.11782392  1
  Mo  Mo182  1  0.10105904  0.10880784  0.36300562  1
  Mo  Mo183  1  0.59587721  -0.00859537  -0.00379833  1
  Mo  Mo184  1  0.68601098  0.29511404  0.12728181  1
  Mo  Mo185  1  0.90300692  0.89639960  0.87416830  1
  Mo  Mo186  1  -0.01124243  0.41471260  -0.00644851  1
  Mo  Mo187  1  0.90324030  0.49877866  0.12405168  1
  Mo  Mo188  1  0.00073632  -0.01081227  -0.00537310  1
  Mo  Mo189  1  0.20790974  -0.00080277  0.00174851  1
  Mo  Mo190  1  0.59205347  -0.00216730  0.74361972  1
  Mo  Mo191  1  0.68308848  0.29903876  0.86948145  1
  Mo  Mo192  1  0.70525933  0.69995128  0.87532940  1
  Mo  Mo193  1  0.00023090  0.79701746  -0.00394638  1
  Mo  Mo194  1  0.08375245  0.28507702  0.10416864  1
  Mo  Mo195  1  0.29947476  0.11394560  0.87565309  1
  Mo  Mo196  1  0.09905277  0.28242089  0.36686458  1
  Mo  Mo197  1  0.28953575  0.29895682  0.12083978  1
  Mo  Mo198  1  0.71322038  0.89368466  0.12388830  1
  Mo  Mo199  1  0.11381125  0.71340291  0.13407014  1
