# generated using pymatgen
data_HfZrTaTiMo
_symmetry_space_group_name_H-M   'P 1'
_cell_length_a   15.19084989
_cell_length_b   15.21236967
_cell_length_c   16.87380206
_cell_angle_alpha   90.00858598
_cell_angle_beta   89.97204601
_cell_angle_gamma   89.86962920
_symmetry_Int_Tables_number   1
_chemical_formula_structural   HfZrTaTiMo
_chemical_formula_sum   'Hf40 Zr40 Ta40 Ti40 Mo40'
_cell_volume   3899.33647443
_cell_formula_units_Z   40
loop_
 _symmetry_equiv_pos_site_id
 _symmetry_equiv_pos_as_xyz
  1  'x, y, z'
loop_
 _atom_site_type_symbol
 _atom_site_label
 _atom_site_symmetry_multiplicity
 _atom_site_fract_x
 _atom_site_fract_y
 _atom_site_fract_z
 _atom_site_occupancy
  Hf  Hf0  1  0.19748386  0.58870822  0.25229503  1
  Hf  Hf1  1  0.89957447  0.09344346  0.11024761  1
  Hf  Hf2  1  0.41570726  0.40797367  0.50758579  1
  Hf  Hf3  1  0.19733469  0.00858904  0.25037252  1
  Hf  Hf4  1  0.81132466  0.20817926  0.25449027  1
  Hf  Hf5  1  0.69034714  0.69378376  0.39511378  1
  Hf  Hf6  1  0.30070072  0.70854402  0.87467401  1
  Hf  Hf7  1  0.09391096  0.30992647  0.62135522  1
  Hf  Hf8  1  0.30359147  0.90965172  0.12316599  1
  Hf  Hf9  1  0.31042336  0.29415340  0.62327105  1
  Hf  Hf10  1  0.80192912  0.78823355  0.25495769  1
  Hf  Hf11  1  0.40510561  0.59189981  0.00172530  1
  Hf  Hf12  1  0.88701414  0.70911482  0.62966003  1
  Hf  Hf13  1  0.40512092  0.80354538  0.25250432  1
  Hf  Hf14  1  0.41822165  0.39707837  0.74274378  1
  Hf  Hf15  1  0.89514283  0.69502960  0.38734959  1
  Hf  Hf16  1  0.80294524  0.59001488  0.00051467  1
  Hf  Hf17  1  0.69454387  0.68706491  0.86862177  1
  Hf  Hf18  1  0.29752901  0.89998163  0.37831788  1
  Hf  Hf19  1  0.60355431  0.59109301  0.25097826  1
  Hf  Hf20  1  0.52390745  0.09096434  0.38950196  1
  Hf  Hf21  1  0.28494849  0.90243331  0.63020747  1
  Hf  Hf22  1  0.62150792  0.38822071  0.76009256  1
  Hf  Hf23  1  0.09666100  0.10336826  0.62101038  1
  Hf  Hf24  1  0.18349501  0.80544663  0.49650657  1
  Hf  Hf25  1  0.48706665  0.68780006  0.39178962  1
  Hf  Hf26  1  0.50377858  0.90321845  0.85586573  1
  Hf  Hf27  1  0.51324178  0.30320486  0.13810735  1
  Hf  Hf28  1  0.08612278  0.90696860  0.87399496  1
  Hf  Hf29  1  0.41417306  0.20620487  0.49920317  1
  Hf  Hf30  1  0.89424680  0.91051395  0.37720354  1
  Hf  Hf31  1  0.41737153  0.21225553  0.00247930  1
  Hf  Hf32  1  0.89997950  0.31249143  0.12035118  1
  Hf  Hf33  1  0.20921890  0.19643968  0.74548006  1
  Hf  Hf34  1  0.50650827  0.11703658  0.85912173  1
  Hf  Hf35  1  -0.01420545  0.41098070  0.25459200  1
  Hf  Hf36  1  0.52302268  0.30906823  0.37387394  1
  Hf  Hf37  1  0.10938069  0.30887213  0.13297341  1
  Hf  Hf38  1  0.09102434  0.70596995  0.12079253  1
  Hf  Hf39  1  0.89288727  0.10474422  0.88531634  1
  Zr  Zr40  1  0.51633767  0.70667590  0.10972351  1
  Zr  Zr41  1  0.20410127  0.60820838  0.50469276  1
  Zr  Zr42  1  0.38836613  0.79424383  0.50963470  1
  Zr  Zr43  1  -0.00821738  0.61317019  0.24898823  1
  Zr  Zr44  1  0.20039902  0.60768859  0.75062923  1
  Zr  Zr45  1  0.40612897  0.19551210  0.25884334  1
  Zr  Zr46  1  0.70544912  0.27379309  0.87470094  1
  Zr  Zr47  1  0.59934691  -0.01956146  -0.00568730  1
  Zr  Zr48  1  0.52210900  0.89469687  0.39898864  1
  Zr  Zr49  1  0.19771999  0.80783523  -0.00913700  1
  Zr  Zr50  1  0.30480419  0.51077609  0.38177014  1
  Zr  Zr51  1  0.60234863  0.79669276  0.25614242  1
  Zr  Zr52  1  0.30487236  0.30205841  0.13207002  1
  Zr  Zr53  1  0.40136992  0.60414887  0.24058817  1
  Zr  Zr54  1  0.09732067  0.30664946  0.37567860  1
  Zr  Zr55  1  0.19643125  0.79537179  0.25519728  1
  Zr  Zr56  1  -0.00091590  0.60749801  0.51176382  1
  Zr  Zr57  1  0.60160078  0.58676953  0.73067570  1
  Zr  Zr58  1  0.59498465  0.38943388  -0.00915182  1
  Zr  Zr59  1  0.69312693  0.89594370  0.12322736  1
  Zr  Zr60  1  0.89626990  0.70118506  0.86064065  1
  Zr  Zr61  1  0.08718905  0.50438291  0.87005179  1
  Zr  Zr62  1  0.29731097  0.69951824  0.11241667  1
  Zr  Zr63  1  0.79458738  0.00478470  0.24947480  1
  Zr  Zr64  1  0.30099995  0.10232416  0.38063171  1
  Zr  Zr65  1  0.49937831  0.69900197  0.86919574  1
  Zr  Zr66  1  0.08351222  0.91017321  0.12714123  1
  Zr  Zr67  1  0.70254458  0.48192317  0.12926459  1
  Zr  Zr68  1  0.70689835  0.47440292  0.37389330  1
  Zr  Zr69  1  -0.01656063  0.21686331  0.50053733  1
  Zr  Zr70  1  0.08872746  0.09224602  0.38388059  1
  Zr  Zr71  1  0.31241522  0.49706785  0.87472035  1
  Zr  Zr72  1  0.19940327  0.40049544  0.75209105  1
  Zr  Zr73  1  -0.01272668  0.01196786  0.74357599  1
  Zr  Zr74  1  0.39704487  0.00580900  0.51937617  1
  Zr  Zr75  1  0.61805739  0.18461686  0.25103894  1
  Zr  Zr76  1  0.78791434  0.80658725  -0.00575538  1
  Zr  Zr77  1  0.01121094  0.20978972  -0.00015174  1
  Zr  Zr78  1  0.39290753  0.01215832  -0.00677134  1
  Zr  Zr79  1  0.09869690  0.10919163  0.87213445  1
  Ta  Ta80  1  0.29209563  0.48821628  0.11891333  1
  Ta  Ta81  1  0.41398258  0.81648462  -0.00372263  1
  Ta  Ta82  1  0.60821126  -0.00185957  0.73337376  1
  Ta  Ta83  1  0.80330203  0.37268180  0.50115468  1
  Ta  Ta84  1  0.20213156  0.39425254  -0.00938550  1
  Ta  Ta85  1  0.30060126  0.31080468  0.37634986  1
  Ta  Ta86  1  0.39738001  0.80419009  0.73939052  1
  Ta  Ta87  1  0.50787611  0.08688444  0.12647866  1
  Ta  Ta88  1  0.19785607  0.20672332  0.25696132  1
  Ta  Ta89  1  -0.01236728  0.80589659  -0.00772662  1
  Ta  Ta90  1  0.19090139  0.01282849  -0.00109817  1
  Ta  Ta91  1  0.09617623  0.71467916  0.63466795  1
  Ta  Ta92  1  0.09668023  0.50058022  0.11886401  1
  Ta  Ta93  1  0.70601759  0.07374117  0.86723864  1
  Ta  Ta94  1  0.80434775  0.39364674  -0.01090038  1
  Ta  Ta95  1  -0.00571221  0.60189670  0.73676893  1
  Ta  Ta96  1  0.53491459  0.29912000  0.62122360  1
  Ta  Ta97  1  0.87637663  0.11847280  0.62682258  1
  Ta  Ta98  1  0.10428041  0.10640684  0.12431638  1
  Ta  Ta99  1  0.41338145  -0.00176263  0.25173317  1
  Ta  Ta100  1  0.09113328  0.50570803  0.38126921  1
  Ta  Ta101  1  0.40082373  0.40917915  0.25613128  1
  Ta  Ta102  1  0.90746074  0.30638632  0.87272276  1
  Ta  Ta103  1  0.20573598  0.20303931  0.50249492  1
  Ta  Ta104  1  0.78869341  0.81182533  0.50139522  1
  Ta  Ta105  1  0.21529996  0.20027310  -0.00390189  1
  Ta  Ta106  1  0.39747911  0.01395475  0.73487820  1
  Ta  Ta107  1  0.09396746  0.70836482  0.37371925  1
  Ta  Ta108  1  0.20056355  0.00176603  0.74815771  1
  Ta  Ta109  1  0.59706332  0.57746587  0.51728362  1
  Ta  Ta110  1  0.49975673  0.70124062  0.62444274  1
  Ta  Ta111  1  -0.00868089  0.81357026  0.50890221  1
  Ta  Ta112  1  0.31805104  0.29247797  0.87172965  1
  Ta  Ta113  1  0.51630930  0.49981854  0.87819893  1
  Ta  Ta114  1  -0.00977607  0.80740925  0.74730470  1
  Ta  Ta115  1  0.09647393  0.50474478  0.62558976  1
  Ta  Ta116  1  -0.00173513  0.41573836  -0.00198394  1
  Ta  Ta117  1  0.40109660  0.59619019  0.52142195  1
  Ta  Ta118  1  0.19069368  0.59281062  -0.00497249  1
  Ta  Ta119  1  0.79811928  0.57819546  0.51305189  1
  Ti  Ti120  1  0.49789447  0.49318369  0.12079385  1
  Ti  Ti121  1  0.30052298  0.90887156  0.86461825  1
  Ti  Ti122  1  0.18918978  0.00143998  0.50446343  1
  Ti  Ti123  1  0.09128953  0.70430792  0.87097023  1
  Ti  Ti124  1  0.30439173  0.10119299  0.86799951  1
  Ti  Ti125  1  0.87583622  0.90964640  0.86840154  1
  Ti  Ti126  1  0.69701279  0.70242781  0.61651972  1
  Ti  Ti127  1  0.60765274  0.79832239  0.73821087  1
  Ti  Ti128  1  -0.01190805  0.40762793  0.74192419  1
  Ti  Ti129  1  -0.01016976  0.21509728  0.74632462  1
  Ti  Ti130  1  0.63371095  0.19773823  0.50043537  1
  Ti  Ti131  1  0.19216628  0.80774590  0.75590394  1
  Ti  Ti132  1  0.00270008  0.19044382  0.25127704  1
  Ti  Ti133  1  0.89265382  0.10701618  0.38067754  1
  Ti  Ti134  1  -0.01835388  0.00292900  0.51249800  1
  Ti  Ti135  1  0.50924623  0.89748987  0.62320094  1
  Ti  Ti136  1  -0.00377531  0.60671776  -0.00092806  1
  Ti  Ti137  1  -0.01705448  0.41607167  0.49982711  1
  Ti  Ti138  1  0.29786029  0.49828247  0.62768459  1
  Ti  Ti139  1  0.70333303  0.68905625  0.11781465  1
  Ti  Ti140  1  0.19698195  0.40391816  0.50181696  1
  Ti  Ti141  1  0.88097292  0.90812500  0.63157534  1
  Ti  Ti142  1  0.08138868  0.90164146  0.36618241  1
  Ti  Ti143  1  0.30042078  0.10605801  0.12893403  1
  Ti  Ti144  1  0.89715721  0.70293216  0.12283008  1
  Ti  Ti145  1  0.50863516  0.49880238  0.37748164  1
  Ti  Ti146  1  0.79483185  0.58110669  0.73533615  1
  Ti  Ti147  1  0.90005548  0.89639248  0.12559281  1
  Ti  Ti148  1  0.70789212  0.28687779  0.11795226  1
  Ti  Ti149  1  0.78132364  0.00828984  0.50580125  1
  Ti  Ti150  1  0.70789502  0.46124549  0.62018376  1
  Ti  Ti151  1  0.50688231  0.11015751  0.62733182  1
  Ti  Ti152  1  0.29432667  0.70261502  0.63525092  1
  Ti  Ti153  1  0.08676813  0.90357707  0.63056360  1
  Ti  Ti154  1  0.60068797  -0.01037832  0.25087359  1
  Ti  Ti155  1  0.80799646  0.58135065  0.24766761  1
  Ti  Ti156  1  0.61461296  0.18065142  0.00551652  1
  Ti  Ti157  1  0.10374476  0.30464995  0.87150867  1
  Ti  Ti158  1  0.88893857  0.50132782  0.86431200  1
  Ti  Ti159  1  0.40427686  0.59904958  0.73775718  1
  Mo  Mo160  1  0.89567339  0.49903192  0.62918642  1
  Mo  Mo161  1  0.70317988  0.89287610  0.62732527  1
  Mo  Mo162  1  0.72060477  0.27624554  0.63387391  1
  Mo  Mo163  1  0.60832406  -0.00248589  0.52574869  1
  Mo  Mo164  1  -0.00498231  -0.01001645  -0.00361182  1
  Mo  Mo165  1  0.69667374  0.88949106  0.85951775  1
  Mo  Mo166  1  0.79024438  0.80159208  0.74779112  1
  Mo  Mo167  1  0.79670139  0.20152272  0.00199585  1
  Mo  Mo168  1  0.80489358  0.19140715  0.49272033  1
  Mo  Mo169  1  0.71022004  0.28307245  0.37482656  1
  Mo  Mo170  1  0.39656794  0.39966079  -0.00009042  1
  Mo  Mo171  1  0.60109023  0.79065796  0.51604461  1
  Mo  Mo172  1  -0.01057865  0.80865289  0.25417501  1
  Mo  Mo173  1  0.89703893  0.50112921  0.38348414  1
  Mo  Mo174  1  0.49493009  0.90346981  0.12649863  1
  Mo  Mo175  1  0.80468721  0.19518407  0.75386561  1
  Mo  Mo176  1  0.40807864  0.20119514  0.74001529  1
  Mo  Mo177  1  -0.00572889  0.01173222  0.25061199  1
  Mo  Mo178  1  0.69517410  0.10090766  0.62981470  1
  Mo  Mo179  1  0.70724254  0.08034715  0.38063214  1
  Mo  Mo180  1  0.79573194  0.39873588  0.24642756  1
  Mo  Mo181  1  0.29437512  0.70247993  0.38057850  1
  Mo  Mo182  1  0.29731940  0.10124625  0.62021979  1
  Mo  Mo183  1  0.70082169  0.09986445  0.11740487  1
  Mo  Mo184  1  0.79525084  0.00241555  -0.00242083  1
  Mo  Mo185  1  0.59696083  0.78927430  -0.00872316  1
  Mo  Mo186  1  0.69944677  0.90412422  0.38401753  1
  Mo  Mo187  1  0.59627656  0.39752429  0.24691159  1
  Mo  Mo188  1  0.50662053  0.49203367  0.62815155  1
  Mo  Mo189  1  0.71069065  0.49622285  0.87456992  1
  Mo  Mo190  1  0.60175043  0.19176878  0.74487005  1
  Mo  Mo191  1  0.90595406  0.50754014  0.11678077  1
  Mo  Mo192  1  0.61376522  0.38920061  0.50612973  1
  Mo  Mo193  1  0.89243038  0.31064202  0.63259603  1
  Mo  Mo194  1  0.89131140  0.31428592  0.37087771  1
  Mo  Mo195  1  0.81076918  0.39517390  0.75732136  1
  Mo  Mo196  1  0.60681539  0.59316661  -0.00145166  1
  Mo  Mo197  1  0.49878593  0.30345020  0.87230786  1
  Mo  Mo198  1  0.20178309  0.40411459  0.25761256  1
  Mo  Mo199  1  0.79684627  -0.00128629  0.74391277  1
