# generated using pymatgen
data_HfZrTaTiMo
_symmetry_space_group_name_H-M   'P 1'
_cell_length_a   15.21759795
_cell_length_b   15.20858485
_cell_length_c   16.86705812
_cell_angle_alpha   89.97829434
_cell_angle_beta   89.96358824
_cell_angle_gamma   89.96095724
_symmetry_Int_Tables_number   1
_chemical_formula_structural   HfZrTaTiMo
_chemical_formula_sum   'Hf40 Zr40 Ta40 Ti40 Mo40'
_cell_volume   3903.67840832
_cell_formula_units_Z   40
loop_
 _symmetry_equiv_pos_site_id
 _symmetry_equiv_pos_as_xyz
  1  'x, y, z'
loop_
 _atom_site_type_symbol
 _atom_site_label
 _atom_site_symmetry_multiplicity
 _atom_site_fract_x
 _atom_site_fract_y
 _atom_site_fract_z
 _atom_site_occupancy
  Hf  Hf0  1  0.20009248  0.79703879  0.49646726  1
  Hf  Hf1  1  0.62068766  0.39991675  0.24876298  1
  Hf  Hf2  1  0.50087550  0.70475496  0.87694783  1
  Hf  Hf3  1  0.58994233  0.19273422  0.49492098  1
  Hf  Hf4  1  0.18481439  -0.00665019  0.74536287  1
  Hf  Hf5  1  0.49903540  0.70361965  0.38605012  1
  Hf  Hf6  1  0.18770721  0.20734027  0.49188482  1
  Hf  Hf7  1  0.88396464  0.30991480  0.37968450  1
  Hf  Hf8  1  0.48356045  0.07232306  0.37423578  1
  Hf  Hf9  1  0.80131181  0.59730281  0.74030888  1
  Hf  Hf10  1  0.19316451  0.58153341  0.73578825  1
  Hf  Hf11  1  0.70985700  0.89405708  0.13064426  1
  Hf  Hf12  1  0.69028230  0.29358022  0.63907299  1
  Hf  Hf13  1  0.39724999  0.00475935  -0.01867324  1
  Hf  Hf14  1  0.49172613  0.30322646  0.62924077  1
  Hf  Hf15  1  0.79479281  0.59163284  -0.00335323  1
  Hf  Hf16  1  0.00839333  0.59477580  0.25067636  1
  Hf  Hf17  1  0.80858168  0.80256342  0.00114491  1
  Hf  Hf18  1  0.90097855  0.29904441  0.62634441  1
  Hf  Hf19  1  0.69493873  0.68497652  0.13008122  1
  Hf  Hf20  1  0.81464461  0.39423216  -0.02079679  1
  Hf  Hf21  1  0.49388104  0.30273415  0.12802242  1
  Hf  Hf22  1  -0.00854325  0.20346411  0.00325855  1
  Hf  Hf23  1  0.38791349  0.19907294  0.49168601  1
  Hf  Hf24  1  0.79534527  -0.00698621  0.49919638  1
  Hf  Hf25  1  0.49807269  0.30413286  0.36845455  1
  Hf  Hf26  1  0.06843701  0.10218986  0.86053345  1
  Hf  Hf27  1  0.00424504  0.81250390  0.26643901  1
  Hf  Hf28  1  0.58990396  -0.01355663  0.24469221  1
  Hf  Hf29  1  0.69485118  0.69137932  0.86801880  1
  Hf  Hf30  1  0.28599713  0.29712968  0.13337150  1
  Hf  Hf31  1  0.01331190  0.60990628  0.49626791  1
  Hf  Hf32  1  0.78636541  0.20098101  0.49844681  1
  Hf  Hf33  1  0.70663954  0.10206418  0.12389239  1
  Hf  Hf34  1  0.59463274  0.00347191  0.75757493  1
  Hf  Hf35  1  -0.00611178  0.19956793  0.49167251  1
  Hf  Hf36  1  -0.00643770  0.20783883  0.25316445  1
  Hf  Hf37  1  0.39939507  0.39957952  -0.00066032  1
  Hf  Hf38  1  0.70719634  0.49063686  0.38615045  1
  Hf  Hf39  1  0.29196238  0.10224983  0.63050859  1
  Zr  Zr40  1  0.59388025  0.19946301  0.24594414  1
  Zr  Zr41  1  0.70053886  0.71160094  0.62775715  1
  Zr  Zr42  1  0.91875277  0.49862801  0.62209739  1
  Zr  Zr43  1  0.59946170  0.82710877  0.49626943  1
  Zr  Zr44  1  0.91272274  0.49818261  0.39054784  1
  Zr  Zr45  1  0.52103963  0.50683159  0.12120483  1
  Zr  Zr46  1  0.89904300  0.09058641  0.62904358  1
  Zr  Zr47  1  0.09255956  0.69142512  0.86294030  1
  Zr  Zr48  1  0.53061672  0.50055011  0.88418224  1
  Zr  Zr49  1  0.59082861  0.59408627  0.73329919  1
  Zr  Zr50  1  0.69753168  0.09838604  0.36324533  1
  Zr  Zr51  1  0.28352292  0.31863176  0.36792875  1
  Zr  Zr52  1  0.40688636  0.41117491  0.75603672  1
  Zr  Zr53  1  0.29589308  0.68997900  0.86339903  1
  Zr  Zr54  1  0.20283393  0.79177775  0.00015619  1
  Zr  Zr55  1  0.89946354  0.71334593  0.86282270  1
  Zr  Zr56  1  0.28615722  0.09460633  0.11820068  1
  Zr  Zr57  1  0.40761863  0.80398180  0.74626186  1
  Zr  Zr58  1  0.48695752  0.09314490  0.11931766  1
  Zr  Zr59  1  0.27949476  0.11088906  0.86389671  1
  Zr  Zr60  1  0.80607892  0.79939663  0.49336744  1
  Zr  Zr61  1  0.39652185  0.60338963  0.00477388  1
  Zr  Zr62  1  0.92000408  0.50543640  0.86044944  1
  Zr  Zr63  1  0.89842953  0.70867481  0.14086405  1
  Zr  Zr64  1  0.37743387  0.18100771  0.26225468  1
  Zr  Zr65  1  0.40295153  0.80959221  0.25382744  1
  Zr  Zr66  1  0.41184635  -0.01491817  0.51646193  1
  Zr  Zr67  1  0.79530234  0.18796572  0.76682532  1
  Zr  Zr68  1  0.00840463  0.80919422  0.00887511  1
  Zr  Zr69  1  0.28352226  0.30482760  0.63075185  1
  Zr  Zr70  1  0.79920214  0.60203189  0.50718602  1
  Zr  Zr71  1  0.88503375  0.30914470  0.12551548  1
  Zr  Zr72  1  0.40069001  0.00053694  0.75476741  1
  Zr  Zr73  1  0.59385561  0.20023876  -0.00202420  1
  Zr  Zr74  1  0.00016590  0.59549099  0.01660439  1
  Zr  Zr75  1  0.49609838  0.70581612  0.12211315  1
  Zr  Zr76  1  0.30276095  0.89211000  0.12394638  1
  Zr  Zr77  1  0.10568879  0.90929083  0.13905923  1
  Zr  Zr78  1  0.19882585  0.59122724  0.01131845  1
  Zr  Zr79  1  0.79553143  -0.01859326  0.75517466  1
  Ta  Ta80  1  0.29859034  0.69765606  0.62237181  1
  Ta  Ta81  1  0.18322158  0.00081250  -0.01058617  1
  Ta  Ta82  1  0.29089052  0.89434234  0.87356138  1
  Ta  Ta83  1  0.00204971  0.81542382  0.74165857  1
  Ta  Ta84  1  0.80497838  0.00494263  -0.00389936  1
  Ta  Ta85  1  0.31430863  0.90547263  0.38348139  1
  Ta  Ta86  1  0.09904716  0.09952390  0.37346900  1
  Ta  Ta87  1  0.79735081  0.19985890  -0.01518742  1
  Ta  Ta88  1  0.71836494  0.89612387  0.35639387  1
  Ta  Ta89  1  0.11092402  0.48587908  0.87489356  1
  Ta  Ta90  1  0.39945781  0.60131656  0.50399050  1
  Ta  Ta91  1  0.29566335  0.89258888  0.61978847  1
  Ta  Ta92  1  0.68958257  0.30953431  0.86550327  1
  Ta  Ta93  1  0.91226074  0.91546034  0.87394161  1
  Ta  Ta94  1  0.60094628  0.39571314  0.49808586  1
  Ta  Ta95  1  0.38320415  0.20857820  -0.01329709  1
  Ta  Ta96  1  0.49681102  0.29789838  0.87356339  1
  Ta  Ta97  1  0.79947511  0.58695202  0.25459897  1
  Ta  Ta98  1  0.20102150  0.39020461  0.00076518  1
  Ta  Ta99  1  0.80381897  0.39876789  0.75657392  1
  Ta  Ta100  1  0.09590907  0.10891884  0.12806710  1
  Ta  Ta101  1  0.39199663  0.40946674  0.49593851  1
  Ta  Ta102  1  -0.00074684  0.80800508  0.48678126  1
  Ta  Ta103  1  0.11674062  0.48819814  0.37873201  1
  Ta  Ta104  1  0.02935218  0.39401759  0.74172370  1
  Ta  Ta105  1  0.11650526  0.91318121  0.37927202  1
  Ta  Ta106  1  0.18432252  0.20373633  -0.00503495  1
  Ta  Ta107  1  0.49561951  0.50175148  0.38020745  1
  Ta  Ta108  1  0.40195700  0.59982596  0.25212186  1
  Ta  Ta109  1  0.09350096  0.11342170  0.63277918  1
  Ta  Ta110  1  0.50086213  0.10449251  0.62753002  1
  Ta  Ta111  1  0.09716218  0.70168920  0.62426898  1
  Ta  Ta112  1  0.89030792  0.70530784  0.36412034  1
  Ta  Ta113  1  0.20965019  0.59040149  0.50107568  1
  Ta  Ta114  1  -0.00194832  0.40233772  0.24653222  1
  Ta  Ta115  1  0.50817498  0.89979589  0.10734501  1
  Ta  Ta116  1  0.19687078  0.79903700  0.73889931  1
  Ta  Ta117  1  0.60962039  0.81405561  0.74588520  1
  Ta  Ta118  1  0.89497116  0.09132297  0.36689655  1
  Ta  Ta119  1  0.60655267  0.79143208  0.25907391  1
  Ti  Ti120  1  0.68909519  0.08968494  0.62652898  1
  Ti  Ti121  1  0.62108708  0.40183793  0.00611732  1
  Ti  Ti122  1  0.30424006  0.49533709  0.62369960  1
  Ti  Ti123  1  0.18273093  0.20252705  0.25987601  1
  Ti  Ti124  1  0.70531760  0.89114611  0.88310690  1
  Ti  Ti125  1  0.89989171  0.91375153  0.13669007  1
  Ti  Ti126  1  0.30141042  0.49438327  0.87364536  1
  Ti  Ti127  1  0.01238642  0.39547961  0.00228426  1
  Ti  Ti128  1  0.58608707  0.19673022  0.76146553  1
  Ti  Ti129  1  0.00311770  0.00010628  0.49341247  1
  Ti  Ti130  1  -0.00531369  0.00792824  0.00689809  1
  Ti  Ti131  1  0.68622679  0.09129654  0.88677045  1
  Ti  Ti132  1  0.18958417  0.40344110  0.24598181  1
  Ti  Ti133  1  0.39723753  0.80205811  -0.00513015  1
  Ti  Ti134  1  0.60594325  0.79340199  -0.00023857  1
  Ti  Ti135  1  0.90952559  0.70761399  0.63295679  1
  Ti  Ti136  1  0.21470532  0.00340121  0.25792001  1
  Ti  Ti137  1  0.60094614  0.59839443  0.26384589  1
  Ti  Ti138  1  0.49379991  0.71551388  0.61218223  1
  Ti  Ti139  1  0.51339114  0.90382129  0.88912418  1
  Ti  Ti140  1  0.39869430  0.41208796  0.25109956  1
  Ti  Ti141  1  0.21233253  0.59880000  0.25423311  1
  Ti  Ti142  1  0.09384010  0.90727465  0.61335599  1
  Ti  Ti143  1  0.12237588  0.70760144  0.14618653  1
  Ti  Ti144  1  0.89607727  0.10005097  0.13323121  1
  Ti  Ti145  1  0.10793354  0.69872310  0.37023052  1
  Ti  Ti146  1  0.89705420  0.89291686  0.62526935  1
  Ti  Ti147  1  0.91984887  0.29193332  0.86086981  1
  Ti  Ti148  1  0.30249981  0.50263772  0.13116060  1
  Ti  Ti149  1  0.78904196  0.21643293  0.25167772  1
  Ti  Ti150  1  0.40059602  0.60285426  0.73925461  1
  Ti  Ti151  1  0.39316601  0.20457985  0.76275777  1
  Ti  Ti152  1  0.70169211  0.48464932  0.61914871  1
  Ti  Ti153  1  0.09686209  0.89710114  0.87150015  1
  Ti  Ti154  1  0.10063538  0.48636572  0.12726155  1
  Ti  Ti155  1  0.00307155  0.00902097  0.25512480  1
  Ti  Ti156  1  0.59922891  0.60002889  0.50214811  1
  Ti  Ti157  1  0.50175642  0.49829381  0.61423152  1
  Ti  Ti158  1  0.72795235  0.48207144  0.12673772  1
  Ti  Ti159  1  0.30168790  0.69712759  0.37796889  1
  Mo  Mo160  1  0.11420866  0.49206757  0.61192150  1
  Mo  Mo161  1  0.80183207  0.79697851  0.25428985  1
  Mo  Mo162  1  0.50823453  0.90534386  0.63204530  1
  Mo  Mo163  1  0.81101263  0.00471315  0.24434430  1
  Mo  Mo164  1  0.90772499  0.50347771  0.12533654  1
  Mo  Mo165  1  -0.00384081  -0.00491062  0.74015846  1
  Mo  Mo166  1  0.20409893  0.79756364  0.27508204  1
  Mo  Mo167  1  0.30572915  0.51141117  0.36947329  1
  Mo  Mo168  1  0.39552933  -0.00810514  0.24742190  1
  Mo  Mo169  1  0.61080363  0.59743756  0.00147314  1
  Mo  Mo170  1  0.39502904  0.79275360  0.50528126  1
  Mo  Mo171  1  0.19075040  0.00175953  0.51053491  1
  Mo  Mo172  1  0.20219520  0.40656147  0.49986949  1
  Mo  Mo173  1  0.09351388  0.30348336  0.62041409  1
  Mo  Mo174  1  0.70105937  0.90793524  0.62743140  1
  Mo  Mo175  1  0.88953494  0.09814719  0.87856965  1
  Mo  Mo176  1  -0.00470581  0.20385608  0.74579404  1
  Mo  Mo177  1  0.70214993  0.30040476  0.11567363  1
  Mo  Mo178  1  0.60882224  0.00737089  0.50291234  1
  Mo  Mo179  1  0.80345757  0.80195234  0.75134420  1
  Mo  Mo180  1  0.20838400  0.39578497  0.75553416  1
  Mo  Mo181  1  0.79345197  0.39386155  0.51536278  1
  Mo  Mo182  1  0.17853919  0.21693539  0.75039804  1
  Mo  Mo183  1  0.91051629  0.90897828  0.37183455  1
  Mo  Mo184  1  0.70890455  0.49541061  0.86735621  1
  Mo  Mo185  1  0.60865770  -0.01139720  -0.00366344  1
  Mo  Mo186  1  0.69468853  0.30267853  0.38036136  1
  Mo  Mo187  1  0.29600600  0.69246485  0.14128271  1
  Mo  Mo188  1  0.09948487  0.29946517  0.12699349  1
  Mo  Mo189  1  0.01953426  0.39268584  0.50286458  1
  Mo  Mo190  1  0.10166509  0.30009840  0.87592867  1
  Mo  Mo191  1  0.60795634  0.39471342  0.74628827  1
  Mo  Mo192  1  0.00899350  0.60307069  0.73587916  1
  Mo  Mo193  1  0.49646659  0.10660807  0.87835384  1
  Mo  Mo194  1  0.08768692  0.30987432  0.37026070  1
  Mo  Mo195  1  0.80855308  0.40496368  0.25154471  1
  Mo  Mo196  1  0.69983334  0.69392226  0.36776697  1
  Mo  Mo197  1  0.27897174  0.08120937  0.38405056  1
  Mo  Mo198  1  0.50763506  0.89626955  0.37388005  1
  Mo  Mo199  1  0.29201428  0.30906977  0.87372937  1
