# generated using pymatgen
data_HfZrTaTiMo
_symmetry_space_group_name_H-M   'P 1'
_cell_length_a   15.21180534
_cell_length_b   15.21666873
_cell_length_c   16.86261485
_cell_angle_alpha   90.01378074
_cell_angle_beta   89.99604605
_cell_angle_gamma   89.97282587
_symmetry_Int_Tables_number   1
_chemical_formula_structural   HfZrTaTiMo
_chemical_formula_sum   'Hf40 Zr40 Ta40 Ti40 Mo40'
_cell_volume   3903.23952839
_cell_formula_units_Z   40
loop_
 _symmetry_equiv_pos_site_id
 _symmetry_equiv_pos_as_xyz
  1  'x, y, z'
loop_
 _atom_site_type_symbol
 _atom_site_label
 _atom_site_symmetry_multiplicity
 _atom_site_fract_x
 _atom_site_fract_y
 _atom_site_fract_z
 _atom_site_occupancy
  Hf  Hf0  1  0.47723730  0.90406687  0.14001841  1
  Hf  Hf1  1  0.50290506  0.50659322  0.61076153  1
  Hf  Hf2  1  0.40799689  0.61138804  0.48421452  1
  Hf  Hf3  1  0.28674373  0.49679491  0.60865577  1
  Hf  Hf4  1  0.70733069  0.89233869  0.36776257  1
  Hf  Hf5  1  0.70769981  0.10311973  0.38239678  1
  Hf  Hf6  1  0.58542058  0.58654712  0.01041417  1
  Hf  Hf7  1  0.01370546  0.00813909  0.00332406  1
  Hf  Hf8  1  0.38991429  0.19443963  -0.00521829  1
  Hf  Hf9  1  -0.01908212  0.80736651  0.01635876  1
  Hf  Hf10  1  0.41173300  0.78970792  0.75207822  1
  Hf  Hf11  1  0.79725455  0.40558416  -0.00937848  1
  Hf  Hf12  1  0.79430110  0.62248405  0.49134743  1
  Hf  Hf13  1  0.28314256  0.70897968  0.37235125  1
  Hf  Hf14  1  0.11076349  0.09198025  0.37632143  1
  Hf  Hf15  1  0.10660484  0.10294116  0.86289218  1
  Hf  Hf16  1  0.70105957  0.30206520  0.38747175  1
  Hf  Hf17  1  0.49418673  0.29337139  0.86891523  1
  Hf  Hf18  1  0.81866803  -0.00862048  0.01342429  1
  Hf  Hf19  1  0.89617514  0.29602910  0.37697958  1
  Hf  Hf20  1  0.80732925  0.00866992  0.23889223  1
  Hf  Hf21  1  0.50552175  0.49663405  0.37889565  1
  Hf  Hf22  1  0.02608580  0.38959327  0.76491719  1
  Hf  Hf23  1  0.81992819  0.41040737  0.50360586  1
  Hf  Hf24  1  0.69843299  0.69552986  0.12972573  1
  Hf  Hf25  1  0.81333256  0.60692791  0.00477406  1
  Hf  Hf26  1  0.49239712  0.28938282  0.62304798  1
  Hf  Hf27  1  0.51258621  0.87533602  0.61647446  1
  Hf  Hf28  1  0.08761373  0.68526921  0.63117920  1
  Hf  Hf29  1  0.57592136  0.80078812  0.01103098  1
  Hf  Hf30  1  0.69528521  0.49106232  0.13027502  1
  Hf  Hf31  1  0.60427626  0.18368491  0.74300585  1
  Hf  Hf32  1  0.50044953  0.10128143  0.12412611  1
  Hf  Hf33  1  0.59655145  0.39251197  0.25484889  1
  Hf  Hf34  1  0.29565860  0.91318612  0.38632445  1
  Hf  Hf35  1  0.09387224  0.70249599  0.88011833  1
  Hf  Hf36  1  0.49266919  0.90203366  0.36318601  1
  Hf  Hf37  1  0.92031706  0.50431448  0.64649411  1
  Hf  Hf38  1  0.21981958  0.21818233  0.49393746  1
  Hf  Hf39  1  0.92488655  0.29400540  0.63000258  1
  Zr  Zr40  1  0.00702663  0.80460671  0.23449151  1
  Zr  Zr41  1  0.68826510  0.90874772  0.12132015  1
  Zr  Zr42  1  0.08672651  0.11349982  0.64374575  1
  Zr  Zr43  1  0.71216219  0.28825466  0.61804544  1
  Zr  Zr44  1  0.69247832  0.69554227  0.88683144  1
  Zr  Zr45  1  0.89199669  0.90236539  0.63740811  1
  Zr  Zr46  1  0.20554905  0.79617560  0.75032829  1
  Zr  Zr47  1  0.00191488  -0.00633061  0.50330288  1
  Zr  Zr48  1  -0.00180999  0.58195286  0.49081067  1
  Zr  Zr49  1  0.40628249  -0.01453410  -0.01627466  1
  Zr  Zr50  1  0.69402642  0.29727093  0.87336037  1
  Zr  Zr51  1  -0.00848730  0.40633289  0.00001454  1
  Zr  Zr52  1  0.20719374  0.00930406  0.51419738  1
  Zr  Zr53  1  0.70179049  0.89541048  0.89827979  1
  Zr  Zr54  1  0.18557972  0.22767790  0.74620792  1
  Zr  Zr55  1  0.58714686  0.60930569  0.75457178  1
  Zr  Zr56  1  0.38660522  0.58798230  0.74670173  1
  Zr  Zr57  1  0.88236422  0.69925873  0.64928546  1
  Zr  Zr58  1  0.00286870  0.19848972  0.49836985  1
  Zr  Zr59  1  0.21246564  0.20010598  0.26157802  1
  Zr  Zr60  1  0.29318053  0.30726770  0.87905747  1
  Zr  Zr61  1  0.69856366  0.09374634  0.88591231  1
  Zr  Zr62  1  0.31074027  0.11202591  0.64312494  1
  Zr  Zr63  1  -0.02251373  0.78948007  0.49538246  1
  Zr  Zr64  1  0.70926605  0.50781980  0.63058999  1
  Zr  Zr65  1  0.67628386  0.70982866  0.62464047  1
  Zr  Zr66  1  0.30113748  0.70381802  0.61020160  1
  Zr  Zr67  1  0.09893220  0.29551355  0.12813290  1
  Zr  Zr68  1  0.09972289  0.31812528  0.37501167  1
  Zr  Zr69  1  0.81331092  0.20318381  0.00052792  1
  Zr  Zr70  1  0.49967256  0.07739011  0.62075030  1
  Zr  Zr71  1  0.09749916  0.89542667  0.63789260  1
  Zr  Zr72  1  0.20694637  0.39787653  0.01322091  1
  Zr  Zr73  1  0.50322126  0.30387590  0.12553713  1
  Zr  Zr74  1  0.38645573  0.38537291  0.48542997  1
  Zr  Zr75  1  0.80703899  0.38677695  0.75880977  1
  Zr  Zr76  1  0.89552825  0.72073200  0.86498789  1
  Zr  Zr77  1  0.11479985  0.50823705  0.88924847  1
  Zr  Zr78  1  0.21607887  -0.00834105  0.24500016  1
  Zr  Zr79  1  0.30569281  0.29222312  0.13332229  1
  Ta  Ta80  1  0.48492714  0.69577223  0.88678352  1
  Ta  Ta81  1  -0.00233875  0.19633113  0.25295135  1
  Ta  Ta82  1  0.00987948  0.20663599  -0.01607808  1
  Ta  Ta83  1  0.59494139  0.01238832  0.25659817  1
  Ta  Ta84  1  0.59765595  0.77436454  0.47814263  1
  Ta  Ta85  1  0.60722656  0.19820556  0.25456512  1
  Ta  Ta86  1  0.80214402  0.39567725  0.24980123  1
  Ta  Ta87  1  0.30587403  0.10263421  0.85800455  1
  Ta  Ta88  1  0.70382696  0.08348774  0.61514318  1
  Ta  Ta89  1  0.88822575  0.10472648  0.63841933  1
  Ta  Ta90  1  0.08585951  0.90057311  0.86708220  1
  Ta  Ta91  1  0.11985138  0.70035945  0.12222458  1
  Ta  Ta92  1  0.88804275  0.69974173  0.35213324  1
  Ta  Ta93  1  0.31502422  0.90666243  0.62219569  1
  Ta  Ta94  1  0.69745699  0.10855812  0.12078090  1
  Ta  Ta95  1  0.90348410  0.51663882  0.86183244  1
  Ta  Ta96  1  0.58915511  0.59325908  0.24627422  1
  Ta  Ta97  1  0.00120557  0.40154893  0.24275369  1
  Ta  Ta98  1  0.49725969  0.49341809  0.87562035  1
  Ta  Ta99  1  0.80806230  -0.00190981  0.49590385  1
  Ta  Ta100  1  0.00342104  0.59944603  0.23826798  1
  Ta  Ta101  1  0.10097015  0.88907366  0.37358614  1
  Ta  Ta102  1  0.70961293  0.50560324  0.36882778  1
  Ta  Ta103  1  0.21388031  0.41778876  0.75187367  1
  Ta  Ta104  1  0.90339387  0.90060825  0.36340294  1
  Ta  Ta105  1  0.00978193  0.00618912  0.24302269  1
  Ta  Ta106  1  0.29378742  0.69198606  0.88423038  1
  Ta  Ta107  1  0.59635676  0.19007149  0.50184890  1
  Ta  Ta108  1  0.40963093  -0.01273569  0.76173346  1
  Ta  Ta109  1  0.38264689  0.59049672  0.25568389  1
  Ta  Ta110  1  0.77389900  0.81467850  0.75568096  1
  Ta  Ta111  1  0.59329001  0.40139252  0.74562577  1
  Ta  Ta112  1  0.90621033  0.49983301  0.35909698  1
  Ta  Ta113  1  0.48193311  0.69270562  0.14155304  1
  Ta  Ta114  1  0.20768703  0.42287788  0.25490148  1
  Ta  Ta115  1  0.80672045  0.80218281  0.22909973  1
  Ta  Ta116  1  0.69575950  0.69660830  0.34995994  1
  Ta  Ta117  1  0.60746336  -0.02770210  0.75121282  1
  Ta  Ta118  1  0.90380963  0.09591595  0.37077465  1
  Ta  Ta119  1  0.70326195  0.29546034  0.12357388  1
  Ti  Ti120  1  0.29758060  0.89240895  0.87169190  1
  Ti  Ti121  1  0.20872563  0.00138868  -0.00931499  1
  Ti  Ti122  1  0.30922515  0.50708904  0.88665170  1
  Ti  Ti123  1  0.11477766  0.90538100  0.12163912  1
  Ti  Ti124  1  0.19517099  0.80487053  -0.00284064  1
  Ti  Ti125  1  0.60598136  0.40354708  0.50084787  1
  Ti  Ti126  1  0.08977047  0.69687805  0.36519913  1
  Ti  Ti127  1  0.40892875  0.41128874  0.00901620  1
  Ti  Ti128  1  0.91554485  0.11193611  0.12562240  1
  Ti  Ti129  1  0.20550338  -0.00487175  0.74872306  1
  Ti  Ti130  1  0.11278937  0.10679858  0.12145040  1
  Ti  Ti131  1  0.80188156  0.20307901  0.24400259  1
  Ti  Ti132  1  0.59562476  0.39609388  -0.00047187  1
  Ti  Ti133  1  0.19122133  0.59386520  0.48623183  1
  Ti  Ti134  1  0.18704078  0.79989523  0.50396458  1
  Ti  Ti135  1  0.19445345  0.59751380  0.75055637  1
  Ti  Ti136  1  0.59643648  0.19775709  -0.00105970  1
  Ti  Ti137  1  0.50541405  0.08835095  0.86986864  1
  Ti  Ti138  1  0.59981249  -0.01300277  0.48759869  1
  Ti  Ti139  1  0.49798289  0.28166640  0.38185153  1
  Ti  Ti140  1  0.39679745  0.39581801  0.26042364  1
  Ti  Ti141  1  0.29866441  0.51733050  0.12709871  1
  Ti  Ti142  1  0.40091185  0.39617667  0.74676741  1
  Ti  Ti143  1  0.69615097  0.50238203  0.86647186  1
  Ti  Ti144  1  0.89686183  0.50332742  0.13483953  1
  Ti  Ti145  1  0.89889088  0.30265791  0.12865190  1
  Ti  Ti146  1  0.41047990  0.18342307  0.26358454  1
  Ti  Ti147  1  0.38042464  0.79106352  0.00806867  1
  Ti  Ti148  1  0.30044294  0.30540562  0.62788871  1
  Ti  Ti149  1  0.30375088  0.08465681  0.11919129  1
  Ti  Ti150  1  0.70289535  0.89664974  0.60977191  1
  Ti  Ti151  1  0.10526681  0.50620874  0.12613054  1
  Ti  Ti152  1  0.79616997  0.00529369  0.75564494  1
  Ti  Ti153  1  0.59628135  0.80223522  0.24319358  1
  Ti  Ti154  1  0.00494476  0.60557160  0.01461921  1
  Ti  Ti155  1  0.36702200  0.80721130  0.24357679  1
  Ti  Ti156  1  0.90083487  0.09588601  0.86891922  1
  Ti  Ti157  1  0.39436827  0.60012918  0.01131690  1
  Ti  Ti158  1  0.40165188  0.80639000  0.49349673  1
  Ti  Ti159  1  0.49327156  0.70360029  0.34929660  1
  Mo  Mo160  1  0.19395888  0.80038810  0.25203670  1
  Mo  Mo161  1  0.59225825  0.80254562  0.76124905  1
  Mo  Mo162  1  0.28810695  0.89520447  0.11261236  1
  Mo  Mo163  1  0.80229558  0.79811048  0.02285059  1
  Mo  Mo164  1  0.80276770  0.19016242  0.50452171  1
  Mo  Mo165  1  0.79155847  0.80678294  0.48517790  1
  Mo  Mo166  1  0.32410171  0.10359596  0.38250954  1
  Mo  Mo167  1  0.60265622  0.59697775  0.48026517  1
  Mo  Mo168  1  0.29418405  0.50373827  0.37455006  1
  Mo  Mo169  1  0.19751747  0.17739046  0.00035473  1
  Mo  Mo170  1  0.59552220  0.00893641  0.00582954  1
  Mo  Mo171  1  0.10632951  0.49931260  0.62719597  1
  Mo  Mo172  1  0.00517709  0.40563631  0.49957344  1
  Mo  Mo173  1  0.40503258  0.18961957  0.49194878  1
  Mo  Mo174  1  0.90901033  0.91391563  0.13489774  1
  Mo  Mo175  1  0.79456495  0.60162976  0.76051484  1
  Mo  Mo176  1  -0.00531580  0.80522849  0.75619195  1
  Mo  Mo177  1  0.40314533  0.19750520  0.75579900  1
  Mo  Mo178  1  0.50771627  0.09569246  0.38005474  1
  Mo  Mo179  1  0.19321450  0.41537096  0.48247311  1
  Mo  Mo180  1  0.19398038  0.60772681  0.24868752  1
  Mo  Mo181  1  0.30848774  0.30362103  0.36006442  1
  Mo  Mo182  1  0.49610689  0.69874757  0.61163792  1
  Mo  Mo183  1  0.79932183  0.59406533  0.24691239  1
  Mo  Mo184  1  0.11974846  0.33339507  0.60616651  1
  Mo  Mo185  1  0.20782430  0.61103871  0.00693513  1
  Mo  Mo186  1  0.89974842  0.91016639  0.86763797  1
  Mo  Mo187  1  -0.02079362  0.20272519  0.77521640  1
  Mo  Mo188  1  0.39850787  0.00699261  0.24847921  1
  Mo  Mo189  1  0.40931054  -0.00452153  0.50398067  1
  Mo  Mo190  1  0.49881649  0.89118403  0.87721642  1
  Mo  Mo191  1  0.90208800  0.30272594  0.87476890  1
  Mo  Mo192  1  0.90488905  0.69343359  0.13360428  1
  Mo  Mo193  1  0.79881250  0.18819830  0.75239672  1
  Mo  Mo194  1  0.00718724  0.59895892  0.75950408  1
  Mo  Mo195  1  0.48523654  0.49973177  0.13590110  1
  Mo  Mo196  1  0.30013689  0.70599013  0.12634516  1
  Mo  Mo197  1  0.09654297  0.51193858  0.35859344  1
  Mo  Mo198  1  -0.00600420  0.00020145  0.75787319  1
  Mo  Mo199  1  0.10462122  0.30261945  0.88688998  1
