# generated using pymatgen
data_HfZrTaTiMo
_symmetry_space_group_name_H-M   'P 1'
_cell_length_a   15.22155813
_cell_length_b   15.21068996
_cell_length_c   16.84918057
_cell_angle_alpha   90.05768458
_cell_angle_beta   89.95870339
_cell_angle_gamma   89.89409918
_symmetry_Int_Tables_number   1
_chemical_formula_structural   HfZrTaTiMo
_chemical_formula_sum   'Hf40 Zr40 Ta40 Ti40 Mo40'
_cell_volume   3901.08788085
_cell_formula_units_Z   40
loop_
 _symmetry_equiv_pos_site_id
 _symmetry_equiv_pos_as_xyz
  1  'x, y, z'
loop_
 _atom_site_type_symbol
 _atom_site_label
 _atom_site_symmetry_multiplicity
 _atom_site_fract_x
 _atom_site_fract_y
 _atom_site_fract_z
 _atom_site_occupancy
  Hf  Hf0  1  0.80037490  0.39946615  0.47406044  1
  Hf  Hf1  1  0.09333505  0.09814341  0.63172869  1
  Hf  Hf2  1  0.80589879  0.60736244  0.75738667  1
  Hf  Hf3  1  0.81312598  0.01261203  0.00155184  1
  Hf  Hf4  1  0.50465173  0.90829021  0.13841449  1
  Hf  Hf5  1  0.58957512  0.20301541  0.74934189  1
  Hf  Hf6  1  0.80251588  -0.00611612  0.25248919  1
  Hf  Hf7  1  0.79214229  0.60786786  0.47984332  1
  Hf  Hf8  1  0.40276239  0.80522466  0.00631707  1
  Hf  Hf9  1  0.89429069  0.30432445  0.63191149  1
  Hf  Hf10  1  0.49026542  0.31440186  0.87522329  1
  Hf  Hf11  1  0.89412300  0.11059192  0.63908002  1
  Hf  Hf12  1  0.69464059  0.30207913  0.87459226  1
  Hf  Hf13  1  0.30355843  0.69719415  0.38003609  1
  Hf  Hf14  1  0.01200723  0.80659250  0.73506879  1
  Hf  Hf15  1  0.09876249  0.32686371  0.10619212  1
  Hf  Hf16  1  0.79325968  0.00090273  0.75819490  1
  Hf  Hf17  1  0.10208999  0.50470939  0.62521780  1
  Hf  Hf18  1  0.10376977  0.48918006  0.86574674  1
  Hf  Hf19  1  0.00396164  0.80186165  0.00110898  1
  Hf  Hf20  1  0.57129141  0.60225397  0.23903504  1
  Hf  Hf21  1  0.39304525  0.19017389  0.48597360  1
  Hf  Hf22  1  0.89899043  0.11066198  0.36711685  1
  Hf  Hf23  1  0.41300437  0.38046438  0.50165349  1
  Hf  Hf24  1  0.89368104  0.70600656  0.12742889  1
  Hf  Hf25  1  0.30777339  0.90731159  0.13929226  1
  Hf  Hf26  1  0.49962840  0.89054715  0.36771250  1
  Hf  Hf27  1  0.10150856  0.69632524  0.38201722  1
  Hf  Hf28  1  0.19854337  0.39691123  0.25663213  1
  Hf  Hf29  1  0.20585160  -0.01080467  0.50533453  1
  Hf  Hf30  1  0.31178755  0.49665365  0.62598887  1
  Hf  Hf31  1  0.20055893  0.59213394  -0.00930394  1
  Hf  Hf32  1  0.28405095  0.48981614  0.12186289  1
  Hf  Hf33  1  0.91456462  0.50412872  0.12845638  1
  Hf  Hf34  1  0.10275664  0.28935684  0.38081966  1
  Hf  Hf35  1  -0.00279582  0.00519524  0.50321134  1
  Hf  Hf36  1  0.49470580  0.50366439  0.38233224  1
  Hf  Hf37  1  0.90397782  0.89680249  0.38154877  1
  Hf  Hf38  1  0.68217366  0.30840392  0.62259963  1
  Hf  Hf39  1  0.21230784  0.38054273  0.74115323  1
  Zr  Zr40  1  0.90580536  0.30302354  0.87415699  1
  Zr  Zr41  1  0.30967539  0.28481308  0.13053431  1
  Zr  Zr42  1  0.70860546  0.50186608  0.13248120  1
  Zr  Zr43  1  0.00133807  0.41173800  0.26859690  1
  Zr  Zr44  1  0.20063264  0.79131899  0.24675870  1
  Zr  Zr45  1  0.71010254  0.50612834  0.61184185  1
  Zr  Zr46  1  0.19947478  0.19183371  0.00119930  1
  Zr  Zr47  1  0.39791069  -0.00635212  0.48599731  1
  Zr  Zr48  1  0.50084887  0.09524319  0.61933856  1
  Zr  Zr49  1  0.00031600  0.60531799  0.49883038  1
  Zr  Zr50  1  0.49614507  0.90080318  0.87665019  1
  Zr  Zr51  1  0.62048506  0.79524323  0.25320336  1
  Zr  Zr52  1  0.39812450  -0.01180636  0.74229282  1
  Zr  Zr53  1  0.69708240  0.09743399  0.62392798  1
  Zr  Zr54  1  0.51563678  0.49039144  0.61302475  1
  Zr  Zr55  1  0.12214093  0.89538713  0.87187857  1
  Zr  Zr56  1  0.79336049  0.40499473  0.75528015  1
  Zr  Zr57  1  0.89787360  0.69560321  0.62463158  1
  Zr  Zr58  1  0.59959243  0.59950329  0.74454202  1
  Zr  Zr59  1  -0.01032039  0.18150083  0.00922718  1
  Zr  Zr60  1  0.40468469  0.59264720  0.00106913  1
  Zr  Zr61  1  0.21456523  -0.00392299  0.00240565  1
  Zr  Zr62  1  -0.00425686  0.40155053  0.49242563  1
  Zr  Zr63  1  0.80215224  0.80640893  -0.00859107  1
  Zr  Zr64  1  0.59029445  0.40607697  0.02247324  1
  Zr  Zr65  1  0.09669545  0.69480931  0.86252894  1
  Zr  Zr66  1  0.79211133  0.20041402  0.49025859  1
  Zr  Zr67  1  0.68382574  0.50656141  0.88382596  1
  Zr  Zr68  1  0.00358735  0.19980773  0.23693511  1
  Zr  Zr69  1  0.32525477  0.49616460  0.85658244  1
  Zr  Zr70  1  0.50012596  0.69029353  0.86928200  1
  Zr  Zr71  1  0.78737959  0.20663449  0.00891413  1
  Zr  Zr72  1  0.79332269  0.61454302  0.26488328  1
  Zr  Zr73  1  0.20900299  0.78934511  0.00795930  1
  Zr  Zr74  1  0.89007923  0.90865239  0.62132620  1
  Zr  Zr75  1  0.79089470  0.80566887  0.75699084  1
  Zr  Zr76  1  0.88514388  0.30505233  0.13001624  1
  Zr  Zr77  1  0.59471259  0.00773580  0.00929012  1
  Zr  Zr78  1  0.58862114  0.20304323  0.01518639  1
  Zr  Zr79  1  0.10708931  0.88880958  0.38184284  1
  Ta  Ta80  1  0.71069167  0.90204711  0.12637265  1
  Ta  Ta81  1  0.29800625  0.29363283  0.88078673  1
  Ta  Ta82  1  0.19678974  -0.00730009  0.74020146  1
  Ta  Ta83  1  0.92189118  0.91658669  0.87259682  1
  Ta  Ta84  1  0.10112199  0.09605675  0.37685007  1
  Ta  Ta85  1  0.69309578  0.10217735  0.87151761  1
  Ta  Ta86  1  -0.00396135  0.59359698  -0.00307201  1
  Ta  Ta87  1  0.31263938  0.69996880  0.62911654  1
  Ta  Ta88  1  0.38983180  0.01354054  0.27219831  1
  Ta  Ta89  1  0.59699713  0.79293215  0.49227196  1
  Ta  Ta90  1  0.20808368  0.18521817  0.24947618  1
  Ta  Ta91  1  -0.00563853  0.79966705  0.24501837  1
  Ta  Ta92  1  0.81051480  0.41430697  -0.00420207  1
  Ta  Ta93  1  0.20296410  0.60616350  0.74241626  1
  Ta  Ta94  1  0.09680481  0.68307583  0.12716488  1
  Ta  Ta95  1  0.30075392  0.08744142  0.86719640  1
  Ta  Ta96  1  0.19827895  -0.00136329  0.25616465  1
  Ta  Ta97  1  0.69483267  0.70901407  0.88360672  1
  Ta  Ta98  1  0.30424819  0.30041680  0.36799644  1
  Ta  Ta99  1  0.80138295  0.40330735  0.27067364  1
  Ta  Ta100  1  0.58898031  0.21117114  0.48793869  1
  Ta  Ta101  1  0.30949305  0.68678690  0.13494136  1
  Ta  Ta102  1  0.39776407  0.18250919  0.00001250  1
  Ta  Ta103  1  0.70240528  0.10279090  0.14434695  1
  Ta  Ta104  1  0.20864690  0.39079764  0.50540519  1
  Ta  Ta105  1  0.00680877  -0.00392022  0.24937101  1
  Ta  Ta106  1  0.29817921  0.49891488  0.38654879  1
  Ta  Ta107  1  0.38762669  0.20885073  0.74522914  1
  Ta  Ta108  1  0.10154188  0.29690335  0.88439671  1
  Ta  Ta109  1  0.19654874  0.19156579  0.75709578  1
  Ta  Ta110  1  0.10071235  0.29418726  0.62112308  1
  Ta  Ta111  1  -0.00373135  0.20309542  0.50026674  1
  Ta  Ta112  1  0.29499629  0.10285445  0.62835775  1
  Ta  Ta113  1  0.41106879  0.78289315  0.25100869  1
  Ta  Ta114  1  0.59568448  0.60963257  0.01627900  1
  Ta  Ta115  1  0.60205819  0.00177537  0.48304439  1
  Ta  Ta116  1  0.30529612  0.71528422  0.85365319  1
  Ta  Ta117  1  0.40725513  0.41051963  0.24641567  1
  Ta  Ta118  1  0.08804707  0.08927873  0.86923105  1
  Ta  Ta119  1  0.09759830  0.89679343  0.12652435  1
  Ti  Ti120  1  0.00985102  0.80331642  0.51948027  1
  Ti  Ti121  1  0.50780034  0.29940921  0.35362184  1
  Ti  Ti122  1  0.19928522  0.19494845  0.50178349  1
  Ti  Ti123  1  0.49789454  0.88805276  0.61613453  1
  Ti  Ti124  1  0.21799117  0.80970822  0.72962934  1
  Ti  Ti125  1  0.00373268  0.20584471  0.75468299  1
  Ti  Ti126  1  0.60049126  0.80170673  0.00844829  1
  Ti  Ti127  1  0.79227658  0.80276838  0.49918469  1
  Ti  Ti128  1  0.79089970  0.00224355  0.49204499  1
  Ti  Ti129  1  0.80086190  0.60635393  -0.00708632  1
  Ti  Ti130  1  0.68619257  0.90130462  0.61503056  1
  Ti  Ti131  1  0.90660265  0.91162388  0.12387224  1
  Ti  Ti132  1  0.39547973  0.80199423  0.49702941  1
  Ti  Ti133  1  0.40490492  0.60836909  0.50383406  1
  Ti  Ti134  1  0.89529674  0.10749080  0.86229464  1
  Ti  Ti135  1  0.11377070  0.50467897  0.39148039  1
  Ti  Ti136  1  0.59638367  0.00577116  0.25724595  1
  Ti  Ti137  1  0.68174387  0.50256121  0.37063758  1
  Ti  Ti138  1  0.70053735  0.70684832  0.11919399  1
  Ti  Ti139  1  0.00449003  0.60340510  0.25994000  1
  Ti  Ti140  1  0.90222376  0.50117466  0.62952192  1
  Ti  Ti141  1  0.00439554  0.40252651  0.74611460  1
  Ti  Ti142  1  0.90549014  0.70482345  0.87060712  1
  Ti  Ti143  1  0.69310447  0.29675405  0.35586565  1
  Ti  Ti144  1  0.70665447  0.89487167  0.37536001  1
  Ti  Ti145  1  0.90860035  0.50727499  0.87344484  1
  Ti  Ti146  1  0.69654937  0.90588352  0.88270993  1
  Ti  Ti147  1  0.50308869  0.69876723  0.62317624  1
  Ti  Ti148  1  0.59793384  0.80558750  0.74544223  1
  Ti  Ti149  1  0.10337129  0.08744273  0.12594108  1
  Ti  Ti150  1  0.19698755  0.58998669  0.25197009  1
  Ti  Ti151  1  0.20335905  0.78825507  0.52016643  1
  Ti  Ti152  1  0.39730237  0.39031637  0.01076638  1
  Ti  Ti153  1  0.68603658  0.30027460  0.15449723  1
  Ti  Ti154  1  0.69293686  0.70562076  0.61736405  1
  Ti  Ti155  1  0.48205275  0.11231437  0.14398758  1
  Ti  Ti156  1  0.89848382  0.71183880  0.37311194  1
  Ti  Ti157  1  0.49452417  0.10231223  0.87291361  1
  Ti  Ti158  1  0.69018866  0.10685145  0.36164728  1
  Ti  Ti159  1  0.59839485  -0.00642242  0.75127979  1
  Mo  Mo160  1  0.40109223  0.60159175  0.74059960  1
  Mo  Mo161  1  0.49862001  0.70591385  0.12203695  1
  Mo  Mo162  1  0.00644402  -0.00152598  0.00341273  1
  Mo  Mo163  1  0.60632056  0.38949699  0.48130599  1
  Mo  Mo164  1  0.38174476  0.59592193  0.25286166  1
  Mo  Mo165  1  0.09877036  0.51013553  0.12268931  1
  Mo  Mo166  1  0.59869573  0.40529182  0.24789506  1
  Mo  Mo167  1  0.49507737  0.30052489  0.14023002  1
  Mo  Mo168  1  0.28409340  0.10323212  0.37889863  1
  Mo  Mo169  1  0.30330125  0.09215533  0.13349812  1
  Mo  Mo170  1  0.49416554  0.29217993  0.62235846  1
  Mo  Mo171  1  0.30220106  0.89248654  0.36339018  1
  Mo  Mo172  1  0.49761800  0.69594503  0.38411734  1
  Mo  Mo173  1  0.69120007  0.70605813  0.37922437  1
  Mo  Mo174  1  0.89940168  0.09215387  0.13665273  1
  Mo  Mo175  1  0.39658394  0.20248668  0.26750166  1
  Mo  Mo176  1  0.40379865  0.01069026  0.00143354  1
  Mo  Mo177  1  0.50583083  0.10356005  0.36996137  1
  Mo  Mo178  1  0.59283948  0.19658232  0.24822908  1
  Mo  Mo179  1  0.21242875  0.59709642  0.50803679  1
  Mo  Mo180  1  0.20773656  0.39820488  -0.01343121  1
  Mo  Mo181  1  0.58819703  0.39798760  0.75024087  1
  Mo  Mo182  1  0.30754063  0.89679390  0.62024850  1
  Mo  Mo183  1  0.80991878  0.80706796  0.24803293  1
  Mo  Mo184  1  0.29513590  0.28742528  0.61978403  1
  Mo  Mo185  1  0.10397150  0.89761512  0.62333723  1
  Mo  Mo186  1  -0.00062614  0.40797920  -0.00774054  1
  Mo  Mo187  1  0.59765012  0.60708760  0.49561861  1
  Mo  Mo188  1  0.11304960  0.69780885  0.62845352  1
  Mo  Mo189  1  0.00013365  0.59530764  0.74859779  1
  Mo  Mo190  1  0.89648834  0.29797485  0.36926917  1
  Mo  Mo191  1  0.41465942  0.38796593  0.73672283  1
  Mo  Mo192  1  0.50461404  0.49543943  0.87426439  1
  Mo  Mo193  1  0.90369202  0.51249766  0.36818334  1
  Mo  Mo194  1  0.00185660  0.00447374  0.75268446  1
  Mo  Mo195  1  0.48453893  0.50196206  0.12886732  1
  Mo  Mo196  1  0.79472297  0.20198921  0.25214509  1
  Mo  Mo197  1  0.40984945  0.79357531  0.73856369  1
  Mo  Mo198  1  0.79333940  0.19935160  0.75821213  1
  Mo  Mo199  1  0.30619491  0.89609075  0.86932905  1
