# generated using pymatgen
data_HfZrTaTiMo
_symmetry_space_group_name_H-M   'P 1'
_cell_length_a   15.21937181
_cell_length_b   15.21168173
_cell_length_c   16.85949176
_cell_angle_alpha   90.00851187
_cell_angle_beta   89.96976068
_cell_angle_gamma   89.87298960
_symmetry_Int_Tables_number   1
_chemical_formula_structural   HfZrTaTiMo
_chemical_formula_sum   'Hf40 Zr40 Ta40 Ti40 Mo40'
_cell_volume   3903.16852919
_cell_formula_units_Z   40
loop_
 _symmetry_equiv_pos_site_id
 _symmetry_equiv_pos_as_xyz
  1  'x, y, z'
loop_
 _atom_site_type_symbol
 _atom_site_label
 _atom_site_symmetry_multiplicity
 _atom_site_fract_x
 _atom_site_fract_y
 _atom_site_fract_z
 _atom_site_occupancy
  Hf  Hf0  1  0.79276190  0.61493224  0.24394085  1
  Hf  Hf1  1  0.71024360  0.90163731  0.38170074  1
  Hf  Hf2  1  -0.00143759  0.79155609  0.25463494  1
  Hf  Hf3  1  0.89854209  0.09727500  0.38476727  1
  Hf  Hf4  1  0.88568944  0.71443118  0.88164879  1
  Hf  Hf5  1  0.49687870  0.70422065  0.36731702  1
  Hf  Hf6  1  0.50066500  0.90262520  0.12264641  1
  Hf  Hf7  1  0.49245470  0.50470186  0.14474926  1
  Hf  Hf8  1  0.30466888  0.30461972  0.61261011  1
  Hf  Hf9  1  0.51606462  0.70481588  0.86361654  1
  Hf  Hf10  1  0.10559672  0.09197670  0.38243287  1
  Hf  Hf11  1  0.29625769  0.29735838  0.38798450  1
  Hf  Hf12  1  0.62062043  0.78727631  0.00259109  1
  Hf  Hf13  1  0.19488026  0.59670761  0.74209474  1
  Hf  Hf14  1  0.19698936  0.20414714  0.74053163  1
  Hf  Hf15  1  0.50513355  0.30264339  0.36869972  1
  Hf  Hf16  1  0.30065812  0.90704063  0.39538611  1
  Hf  Hf17  1  0.61394533  0.40395461  0.50075921  1
  Hf  Hf18  1  0.09028645  0.30588400  0.61933114  1
  Hf  Hf19  1  0.88778192  0.10546838  0.87824884  1
  Hf  Hf20  1  0.09318007  0.30161519  0.87898962  1
  Hf  Hf21  1  0.31434572  0.09961101  0.61938744  1
  Hf  Hf22  1  0.49632321  0.90654837  0.38161521  1
  Hf  Hf23  1  0.20397626  -0.01545612  -0.00008275  1
  Hf  Hf24  1  0.79736432  0.59110400  0.00903165  1
  Hf  Hf25  1  0.00966929  0.81727017  -0.00635132  1
  Hf  Hf26  1  0.18708964  0.61737849  0.25853623  1
  Hf  Hf27  1  0.28710676  0.32037926  0.87788284  1
  Hf  Hf28  1  0.51278442  0.51321081  0.63409734  1
  Hf  Hf29  1  0.92423212  0.91115090  0.12367670  1
  Hf  Hf30  1  0.89407562  0.30812178  0.87126296  1
  Hf  Hf31  1  -0.00452011  0.80437657  0.74570053  1
  Hf  Hf32  1  0.89663995  0.70663250  0.11597446  1
  Hf  Hf33  1  0.30496951  0.50697246  0.61661938  1
  Hf  Hf34  1  0.29253634  0.10560582  0.86977849  1
  Hf  Hf35  1  0.59885422  0.58310866  0.00329693  1
  Hf  Hf36  1  -0.01459098  0.40963641  0.49641674  1
  Hf  Hf37  1  0.18768876  0.40781221  0.26103012  1
  Hf  Hf38  1  0.60784909  0.19523168  0.01143371  1
  Hf  Hf39  1  0.71557663  0.88088017  0.87291424  1
  Zr  Zr40  1  0.61406349  0.00147892  0.24995083  1
  Zr  Zr41  1  -0.00302870  0.19762077  0.24522493  1
  Zr  Zr42  1  0.91042603  0.51015877  0.86663167  1
  Zr  Zr43  1  0.50064864  0.29507759  0.88064987  1
  Zr  Zr44  1  0.70318313  0.29024175  0.88434975  1
  Zr  Zr45  1  0.79525120  0.60103524  0.74869545  1
  Zr  Zr46  1  0.40816476  0.00596543  0.75659609  1
  Zr  Zr47  1  0.72390881  0.88216346  0.12518483  1
  Zr  Zr48  1  0.80131686  0.57408178  0.49642707  1
  Zr  Zr49  1  0.29626986  0.70754387  0.12578605  1
  Zr  Zr50  1  0.70657582  0.29520072  0.37118264  1
  Zr  Zr51  1  0.49339711  0.09531902  0.12946493  1
  Zr  Zr52  1  0.60199567  0.02068792  0.51585856  1
  Zr  Zr53  1  0.91349535  0.09910228  0.61878974  1
  Zr  Zr54  1  0.20040020  0.19380149  0.25092659  1
  Zr  Zr55  1  0.38860989  0.61110139  -0.01547526  1
  Zr  Zr56  1  0.50541854  0.10434916  0.36947144  1
  Zr  Zr57  1  0.08719812  0.09767174  0.87968308  1
  Zr  Zr58  1  0.29045590  0.30514973  0.12394682  1
  Zr  Zr59  1  0.61052163  0.38601149  0.74356485  1
  Zr  Zr60  1  0.09432251  0.08565861  0.11948098  1
  Zr  Zr61  1  0.79826542  0.19345469  0.23548348  1
  Zr  Zr62  1  0.19904622  0.82648972  0.24411774  1
  Zr  Zr63  1  -0.00954014  0.41989453  0.00503209  1
  Zr  Zr64  1  0.40937854  0.41122985  0.49243120  1
  Zr  Zr65  1  0.61717791  0.00010312  0.73454387  1
  Zr  Zr66  1  0.62264598  0.78865410  0.25113230  1
  Zr  Zr67  1  0.30598739  0.88608407  0.61641329  1
  Zr  Zr68  1  0.78459597  0.19238514  0.74344618  1
  Zr  Zr69  1  0.90439065  0.89352429  0.39670813  1
  Zr  Zr70  1  0.10337197  0.88156190  0.40153758  1
  Zr  Zr71  1  0.40037537  0.81051486  -0.01198973  1
  Zr  Zr72  1  0.50242137  0.69838529  0.13593843  1
  Zr  Zr73  1  0.50343341  0.49577290  0.86012299  1
  Zr  Zr74  1  0.50247103  0.31172094  0.12793431  1
  Zr  Zr75  1  0.39055363  0.19824819  -0.00031094  1
  Zr  Zr76  1  0.39628074  0.41764297  0.00033126  1
  Zr  Zr77  1  0.68559331  0.67646958  0.61869710  1
  Zr  Zr78  1  0.20233401  0.79012234  0.74452752  1
  Zr  Zr79  1  0.59808347  0.79584813  0.50560712  1
  Ta  Ta80  1  0.90032425  0.89478379  0.61078526  1
  Ta  Ta81  1  0.79408949  0.80192973  0.73050228  1
  Ta  Ta82  1  0.38404423  0.60256579  0.26474804  1
  Ta  Ta83  1  0.09353178  0.69100673  0.87964463  1
  Ta  Ta84  1  0.08918925  0.31343663  0.12382039  1
  Ta  Ta85  1  0.60263741  0.79847949  0.73669880  1
  Ta  Ta86  1  0.60424670  0.20404911  0.23590628  1
  Ta  Ta87  1  0.18896046  0.60828424  0.50543828  1
  Ta  Ta88  1  0.39417763  0.19786847  0.25185956  1
  Ta  Ta89  1  0.90855056  0.49595155  0.63423253  1
  Ta  Ta90  1  0.28679923  0.71308205  0.38564285  1
  Ta  Ta91  1  0.08813939  0.90005443  0.61422783  1
  Ta  Ta92  1  0.38791038  0.60971087  0.75793094  1
  Ta  Ta93  1  0.20573883  0.79134914  -0.01136458  1
  Ta  Ta94  1  -0.00269955  0.20531867  0.49880028  1
  Ta  Ta95  1  0.19440046  0.59001530  -0.00408231  1
  Ta  Ta96  1  0.69719562  0.49352300  0.35595277  1
  Ta  Ta97  1  0.49570142  0.90473965  0.61861823  1
  Ta  Ta98  1  -0.01447601  0.21064830  0.01036127  1
  Ta  Ta99  1  0.39873159  0.61395533  0.49207618  1
  Ta  Ta100  1  0.80238599  -0.00695605  -0.00292417  1
  Ta  Ta101  1  0.82050768  -0.00891629  0.25146672  1
  Ta  Ta102  1  0.11132672  0.49469512  0.87528226  1
  Ta  Ta103  1  0.28935958  0.50593242  0.13300134  1
  Ta  Ta104  1  0.18485005  0.00011792  0.73351853  1
  Ta  Ta105  1  0.89352535  0.49141458  0.35558141  1
  Ta  Ta106  1  0.89802304  0.30260932  0.37050105  1
  Ta  Ta107  1  0.38704978  0.40303157  0.26098145  1
  Ta  Ta108  1  0.08994066  0.30233199  0.38054282  1
  Ta  Ta109  1  0.09619426  0.50965195  0.12725469  1
  Ta  Ta110  1  0.70602668  0.49176605  0.87429140  1
  Ta  Ta111  1  0.10308743  0.90184157  0.86436623  1
  Ta  Ta112  1  0.19511757  0.00620197  0.51862518  1
  Ta  Ta113  1  0.88598431  0.30800825  0.62742443  1
  Ta  Ta114  1  0.47883741  0.70603172  0.63098799  1
  Ta  Ta115  1  0.40837888  0.00421073  -0.01511330  1
  Ta  Ta116  1  0.40362965  0.20970833  0.74956890  1
  Ta  Ta117  1  0.30672069  0.09831939  0.39095529  1
  Ta  Ta118  1  0.81243743  -0.01012754  0.73821799  1
  Ta  Ta119  1  0.52011598  0.91213598  0.87633338  1
  Ti  Ti120  1  0.29262956  0.50947488  0.38337747  1
  Ti  Ti121  1  0.90409009  0.69400762  0.62121730  1
  Ti  Ti122  1  0.18747932  0.40986320  0.49672082  1
  Ti  Ti123  1  0.70417548  0.08579071  0.11708950  1
  Ti  Ti124  1  0.39320264  0.80664489  0.25047097  1
  Ti  Ti125  1  0.68566300  0.08206155  0.88489912  1
  Ti  Ti126  1  0.90436335  0.69458774  0.38212313  1
  Ti  Ti127  1  0.68933914  0.48867039  0.14411597  1
  Ti  Ti128  1  0.19364619  0.20176511  0.50453424  1
  Ti  Ti129  1  0.39179507  0.40360768  0.74748336  1
  Ti  Ti130  1  0.78917989  0.38610837  0.02034809  1
  Ti  Ti131  1  0.08833058  0.50882227  0.37633348  1
  Ti  Ti132  1  0.00807297  0.60263854  0.74023307  1
  Ti  Ti133  1  0.00197895  0.60207975  0.50261697  1
  Ti  Ti134  1  0.70405646  0.10105962  0.37601392  1
  Ti  Ti135  1  0.38158839  -0.00165460  0.25062505  1
  Ti  Ti136  1  0.19752459  0.40581256  0.73966470  1
  Ti  Ti137  1  0.90978176  0.91429466  0.87101710  1
  Ti  Ti138  1  0.59230464  0.59449982  0.48581078  1
  Ti  Ti139  1  0.42162620  0.19389654  0.50301046  1
  Ti  Ti140  1  0.79538017  0.00151226  0.51546709  1
  Ti  Ti141  1  0.70836323  0.69484639  0.38129063  1
  Ti  Ti142  1  0.79978737  0.78658108  0.51218719  1
  Ti  Ti143  1  0.71866167  0.47669865  0.63209736  1
  Ti  Ti144  1  0.89561533  0.09938426  0.11225540  1
  Ti  Ti145  1  -0.00200121  0.59847779  0.25260614  1
  Ti  Ti146  1  0.58913040  0.18615347  0.74925965  1
  Ti  Ti147  1  -0.00108217  0.19673153  0.74303148  1
  Ti  Ti148  1  0.02369713  -0.01164158  0.25587210  1
  Ti  Ti149  1  0.50178281  0.50339136  0.35971048  1
  Ti  Ti150  1  0.09566080  0.70299006  0.11114695  1
  Ti  Ti151  1  0.29852266  0.90023454  0.86439442  1
  Ti  Ti152  1  0.18940480  0.20394065  0.00669349  1
  Ti  Ti153  1  0.90050450  0.49001494  0.14376125  1
  Ti  Ti154  1  0.50206219  0.29669828  0.62294180  1
  Ti  Ti155  1  0.69507276  0.28682773  0.61752841  1
  Ti  Ti156  1  0.29779629  0.08838794  0.12346336  1
  Ti  Ti157  1  0.79416365  0.20232602  0.50365570  1
  Ti  Ti158  1  0.40281429  0.80344961  0.75801560  1
  Ti  Ti159  1  0.00534325  0.40351137  0.74572126  1
  Mo  Mo160  1  -0.00354952  0.78103522  0.51301472  1
  Mo  Mo161  1  -0.00100382  0.00864394  -0.00600622  1
  Mo  Mo162  1  0.59730095  0.59719680  0.26129881  1
  Mo  Mo163  1  0.29382773  0.70272445  0.87180511  1
  Mo  Mo164  1  0.00150937  -0.00053813  0.74545755  1
  Mo  Mo165  1  0.70048298  0.30081582  0.12635891  1
  Mo  Mo166  1  -0.00077376  0.40323798  0.25386447  1
  Mo  Mo167  1  0.19222100  0.40405533  0.00816857  1
  Mo  Mo168  1  0.59842598  0.60058056  0.74863422  1
  Mo  Mo169  1  0.40266829  0.79626975  0.49851785  1
  Mo  Mo170  1  0.11336524  0.89265144  0.12145326  1
  Mo  Mo171  1  0.19836212  0.78956941  0.51512642  1
  Mo  Mo172  1  0.09260077  0.69099323  0.38012542  1
  Mo  Mo173  1  0.70856664  0.10476778  0.62444532  1
  Mo  Mo174  1  0.40300635  0.00518182  0.50531267  1
  Mo  Mo175  1  0.59784726  0.39720011  0.25404107  1
  Mo  Mo176  1  0.50617817  0.10148983  0.87705432  1
  Mo  Mo177  1  0.50344158  0.11599808  0.62883944  1
  Mo  Mo178  1  0.80062855  0.19367640  0.01252584  1
  Mo  Mo179  1  0.70627797  0.89338063  0.61941668  1
  Mo  Mo180  1  0.80834111  0.80212804  -0.00340747  1
  Mo  Mo181  1  0.30961711  0.91109696  0.12018045  1
  Mo  Mo182  1  0.81448138  0.80213646  0.26287921  1
  Mo  Mo183  1  0.60329161  -0.00635818  -0.00234581  1
  Mo  Mo184  1  0.80391175  0.39132269  0.49798154  1
  Mo  Mo185  1  0.10391932  0.10486487  0.62060625  1
  Mo  Mo186  1  0.21080481  0.00699048  0.25460157  1
  Mo  Mo187  1  0.09178666  0.69864690  0.62250434  1
  Mo  Mo188  1  0.80714459  0.39658026  0.74983371  1
  Mo  Mo189  1  0.61164933  0.40840073  0.00405302  1
  Mo  Mo190  1  0.70400853  0.68421099  0.12421749  1
  Mo  Mo191  1  0.09448966  0.50056742  0.62136401  1
  Mo  Mo192  1  0.80063299  0.39682334  0.23798136  1
  Mo  Mo193  1  0.00721288  0.60861656  0.00291661  1
  Mo  Mo194  1  0.30277434  0.69439245  0.61843542  1
  Mo  Mo195  1  0.00107199  0.00175223  0.50283988  1
  Mo  Mo196  1  0.70117922  0.68697903  0.86584680  1
  Mo  Mo197  1  0.29155884  0.50186467  0.86476055  1
  Mo  Mo198  1  0.60478589  0.20865107  0.50312978  1
  Mo  Mo199  1  0.90046058  0.30210326  0.12570141  1
