# generated using pymatgen
data_HfZrTaTiMo
_symmetry_space_group_name_H-M   'P 1'
_cell_length_a   15.20717074
_cell_length_b   15.20506137
_cell_length_c   16.86370860
_cell_angle_alpha   89.99238462
_cell_angle_beta   89.95747408
_cell_angle_gamma   89.95330975
_symmetry_Int_Tables_number   1
_chemical_formula_structural   HfZrTaTiMo
_chemical_formula_sum   'Hf40 Zr40 Ta40 Ti40 Mo40'
_cell_volume   3899.32488185
_cell_formula_units_Z   40
loop_
 _symmetry_equiv_pos_site_id
 _symmetry_equiv_pos_as_xyz
  1  'x, y, z'
loop_
 _atom_site_type_symbol
 _atom_site_label
 _atom_site_symmetry_multiplicity
 _atom_site_fract_x
 _atom_site_fract_y
 _atom_site_fract_z
 _atom_site_occupancy
  Hf  Hf0  1  0.81262285  0.39432464  0.26358459  1
  Hf  Hf1  1  0.40230895  0.60451410  -0.00495420  1
  Hf  Hf2  1  0.78779140  0.79395768  -0.01324482  1
  Hf  Hf3  1  0.50308162  0.50788792  0.37912706  1
  Hf  Hf4  1  0.89794654  0.30935557  0.11400496  1
  Hf  Hf5  1  0.80802970  0.59786720  0.25506230  1
  Hf  Hf6  1  0.18709273  0.40711602  -0.01067304  1
  Hf  Hf7  1  0.30105078  0.71035542  0.62434526  1
  Hf  Hf8  1  0.51446604  0.29983236  0.13354689  1
  Hf  Hf9  1  0.20225331  0.19543600  0.00508843  1
  Hf  Hf10  1  0.71447274  0.28481010  0.88967529  1
  Hf  Hf11  1  0.28644167  0.29474266  0.62738281  1
  Hf  Hf12  1  0.61011673  -0.00158422  0.49372936  1
  Hf  Hf13  1  0.61193499  0.40180407  0.26216971  1
  Hf  Hf14  1  0.71451114  0.48915136  0.11979524  1
  Hf  Hf15  1  0.10162704  0.11195106  0.37167802  1
  Hf  Hf16  1  0.10894368  0.48598520  0.37453092  1
  Hf  Hf17  1  0.60969197  0.61403613  0.24236579  1
  Hf  Hf18  1  0.27497730  0.30802399  0.37968953  1
  Hf  Hf19  1  0.10555698  0.69534901  0.38359626  1
  Hf  Hf20  1  0.61963351  0.39127532  0.75397014  1
  Hf  Hf21  1  0.30172168  0.29195907  0.87157008  1
  Hf  Hf22  1  0.30089357  0.50243558  0.85829843  1
  Hf  Hf23  1  0.39867589  0.00624595  0.26564489  1
  Hf  Hf24  1  0.50343595  0.70571719  0.87938847  1
  Hf  Hf25  1  0.29841291  0.49950079  0.11825147  1
  Hf  Hf26  1  0.21014391  0.59639961  0.25223452  1
  Hf  Hf27  1  0.39357747  0.79838587  0.24336138  1
  Hf  Hf28  1  0.79793659  0.01542645  0.76083980  1
  Hf  Hf29  1  0.69936898  0.29212585  0.60938960  1
  Hf  Hf30  1  0.48681304  0.89915235  0.86611811  1
  Hf  Hf31  1  0.60972549  0.18794424  0.26940187  1
  Hf  Hf32  1  0.50940772  0.49810540  0.62749820  1
  Hf  Hf33  1  0.89703810  0.90207560  0.11684974  1
  Hf  Hf34  1  0.19866768  0.20442638  0.24085991  1
  Hf  Hf35  1  0.51414390  0.50263745  0.86948014  1
  Hf  Hf36  1  0.40530511  0.39979265  -0.00651288  1
  Hf  Hf37  1  0.09205859  0.09819719  0.12702205  1
  Hf  Hf38  1  0.78566619  0.01126643  -0.00992984  1
  Hf  Hf39  1  0.18023882  0.79955390  0.23311582  1
  Zr  Zr40  1  0.41135407  0.38927578  0.74394882  1
  Zr  Zr41  1  0.18510131  0.80286850  0.00622152  1
  Zr  Zr42  1  0.68299674  0.88845943  0.12458529  1
  Zr  Zr43  1  0.09509412  0.89502957  0.62636432  1
  Zr  Zr44  1  0.10650381  0.50499180  0.62619646  1
  Zr  Zr45  1  0.70103077  0.70668936  0.37990501  1
  Zr  Zr46  1  0.19232760  0.00111773  0.50377656  1
  Zr  Zr47  1  0.51725785  0.71997185  0.11471635  1
  Zr  Zr48  1  0.48308689  0.30062086  0.37310728  1
  Zr  Zr49  1  0.59319371  0.19878950  0.48215243  1
  Zr  Zr50  1  0.28790746  0.88586459  0.37811549  1
  Zr  Zr51  1  0.90298534  0.09589660  0.36818488  1
  Zr  Zr52  1  0.18319384  0.61262191  0.76052132  1
  Zr  Zr53  1  0.59814185  0.79290684  0.51608463  1
  Zr  Zr54  1  0.07966132  0.89813421  0.37655559  1
  Zr  Zr55  1  0.28748416  0.90986150  0.88115595  1
  Zr  Zr56  1  0.49276269  0.69985984  0.37992155  1
  Zr  Zr57  1  0.50930171  0.89090799  0.37229401  1
  Zr  Zr58  1  0.00700210  0.79991006  0.76437995  1
  Zr  Zr59  1  0.89822041  0.69507636  0.11499998  1
  Zr  Zr60  1  0.91262779  0.49765352  0.87495502  1
  Zr  Zr61  1  0.40455941  0.39300262  0.51342883  1
  Zr  Zr62  1  0.72090839  0.48847216  0.62340162  1
  Zr  Zr63  1  0.09717900  0.09254338  0.87938028  1
  Zr  Zr64  1  0.29859245  0.30233246  0.11996925  1
  Zr  Zr65  1  -0.00539528  0.40377742  0.50560708  1
  Zr  Zr66  1  0.88836792  0.10654432  0.12483770  1
  Zr  Zr67  1  0.47757242  0.88168404  0.63301961  1
  Zr  Zr68  1  0.42284463  0.18625005  0.00603188  1
  Zr  Zr69  1  0.89535086  0.11018190  0.62217768  1
  Zr  Zr70  1  0.60675713  0.19468972  0.74696932  1
  Zr  Zr71  1  0.70694289  0.89926415  0.63558189  1
  Zr  Zr72  1  0.39877789  -0.00675069  0.49815129  1
  Zr  Zr73  1  0.00509793  0.39387574  0.74315374  1
  Zr  Zr74  1  0.81433869  0.59915702  0.49532231  1
  Zr  Zr75  1  0.60501346  0.39349296  -0.00001052  1
  Zr  Zr76  1  0.40244323  0.19856147  0.24622761  1
  Zr  Zr77  1  0.49608799  0.10668844  0.62070711  1
  Zr  Zr78  1  0.29859550  0.69994388  0.11773959  1
  Zr  Zr79  1  0.58422835  0.00458792  -0.00489561  1
  Ta  Ta80  1  0.49447075  0.09764467  0.86349794  1
  Ta  Ta81  1  0.18836053  0.00440826  0.74483422  1
  Ta  Ta82  1  0.91648612  0.49716651  0.11984515  1
  Ta  Ta83  1  0.09593103  0.30291009  0.87242065  1
  Ta  Ta84  1  0.70871596  0.69274138  0.63263073  1
  Ta  Ta85  1  0.10165786  0.50886483  0.12595138  1
  Ta  Ta86  1  0.68865604  0.89132871  0.86449948  1
  Ta  Ta87  1  0.38275700  -0.00108482  0.74219679  1
  Ta  Ta88  1  0.30465591  0.50530644  0.38644158  1
  Ta  Ta89  1  0.00798398  0.60399680  0.24852078  1
  Ta  Ta90  1  -0.00176325  0.80066121  -0.01500840  1
  Ta  Ta91  1  0.90685764  0.70541804  0.63314616  1
  Ta  Ta92  1  0.30194412  0.11259432  0.38683876  1
  Ta  Ta93  1  0.50313215  0.50434717  0.12839933  1
  Ta  Ta94  1  0.19511818  0.60640281  -0.01928789  1
  Ta  Ta95  1  0.59534590  0.78622464  0.74306676  1
  Ta  Ta96  1  0.90563198  0.30289018  0.88945432  1
  Ta  Ta97  1  0.39632370  0.19200715  0.74700530  1
  Ta  Ta98  1  0.78923312  -0.00153450  0.24988028  1
  Ta  Ta99  1  -0.01017077  0.00146990  0.50127390  1
  Ta  Ta100  1  0.20803931  0.80601645  0.75708402  1
  Ta  Ta101  1  0.61728702  0.60736340  0.00362138  1
  Ta  Ta102  1  0.90785663  0.71407927  0.37402461  1
  Ta  Ta103  1  0.38814816  0.41253861  0.25107750  1
  Ta  Ta104  1  0.89169810  0.30858681  0.61888466  1
  Ta  Ta105  1  0.19839254  -0.00167576  0.24387552  1
  Ta  Ta106  1  0.71502208  0.49590155  0.87716488  1
  Ta  Ta107  1  -0.01127692  0.79731917  0.24310890  1
  Ta  Ta108  1  0.19144763  0.20310938  0.75085245  1
  Ta  Ta109  1  0.80616076  -0.00730338  0.49475504  1
  Ta  Ta110  1  0.29850733  0.50418750  0.63515308  1
  Ta  Ta111  1  0.60734328  0.59437345  0.50788285  1
  Ta  Ta112  1  0.89939608  0.90586192  0.63566021  1
  Ta  Ta113  1  0.89512530  0.11511302  0.88169824  1
  Ta  Ta114  1  0.48075393  0.92117253  0.12626317  1
  Ta  Ta115  1  0.69989211  0.68917003  0.86493184  1
  Ta  Ta116  1  0.31332292  0.08142602  0.12254383  1
  Ta  Ta117  1  0.40476004  0.59897534  0.24697728  1
  Ta  Ta118  1  0.09540299  0.10907281  0.62676980  1
  Ta  Ta119  1  0.59391294  -0.00381055  0.75015822  1
  Ti  Ti120  1  0.00916824  0.20756730  0.50194949  1
  Ti  Ti121  1  0.60027638  0.00026597  0.25626451  1
  Ti  Ti122  1  0.91810712  0.30058163  0.37567972  1
  Ti  Ti123  1  0.90522610  0.50890948  0.63430329  1
  Ti  Ti124  1  0.80671734  0.80488598  0.50491628  1
  Ti  Ti125  1  0.90397861  0.91273730  0.87093994  1
  Ti  Ti126  1  0.80113889  0.19704820  0.48309147  1
  Ti  Ti127  1  0.19119251  0.39518502  0.50958454  1
  Ti  Ti128  1  -0.00370087  0.21680421  0.24642523  1
  Ti  Ti129  1  0.91499685  0.50834909  0.37244559  1
  Ti  Ti130  1  0.00216954  -0.00590448  -0.00113984  1
  Ti  Ti131  1  0.80478400  0.21834181  0.75020880  1
  Ti  Ti132  1  0.09346560  0.32082355  0.12856428  1
  Ti  Ti133  1  0.70849440  0.27688115  0.11671413  1
  Ti  Ti134  1  -0.00507729  0.19514170  0.75136300  1
  Ti  Ti135  1  0.19694555  -0.00652246  0.01635258  1
  Ti  Ti136  1  0.79974447  0.39889398  0.47625017  1
  Ti  Ti137  1  0.90106945  0.69319110  0.87168127  1
  Ti  Ti138  1  -0.00435595  -0.00838936  0.24688673  1
  Ti  Ti139  1  0.19598722  0.79037605  0.50880812  1
  Ti  Ti140  1  0.79159959  0.79674546  0.24462480  1
  Ti  Ti141  1  -0.00974093  0.80482307  0.50534659  1
  Ti  Ti142  1  0.01359178  0.59972694  -0.00637222  1
  Ti  Ti143  1  0.80585632  0.59528741  0.75242883  1
  Ti  Ti144  1  0.71309621  0.89688333  0.36917068  1
  Ti  Ti145  1  0.61052184  0.40047834  0.48673076  1
  Ti  Ti146  1  0.70520330  0.09736021  0.61872228  1
  Ti  Ti147  1  0.30194966  0.69224377  0.38871366  1
  Ti  Ti148  1  0.00385749  0.20724146  0.00190507  1
  Ti  Ti149  1  0.30205070  0.09840893  0.87529963  1
  Ti  Ti150  1  0.80525950  0.59386732  -0.00462595  1
  Ti  Ti151  1  0.29097700  0.09889367  0.61949416  1
  Ti  Ti152  1  0.01066036  0.61034910  0.50640780  1
  Ti  Ti153  1  0.39576349  0.81664184  0.00536859  1
  Ti  Ti154  1  0.79657527  0.19723867  0.25931234  1
  Ti  Ti155  1  0.80065445  0.79651257  0.75765292  1
  Ti  Ti156  1  0.60811880  0.59815916  0.74437786  1
  Ti  Ti157  1  0.40441268  0.61809008  0.74781529  1
  Ti  Ti158  1  0.50771740  0.28753319  0.87703912  1
  Ti  Ti159  1  0.40084997  0.60466944  0.51379761  1
  Mo  Mo160  1  0.20062181  0.39544081  0.75581721  1
  Mo  Mo161  1  0.08580575  0.69058484  0.11958888  1
  Mo  Mo162  1  0.38355222  0.19616870  0.50308757  1
  Mo  Mo163  1  0.49509540  0.09540462  0.38447225  1
  Mo  Mo164  1  0.30539084  0.70933703  0.87538153  1
  Mo  Mo165  1  0.70910340  0.69497274  0.11894285  1
  Mo  Mo166  1  0.88991783  0.89229967  0.36903409  1
  Mo  Mo167  1  0.50254858  0.68772885  0.63060038  1
  Mo  Mo168  1  0.70434510  0.50244408  0.38124114  1
  Mo  Mo169  1  0.80542697  0.40534384  0.00272686  1
  Mo  Mo170  1  0.60461152  0.81282115  0.24858793  1
  Mo  Mo171  1  0.71431779  0.29642302  0.38105599  1
  Mo  Mo172  1  0.69165245  0.10022574  0.13249193  1
  Mo  Mo173  1  0.69544117  0.09390341  0.86911470  1
  Mo  Mo174  1  -0.00934685  0.60737045  0.74637196  1
  Mo  Mo175  1  0.70718328  0.08696969  0.37529083  1
  Mo  Mo176  1  0.00750141  0.40282951  -0.00126748  1
  Mo  Mo177  1  0.80770779  0.39243273  0.75056136  1
  Mo  Mo178  1  0.61355209  0.18353861  0.00136794  1
  Mo  Mo179  1  0.29351719  0.90455160  0.12787295  1
  Mo  Mo180  1  0.09553768  0.70178528  0.87954704  1
  Mo  Mo181  1  0.09271976  0.90689645  0.87342723  1
  Mo  Mo182  1  0.38839840  0.79163555  0.50029472  1
  Mo  Mo183  1  0.80343797  0.19824981  0.00160412  1
  Mo  Mo184  1  0.59769475  0.80064991  -0.01258309  1
  Mo  Mo185  1  0.19096486  0.20271360  0.50431228  1
  Mo  Mo186  1  0.09049153  0.29045377  0.62993929  1
  Mo  Mo187  1  0.51371038  0.09629045  0.13287528  1
  Mo  Mo188  1  0.08510686  0.90306098  0.12757701  1
  Mo  Mo189  1  0.29000298  0.90553237  0.63187766  1
  Mo  Mo190  1  0.20884348  0.59375667  0.50366034  1
  Mo  Mo191  1  0.09912108  0.49972692  0.86933622  1
  Mo  Mo192  1  0.19918137  0.40439770  0.24655395  1
  Mo  Mo193  1  0.09550834  0.70140444  0.61588372  1
  Mo  Mo194  1  0.38851112  0.00251734  -0.00158047  1
  Mo  Mo195  1  0.38982230  0.79433256  0.75835883  1
  Mo  Mo196  1  0.00392695  0.40636082  0.24939114  1
  Mo  Mo197  1  0.49816624  0.29886141  0.62075252  1
  Mo  Mo198  1  -0.00509607  0.00883383  0.75234477  1
  Mo  Mo199  1  0.09089939  0.29784021  0.36919745  1
