# generated using pymatgen
data_HfZrTaTiMo
_symmetry_space_group_name_H-M   'P 1'
_cell_length_a   15.20925617
_cell_length_b   15.21974245
_cell_length_c   16.84890174
_cell_angle_alpha   89.98900698
_cell_angle_beta   90.06421371
_cell_angle_gamma   90.01557451
_symmetry_Int_Tables_number   1
_chemical_formula_structural   HfZrTaTiMo
_chemical_formula_sum   'Hf40 Zr40 Ta40 Ti40 Mo40'
_cell_volume   3900.19731607
_cell_formula_units_Z   40
loop_
 _symmetry_equiv_pos_site_id
 _symmetry_equiv_pos_as_xyz
  1  'x, y, z'
loop_
 _atom_site_type_symbol
 _atom_site_label
 _atom_site_symmetry_multiplicity
 _atom_site_fract_x
 _atom_site_fract_y
 _atom_site_fract_z
 _atom_site_occupancy
  Hf  Hf0  1  0.40693135  0.19165585  0.75194139  1
  Hf  Hf1  1  0.00373808  -0.00105890  0.49925316  1
  Hf  Hf2  1  0.10357252  0.71309954  0.38342321  1
  Hf  Hf3  1  0.28120268  0.89089593  0.61853348  1
  Hf  Hf4  1  0.59974959  0.19445026  0.00530534  1
  Hf  Hf5  1  0.69605935  0.89759609  0.36221002  1
  Hf  Hf6  1  0.70219853  0.50085300  0.87074690  1
  Hf  Hf7  1  0.20016898  -0.00989154  -0.00473274  1
  Hf  Hf8  1  0.19759957  0.20695798  -0.01587837  1
  Hf  Hf9  1  0.00472190  0.60577452  0.26171206  1
  Hf  Hf10  1  0.91779793  0.29837528  0.87226677  1
  Hf  Hf11  1  0.09959422  0.30965874  0.60694829  1
  Hf  Hf12  1  0.50078920  0.51210278  0.88221877  1
  Hf  Hf13  1  0.21879073  0.60125987  -0.00905649  1
  Hf  Hf14  1  0.70751841  0.29537809  0.62252123  1
  Hf  Hf15  1  0.80268050  0.20849967  0.25224034  1
  Hf  Hf16  1  0.49343106  0.51185092  0.38892492  1
  Hf  Hf17  1  0.69849229  0.30503077  0.12471775  1
  Hf  Hf18  1  0.40058482  0.61587586  0.24391542  1
  Hf  Hf19  1  0.81340147  0.39461347  -0.00850617  1
  Hf  Hf20  1  0.21136236  0.60825070  0.74552605  1
  Hf  Hf21  1  0.78264628  0.41283272  0.49671178  1
  Hf  Hf22  1  0.58355456  0.78965072  0.23431374  1
  Hf  Hf23  1  0.92602935  0.50338316  0.11990693  1
  Hf  Hf24  1  0.20401619  0.18886847  0.49176818  1
  Hf  Hf25  1  0.88359808  0.11195673  0.60570725  1
  Hf  Hf26  1  0.30694020  0.49142952  0.62824927  1
  Hf  Hf27  1  0.90166519  0.49974242  0.62361574  1
  Hf  Hf28  1  0.90620148  0.30554220  0.12951539  1
  Hf  Hf29  1  0.69543116  0.10169272  0.36439832  1
  Hf  Hf30  1  0.71632953  0.50559446  0.11763293  1
  Hf  Hf31  1  0.39633079  0.39954239  0.25648387  1
  Hf  Hf32  1  0.68992549  0.91298404  0.88425244  1
  Hf  Hf33  1  0.58092925  0.80162645  0.75629439  1
  Hf  Hf34  1  0.68628763  0.70390092  0.87922329  1
  Hf  Hf35  1  0.29677134  0.29146528  0.63794427  1
  Hf  Hf36  1  0.49688548  0.29966892  0.38879354  1
  Hf  Hf37  1  0.30536943  0.09374251  0.87153829  1
  Hf  Hf38  1  0.69646986  0.91077013  0.62735340  1
  Hf  Hf39  1  0.19817146  -0.00939912  0.75878635  1
  Zr  Zr40  1  0.59027289  0.39854885  0.75366841  1
  Zr  Zr41  1  0.81106069  0.61433431  0.75716549  1
  Zr  Zr42  1  0.39182181  0.18882207  0.25097160  1
  Zr  Zr43  1  0.57898010  -0.00873384  0.23349793  1
  Zr  Zr44  1  0.40019501  0.20705091  -0.00531128  1
  Zr  Zr45  1  0.80596757  0.18344335  0.75375743  1
  Zr  Zr46  1  0.90296084  0.09658797  0.38027273  1
  Zr  Zr47  1  0.10458509  0.50217309  0.40169489  1
  Zr  Zr48  1  0.81476323  0.61632616  -0.00873164  1
  Zr  Zr49  1  0.10818645  0.49228094  0.86278289  1
  Zr  Zr50  1  0.19498801  0.39590588  -0.01000211  1
  Zr  Zr51  1  0.08288939  0.10088251  0.87289301  1
  Zr  Zr52  1  0.79717106  0.62000415  0.50315317  1
  Zr  Zr53  1  0.60498229  0.19643774  0.75292289  1
  Zr  Zr54  1  0.31216463  0.69531289  0.37817083  1
  Zr  Zr55  1  0.50863080  0.68603092  0.61933716  1
  Zr  Zr56  1  0.10642137  0.10367658  0.62739347  1
  Zr  Zr57  1  0.59770455  0.59734073  0.23541246  1
  Zr  Zr58  1  0.58609239  0.20306903  0.23748443  1
  Zr  Zr59  1  0.60267827  0.40385972  0.25145242  1
  Zr  Zr60  1  0.49056567  0.90114900  0.61995884  1
  Zr  Zr61  1  0.81252105  -0.00773300  0.23210430  1
  Zr  Zr62  1  0.90072298  0.91175554  0.88566452  1
  Zr  Zr63  1  0.20833686  0.79356468  0.24150723  1
  Zr  Zr64  1  0.89493825  0.70993298  0.13298305  1
  Zr  Zr65  1  0.80068807  0.81564401  0.75821687  1
  Zr  Zr66  1  0.29592576  0.09552498  0.11915345  1
  Zr  Zr67  1  0.59556208  0.39237517  -0.00490763  1
  Zr  Zr68  1  0.61053893  0.19339172  0.50380021  1
  Zr  Zr69  1  0.00715571  0.20320400  0.26051702  1
  Zr  Zr70  1  0.10866869  0.31757304  0.13429151  1
  Zr  Zr71  1  0.69139856  0.51442066  0.64198046  1
  Zr  Zr72  1  -0.00186489  0.61553776  0.50775219  1
  Zr  Zr73  1  0.28894724  0.49897336  0.12845722  1
  Zr  Zr74  1  0.69967054  0.69636492  0.36817077  1
  Zr  Zr75  1  0.09769317  0.10536593  0.12642027  1
  Zr  Zr76  1  -0.02008805  0.00770219  0.74550405  1
  Zr  Zr77  1  0.91929121  0.51138767  0.87510670  1
  Zr  Zr78  1  0.39390672  0.78812845  0.50572336  1
  Zr  Zr79  1  0.48903295  0.07928866  0.38119593  1
  Ta  Ta80  1  0.09410427  0.88985636  0.88385021  1
  Ta  Ta81  1  0.78727480  0.00125120  0.49337254  1
  Ta  Ta82  1  0.90153845  0.30748042  0.39369019  1
  Ta  Ta83  1  0.10387668  0.89113427  0.12163076  1
  Ta  Ta84  1  0.49160187  0.49261518  0.11348319  1
  Ta  Ta85  1  0.00824207  -0.00623927  0.24139457  1
  Ta  Ta86  1  0.59976715  0.00729861  0.75303097  1
  Ta  Ta87  1  0.89387730  0.90663412  0.62197251  1
  Ta  Ta88  1  0.29523982  0.90287628  0.38460645  1
  Ta  Ta89  1  0.60832251  0.79409396  0.49583581  1
  Ta  Ta90  1  0.01185260  0.61171749  0.73590607  1
  Ta  Ta91  1  0.79849848  0.00406036  0.02293172  1
  Ta  Ta92  1  0.50099416  0.09507626  0.62004124  1
  Ta  Ta93  1  0.00305262  0.80087399  0.75132312  1
  Ta  Ta94  1  0.79827826  0.80963117  0.00191891  1
  Ta  Ta95  1  0.20754647  -0.00338086  0.24710979  1
  Ta  Ta96  1  0.00246218  0.40807702  0.26853654  1
  Ta  Ta97  1  0.11287536  0.71386446  0.61988208  1
  Ta  Ta98  1  0.19969818  0.39733869  0.27389166  1
  Ta  Ta99  1  0.31960477  0.89152356  0.11652655  1
  Ta  Ta100  1  0.80298638  0.60138749  0.25411621  1
  Ta  Ta101  1  0.39461132  0.19629980  0.50388059  1
  Ta  Ta102  1  0.80386005  0.81122907  0.49856539  1
  Ta  Ta103  1  0.49929891  0.48808599  0.60969951  1
  Ta  Ta104  1  0.19859200  0.58873083  0.25581478  1
  Ta  Ta105  1  0.89370442  0.50883248  0.38158810  1
  Ta  Ta106  1  0.10297039  0.90644439  0.37187128  1
  Ta  Ta107  1  0.08973122  0.89806238  0.62448026  1
  Ta  Ta108  1  -0.00029863  0.21234953  0.00347506  1
  Ta  Ta109  1  0.38911222  0.40185685  -0.00574341  1
  Ta  Ta110  1  0.40720338  -0.01483011  0.75644779  1
  Ta  Ta111  1  0.59525231  0.60846322  0.01564876  1
  Ta  Ta112  1  0.30811752  0.08605426  0.62679163  1
  Ta  Ta113  1  0.80927453  0.39089991  0.75144944  1
  Ta  Ta114  1  0.00545419  0.40259767  0.73666605  1
  Ta  Ta115  1  0.48133132  0.70508972  0.88883393  1
  Ta  Ta116  1  0.09319487  0.69589676  0.87976252  1
  Ta  Ta117  1  0.41653683  0.59774199  0.74671420  1
  Ta  Ta118  1  0.00057492  0.79139203  0.00485354  1
  Ta  Ta119  1  0.38269698  0.78888632  0.75020127  1
  Ti  Ti120  1  0.59506631  0.80039698  0.01247783  1
  Ti  Ti121  1  0.49251959  0.89936150  0.89153705  1
  Ti  Ti122  1  0.22746122  0.39607085  0.48659109  1
  Ti  Ti123  1  0.10561887  0.09148920  0.37305722  1
  Ti  Ti124  1  0.46864234  0.71093205  0.10663445  1
  Ti  Ti125  1  0.30429040  0.88231201  0.88189205  1
  Ti  Ti126  1  0.70042405  0.30795102  0.37854444  1
  Ti  Ti127  1  0.90555655  0.30337569  0.60249152  1
  Ti  Ti128  1  0.10760754  0.50175607  0.61565524  1
  Ti  Ti129  1  0.70669970  0.88186729  0.12884579  1
  Ti  Ti130  1  0.00480346  0.21210884  0.73929835  1
  Ti  Ti131  1  0.90110568  0.89141424  0.36963178  1
  Ti  Ti132  1  0.70096999  0.10114566  0.13027548  1
  Ti  Ti133  1  0.09574484  0.29962196  0.39300932  1
  Ti  Ti134  1  0.20128586  0.79102058  0.00278983  1
  Ti  Ti135  1  0.29842185  0.08562541  0.37805366  1
  Ti  Ti136  1  0.30470704  0.30013967  0.12879060  1
  Ti  Ti137  1  0.70399035  0.09697361  0.88680904  1
  Ti  Ti138  1  0.80401315  0.19536854  0.00876358  1
  Ti  Ti139  1  0.48767868  0.30312734  0.87091965  1
  Ti  Ti140  1  -0.00591957  0.00066633  0.01717913  1
  Ti  Ti141  1  0.90377889  0.71820023  0.62894346  1
  Ti  Ti142  1  0.48810524  0.88222046  0.37800685  1
  Ti  Ti143  1  0.49456372  0.30277812  0.61739621  1
  Ti  Ti144  1  0.48274739  0.08742458  0.11570510  1
  Ti  Ti145  1  0.89154026  0.10024887  0.89078999  1
  Ti  Ti146  1  -0.00346607  0.80767149  0.24727196  1
  Ti  Ti147  1  0.59425591  -0.01028481  0.49679444  1
  Ti  Ti148  1  0.60850698  0.59224384  0.49440958  1
  Ti  Ti149  1  0.70282009  0.71187135  0.63202667  1
  Ti  Ti150  1  0.10303720  0.68095661  0.11943040  1
  Ti  Ti151  1  0.20350959  0.20443643  0.26698192  1
  Ti  Ti152  1  0.22109611  0.61204852  0.51099448  1
  Ti  Ti153  1  0.59924043  -0.00489826  0.01719886  1
  Ti  Ti154  1  -0.00654546  0.80625084  0.49799100  1
  Ti  Ti155  1  0.80647036  0.41018300  0.26268314  1
  Ti  Ti156  1  0.31143215  0.49101027  0.85644109  1
  Ti  Ti157  1  0.70739379  0.29265609  0.87547510  1
  Ti  Ti158  1  0.50780870  0.08663278  0.88403697  1
  Ti  Ti159  1  0.19315413  0.79665620  0.75988543  1
  Mo  Mo160  1  0.19951279  -0.00433154  0.49627797  1
  Mo  Mo161  1  0.10276664  0.50089905  0.13406832  1
  Mo  Mo162  1  0.39384171  0.00322985  0.50238085  1
  Mo  Mo163  1  0.40396179  0.81099723  0.25013395  1
  Mo  Mo164  1  0.29952381  0.69326103  0.86813864  1
  Mo  Mo165  1  0.18519731  0.80243590  0.49703965  1
  Mo  Mo166  1  0.29775631  0.28989134  0.37596585  1
  Mo  Mo167  1  0.00828878  0.39590864  -0.00216973  1
  Mo  Mo168  1  0.29693269  0.30544041  0.84925598  1
  Mo  Mo169  1  0.00378044  0.20219246  0.49009317  1
  Mo  Mo170  1  0.19513096  0.20009101  0.75606807  1
  Mo  Mo171  1  0.10169736  0.29645856  0.85652685  1
  Mo  Mo172  1  0.91075453  0.90124902  0.11956102  1
  Mo  Mo173  1  0.80319904  0.79573633  0.24917140  1
  Mo  Mo174  1  0.89875060  0.71534324  0.36601013  1
  Mo  Mo175  1  0.90015640  0.10860560  0.11953633  1
  Mo  Mo176  1  0.19602845  0.39767907  0.74455122  1
  Mo  Mo177  1  0.69186508  0.09118988  0.61844671  1
  Mo  Mo178  1  0.49779997  0.89871108  0.10708464  1
  Mo  Mo179  1  0.02020141  0.60239466  0.00283538  1
  Mo  Mo180  1  0.91615641  0.71656164  0.87683610  1
  Mo  Mo181  1  0.59725413  0.40017130  0.50331322  1
  Mo  Mo182  1  0.59608671  0.60898959  0.75302010  1
  Mo  Mo183  1  0.38455311  0.79208708  -0.00757215  1
  Mo  Mo184  1  -0.00159401  0.40820211  0.49931273  1
  Mo  Mo185  1  0.40470597  -0.00540443  -0.01028671  1
  Mo  Mo186  1  0.30087856  0.49820408  0.37652941  1
  Mo  Mo187  1  0.79890851  0.20376691  0.48922577  1
  Mo  Mo188  1  0.48465852  0.30528274  0.11925384  1
  Mo  Mo189  1  0.39896956  0.38831416  0.49835041  1
  Mo  Mo190  1  0.30036695  0.69531030  0.62837754  1
  Mo  Mo191  1  0.69762919  0.70150773  0.11710944  1
  Mo  Mo192  1  0.50788720  0.70597450  0.38442537  1
  Mo  Mo193  1  0.39928758  0.58860737  0.50513820  1
  Mo  Mo194  1  0.70400064  0.49701533  0.37111438  1
  Mo  Mo195  1  0.39971880  0.59368300  0.00240242  1
  Mo  Mo196  1  0.38927573  -0.02083570  0.25075307  1
  Mo  Mo197  1  0.28998150  0.70214644  0.12715307  1
  Mo  Mo198  1  0.78804550  0.00952563  0.75259977  1
  Mo  Mo199  1  0.40296674  0.39809287  0.75189886  1
