# generated using pymatgen
data_HfZrTaTiMo
_symmetry_space_group_name_H-M   'P 1'
_cell_length_a   15.20289351
_cell_length_b   15.21780534
_cell_length_c   16.83813137
_cell_angle_alpha   89.97961197
_cell_angle_beta   89.96924522
_cell_angle_gamma   90.08233611
_symmetry_Int_Tables_number   1
_chemical_formula_structural   HfZrTaTiMo
_chemical_formula_sum   'Hf40 Zr40 Ta40 Ti40 Mo40'
_cell_volume   3895.57556365
_cell_formula_units_Z   40
loop_
 _symmetry_equiv_pos_site_id
 _symmetry_equiv_pos_as_xyz
  1  'x, y, z'
loop_
 _atom_site_type_symbol
 _atom_site_label
 _atom_site_symmetry_multiplicity
 _atom_site_fract_x
 _atom_site_fract_y
 _atom_site_fract_z
 _atom_site_occupancy
  Hf  Hf0  1  0.59587129  0.18091488  0.26453577  1
  Hf  Hf1  1  0.21220849  0.00072773  0.24864618  1
  Hf  Hf2  1  -0.01524349  0.01956630  0.50388839  1
  Hf  Hf3  1  0.38382222  0.76624408  0.75300226  1
  Hf  Hf4  1  0.90913496  0.70740979  0.38045719  1
  Hf  Hf5  1  0.28300994  0.88945253  0.63560119  1
  Hf  Hf6  1  0.91201522  0.10446009  0.11660072  1
  Hf  Hf7  1  0.70373609  0.49199265  0.13402425  1
  Hf  Hf8  1  0.09207697  0.69861195  0.11943751  1
  Hf  Hf9  1  0.80119602  0.20899079  0.24652430  1
  Hf  Hf10  1  0.48173728  0.70276922  0.35439491  1
  Hf  Hf11  1  0.91162433  0.31945201  0.11360441  1
  Hf  Hf12  1  0.49328993  0.89275894  0.88681103  1
  Hf  Hf13  1  0.81499656  0.59323916  0.25892416  1
  Hf  Hf14  1  0.50439773  0.69373032  0.13856585  1
  Hf  Hf15  1  0.20133155  0.81261793  0.00716230  1
  Hf  Hf16  1  0.29825074  0.09581680  0.38484650  1
  Hf  Hf17  1  0.59668206  0.78892897  0.00457545  1
  Hf  Hf18  1  0.20370937  0.21436771  0.74346548  1
  Hf  Hf19  1  0.70638898  0.69898990  0.14376676  1
  Hf  Hf20  1  0.27849806  0.67552726  0.62079109  1
  Hf  Hf21  1  0.10380985  0.12200991  0.38178958  1
  Hf  Hf22  1  0.19254155  -0.00631965  0.51288361  1
  Hf  Hf23  1  0.11275501  0.50997357  0.38886968  1
  Hf  Hf24  1  0.68658264  0.90088336  0.12974756  1
  Hf  Hf25  1  0.31018229  0.09736923  0.12478203  1
  Hf  Hf26  1  0.79512180  0.00641756  0.24215938  1
  Hf  Hf27  1  0.78455942  0.58895070  0.74301701  1
  Hf  Hf28  1  0.59942470  0.19082595  0.75712177  1
  Hf  Hf29  1  -0.00237014  0.21008646  0.75216890  1
  Hf  Hf30  1  0.30862078  0.49937870  0.37599606  1
  Hf  Hf31  1  0.61059014  0.38092515  0.26340346  1
  Hf  Hf32  1  0.00292630  0.01332753  0.25409569  1
  Hf  Hf33  1  0.80743652  0.78937701  -0.00213728  1
  Hf  Hf34  1  0.30998901  0.10377957  0.85994680  1
  Hf  Hf35  1  0.89625877  0.71535223  0.62605783  1
  Hf  Hf36  1  0.01293536  0.23587816  0.25034944  1
  Hf  Hf37  1  0.78880861  0.81388089  0.75274454  1
  Hf  Hf38  1  0.09170186  0.49104137  0.11803001  1
  Hf  Hf39  1  0.28797867  0.89326595  0.86300752  1
  Zr  Zr40  1  0.11247060  0.70622991  0.86575573  1
  Zr  Zr41  1  0.71375945  0.08867255  0.38833606  1
  Zr  Zr42  1  0.61176845  -0.00667320  0.75113617  1
  Zr  Zr43  1  0.90009164  0.88876030  0.13092375  1
  Zr  Zr44  1  0.11249860  0.12823671  0.12381652  1
  Zr  Zr45  1  0.00304798  0.82118961  0.50910289  1
  Zr  Zr46  1  0.28556218  0.29748709  0.12800760  1
  Zr  Zr47  1  0.69118179  0.69348938  0.61744732  1
  Zr  Zr48  1  0.47787716  0.67832294  0.89284015  1
  Zr  Zr49  1  0.69893454  0.89753303  0.61024507  1
  Zr  Zr50  1  0.58817856  0.79301596  0.49113845  1
  Zr  Zr51  1  0.09871034  0.91497818  0.12512028  1
  Zr  Zr52  1  0.30351775  0.88846693  0.37849169  1
  Zr  Zr53  1  0.42734978  0.40236148  0.49354379  1
  Zr  Zr54  1  0.01411976  0.40787649  0.73334239  1
  Zr  Zr55  1  0.91915693  0.49234678  0.39565847  1
  Zr  Zr56  1  0.38482710  0.78997568  0.50392956  1
  Zr  Zr57  1  0.59582085  0.39722096  0.75487224  1
  Zr  Zr58  1  0.80117170  0.38609917  0.74225028  1
  Zr  Zr59  1  0.42674778  -0.00570652  0.25817339  1
  Zr  Zr60  1  0.40958257  -0.00294520  0.74322866  1
  Zr  Zr61  1  0.69035280  0.69911860  0.35463183  1
  Zr  Zr62  1  0.01220513  0.20508036  -0.02805941  1
  Zr  Zr63  1  0.80420925  0.38075696  0.49686982  1
  Zr  Zr64  1  0.39706484  0.20013116  0.49743763  1
  Zr  Zr65  1  0.89615068  0.50831505  0.61443958  1
  Zr  Zr66  1  0.48405756  0.66467176  0.61728915  1
  Zr  Zr67  1  0.69230369  0.29085001  0.62056031  1
  Zr  Zr68  1  0.89741237  0.50349696  0.86708295  1
  Zr  Zr69  1  0.18310962  0.39504646  0.25060410  1
  Zr  Zr70  1  0.20811896  0.20957515  -0.02429879  1
  Zr  Zr71  1  0.90879204  0.70306528  0.85527814  1
  Zr  Zr72  1  0.80133770  0.20817223  0.00030572  1
  Zr  Zr73  1  0.51285036  0.09454496  0.11271914  1
  Zr  Zr74  1  0.69625420  0.68511493  0.87969740  1
  Zr  Zr75  1  0.57929203  0.58589202  0.75563988  1
  Zr  Zr76  1  0.59696844  0.21812411  0.47586627  1
  Zr  Zr77  1  0.10066230  0.89295204  0.37096044  1
  Zr  Zr78  1  0.71232961  0.09072014  0.61083710  1
  Zr  Zr79  1  0.58733806  0.79291572  0.75344923  1
  Ta  Ta80  1  0.88848605  0.90924249  0.36783475  1
  Ta  Ta81  1  0.00515578  0.00187999  -0.01807188  1
  Ta  Ta82  1  0.69585436  0.30138651  0.88053052  1
  Ta  Ta83  1  0.82056905  0.39437374  0.26289138  1
  Ta  Ta84  1  0.49218088  0.29155199  0.87813974  1
  Ta  Ta85  1  0.69659161  0.90166539  0.89044462  1
  Ta  Ta86  1  0.70432838  0.09370349  0.88855821  1
  Ta  Ta87  1  0.68080787  0.49529839  0.60343802  1
  Ta  Ta88  1  0.89280944  0.90768835  0.87211586  1
  Ta  Ta89  1  -0.00511271  0.60588229  -0.00497726  1
  Ta  Ta90  1  0.50031096  0.48808904  0.13799629  1
  Ta  Ta91  1  0.50535167  0.09497821  0.88984222  1
  Ta  Ta92  1  0.02217917  0.61929732  0.51355594  1
  Ta  Ta93  1  0.00375931  0.40893094  -0.01672827  1
  Ta  Ta94  1  0.69117931  0.89410990  0.36129776  1
  Ta  Ta95  1  0.40288258  0.20384321  -0.00252635  1
  Ta  Ta96  1  0.79287399  0.60529271  0.49306816  1
  Ta  Ta97  1  0.28344328  0.29815474  0.37922920  1
  Ta  Ta98  1  0.80405480  -0.00308486  0.00349864  1
  Ta  Ta99  1  0.38755511  -0.00739622  -0.00201864  1
  Ta  Ta100  1  0.80500119  0.17986255  0.75846126  1
  Ta  Ta101  1  0.70444042  0.49539221  0.37611036  1
  Ta  Ta102  1  0.50515377  0.10658804  0.61723706  1
  Ta  Ta103  1  0.32731706  0.30852838  0.63692017  1
  Ta  Ta104  1  0.00880296  0.59512860  0.25364173  1
  Ta  Ta105  1  0.09422108  0.31492061  0.39880707  1
  Ta  Ta106  1  0.20204031  0.79180190  0.23567703  1
  Ta  Ta107  1  0.27614213  0.69384487  0.37497448  1
  Ta  Ta108  1  0.20187612  0.40898605  -0.00836198  1
  Ta  Ta109  1  0.21382248  0.40506098  0.52372974  1
  Ta  Ta110  1  0.58275592  0.58256743  0.48237754  1
  Ta  Ta111  1  0.00035762  0.80521031  -0.00764646  1
  Ta  Ta112  1  0.19724089  0.20827607  0.52432688  1
  Ta  Ta113  1  0.40470959  -0.00512056  0.50956619  1
  Ta  Ta114  1  0.38462615  0.59737031  0.23767163  1
  Ta  Ta115  1  0.09292187  0.90647018  0.85680036  1
  Ta  Ta116  1  0.49622973  0.29472491  0.13151762  1
  Ta  Ta117  1  0.39531256  0.19970468  0.26346173  1
  Ta  Ta118  1  0.21891723  0.43022802  0.73212324  1
  Ta  Ta119  1  -0.01798492  0.01695846  0.76145949  1
  Ti  Ti120  1  0.60105478  0.58088861  0.00789586  1
  Ti  Ti121  1  0.10236723  0.71955086  0.64047972  1
  Ti  Ti122  1  0.30569925  0.10003684  0.63485736  1
  Ti  Ti123  1  0.39676553  0.39476616  0.00787981  1
  Ti  Ti124  1  0.20492221  0.60416039  0.00189373  1
  Ti  Ti125  1  0.09661522  0.09878957  0.63755697  1
  Ti  Ti126  1  0.38502603  0.80212377  0.23456409  1
  Ti  Ti127  1  0.01625536  0.40058337  0.53005089  1
  Ti  Ti128  1  0.39550294  0.39333310  0.25060373  1
  Ti  Ti129  1  0.89476191  0.30527742  0.87415064  1
  Ti  Ti130  1  0.69508011  0.29880719  0.12196150  1
  Ti  Ti131  1  0.69942150  0.10015788  0.11433949  1
  Ti  Ti132  1  0.82218168  0.18935718  0.50249238  1
  Ti  Ti133  1  0.39551094  0.58938903  0.02147925  1
  Ti  Ti134  1  0.90676385  0.11603152  0.37103324  1
  Ti  Ti135  1  0.00194945  0.21505252  0.52419247  1
  Ti  Ti136  1  0.79857338  0.59489275  0.00111071  1
  Ti  Ti137  1  0.08823714  0.90701510  0.65217462  1
  Ti  Ti138  1  0.19594140  0.00921246  -0.00837485  1
  Ti  Ti139  1  0.38679476  0.79035422  0.01615694  1
  Ti  Ti140  1  0.11252049  0.32449766  0.86062765  1
  Ti  Ti141  1  0.90117539  0.50722192  0.12106297  1
  Ti  Ti142  1  0.79280166  0.40926673  -0.00705338  1
  Ti  Ti143  1  0.10734857  0.51220467  0.87153841  1
  Ti  Ti144  1  0.49190333  0.48415680  0.88814443  1
  Ti  Ti145  1  0.50463409  0.50340073  0.35009752  1
  Ti  Ti146  1  0.79711919  0.80718860  0.49132521  1
  Ti  Ti147  1  0.01644491  0.60150793  0.73278660  1
  Ti  Ti148  1  0.49357175  0.90145626  0.11627076  1
  Ti  Ti149  1  0.49587620  0.89294314  0.62299242  1
  Ti  Ti150  1  0.19798611  0.60271036  0.24304794  1
  Ti  Ti151  1  -0.00081379  0.79474809  0.25190122  1
  Ti  Ti152  1  0.59278821  0.39339162  0.00351857  1
  Ti  Ti153  1  0.58995016  -0.00386579  0.49023524  1
  Ti  Ti154  1  0.31222220  0.31924659  0.85912347  1
  Ti  Ti155  1  0.89015902  0.92442757  0.63556996  1
  Ti  Ti156  1  0.30357218  0.51278362  0.87787581  1
  Ti  Ti157  1  0.59925743  0.20454724  -0.00193505  1
  Ti  Ti158  1  0.90191724  0.69516564  0.12899261  1
  Ti  Ti159  1  0.29608463  0.49659929  0.12596363  1
  Mo  Mo160  1  0.89830136  0.10033213  0.88567262  1
  Mo  Mo161  1  0.29637730  0.69272575  0.12280355  1
  Mo  Mo162  1  0.40099364  0.59631391  0.48231770  1
  Mo  Mo163  1  0.20405651  0.60064056  0.49696475  1
  Mo  Mo164  1  0.60375225  -0.00126560  0.25477731  1
  Mo  Mo165  1  0.57973655  0.81712220  0.24788602  1
  Mo  Mo166  1  0.09709311  0.31215345  0.10851647  1
  Mo  Mo167  1  0.30051419  0.69331643  0.89381847  1
  Mo  Mo168  1  0.11720856  0.52317558  0.61927051  1
  Mo  Mo169  1  0.50018785  0.47802340  0.62024906  1
  Mo  Mo170  1  0.41191370  0.20225981  0.74661518  1
  Mo  Mo171  1  0.80695610  -0.00841211  0.49158048  1
  Mo  Mo172  1  0.90290982  0.10203122  0.63025544  1
  Mo  Mo173  1  0.19185505  0.00940722  0.74311480  1
  Mo  Mo174  1  0.50512616  0.29152903  0.62748180  1
  Mo  Mo175  1  0.90152219  0.29033026  0.62863358  1
  Mo  Mo176  1  0.79223303  0.00479702  0.76052392  1
  Mo  Mo177  1  0.49598983  0.09180523  0.38905410  1
  Mo  Mo178  1  0.20934402  0.60512356  0.75699122  1
  Mo  Mo179  1  0.60650487  0.39995059  0.47580027  1
  Mo  Mo180  1  0.09921962  0.70062337  0.36746670  1
  Mo  Mo181  1  0.20439997  0.20384931  0.26184192  1
  Mo  Mo182  1  0.10890691  0.09405239  0.85918321  1
  Mo  Mo183  1  0.69028791  0.49075724  0.89176211  1
  Mo  Mo184  1  -0.00569027  0.41613968  0.25449238  1
  Mo  Mo185  1  0.50047301  0.89773439  0.37897974  1
  Mo  Mo186  1  0.91738992  0.29086035  0.38595781  1
  Mo  Mo187  1  0.19516375  0.80050682  0.75286170  1
  Mo  Mo188  1  0.48638212  0.30277234  0.35695567  1
  Mo  Mo189  1  0.80740768  0.80252897  0.25378524  1
  Mo  Mo190  1  0.11388045  0.30626378  0.62789836  1
  Mo  Mo191  1  0.38535610  0.57160845  0.75565708  1
  Mo  Mo192  1  0.40782055  0.40154780  0.75590444  1
  Mo  Mo193  1  0.59638848  0.58947808  0.24889890  1
  Mo  Mo194  1  0.30548489  0.90206867  0.12370197  1
  Mo  Mo195  1  0.32413921  0.50348193  0.61756924  1
  Mo  Mo196  1  0.17767583  0.78786302  0.50361593  1
  Mo  Mo197  1  0.59999530  -0.00252218  -0.00255016  1
  Mo  Mo198  1  0.72093252  0.29438176  0.37231180  1
  Mo  Mo199  1  -0.00907133  0.81141920  0.74348986  1
