# generated using pymatgen
data_HfZrTaTiMo
_symmetry_space_group_name_H-M   'P 1'
_cell_length_a   15.21567119
_cell_length_b   15.20593432
_cell_length_c   16.83477055
_cell_angle_alpha   90.02495416
_cell_angle_beta   90.00259769
_cell_angle_gamma   90.00574997
_symmetry_Int_Tables_number   1
_chemical_formula_structural   HfZrTaTiMo
_chemical_formula_sum   'Hf40 Zr40 Ta40 Ti40 Mo40'
_cell_volume   3895.03516101
_cell_formula_units_Z   40
loop_
 _symmetry_equiv_pos_site_id
 _symmetry_equiv_pos_as_xyz
  1  'x, y, z'
loop_
 _atom_site_type_symbol
 _atom_site_label
 _atom_site_symmetry_multiplicity
 _atom_site_fract_x
 _atom_site_fract_y
 _atom_site_fract_z
 _atom_site_occupancy
  Hf  Hf0  1  0.90251438  0.10865584  0.35912295  1
  Hf  Hf1  1  0.30193024  0.10301393  0.63256604  1
  Hf  Hf2  1  0.88864687  0.68889389  0.39276440  1
  Hf  Hf3  1  -0.00819440  0.60023198  0.74995183  1
  Hf  Hf4  1  0.29429153  0.71037588  0.12884214  1
  Hf  Hf5  1  0.00943909  0.58923953  0.50582616  1
  Hf  Hf6  1  0.20335882  0.00251369  0.51319962  1
  Hf  Hf7  1  0.30315201  0.30309906  0.87477664  1
  Hf  Hf8  1  0.60485959  0.19011749  0.49151324  1
  Hf  Hf9  1  0.60862369  0.40616253  0.72828317  1
  Hf  Hf10  1  0.60548207  0.21197734  -0.01060221  1
  Hf  Hf11  1  0.59901473  0.17661615  0.26404783  1
  Hf  Hf12  1  0.29075995  0.70310747  0.37274310  1
  Hf  Hf13  1  0.08720305  0.71706094  0.37781999  1
  Hf  Hf14  1  0.68681259  0.08914810  0.62392160  1
  Hf  Hf15  1  0.09724481  0.29869169  0.34943483  1
  Hf  Hf16  1  0.39682358  0.80859618  -0.01004390  1
  Hf  Hf17  1  0.67775164  0.69271508  0.61424877  1
  Hf  Hf18  1  0.81516941  0.39306739  0.51240100  1
  Hf  Hf19  1  0.70285451  0.47679341  0.87129346  1
  Hf  Hf20  1  0.61174487  0.39965364  0.50295041  1
  Hf  Hf21  1  0.11790819  0.50878209  0.63591958  1
  Hf  Hf22  1  0.80698670  0.40160083  0.01273961  1
  Hf  Hf23  1  0.01095022  0.19867974  0.01344578  1
  Hf  Hf24  1  -0.00680227  0.00003324  0.73864718  1
  Hf  Hf25  1  0.30696359  0.50113562  0.13037814  1
  Hf  Hf26  1  0.41272517  0.41069807  0.51369782  1
  Hf  Hf27  1  -0.00617866  0.42531438  0.24538051  1
  Hf  Hf28  1  0.31510926  0.51112895  0.36140891  1
  Hf  Hf29  1  0.41278895  0.20079000  0.74557936  1
  Hf  Hf30  1  0.78471811  0.58437700  0.73236411  1
  Hf  Hf31  1  0.29294691  0.30758978  0.63002697  1
  Hf  Hf32  1  0.20181369  0.59847572  -0.00898533  1
  Hf  Hf33  1  -0.00081312  0.00703915  0.49877315  1
  Hf  Hf34  1  0.18944330  0.80006521  -0.00631844  1
  Hf  Hf35  1  0.59622723  0.40680983  0.00627913  1
  Hf  Hf36  1  0.69608243  0.69853651  0.38782722  1
  Hf  Hf37  1  0.87914685  0.70191588  0.88355083  1
  Hf  Hf38  1  0.49480185  0.29893755  0.37492955  1
  Hf  Hf39  1  0.89422030  0.30848440  0.35807783  1
  Zr  Zr40  1  0.51685340  0.10013098  0.11125132  1
  Zr  Zr41  1  0.89262735  0.88406491  0.12855629  1
  Zr  Zr42  1  0.41664896  0.60257288  -0.00251407  1
  Zr  Zr43  1  -0.00341347  0.59607121  -0.00030865  1
  Zr  Zr44  1  0.89746089  0.30021169  0.87734255  1
  Zr  Zr45  1  0.77641575  -0.01353284  0.26696572  1
  Zr  Zr46  1  0.90698900  0.09769056  0.87935223  1
  Zr  Zr47  1  0.01076149  0.38605901  0.49878477  1
  Zr  Zr48  1  0.30024930  0.11022465  0.87381135  1
  Zr  Zr49  1  0.21358550  0.19423984  0.23777209  1
  Zr  Zr50  1  0.70329891  0.51116352  0.13536584  1
  Zr  Zr51  1  0.01424588  -0.00959772  0.24782400  1
  Zr  Zr52  1  0.20776121  0.42863919  0.49839966  1
  Zr  Zr53  1  0.70301371  0.88206277  0.87451943  1
  Zr  Zr54  1  0.48034165  0.70460217  0.62137607  1
  Zr  Zr55  1  0.40692369  0.41459701  0.73558837  1
  Zr  Zr56  1  0.39214599  0.81273280  0.25330095  1
  Zr  Zr57  1  0.09580450  0.72274577  0.64171041  1
  Zr  Zr58  1  0.90428141  0.89220123  0.88255390  1
  Zr  Zr59  1  0.49596249  0.90186352  0.12817335  1
  Zr  Zr60  1  0.29209508  0.90679187  0.86571521  1
  Zr  Zr61  1  0.08558165  0.11772879  0.62515842  1
  Zr  Zr62  1  0.30149906  0.30761385  0.36923349  1
  Zr  Zr63  1  0.69464377  0.29587589  0.14287597  1
  Zr  Zr64  1  0.29476481  0.91379292  0.37871047  1
  Zr  Zr65  1  0.69173847  0.88945521  0.12152401  1
  Zr  Zr66  1  0.59380404  0.77961141  -0.00893061  1
  Zr  Zr67  1  0.20345521  0.00831788  0.01168782  1
  Zr  Zr68  1  0.71131200  0.09421397  0.12310234  1
  Zr  Zr69  1  0.70319349  0.10257117  0.87404142  1
  Zr  Zr70  1  0.21842850  -0.00252326  0.22729672  1
  Zr  Zr71  1  0.18850559  0.80447733  0.50514111  1
  Zr  Zr72  1  0.89958899  0.29305905  0.14526987  1
  Zr  Zr73  1  0.89049368  0.69942601  0.61194264  1
  Zr  Zr74  1  0.90402270  0.88106891  0.37812116  1
  Zr  Zr75  1  0.90036595  0.49754760  0.87432145  1
  Zr  Zr76  1  -0.00894166  0.61971020  0.24421039  1
  Zr  Zr77  1  0.18914098  0.21225615  0.49543376  1
  Zr  Zr78  1  0.50600666  0.69192048  0.14123142  1
  Zr  Zr79  1  0.79420682  -0.01114517  0.74164566  1
  Ta  Ta80  1  0.17656173  0.80684764  0.24732590  1
  Ta  Ta81  1  0.50278294  0.90539276  0.62708611  1
  Ta  Ta82  1  0.40504722  -0.00039454  0.74747645  1
  Ta  Ta83  1  0.00323099  -0.00134677  0.00972221  1
  Ta  Ta84  1  0.80301171  -0.00268041  0.00290869  1
  Ta  Ta85  1  0.58744507  -0.00306901  0.75702196  1
  Ta  Ta86  1  0.80723626  0.19541939  0.74109793  1
  Ta  Ta87  1  0.09630303  0.89125659  0.11674632  1
  Ta  Ta88  1  0.29926006  0.88700457  0.63796274  1
  Ta  Ta89  1  0.51188736  0.31269908  0.86802217  1
  Ta  Ta90  1  0.90380581  0.89377093  0.61267150  1
  Ta  Ta91  1  0.48893806  0.29535751  0.13458464  1
  Ta  Ta92  1  0.68131066  0.67319504  0.86738161  1
  Ta  Ta93  1  0.09343555  0.90521283  0.86856954  1
  Ta  Ta94  1  0.81131155  0.38962374  0.72831814  1
  Ta  Ta95  1  0.08861889  0.71136042  0.86430710  1
  Ta  Ta96  1  0.59354620  0.59388930  0.27112593  1
  Ta  Ta97  1  0.40914254  0.02366024  0.24808326  1
  Ta  Ta98  1  0.11033697  0.30986824  0.13664797  1
  Ta  Ta99  1  0.10566272  0.49215109  0.87117423  1
  Ta  Ta100  1  0.19391852  0.00198928  0.74049208  1
  Ta  Ta101  1  0.40251921  0.80316595  0.75860750  1
  Ta  Ta102  1  0.19393934  0.60468286  0.24414208  1
  Ta  Ta103  1  0.79174408  -0.00618435  0.49377199  1
  Ta  Ta104  1  0.00442307  0.39545864  0.74515669  1
  Ta  Ta105  1  0.58653060  0.80468678  0.49263220  1
  Ta  Ta106  1  0.71700211  0.49047010  0.37455300  1
  Ta  Ta107  1  0.81279087  0.18984638  0.49966893  1
  Ta  Ta108  1  0.60111995  0.40095561  0.26256409  1
  Ta  Ta109  1  0.30972311  0.49826612  0.87685159  1
  Ta  Ta110  1  0.10579350  0.10224992  0.87149254  1
  Ta  Ta111  1  0.51163088  0.51451406  0.87013597  1
  Ta  Ta112  1  0.30963595  0.10861642  0.38039407  1
  Ta  Ta113  1  0.20744449  0.60023898  0.76649146  1
  Ta  Ta114  1  0.32663499  0.11925217  0.11002997  1
  Ta  Ta115  1  0.10643022  0.50309415  0.12485080  1
  Ta  Ta116  1  0.40170846  0.19585651  0.50963727  1
  Ta  Ta117  1  0.11050726  0.09445503  0.37165807  1
  Ta  Ta118  1  0.71055826  0.28482904  0.62284724  1
  Ta  Ta119  1  0.87914091  0.69149029  0.11045877  1
  Ti  Ti120  1  0.40541934  0.60467964  0.75173845  1
  Ti  Ti121  1  0.40527916  0.39430270  -0.00047086  1
  Ti  Ti122  1  0.39411221  0.80772984  0.49871731  1
  Ti  Ti123  1  0.30188486  0.69927530  0.86992426  1
  Ti  Ti124  1  0.91726377  0.27804569  0.62276893  1
  Ti  Ti125  1  0.69946729  0.70035266  0.13334837  1
  Ti  Ti126  1  0.00972813  0.39927631  0.01038332  1
  Ti  Ti127  1  0.80161913  0.59257415  0.25645950  1
  Ti  Ti128  1  0.20518066  0.20977561  0.01071401  1
  Ti  Ti129  1  0.28602909  0.69171841  0.63392106  1
  Ti  Ti130  1  0.60778477  0.20017095  0.75493170  1
  Ti  Ti131  1  0.00390221  0.20377853  0.75656382  1
  Ti  Ti132  1  0.70931320  0.28720511  0.36680699  1
  Ti  Ti133  1  0.59241231  0.79623884  0.75525403  1
  Ti  Ti134  1  0.10515768  0.29744242  0.87527700  1
  Ti  Ti135  1  0.20278045  0.40127348  0.75691098  1
  Ti  Ti136  1  0.90342825  0.09429516  0.13845531  1
  Ti  Ti137  1  0.61249883  0.80363524  0.26636962  1
  Ti  Ti138  1  0.30623095  0.31066038  0.12663203  1
  Ti  Ti139  1  0.40792824  -0.00068684  0.51178456  1
  Ti  Ti140  1  0.48550363  0.69378809  0.37541461  1
  Ti  Ti141  1  0.49641305  0.10651810  0.88051191  1
  Ti  Ti142  1  0.58295473  0.58863220  0.48948950  1
  Ti  Ti143  1  0.50116417  0.90125720  0.37240877  1
  Ti  Ti144  1  0.79318597  0.58041300  0.51120547  1
  Ti  Ti145  1  0.79991453  0.79071716  0.74027042  1
  Ti  Ti146  1  0.51116746  0.28473756  0.62150012  1
  Ti  Ti147  1  0.20066727  0.39990467  -0.00106780  1
  Ti  Ti148  1  0.50374478  0.49780586  0.13384508  1
  Ti  Ti149  1  0.10724521  0.51091960  0.36742693  1
  Ti  Ti150  1  0.80490935  0.19932704  0.00246476  1
  Ti  Ti151  1  0.59808214  -0.00906584  0.49332073  1
  Ti  Ti152  1  0.40497422  0.00399337  -0.00571449  1
  Ti  Ti153  1  0.69550311  0.88720199  0.62105715  1
  Ti  Ti154  1  0.08537834  0.70581072  0.11955157  1
  Ti  Ti155  1  0.10379682  0.30437698  0.63427948  1
  Ti  Ti156  1  0.59873399  -0.00865030  -0.01792365  1
  Ti  Ti157  1  0.40983191  0.40655960  0.25005482  1
  Ti  Ti158  1  0.38387773  0.60053946  0.50685658  1
  Ti  Ti159  1  0.49327573  0.09119456  0.38207097  1
  Mo  Mo160  1  0.59008458  0.59796086  0.74297007  1
  Mo  Mo161  1  0.90194291  0.50454254  0.11824565  1
  Mo  Mo162  1  0.50544925  0.50220206  0.37746629  1
  Mo  Mo163  1  0.00957923  0.19409660  0.23496437  1
  Mo  Mo164  1  0.20361763  0.60629549  0.49957445  1
  Mo  Mo165  1  -0.00891152  0.79586209  0.24288946  1
  Mo  Mo166  1  0.79427193  0.40618248  0.25268265  1
  Mo  Mo167  1  0.78494832  0.80400991  0.51054191  1
  Mo  Mo168  1  0.30361892  0.90582317  0.11845936  1
  Mo  Mo169  1  0.79932620  0.19176126  0.25556735  1
  Mo  Mo170  1  0.77712572  0.60146155  -0.00090934  1
  Mo  Mo171  1  0.79747836  0.77390027  0.25196608  1
  Mo  Mo172  1  0.89967955  0.50454078  0.38005796  1
  Mo  Mo173  1  0.49856061  0.90969801  0.86996504  1
  Mo  Mo174  1  0.40461499  0.60187857  0.24813282  1
  Mo  Mo175  1  0.69364584  0.88988334  0.38546450  1
  Mo  Mo176  1  0.69919723  0.09492270  0.38910099  1
  Mo  Mo177  1  0.40926046  0.21747636  -0.00612853  1
  Mo  Mo178  1  0.91003212  0.48786369  0.62983517  1
  Mo  Mo179  1  0.88581638  0.10193837  0.61987420  1
  Mo  Mo180  1  0.50893785  0.51827876  0.62047226  1
  Mo  Mo181  1  0.70291938  0.29748327  0.86176146  1
  Mo  Mo182  1  0.10159938  0.90905569  0.37146633  1
  Mo  Mo183  1  0.49521371  0.70250549  0.86300703  1
  Mo  Mo184  1  -0.00306502  0.20260133  0.48999982  1
  Mo  Mo185  1  0.30670920  0.51992545  0.63430687  1
  Mo  Mo186  1  0.50132620  0.09387476  0.62318630  1
  Mo  Mo187  1  -0.01129595  0.80650351  0.75196329  1
  Mo  Mo188  1  -0.00513773  0.80862095  0.50323757  1
  Mo  Mo189  1  0.58795932  -0.01217140  0.26555704  1
  Mo  Mo190  1  -0.00004185  0.80021548  0.00002678  1
  Mo  Mo191  1  0.09844192  0.90634041  0.63574870  1
  Mo  Mo192  1  0.40505093  0.20282210  0.24999601  1
  Mo  Mo193  1  0.19154299  0.20901622  0.75468490  1
  Mo  Mo194  1  0.09994121  0.10485938  0.11991478  1
  Mo  Mo195  1  0.60320634  0.59167286  0.00076548  1
  Mo  Mo196  1  0.20011305  0.41347932  0.24459810  1
  Mo  Mo197  1  0.79128857  0.79140897  -0.00016090  1
  Mo  Mo198  1  0.70179097  0.49556972  0.61451225  1
  Mo  Mo199  1  0.19995989  0.80012190  0.75971017  1
