# generated using pymatgen
data_HfZrTaTiMo
_symmetry_space_group_name_H-M   'P 1'
_cell_length_a   15.21220614
_cell_length_b   15.21034113
_cell_length_c   16.86755805
_cell_angle_alpha   90.11191635
_cell_angle_beta   90.01076735
_cell_angle_gamma   89.91209452
_symmetry_Int_Tables_number   1
_chemical_formula_structural   HfZrTaTiMo
_chemical_formula_sum   'Hf40 Zr40 Ta40 Ti40 Mo40'
_cell_volume   3902.85145885
_cell_formula_units_Z   40
loop_
 _symmetry_equiv_pos_site_id
 _symmetry_equiv_pos_as_xyz
  1  'x, y, z'
loop_
 _atom_site_type_symbol
 _atom_site_label
 _atom_site_symmetry_multiplicity
 _atom_site_fract_x
 _atom_site_fract_y
 _atom_site_fract_z
 _atom_site_occupancy
  Hf  Hf0  1  0.69922209  0.89962895  0.13530696  1
  Hf  Hf1  1  0.07800643  0.49693464  0.13426526  1
  Hf  Hf2  1  0.59024652  -0.00332936  0.00770540  1
  Hf  Hf3  1  0.30696522  0.28537545  0.11668363  1
  Hf  Hf4  1  0.20020105  0.80500734  0.25589810  1
  Hf  Hf5  1  0.31291460  0.69881032  0.38084272  1
  Hf  Hf6  1  0.60838100  0.60889438  0.74150928  1
  Hf  Hf7  1  0.49735148  0.49738896  0.38309192  1
  Hf  Hf8  1  0.18912731  -0.00561680  0.75101878  1
  Hf  Hf9  1  0.30029404  0.70769832  0.11921734  1
  Hf  Hf10  1  0.81906141  0.80248311  0.25424423  1
  Hf  Hf11  1  -0.02018661  0.59477774  0.26062384  1
  Hf  Hf12  1  0.27638819  0.49251042  0.64325306  1
  Hf  Hf13  1  0.38569199  0.00682361  0.49992279  1
  Hf  Hf14  1  0.60725089  0.78516603  0.26208389  1
  Hf  Hf15  1  0.89596332  0.88402350  0.61579812  1
  Hf  Hf16  1  0.88483643  0.11144951  0.88407452  1
  Hf  Hf17  1  0.40227979  0.81091860  -0.00099920  1
  Hf  Hf18  1  -0.00567972  0.41240258  -0.00631590  1
  Hf  Hf19  1  0.50294814  0.11407204  0.61376711  1
  Hf  Hf20  1  0.20629511  0.58565971  0.50410926  1
  Hf  Hf21  1  0.60645528  0.80368771  -0.00272789  1
  Hf  Hf22  1  0.00260529  0.60237136  0.74066429  1
  Hf  Hf23  1  0.10295139  0.70154308  0.37614885  1
  Hf  Hf24  1  0.20222750  0.39260694  0.24661652  1
  Hf  Hf25  1  0.70539960  0.30584775  0.13813200  1
  Hf  Hf26  1  0.49974926  0.49564900  0.87306145  1
  Hf  Hf27  1  -0.00856771  -0.01014471  0.23804878  1
  Hf  Hf28  1  0.20180168  0.80598980  0.50330817  1
  Hf  Hf29  1  0.70158284  0.69485758  0.12285261  1
  Hf  Hf30  1  0.81442286  0.58597140  -0.00329436  1
  Hf  Hf31  1  0.60538800  0.59945359  -0.00820972  1
  Hf  Hf32  1  0.10716298  0.49634802  0.36945167  1
  Hf  Hf33  1  0.20148927  -0.00552038  -0.00461826  1
  Hf  Hf34  1  0.00109393  0.20281049  0.49491842  1
  Hf  Hf35  1  0.40967341  0.39303430  0.24598923  1
  Hf  Hf36  1  0.30123993  0.50121364  0.11841109  1
  Hf  Hf37  1  0.40128677  0.20862419  0.75378906  1
  Hf  Hf38  1  0.19989047  0.21426704  0.49798207  1
  Hf  Hf39  1  -0.00453543  0.59718262  0.51066278  1
  Zr  Zr40  1  0.61202221  0.20410691  -0.00775451  1
  Zr  Zr41  1  0.50203468  0.70939015  0.86780574  1
  Zr  Zr42  1  0.17836181  0.60725715  -0.00651460  1
  Zr  Zr43  1  0.90053251  0.89889666  0.87776850  1
  Zr  Zr44  1  0.09450758  0.69858635  0.13421144  1
  Zr  Zr45  1  0.28354144  0.70708388  0.86765199  1
  Zr  Zr46  1  0.89376230  0.09574043  0.60433679  1
  Zr  Zr47  1  0.39979507  0.00699039  0.74243633  1
  Zr  Zr48  1  -0.00573420  0.00403088  0.01084124  1
  Zr  Zr49  1  0.01584760  0.39613138  0.48733524  1
  Zr  Zr50  1  0.48187657  0.10673311  0.12540190  1
  Zr  Zr51  1  0.58125357  0.20823037  0.25982322  1
  Zr  Zr52  1  0.60140639  0.59476868  0.52082557  1
  Zr  Zr53  1  0.70241399  0.10987358  0.13425551  1
  Zr  Zr54  1  0.19303685  0.00098976  0.24093498  1
  Zr  Zr55  1  0.71513526  0.49416901  0.85830805  1
  Zr  Zr56  1  0.60034997  0.38003228  0.75658400  1
  Zr  Zr57  1  0.80261368  0.00789084  0.25701908  1
  Zr  Zr58  1  0.62682852  0.80182573  0.49444890  1
  Zr  Zr59  1  0.60726437  0.18274552  0.75752702  1
  Zr  Zr60  1  0.51563452  0.91086969  0.61885853  1
  Zr  Zr61  1  0.19190653  0.39793915  -0.00389282  1
  Zr  Zr62  1  0.70465739  0.27800572  0.60737627  1
  Zr  Zr63  1  0.77739857  -0.01382689  0.75039946  1
  Zr  Zr64  1  0.38929518  0.01756519  0.26012741  1
  Zr  Zr65  1  0.10445874  0.70872410  0.63126076  1
  Zr  Zr66  1  0.48635430  0.89245559  0.37686106  1
  Zr  Zr67  1  0.69301009  0.30557974  0.37519678  1
  Zr  Zr68  1  0.29240324  0.29945769  0.87383963  1
  Zr  Zr69  1  0.10180882  0.09543860  0.37188805  1
  Zr  Zr70  1  0.39862389  0.59912345  0.75138008  1
  Zr  Zr71  1  -0.00957631  0.01511261  0.74454417  1
  Zr  Zr72  1  0.39878673  0.22107823  0.50315819  1
  Zr  Zr73  1  0.08770929  0.10933180  0.87689620  1
  Zr  Zr74  1  0.69427638  0.07777369  0.60271857  1
  Zr  Zr75  1  0.50443222  0.68604772  0.38458639  1
  Zr  Zr76  1  0.89834066  0.71118733  0.38896117  1
  Zr  Zr77  1  0.80378710  0.38099835  -0.00306883  1
  Zr  Zr78  1  0.81196833  0.40234449  0.48715973  1
  Zr  Zr79  1  0.70484161  0.47950431  0.63518196  1
  Ta  Ta80  1  0.30735740  0.50007255  0.37340355  1
  Ta  Ta81  1  0.10396216  0.88769919  0.11611744  1
  Ta  Ta82  1  0.60550342  0.39939811  -0.00734158  1
  Ta  Ta83  1  0.40742996  0.39932223  -0.00649230  1
  Ta  Ta84  1  0.80879244  0.41389569  0.26287900  1
  Ta  Ta85  1  0.58500435  0.38859978  0.50211274  1
  Ta  Ta86  1  0.70293213  0.49797585  0.12673879  1
  Ta  Ta87  1  0.79670239  0.60941480  0.51868010  1
  Ta  Ta88  1  0.50886854  0.91110024  0.86589282  1
  Ta  Ta89  1  0.50677863  0.50258624  0.11679300  1
  Ta  Ta90  1  0.80785679  0.19311930  0.74426903  1
  Ta  Ta91  1  0.28377971  0.10809836  0.63098492  1
  Ta  Ta92  1  0.17728117  0.20617703  0.74789494  1
  Ta  Ta93  1  0.30477200  0.90744006  0.12214810  1
  Ta  Ta94  1  0.40825169  0.59942879  0.24268015  1
  Ta  Ta95  1  -0.00599814  0.38783164  0.26769468  1
  Ta  Ta96  1  0.80900191  0.79581332  -0.00197433  1
  Ta  Ta97  1  0.07950955  0.89660505  0.38377130  1
  Ta  Ta98  1  0.50590042  0.30874323  0.11445825  1
  Ta  Ta99  1  0.21157281  0.59811598  0.25148890  1
  Ta  Ta100  1  0.30485316  0.69945246  0.63136210  1
  Ta  Ta101  1  0.19370063  0.19379301  0.00115458  1
  Ta  Ta102  1  0.28340840  0.90936556  0.38207879  1
  Ta  Ta103  1  0.90469904  0.68849362  0.11989194  1
  Ta  Ta104  1  0.90674522  0.68918781  0.87259223  1
  Ta  Ta105  1  0.21498457  0.19376476  0.25066957  1
  Ta  Ta106  1  0.10478552  0.31555015  0.62734565  1
  Ta  Ta107  1  0.01392499  0.78577314  -0.01239649  1
  Ta  Ta108  1  0.30294241  0.90020575  0.86846103  1
  Ta  Ta109  1  0.59651466  -0.00178486  0.26869534  1
  Ta  Ta110  1  0.90898965  0.48455761  0.63459587  1
  Ta  Ta111  1  0.90627942  0.30195685  0.13652453  1
  Ta  Ta112  1  0.40352256  0.80877704  0.74276461  1
  Ta  Ta113  1  0.78430243  0.60188754  0.25466623  1
  Ta  Ta114  1  0.61891359  0.81662206  0.74909650  1
  Ta  Ta115  1  0.18769729  0.01032068  0.50903045  1
  Ta  Ta116  1  0.50292594  0.70875735  0.62750401  1
  Ta  Ta117  1  0.39929076  0.59960066  -0.00411962  1
  Ta  Ta118  1  0.79283497  -0.00077093  0.00918718  1
  Ta  Ta119  1  0.49397229  0.10071657  0.87920135  1
  Ti  Ti120  1  0.09900358  0.50800218  0.86424930  1
  Ti  Ti121  1  0.81562593  0.20653600  0.26413300  1
  Ti  Ti122  1  0.48698031  0.12069792  0.38094720  1
  Ti  Ti123  1  0.50025759  0.30901699  0.62638397  1
  Ti  Ti124  1  0.29578268  0.30442724  0.63734513  1
  Ti  Ti125  1  0.49999610  0.69712184  0.12587384  1
  Ti  Ti126  1  0.39677297  0.80086876  0.24869797  1
  Ti  Ti127  1  0.39837008  0.39757319  0.75736061  1
  Ti  Ti128  1  0.01354133  0.80956241  0.75898230  1
  Ti  Ti129  1  0.70060619  0.10435802  0.38081399  1
  Ti  Ti130  1  0.79265899  -0.02392370  0.48118810  1
  Ti  Ti131  1  -0.00458792  0.21350289  0.00851978  1
  Ti  Ti132  1  0.40146211  0.79676944  0.51120490  1
  Ti  Ti133  1  0.29425818  0.89889715  0.62751233  1
  Ti  Ti134  1  0.30499635  0.30093186  0.37162871  1
  Ti  Ti135  1  0.90175819  0.09234718  0.38718420  1
  Ti  Ti136  1  0.69483117  0.08005560  0.88063050  1
  Ti  Ti137  1  0.39474692  0.00550482  -0.00424053  1
  Ti  Ti138  1  0.09950038  0.10672297  0.12347459  1
  Ti  Ti139  1  0.09790804  0.29471088  0.13128156  1
  Ti  Ti140  1  0.59572715  0.00140180  0.47270213  1
  Ti  Ti141  1  0.60336389  0.42022497  0.25172964  1
  Ti  Ti142  1  0.01437463  0.38934003  0.75291988  1
  Ti  Ti143  1  0.90560873  0.88564832  0.11521217  1
  Ti  Ti144  1  0.29514530  0.09981474  0.86911267  1
  Ti  Ti145  1  0.90254875  0.49190075  0.85317392  1
  Ti  Ti146  1  0.80613428  0.60224319  0.73467616  1
  Ti  Ti147  1  0.09321035  0.91240977  0.61851692  1
  Ti  Ti148  1  0.29309179  0.50255232  0.87050723  1
  Ti  Ti149  1  0.69710415  0.51842505  0.38095898  1
  Ti  Ti150  1  0.49810064  0.89754522  0.13956701  1
  Ti  Ti151  1  0.90278848  0.29735639  0.62577255  1
  Ti  Ti152  1  0.38284041  0.41400604  0.50700862  1
  Ti  Ti153  1  0.48613898  0.49967463  0.62640456  1
  Ti  Ti154  1  0.00421359  0.19476066  0.25254736  1
  Ti  Ti155  1  0.39927158  0.19912944  -0.01087178  1
  Ti  Ti156  1  0.72127567  0.28335905  0.87168755  1
  Ti  Ti157  1  0.91294182  0.29574689  0.86488448  1
  Ti  Ti158  1  0.80983429  0.78766510  0.74853894  1
  Ti  Ti159  1  0.71241545  0.70562299  0.87114439  1
  Mo  Mo160  1  0.71057598  0.71238664  0.63594152  1
  Mo  Mo161  1  0.09388131  0.70640763  0.86083556  1
  Mo  Mo162  1  0.00512218  0.80364228  0.50730874  1
  Mo  Mo163  1  0.29766491  0.10184238  0.38124786  1
  Mo  Mo164  1  0.59599313  -0.00006684  0.75469351  1
  Mo  Mo165  1  -0.01150646  0.21136231  0.73962418  1
  Mo  Mo166  1  0.70586559  0.68986817  0.37653205  1
  Mo  Mo167  1  0.21210674  0.39249415  0.49552273  1
  Mo  Mo168  1  0.00171913  0.80428852  0.24515610  1
  Mo  Mo169  1  0.11018693  0.88886279  0.87844381  1
  Mo  Mo170  1  0.20541188  0.81020487  0.73956822  1
  Mo  Mo171  1  0.49034561  0.31481230  0.37985998  1
  Mo  Mo172  1  0.89930827  0.69641965  0.62541934  1
  Mo  Mo173  1  0.09607940  0.49182391  0.63040977  1
  Mo  Mo174  1  0.90455751  0.28945140  0.36656390  1
  Mo  Mo175  1  0.39727981  0.60139254  0.52030108  1
  Mo  Mo176  1  0.50287917  0.29814086  0.88644050  1
  Mo  Mo177  1  0.80383927  0.79368151  0.49886885  1
  Mo  Mo178  1  0.90484736  0.90567978  0.38460615  1
  Mo  Mo179  1  0.29243146  0.10137564  0.11271561  1
  Mo  Mo180  1  0.88904423  0.49588055  0.13296569  1
  Mo  Mo181  1  0.81048497  0.19299627  0.00634818  1
  Mo  Mo182  1  0.59674707  0.59158487  0.24493373  1
  Mo  Mo183  1  0.88927115  0.50432587  0.38151128  1
  Mo  Mo184  1  0.10953018  0.29360845  0.35982343  1
  Mo  Mo185  1  0.39189519  0.20874814  0.25316206  1
  Mo  Mo186  1  0.82039557  0.37906988  0.74767656  1
  Mo  Mo187  1  0.10076494  0.10944648  0.62464992  1
  Mo  Mo188  1  0.70220723  0.89285411  0.88460004  1
  Mo  Mo189  1  0.80240426  0.19367349  0.47828535  1
  Mo  Mo190  1  -0.00776960  0.59797355  -0.00914279  1
  Mo  Mo191  1  0.08959684  0.29985488  0.87728991  1
  Mo  Mo192  1  0.19525718  0.39883612  0.76306712  1
  Mo  Mo193  1  0.70580641  0.89634883  0.62019657  1
  Mo  Mo194  1  0.20118569  0.80757320  -0.00138515  1
  Mo  Mo195  1  0.00059829  -0.00271487  0.50314690  1
  Mo  Mo196  1  0.59509501  0.19855663  0.48474538  1
  Mo  Mo197  1  0.90325444  0.11598416  0.12414917  1
  Mo  Mo198  1  0.70392265  0.90088349  0.36409201  1
  Mo  Mo199  1  0.19472976  0.60321404  0.75598801  1
