# generated using pymatgen
data_HfZrTaTiMo
_symmetry_space_group_name_H-M   'P 1'
_cell_length_a   15.22479501
_cell_length_b   15.20424366
_cell_length_c   16.83831204
_cell_angle_alpha   89.93456289
_cell_angle_beta   89.96996987
_cell_angle_gamma   90.12241683
_symmetry_Int_Tables_number   1
_chemical_formula_structural   HfZrTaTiMo
_chemical_formula_sum   'Hf40 Zr40 Ta40 Ti40 Mo40'
_cell_volume   3897.74563116
_cell_formula_units_Z   40
loop_
 _symmetry_equiv_pos_site_id
 _symmetry_equiv_pos_as_xyz
  1  'x, y, z'
loop_
 _atom_site_type_symbol
 _atom_site_label
 _atom_site_symmetry_multiplicity
 _atom_site_fract_x
 _atom_site_fract_y
 _atom_site_fract_z
 _atom_site_occupancy
  Hf  Hf0  1  0.40726359  0.20614737  0.25544091  1
  Hf  Hf1  1  0.89090691  0.69723787  0.13018120  1
  Hf  Hf2  1  0.09931446  0.88938021  0.13161497  1
  Hf  Hf3  1  0.09528712  0.28999347  0.87357084  1
  Hf  Hf4  1  0.61305328  0.42187261  0.50715800  1
  Hf  Hf5  1  0.39623153  0.40207402  0.24306609  1
  Hf  Hf6  1  0.29935754  0.10593533  0.62288082  1
  Hf  Hf7  1  0.77734773  0.59123258  0.50659482  1
  Hf  Hf8  1  0.50202302  0.31488923  0.88352901  1
  Hf  Hf9  1  0.68237766  0.68679335  0.64428392  1
  Hf  Hf10  1  0.51361309  0.30157544  0.38306947  1
  Hf  Hf11  1  -0.00458056  -0.00272419  0.00793023  1
  Hf  Hf12  1  0.60727302  0.18651850  -0.01166876  1
  Hf  Hf13  1  0.59760103  0.20164614  0.75024796  1
  Hf  Hf14  1  0.49261569  0.50491939  0.11625783  1
  Hf  Hf15  1  0.40996964  0.79593217  0.48751223  1
  Hf  Hf16  1  0.88110002  0.49379671  0.64403258  1
  Hf  Hf17  1  0.19119657  -0.00537151  0.74168661  1
  Hf  Hf18  1  0.89377964  0.90568328  0.63325690  1
  Hf  Hf19  1  0.11354730  0.49797743  0.38132347  1
  Hf  Hf20  1  -0.00359040  -0.00799351  0.49856309  1
  Hf  Hf21  1  0.80166687  0.80173829  0.50002103  1
  Hf  Hf22  1  0.09224614  0.89923499  0.87977955  1
  Hf  Hf23  1  0.22030353  0.59762553  0.76281458  1
  Hf  Hf24  1  0.50152031  0.92228911  0.87827108  1
  Hf  Hf25  1  0.08584025  0.49772424  0.85970267  1
  Hf  Hf26  1  0.01013729  0.58570745  0.24235823  1
  Hf  Hf27  1  0.89266316  0.90213627  0.14184033  1
  Hf  Hf28  1  0.09371206  0.29255159  0.37190120  1
  Hf  Hf29  1  0.79136344  0.00864450  0.00738180  1
  Hf  Hf30  1  0.61537098  0.80797106  -0.00837259  1
  Hf  Hf31  1  0.19799445  0.41839053  0.23333878  1
  Hf  Hf32  1  0.28613684  0.89909523  0.37690059  1
  Hf  Hf33  1  0.21200364  0.38649330  0.75731496  1
  Hf  Hf34  1  0.51081258  0.52872037  0.63280514  1
  Hf  Hf35  1  0.19140416  0.19719144  0.50196885  1
  Hf  Hf36  1  0.60516962  0.38928522  0.23649470  1
  Hf  Hf37  1  0.38803590  0.60124417  0.25207961  1
  Hf  Hf38  1  0.62761407  0.60818584  0.23298801  1
  Hf  Hf39  1  0.70148785  0.09925265  0.39205132  1
  Zr  Zr40  1  0.29969574  0.89404753  0.61884116  1
  Zr  Zr41  1  0.77999853  0.18873143  0.24401467  1
  Zr  Zr42  1  0.40610172  0.41319230  0.75511743  1
  Zr  Zr43  1  0.10028907  0.69817991  0.37474770  1
  Zr  Zr44  1  0.39990835  0.00765820  0.75114392  1
  Zr  Zr45  1  0.50824555  0.50609971  0.36642884  1
  Zr  Zr46  1  0.59364739  0.61295541  -0.01639773  1
  Zr  Zr47  1  0.29049385  0.31236385  0.37313544  1
  Zr  Zr48  1  0.49907994  0.71141527  0.12253886  1
  Zr  Zr49  1  0.88958173  0.69459751  0.36789772  1
  Zr  Zr50  1  -0.00354279  0.60197912  0.50848778  1
  Zr  Zr51  1  0.88391414  0.48899519  0.11973121  1
  Zr  Zr52  1  0.61735159  0.41400976  0.00504464  1
  Zr  Zr53  1  0.40132082  0.80280126  -0.01273380  1
  Zr  Zr54  1  0.40424662  0.00284611  0.49290994  1
  Zr  Zr55  1  0.32076886  0.69564695  0.62850374  1
  Zr  Zr56  1  0.80522904  0.18878355  0.73996221  1
  Zr  Zr57  1  -0.00092677  0.39446582  0.50842446  1
  Zr  Zr58  1  0.79527101  0.39850908  0.25311543  1
  Zr  Zr59  1  0.39950108  0.20489814  0.49507940  1
  Zr  Zr60  1  0.10609099  0.70385046  0.63695587  1
  Zr  Zr61  1  0.90613110  0.69592275  0.85740551  1
  Zr  Zr62  1  -0.00323538  0.38815761  0.24505739  1
  Zr  Zr63  1  0.19337882  0.40440823  -0.00536708  1
  Zr  Zr64  1  0.89524840  0.09180247  0.37891140  1
  Zr  Zr65  1  0.79020173  0.59716698  -0.01280276  1
  Zr  Zr66  1  0.30333155  0.90825853  0.11881666  1
  Zr  Zr67  1  0.00552147  0.59473654  0.00065548  1
  Zr  Zr68  1  0.09289014  0.09599206  0.87455134  1
  Zr  Zr69  1  0.40060477  0.80418250  0.25726640  1
  Zr  Zr70  1  -0.00809544  0.18525076  0.23597916  1
  Zr  Zr71  1  0.20103130  0.18079911  0.00170114  1
  Zr  Zr72  1  0.09996326  0.49627495  0.64277240  1
  Zr  Zr73  1  0.49946444  0.30924523  0.62419828  1
  Zr  Zr74  1  0.61123005  0.00499380  0.74382825  1
  Zr  Zr75  1  0.40621719  0.00301235  0.26185573  1
  Zr  Zr76  1  0.71736224  0.29676919  0.87684950  1
  Zr  Zr77  1  0.89539359  0.69897999  0.64310234  1
  Zr  Zr78  1  0.50178735  0.10569097  0.12607730  1
  Zr  Zr79  1  0.19380453  0.79447617  -0.00637622  1
  Ta  Ta80  1  0.50087190  0.29829600  0.10975975  1
  Ta  Ta81  1  0.00416681  0.80576685  0.50369166  1
  Ta  Ta82  1  0.39445694  0.20495819  0.75909786  1
  Ta  Ta83  1  0.19304758  0.79732552  0.50025803  1
  Ta  Ta84  1  -0.01358465  0.01365909  0.74680796  1
  Ta  Ta85  1  0.50430306  0.88764328  0.62757845  1
  Ta  Ta86  1  0.18656500  -0.00599276  0.50197688  1
  Ta  Ta87  1  0.90767663  0.28899844  0.87636350  1
  Ta  Ta88  1  0.60832631  0.20034844  0.51384074  1
  Ta  Ta89  1  0.89715380  0.90575583  0.86820976  1
  Ta  Ta90  1  0.89727895  0.49310004  0.37917261  1
  Ta  Ta91  1  0.10175504  0.09144553  0.36762894  1
  Ta  Ta92  1  -0.00892208  0.79486621  0.00117283  1
  Ta  Ta93  1  0.10078065  0.29737728  0.11839624  1
  Ta  Ta94  1  -0.01331842  0.19269998  0.01562915  1
  Ta  Ta95  1  0.60442602  0.81289095  0.24674800  1
  Ta  Ta96  1  0.88512960  0.10118950  0.87636269  1
  Ta  Ta97  1  0.61388786  0.01155241  0.25007116  1
  Ta  Ta98  1  0.89011848  0.48215399  0.86015519  1
  Ta  Ta99  1  0.70517437  0.89854731  0.37431732  1
  Ta  Ta100  1  0.41319117  0.60274889  0.49109588  1
  Ta  Ta101  1  0.69420803  0.49622015  0.84927898  1
  Ta  Ta102  1  0.80482408  0.80299563  -0.00676064  1
  Ta  Ta103  1  0.20447717  0.39853088  0.51353427  1
  Ta  Ta104  1  0.19677286  0.00284455  0.24891937  1
  Ta  Ta105  1  0.89648438  0.10175583  0.61085196  1
  Ta  Ta106  1  0.30769214  0.30214132  0.11288831  1
  Ta  Ta107  1  0.60509106  0.78835881  0.50014260  1
  Ta  Ta108  1  0.20800945  0.80285072  0.76121525  1
  Ta  Ta109  1  -0.01028435  0.39043213  0.00158062  1
  Ta  Ta110  1  0.50793230  0.91266463  0.12055973  1
  Ta  Ta111  1  0.39675709  0.80483772  0.76803409  1
  Ta  Ta112  1  0.71155624  0.29373604  0.10927346  1
  Ta  Ta113  1  0.29847497  0.10618557  0.13075794  1
  Ta  Ta114  1  0.21382558  0.59200808  0.50796878  1
  Ta  Ta115  1  0.29501243  0.68849541  0.37968841  1
  Ta  Ta116  1  0.29302878  0.51402195  0.10664971  1
  Ta  Ta117  1  0.58969971  0.79558820  0.76528524  1
  Ta  Ta118  1  0.09149617  0.89867255  0.36426331  1
  Ta  Ta119  1  0.39450168  0.41667990  0.50100691  1
  Ti  Ti120  1  0.70514130  0.30318905  0.38994361  1
  Ti  Ti121  1  0.51410534  0.10425773  0.37761354  1
  Ti  Ti122  1  0.51719890  0.90433106  0.37624553  1
  Ti  Ti123  1  0.09926350  0.28722344  0.63308834  1
  Ti  Ti124  1  0.69899607  0.89955940  0.12868837  1
  Ti  Ti125  1  0.50253682  0.09818467  0.62011832  1
  Ti  Ti126  1  0.20293568  0.60454485  -0.01610126  1
  Ti  Ti127  1  0.00097875  0.79286902  0.24949559  1
  Ti  Ti128  1  0.88948586  0.29565737  0.38832071  1
  Ti  Ti129  1  -0.00962922  0.37777356  0.74387920  1
  Ti  Ti130  1  0.10922367  0.68390834  0.12450892  1
  Ti  Ti131  1  0.08983896  0.09650642  0.62686742  1
  Ti  Ti132  1  -0.00126816  0.19505635  0.49901431  1
  Ti  Ti133  1  0.89652530  0.29343122  0.61565620  1
  Ti  Ti134  1  0.71063557  0.09089543  0.60934637  1
  Ti  Ti135  1  0.70926038  0.91235393  0.87044008  1
  Ti  Ti136  1  0.69846095  0.89487457  0.62785792  1
  Ti  Ti137  1  0.28917826  0.10374725  0.37240403  1
  Ti  Ti138  1  0.30746142  0.29008075  0.89047876  1
  Ti  Ti139  1  0.19973340  0.20436929  0.24125925  1
  Ti  Ti140  1  0.78918708  0.80678133  0.75666273  1
  Ti  Ti141  1  0.41798843  0.61692468  0.77419534  1
  Ti  Ti142  1  0.51840287  0.70161483  0.36590936  1
  Ti  Ti143  1  0.29775044  0.69926942  0.12045729  1
  Ti  Ti144  1  0.09911360  0.69989309  0.86400824  1
  Ti  Ti145  1  0.30897243  0.49922804  0.62814257  1
  Ti  Ti146  1  0.89764573  0.90018005  0.36060748  1
  Ti  Ti147  1  0.70560232  0.51049658  0.37047600  1
  Ti  Ti148  1  0.20077014  0.19260852  0.75216563  1
  Ti  Ti149  1  0.20145538  0.78709429  0.24948548  1
  Ti  Ti150  1  0.60359071  -0.01142764  0.50739421  1
  Ti  Ti151  1  0.59903358  0.00267870  0.00001368  1
  Ti  Ti152  1  0.29994955  0.30174167  0.62628014  1
  Ti  Ti153  1  0.28951431  0.91905492  0.88420067  1
  Ti  Ti154  1  0.10046607  0.08773662  0.13023969  1
  Ti  Ti155  1  0.01046916  0.81375760  0.74523861  1
  Ti  Ti156  1  0.32008175  0.49915752  0.89169410  1
  Ti  Ti157  1  0.78387643  0.78563741  0.25261213  1
  Ti  Ti158  1  0.39172752  0.02855560  -0.00872174  1
  Ti  Ti159  1  0.70986193  0.31246496  0.62356123  1
  Mo  Mo160  1  0.79269257  -0.01295275  0.25046580  1
  Mo  Mo161  1  0.30023503  0.10253779  0.86978611  1
  Mo  Mo162  1  0.00212725  0.59651923  0.75299369  1
  Mo  Mo163  1  0.79233777  -0.00915662  0.50310683  1
  Mo  Mo164  1  0.40085534  0.20374813  -0.00331239  1
  Mo  Mo165  1  0.20472629  0.60651855  0.24210664  1
  Mo  Mo166  1  0.69382100  0.08945818  0.12610415  1
  Mo  Mo167  1  0.49828465  0.71067566  0.88206238  1
  Mo  Mo168  1  0.29935868  0.50450419  0.38236642  1
  Mo  Mo169  1  0.71010379  0.71384231  0.11906573  1
  Mo  Mo170  1  0.80713459  0.39725971  -0.00889701  1
  Mo  Mo171  1  0.70219960  0.50276422  0.12110926  1
  Mo  Mo172  1  0.49759844  0.71460825  0.63152761  1
  Mo  Mo173  1  0.70520937  0.71032672  0.86120393  1
  Mo  Mo174  1  0.79984129  -0.00317686  0.74857009  1
  Mo  Mo175  1  0.89707341  0.29148057  0.11760072  1
  Mo  Mo176  1  0.10144008  0.49923881  0.11202529  1
  Mo  Mo177  1  0.60047031  0.20491118  0.25168496  1
  Mo  Mo178  1  0.59111201  0.60350467  0.77109065  1
  Mo  Mo179  1  0.40008156  0.40280836  0.00391351  1
  Mo  Mo180  1  0.79438227  0.59997117  0.76175150  1
  Mo  Mo181  1  0.89347979  0.09374939  0.13066619  1
  Mo  Mo182  1  0.69280399  0.70320565  0.37450858  1
  Mo  Mo183  1  0.38982910  0.60455452  -0.00597009  1
  Mo  Mo184  1  0.69456328  0.49459561  0.64772106  1
  Mo  Mo185  1  0.00349200  0.19596521  0.73959656  1
  Mo  Mo186  1  0.80796922  0.59650267  0.25467313  1
  Mo  Mo187  1  0.09654252  0.89996376  0.62540217  1
  Mo  Mo188  1  0.79986788  0.20602871  0.50917134  1
  Mo  Mo189  1  0.00268808  -0.00821391  0.25138726  1
  Mo  Mo190  1  0.80052780  0.38575111  0.74715911  1
  Mo  Mo191  1  0.20331393  -0.00225007  0.01052954  1
  Mo  Mo192  1  0.69826663  0.09002984  0.87307995  1
  Mo  Mo193  1  0.50289457  0.50305059  0.87901912  1
  Mo  Mo194  1  0.29606419  0.70281436  0.87256894  1
  Mo  Mo195  1  0.59494764  0.61173205  0.49737847  1
  Mo  Mo196  1  0.60450959  0.39794665  0.74389623  1
  Mo  Mo197  1  0.49343006  0.11262767  0.87435816  1
  Mo  Mo198  1  0.80009384  0.40098615  0.49530363  1
  Mo  Mo199  1  0.80639502  0.19781122  0.00640063  1
