# generated using pymatgen
data_HfZrTaTiMo
_symmetry_space_group_name_H-M   'P 1'
_cell_length_a   15.18451067
_cell_length_b   15.17632263
_cell_length_c   16.84117015
_cell_angle_alpha   90.09922350
_cell_angle_beta   89.95823731
_cell_angle_gamma   90.06673720
_symmetry_Int_Tables_number   1
_chemical_formula_structural   HfZrTaTiMo
_chemical_formula_sum   'Hf40 Zr40 Ta40 Ti40 Mo40'
_cell_volume   3880.95453205
_cell_formula_units_Z   40
loop_
 _symmetry_equiv_pos_site_id
 _symmetry_equiv_pos_as_xyz
  1  'x, y, z'
loop_
 _atom_site_type_symbol
 _atom_site_label
 _atom_site_symmetry_multiplicity
 _atom_site_fract_x
 _atom_site_fract_y
 _atom_site_fract_z
 _atom_site_occupancy
  Hf  Hf0  1  0.59696006  0.59098649  -0.01086347  1
  Hf  Hf1  1  0.72876493  0.30805441  0.84062413  1
  Hf  Hf2  1  0.48757768  0.09949348  0.11077527  1
  Hf  Hf3  1  0.70413227  0.69297413  0.86718610  1
  Hf  Hf4  1  0.30018392  0.48299554  0.13081741  1
  Hf  Hf5  1  0.50710739  0.29763144  0.64125778  1
  Hf  Hf6  1  0.29660804  0.30104579  0.86135580  1
  Hf  Hf7  1  0.80256804  0.60418364  0.24132008  1
  Hf  Hf8  1  0.08989282  0.31068770  0.86810541  1
  Hf  Hf9  1  0.00538593  0.80221279  0.48222385  1
  Hf  Hf10  1  0.40454686  0.01062933  0.25743356  1
  Hf  Hf11  1  0.39736049  0.18541107  0.74126075  1
  Hf  Hf12  1  0.80109295  0.00467798  0.74741609  1
  Hf  Hf13  1  0.80187488  0.58163853  0.73789836  1
  Hf  Hf14  1  0.70802891  0.68901464  0.38929975  1
  Hf  Hf15  1  0.40070409  0.59563293  -0.01131780  1
  Hf  Hf16  1  0.60995764  0.00121980  0.00310809  1
  Hf  Hf17  1  0.90610726  0.70963915  0.61627294  1
  Hf  Hf18  1  0.19876518  0.02563946  0.23739788  1
  Hf  Hf19  1  0.90093212  0.71064518  0.11291003  1
  Hf  Hf20  1  0.40900310  0.18936735  0.51509364  1
  Hf  Hf21  1  0.08823585  0.69732922  0.88398295  1
  Hf  Hf22  1  0.40457613  0.41407725  0.50027180  1
  Hf  Hf23  1  0.29265752  0.68948543  0.87780586  1
  Hf  Hf24  1  0.11010042  0.70066862  0.62614135  1
  Hf  Hf25  1  0.91458081  0.49281338  0.87240439  1
  Hf  Hf26  1  0.50224698  0.27885376  0.38232489  1
  Hf  Hf27  1  0.50216648  0.89058035  0.12583632  1
  Hf  Hf28  1  0.11178986  0.68354365  0.36832064  1
  Hf  Hf29  1  0.19579024  0.00191798  0.49434023  1
  Hf  Hf30  1  0.08736647  0.10226111  0.88113430  1
  Hf  Hf31  1  0.69088276  0.28919742  0.13089388  1
  Hf  Hf32  1  0.90074319  0.50079958  0.38537782  1
  Hf  Hf33  1  0.18571339  0.00969385  0.01246710  1
  Hf  Hf34  1  0.30630475  0.90999400  0.12536573  1
  Hf  Hf35  1  0.78922755  0.00845217  0.50415137  1
  Hf  Hf36  1  0.29014558  0.30440286  0.38237165  1
  Hf  Hf37  1  0.90979499  0.30242337  0.12806927  1
  Hf  Hf38  1  0.11235716  0.89914077  0.35519616  1
  Hf  Hf39  1  0.39635218  0.39813055  -0.01323115  1
  Zr  Zr40  1  0.10011086  0.11713171  0.37088669  1
  Zr  Zr41  1  0.00696228  0.60442727  0.23865686  1
  Zr  Zr42  1  0.68891960  0.11418706  0.86471512  1
  Zr  Zr43  1  0.61547880  0.78365739  0.24637829  1
  Zr  Zr44  1  0.80959339  0.80968740  0.25796700  1
  Zr  Zr45  1  0.61230441  -0.00398601  0.24581878  1
  Zr  Zr46  1  0.59437428  0.80028058  0.49690783  1
  Zr  Zr47  1  0.78304024  0.19741400  -0.00229676  1
  Zr  Zr48  1  0.30303832  0.72996331  0.34036627  1
  Zr  Zr49  1  0.58438145  0.00059519  0.75017295  1
  Zr  Zr50  1  0.60719436  0.38181650  -0.01477647  1
  Zr  Zr51  1  0.39953262  0.77641515  0.49985274  1
  Zr  Zr52  1  0.41936811  0.40292782  0.26175456  1
  Zr  Zr53  1  0.69963010  0.89915484  0.62525329  1
  Zr  Zr54  1  0.51187096  0.29434529  0.85425384  1
  Zr  Zr55  1  0.38613977  -0.01184024  0.75450078  1
  Zr  Zr56  1  0.82075290  0.39372372  -0.00486758  1
  Zr  Zr57  1  0.60360335  0.79122264  -0.00240966  1
  Zr  Zr58  1  0.07774264  0.90210892  0.62783153  1
  Zr  Zr59  1  0.00310150  0.40341518  0.24850889  1
  Zr  Zr60  1  0.39469355  -0.01683523  0.49218391  1
  Zr  Zr61  1  -0.01003282  -0.00015297  0.48602335  1
  Zr  Zr62  1  0.07857332  0.12095676  0.12298246  1
  Zr  Zr63  1  0.49292145  0.67279820  0.36144400  1
  Zr  Zr64  1  0.48275964  0.09205475  0.89192894  1
  Zr  Zr65  1  0.18857316  0.80569798  0.76191041  1
  Zr  Zr66  1  0.81807465  0.80115674  0.75497543  1
  Zr  Zr67  1  0.30500325  0.52625022  0.36871118  1
  Zr  Zr68  1  0.71057931  0.29647790  0.37819238  1
  Zr  Zr69  1  0.60640259  0.38451615  0.51221280  1
  Zr  Zr70  1  0.29147077  0.88883410  0.63320748  1
  Zr  Zr71  1  0.70578012  0.49599024  0.11369176  1
  Zr  Zr72  1  0.60415156  0.56480406  0.25031942  1
  Zr  Zr73  1  0.20814119  0.79802365  0.49583149  1
  Zr  Zr74  1  0.79833842  0.19323627  0.25111280  1
  Zr  Zr75  1  0.69446761  0.69294531  0.62164842  1
  Zr  Zr76  1  0.58279528  0.18865600  0.24910777  1
  Zr  Zr77  1  0.29762008  0.90647601  0.88982112  1
  Zr  Zr78  1  0.19496758  0.79679104  0.01155789  1
  Zr  Zr79  1  0.30616329  0.69207966  0.13210570  1
  Ta  Ta80  1  0.90348800  0.09376949  0.62602720  1
  Ta  Ta81  1  0.79716795  0.20835728  0.51785713  1
  Ta  Ta82  1  0.70323859  0.49344795  0.38934705  1
  Ta  Ta83  1  -0.00162297  0.81847619  -0.00368651  1
  Ta  Ta84  1  0.59320963  0.79723485  0.76044044  1
  Ta  Ta85  1  0.80950446  0.40934875  0.52442165  1
  Ta  Ta86  1  0.70583996  0.30367109  0.64617092  1
  Ta  Ta87  1  0.90665864  0.29761265  0.63582697  1
  Ta  Ta88  1  0.70108850  0.90248444  0.87254620  1
  Ta  Ta89  1  0.58539941  0.58669909  0.50237756  1
  Ta  Ta90  1  0.30361679  0.11002848  0.37813382  1
  Ta  Ta91  1  0.80127021  0.80592028  -0.00911685  1
  Ta  Ta92  1  0.19888519  0.20470580  0.51063237  1
  Ta  Ta93  1  0.28858164  0.09664709  0.62461621  1
  Ta  Ta94  1  0.49508083  0.88862386  0.62916360  1
  Ta  Ta95  1  0.79647679  0.40766922  0.24967417  1
  Ta  Ta96  1  0.02306733  0.41766360  0.01122193  1
  Ta  Ta97  1  0.50560548  0.68477294  0.13092368  1
  Ta  Ta98  1  0.89842305  0.91443864  0.11875605  1
  Ta  Ta99  1  0.19481088  0.21882016  0.00111837  1
  Ta  Ta100  1  0.00303382  0.41358383  0.73399788  1
  Ta  Ta101  1  0.09483058  0.30883676  0.38622852  1
  Ta  Ta102  1  -0.01852254  0.00559032  0.25762225  1
  Ta  Ta103  1  0.18613790  0.58063612  0.01005832  1
  Ta  Ta104  1  -0.00319824  0.20451022  0.50708049  1
  Ta  Ta105  1  0.20147738  0.59136264  0.75171822  1
  Ta  Ta106  1  0.88758678  0.09875876  0.12204933  1
  Ta  Ta107  1  0.20338375  0.40246749  0.74150270  1
  Ta  Ta108  1  -0.00379523  -0.00881258  0.75516166  1
  Ta  Ta109  1  0.00310367  0.60869956  0.74509430  1
  Ta  Ta110  1  0.48902291  0.30166056  0.12207134  1
  Ta  Ta111  1  0.10479516  0.29754339  0.62977279  1
  Ta  Ta112  1  0.31191784  0.68613938  0.64356396  1
  Ta  Ta113  1  0.00586524  0.39851774  0.51460167  1
  Ta  Ta114  1  0.00874681  0.59471348  0.50279496  1
  Ta  Ta115  1  0.81034271  0.81036264  0.49271322  1
  Ta  Ta116  1  0.40889184  0.58619778  0.76918114  1
  Ta  Ta117  1  0.88635405  0.11333250  0.38180126  1
  Ta  Ta118  1  0.69775322  0.90583087  0.38366573  1
  Ta  Ta119  1  0.49355437  0.88835527  0.36309727  1
  Ti  Ti120  1  0.20027497  0.40417880  0.50986799  1
  Ti  Ti121  1  0.58312056  0.00638302  0.50306687  1
  Ti  Ti122  1  0.30035857  0.30311383  0.63006595  1
  Ti  Ti123  1  -0.01471223  0.21365549  -0.00728298  1
  Ti  Ti124  1  0.19530755  0.19574069  0.74445180  1
  Ti  Ti125  1  0.80646105  0.60048485  0.00354135  1
  Ti  Ti126  1  0.30980299  0.49898130  0.63279072  1
  Ti  Ti127  1  -0.00456975  0.80429762  0.25118815  1
  Ti  Ti128  1  0.19965286  0.40119383  0.25601846  1
  Ti  Ti129  1  0.18517252  0.79631648  0.22392686  1
  Ti  Ti130  1  0.70824373  0.49976516  0.87321326  1
  Ti  Ti131  1  0.68358705  0.11070577  0.62966053  1
  Ti  Ti132  1  0.71585909  0.89627998  0.11960459  1
  Ti  Ti133  1  0.80675909  0.00158345  -0.00895811  1
  Ti  Ti134  1  0.68298898  0.10535305  0.38934602  1
  Ti  Ti135  1  0.28696495  0.10405267  0.88352377  1
  Ti  Ti136  1  0.40623058  0.79234188  0.76605798  1
  Ti  Ti137  1  0.10898268  0.50410368  0.62325965  1
  Ti  Ti138  1  0.50226394  0.48945335  0.12021839  1
  Ti  Ti139  1  0.12040742  0.31401828  0.12673474  1
  Ti  Ti140  1  0.50276992  0.50696185  0.63625063  1
  Ti  Ti141  1  0.18894185  0.00719204  0.75701961  1
  Ti  Ti142  1  0.08007419  0.90788948  0.13088080  1
  Ti  Ti143  1  0.41003186  0.79978267  -0.00637335  1
  Ti  Ti144  1  -0.00144423  0.19524796  0.74698465  1
  Ti  Ti145  1  0.60713071  0.42756308  0.74887827  1
  Ti  Ti146  1  0.90346797  0.69542646  0.38162030  1
  Ti  Ti147  1  -0.00096854  0.20580952  0.25781081  1
  Ti  Ti148  1  0.37532461  0.20281227  0.24294166  1
  Ti  Ti149  1  0.38682474  0.20287726  0.00254122  1
  Ti  Ti150  1  0.09599870  0.10089538  0.62715337  1
  Ti  Ti151  1  0.90931304  0.90725755  0.87991590  1
  Ti  Ti152  1  0.89360901  0.11430487  0.86857705  1
  Ti  Ti153  1  0.90169010  0.30507909  0.38473772  1
  Ti  Ti154  1  0.21913278  0.59950522  0.50802767  1
  Ti  Ti155  1  0.10785793  0.49473365  0.38377130  1
  Ti  Ti156  1  0.11095331  0.50334529  0.87158797  1
  Ti  Ti157  1  0.49779728  0.69331042  0.63836256  1
  Ti  Ti158  1  0.79790236  0.00228665  0.25787743  1
  Ti  Ti159  1  0.90158221  0.69456273  0.88266314  1
  Mo  Mo160  1  0.61026057  0.38661092  0.25338462  1
  Mo  Mo161  1  0.89995298  0.90325643  0.62285897  1
  Mo  Mo162  1  0.91640032  0.29525344  0.85565406  1
  Mo  Mo163  1  0.10634404  0.50317467  0.12981409  1
  Mo  Mo164  1  0.91278601  0.50874499  0.61606787  1
  Mo  Mo165  1  0.50352080  0.89144013  0.88246688  1
  Mo  Mo166  1  0.80157558  0.60080621  0.50277934  1
  Mo  Mo167  1  0.30105773  0.29463266  0.12675855  1
  Mo  Mo168  1  0.59878192  0.60233478  0.75581800  1
  Mo  Mo169  1  0.81295895  0.40746762  0.73261665  1
  Mo  Mo170  1  0.19597094  0.59311994  0.23729131  1
  Mo  Mo171  1  0.50619934  0.49472838  0.86606467  1
  Mo  Mo172  1  0.09020272  0.90812723  0.87893162  1
  Mo  Mo173  1  0.19325879  0.21980856  0.25313641  1
  Mo  Mo174  1  0.40300037  0.59607094  0.51475624  1
  Mo  Mo175  1  0.49385407  0.08521209  0.62518044  1
  Mo  Mo176  1  0.89567071  0.90657888  0.37075768  1
  Mo  Mo177  1  -0.01562851  0.01195593  -0.00386952  1
  Mo  Mo178  1  0.20288287  0.39792310  -0.00426704  1
  Mo  Mo179  1  0.41133392  0.80621678  0.23741470  1
  Mo  Mo180  1  0.09455414  0.70765607  0.11348870  1
  Mo  Mo181  1  0.51170578  0.48526117  0.38316148  1
  Mo  Mo182  1  -0.00263986  0.60283547  0.00438894  1
  Mo  Mo183  1  0.70642527  0.08405233  0.12098213  1
  Mo  Mo184  1  0.49858069  0.09090530  0.38008956  1
  Mo  Mo185  1  0.39232108  -0.00337594  -0.00146506  1
  Mo  Mo186  1  0.80982191  0.19367493  0.73107383  1
  Mo  Mo187  1  0.29124718  0.49374451  0.86999342  1
  Mo  Mo188  1  -0.00609668  0.79796788  0.76336589  1
  Mo  Mo189  1  0.40768016  0.59482922  0.23795197  1
  Mo  Mo190  1  0.90142783  0.49997356  0.11969264  1
  Mo  Mo191  1  0.60035391  0.19714862  0.74266782  1
  Mo  Mo192  1  0.39681091  0.40336260  0.74605100  1
  Mo  Mo193  1  0.29933563  0.91214742  0.35352409  1
  Mo  Mo194  1  0.69490079  0.50106417  0.61691101  1
  Mo  Mo195  1  0.29237599  0.11911161  0.11758884  1
  Mo  Mo196  1  0.49792893  0.70171409  0.87100768  1
  Mo  Mo197  1  0.58277035  0.20362982  0.00779709  1
  Mo  Mo198  1  0.70243907  0.70166079  0.11395355  1
  Mo  Mo199  1  0.60828318  0.18669689  0.51116236  1
