# generated using pymatgen
data_HfZrTaTiMo
_symmetry_space_group_name_H-M   'P 1'
_cell_length_a   15.21341078
_cell_length_b   15.21826199
_cell_length_c   16.81034637
_cell_angle_alpha   90.04246474
_cell_angle_beta   90.01810295
_cell_angle_gamma   90.07028394
_symmetry_Int_Tables_number   1
_chemical_formula_structural   HfZrTaTiMo
_chemical_formula_sum   'Hf40 Zr40 Ta40 Ti40 Mo40'
_cell_volume   3891.95529009
_cell_formula_units_Z   40
loop_
 _symmetry_equiv_pos_site_id
 _symmetry_equiv_pos_as_xyz
  1  'x, y, z'
loop_
 _atom_site_type_symbol
 _atom_site_label
 _atom_site_symmetry_multiplicity
 _atom_site_fract_x
 _atom_site_fract_y
 _atom_site_fract_z
 _atom_site_occupancy
  Hf  Hf0  1  0.79870440  0.21796696  0.48805446  1
  Hf  Hf1  1  0.50530089  0.09574991  0.87395233  1
  Hf  Hf2  1  0.32292517  0.69197961  0.61460506  1
  Hf  Hf3  1  0.40245209  0.20287042  0.25045190  1
  Hf  Hf4  1  0.89830506  0.30214466  0.12155059  1
  Hf  Hf5  1  0.00526590  -0.01192543  0.51183369  1
  Hf  Hf6  1  0.51126173  0.87737391  0.63361720  1
  Hf  Hf7  1  0.30312143  0.09560507  0.38183108  1
  Hf  Hf8  1  0.70773327  0.90159499  0.35362490  1
  Hf  Hf9  1  0.40524752  -0.00168996  -0.00142742  1
  Hf  Hf10  1  -0.01771631  0.57622790  0.49827142  1
  Hf  Hf11  1  0.20373242  -0.02093142  0.74397508  1
  Hf  Hf12  1  0.20056422  -0.00962268  0.24272703  1
  Hf  Hf13  1  0.39744172  0.39888328  0.25408155  1
  Hf  Hf14  1  0.60023172  0.20157575  0.75557862  1
  Hf  Hf15  1  0.89117434  0.89641268  0.13575175  1
  Hf  Hf16  1  0.69190618  0.49642500  0.13619092  1
  Hf  Hf17  1  0.40081280  0.78982671  0.24262486  1
  Hf  Hf18  1  0.38405872  0.39699599  0.75761146  1
  Hf  Hf19  1  0.41996690  0.40326215  -0.00311609  1
  Hf  Hf20  1  0.59822017  0.22356606  0.26806324  1
  Hf  Hf21  1  0.09758838  0.68950680  0.37764878  1
  Hf  Hf22  1  0.30240339  0.51185289  0.11349946  1
  Hf  Hf23  1  0.30492600  0.89722063  0.38013894  1
  Hf  Hf24  1  0.70360753  0.49612671  0.36051752  1
  Hf  Hf25  1  0.08976244  0.49030154  0.62873274  1
  Hf  Hf26  1  0.19671523  0.80885169  0.49846185  1
  Hf  Hf27  1  0.89787153  0.09731915  0.37600335  1
  Hf  Hf28  1  0.79855037  0.60416851  0.24319296  1
  Hf  Hf29  1  0.80162337  -0.00954665  0.50059380  1
  Hf  Hf30  1  0.09960109  0.68405372  0.11053382  1
  Hf  Hf31  1  0.58636094  0.61550476  0.74452531  1
  Hf  Hf32  1  0.50024998  0.30439279  0.63208254  1
  Hf  Hf33  1  0.19920269  0.78353280  0.25161125  1
  Hf  Hf34  1  0.69963148  0.09760347  0.62141282  1
  Hf  Hf35  1  0.20024975  -0.00736796  -0.00502372  1
  Hf  Hf36  1  0.21018343  0.60825598  0.75540409  1
  Hf  Hf37  1  0.21211707  0.21701766  0.76380257  1
  Hf  Hf38  1  0.20902395  0.00239012  0.52341504  1
  Hf  Hf39  1  0.70201309  0.70693961  0.87918056  1
  Zr  Zr40  1  0.10113126  0.48759044  0.12124012  1
  Zr  Zr41  1  0.50833421  0.89738751  0.36852193  1
  Zr  Zr42  1  0.00305427  0.21998983  0.49071831  1
  Zr  Zr43  1  0.29840731  0.71645191  0.89086947  1
  Zr  Zr44  1  0.90195788  0.89688720  0.86404698  1
  Zr  Zr45  1  0.09791119  0.88661381  0.11967551  1
  Zr  Zr46  1  0.58852592  0.60647497  0.51179890  1
  Zr  Zr47  1  0.19470974  0.19686729  0.25049473  1
  Zr  Zr48  1  0.10348252  0.08672153  0.38261946  1
  Zr  Zr49  1  -0.00713796  0.00131274  0.73705481  1
  Zr  Zr50  1  0.81225197  0.61718767  0.00782948  1
  Zr  Zr51  1  0.28987334  0.30903785  0.61919079  1
  Zr  Zr52  1  0.10604381  0.69929391  0.61962338  1
  Zr  Zr53  1  0.00162060  0.60156912  0.75388837  1
  Zr  Zr54  1  0.89268788  0.70102280  0.36501897  1
  Zr  Zr55  1  0.31069365  0.09967428  0.86685010  1
  Zr  Zr56  1  0.29770587  0.30689833  0.12025750  1
  Zr  Zr57  1  0.10493471  0.11485860  0.62975417  1
  Zr  Zr58  1  0.79928288  0.19884738  0.25663178  1
  Zr  Zr59  1  0.50089230  0.09355231  0.37905588  1
  Zr  Zr60  1  -0.01101459  0.79672236  0.50336548  1
  Zr  Zr61  1  0.30883059  0.68550153  0.39016711  1
  Zr  Zr62  1  0.60043498  0.39682642  0.49211355  1
  Zr  Zr63  1  0.09601544  0.08603958  0.86760852  1
  Zr  Zr64  1  0.60803322  -0.02078459  -0.00522996  1
  Zr  Zr65  1  0.69576039  0.30027531  0.11937151  1
  Zr  Zr66  1  0.00325759  0.01443041  0.23680744  1
  Zr  Zr67  1  0.40039333  0.19481861  0.50951732  1
  Zr  Zr68  1  0.29443484  0.10368380  0.11460235  1
  Zr  Zr69  1  0.49169088  0.50580925  0.36782009  1
  Zr  Zr70  1  -0.00209025  0.21096630  0.76243468  1
  Zr  Zr71  1  -0.00473826  0.40138847  -0.01078925  1
  Zr  Zr72  1  0.70106728  0.50134886  0.63417251  1
  Zr  Zr73  1  0.50698075  0.49871559  0.86474006  1
  Zr  Zr74  1  0.51323637  0.89097009  0.13056303  1
  Zr  Zr75  1  0.70698060  0.30331303  0.62707281  1
  Zr  Zr76  1  0.69470322  0.71622402  0.12467707  1
  Zr  Zr77  1  0.40312292  0.00207124  0.23523171  1
  Zr  Zr78  1  0.20255883  0.39216483  -0.01953297  1
  Zr  Zr79  1  0.80429367  0.19771716  0.75600222  1
  Ta  Ta80  1  0.79914815  0.60195712  0.75278220  1
  Ta  Ta81  1  0.60297370  -0.00589944  0.50510395  1
  Ta  Ta82  1  0.89199945  0.09312674  0.88870764  1
  Ta  Ta83  1  0.79000622  0.60816807  0.49881915  1
  Ta  Ta84  1  0.59885604  0.19969085  0.49136036  1
  Ta  Ta85  1  0.19565680  0.20010698  -0.01491087  1
  Ta  Ta86  1  0.29905641  0.70240044  0.10167176  1
  Ta  Ta87  1  0.49676395  0.68888368  0.11299445  1
  Ta  Ta88  1  0.78850121  0.41146951  -0.00433175  1
  Ta  Ta89  1  0.90985631  0.89966528  0.35729286  1
  Ta  Ta90  1  0.60727665  -0.00262409  0.75786206  1
  Ta  Ta91  1  0.70610560  0.90782433  0.14067105  1
  Ta  Ta92  1  0.89381158  0.10826215  0.61788564  1
  Ta  Ta93  1  0.88884752  0.88976191  0.63773601  1
  Ta  Ta94  1  0.49974825  0.70240816  0.37733273  1
  Ta  Ta95  1  -0.00795352  0.40357801  0.77093135  1
  Ta  Ta96  1  0.00317914  0.21446672  0.25528848  1
  Ta  Ta97  1  0.90743626  0.32124225  0.62754785  1
  Ta  Ta98  1  0.40944680  -0.01651519  0.75023269  1
  Ta  Ta99  1  0.09747810  0.30998454  0.63354334  1
  Ta  Ta100  1  0.79078468  0.79928935  0.49900366  1
  Ta  Ta101  1  0.00360948  0.19626658  -0.00782741  1
  Ta  Ta102  1  0.70994244  0.10047514  0.10851491  1
  Ta  Ta103  1  0.70818594  0.10076320  0.88941449  1
  Ta  Ta104  1  0.40792557  -0.01611000  0.51680193  1
  Ta  Ta105  1  -0.00368106  -0.00546311  0.00413840  1
  Ta  Ta106  1  0.88860425  0.69284376  0.62821804  1
  Ta  Ta107  1  0.18608161  0.40829675  0.77238190  1
  Ta  Ta108  1  0.70854761  0.89900840  0.86409246  1
  Ta  Ta109  1  0.59936364  0.58752637  0.00022939  1
  Ta  Ta110  1  0.30489551  0.51497790  0.88576179  1
  Ta  Ta111  1  0.81867825  0.41951051  0.49622565  1
  Ta  Ta112  1  0.68968417  0.30971246  0.88043362  1
  Ta  Ta113  1  -0.01680973  0.79203991  -0.00315261  1
  Ta  Ta114  1  0.88957085  0.50916656  0.87886270  1
  Ta  Ta115  1  0.69747544  0.71887489  0.63370632  1
  Ta  Ta116  1  0.29792863  0.30300503  0.38348076  1
  Ta  Ta117  1  0.90111073  0.49984672  0.13095118  1
  Ta  Ta118  1  0.68756708  0.70228643  0.36560952  1
  Ta  Ta119  1  0.59471844  0.20709902  -0.00628092  1
  Ti  Ti120  1  0.60968519  0.02185577  0.24006648  1
  Ti  Ti121  1  0.50718555  0.30812195  0.12412562  1
  Ti  Ti122  1  0.60461461  0.80268059  0.49868624  1
  Ti  Ti123  1  0.89832362  0.10528419  0.11251114  1
  Ti  Ti124  1  0.09510096  0.51700883  0.88684004  1
  Ti  Ti125  1  0.18967055  0.39244262  0.25460393  1
  Ti  Ti126  1  0.90299125  0.33171104  0.36182035  1
  Ti  Ti127  1  0.50478735  0.09146484  0.63030947  1
  Ti  Ti128  1  0.09747823  0.28659585  0.12136341  1
  Ti  Ti129  1  0.19840211  0.20570036  0.49983104  1
  Ti  Ti130  1  0.00571871  0.59161345  0.25085425  1
  Ti  Ti131  1  0.88502319  0.29816024  0.88817912  1
  Ti  Ti132  1  0.70541292  0.90075254  0.64271466  1
  Ti  Ti133  1  0.30098052  0.88823066  0.11670788  1
  Ti  Ti134  1  0.50258005  0.70063312  0.88846852  1
  Ti  Ti135  1  0.01750938  0.79962044  0.74262622  1
  Ti  Ti136  1  0.08288927  0.48003876  0.36794886  1
  Ti  Ti137  1  0.28579761  0.49447989  0.37896309  1
  Ti  Ti138  1  0.17888157  0.39517577  0.49237419  1
  Ti  Ti139  1  0.79943409  0.40165004  0.76072234  1
  Ti  Ti140  1  0.41341498  0.80971819  -0.00480850  1
  Ti  Ti141  1  0.69658751  0.50126461  0.86960729  1
  Ti  Ti142  1  0.69809011  0.09753278  0.37913165  1
  Ti  Ti143  1  0.47928504  0.50814518  0.63482473  1
  Ti  Ti144  1  0.30785846  0.88220277  0.62979457  1
  Ti  Ti145  1  0.51393302  0.11246326  0.11723362  1
  Ti  Ti146  1  0.20235444  0.58864844  0.25129357  1
  Ti  Ti147  1  0.19619570  0.58540268  0.50051927  1
  Ti  Ti148  1  0.49476046  0.29665065  0.86654669  1
  Ti  Ti149  1  0.39253872  0.60354044  0.24468841  1
  Ti  Ti150  1  0.31523261  0.10109425  0.64221653  1
  Ti  Ti151  1  0.90307829  0.70575179  0.86886728  1
  Ti  Ti152  1  0.90881711  0.70672961  0.13715594  1
  Ti  Ti153  1  0.29121500  0.49835758  0.62414888  1
  Ti  Ti154  1  0.39408179  0.40898626  0.49779213  1
  Ti  Ti155  1  0.11079318  0.88100570  0.87728449  1
  Ti  Ti156  1  0.09787111  0.70219711  0.89046714  1
  Ti  Ti157  1  0.50403567  0.49986062  0.13512854  1
  Ti  Ti158  1  0.39874037  0.20647785  -0.00113484  1
  Ti  Ti159  1  0.40486641  0.78242240  0.75817190  1
  Mo  Mo160  1  0.79705106  0.00559999  0.74603331  1
  Mo  Mo161  1  0.59315158  0.40066989  0.25606337  1
  Mo  Mo162  1  0.30972844  0.89782298  0.87048645  1
  Mo  Mo163  1  0.70388795  0.30553384  0.38072566  1
  Mo  Mo164  1  0.89964393  0.50440188  0.35980709  1
  Mo  Mo165  1  0.59856970  0.78931486  0.24990389  1
  Mo  Mo166  1  0.59829152  0.80407052  0.76008893  1
  Mo  Mo167  1  0.08949482  0.10874918  0.11093638  1
  Mo  Mo168  1  0.80278551  0.39787230  0.24680171  1
  Mo  Mo169  1  0.50222445  0.88654489  0.86552627  1
  Mo  Mo170  1  0.79541183  0.82093753  0.00010366  1
  Mo  Mo171  1  0.19537812  0.80409434  0.00062876  1
  Mo  Mo172  1  0.19825770  0.59922871  -0.00932395  1
  Mo  Mo173  1  0.39296968  0.59706238  0.75162910  1
  Mo  Mo174  1  0.10599485  0.30350975  0.37008693  1
  Mo  Mo175  1  0.79830871  0.01239850  0.24606913  1
  Mo  Mo176  1  0.09333066  0.88713649  0.36471513  1
  Mo  Mo177  1  -0.00834583  0.60307752  -0.00462687  1
  Mo  Mo178  1  0.41350677  0.79857578  0.50014173  1
  Mo  Mo179  1  0.10031411  0.89187907  0.63132518  1
  Mo  Mo180  1  0.80619654  -0.00505683  0.00257354  1
  Mo  Mo181  1  0.58360662  0.60900475  0.24769578  1
  Mo  Mo182  1  0.60230545  0.40205958  -0.00191305  1
  Mo  Mo183  1  0.40739485  0.19173898  0.74195460  1
  Mo  Mo184  1  0.50341878  0.69867089  0.62319505  1
  Mo  Mo185  1  0.00270250  0.39727944  0.23951546  1
  Mo  Mo186  1  0.30984560  0.30371218  0.88054058  1
  Mo  Mo187  1  0.49072419  0.30482960  0.38653767  1
  Mo  Mo188  1  0.80215794  0.80138944  0.25262023  1
  Mo  Mo189  1  0.39458667  0.58406704  0.50042173  1
  Mo  Mo190  1  0.89100919  0.49939844  0.63540171  1
  Mo  Mo191  1  0.40920420  0.60252596  0.00330070  1
  Mo  Mo192  1  0.60286475  0.79318541  -0.00496270  1
  Mo  Mo193  1  0.80194005  0.20376062  -0.00645599  1
  Mo  Mo194  1  0.09515561  0.30054009  0.87524608  1
  Mo  Mo195  1  0.80409794  0.79382800  0.74778873  1
  Mo  Mo196  1  0.60066143  0.40061020  0.75099235  1
  Mo  Mo197  1  0.20612519  0.79864977  0.74824829  1
  Mo  Mo198  1  -0.00271779  0.39879444  0.49804027  1
  Mo  Mo199  1  0.00746268  0.79462702  0.25296097  1
