# generated using pymatgen
data_HfZrTaTiMo
_symmetry_space_group_name_H-M   'P 1'
_cell_length_a   15.20557498
_cell_length_b   15.18490209
_cell_length_c   16.80557827
_cell_angle_alpha   90.03656334
_cell_angle_beta   90.04626637
_cell_angle_gamma   89.96797701
_symmetry_Int_Tables_number   1
_chemical_formula_structural   HfZrTaTiMo
_chemical_formula_sum   'Hf40 Zr40 Ta40 Ti40 Mo40'
_cell_volume   3880.32414630
_cell_formula_units_Z   40
loop_
 _symmetry_equiv_pos_site_id
 _symmetry_equiv_pos_as_xyz
  1  'x, y, z'
loop_
 _atom_site_type_symbol
 _atom_site_label
 _atom_site_symmetry_multiplicity
 _atom_site_fract_x
 _atom_site_fract_y
 _atom_site_fract_z
 _atom_site_occupancy
  Hf  Hf0  1  0.10748320  0.68520974  0.88351928  1
  Hf  Hf1  1  0.18755322  0.01433734  0.25877152  1
  Hf  Hf2  1  0.79401011  0.20234876  0.72351000  1
  Hf  Hf3  1  0.59774881  0.79679841  0.26613220  1
  Hf  Hf4  1  0.80371881  0.18432478  -0.00113640  1
  Hf  Hf5  1  0.70116974  0.69003225  0.13188565  1
  Hf  Hf6  1  0.30625305  0.70022882  0.12571808  1
  Hf  Hf7  1  0.42096188  0.59247232  0.00043047  1
  Hf  Hf8  1  0.61173275  0.41100500  0.50203968  1
  Hf  Hf9  1  -0.01080161  0.39659578  0.24791510  1
  Hf  Hf10  1  0.41547767  0.60655303  0.49648313  1
  Hf  Hf11  1  0.61069889  0.00351219  -0.00332467  1
  Hf  Hf12  1  0.19911166  -0.00435407  0.75849440  1
  Hf  Hf13  1  0.78938045  -0.00821961  0.51440014  1
  Hf  Hf14  1  -0.02015367  0.00035320  -0.01761663  1
  Hf  Hf15  1  0.60212182  0.42450779  -0.00364613  1
  Hf  Hf16  1  0.50942154  0.50830907  0.14826115  1
  Hf  Hf17  1  0.10717877  0.27789511  0.12447145  1
  Hf  Hf18  1  0.18846724  0.40521459  0.74140749  1
  Hf  Hf19  1  0.90306784  0.69948750  0.87776269  1
  Hf  Hf20  1  0.19463116  -0.01046050  0.48923713  1
  Hf  Hf21  1  0.26691173  0.10985132  0.11358799  1
  Hf  Hf22  1  0.79642326  -0.00594157  0.25469549  1
  Hf  Hf23  1  0.51528453  0.69396369  0.86692797  1
  Hf  Hf24  1  0.78949866  0.59342226  0.00033096  1
  Hf  Hf25  1  0.92793335  0.69853805  0.38472684  1
  Hf  Hf26  1  0.90078116  0.29062046  0.86559442  1
  Hf  Hf27  1  0.80644352  0.59189517  0.51601865  1
  Hf  Hf28  1  0.89711297  0.09169371  0.38707607  1
  Hf  Hf29  1  0.50244085  0.31552314  0.14302546  1
  Hf  Hf30  1  -0.00218368  -0.01669284  0.25659602  1
  Hf  Hf31  1  0.30830645  0.49759203  0.37531054  1
  Hf  Hf32  1  0.77919620  -0.00373073  0.73562602  1
  Hf  Hf33  1  0.30784006  0.28322490  0.61253163  1
  Hf  Hf34  1  0.59022357  0.21447033  0.48663869  1
  Hf  Hf35  1  0.08979288  0.49939653  0.37125551  1
  Hf  Hf36  1  0.61063760  0.79244659  -0.00479170  1
  Hf  Hf37  1  0.40560658  0.18141506  0.75257973  1
  Hf  Hf38  1  0.18192183  0.79208607  0.48772618  1
  Hf  Hf39  1  0.46911744  0.10356226  0.59919731  1
  Zr  Zr40  1  0.50068103  0.90969525  0.60664289  1
  Zr  Zr41  1  0.71123353  0.47418017  0.14102768  1
  Zr  Zr42  1  -0.00601054  0.39641145  0.01158167  1
  Zr  Zr43  1  0.39832999  0.60585444  0.73948982  1
  Zr  Zr44  1  0.10001747  0.72891500  0.11514565  1
  Zr  Zr45  1  0.79714707  0.20527247  0.50996051  1
  Zr  Zr46  1  0.20518540  0.61232807  0.25987261  1
  Zr  Zr47  1  0.38333613  0.20211691  0.25103387  1
  Zr  Zr48  1  0.00192874  0.59425474  0.01356831  1
  Zr  Zr49  1  0.19949044  0.61141549  0.73499220  1
  Zr  Zr50  1  0.38699346  -0.00732495  0.25032762  1
  Zr  Zr51  1  0.60282602  0.79911215  0.49401880  1
  Zr  Zr52  1  0.69900979  0.51229745  0.85358389  1
  Zr  Zr53  1  0.88307558  0.29843424  0.12772055  1
  Zr  Zr54  1  0.18343148  0.81665787  0.26782276  1
  Zr  Zr55  1  0.60560159  0.20140978  0.26226736  1
  Zr  Zr56  1  0.39751064  0.81304572  0.74666268  1
  Zr  Zr57  1  0.91373363  0.48921229  0.86620737  1
  Zr  Zr58  1  0.50280337  0.89588579  0.13140565  1
  Zr  Zr59  1  0.40224144  0.39977124  -0.00009009  1
  Zr  Zr60  1  0.40003458  0.80399340  0.00196453  1
  Zr  Zr61  1  0.20194569  0.19613939  0.74577569  1
  Zr  Zr62  1  0.50662168  0.29412537  0.86235443  1
  Zr  Zr63  1  0.29425893  0.50077885  0.87053656  1
  Zr  Zr64  1  0.50153187  0.10246985  0.13286922  1
  Zr  Zr65  1  0.60295070  0.21622020  0.01013673  1
  Zr  Zr66  1  0.30354692  0.70929531  0.88252293  1
  Zr  Zr67  1  0.71024041  0.89789243  0.12906220  1
  Zr  Zr68  1  0.81301141  0.60434943  0.73916853  1
  Zr  Zr69  1  0.80349506  0.20168558  0.25889217  1
  Zr  Zr70  1  0.11079097  0.49495010  0.13992767  1
  Zr  Zr71  1  0.72220701  0.70007613  0.38182837  1
  Zr  Zr72  1  0.61039852  0.81875116  0.74746013  1
  Zr  Zr73  1  0.70370658  0.31295971  0.85421255  1
  Zr  Zr74  1  0.09788402  0.08729631  0.61958585  1
  Zr  Zr75  1  0.29501935  0.29443003  0.87594796  1
  Zr  Zr76  1  0.01923865  0.59996947  0.51899930  1
  Zr  Zr77  1  0.30456220  0.49645560  0.61243578  1
  Zr  Zr78  1  0.68669799  0.10638001  0.86592371  1
  Zr  Zr79  1  0.39184528  0.00118649  0.00423039  1
  Ta  Ta80  1  0.21058307  0.59018568  0.00950177  1
  Ta  Ta81  1  0.01033553  0.79315030  0.75862648  1
  Ta  Ta82  1  0.09305836  0.30901192  0.87463453  1
  Ta  Ta83  1  0.90427192  0.08757278  0.12599346  1
  Ta  Ta84  1  0.09309607  0.11020486  0.87313308  1
  Ta  Ta85  1  0.70249015  0.70636917  0.62673373  1
  Ta  Ta86  1  0.50848673  0.29977371  0.62962937  1
  Ta  Ta87  1  0.50994976  0.50077011  0.63359800  1
  Ta  Ta88  1  0.81543054  0.58957711  0.25337535  1
  Ta  Ta89  1  0.00163561  0.19722313  0.74323860  1
  Ta  Ta90  1  0.29956255  0.10136051  0.38535635  1
  Ta  Ta91  1  0.00532100  0.18737465  0.25396374  1
  Ta  Ta92  1  0.18004868  -0.01164989  -0.01311846  1
  Ta  Ta93  1  0.50673298  0.70095959  0.62449555  1
  Ta  Ta94  1  0.91259641  0.88991881  0.11952567  1
  Ta  Ta95  1  0.41361338  0.39447123  0.49966637  1
  Ta  Ta96  1  0.39600737  0.20263270  0.00418234  1
  Ta  Ta97  1  0.51086740  0.49619704  0.36959881  1
  Ta  Ta98  1  0.50587865  0.49691336  0.84914263  1
  Ta  Ta99  1  0.19651155  0.39880039  0.00228937  1
  Ta  Ta100  1  0.57538486  0.01577424  0.74942165  1
  Ta  Ta101  1  0.08895161  0.10317495  0.38698668  1
  Ta  Ta102  1  0.90855016  0.90037928  0.63505999  1
  Ta  Ta103  1  0.50157294  0.91237875  0.87669048  1
  Ta  Ta104  1  0.19639558  0.20037424  0.49381889  1
  Ta  Ta105  1  0.80880476  0.80743464  0.74962461  1
  Ta  Ta106  1  -0.00406151  0.39721328  0.50752200  1
  Ta  Ta107  1  0.31136785  0.49463902  0.14021917  1
  Ta  Ta108  1  0.48106142  0.89338873  0.38556090  1
  Ta  Ta109  1  0.01590329  0.59037178  0.73624490  1
  Ta  Ta110  1  0.59649750  -0.00177950  0.27074271  1
  Ta  Ta111  1  0.61481395  0.59769033  0.27067858  1
  Ta  Ta112  1  0.09989257  0.29799539  0.61666962  1
  Ta  Ta113  1  -0.00203151  0.61237196  0.23983573  1
  Ta  Ta114  1  0.50851011  0.69733234  0.13283358  1
  Ta  Ta115  1  0.19357565  0.39746764  0.49381162  1
  Ta  Ta116  1  0.80772903  0.39784488  0.52308123  1
  Ta  Ta117  1  0.91636669  0.71057044  0.62932056  1
  Ta  Ta118  1  0.66652943  0.09733425  0.61428499  1
  Ta  Ta119  1  0.41288163  0.61252752  0.26429637  1
  Ti  Ti120  1  0.79584368  0.39163772  -0.00174322  1
  Ti  Ti121  1  0.70182660  0.90325212  0.37995503  1
  Ti  Ti122  1  0.27302989  0.89702118  0.12039056  1
  Ti  Ti123  1  0.29691006  0.09662282  0.88835674  1
  Ti  Ti124  1  0.89462340  0.88768700  0.38244265  1
  Ti  Ti125  1  0.31410846  0.71549297  0.38350078  1
  Ti  Ti126  1  -0.00359770  0.39655717  0.73046827  1
  Ti  Ti127  1  0.09821807  0.88365904  0.62972247  1
  Ti  Ti128  1  0.29962274  0.30178652  0.38222680  1
  Ti  Ti129  1  0.80939623  0.80067378  0.51594235  1
  Ti  Ti130  1  -0.00370789  -0.01970443  0.49981716  1
  Ti  Ti131  1  0.18790317  0.20568961  0.27016381  1
  Ti  Ti132  1  0.88995626  0.09539011  0.85914964  1
  Ti  Ti133  1  0.29697559  0.30735179  0.12685172  1
  Ti  Ti134  1  0.30090449  0.71828399  0.61248298  1
  Ti  Ti135  1  0.81797521  0.79201579  0.25085855  1
  Ti  Ti136  1  0.20337195  0.38996414  0.26054674  1
  Ti  Ti137  1  0.38873046  -0.00152611  0.75655981  1
  Ti  Ti138  1  0.88995758  0.49324404  0.38097053  1
  Ti  Ti139  1  0.69648882  0.09856147  0.38564683  1
  Ti  Ti140  1  -0.00028824  0.20261132  0.50389055  1
  Ti  Ti141  1  0.20408411  0.80649777  0.75281484  1
  Ti  Ti142  1  0.69870553  0.49806813  0.64213533  1
  Ti  Ti143  1  0.01181035  0.81615823  -0.01963473  1
  Ti  Ti144  1  0.49161265  0.09675973  0.38215227  1
  Ti  Ti145  1  0.49155086  0.30910695  0.36304497  1
  Ti  Ti146  1  0.70507020  0.10125724  0.13077058  1
  Ti  Ti147  1  0.91062053  0.29974493  0.38007420  1
  Ti  Ti148  1  0.39696564  0.39382941  0.74148381  1
  Ti  Ti149  1  0.39334565  0.79990100  0.25260893  1
  Ti  Ti150  1  0.00441586  0.19377969  -0.00167816  1
  Ti  Ti151  1  0.60867452  0.60088536  0.49668778  1
  Ti  Ti152  1  0.70733712  0.70933694  0.86717368  1
  Ti  Ti153  1  0.80932746  0.82499463  -0.01706277  1
  Ti  Ti154  1  0.29942909  0.91380758  0.61560123  1
  Ti  Ti155  1  -0.00301917  -0.00758660  0.75911243  1
  Ti  Ti156  1  0.20673978  0.60031827  0.49739983  1
  Ti  Ti157  1  0.71314061  0.32134378  0.37635752  1
  Ti  Ti158  1  0.89492134  0.70430940  0.11587052  1
  Ti  Ti159  1  0.90593962  0.09424171  0.62259697  1
  Mo  Mo160  1  0.29683969  0.90542871  0.87689474  1
  Mo  Mo161  1  0.19185990  0.19958274  -0.00961461  1
  Mo  Mo162  1  0.89823203  0.51067640  0.12996670  1
  Mo  Mo163  1  0.60703641  0.39951189  0.26931719  1
  Mo  Mo164  1  0.59961862  0.40022447  0.73701471  1
  Mo  Mo165  1  0.89568347  0.90216053  0.85595155  1
  Mo  Mo166  1  0.39353429  0.40514361  0.25813542  1
  Mo  Mo167  1  0.10308381  0.49078230  0.87644648  1
  Mo  Mo168  1  0.29521626  0.90128477  0.37492446  1
  Mo  Mo169  1  0.71357641  0.50044381  0.38182131  1
  Mo  Mo170  1  0.60368830  0.61119390  0.73808780  1
  Mo  Mo171  1  0.29391729  0.08880155  0.61301527  1
  Mo  Mo172  1  0.08417260  0.09201184  0.11991286  1
  Mo  Mo173  1  0.80456300  0.39919253  0.26413439  1
  Mo  Mo174  1  -0.01087106  0.79413359  0.24607476  1
  Mo  Mo175  1  0.80863908  0.39801061  0.72459808  1
  Mo  Mo176  1  0.39566025  0.20996629  0.48307189  1
  Mo  Mo177  1  0.48733974  0.10031106  0.88082731  1
  Mo  Mo178  1  0.10993476  0.70906647  0.63196229  1
  Mo  Mo179  1  0.50130319  0.69773611  0.37730388  1
  Mo  Mo180  1  0.69332944  0.30416350  0.62695581  1
  Mo  Mo181  1  0.90661438  0.49697515  0.63099082  1
  Mo  Mo182  1  -0.00431783  0.80488163  0.50958142  1
  Mo  Mo183  1  0.07505251  0.89521232  0.38070446  1
  Mo  Mo184  1  0.69744909  0.90172466  0.62027724  1
  Mo  Mo185  1  0.09351669  0.91835092  0.11713874  1
  Mo  Mo186  1  0.38909313  -0.00420341  0.48470982  1
  Mo  Mo187  1  0.10305916  0.68954908  0.37286168  1
  Mo  Mo188  1  0.70014301  0.90256709  0.87418212  1
  Mo  Mo189  1  0.09497999  0.29793544  0.38078771  1
  Mo  Mo190  1  0.79980537  -0.00128959  0.00005381  1
  Mo  Mo191  1  0.59482283  0.19172564  0.73505027  1
  Mo  Mo192  1  0.59638072  0.00509972  0.47724504  1
  Mo  Mo193  1  0.69531339  0.29227218  0.12749135  1
  Mo  Mo194  1  0.10797548  0.49271451  0.61452554  1
  Mo  Mo195  1  0.38904146  0.79919732  0.50526154  1
  Mo  Mo196  1  0.19842051  0.80303106  -0.00189152  1
  Mo  Mo197  1  0.90965005  0.29103280  0.62477195  1
  Mo  Mo198  1  0.60228922  0.60111135  0.00081975  1
  Mo  Mo199  1  0.09918273  0.89611966  0.86620894  1
