# generated using pymatgen
data_HfZrTaTiMo
_symmetry_space_group_name_H-M   'P 1'
_cell_length_a   15.21547736
_cell_length_b   15.20379381
_cell_length_c   16.82738073
_cell_angle_alpha   89.94319928
_cell_angle_beta   90.03842698
_cell_angle_gamma   89.99393046
_symmetry_Int_Tables_number   1
_chemical_formula_structural   HfZrTaTiMo
_chemical_formula_sum   'Hf40 Zr40 Ta40 Ti40 Mo40'
_cell_volume   3892.72532889
_cell_formula_units_Z   40
loop_
 _symmetry_equiv_pos_site_id
 _symmetry_equiv_pos_as_xyz
  1  'x, y, z'
loop_
 _atom_site_type_symbol
 _atom_site_label
 _atom_site_symmetry_multiplicity
 _atom_site_fract_x
 _atom_site_fract_y
 _atom_site_fract_z
 _atom_site_occupancy
  Hf  Hf0  1  0.88913204  0.10789869  0.60853208  1
  Hf  Hf1  1  0.91015721  0.50450009  0.11767222  1
  Hf  Hf2  1  0.80608689  0.20339930  0.23230535  1
  Hf  Hf3  1  0.17566633  0.80015588  -0.00058928  1
  Hf  Hf4  1  0.48934266  0.90314412  0.63442100  1
  Hf  Hf5  1  0.29275879  0.10045090  0.37201910  1
  Hf  Hf6  1  0.20773799  0.39741220  -0.01088427  1
  Hf  Hf7  1  0.71528632  0.49815446  0.62335573  1
  Hf  Hf8  1  0.39399482  0.19972918  0.24282967  1
  Hf  Hf9  1  0.39452529  0.80400507  0.49729217  1
  Hf  Hf10  1  0.49828596  0.10075030  0.62544767  1
  Hf  Hf11  1  0.90895317  0.30384093  0.37806573  1
  Hf  Hf12  1  0.52136960  0.51777701  0.86895349  1
  Hf  Hf13  1  0.59570191  0.59720881  0.50021491  1
  Hf  Hf14  1  0.49635256  0.09937030  0.11538516  1
  Hf  Hf15  1  0.88496308  0.70593051  0.39053939  1
  Hf  Hf16  1  0.18303037  -0.00204695  0.25912304  1
  Hf  Hf17  1  0.50862878  0.50604554  0.12139414  1
  Hf  Hf18  1  0.27357478  0.89600181  0.13382352  1
  Hf  Hf19  1  0.09312429  0.69262148  0.61226205  1
  Hf  Hf20  1  0.71269397  0.50438531  0.37504191  1
  Hf  Hf21  1  0.60270228  0.39281719  0.49165748  1
  Hf  Hf22  1  0.02028005  0.40937028  0.49195006  1
  Hf  Hf23  1  0.01325441  0.39278827  0.00827834  1
  Hf  Hf24  1  0.89707635  0.29129616  0.90028755  1
  Hf  Hf25  1  -0.00542362  0.01201523  0.26192832  1
  Hf  Hf26  1  0.48976613  0.90366020  0.35880180  1
  Hf  Hf27  1  0.79242546  0.79284777  -0.00228501  1
  Hf  Hf28  1  0.09449543  0.71208292  0.14144719  1
  Hf  Hf29  1  0.60505655  0.39644959  0.24965773  1
  Hf  Hf30  1  0.59144957  0.77791818  0.74944088  1
  Hf  Hf31  1  0.19931550  0.60009861  0.26428731  1
  Hf  Hf32  1  0.51668163  0.07915191  0.89449840  1
  Hf  Hf33  1  0.91259468  0.51400312  0.62435468  1
  Hf  Hf34  1  0.30290593  0.50173876  0.12450998  1
  Hf  Hf35  1  0.40654419  0.60318116  0.25967817  1
  Hf  Hf36  1  0.30630215  0.29776871  0.63496251  1
  Hf  Hf37  1  0.40486465  0.39291398  0.24811633  1
  Hf  Hf38  1  0.09582192  0.08628690  0.61820660  1
  Hf  Hf39  1  0.38080354  -0.01091622  -0.00094940  1
  Zr  Zr40  1  0.63719820  0.39420471  0.76356395  1
  Zr  Zr41  1  0.58219722  0.80040798  0.00099216  1
  Zr  Zr42  1  0.20907295  0.17640129  0.75333700  1
  Zr  Zr43  1  0.71063125  0.28976448  0.61066653  1
  Zr  Zr44  1  0.89429248  0.90725856  0.86516619  1
  Zr  Zr45  1  0.01718719  0.40661654  0.24624308  1
  Zr  Zr46  1  0.40506586  0.39768094  0.49818137  1
  Zr  Zr47  1  0.89284905  0.11239798  0.38063297  1
  Zr  Zr48  1  0.79282899  0.79222972  0.24654398  1
  Zr  Zr49  1  -0.00398263  0.39661198  0.75803743  1
  Zr  Zr50  1  0.81240213  0.39758636  0.24417090  1
  Zr  Zr51  1  0.40357867  0.41223044  -0.00909768  1
  Zr  Zr52  1  0.50453157  0.50036466  0.64020228  1
  Zr  Zr53  1  -0.00419609  0.17793102  0.75050148  1
  Zr  Zr54  1  0.21081390  0.39922186  0.50004533  1
  Zr  Zr55  1  0.40341623  0.20527870  0.77693947  1
  Zr  Zr56  1  0.47893816  0.88368105  0.86882977  1
  Zr  Zr57  1  0.91034053  0.89366721  0.12228395  1
  Zr  Zr58  1  0.61655975  0.17578587  0.76670606  1
  Zr  Zr59  1  0.01578238  0.61287340  -0.00991697  1
  Zr  Zr60  1  0.52068550  0.30457326  0.89228082  1
  Zr  Zr61  1  0.79495808  -0.00505023  0.24412517  1
  Zr  Zr62  1  0.48297268  0.89667516  0.13921799  1
  Zr  Zr63  1  0.70261587  0.90256161  0.64020889  1
  Zr  Zr64  1  0.50816788  0.29644578  0.63453619  1
  Zr  Zr65  1  0.69032796  0.89412134  0.37275979  1
  Zr  Zr66  1  0.70784570  0.51529548  0.12727168  1
  Zr  Zr67  1  0.80367004  0.22634551  0.75918418  1
  Zr  Zr68  1  0.68545317  0.91242164  0.85910940  1
  Zr  Zr69  1  0.79452101  -0.01039718  0.49359540  1
  Zr  Zr70  1  0.79783126  0.61301831  0.75927618  1
  Zr  Zr71  1  0.10390668  0.28184654  0.87242105  1
  Zr  Zr72  1  0.00229955  0.80238776  0.73408779  1
  Zr  Zr73  1  0.90596400  0.31102323  0.61270128  1
  Zr  Zr74  1  0.37921051  0.00942836  0.75721736  1
  Zr  Zr75  1  0.49709091  0.09395772  0.36277674  1
  Zr  Zr76  1  0.29189500  0.69644708  0.61794986  1
  Zr  Zr77  1  0.78724418  0.00186880  0.00326086  1
  Zr  Zr78  1  0.89803819  0.69218450  0.12716018  1
  Zr  Zr79  1  0.30343337  0.69926425  0.11864107  1
  Ta  Ta80  1  0.37135066  0.80231201  0.74268830  1
  Ta  Ta81  1  0.39658444  0.19943670  0.49439605  1
  Ta  Ta82  1  0.49536825  0.69791941  0.62061729  1
  Ta  Ta83  1  0.59675204  0.80464079  0.50623803  1
  Ta  Ta84  1  0.50285438  0.70470347  0.37790721  1
  Ta  Ta85  1  0.10777432  0.29764285  0.63077848  1
  Ta  Ta86  1  0.19304802  0.20129143  0.24057181  1
  Ta  Ta87  1  0.59815975  0.19024299  0.49077709  1
  Ta  Ta88  1  0.00729420  0.20965164  0.23299231  1
  Ta  Ta89  1  0.29968204  0.29413014  0.11621490  1
  Ta  Ta90  1  0.69067319  0.09375769  0.12746287  1
  Ta  Ta91  1  0.88970334  0.70790961  0.61034486  1
  Ta  Ta92  1  0.79572612  0.40763717  0.00293227  1
  Ta  Ta93  1  0.80378303  0.02496124  0.75278103  1
  Ta  Ta94  1  0.00447992  0.60289946  0.75840711  1
  Ta  Ta95  1  0.20253436  0.19956296  0.50120093  1
  Ta  Ta96  1  0.28652127  0.89048584  0.36811694  1
  Ta  Ta97  1  0.39505092  0.59512311  0.49221321  1
  Ta  Ta98  1  0.38857161  0.20077566  -0.01076602  1
  Ta  Ta99  1  0.19738566  0.18962487  0.00135804  1
  Ta  Ta100  1  0.08629526  0.88361581  0.86993654  1
  Ta  Ta101  1  0.30244767  0.51489941  0.86414593  1
  Ta  Ta102  1  0.27078241  0.90720540  0.87558661  1
  Ta  Ta103  1  0.68989004  0.10123812  0.36423474  1
  Ta  Ta104  1  0.40031267  0.40581893  0.76758867  1
  Ta  Ta105  1  0.89842369  0.50406067  0.88442140  1
  Ta  Ta106  1  0.00557840  0.81315819  0.27601347  1
  Ta  Ta107  1  0.10679509  0.07014574  0.87832762  1
  Ta  Ta108  1  0.20821887  0.39047491  0.24978336  1
  Ta  Ta109  1  0.69773455  0.30011204  0.10901996  1
  Ta  Ta110  1  0.00321961  0.60014401  0.48453941  1
  Ta  Ta111  1  0.60131449  0.20378851  0.24076182  1
  Ta  Ta112  1  0.30092831  0.50263570  0.64317575  1
  Ta  Ta113  1  0.30318413  0.49121592  0.37070793  1
  Ta  Ta114  1  0.40624771  0.61656209  0.75663404  1
  Ta  Ta115  1  0.70009709  0.69858939  0.61712579  1
  Ta  Ta116  1  -0.00778826  0.81470324  0.49533337  1
  Ta  Ta117  1  0.11134278  0.71261493  0.38613972  1
  Ta  Ta118  1  0.70558403  0.28896905  0.37616969  1
  Ta  Ta119  1  0.50541854  0.50191360  0.37094673  1
  Ti  Ti120  1  0.61336989  0.59940829  -0.00056636  1
  Ti  Ti121  1  0.29993460  0.09192764  0.61593246  1
  Ti  Ti122  1  0.69147861  0.70402594  0.12301158  1
  Ti  Ti123  1  0.90484103  0.91185638  0.63019772  1
  Ti  Ti124  1  -0.00005381  0.60403800  0.27597177  1
  Ti  Ti125  1  0.81215706  0.40902246  0.48940070  1
  Ti  Ti126  1  0.20900483  0.59953705  -0.00936213  1
  Ti  Ti127  1  0.69419711  0.09695831  0.61842116  1
  Ti  Ti128  1  0.68887456  0.69171912  0.87502850  1
  Ti  Ti129  1  0.40883266  0.61898421  -0.01277025  1
  Ti  Ti130  1  0.10096407  0.09152336  0.11889184  1
  Ti  Ti131  1  0.11077733  0.49817154  0.63600850  1
  Ti  Ti132  1  0.91021339  0.09913580  0.89339189  1
  Ti  Ti133  1  0.19930083  0.61332733  0.75503511  1
  Ti  Ti134  1  0.90695431  0.10344400  0.11323849  1
  Ti  Ti135  1  0.11732758  0.29170194  0.37148093  1
  Ti  Ti136  1  0.59632013  0.79727305  0.24419512  1
  Ti  Ti137  1  0.11248885  0.50875598  0.12311294  1
  Ti  Ti138  1  0.29568534  0.71509556  0.87548668  1
  Ti  Ti139  1  0.49943390  0.29321827  0.37210511  1
  Ti  Ti140  1  0.20572167  0.39652560  0.75899584  1
  Ti  Ti141  1  0.01170574  -0.01432137  0.00357385  1
  Ti  Ti142  1  0.80743987  0.59944360  0.25774484  1
  Ti  Ti143  1  0.19739144  -0.00116404  0.49395970  1
  Ti  Ti144  1  0.39176303  -0.00133148  0.49881970  1
  Ti  Ti145  1  0.58856233  -0.00278587  0.49873082  1
  Ti  Ti146  1  0.19633006  0.81040612  0.50426096  1
  Ti  Ti147  1  0.37999652  0.79090697  0.26067554  1
  Ti  Ti148  1  0.20063940  0.58999645  0.49017284  1
  Ti  Ti149  1  0.10511443  0.50462775  0.86945051  1
  Ti  Ti150  1  0.50358236  0.29836006  0.10708315  1
  Ti  Ti151  1  0.91011101  0.71073955  0.87575597  1
  Ti  Ti152  1  0.01292218  0.20393065  0.49813557  1
  Ti  Ti153  1  0.18232460  -0.02908194  0.73442721  1
  Ti  Ti154  1  0.49797082  0.69833223  0.12772602  1
  Ti  Ti155  1  0.62112192  0.18973387  -0.00348947  1
  Ti  Ti156  1  0.60717194  0.60967488  0.25646794  1
  Ti  Ti157  1  0.69423154  0.70151777  0.39017533  1
  Ti  Ti158  1  0.29518119  0.09412956  0.12595362  1
  Ti  Ti159  1  0.00339953  0.00184101  0.48233022  1
  Mo  Mo160  1  0.30356640  0.29286915  0.37095595  1
  Mo  Mo161  1  0.28843261  0.90857717  0.61669610  1
  Mo  Mo162  1  0.80001244  0.60644351  -0.01465196  1
  Mo  Mo163  1  0.19621375  0.79831896  0.74479575  1
  Mo  Mo164  1  0.68545264  0.89600370  0.12676700  1
  Mo  Mo165  1  0.38534914  -0.00316870  0.24319010  1
  Mo  Mo166  1  -0.00246621  0.00279097  0.74732366  1
  Mo  Mo167  1  0.90592564  0.29682203  0.10980865  1
  Mo  Mo168  1  0.29981389  0.30448689  0.87688596  1
  Mo  Mo169  1  0.19221709  0.79590504  0.26161039  1
  Mo  Mo170  1  0.49000034  0.69927083  0.87407683  1
  Mo  Mo171  1  0.79034617  0.20125824  0.49074345  1
  Mo  Mo172  1  0.90717109  0.50599989  0.37667483  1
  Mo  Mo173  1  0.10581184  0.69578197  0.86612538  1
  Mo  Mo174  1  0.18632452  -0.00025485  0.00527921  1
  Mo  Mo175  1  0.09721909  0.11705095  0.38082117  1
  Mo  Mo176  1  0.11213370  0.29682535  0.12302169  1
  Mo  Mo177  1  0.30173809  0.69850397  0.38839756  1
  Mo  Mo178  1  -0.00815645  0.80065076  -0.00646429  1
  Mo  Mo179  1  0.72179717  0.10145306  0.88371376  1
  Mo  Mo180  1  0.29138482  0.09655547  0.88517741  1
  Mo  Mo181  1  0.08577418  0.90145167  0.13305582  1
  Mo  Mo182  1  0.60192892  0.60130893  0.74175594  1
  Mo  Mo183  1  0.59859825  0.00182649  0.74825569  1
  Mo  Mo184  1  0.10877107  0.50336359  0.37288687  1
  Mo  Mo185  1  0.37924345  0.79315770  -0.00244386  1
  Mo  Mo186  1  0.71084011  0.50343102  0.88421013  1
  Mo  Mo187  1  0.80744164  0.19801294  0.01982994  1
  Mo  Mo188  1  0.60524029  0.40481532  0.00533201  1
  Mo  Mo189  1  0.59717638  0.00048665  0.23932725  1
  Mo  Mo190  1  0.79317954  0.80248181  0.51061796  1
  Mo  Mo191  1  0.09445269  0.89973568  0.60484774  1
  Mo  Mo192  1  0.81542430  0.41155906  0.76328616  1
  Mo  Mo193  1  0.80080975  0.59906927  0.50197230  1
  Mo  Mo194  1  0.59818715  -0.00677763  0.01028396  1
  Mo  Mo195  1  0.10055056  0.90800189  0.39164846  1
  Mo  Mo196  1  0.70983720  0.30000418  0.90242632  1
  Mo  Mo197  1  0.01232241  0.18217308  0.01172536  1
  Mo  Mo198  1  0.89836953  0.90043716  0.37648356  1
  Mo  Mo199  1  0.80153348  0.80331522  0.73871771  1
