# generated using pymatgen
data_HfZrTaTiMo
_symmetry_space_group_name_H-M   'P 1'
_cell_length_a   15.21721899
_cell_length_b   15.19911001
_cell_length_c   16.82925638
_cell_angle_alpha   89.99027006
_cell_angle_beta   90.01355992
_cell_angle_gamma   90.00895295
_symmetry_Int_Tables_number   1
_chemical_formula_structural   HfZrTaTiMo
_chemical_formula_sum   'Hf40 Zr40 Ta40 Ti40 Mo40'
_cell_volume   3892.40795930
_cell_formula_units_Z   40
loop_
 _symmetry_equiv_pos_site_id
 _symmetry_equiv_pos_as_xyz
  1  'x, y, z'
loop_
 _atom_site_type_symbol
 _atom_site_label
 _atom_site_symmetry_multiplicity
 _atom_site_fract_x
 _atom_site_fract_y
 _atom_site_fract_z
 _atom_site_occupancy
  Hf  Hf0  1  0.01503891  0.20166114  0.72632669  1
  Hf  Hf1  1  0.59334373  0.00020525  0.74469928  1
  Hf  Hf2  1  0.69465072  0.10495413  0.87373300  1
  Hf  Hf3  1  0.90343111  0.69575645  0.11517708  1
  Hf  Hf4  1  0.50199384  0.51489054  0.38039210  1
  Hf  Hf5  1  0.48966986  0.08848240  0.87665881  1
  Hf  Hf6  1  0.78853069  0.79596887  0.74667357  1
  Hf  Hf7  1  0.00267292  0.40822724  0.51083006  1
  Hf  Hf8  1  0.88966669  0.30912033  0.62554515  1
  Hf  Hf9  1  0.19346741  0.39300877  0.75412263  1
  Hf  Hf10  1  0.02643237  0.61129551  0.49911988  1
  Hf  Hf11  1  0.29623133  0.49923025  0.11706096  1
  Hf  Hf12  1  0.20495610  0.61062071  -0.00269808  1
  Hf  Hf13  1  0.48292013  0.09783326  0.14113463  1
  Hf  Hf14  1  0.68488795  0.70165535  0.88519924  1
  Hf  Hf15  1  0.20445644  0.80499403  0.75623411  1
  Hf  Hf16  1  0.40574630  0.61781614  0.74253772  1
  Hf  Hf17  1  0.49624562  0.29410274  0.87409384  1
  Hf  Hf18  1  0.59524291  0.40269943  0.75721858  1
  Hf  Hf19  1  -0.00115961  0.59057156  -0.00951146  1
  Hf  Hf20  1  0.79731169  0.79882419  0.50295171  1
  Hf  Hf21  1  0.72209499  0.30824406  0.11977085  1
  Hf  Hf22  1  0.82061752  0.59037889  0.49685264  1
  Hf  Hf23  1  0.19564388  0.59509690  0.76822484  1
  Hf  Hf24  1  0.20033528  0.59916038  0.24960046  1
  Hf  Hf25  1  0.81233216  0.80704775  0.24979698  1
  Hf  Hf26  1  0.39620572  0.40223827  0.74466917  1
  Hf  Hf27  1  0.20104632  0.19929953  0.74285432  1
  Hf  Hf28  1  0.60388914  0.60610893  0.73755431  1
  Hf  Hf29  1  0.27881532  0.50204051  0.61599879  1
  Hf  Hf30  1  0.70673749  0.90440154  0.12485522  1
  Hf  Hf31  1  0.09787724  0.72444810  0.88225988  1
  Hf  Hf32  1  0.09458600  0.49724439  0.36960028  1
  Hf  Hf33  1  0.80515219  0.59513312  0.76611291  1
  Hf  Hf34  1  0.50030607  0.30346642  0.36290932  1
  Hf  Hf35  1  0.89563565  0.08992249  0.62354361  1
  Hf  Hf36  1  0.20169762  -0.00519141  0.48379982  1
  Hf  Hf37  1  0.59689326  0.79036452  0.24497988  1
  Hf  Hf38  1  0.91044200  0.70345512  0.63342744  1
  Hf  Hf39  1  0.89878679  0.08267168  0.85953317  1
  Zr  Zr40  1  0.78730534  0.19920832  0.50270899  1
  Zr  Zr41  1  0.19347755  0.77970591  0.47559969  1
  Zr  Zr42  1  0.50191918  0.30026748  0.13393775  1
  Zr  Zr43  1  0.92237446  0.28414570  0.86397001  1
  Zr  Zr44  1  0.92184073  0.89106564  0.86205978  1
  Zr  Zr45  1  0.60777259  0.00117845  0.49673405  1
  Zr  Zr46  1  0.59018175  0.80771584  0.51255788  1
  Zr  Zr47  1  0.60254674  0.60895555  0.52068834  1
  Zr  Zr48  1  0.10294956  0.88668559  0.61797411  1
  Zr  Zr49  1  0.60611209  0.39238596  0.50198771  1
  Zr  Zr50  1  0.48990649  0.89945790  0.14151268  1
  Zr  Zr51  1  0.80407052  0.59433277  0.25301050  1
  Zr  Zr52  1  0.79927233  0.39769229  0.77080313  1
  Zr  Zr53  1  0.39605751  0.39941416  0.49825750  1
  Zr  Zr54  1  0.69972906  0.90645571  0.87580991  1
  Zr  Zr55  1  0.29155538  0.70358455  0.61834003  1
  Zr  Zr56  1  0.57130067  0.79936997  0.73074672  1
  Zr  Zr57  1  0.59624760  0.19929647  0.00361867  1
  Zr  Zr58  1  0.70170205  0.69517269  0.11155667  1
  Zr  Zr59  1  0.20137658  0.18852446  0.26453164  1
  Zr  Zr60  1  0.09649530  0.28938313  0.13036981  1
  Zr  Zr61  1  0.71892270  0.48974915  0.62333283  1
  Zr  Zr62  1  0.30667566  0.49970457  0.88576731  1
  Zr  Zr63  1  0.70121150  0.10365517  0.12626587  1
  Zr  Zr64  1  0.39880884  0.62008032  0.23852959  1
  Zr  Zr65  1  0.61045382  0.40278692  -0.01466678  1
  Zr  Zr66  1  -0.00775572  -0.00110452  0.25177182  1
  Zr  Zr67  1  0.29602975  0.09125522  0.87802192  1
  Zr  Zr68  1  0.69587280  0.69465607  0.37749075  1
  Zr  Zr69  1  0.89999147  0.30717583  0.39200950  1
  Zr  Zr70  1  -0.00200368  0.39521916  0.24688769  1
  Zr  Zr71  1  0.58756407  0.19476928  0.49229271  1
  Zr  Zr72  1  0.81380932  0.20732377  -0.00735007  1
  Zr  Zr73  1  0.18970275  0.19685903  0.00387955  1
  Zr  Zr74  1  0.29945299  0.09693316  0.61094992  1
  Zr  Zr75  1  0.60821352  0.40368582  0.24976690  1
  Zr  Zr76  1  0.00062860  0.37951823  -0.00154216  1
  Zr  Zr77  1  0.60162182  0.59323151  0.24396849  1
  Zr  Zr78  1  0.19840314  0.00121652  0.74439038  1
  Zr  Zr79  1  0.80559122  0.40204220  0.25309219  1
  Ta  Ta80  1  0.30284569  0.29483445  0.13023803  1
  Ta  Ta81  1  0.58797002  0.80403038  0.00720004  1
  Ta  Ta82  1  0.80717587  0.80596382  -0.00092568  1
  Ta  Ta83  1  0.68059567  0.28773884  0.63944550  1
  Ta  Ta84  1  0.91514409  0.70276908  0.37121432  1
  Ta  Ta85  1  0.09693101  0.49955590  0.12462736  1
  Ta  Ta86  1  0.49928235  0.50304752  0.11274023  1
  Ta  Ta87  1  0.39806639  0.81043447  0.48810052  1
  Ta  Ta88  1  0.40123455  0.19832466  0.74522799  1
  Ta  Ta89  1  0.31542088  0.89681325  0.61621817  1
  Ta  Ta90  1  0.39292069  0.19883871  0.48084526  1
  Ta  Ta91  1  0.10101399  0.89582710  0.13797465  1
  Ta  Ta92  1  0.20569500  0.39279224  0.25895500  1
  Ta  Ta93  1  0.90173523  0.89903464  0.63377392  1
  Ta  Ta94  1  0.39342534  0.41009625  0.25163290  1
  Ta  Ta95  1  0.30009735  0.29345480  0.87967840  1
  Ta  Ta96  1  0.00983807  0.41098258  0.75059530  1
  Ta  Ta97  1  0.08827193  0.10028130  0.87636738  1
  Ta  Ta98  1  0.41118554  0.00437221  0.48020775  1
  Ta  Ta99  1  0.49883189  0.52126701  0.88172983  1
  Ta  Ta100  1  0.19662527  0.20948068  0.48786069  1
  Ta  Ta101  1  0.29161491  0.91784317  0.14907241  1
  Ta  Ta102  1  0.49480071  0.10749390  0.62485426  1
  Ta  Ta103  1  0.39169285  0.19466498  0.00866341  1
  Ta  Ta104  1  0.48687964  0.88672352  0.88307601  1
  Ta  Ta105  1  0.59190337  -0.00406049  0.00416276  1
  Ta  Ta106  1  0.80732853  0.19948059  0.25761915  1
  Ta  Ta107  1  0.80253256  0.00605003  0.25719698  1
  Ta  Ta108  1  0.39991681  0.39390514  0.00182282  1
  Ta  Ta109  1  0.29751935  0.89455752  0.88493983  1
  Ta  Ta110  1  0.79066282  0.19263506  0.74741623  1
  Ta  Ta111  1  0.89901293  0.09667708  0.38471533  1
  Ta  Ta112  1  0.20312363  0.79109244  0.25357920  1
  Ta  Ta113  1  0.30480546  0.89859259  0.35681938  1
  Ta  Ta114  1  -0.00135598  -0.00323172  0.49692973  1
  Ta  Ta115  1  0.81311686  -0.00105606  0.00421023  1
  Ta  Ta116  1  -0.00204732  0.59901161  0.24410473  1
  Ta  Ta117  1  -0.00658601  0.80701705  0.49135753  1
  Ta  Ta118  1  0.00525436  0.81366438  0.01222128  1
  Ta  Ta119  1  0.50288235  0.90481721  0.35855417  1
  Ti  Ti120  1  0.19491163  -0.00312294  0.00753844  1
  Ti  Ti121  1  0.01276559  -0.00613151  0.73836095  1
  Ti  Ti122  1  0.01094350  0.20003520  0.51167669  1
  Ti  Ti123  1  0.00507717  0.60238088  0.76984962  1
  Ti  Ti124  1  0.08966639  0.89424160  0.36294890  1
  Ti  Ti125  1  0.39481184  0.61280783  0.50218412  1
  Ti  Ti126  1  0.70699383  0.90621594  0.62832171  1
  Ti  Ti127  1  0.00521158  0.00095240  0.00871456  1
  Ti  Ti128  1  0.30239321  0.29652386  0.61711038  1
  Ti  Ti129  1  0.19421847  0.39614244  0.48994639  1
  Ti  Ti130  1  0.61197266  0.20073255  0.25611740  1
  Ti  Ti131  1  0.58957085  0.60533051  0.00209416  1
  Ti  Ti132  1  0.10959979  0.08825145  0.13582127  1
  Ti  Ti133  1  0.20394446  0.81249435  0.01252966  1
  Ti  Ti134  1  0.90681938  0.10649952  0.12697843  1
  Ti  Ti135  1  0.38992425  0.20188794  0.26402843  1
  Ti  Ti136  1  0.39443616  0.79279761  0.01698294  1
  Ti  Ti137  1  -0.00525674  0.19971460  0.26041731  1
  Ti  Ti138  1  0.70693035  0.50385073  0.10732727  1
  Ti  Ti139  1  0.91709543  0.50903679  0.63693842  1
  Ti  Ti140  1  0.70193071  0.10106693  0.37087452  1
  Ti  Ti141  1  0.60505065  0.00508204  0.25583464  1
  Ti  Ti142  1  0.10186938  0.68778067  0.63669204  1
  Ti  Ti143  1  0.00329927  0.79397590  0.24445348  1
  Ti  Ti144  1  0.89644689  0.70163020  0.88498819  1
  Ti  Ti145  1  0.80541030  -0.00943276  0.49298883  1
  Ti  Ti146  1  0.10500244  0.69814960  0.12238863  1
  Ti  Ti147  1  0.32449922  0.70792935  0.88159429  1
  Ti  Ti148  1  0.89400405  0.48807300  0.11129615  1
  Ti  Ti149  1  0.49213713  0.49839180  0.62025348  1
  Ti  Ti150  1  0.39688949  -0.01434585  0.74730792  1
  Ti  Ti151  1  0.70449281  0.89992285  0.36972263  1
  Ti  Ti152  1  0.71323465  0.48386044  0.38772783  1
  Ti  Ti153  1  0.48798888  0.71047416  0.37608506  1
  Ti  Ti154  1  0.09302194  0.10166014  0.37980634  1
  Ti  Ti155  1  0.39037271  -0.00735406  0.01020607  1
  Ti  Ti156  1  0.69703181  0.09712019  0.63205001  1
  Ti  Ti157  1  0.80565422  0.41212896  -0.02850189  1
  Ti  Ti158  1  0.30226788  0.50750499  0.37902160  1
  Ti  Ti159  1  0.19520449  0.39785920  -0.00661201  1
  Mo  Mo160  1  0.09874125  0.09867386  0.60446185  1
  Mo  Mo161  1  0.30623765  0.69668731  0.37781888  1
  Mo  Mo162  1  0.00528266  0.79648549  0.74972049  1
  Mo  Mo163  1  0.50262035  0.09939954  0.35637377  1
  Mo  Mo164  1  0.70276892  0.29369343  0.37124970  1
  Mo  Mo165  1  0.48718426  0.91941712  0.61768113  1
  Mo  Mo166  1  0.90907389  0.50289442  0.87469728  1
  Mo  Mo167  1  0.09682611  0.50566642  0.63242029  1
  Mo  Mo168  1  0.69348453  0.50854665  0.88176595  1
  Mo  Mo169  1  0.39225725  0.81134171  0.75250086  1
  Mo  Mo170  1  0.90297191  0.51077689  0.37744488  1
  Mo  Mo171  1  0.90142433  0.28727224  0.12903522  1
  Mo  Mo172  1  0.70060685  0.29585243  0.86192836  1
  Mo  Mo173  1  0.09940859  0.49496315  0.88012810  1
  Mo  Mo174  1  0.49406219  0.70564474  0.88326434  1
  Mo  Mo175  1  0.29977262  0.09912031  0.38378261  1
  Mo  Mo176  1  0.11282984  0.30774448  0.61457366  1
  Mo  Mo177  1  0.29589131  0.09821556  0.12646127  1
  Mo  Mo178  1  0.59165014  0.19776317  0.74747427  1
  Mo  Mo179  1  0.49507796  0.69865077  0.11734840  1
  Mo  Mo180  1  0.11014673  0.29047463  0.87585438  1
  Mo  Mo181  1  0.70619306  0.70364149  0.62489986  1
  Mo  Mo182  1  0.79776316  0.59444423  -0.01253017  1
  Mo  Mo183  1  0.29678967  0.31080826  0.37163919  1
  Mo  Mo184  1  0.89745858  0.90219396  0.37868047  1
  Mo  Mo185  1  0.48770663  0.29309608  0.62745401  1
  Mo  Mo186  1  0.39626954  0.80290229  0.25239427  1
  Mo  Mo187  1  0.19082350  -0.00406747  0.26579641  1
  Mo  Mo188  1  0.40361338  0.60533903  0.01003249  1
  Mo  Mo189  1  0.20577081  0.58591585  0.48848375  1
  Mo  Mo190  1  0.10973848  0.91520978  0.88785721  1
  Mo  Mo191  1  0.80028398  0.39829174  0.50870844  1
  Mo  Mo192  1  0.39173879  0.01377495  0.26702741  1
  Mo  Mo193  1  0.09771760  0.29563234  0.37873821  1
  Mo  Mo194  1  0.79811977  -0.00221781  0.74074451  1
  Mo  Mo195  1  0.29027415  0.71859185  0.12103612  1
  Mo  Mo196  1  -0.00009307  0.17334297  0.00470923  1
  Mo  Mo197  1  0.48334147  0.71099399  0.61378126  1
  Mo  Mo198  1  0.90284811  0.90421349  0.12011457  1
  Mo  Mo199  1  0.09789989  0.70046577  0.35988179  1
