# generated using pymatgen
data_HfZrTaTiMo
_symmetry_space_group_name_H-M   'P 1'
_cell_length_a   15.19248466
_cell_length_b   15.17949570
_cell_length_c   16.82866028
_cell_angle_alpha   89.98486840
_cell_angle_beta   89.98315738
_cell_angle_gamma   89.92657263
_symmetry_Int_Tables_number   1
_chemical_formula_structural   HfZrTaTiMo
_chemical_formula_sum   'Hf40 Zr40 Ta40 Ti40 Mo40'
_cell_volume   3880.92547050
_cell_formula_units_Z   40
loop_
 _symmetry_equiv_pos_site_id
 _symmetry_equiv_pos_as_xyz
  1  'x, y, z'
loop_
 _atom_site_type_symbol
 _atom_site_label
 _atom_site_symmetry_multiplicity
 _atom_site_fract_x
 _atom_site_fract_y
 _atom_site_fract_z
 _atom_site_occupancy
  Hf  Hf0  1  0.07984929  0.69272193  0.87846142  1
  Hf  Hf1  1  0.90593347  0.51742037  0.87648289  1
  Hf  Hf2  1  0.19543398  0.80237453  0.75261042  1
  Hf  Hf3  1  0.09447193  0.89977086  0.13121990  1
  Hf  Hf4  1  0.89576114  0.11262331  0.11229571  1
  Hf  Hf5  1  0.80944291  0.40452830  0.00775485  1
  Hf  Hf6  1  0.77650586  0.78630511  0.01588321  1
  Hf  Hf7  1  -0.00604349  0.80148210  0.75190460  1
  Hf  Hf8  1  0.61786300  0.40006844  0.49469530  1
  Hf  Hf9  1  0.09549604  0.70404197  0.61792929  1
  Hf  Hf10  1  0.00538484  0.00529121  0.75992753  1
  Hf  Hf11  1  0.79669504  0.19580350  0.24120184  1
  Hf  Hf12  1  0.60238468  0.19943081  0.24072411  1
  Hf  Hf13  1  0.31115256  0.09307083  0.13499113  1
  Hf  Hf14  1  0.01661882  0.41816716  0.75051335  1
  Hf  Hf15  1  0.69718184  0.70629527  0.36471334  1
  Hf  Hf16  1  0.90771275  0.50793428  0.61973061  1
  Hf  Hf17  1  0.50491415  0.10619376  0.37861604  1
  Hf  Hf18  1  0.09229916  0.90152684  0.37055365  1
  Hf  Hf19  1  0.18969044  0.79633870  -0.00070090  1
  Hf  Hf20  1  0.11183330  0.50397847  0.60136912  1
  Hf  Hf21  1  0.71106431  0.90619359  0.64277121  1
  Hf  Hf22  1  0.21124001  -0.00834697  0.26035610  1
  Hf  Hf23  1  0.70674656  0.49357109  0.62778508  1
  Hf  Hf24  1  0.69971242  0.52200228  0.88704278  1
  Hf  Hf25  1  0.70043664  0.29054066  0.10430005  1
  Hf  Hf26  1  0.88788822  0.31529473  0.63408134  1
  Hf  Hf27  1  0.20591917  0.19383137  0.00932641  1
  Hf  Hf28  1  -0.00213454  0.22095747  0.00034866  1
  Hf  Hf29  1  0.59716241  0.00518489  0.75266764  1
  Hf  Hf30  1  0.11283756  0.10422083  0.61004750  1
  Hf  Hf31  1  0.59676621  0.80159959  0.24684414  1
  Hf  Hf32  1  0.19846528  0.58682910  -0.00160807  1
  Hf  Hf33  1  0.88900160  0.09788989  0.63558521  1
  Hf  Hf34  1  0.39894897  -0.00024863  0.50397917  1
  Hf  Hf35  1  0.20455705  0.20905528  0.25662607  1
  Hf  Hf36  1  0.89246100  0.10727401  0.37389279  1
  Hf  Hf37  1  0.52302912  0.69409723  0.87383243  1
  Hf  Hf38  1  0.21527783  0.38080597  0.72816571  1
  Hf  Hf39  1  -0.00256491  0.60320273  0.24732883  1
  Zr  Zr40  1  0.10205138  0.10087081  0.13241542  1
  Zr  Zr41  1  0.49843233  0.89444121  0.62991683  1
  Zr  Zr42  1  0.49855243  0.31066661  0.62450439  1
  Zr  Zr43  1  0.89225071  0.32423713  0.37626104  1
  Zr  Zr44  1  0.50209774  0.89873982  0.37865045  1
  Zr  Zr45  1  0.00777562  0.00729569  -0.00827331  1
  Zr  Zr46  1  0.62370104  0.39561764  0.75934682  1
  Zr  Zr47  1  0.48319562  0.49291815  0.13726620  1
  Zr  Zr48  1  0.72355775  0.49294956  0.36511886  1
  Zr  Zr49  1  0.39319256  0.40119383  -0.00711020  1
  Zr  Zr50  1  0.39638573  0.19198138  0.74597182  1
  Zr  Zr51  1  -0.00906652  0.61840195  0.02668171  1
  Zr  Zr52  1  0.10027065  0.10605715  0.37816813  1
  Zr  Zr53  1  0.30644454  0.69375744  0.86801320  1
  Zr  Zr54  1  -0.01237462  0.80756812  0.49402728  1
  Zr  Zr55  1  0.80051212  0.00470714  0.50172158  1
  Zr  Zr56  1  0.39096428  0.00090590  -0.01168381  1
  Zr  Zr57  1  0.79228096  0.60324942  0.49859462  1
  Zr  Zr58  1  0.29646396  0.48767991  0.86311226  1
  Zr  Zr59  1  0.49779704  0.69770993  0.12881993  1
  Zr  Zr60  1  0.21766726  0.39568539  0.49540683  1
  Zr  Zr61  1  0.61482015  -0.00019217  0.24605245  1
  Zr  Zr62  1  0.11195389  0.30833639  0.87331012  1
  Zr  Zr63  1  0.11226691  0.50791332  0.38068132  1
  Zr  Zr64  1  0.60088744  0.79102534  0.50618312  1
  Zr  Zr65  1  0.18955233  0.58891734  0.74956931  1
  Zr  Zr66  1  0.29947186  0.89181506  0.12727060  1
  Zr  Zr67  1  0.29483684  0.89669469  0.62467633  1
  Zr  Zr68  1  0.50862620  0.29684254  0.88045812  1
  Zr  Zr69  1  0.88782476  0.89925811  0.88181912  1
  Zr  Zr70  1  0.88884462  0.30900260  0.86217295  1
  Zr  Zr71  1  -0.01920713  0.80591670  0.24501504  1
  Zr  Zr72  1  0.69914878  0.09725259  0.88850978  1
  Zr  Zr73  1  0.29077323  0.67932650  0.14064859  1
  Zr  Zr74  1  -0.00887141  0.21074187  0.50208034  1
  Zr  Zr75  1  0.29104627  0.68426246  0.36813670  1
  Zr  Zr76  1  0.40474412  0.79796002  -0.00642347  1
  Zr  Zr77  1  0.01616941  0.41791092  0.00301083  1
  Zr  Zr78  1  0.00700880  0.20218778  0.74936704  1
  Zr  Zr79  1  0.79735135  0.80783311  0.49953131  1
  Ta  Ta80  1  0.20534342  0.18913240  0.74253608  1
  Ta  Ta81  1  0.50116777  0.29571372  0.11815050  1
  Ta  Ta82  1  0.59773345  0.19652638  0.74272115  1
  Ta  Ta83  1  0.39508353  0.78136991  0.49831186  1
  Ta  Ta84  1  0.30155260  0.28100753  0.87262680  1
  Ta  Ta85  1  0.39172423  0.80355136  0.25670983  1
  Ta  Ta86  1  0.40047343  0.19942158  0.00329672  1
  Ta  Ta87  1  0.09585120  0.90810603  0.62000849  1
  Ta  Ta88  1  0.09959556  0.70604657  0.37128787  1
  Ta  Ta89  1  0.78248177  0.21097152  0.50993007  1
  Ta  Ta90  1  0.69828491  0.28784997  0.37301837  1
  Ta  Ta91  1  -0.00221832  0.60642359  0.48667451  1
  Ta  Ta92  1  0.31183320  0.09774696  0.37469646  1
  Ta  Ta93  1  0.60822150  0.00279032  0.50806738  1
  Ta  Ta94  1  0.40314917  0.79303300  0.75161772  1
  Ta  Ta95  1  0.50764182  0.09694147  0.11603386  1
  Ta  Ta96  1  0.40695150  0.59213483  -0.00266613  1
  Ta  Ta97  1  0.49595458  0.68531391  0.62973821  1
  Ta  Ta98  1  0.49111133  0.68491164  0.36669339  1
  Ta  Ta99  1  0.19881081  0.79678386  0.49881514  1
  Ta  Ta100  1  0.60449594  0.39312601  0.24881153  1
  Ta  Ta101  1  0.32261965  0.49635726  0.62388011  1
  Ta  Ta102  1  0.30826352  0.30771923  0.13440565  1
  Ta  Ta103  1  0.59873730  0.59057310  0.25456307  1
  Ta  Ta104  1  0.59667885  0.19819051  0.50894798  1
  Ta  Ta105  1  -0.00369139  0.21471362  0.24793648  1
  Ta  Ta106  1  0.70637454  0.08208138  0.10015448  1
  Ta  Ta107  1  0.69032065  0.88158517  0.87024571  1
  Ta  Ta108  1  0.59528381  -0.02316390  -0.00446154  1
  Ta  Ta109  1  0.10148234  0.30732976  0.37566136  1
  Ta  Ta110  1  0.40842724  0.19902678  0.24788998  1
  Ta  Ta111  1  0.20226990  0.00521746  0.74974550  1
  Ta  Ta112  1  0.41727850  0.40189969  0.49064588  1
  Ta  Ta113  1  0.11722505  0.50696349  0.14063509  1
  Ta  Ta114  1  0.22409669  0.41307733  0.26098137  1
  Ta  Ta115  1  0.10515666  0.31314322  0.13788895  1
  Ta  Ta116  1  0.30308794  0.68835994  0.62650194  1
  Ta  Ta117  1  0.87665600  0.91727303  0.11642796  1
  Ta  Ta118  1  -0.00551045  -0.00091429  0.49970174  1
  Ta  Ta119  1  0.78014989  0.20078440  0.74816292  1
  Ti  Ti120  1  0.59099257  0.59601462  0.49417827  1
  Ti  Ti121  1  0.89906956  0.49912259  0.12987625  1
  Ti  Ti122  1  0.80237698  0.39685419  0.23299427  1
  Ti  Ti123  1  0.09976925  0.30194326  0.60913876  1
  Ti  Ti124  1  0.49387219  0.90620752  0.12911951  1
  Ti  Ti125  1  0.79046980  0.60476498  0.74666627  1
  Ti  Ti126  1  0.39066326  0.00206132  0.75045909  1
  Ti  Ti127  1  0.90418065  0.90432297  0.63633513  1
  Ti  Ti128  1  0.20427642  0.39353895  0.00659905  1
  Ti  Ti129  1  0.49875983  0.89368022  0.86432141  1
  Ti  Ti130  1  0.89034743  0.10697785  0.87668184  1
  Ti  Ti131  1  0.10305395  0.90314875  0.88099018  1
  Ti  Ti132  1  0.69954573  0.09504479  0.37800241  1
  Ti  Ti133  1  0.87504809  0.70054133  0.88444426  1
  Ti  Ti134  1  0.79788978  0.79125568  0.75070594  1
  Ti  Ti135  1  0.11995815  0.10226821  0.87907940  1
  Ti  Ti136  1  0.78777453  0.81760382  0.24036925  1
  Ti  Ti137  1  0.30076897  0.89097966  0.37842958  1
  Ti  Ti138  1  0.40866659  0.39676109  0.75287051  1
  Ti  Ti139  1  0.69060491  0.50760668  0.12053723  1
  Ti  Ti140  1  0.29568198  0.90553078  0.86978779  1
  Ti  Ti141  1  0.49117247  0.10308197  0.61943208  1
  Ti  Ti142  1  0.50103257  0.50706788  0.86555211  1
  Ti  Ti143  1  0.59255986  0.41303145  -0.00042019  1
  Ti  Ti144  1  -0.00924737  0.61099244  0.74564077  1
  Ti  Ti145  1  0.49487385  0.09979076  0.87881935  1
  Ti  Ti146  1  0.30219883  0.27244983  0.60246373  1
  Ti  Ti147  1  0.40260879  0.58878912  0.49595359  1
  Ti  Ti148  1  0.70070399  0.29467763  0.89439294  1
  Ti  Ti149  1  0.80020581  0.60939752  0.23466705  1
  Ti  Ti150  1  0.00377449  0.40614927  0.25194567  1
  Ti  Ti151  1  0.50622878  0.50434440  0.63282345  1
  Ti  Ti152  1  0.31283394  0.29325136  0.37894439  1
  Ti  Ti153  1  0.89280126  0.70011935  0.36826955  1
  Ti  Ti154  1  0.88823083  0.70458099  0.62331072  1
  Ti  Ti155  1  -0.02001134  0.00947123  0.24962990  1
  Ti  Ti156  1  0.20103420  -0.00216309  0.49224664  1
  Ti  Ti157  1  0.60739726  0.78221368  0.74118566  1
  Ti  Ti158  1  0.50443175  0.30174182  0.37483542  1
  Ti  Ti159  1  -0.01298384  0.80376055  0.01519370  1
  Mo  Mo160  1  0.70025202  0.29647806  0.62743033  1
  Mo  Mo161  1  0.00025718  0.40773074  0.49671589  1
  Mo  Mo162  1  0.10047885  0.70812836  0.13351359  1
  Mo  Mo163  1  0.80696300  0.39604891  0.49887481  1
  Mo  Mo164  1  0.20712699  0.19529383  0.48179276  1
  Mo  Mo165  1  0.40848515  -0.00056281  0.25531277  1
  Mo  Mo166  1  0.59112548  0.19034747  0.00299936  1
  Mo  Mo167  1  0.69256114  0.69378881  0.14040083  1
  Mo  Mo168  1  0.90862635  0.51198990  0.37170753  1
  Mo  Mo169  1  0.40377156  0.20468219  0.49407213  1
  Mo  Mo170  1  0.68955230  0.10324068  0.62922570  1
  Mo  Mo171  1  0.60423899  0.60090770  0.74371490  1
  Mo  Mo172  1  0.80309487  -0.00048444  0.24688909  1
  Mo  Mo173  1  0.19381669  0.79803161  0.25659663  1
  Mo  Mo174  1  0.51115264  0.49638355  0.36840278  1
  Mo  Mo175  1  0.70534414  0.90700068  0.37531589  1
  Mo  Mo176  1  0.80122063  0.00059107  0.76002400  1
  Mo  Mo177  1  0.29725465  0.09649660  0.87439690  1
  Mo  Mo178  1  0.90807858  0.31031223  0.13372330  1
  Mo  Mo179  1  0.19429464  0.59708211  0.25250948  1
  Mo  Mo180  1  0.88996567  0.70906192  0.13517355  1
  Mo  Mo181  1  0.70580060  0.70134429  0.87344285  1
  Mo  Mo182  1  0.59945657  0.60389609  0.00995299  1
  Mo  Mo183  1  0.39441689  0.57997720  0.25995986  1
  Mo  Mo184  1  0.32072479  0.49488708  0.37945880  1
  Mo  Mo185  1  0.29684979  0.48823964  0.12660234  1
  Mo  Mo186  1  0.69591511  0.69391919  0.63172468  1
  Mo  Mo187  1  0.21490327  0.61065431  0.50572084  1
  Mo  Mo188  1  0.79306224  0.59759101  0.02275095  1
  Mo  Mo189  1  0.88392090  0.90943941  0.36478294  1
  Mo  Mo190  1  0.40988596  0.38277580  0.26185648  1
  Mo  Mo191  1  0.19857968  -0.00702792  -0.00656740  1
  Mo  Mo192  1  0.68550201  0.89969004  0.11860270  1
  Mo  Mo193  1  0.80437607  0.20183246  -0.00232110  1
  Mo  Mo194  1  0.10029535  0.50398591  0.87476933  1
  Mo  Mo195  1  0.80393557  0.40978620  0.76001006  1
  Mo  Mo196  1  0.29982289  0.09363301  0.61526140  1
  Mo  Mo197  1  0.59056982  0.79897613  0.00430697  1
  Mo  Mo198  1  0.79682752  -0.00738105  -0.01126725  1
  Mo  Mo199  1  0.40692901  0.59417271  0.74544286  1
