# generated using pymatgen
data_HfZrTaTiMo
_symmetry_space_group_name_H-M   'P 1'
_cell_length_a   15.20939330
_cell_length_b   15.21857230
_cell_length_c   16.80385102
_cell_angle_alpha   89.99583242
_cell_angle_beta   89.96185532
_cell_angle_gamma   89.96755588
_symmetry_Int_Tables_number   1
_chemical_formula_structural   HfZrTaTiMo
_chemical_formula_sum   'Hf40 Zr40 Ta40 Ti40 Mo40'
_cell_volume   3889.50610936
_cell_formula_units_Z   40
loop_
 _symmetry_equiv_pos_site_id
 _symmetry_equiv_pos_as_xyz
  1  'x, y, z'
loop_
 _atom_site_type_symbol
 _atom_site_label
 _atom_site_symmetry_multiplicity
 _atom_site_fract_x
 _atom_site_fract_y
 _atom_site_fract_z
 _atom_site_occupancy
  Hf  Hf0  1  0.90174208  0.70549232  0.37541327  1
  Hf  Hf1  1  0.79643460  0.81667323  0.50705200  1
  Hf  Hf2  1  0.81124917  0.40613053  0.51913417  1
  Hf  Hf3  1  0.91743022  0.29718403  0.12268810  1
  Hf  Hf4  1  0.79126472  0.19912780  0.24179581  1
  Hf  Hf5  1  0.20244325  -0.00449845  0.77050917  1
  Hf  Hf6  1  0.38134015  0.20738977  0.23449485  1
  Hf  Hf7  1  0.19555557  0.01565385  0.22092401  1
  Hf  Hf8  1  0.18557204  0.60050575  0.23760458  1
  Hf  Hf9  1  0.30881229  0.70890801  0.34762239  1
  Hf  Hf10  1  0.60380839  0.59079650  -0.00770160  1
  Hf  Hf11  1  0.10161805  0.89236834  0.63775540  1
  Hf  Hf12  1  0.30580877  0.50062850  0.35609865  1
  Hf  Hf13  1  -0.00061700  0.18319521  0.25885850  1
  Hf  Hf14  1  0.42049947  0.60492529  0.51279509  1
  Hf  Hf15  1  0.20614004  0.79735176  0.76232328  1
  Hf  Hf16  1  0.21522217  0.59153712  0.49722779  1
  Hf  Hf17  1  0.79376671  0.20458698  0.74203685  1
  Hf  Hf18  1  0.88321084  0.29180323  0.38048063  1
  Hf  Hf19  1  0.19888266  0.38646413  0.23902047  1
  Hf  Hf20  1  0.58961799  0.39382267  0.74395936  1
  Hf  Hf21  1  0.68490972  0.90105645  0.63278671  1
  Hf  Hf22  1  0.50088912  0.08117679  0.62456670  1
  Hf  Hf23  1  0.49595569  0.29948408  0.38802493  1
  Hf  Hf24  1  0.00120409  0.40494898  0.26573979  1
  Hf  Hf25  1  0.09935698  0.08485993  0.62745687  1
  Hf  Hf26  1  -0.00064214  0.21380510  0.76296632  1
  Hf  Hf27  1  0.49025026  0.29568025  0.87875858  1
  Hf  Hf28  1  0.10519077  0.71051772  0.36831940  1
  Hf  Hf29  1  0.49457208  0.09660317  0.87471971  1
  Hf  Hf30  1  0.69613126  0.29453910  0.87715552  1
  Hf  Hf31  1  0.30239700  0.10665614  0.89640107  1
  Hf  Hf32  1  0.29932463  0.29727096  0.38004127  1
  Hf  Hf33  1  0.29790910  0.51069659  0.88441103  1
  Hf  Hf34  1  0.01226230  0.59595787  0.75625409  1
  Hf  Hf35  1  0.31070440  0.49572605  0.13451543  1
  Hf  Hf36  1  0.68909766  0.28927992  0.60812896  1
  Hf  Hf37  1  0.58930588  0.80113143  0.77462485  1
  Hf  Hf38  1  0.89964745  0.92380636  0.64202487  1
  Hf  Hf39  1  0.41095123  0.60178495  0.74235409  1
  Zr  Zr40  1  0.80034489  0.80645364  0.76456522  1
  Zr  Zr41  1  0.40936507  0.81174012  0.49557404  1
  Zr  Zr42  1  0.70139220  0.09819394  0.38916004  1
  Zr  Zr43  1  0.38751000  0.41100157  0.51676133  1
  Zr  Zr44  1  0.90521898  0.88898040  0.11481630  1
  Zr  Zr45  1  0.10327434  0.48684352  0.61826305  1
  Zr  Zr46  1  0.07855360  0.28831275  0.61182523  1
  Zr  Zr47  1  0.68629582  0.30031179  0.40076954  1
  Zr  Zr48  1  0.49172603  0.30773513  0.11725881  1
  Zr  Zr49  1  0.19645005  0.19531741  0.76073945  1
  Zr  Zr50  1  0.50172668  0.90343316  0.35082336  1
  Zr  Zr51  1  0.70064742  0.30325795  0.11637083  1
  Zr  Zr52  1  0.69979601  0.70181258  0.38248357  1
  Zr  Zr53  1  0.21213856  0.80680874  0.49493083  1
  Zr  Zr54  1  0.50250364  0.70452780  0.35902214  1
  Zr  Zr55  1  0.91559320  0.71334971  0.63611581  1
  Zr  Zr56  1  0.31057040  0.90284145  0.89654849  1
  Zr  Zr57  1  0.70675885  0.09099027  0.87400500  1
  Zr  Zr58  1  -0.00739800  0.17140830  0.47948822  1
  Zr  Zr59  1  0.91042474  0.68780740  0.11879202  1
  Zr  Zr60  1  0.50492116  0.50279174  0.36955685  1
  Zr  Zr61  1  0.12111286  0.68878269  0.88666288  1
  Zr  Zr62  1  0.38386849  0.00150374  0.48834164  1
  Zr  Zr63  1  0.59083096  0.78715278  -0.01416521  1
  Zr  Zr64  1  0.00483924  0.59774259  0.50042987  1
  Zr  Zr65  1  0.21424605  0.59394678  0.74226099  1
  Zr  Zr66  1  0.59587293  -0.01133320  0.00020674  1
  Zr  Zr67  1  0.29562727  0.30573125  0.88328158  1
  Zr  Zr68  1  0.71003354  0.49994239  0.12165894  1
  Zr  Zr69  1  0.80181627  0.60433267  0.51725079  1
  Zr  Zr70  1  0.58895414  0.19384131  0.24567535  1
  Zr  Zr71  1  0.80399808  0.00599935  0.23971177  1
  Zr  Zr72  1  0.80474981  0.40674467  -0.00667686  1
  Zr  Zr73  1  0.69601156  0.89024657  0.12570730  1
  Zr  Zr74  1  0.89326491  0.91872779  0.87668490  1
  Zr  Zr75  1  0.00880428  0.81718922  0.50055371  1
  Zr  Zr76  1  0.61679737  0.60381550  0.24450317  1
  Zr  Zr77  1  0.27746398  0.30131250  0.62030588  1
  Zr  Zr78  1  0.17343581  0.20512737  0.01236611  1
  Zr  Zr79  1  0.91309529  0.91309631  0.36767991  1
  Ta  Ta80  1  0.17991949  0.39871561  0.76015882  1
  Ta  Ta81  1  0.39464871  0.19288408  0.50766357  1
  Ta  Ta82  1  0.00198291  0.58799498  -0.01197398  1
  Ta  Ta83  1  0.28739344  0.90643550  0.34224928  1
  Ta  Ta84  1  0.59516006  0.18945758  0.00801772  1
  Ta  Ta85  1  0.80669136  0.59675959  0.74804945  1
  Ta  Ta86  1  0.39918174  0.19970874  0.73996512  1
  Ta  Ta87  1  0.40053671  0.01629613  0.23415777  1
  Ta  Ta88  1  0.50485992  0.50201528  0.13317148  1
  Ta  Ta89  1  0.71142793  0.69904357  0.11796428  1
  Ta  Ta90  1  0.19991773  0.18125908  0.49311342  1
  Ta  Ta91  1  0.40582275  0.80166430  0.01934215  1
  Ta  Ta92  1  0.80343603  0.78974998  0.24866100  1
  Ta  Ta93  1  0.70563048  0.49817801  0.38333998  1
  Ta  Ta94  1  0.59599152  -0.01593242  0.49592185  1
  Ta  Ta95  1  0.90500976  0.49631000  0.86244720  1
  Ta  Ta96  1  0.90241884  0.11324441  0.62966129  1
  Ta  Ta97  1  0.30932266  0.71154231  0.62552349  1
  Ta  Ta98  1  0.80984670  0.59325439  0.25399383  1
  Ta  Ta99  1  0.51363446  0.70994238  0.63093336  1
  Ta  Ta100  1  0.19262169  0.40662782  0.01114891  1
  Ta  Ta101  1  0.08321210  0.49983867  0.12031184  1
  Ta  Ta102  1  0.70671317  0.68650810  0.86953656  1
  Ta  Ta103  1  0.69898425  0.70097582  0.63793990  1
  Ta  Ta104  1  0.40042615  0.41135272  0.00109821  1
  Ta  Ta105  1  0.30527412  0.90838204  0.63188109  1
  Ta  Ta106  1  0.40143941  0.80548957  0.75384860  1
  Ta  Ta107  1  0.60343628  0.39652418  0.25482438  1
  Ta  Ta108  1  0.69459137  0.50675505  0.63766055  1
  Ta  Ta109  1  0.00122506  0.01679423  0.00029282  1
  Ta  Ta110  1  0.00275897  0.79672485  -0.01740653  1
  Ta  Ta111  1  0.10805207  0.28893802  0.37795384  1
  Ta  Ta112  1  0.01075290  -0.01168471  0.23128482  1
  Ta  Ta113  1  0.00444131  0.39891220  0.48126881  1
  Ta  Ta114  1  0.79690430  0.79612587  -0.01786945  1
  Ta  Ta115  1  0.30178469  0.90214608  0.12653005  1
  Ta  Ta116  1  0.40990609  0.60916831  0.01392491  1
  Ta  Ta117  1  0.38584787  0.40284548  0.73789404  1
  Ta  Ta118  1  0.70335563  0.09009427  0.61678257  1
  Ta  Ta119  1  0.20229227  0.79657287  0.01632234  1
  Ti  Ti120  1  0.89504721  0.30578031  0.87672296  1
  Ti  Ti121  1  0.59880473  0.79330977  0.50403300  1
  Ti  Ti122  1  0.49461122  0.49921034  0.87247103  1
  Ti  Ti123  1  0.59088529  0.42695393  0.51652267  1
  Ti  Ti124  1  0.49263323  0.10308073  0.37767631  1
  Ti  Ti125  1  0.00627175  0.00977197  0.77184564  1
  Ti  Ti126  1  0.59233968  0.19088851  0.74316890  1
  Ti  Ti127  1  0.49341403  0.29353975  0.61730857  1
  Ti  Ti128  1  0.81826960  0.01157435  0.49800587  1
  Ti  Ti129  1  0.89800055  0.50469316  0.37677495  1
  Ti  Ti130  1  0.60503232  0.00868680  0.24197602  1
  Ti  Ti131  1  0.19124346  0.00105952  0.01351742  1
  Ti  Ti132  1  0.00972229  0.80501597  0.77881084  1
  Ti  Ti133  1  0.60030491  0.59985203  0.75997930  1
  Ti  Ti134  1  0.28778504  0.10213210  0.36488222  1
  Ti  Ti135  1  0.00685756  0.39242057  -0.00863104  1
  Ti  Ti136  1  0.60115603  -0.00783225  0.76144541  1
  Ti  Ti137  1  0.20405369  0.60098383  0.01950056  1
  Ti  Ti138  1  0.50123971  0.89843421  0.14075756  1
  Ti  Ti139  1  0.40564894  0.00913612  0.02259448  1
  Ti  Ti140  1  0.80923279  0.60194814  -0.01587215  1
  Ti  Ti141  1  0.79630295  0.40299396  0.25611375  1
  Ti  Ti142  1  0.89756545  0.11206082  0.87731036  1
  Ti  Ti143  1  0.90019082  0.49519056  0.12669597  1
  Ti  Ti144  1  0.30720710  0.70211934  0.13740272  1
  Ti  Ti145  1  0.80287016  0.19277458  0.00787140  1
  Ti  Ti146  1  0.32110306  0.70321168  0.88898885  1
  Ti  Ti147  1  0.17394659  0.80861030  0.22281549  1
  Ti  Ti148  1  0.59678451  0.40109929  -0.00858382  1
  Ti  Ti149  1  0.40548169  -0.00481262  0.75280077  1
  Ti  Ti150  1  0.29574683  0.09568172  0.62766361  1
  Ti  Ti151  1  0.81262107  0.39759311  0.73310088  1
  Ti  Ti152  1  0.79758824  0.00478891  0.01103706  1
  Ti  Ti153  1  0.18813482  0.20074250  0.22627125  1
  Ti  Ti154  1  0.50900368  0.70531191  0.13971538  1
  Ti  Ti155  1  -0.00108488  0.60426715  0.25354991  1
  Ti  Ti156  1  0.11329500  0.69952132  0.62341931  1
  Ti  Ti157  1  0.70580216  0.48985217  0.85924840  1
  Ti  Ti158  1  0.70055038  0.89653298  0.36627383  1
  Ti  Ti159  1  0.18497094  -0.00665632  0.48816986  1
  Mo  Mo160  1  0.49371405  0.89317975  0.62926926  1
  Mo  Mo161  1  0.39859566  0.20191599  0.01220156  1
  Mo  Mo162  1  0.08992733  0.31045875  0.12827757  1
  Mo  Mo163  1  0.58380297  0.17724252  0.50651792  1
  Mo  Mo164  1  0.09114910  0.30842613  0.87826947  1
  Mo  Mo165  1  0.10618703  0.49199496  0.88605023  1
  Mo  Mo166  1  0.48654803  0.90173878  0.88170648  1
  Mo  Mo167  1  0.61349675  0.80546261  0.24345794  1
  Mo  Mo168  1  0.90315013  0.69326958  0.87649255  1
  Mo  Mo169  1  0.69938819  0.89953364  0.87942210  1
  Mo  Mo170  1  0.07691534  0.10805697  0.11767510  1
  Mo  Mo171  1  -0.00582361  0.40182536  0.75405682  1
  Mo  Mo172  1  0.40358275  0.60258685  0.23191164  1
  Mo  Mo173  1  0.10925453  0.07958877  0.36553912  1
  Mo  Mo174  1  0.11113921  0.90503808  0.35846866  1
  Mo  Mo175  1  0.29580556  0.30568330  0.11075443  1
  Mo  Mo176  1  0.10343017  0.90247715  0.89737928  1
  Mo  Mo177  1  0.89569314  0.10055637  0.11510337  1
  Mo  Mo178  1  0.50704168  0.50099341  0.63738944  1
  Mo  Mo179  1  0.79718883  0.01388787  0.74601588  1
  Mo  Mo180  1  0.90243316  0.29960916  0.61634145  1
  Mo  Mo181  1  0.19031107  0.39677013  0.48491979  1
  Mo  Mo182  1  0.89723511  0.09139049  0.36786710  1
  Mo  Mo183  1  0.69880762  0.10029294  0.11589842  1
  Mo  Mo184  1  0.41110062  0.39692462  0.25130907  1
  Mo  Mo185  1  0.29836559  0.50138757  0.62850766  1
  Mo  Mo186  1  0.09567176  0.89639049  0.10255653  1
  Mo  Mo187  1  0.90684218  0.49641903  0.64041199  1
  Mo  Mo188  1  0.10336353  0.49735830  0.37637768  1
  Mo  Mo189  1  0.29865798  0.10629915  0.10803312  1
  Mo  Mo190  1  0.09323378  0.09653970  0.88187555  1
  Mo  Mo191  1  0.60814966  0.60357423  0.51205647  1
  Mo  Mo192  1  0.39617411  0.80926649  0.22969095  1
  Mo  Mo193  1  0.09615587  0.69471864  0.11024525  1
  Mo  Mo194  1  0.00570630  -0.00523463  0.50243024  1
  Mo  Mo195  1  0.00360786  0.79485078  0.24336272  1
  Mo  Mo196  1  0.49029671  0.68897074  0.87933098  1
  Mo  Mo197  1  -0.01531997  0.20752457  -0.01582051  1
  Mo  Mo198  1  0.50188992  0.09663205  0.12566166  1
  Mo  Mo199  1  0.79778671  0.19441043  0.51238769  1
