# generated using pymatgen
data_HfZrTaTiMo
_symmetry_space_group_name_H-M   'P 1'
_cell_length_a   15.21165697
_cell_length_b   15.20734223
_cell_length_c   16.82268766
_cell_angle_alpha   89.95437820
_cell_angle_beta   90.04473667
_cell_angle_gamma   90.11077302
_symmetry_Int_Tables_number   1
_chemical_formula_structural   HfZrTaTiMo
_chemical_formula_sum   'Hf40 Zr40 Ta40 Ti40 Mo40'
_cell_volume   3891.56369617
_cell_formula_units_Z   40
loop_
 _symmetry_equiv_pos_site_id
 _symmetry_equiv_pos_as_xyz
  1  'x, y, z'
loop_
 _atom_site_type_symbol
 _atom_site_label
 _atom_site_symmetry_multiplicity
 _atom_site_fract_x
 _atom_site_fract_y
 _atom_site_fract_z
 _atom_site_occupancy
  Hf  Hf0  1  0.30422686  0.50169070  0.86137997  1
  Hf  Hf1  1  0.50793875  0.48505798  0.61219110  1
  Hf  Hf2  1  0.09453168  0.30424585  0.10850499  1
  Hf  Hf3  1  0.59493890  0.59459961  0.25772765  1
  Hf  Hf4  1  0.19753636  0.41365455  -0.00978727  1
  Hf  Hf5  1  0.38606346  0.79435773  0.00571237  1
  Hf  Hf6  1  0.89087236  0.09358895  0.12685114  1
  Hf  Hf7  1  0.60612020  0.19502673  0.76246114  1
  Hf  Hf8  1  0.80323069  -0.02343183  0.51274347  1
  Hf  Hf9  1  0.59677529  0.38809265  0.75680456  1
  Hf  Hf10  1  0.61074265  -0.01343395  0.74957873  1
  Hf  Hf11  1  0.10435416  0.30368015  0.37614910  1
  Hf  Hf12  1  0.00563714  0.19237791  0.24223088  1
  Hf  Hf13  1  0.39768428  0.20459691  0.49719393  1
  Hf  Hf14  1  0.60914560  0.80431733  0.25118196  1
  Hf  Hf15  1  0.50757087  0.49921177  0.87859864  1
  Hf  Hf16  1  0.10299209  0.09333407  0.37053036  1
  Hf  Hf17  1  0.80683300  0.20348021  0.25785204  1
  Hf  Hf18  1  0.49897058  0.50975119  0.38938225  1
  Hf  Hf19  1  0.29325565  0.90520486  0.87322976  1
  Hf  Hf20  1  0.20478165  0.19979483  0.23302044  1
  Hf  Hf21  1  0.20467895  0.40437637  0.24334161  1
  Hf  Hf22  1  0.50466376  0.31090670  0.12250116  1
  Hf  Hf23  1  0.09505780  0.71736095  0.64817652  1
  Hf  Hf24  1  0.39887967  0.00421600  0.49811580  1
  Hf  Hf25  1  0.28388732  0.90238983  0.37482250  1
  Hf  Hf26  1  0.69486641  0.28934427  0.13003129  1
  Hf  Hf27  1  0.90247504  0.49921899  0.88505953  1
  Hf  Hf28  1  0.88385590  0.90241197  0.87467212  1
  Hf  Hf29  1  0.69556230  0.29345932  0.61557220  1
  Hf  Hf30  1  0.50569102  0.11099789  0.13493988  1
  Hf  Hf31  1  0.51322752  0.69449680  0.59691538  1
  Hf  Hf32  1  0.50345498  0.89191144  0.60406631  1
  Hf  Hf33  1  0.80116245  0.38344639  0.75082600  1
  Hf  Hf34  1  0.31958304  0.51954286  0.12414189  1
  Hf  Hf35  1  0.59618830  0.20292989  0.48611795  1
  Hf  Hf36  1  0.09278875  0.09785389  0.87600715  1
  Hf  Hf37  1  0.30457030  0.70916664  0.63085323  1
  Hf  Hf38  1  0.89150022  0.49858440  0.38148219  1
  Hf  Hf39  1  0.50328358  0.11123827  0.62652642  1
  Zr  Zr40  1  0.42345391  0.60886525  0.74738068  1
  Zr  Zr41  1  0.30731780  0.30642070  0.11198488  1
  Zr  Zr42  1  -0.00695661  0.39680918  0.25068955  1
  Zr  Zr43  1  0.19015285  0.00436254  0.74840231  1
  Zr  Zr44  1  0.57856051  0.79061176  0.75099634  1
  Zr  Zr45  1  -0.00014537  -0.00409449  0.50972816  1
  Zr  Zr46  1  0.19304344  0.01009280  0.51053961  1
  Zr  Zr47  1  0.89517908  0.10711656  0.88062423  1
  Zr  Zr48  1  0.49121283  0.67586956  0.12997436  1
  Zr  Zr49  1  0.29464140  0.89790034  0.62597400  1
  Zr  Zr50  1  0.79972180  0.40865885  0.24173721  1
  Zr  Zr51  1  0.70927344  0.49833871  0.61377567  1
  Zr  Zr52  1  0.80859534  0.00670518  0.73678757  1
  Zr  Zr53  1  0.19149173  -0.00401254  0.01001546  1
  Zr  Zr54  1  0.80552313  0.18737700  0.48588958  1
  Zr  Zr55  1  0.10252307  0.51662681  0.13185917  1
  Zr  Zr56  1  0.71208523  0.49875039  0.88474510  1
  Zr  Zr57  1  0.90106989  0.07290546  0.36432940  1
  Zr  Zr58  1  0.50133693  0.90441754  0.12572553  1
  Zr  Zr59  1  0.19137813  0.60222945  0.50543515  1
  Zr  Zr60  1  0.78190620  0.80252725  0.73547248  1
  Zr  Zr61  1  -0.00301096  0.60923934  0.49901588  1
  Zr  Zr62  1  -0.00710785  0.79182992  -0.00525040  1
  Zr  Zr63  1  0.40878577  0.42303877  0.25310905  1
  Zr  Zr64  1  0.29841630  0.49828745  0.63480982  1
  Zr  Zr65  1  0.29466685  0.70657172  0.85253820  1
  Zr  Zr66  1  0.60662429  0.79362734  0.01025722  1
  Zr  Zr67  1  0.71286882  0.70833284  0.88346082  1
  Zr  Zr68  1  0.62078371  0.59910647  0.74863533  1
  Zr  Zr69  1  0.29242061  0.10944488  0.36826711  1
  Zr  Zr70  1  0.50407722  0.09655294  0.36144713  1
  Zr  Zr71  1  0.50222615  0.89465380  0.88841075  1
  Zr  Zr72  1  0.39847199  0.78738358  0.25939230  1
  Zr  Zr73  1  0.39257505  0.39382451  0.49899287  1
  Zr  Zr74  1  0.40794741  -0.00144503  0.75004362  1
  Zr  Zr75  1  0.10308019  0.52445263  0.85693110  1
  Zr  Zr76  1  0.09509195  0.50105734  0.63837191  1
  Zr  Zr77  1  -0.00525085  0.39069965  0.75524024  1
  Zr  Zr78  1  0.39355513  -0.00124857  0.24622341  1
  Zr  Zr79  1  0.01113324  0.60499574  0.00100623  1
  Ta  Ta80  1  0.40773826  0.21993065  0.25571216  1
  Ta  Ta81  1  0.20026941  0.21507242  0.50600655  1
  Ta  Ta82  1  0.69868797  0.08702442  0.35834231  1
  Ta  Ta83  1  0.20168917  0.19712629  -0.00170595  1
  Ta  Ta84  1  0.10167659  0.30140618  0.62470168  1
  Ta  Ta85  1  0.50896827  0.89103792  0.38809183  1
  Ta  Ta86  1  0.71049899  0.30614176  0.37502512  1
  Ta  Ta87  1  0.09005893  0.70875509  0.35999131  1
  Ta  Ta88  1  0.70340615  0.08649309  0.88032711  1
  Ta  Ta89  1  0.18478830  0.79438844  -0.00445848  1
  Ta  Ta90  1  0.09423410  0.11486055  0.63548069  1
  Ta  Ta91  1  0.29092834  0.70283798  0.38231464  1
  Ta  Ta92  1  0.68993191  0.50086859  0.11904129  1
  Ta  Ta93  1  0.59907901  0.19276808  -0.00893178  1
  Ta  Ta94  1  0.40249849  0.60289196  -0.01199499  1
  Ta  Ta95  1  0.90241721  0.29995205  0.61088419  1
  Ta  Ta96  1  -0.00640477  -0.00955681  0.01244907  1
  Ta  Ta97  1  0.60176990  0.39632679  0.26286726  1
  Ta  Ta98  1  0.20162393  0.38692603  0.76106864  1
  Ta  Ta99  1  0.00554008  0.19949777  0.49835632  1
  Ta  Ta100  1  0.79399866  0.60962266  0.49746181  1
  Ta  Ta101  1  0.09172886  0.87671211  0.13253135  1
  Ta  Ta102  1  0.30297345  0.10639324  0.88000664  1
  Ta  Ta103  1  0.09971961  0.50787387  0.36769348  1
  Ta  Ta104  1  0.89552715  0.69806470  0.63116811  1
  Ta  Ta105  1  0.70111906  0.09857556  0.62260576  1
  Ta  Ta106  1  0.78852103  0.19325628  0.00918262  1
  Ta  Ta107  1  0.20947986  0.61749916  -0.00272039  1
  Ta  Ta108  1  0.60453007  0.38807278  -0.00829075  1
  Ta  Ta109  1  0.18661988  -0.00113667  0.23096039  1
  Ta  Ta110  1  0.80069727  0.40000115  0.01199614  1
  Ta  Ta111  1  0.17871960  0.80552744  0.49808255  1
  Ta  Ta112  1  0.80719016  0.61131578  0.01485443  1
  Ta  Ta113  1  0.39885393  0.00888758  0.00503308  1
  Ta  Ta114  1  0.71333910  0.69800277  0.36835023  1
  Ta  Ta115  1  0.28803006  0.50444721  0.37987276  1
  Ta  Ta116  1  0.29594415  0.11472058  0.63361265  1
  Ta  Ta117  1  0.29845077  0.29879398  0.63553740  1
  Ta  Ta118  1  -0.01196352  0.80325531  0.49829676  1
  Ta  Ta119  1  0.71449316  0.89550144  0.37455810  1
  Ti  Ti120  1  0.80162947  0.80604434  0.01730698  1
  Ti  Ti121  1  0.71069057  0.69893645  0.13402096  1
  Ti  Ti122  1  0.79057143  -0.00628175  0.01155060  1
  Ti  Ti123  1  0.40703197  0.40276189  -0.00773030  1
  Ti  Ti124  1  0.28217306  0.70771861  0.13287317  1
  Ti  Ti125  1  -0.00557869  -0.01434640  0.23303768  1
  Ti  Ti126  1  0.29964323  0.30937554  0.37232715  1
  Ti  Ti127  1  0.80983933  0.59272032  0.74346634  1
  Ti  Ti128  1  0.91309088  0.69734645  0.85687006  1
  Ti  Ti129  1  -0.01357175  0.20213209  0.75204662  1
  Ti  Ti130  1  0.89909985  0.29798041  0.89544978  1
  Ti  Ti131  1  0.08588632  0.89334084  0.86367216  1
  Ti  Ti132  1  0.09035915  0.29956674  0.88845997  1
  Ti  Ti133  1  0.90038648  0.49463506  0.61525808  1
  Ti  Ti134  1  0.39458782  0.60881887  0.49456227  1
  Ti  Ti135  1  0.00700328  0.39872691  0.49611726  1
  Ti  Ti136  1  0.61258682  0.40177364  0.48296436  1
  Ti  Ti137  1  0.91828891  0.70376278  0.14087910  1
  Ti  Ti138  1  0.61094190  0.00212931  0.49728602  1
  Ti  Ti139  1  0.60331205  0.59761727  0.00215187  1
  Ti  Ti140  1  -0.00106101  0.19036886  0.00762638  1
  Ti  Ti141  1  0.20576223  0.61160030  0.25603562  1
  Ti  Ti142  1  0.40487752  0.20224015  -0.00704450  1
  Ti  Ti143  1  0.29128710  0.89599794  0.12765479  1
  Ti  Ti144  1  0.30274217  0.29669669  0.87928564  1
  Ti  Ti145  1  0.19556490  0.20677341  0.76140108  1
  Ti  Ti146  1  0.80724906  0.60377893  0.24843423  1
  Ti  Ti147  1  0.79662184  -0.03037207  0.24068712  1
  Ti  Ti148  1  0.49842541  0.09868199  0.87944958  1
  Ti  Ti149  1  0.60580314  0.00227854  0.00341728  1
  Ti  Ti150  1  0.30415917  0.10241353  0.11895752  1
  Ti  Ti151  1  0.90019012  0.30111293  0.11338853  1
  Ti  Ti152  1  0.69061154  0.08979092  0.14475719  1
  Ti  Ti153  1  0.90157895  0.50426985  0.12023805  1
  Ti  Ti154  1  0.40101565  0.20453486  0.75809972  1
  Ti  Ti155  1  0.40587595  0.38555914  0.75252856  1
  Ti  Ti156  1  0.63118601  0.79390815  0.49430940  1
  Ti  Ti157  1  0.71177154  0.28713673  0.88218722  1
  Ti  Ti158  1  0.90104133  0.11079989  0.62843148  1
  Ti  Ti159  1  0.08372018  0.89816574  0.36166123  1
  Mo  Mo160  1  0.49241550  0.29672049  0.63086443  1
  Mo  Mo161  1  0.91163517  0.89123297  0.63273867  1
  Mo  Mo162  1  0.19393031  0.39629371  0.49830244  1
  Mo  Mo163  1  0.89845052  0.88068011  0.36904562  1
  Mo  Mo164  1  -0.01028387  0.80051412  0.25231280  1
  Mo  Mo165  1  0.51122839  0.49438663  0.10927830  1
  Mo  Mo166  1  0.50341431  0.70895924  0.39394526  1
  Mo  Mo167  1  0.89648255  0.89410626  0.12009328  1
  Mo  Mo168  1  0.80989409  0.39571833  0.49597614  1
  Mo  Mo169  1  0.60445617  0.20618081  0.26120046  1
  Mo  Mo170  1  0.50058056  0.69411817  0.88671577  1
  Mo  Mo171  1  0.09767432  0.09306461  0.11769483  1
  Mo  Mo172  1  0.10796493  0.70156455  0.13897604  1
  Mo  Mo173  1  0.19524824  0.80626219  0.25410271  1
  Mo  Mo174  1  0.19581653  0.80843435  0.75355796  1
  Mo  Mo175  1  0.08902864  0.90466144  0.63162447  1
  Mo  Mo176  1  0.49514902  0.29151634  0.88299444  1
  Mo  Mo177  1  0.79990619  0.79078481  0.23975493  1
  Mo  Mo178  1  -0.01625278  0.60316841  0.74402143  1
  Mo  Mo179  1  0.39222029  0.79972345  0.48486958  1
  Mo  Mo180  1  -0.00480228  0.59874978  0.25539589  1
  Mo  Mo181  1  0.70400346  0.90689887  0.88652332  1
  Mo  Mo182  1  0.40551026  0.80758471  0.74687032  1
  Mo  Mo183  1  0.90498698  0.29607147  0.38984554  1
  Mo  Mo184  1  0.60850099  0.60119609  0.48434671  1
  Mo  Mo185  1  0.50342197  0.30499315  0.36933450  1
  Mo  Mo186  1  0.39046622  0.60782757  0.27139771  1
  Mo  Mo187  1  0.60587755  -0.00658874  0.25533593  1
  Mo  Mo188  1  0.09993874  0.71314909  0.85431822  1
  Mo  Mo189  1  -0.01152663  0.81336230  0.75364590  1
  Mo  Mo190  1  0.70376116  0.69636061  0.61761118  1
  Mo  Mo191  1  0.89894099  0.70355270  0.36684429  1
  Mo  Mo192  1  0.20099730  0.59776394  0.73911593  1
  Mo  Mo193  1  -0.00596980  0.39766229  -0.00023055  1
  Mo  Mo194  1  0.80775669  0.79044424  0.50653769  1
  Mo  Mo195  1  0.70265547  0.50343359  0.37562650  1
  Mo  Mo196  1  0.70163192  0.90463046  0.12472221  1
  Mo  Mo197  1  0.69398282  0.89840116  0.61508390  1
  Mo  Mo198  1  -0.00191258  0.00691370  0.74278465  1
  Mo  Mo199  1  0.80075306  0.20693537  0.74770686  1
