# generated using pymatgen
data_HfZrTaTiMo
_symmetry_space_group_name_H-M   'P 1'
_cell_length_a   15.20193007
_cell_length_b   15.21436485
_cell_length_c   16.83794356
_cell_angle_alpha   89.94317214
_cell_angle_beta   89.98010846
_cell_angle_gamma   90.13569299
_symmetry_Int_Tables_number   1
_chemical_formula_structural   HfZrTaTiMo
_chemical_formula_sum   'Hf40 Zr40 Ta40 Ti40 Mo40'
_cell_volume   3894.39634111
_cell_formula_units_Z   40
loop_
 _symmetry_equiv_pos_site_id
 _symmetry_equiv_pos_as_xyz
  1  'x, y, z'
loop_
 _atom_site_type_symbol
 _atom_site_label
 _atom_site_symmetry_multiplicity
 _atom_site_fract_x
 _atom_site_fract_y
 _atom_site_fract_z
 _atom_site_occupancy
  Hf  Hf0  1  0.30736132  0.50977731  0.88126270  1
  Hf  Hf1  1  -0.01127477  0.59190992  0.24548967  1
  Hf  Hf2  1  0.38996521  -0.00038880  0.01055049  1
  Hf  Hf3  1  0.10254553  0.29124384  0.87908378  1
  Hf  Hf4  1  0.91747196  0.10997458  0.87297131  1
  Hf  Hf5  1  0.38839750  0.18923886  0.24203749  1
  Hf  Hf6  1  0.49426615  0.30404226  0.36572025  1
  Hf  Hf7  1  0.11971446  0.30816918  0.63333663  1
  Hf  Hf8  1  0.60076743  0.19647359  0.25859967  1
  Hf  Hf9  1  0.69776323  0.29636511  0.13338477  1
  Hf  Hf10  1  0.40188714  0.40368431  0.00920612  1
  Hf  Hf11  1  0.07667361  0.29922765  0.36053587  1
  Hf  Hf12  1  0.40755554  0.61362031  0.25418877  1
  Hf  Hf13  1  0.00641625  0.80463415  0.00224582  1
  Hf  Hf14  1  0.58684684  0.78099182  0.25348652  1
  Hf  Hf15  1  0.71494483  0.50808307  0.38216782  1
  Hf  Hf16  1  0.11113168  0.31211690  0.12512239  1
  Hf  Hf17  1  0.09059082  0.90507214  0.38213170  1
  Hf  Hf18  1  0.80889877  0.00198725  -0.00554475  1
  Hf  Hf19  1  0.00008314  0.20083703  0.01283564  1
  Hf  Hf20  1  0.69006623  0.48942680  0.63320658  1
  Hf  Hf21  1  0.00992367  0.59917318  0.74475726  1
  Hf  Hf22  1  0.20003862  0.60108503  0.48524194  1
  Hf  Hf23  1  0.91240688  0.11723195  0.37131964  1
  Hf  Hf24  1  0.80571472  0.78937147  -0.00256360  1
  Hf  Hf25  1  0.28980617  0.09782030  0.88050212  1
  Hf  Hf26  1  0.39242853  0.79255143  0.48349615  1
  Hf  Hf27  1  0.09306380  0.10682774  0.60596139  1
  Hf  Hf28  1  0.89970038  0.51027197  0.87805106  1
  Hf  Hf29  1  0.68861972  0.10887786  0.87945778  1
  Hf  Hf30  1  0.79983564  0.42155823  0.24224367  1
  Hf  Hf31  1  0.68428226  0.49170654  0.86194877  1
  Hf  Hf32  1  0.01431187  0.00882710  0.74121278  1
  Hf  Hf33  1  0.29480176  0.70624390  0.88939613  1
  Hf  Hf34  1  0.21950184  -0.00047392  0.26563111  1
  Hf  Hf35  1  0.89985093  0.70707849  0.13312219  1
  Hf  Hf36  1  0.50898262  0.49498262  0.36616302  1
  Hf  Hf37  1  0.29836008  0.50601153  0.62733479  1
  Hf  Hf38  1  0.89399003  0.68106953  0.37664413  1
  Hf  Hf39  1  -0.00442291  0.78954681  0.50078963  1
  Zr  Zr40  1  0.29597053  0.49135397  0.13447608  1
  Zr  Zr41  1  0.80676290  0.40285211  0.74457357  1
  Zr  Zr42  1  0.69162756  0.92128154  0.62642464  1
  Zr  Zr43  1  0.10910068  0.91466104  0.87837561  1
  Zr  Zr44  1  0.00756194  0.01051849  0.25371780  1
  Zr  Zr45  1  0.56694073  0.58572219  0.74668230  1
  Zr  Zr46  1  0.79565692  0.40937013  0.00023759  1
  Zr  Zr47  1  0.40142919  0.40041018  0.74963724  1
  Zr  Zr48  1  0.10668112  0.89768945  0.13672422  1
  Zr  Zr49  1  0.39299513  0.79036080  0.74684855  1
  Zr  Zr50  1  0.79471520  0.80969387  0.26516629  1
  Zr  Zr51  1  0.28831182  0.30130867  0.36128394  1
  Zr  Zr52  1  0.30050503  0.30105139  0.88746230  1
  Zr  Zr53  1  0.49152559  0.90047099  0.87860228  1
  Zr  Zr54  1  0.59751500  0.79291381  0.00119613  1
  Zr  Zr55  1  0.47827902  0.69392479  0.61835540  1
  Zr  Zr56  1  0.69437975  0.70700219  0.63235635  1
  Zr  Zr57  1  0.59683548  0.38251103  0.00577445  1
  Zr  Zr58  1  0.70927954  0.90034195  0.12255813  1
  Zr  Zr59  1  0.78156115  0.00805707  0.48101742  1
  Zr  Zr60  1  0.20499938  0.19677929  0.74627239  1
  Zr  Zr61  1  0.69681164  0.89690080  0.86962766  1
  Zr  Zr62  1  0.29633729  0.89369299  0.61588176  1
  Zr  Zr63  1  0.19582305  0.60680047  0.25104638  1
  Zr  Zr64  1  0.49682633  0.89214464  0.12845218  1
  Zr  Zr65  1  0.19076806  0.80188436  0.74741118  1
  Zr  Zr66  1  0.18824731  0.18740567  0.23648999  1
  Zr  Zr67  1  0.60013070  0.59964902  0.50220209  1
  Zr  Zr68  1  0.61059364  0.19244026  0.48971489  1
  Zr  Zr69  1  0.89089245  0.10129384  0.13333567  1
  Zr  Zr70  1  0.79621471  0.00668705  0.75198161  1
  Zr  Zr71  1  0.48899673  0.67989587  0.88655003  1
  Zr  Zr72  1  0.79733916  0.80232780  0.49631349  1
  Zr  Zr73  1  0.61900697  -0.00437822  0.25788671  1
  Zr  Zr74  1  0.90770888  0.89777749  0.86597236  1
  Zr  Zr75  1  0.70443485  0.68875510  0.86168220  1
  Zr  Zr76  1  0.92048661  0.29315953  0.64043877  1
  Zr  Zr77  1  0.80712734  0.40578147  0.51212870  1
  Zr  Zr78  1  0.81139369  0.21405110  0.49488162  1
  Zr  Zr79  1  0.09652653  0.49335918  0.37171193  1
  Ta  Ta80  1  0.50870317  0.09354853  0.61743876  1
  Ta  Ta81  1  0.90302989  0.30993118  0.13286088  1
  Ta  Ta82  1  0.79377302  0.20926131  -0.00236269  1
  Ta  Ta83  1  0.21046243  0.00165583  0.49111089  1
  Ta  Ta84  1  0.20280861  0.79605275  0.27300429  1
  Ta  Ta85  1  0.40102712  0.20110308  0.49945724  1
  Ta  Ta86  1  0.50612773  0.10167558  0.12553401  1
  Ta  Ta87  1  0.59226895  0.80464028  0.74767045  1
  Ta  Ta88  1  0.20504290  0.40044742  0.49699476  1
  Ta  Ta89  1  0.70186036  0.68152827  0.12446516  1
  Ta  Ta90  1  0.09721644  0.69761008  0.88132037  1
  Ta  Ta91  1  0.50733533  0.29347860  0.87152057  1
  Ta  Ta92  1  0.40738038  -0.00212332  0.25381144  1
  Ta  Ta93  1  0.90594930  0.70143810  0.86614300  1
  Ta  Ta94  1  0.39488341  0.39510736  0.50040079  1
  Ta  Ta95  1  0.20795648  0.21135565  0.50138595  1
  Ta  Ta96  1  0.20103543  0.60583232  0.01302732  1
  Ta  Ta97  1  0.10125114  0.49848212  0.62210662  1
  Ta  Ta98  1  0.39392657  0.59126210  0.48041478  1
  Ta  Ta99  1  0.30778824  0.10443164  0.61455335  1
  Ta  Ta100  1  -0.00087516  0.40395631  -0.00095305  1
  Ta  Ta101  1  0.59631955  0.00989159  0.00195731  1
  Ta  Ta102  1  0.59481110  0.81059513  0.49403849  1
  Ta  Ta103  1  0.50244884  0.89913703  0.37368818  1
  Ta  Ta104  1  0.11169355  0.69777393  0.61710112  1
  Ta  Ta105  1  0.30013949  0.90427902  0.87750608  1
  Ta  Ta106  1  0.09002668  0.50376609  0.11560482  1
  Ta  Ta107  1  0.50031566  0.29462661  0.62163703  1
  Ta  Ta108  1  0.19792539  0.79488107  0.48021590  1
  Ta  Ta109  1  0.10903656  0.11042374  0.39125056  1
  Ta  Ta110  1  -0.00075657  0.79736494  0.73515561  1
  Ta  Ta111  1  0.69887485  0.29528957  0.86642190  1
  Ta  Ta112  1  0.10924042  0.50122648  0.88822500  1
  Ta  Ta113  1  0.60075001  0.58176440  0.00483919  1
  Ta  Ta114  1  0.90190135  0.90387835  0.62421181  1
  Ta  Ta115  1  0.90374296  0.90316334  0.13410733  1
  Ta  Ta116  1  0.49701243  0.90375921  0.62054089  1
  Ta  Ta117  1  0.39713916  0.00586556  0.74540593  1
  Ta  Ta118  1  0.90003895  0.30203353  0.87062591  1
  Ta  Ta119  1  0.89010375  0.09851388  0.62112673  1
  Ti  Ti120  1  0.80179843  0.19740975  0.74962152  1
  Ti  Ti121  1  0.40887274  0.20003201  0.01413452  1
  Ti  Ti122  1  0.38812415  0.80238173  0.26680404  1
  Ti  Ti123  1  0.20555122  0.60040174  0.75116819  1
  Ti  Ti124  1  0.40429260  0.19514340  0.74168280  1
  Ti  Ti125  1  0.00273030  0.79600802  0.26475841  1
  Ti  Ti126  1  0.10675584  0.70355344  0.12635189  1
  Ti  Ti127  1  0.30465543  0.48900136  0.35786858  1
  Ti  Ti128  1  0.49850083  0.09577009  0.37843988  1
  Ti  Ti129  1  0.90781197  0.48024511  0.37674538  1
  Ti  Ti130  1  0.20758702  0.00251181  0.73903405  1
  Ti  Ti131  1  0.48772688  0.69194367  0.11305586  1
  Ti  Ti132  1  0.70614908  0.31139004  0.36523760  1
  Ti  Ti133  1  0.80559662  0.79885388  0.74095453  1
  Ti  Ti134  1  0.20618875  0.81036599  0.00641008  1
  Ti  Ti135  1  -0.00615661  0.60802045  0.00119913  1
  Ti  Ti136  1  -0.01311084  0.00241745  0.49676988  1
  Ti  Ti137  1  0.01618618  0.00749621  0.01013604  1
  Ti  Ti138  1  0.81175769  0.60259335  0.52499560  1
  Ti  Ti139  1  0.88650617  0.51432252  0.11259343  1
  Ti  Ti140  1  0.80107300  0.19938656  0.25701016  1
  Ti  Ti141  1  0.69958272  0.10143134  0.11856819  1
  Ti  Ti142  1  0.09849599  0.90235086  0.60844799  1
  Ti  Ti143  1  -0.00478545  0.58746997  0.50966112  1
  Ti  Ti144  1  0.30182754  0.88974844  0.13269133  1
  Ti  Ti145  1  0.60060577  0.39039685  0.49945046  1
  Ti  Ti146  1  0.81525198  0.60415918  0.73020709  1
  Ti  Ti147  1  0.00216704  0.38822590  0.50486700  1
  Ti  Ti148  1  0.50975743  0.49766755  0.13934204  1
  Ti  Ti149  1  0.40544277  -0.00026260  0.49275207  1
  Ti  Ti150  1  0.61753922  0.58896972  0.24666413  1
  Ti  Ti151  1  0.49165924  0.10563115  0.87946041  1
  Ti  Ti152  1  0.01672091  0.40265407  0.75916335  1
  Ti  Ti153  1  0.58754012  0.00675137  0.75234782  1
  Ti  Ti154  1  0.69650647  0.28782576  0.63229671  1
  Ti  Ti155  1  0.68929198  0.69945379  0.37842541  1
  Ti  Ti156  1  0.49337996  0.30298603  0.14061472  1
  Ti  Ti157  1  0.59671558  0.19527663  0.74388440  1
  Ti  Ti158  1  0.20663851  0.18698344  0.01887295  1
  Ti  Ti159  1  0.49317683  0.48839383  0.61404166  1
  Mo  Mo160  1  0.19913348  0.00085446  0.01115369  1
  Mo  Mo161  1  0.30595717  0.29318628  0.11714859  1
  Mo  Mo162  1  0.50453866  0.69611536  0.37615418  1
  Mo  Mo163  1  0.10312896  0.09583686  0.12198409  1
  Mo  Mo164  1  0.29867124  0.71160417  0.12115134  1
  Mo  Mo165  1  0.58818287  0.00020927  0.49232805  1
  Mo  Mo166  1  0.19333669  0.40412959  0.00050280  1
  Mo  Mo167  1  0.28706419  0.69279877  0.61631587  1
  Mo  Mo168  1  0.80549056  0.00382048  0.26880815  1
  Mo  Mo169  1  0.30566222  0.08639641  0.12354799  1
  Mo  Mo170  1  0.38759208  0.59763940  0.74932801  1
  Mo  Mo171  1  -0.00280728  0.40725213  0.23380972  1
  Mo  Mo172  1  -0.00108282  0.20016458  0.75374521  1
  Mo  Mo173  1  0.69586909  0.11209408  0.63195635  1
  Mo  Mo174  1  0.40354809  0.59737712  0.01688551  1
  Mo  Mo175  1  0.00574582  0.20584543  0.49973622  1
  Mo  Mo176  1  0.30949097  0.10338101  0.38975563  1
  Mo  Mo177  1  0.10956011  0.10323166  0.88426795  1
  Mo  Mo178  1  0.19455108  0.41579049  0.75394309  1
  Mo  Mo179  1  0.30559468  0.90464615  0.37826024  1
  Mo  Mo180  1  0.31058331  0.30257485  0.62132422  1
  Mo  Mo181  1  0.40153842  0.39968859  0.23882854  1
  Mo  Mo182  1  0.38718676  0.79623671  0.00751924  1
  Mo  Mo183  1  0.69613047  0.50365794  0.12173873  1
  Mo  Mo184  1  -0.00717386  0.20727790  0.23511278  1
  Mo  Mo185  1  0.90765267  0.70121274  0.62786536  1
  Mo  Mo186  1  0.91460326  0.49915665  0.62593713  1
  Mo  Mo187  1  0.69222955  0.89638068  0.37749782  1
  Mo  Mo188  1  0.09014263  0.69892285  0.37750052  1
  Mo  Mo189  1  0.49509751  0.48442320  0.88177742  1
  Mo  Mo190  1  0.60097790  0.40050462  0.24751906  1
  Mo  Mo191  1  0.29995805  0.69251564  0.37145066  1
  Mo  Mo192  1  0.59325529  0.37928028  0.74592839  1
  Mo  Mo193  1  0.89942781  0.90445773  0.37151859  1
  Mo  Mo194  1  0.70185178  0.10873718  0.36848497  1
  Mo  Mo195  1  0.59440314  0.19533438  0.00312805  1
  Mo  Mo196  1  0.19824498  0.40256272  0.24588435  1
  Mo  Mo197  1  0.89593958  0.31180422  0.35933719  1
  Mo  Mo198  1  0.79661420  0.60536609  -0.00639577  1
  Mo  Mo199  1  0.79471164  0.60910845  0.25278388  1
