# generated using pymatgen
data_HfZrTaTiMo
_symmetry_space_group_name_H-M   'P 1'
_cell_length_a   15.20319300
_cell_length_b   15.20691007
_cell_length_c   16.84603151
_cell_angle_alpha   89.98284362
_cell_angle_beta   89.99547359
_cell_angle_gamma   90.07300321
_symmetry_Int_Tables_number   1
_chemical_formula_structural   HfZrTaTiMo
_chemical_formula_sum   'Hf40 Zr40 Ta40 Ti40 Mo40'
_cell_volume   3894.69113107
_cell_formula_units_Z   40
loop_
 _symmetry_equiv_pos_site_id
 _symmetry_equiv_pos_as_xyz
  1  'x, y, z'
loop_
 _atom_site_type_symbol
 _atom_site_label
 _atom_site_symmetry_multiplicity
 _atom_site_fract_x
 _atom_site_fract_y
 _atom_site_fract_z
 _atom_site_occupancy
  Hf  Hf0  1  0.69936898  0.49517418  0.36809623  1
  Hf  Hf1  1  0.88659267  0.08971962  0.37871090  1
  Hf  Hf2  1  0.00908751  0.61661180  0.24160183  1
  Hf  Hf3  1  0.41160398  0.39518275  0.50742772  1
  Hf  Hf4  1  0.70329304  0.10663574  0.63316265  1
  Hf  Hf5  1  0.08814062  0.87860404  0.37011082  1
  Hf  Hf6  1  0.09112573  0.09105206  0.85849290  1
  Hf  Hf7  1  0.69037505  0.29887993  0.37792453  1
  Hf  Hf8  1  0.29338249  0.49467324  0.36992028  1
  Hf  Hf9  1  0.31198905  0.29677782  0.38260610  1
  Hf  Hf10  1  0.90148814  0.91578226  0.88155498  1
  Hf  Hf11  1  0.60579820  0.18245149  0.24436878  1
  Hf  Hf12  1  0.90031368  0.51579478  0.38480260  1
  Hf  Hf13  1  0.00706647  0.21620248  -0.01150113  1
  Hf  Hf14  1  -0.01210254  0.59827640  -0.00003866  1
  Hf  Hf15  1  0.01025781  0.41483435  0.51451044  1
  Hf  Hf16  1  0.30552294  0.08438689  0.62834867  1
  Hf  Hf17  1  0.80509115  0.60771511  0.24034513  1
  Hf  Hf18  1  0.11348466  0.09662230  0.63337159  1
  Hf  Hf19  1  0.60728946  0.80492519  0.49671460  1
  Hf  Hf20  1  0.71223551  0.31998352  0.88126096  1
  Hf  Hf21  1  0.38682459  0.19656615  0.77529440  1
  Hf  Hf22  1  0.19732500  0.38417527  -0.00425702  1
  Hf  Hf23  1  0.88234429  0.50450887  0.61763604  1
  Hf  Hf24  1  0.29434203  0.27885428  0.62262175  1
  Hf  Hf25  1  0.88097796  0.70476454  0.88119724  1
  Hf  Hf26  1  0.01144909  0.19663437  0.50652059  1
  Hf  Hf27  1  0.09603454  0.49278333  0.11450228  1
  Hf  Hf28  1  0.20868804  0.19349523  0.25447311  1
  Hf  Hf29  1  0.50051821  0.50706167  0.88620616  1
  Hf  Hf30  1  0.20181784  -0.00898577  0.24952963  1
  Hf  Hf31  1  -0.01009952  -0.00927461  0.25065560  1
  Hf  Hf32  1  0.60804018  -0.01291373  0.75738026  1
  Hf  Hf33  1  0.40227492  0.80348110  0.75945368  1
  Hf  Hf34  1  -0.00719408  -0.01533379  0.50183575  1
  Hf  Hf35  1  0.20062369  0.38973856  0.74368364  1
  Hf  Hf36  1  0.72307769  0.91514851  0.37462971  1
  Hf  Hf37  1  0.49831525  0.69603353  0.62660200  1
  Hf  Hf38  1  0.58083566  0.60548787  0.25764545  1
  Hf  Hf39  1  0.39542384  0.19913643  -0.02048224  1
  Zr  Zr40  1  0.60971696  0.01012068  0.49754669  1
  Zr  Zr41  1  0.29709525  0.70056930  0.63461813  1
  Zr  Zr42  1  0.61693415  0.41839089  0.75344046  1
  Zr  Zr43  1  0.80628715  0.21252039  0.25205362  1
  Zr  Zr44  1  0.29618082  0.50460626  0.63670931  1
  Zr  Zr45  1  0.49424362  0.29593614  0.10707147  1
  Zr  Zr46  1  0.38941385  0.59857490  0.49074144  1
  Zr  Zr47  1  0.19573146  0.79205164  0.49835664  1
  Zr  Zr48  1  0.20001278  0.39091941  0.24597744  1
  Zr  Zr49  1  0.78304344  0.59604348  0.74411980  1
  Zr  Zr50  1  0.49588326  0.10213305  0.63435432  1
  Zr  Zr51  1  0.50392898  0.29883225  0.63840192  1
  Zr  Zr52  1  0.30584712  0.69960614  0.88518834  1
  Zr  Zr53  1  0.49864824  0.90297811  0.62802001  1
  Zr  Zr54  1  0.09580802  0.49949841  0.87621177  1
  Zr  Zr55  1  0.90939684  0.72844910  0.37450699  1
  Zr  Zr56  1  -0.00351077  0.01037567  -0.00282995  1
  Zr  Zr57  1  0.69928287  0.71656916  0.35975471  1
  Zr  Zr58  1  0.88609334  0.49421609  0.87288236  1
  Zr  Zr59  1  0.79152789  0.80553735  0.74067190  1
  Zr  Zr60  1  0.41099010  0.80376875  0.23281883  1
  Zr  Zr61  1  -0.00879070  0.40059712  0.25273630  1
  Zr  Zr62  1  0.70358492  0.29603447  0.11253412  1
  Zr  Zr63  1  0.78968149  0.61729680  0.50054194  1
  Zr  Zr64  1  0.31187129  0.89588172  0.37409019  1
  Zr  Zr65  1  0.58013242  0.60125572  0.47980637  1
  Zr  Zr66  1  0.80829339  0.19788764  -0.01180241  1
  Zr  Zr67  1  0.30380204  0.10318804  0.11146176  1
  Zr  Zr68  1  0.50078890  0.88968344  0.89450411  1
  Zr  Zr69  1  0.19986805  0.78547529  0.23650461  1
  Zr  Zr70  1  0.60832040  0.20208707  0.76858634  1
  Zr  Zr71  1  0.09786668  0.89000988  0.10987183  1
  Zr  Zr72  1  0.40116342  0.01002411  0.23910789  1
  Zr  Zr73  1  0.90453113  0.12067216  0.12873407  1
  Zr  Zr74  1  0.89641246  0.31168073  0.39474282  1
  Zr  Zr75  1  -0.00151647  0.40634625  0.72886471  1
  Zr  Zr76  1  0.59457615  -0.02166254  0.24032362  1
  Zr  Zr77  1  0.10780866  0.09839930  0.12118925  1
  Zr  Zr78  1  0.09803616  0.68740615  0.63961926  1
  Zr  Zr79  1  0.00206579  0.81399422  0.75561318  1
  Ta  Ta80  1  0.29668013  0.49778100  0.86994218  1
  Ta  Ta81  1  0.10907641  0.30023417  0.38650732  1
  Ta  Ta82  1  0.00265968  0.20290460  0.73685453  1
  Ta  Ta83  1  0.69294058  0.71286079  0.13727016  1
  Ta  Ta84  1  0.69647805  0.52258207  0.89562964  1
  Ta  Ta85  1  0.79317687  0.40534909  0.23949516  1
  Ta  Ta86  1  0.20059544  -0.00054671  0.49500388  1
  Ta  Ta87  1  0.78544164  0.61036941  0.01911873  1
  Ta  Ta88  1  0.81282758  0.00140432  0.74490655  1
  Ta  Ta89  1  0.20580407  -0.01809133  0.76439273  1
  Ta  Ta90  1  0.40493827  0.59826244  0.76095541  1
  Ta  Ta91  1  0.50210406  0.69675210  0.11502398  1
  Ta  Ta92  1  0.19902534  0.39398688  0.51118536  1
  Ta  Ta93  1  0.59432407  0.20949978  0.49892134  1
  Ta  Ta94  1  0.30423989  0.49397862  0.12484362  1
  Ta  Ta95  1  0.50423658  0.50541076  0.63278390  1
  Ta  Ta96  1  0.10290370  0.09568217  0.37867219  1
  Ta  Ta97  1  0.68896213  0.50488626  0.12819440  1
  Ta  Ta98  1  0.09862042  0.70674531  0.88700120  1
  Ta  Ta99  1  0.40548233  0.79841594  0.49464487  1
  Ta  Ta100  1  0.70365591  0.88978415  0.88663493  1
  Ta  Ta101  1  0.49304286  0.49713952  0.12829269  1
  Ta  Ta102  1  0.70847873  0.31490750  0.61974520  1
  Ta  Ta103  1  0.09359434  0.29111026  0.12441210  1
  Ta  Ta104  1  0.58824640  0.38697602  0.24309014  1
  Ta  Ta105  1  0.91004719  0.30285705  0.86044536  1
  Ta  Ta106  1  0.18025513  0.58949358  0.50003088  1
  Ta  Ta107  1  0.40477790  0.39952881  0.76077978  1
  Ta  Ta108  1  0.09914469  0.50453063  0.37361932  1
  Ta  Ta109  1  0.29671209  0.89892026  0.62349306  1
  Ta  Ta110  1  0.50180684  0.10259133  0.37488764  1
  Ta  Ta111  1  0.79530642  0.80594517  0.01107785  1
  Ta  Ta112  1  0.60266690  0.79175440  0.75643162  1
  Ta  Ta113  1  0.01081993  0.20347765  0.26448295  1
  Ta  Ta114  1  0.78792101  0.01253896  0.23158150  1
  Ta  Ta115  1  0.41217532  0.21546216  0.25160412  1
  Ta  Ta116  1  0.89239605  0.29332200  0.61573407  1
  Ta  Ta117  1  0.20114546  0.59669402  0.23837110  1
  Ta  Ta118  1  0.50556315  0.30797253  0.88229024  1
  Ta  Ta119  1  0.78991757  0.18808793  0.50061404  1
  Ti  Ti120  1  0.89756477  0.49838105  0.12316360  1
  Ti  Ti121  1  0.79348781  0.00718117  0.01096924  1
  Ti  Ti122  1  0.60063524  0.40840820  0.00498732  1
  Ti  Ti123  1  0.39159917  0.40100337  -0.00798764  1
  Ti  Ti124  1  0.90648536  0.71573942  0.12001052  1
  Ti  Ti125  1  0.39903626  0.59630336  0.00780635  1
  Ti  Ti126  1  0.80709056  0.20597435  0.75194201  1
  Ti  Ti127  1  0.10504377  0.29713952  0.86177022  1
  Ti  Ti128  1  0.60707417  0.19039873  -0.01257462  1
  Ti  Ti129  1  0.71557232  0.08698215  0.87362117  1
  Ti  Ti130  1  0.20839029  0.59753110  0.00400692  1
  Ti  Ti131  1  0.89838109  0.70686974  0.62362908  1
  Ti  Ti132  1  0.39682647  -0.00426639  -0.00089790  1
  Ti  Ti133  1  0.90109520  0.90286465  0.11494518  1
  Ti  Ti134  1  -0.00249051  0.60532049  0.75834327  1
  Ti  Ti135  1  0.80801746  0.82120232  0.23694307  1
  Ti  Ti136  1  0.59684223  0.61060052  0.75759092  1
  Ti  Ti137  1  0.51598274  0.69791741  0.89767869  1
  Ti  Ti138  1  0.39558905  -0.00548602  0.76937454  1
  Ti  Ti139  1  0.60453523  0.40702465  0.50495425  1
  Ti  Ti140  1  0.29036152  0.69444128  0.37124705  1
  Ti  Ti141  1  0.10455815  0.89907639  0.62860882  1
  Ti  Ti142  1  0.90324115  0.09418984  0.62642817  1
  Ti  Ti143  1  0.30230061  0.09920259  0.38107529  1
  Ti  Ti144  1  0.50667287  0.09740295  0.11032562  1
  Ti  Ti145  1  -0.00265811  0.79077817  0.51097634  1
  Ti  Ti146  1  0.38885726  0.80166296  0.01775562  1
  Ti  Ti147  1  0.81257752  0.40598177  0.01045309  1
  Ti  Ti148  1  0.49034685  0.47329320  0.36079952  1
  Ti  Ti149  1  0.20303504  0.19027640  -0.02059067  1
  Ti  Ti150  1  0.20707898  -0.01475084  -0.01831342  1
  Ti  Ti151  1  0.20189485  0.79824313  0.76282834  1
  Ti  Ti152  1  0.40604716  -0.00680346  0.49356072  1
  Ti  Ti153  1  0.10296967  0.70024334  0.10278692  1
  Ti  Ti154  1  0.60872560  -0.00811802  0.01015992  1
  Ti  Ti155  1  0.50844561  0.08989499  0.88153847  1
  Ti  Ti156  1  0.39034726  0.60212572  0.24649223  1
  Ti  Ti157  1  0.69271025  0.70017690  0.62128594  1
  Ti  Ti158  1  0.40484384  0.18922543  0.49682177  1
  Ti  Ti159  1  0.29985516  0.29817830  0.12291561  1
  Mo  Mo160  1  -0.00728354  0.79771102  -0.00768007  1
  Mo  Mo161  1  0.89701027  0.10979277  0.85616157  1
  Mo  Mo162  1  0.20172496  0.79423106  0.00322717  1
  Mo  Mo163  1  0.09925268  0.50541965  0.63329513  1
  Mo  Mo164  1  0.79243608  0.39842590  0.50074043  1
  Mo  Mo165  1  0.29654959  0.30570098  0.87374535  1
  Mo  Mo166  1  0.91176041  0.31526545  0.12543029  1
  Mo  Mo167  1  -0.00612740  0.39428277  -0.00081119  1
  Mo  Mo168  1  0.10360909  0.68739444  0.37297148  1
  Mo  Mo169  1  0.29978337  0.89363341  0.88419982  1
  Mo  Mo170  1  0.68476207  0.50908613  0.61678173  1
  Mo  Mo171  1  0.10332383  0.89160484  0.88176575  1
  Mo  Mo172  1  0.50572110  0.89497043  0.37855427  1
  Mo  Mo173  1  0.40142423  0.40150633  0.24345228  1
  Mo  Mo174  1  0.50194221  0.29439760  0.37593021  1
  Mo  Mo175  1  0.70739167  0.90116552  0.11914153  1
  Mo  Mo176  1  0.00268580  0.61005669  0.50261766  1
  Mo  Mo177  1  0.80804491  0.82212493  0.51900933  1
  Mo  Mo178  1  0.79954593  0.39274418  0.74428513  1
  Mo  Mo179  1  0.80246742  -0.00141875  0.51662000  1
  Mo  Mo180  1  0.60260056  0.80078727  0.24507810  1
  Mo  Mo181  1  0.20615813  0.19000036  0.49083412  1
  Mo  Mo182  1  0.10263047  0.29329547  0.61965577  1
  Mo  Mo183  1  0.00070830  -0.00117876  0.74002105  1
  Mo  Mo184  1  0.29764160  0.90084156  0.10951649  1
  Mo  Mo185  1  0.50246236  0.89739534  0.10324704  1
  Mo  Mo186  1  -0.00485688  0.79872866  0.23495856  1
  Mo  Mo187  1  0.60446674  0.79661411  0.01035381  1
  Mo  Mo188  1  0.69585319  0.09919266  0.11322738  1
  Mo  Mo189  1  0.19502519  0.60160873  0.76838320  1
  Mo  Mo190  1  0.59587169  0.59896181  0.01633492  1
  Mo  Mo191  1  0.90704823  0.90201909  0.62797384  1
  Mo  Mo192  1  0.69621544  0.10545013  0.37808218  1
  Mo  Mo193  1  0.19811781  0.19276783  0.75907520  1
  Mo  Mo194  1  0.70565628  0.89874752  0.62632427  1
  Mo  Mo195  1  0.30086572  0.68589864  0.11532119  1
  Mo  Mo196  1  0.29713007  0.08874979  0.87961591  1
  Mo  Mo197  1  0.48145500  0.72146981  0.36747026  1
  Mo  Mo198  1  0.89730250  0.90255602  0.36966491  1
  Mo  Mo199  1  0.69038647  0.70502366  0.88446060  1
