# generated using pymatgen
data_HfZrTaTiMo
_symmetry_space_group_name_H-M   'P 1'
_cell_length_a   15.22285149
_cell_length_b   15.20889939
_cell_length_c   16.79028044
_cell_angle_alpha   90.00138995
_cell_angle_beta   90.03095354
_cell_angle_gamma   90.08146158
_symmetry_Int_Tables_number   1
_chemical_formula_structural   HfZrTaTiMo
_chemical_formula_sum   'Hf40 Zr40 Ta40 Ti40 Mo40'
_cell_volume   3887.32852499
_cell_formula_units_Z   40
loop_
 _symmetry_equiv_pos_site_id
 _symmetry_equiv_pos_as_xyz
  1  'x, y, z'
loop_
 _atom_site_type_symbol
 _atom_site_label
 _atom_site_symmetry_multiplicity
 _atom_site_fract_x
 _atom_site_fract_y
 _atom_site_fract_z
 _atom_site_occupancy
  Hf  Hf0  1  0.10900049  0.72333881  0.87331552  1
  Hf  Hf1  1  0.91016467  0.49556209  0.61787786  1
  Hf  Hf2  1  0.39173851  0.20276442  0.74004871  1
  Hf  Hf3  1  0.48991156  0.90504501  0.85204616  1
  Hf  Hf4  1  0.00079904  0.20759366  0.00337485  1
  Hf  Hf5  1  0.81400221  0.59422472  0.74362883  1
  Hf  Hf6  1  0.10304745  0.29665128  0.38723602  1
  Hf  Hf7  1  0.68702461  0.28715064  0.13064923  1
  Hf  Hf8  1  0.91970677  0.69932807  0.61977410  1
  Hf  Hf9  1  0.71788792  0.48745244  0.36493096  1
  Hf  Hf10  1  -0.00567732  0.41097253  0.00851592  1
  Hf  Hf11  1  0.61060885  0.60365855  0.26296033  1
  Hf  Hf12  1  0.40411338  0.82497437  0.00748506  1
  Hf  Hf13  1  0.58878639  0.39298436  0.26277884  1
  Hf  Hf14  1  0.59120724  0.39103834  -0.00063937  1
  Hf  Hf15  1  0.39303707  0.00342613  0.72825819  1
  Hf  Hf16  1  0.48063766  0.08927131  0.12925734  1
  Hf  Hf17  1  0.30373062  0.90905538  0.39150300  1
  Hf  Hf18  1  0.30921861  0.71072495  0.13933935  1
  Hf  Hf19  1  0.41566631  0.80303682  0.51164909  1
  Hf  Hf20  1  0.09884581  0.29560886  0.86569277  1
  Hf  Hf21  1  0.87600414  0.30035443  0.36153175  1
  Hf  Hf22  1  0.30119491  0.29377266  0.39589716  1
  Hf  Hf23  1  0.51062982  0.71451030  0.14062397  1
  Hf  Hf24  1  0.19503474  0.37794009  0.02049133  1
  Hf  Hf25  1  0.72166976  0.69454519  0.87428532  1
  Hf  Hf26  1  0.58137260  0.19204718  0.48413710  1
  Hf  Hf27  1  0.29646758  0.09362980  0.87601132  1
  Hf  Hf28  1  0.70968670  0.71016280  0.62141305  1
  Hf  Hf29  1  -0.02704783  0.19147345  0.48508842  1
  Hf  Hf30  1  0.61515897  0.59071251  0.75708398  1
  Hf  Hf31  1  -0.00073378  0.18770634  0.26069469  1
  Hf  Hf32  1  0.58991132  0.39257988  0.75837739  1
  Hf  Hf33  1  0.31599330  0.70877303  0.86294537  1
  Hf  Hf34  1  0.81608865  0.80368796  0.75177103  1
  Hf  Hf35  1  0.60517650  0.38802554  0.48186306  1
  Hf  Hf36  1  0.81703538  0.60493273  0.48826735  1
  Hf  Hf37  1  0.20743559  0.60721750  0.49580563  1
  Hf  Hf38  1  0.20701808  0.20601088  0.24756256  1
  Hf  Hf39  1  0.79445609  -0.00671967  -0.00431346  1
  Zr  Zr40  1  0.40460279  0.40431597  0.49550770  1
  Zr  Zr41  1  0.40377531  0.58538786  0.26121906  1
  Zr  Zr42  1  0.27957188  0.10304277  0.40239341  1
  Zr  Zr43  1  0.18128536  -0.00941452  0.72998732  1
  Zr  Zr44  1  0.01064438  0.81544533  0.01006922  1
  Zr  Zr45  1  0.30158031  0.49262305  0.88608098  1
  Zr  Zr46  1  0.60446956  0.80007740  -0.00556249  1
  Zr  Zr47  1  0.40564158  0.58694194  0.75405473  1
  Zr  Zr48  1  0.00630212  0.80920667  0.25483697  1
  Zr  Zr49  1  0.59809551  -0.00675879  0.49297942  1
  Zr  Zr50  1  0.07789112  0.30031092  0.61723430  1
  Zr  Zr51  1  0.70460304  0.49655020  0.13206872  1
  Zr  Zr52  1  0.70228250  0.29218511  0.87862027  1
  Zr  Zr53  1  0.50855828  0.70053566  0.63486370  1
  Zr  Zr54  1  0.90323862  0.91013350  0.61812776  1
  Zr  Zr55  1  0.59156500  0.00467681  0.25303411  1
  Zr  Zr56  1  0.20911260  0.61114564  -0.00243566  1
  Zr  Zr57  1  0.31138788  0.71494679  0.36571127  1
  Zr  Zr58  1  0.20469000  0.40926860  0.24228420  1
  Zr  Zr59  1  0.00114038  0.79089399  0.48858877  1
  Zr  Zr60  1  0.89596831  0.29971632  0.87279212  1
  Zr  Zr61  1  0.29056747  0.29496021  0.87295561  1
  Zr  Zr62  1  0.80099625  0.00673476  0.49455366  1
  Zr  Zr63  1  0.69678896  0.09251935  0.63097866  1
  Zr  Zr64  1  0.49422343  0.49773185  0.12181158  1
  Zr  Zr65  1  0.00389807  -0.00197420  0.25558102  1
  Zr  Zr66  1  0.81168845  0.79712543  0.00267884  1
  Zr  Zr67  1  0.58839101  0.18390444  -0.01165304  1
  Zr  Zr68  1  0.90998612  0.68987103  0.13383412  1
  Zr  Zr69  1  -0.00421827  0.40670204  0.74884555  1
  Zr  Zr70  1  0.11491466  0.70879681  0.13794333  1
  Zr  Zr71  1  0.89781033  0.51054726  0.87888775  1
  Zr  Zr72  1  0.28232343  0.89611523  0.86160373  1
  Zr  Zr73  1  0.09757313  0.51514506  0.12321869  1
  Zr  Zr74  1  0.50785950  0.49387888  0.62024521  1
  Zr  Zr75  1  0.60536290  0.60123044  0.48444758  1
  Zr  Zr76  1  0.89314073  0.29201019  0.13489074  1
  Zr  Zr77  1  0.10435559  0.10795954  0.11466978  1
  Zr  Zr78  1  0.58639431  -0.00829198  -0.00342631  1
  Zr  Zr79  1  0.60185381  0.60283485  -0.00482817  1
  Ta  Ta80  1  0.09956663  0.09426238  0.88050358  1
  Ta  Ta81  1  0.48407468  0.28663166  0.13131136  1
  Ta  Ta82  1  0.40758507  0.60306663  0.48815729  1
  Ta  Ta83  1  0.29124118  0.30385888  0.61499487  1
  Ta  Ta84  1  0.90727919  0.49414650  0.36034845  1
  Ta  Ta85  1  0.18256647  0.19387386  0.73227519  1
  Ta  Ta86  1  0.01238412  0.61780074  0.75671626  1
  Ta  Ta87  1  0.19939495  0.59866746  0.75072726  1
  Ta  Ta88  1  0.89805493  0.11291104  0.63270711  1
  Ta  Ta89  1  0.52519157  0.90065006  0.64171876  1
  Ta  Ta90  1  0.80572181  0.80205610  0.24416413  1
  Ta  Ta91  1  0.91402909  0.90197464  0.86930082  1
  Ta  Ta92  1  0.78741865  0.40054701  0.74303184  1
  Ta  Ta93  1  0.49350031  0.90298656  0.36802099  1
  Ta  Ta94  1  0.39480091  0.37708888  0.25654944  1
  Ta  Ta95  1  0.11121960  0.91053315  0.39325725  1
  Ta  Ta96  1  0.59460300  0.18723771  0.76464836  1
  Ta  Ta97  1  0.10210274  0.51526756  0.62462230  1
  Ta  Ta98  1  0.01578986  0.59137584  0.47711339  1
  Ta  Ta99  1  0.20156673  0.40403195  0.73807097  1
  Ta  Ta100  1  0.80357679  -0.00433671  0.24790995  1
  Ta  Ta101  1  0.80190105  0.39186953  0.50137593  1
  Ta  Ta102  1  0.51312680  0.71702069  0.36755048  1
  Ta  Ta103  1  0.00891887  0.39198568  0.25029730  1
  Ta  Ta104  1  0.89152358  0.89350366  0.38080859  1
  Ta  Ta105  1  0.40772577  0.00604893  0.51823553  1
  Ta  Ta106  1  0.69808652  0.89465395  0.36393382  1
  Ta  Ta107  1  0.69500334  0.89437999  0.13465275  1
  Ta  Ta108  1  0.70900265  0.69695605  0.13400247  1
  Ta  Ta109  1  0.79552831  0.18586974  0.00113943  1
  Ta  Ta110  1  0.08349650  0.08991209  0.60441466  1
  Ta  Ta111  1  0.70618901  0.49308403  0.61534381  1
  Ta  Ta112  1  0.10469127  0.50239235  0.87634348  1
  Ta  Ta113  1  0.11837054  0.70646649  0.36595606  1
  Ta  Ta114  1  0.01630530  0.59549377  0.26911000  1
  Ta  Ta115  1  0.39308787  0.39589789  0.74293026  1
  Ta  Ta116  1  0.30352222  0.69621200  0.63076721  1
  Ta  Ta117  1  0.70592247  0.49072136  0.88431347  1
  Ta  Ta118  1  0.89731009  0.49879916  0.14939186  1
  Ta  Ta119  1  0.69003636  0.29553035  0.62892217  1
  Ti  Ti120  1  0.38936727  0.19509871  -0.00081506  1
  Ti  Ti121  1  0.02107837  0.81765744  0.74352325  1
  Ti  Ti122  1  -0.00316369  0.00039638  0.00080872  1
  Ti  Ti123  1  0.69652853  0.90044482  0.86147315  1
  Ti  Ti124  1  -0.00437092  0.01108690  0.75034040  1
  Ti  Ti125  1  0.70033692  0.10084949  0.36910637  1
  Ti  Ti126  1  0.79875648  0.19773200  0.75373478  1
  Ti  Ti127  1  0.18968567  0.41279091  0.50583594  1
  Ti  Ti128  1  0.29427921  0.09266036  0.11391421  1
  Ti  Ti129  1  0.78527443  0.18825889  0.24910678  1
  Ti  Ti130  1  0.50542212  0.10393257  0.62917530  1
  Ti  Ti131  1  0.80860549  0.59208717  0.00710323  1
  Ti  Ti132  1  -0.00082919  0.61487617  -0.01007113  1
  Ti  Ti133  1  0.77919833  0.20587617  0.49668671  1
  Ti  Ti134  1  0.20885160  0.82133142  0.00955932  1
  Ti  Ti135  1  0.30496063  0.50313129  0.12260242  1
  Ti  Ti136  1  0.11381892  0.70918471  0.62285239  1
  Ti  Ti137  1  0.11389882  0.91616826  0.12689685  1
  Ti  Ti138  1  0.28892217  0.10690453  0.60927745  1
  Ti  Ti139  1  0.20015241  0.01222916  0.25748076  1
  Ti  Ti140  1  0.88136536  0.29678517  0.62757498  1
  Ti  Ti141  1  0.29402949  0.50009126  0.37485804  1
  Ti  Ti142  1  0.50971389  0.71031575  0.85790891  1
  Ti  Ti143  1  0.30071801  0.50400390  0.62156744  1
  Ti  Ti144  1  0.69421555  0.09377437  0.12695717  1
  Ti  Ti145  1  0.79937515  0.39333877  0.01115911  1
  Ti  Ti146  1  0.49591829  0.49818415  0.88366980  1
  Ti  Ti147  1  0.21261644  0.82659614  0.24979475  1
  Ti  Ti148  1  0.28998612  0.88621346  0.61937924  1
  Ti  Ti149  1  0.40872769  0.61544769  -0.00254370  1
  Ti  Ti150  1  0.79672056  0.00326591  0.75571959  1
  Ti  Ti151  1  0.72004887  0.71301779  0.37103353  1
  Ti  Ti152  1  0.57481362  0.19804182  0.26901653  1
  Ti  Ti153  1  0.89976034  0.10054021  0.87311879  1
  Ti  Ti154  1  0.61584876  0.80619408  0.49799516  1
  Ti  Ti155  1  0.48338765  0.29435201  0.87573216  1
  Ti  Ti156  1  0.49842527  0.29457224  0.62452227  1
  Ti  Ti157  1  0.39589206  0.39062748  0.00945597  1
  Ti  Ti158  1  0.89208173  0.08803562  0.12282552  1
  Ti  Ti159  1  -0.00640475  0.40450730  0.48899197  1
  Mo  Mo160  1  0.49582801  0.50260252  0.37453001  1
  Mo  Mo161  1  0.79420095  0.80190442  0.49295550  1
  Mo  Mo162  1  0.09598956  0.89390577  0.60674220  1
  Mo  Mo163  1  -0.00351214  0.18688413  0.74830455  1
  Mo  Mo164  1  0.37937002  0.00726264  0.25768476  1
  Mo  Mo165  1  0.70621466  0.09066581  0.86681791  1
  Mo  Mo166  1  0.09698719  0.30098591  0.13249129  1
  Mo  Mo167  1  0.30338618  0.91986065  0.13154004  1
  Mo  Mo168  1  0.48851186  0.10241689  0.86693179  1
  Mo  Mo169  1  0.19557540  0.79070833  0.73794026  1
  Mo  Mo170  1  0.61006337  0.80502623  0.25424402  1
  Mo  Mo171  1  0.48703520  0.29025121  0.37264748  1
  Mo  Mo172  1  0.79846131  0.39193280  0.24178061  1
  Mo  Mo173  1  0.19618582  -0.00747774  -0.00152644  1
  Mo  Mo174  1  0.47154594  0.09133590  0.37583239  1
  Mo  Mo175  1  0.19732300  -0.00672044  0.51975538  1
  Mo  Mo176  1  0.40191495  0.80009740  0.73070136  1
  Mo  Mo177  1  0.81092382  0.60487865  0.26123760  1
  Mo  Mo178  1  0.18525786  0.20673824  0.52039777  1
  Mo  Mo179  1  0.09550180  0.09534146  0.39165074  1
  Mo  Mo180  1  0.09334679  0.91523440  0.87377819  1
  Mo  Mo181  1  0.10801753  0.49435011  0.37616253  1
  Mo  Mo182  1  0.20652561  0.60542607  0.25635728  1
  Mo  Mo183  1  -0.00558488  0.00147141  0.48676294  1
  Mo  Mo184  1  0.88338076  0.09419763  0.36596348  1
  Mo  Mo185  1  0.60479995  0.00410446  0.75562252  1
  Mo  Mo186  1  0.39089769  0.18733892  0.25532895  1
  Mo  Mo187  1  0.20623289  0.79605281  0.50494895  1
  Mo  Mo188  1  0.89782686  0.90955479  0.12602187  1
  Mo  Mo189  1  0.40729829  0.81837914  0.25028881  1
  Mo  Mo190  1  0.69566769  0.28562824  0.36524603  1
  Mo  Mo191  1  0.61317752  0.79946039  0.75815287  1
  Mo  Mo192  1  0.19963952  0.19188907  0.00011758  1
  Mo  Mo193  1  0.90569623  0.69821697  0.36476726  1
  Mo  Mo194  1  0.30771646  0.28523841  0.12399278  1
  Mo  Mo195  1  0.49039454  0.90100838  0.14031048  1
  Mo  Mo196  1  0.91597160  0.70907091  0.87078862  1
  Mo  Mo197  1  0.70316670  0.89625351  0.63425712  1
  Mo  Mo198  1  0.39434871  0.00424287  -0.00444200  1
  Mo  Mo199  1  0.39895754  0.19799092  0.52103257  1
