# generated using pymatgen
data_HfZrTaTiMo
_symmetry_space_group_name_H-M   'P 1'
_cell_length_a   15.21635616
_cell_length_b   15.21523319
_cell_length_c   16.84357601
_cell_angle_alpha   90.00468801
_cell_angle_beta   89.96398645
_cell_angle_gamma   90.07595346
_symmetry_Int_Tables_number   1
_chemical_formula_structural   HfZrTaTiMo
_chemical_formula_sum   'Hf40 Zr40 Ta40 Ti40 Mo40'
_cell_volume   3899.62736843
_cell_formula_units_Z   40
loop_
 _symmetry_equiv_pos_site_id
 _symmetry_equiv_pos_as_xyz
  1  'x, y, z'
loop_
 _atom_site_type_symbol
 _atom_site_label
 _atom_site_symmetry_multiplicity
 _atom_site_fract_x
 _atom_site_fract_y
 _atom_site_fract_z
 _atom_site_occupancy
  Hf  Hf0  1  0.59877102  0.39529427  0.50229049  1
  Hf  Hf1  1  0.39844522  0.60812490  0.25152433  1
  Hf  Hf2  1  0.69367880  0.49546157  0.88105221  1
  Hf  Hf3  1  0.40807954  0.80970114  0.24119318  1
  Hf  Hf4  1  0.40319733  0.19643458  0.48322232  1
  Hf  Hf5  1  0.71341046  0.86543562  0.13396036  1
  Hf  Hf6  1  0.30055571  0.69739323  0.87166479  1
  Hf  Hf7  1  0.30351610  0.92554733  0.36840657  1
  Hf  Hf8  1  0.92121321  0.90014734  0.13677326  1
  Hf  Hf9  1  0.28943436  0.10999420  0.10717125  1
  Hf  Hf10  1  0.38723005  0.18184991  0.25717541  1
  Hf  Hf11  1  0.30035677  0.31275356  0.13809090  1
  Hf  Hf12  1  0.29511038  0.71745111  0.37779501  1
  Hf  Hf13  1  0.21205136  0.40970131  0.00049320  1
  Hf  Hf14  1  0.20533200  0.80858392  0.51522313  1
  Hf  Hf15  1  0.90690881  0.10680583  0.13029288  1
  Hf  Hf16  1  0.20011042  0.01179675  0.73070814  1
  Hf  Hf17  1  -0.00356305  0.61148419  0.74272212  1
  Hf  Hf18  1  0.58229009  -0.01771417  0.22814708  1
  Hf  Hf19  1  0.10961086  0.72389750  0.12779939  1
  Hf  Hf20  1  0.50410066  0.70935861  0.62895226  1
  Hf  Hf21  1  0.49690524  0.29865510  0.14503573  1
  Hf  Hf22  1  0.90333851  0.10730381  0.61242240  1
  Hf  Hf23  1  0.19765574  0.80431936  0.72925406  1
  Hf  Hf24  1  0.80358061  0.39574950  0.74787442  1
  Hf  Hf25  1  0.69934657  0.29559514  0.88708763  1
  Hf  Hf26  1  -0.00453907  0.40775920  0.25801665  1
  Hf  Hf27  1  0.18321850  0.60128264  0.50647566  1
  Hf  Hf28  1  0.70146314  0.69768077  0.87185311  1
  Hf  Hf29  1  0.80177934  0.78275426  0.49826172  1
  Hf  Hf30  1  0.21132191  0.60039152  0.73121044  1
  Hf  Hf31  1  0.09720231  0.50712868  0.12584062  1
  Hf  Hf32  1  0.10042103  0.31084034  0.84749220  1
  Hf  Hf33  1  0.60245560  0.19175227  0.01357849  1
  Hf  Hf34  1  0.48428278  0.50641377  0.62899837  1
  Hf  Hf35  1  0.70849108  0.69652575  0.63591429  1
  Hf  Hf36  1  0.60193959  -0.00877991  0.02543063  1
  Hf  Hf37  1  0.80407845  -0.00421223  0.00595707  1
  Hf  Hf38  1  0.70393694  0.29431334  0.12931317  1
  Hf  Hf39  1  0.78981434  -0.00716379  0.49104001  1
  Zr  Zr40  1  0.49940177  0.08810527  0.62331511  1
  Zr  Zr41  1  0.50012779  0.29280734  0.62171652  1
  Zr  Zr42  1  0.40573567  -0.00123726  0.75806176  1
  Zr  Zr43  1  0.81183846  0.79749386  0.75806251  1
  Zr  Zr44  1  0.28639483  0.50261434  0.37405993  1
  Zr  Zr45  1  0.50730301  0.49573346  0.36395835  1
  Zr  Zr46  1  0.79591298  0.60388976  0.00713937  1
  Zr  Zr47  1  0.18313505  0.01061395  0.23620270  1
  Zr  Zr48  1  0.69309173  0.87502594  0.35519162  1
  Zr  Zr49  1  0.00981347  0.78992508  0.50766287  1
  Zr  Zr50  1  0.28897583  0.10416246  0.88743528  1
  Zr  Zr51  1  0.29452854  0.90196078  0.89238721  1
  Zr  Zr52  1  0.80323229  0.60014386  0.23357627  1
  Zr  Zr53  1  0.89437256  0.68943055  0.37113597  1
  Zr  Zr54  1  0.79637267  0.00263514  0.75669629  1
  Zr  Zr55  1  0.80210352  0.40352934  0.24347082  1
  Zr  Zr56  1  0.89266803  0.90132722  0.61967768  1
  Zr  Zr57  1  0.60586187  0.79962462  0.50207764  1
  Zr  Zr58  1  0.59784894  0.38803339  0.74616460  1
  Zr  Zr59  1  0.40041487  0.58062362  0.01025829  1
  Zr  Zr60  1  0.40467431  0.79708725  0.75366117  1
  Zr  Zr61  1  0.20861613  0.20511785  0.51488038  1
  Zr  Zr62  1  0.71332638  0.51365588  0.38127078  1
  Zr  Zr63  1  0.50501530  0.89314953  0.89462828  1
  Zr  Zr64  1  0.80309880  0.19503144  0.75071052  1
  Zr  Zr65  1  0.60286821  0.18479131  0.76022208  1
  Zr  Zr66  1  0.68957578  0.09600860  0.37295259  1
  Zr  Zr67  1  0.18464144  0.21606806  -0.00758174  1
  Zr  Zr68  1  0.39904425  0.20030096  0.75953616  1
  Zr  Zr69  1  0.90404794  0.49841262  0.87863625  1
  Zr  Zr70  1  0.28061779  0.88366107  0.11253134  1
  Zr  Zr71  1  0.38981460  0.39765585  0.49165386  1
  Zr  Zr72  1  0.10379096  0.50968457  0.86921272  1
  Zr  Zr73  1  0.20367806  0.61707327  0.00533758  1
  Zr  Zr74  1  0.68868456  0.30313632  0.36587619  1
  Zr  Zr75  1  0.07709663  0.10387576  0.86121981  1
  Zr  Zr76  1  0.00683766  0.40642226  0.50020452  1
  Zr  Zr77  1  0.48633855  0.48746213  0.86486890  1
  Zr  Zr78  1  0.00985728  0.19518847  0.25841200  1
  Zr  Zr79  1  0.79957845  0.00348933  0.25014692  1
  Ta  Ta80  1  0.57935660  0.39382564  0.00468949  1
  Ta  Ta81  1  0.11411527  0.09925494  0.38307330  1
  Ta  Ta82  1  0.29518069  0.31648372  0.64336927  1
  Ta  Ta83  1  0.90718371  0.09901344  0.38442826  1
  Ta  Ta84  1  0.58291217  -0.01151128  0.49315511  1
  Ta  Ta85  1  0.40025767  0.78312760  0.01202623  1
  Ta  Ta86  1  -0.00223152  0.61787961  -0.00126295  1
  Ta  Ta87  1  0.00716557  0.20247084  0.49522427  1
  Ta  Ta88  1  0.32057574  0.90686871  0.62196026  1
  Ta  Ta89  1  0.51441872  0.70854463  0.37021666  1
  Ta  Ta90  1  0.40216468  0.22357150  -0.00495404  1
  Ta  Ta91  1  0.80075737  0.59463533  0.75191286  1
  Ta  Ta92  1  0.80497172  0.20108345  0.25652415  1
  Ta  Ta93  1  0.40552567  0.61130589  0.49140387  1
  Ta  Ta94  1  0.80414499  0.40405058  0.50392809  1
  Ta  Ta95  1  0.79878491  0.20582396  0.49509564  1
  Ta  Ta96  1  0.61011977  0.78313382  0.00431392  1
  Ta  Ta97  1  0.10770799  0.89984030  0.37921785  1
  Ta  Ta98  1  0.20037975  0.00784594  0.51790218  1
  Ta  Ta99  1  0.69860265  0.49919096  0.62300784  1
  Ta  Ta100  1  0.41360692  0.81601767  0.49546519  1
  Ta  Ta101  1  0.80334959  0.39179976  0.00539249  1
  Ta  Ta102  1  0.90879313  0.29055593  0.87689016  1
  Ta  Ta103  1  0.09882671  0.29708909  0.13109575  1
  Ta  Ta104  1  0.91823500  0.90519025  0.87337078  1
  Ta  Ta105  1  0.89785365  0.30179950  0.38139398  1
  Ta  Ta106  1  0.30603167  0.31856292  0.85964262  1
  Ta  Ta107  1  0.01697455  0.80168442  0.26076151  1
  Ta  Ta108  1  0.90871313  0.89978415  0.37062349  1
  Ta  Ta109  1  0.49671743  0.48898914  0.14259563  1
  Ta  Ta110  1  0.69706173  0.09792655  0.61206869  1
  Ta  Ta111  1  0.51228384  0.69484546  0.12742793  1
  Ta  Ta112  1  0.49669477  0.09553722  0.89841796  1
  Ta  Ta113  1  0.09197035  0.29314707  0.64442107  1
  Ta  Ta114  1  0.00711708  0.80681522  0.73668262  1
  Ta  Ta115  1  0.39283658  0.00567645  0.50076985  1
  Ta  Ta116  1  0.90584184  0.70868770  0.13052917  1
  Ta  Ta117  1  0.00655746  0.39505701  0.00076103  1
  Ta  Ta118  1  0.10721994  0.30450030  0.37597916  1
  Ta  Ta119  1  0.18987403  0.40586613  0.25454269  1
  Ti  Ti120  1  -0.00249522  0.00623064  -0.00195492  1
  Ti  Ti121  1  0.01222359  0.81166102  -0.00294209  1
  Ti  Ti122  1  0.82105838  0.79373162  -0.00937993  1
  Ti  Ti123  1  0.10322251  0.90400588  0.86773456  1
  Ti  Ti124  1  0.09484467  0.71480971  0.87241174  1
  Ti  Ti125  1  -0.01255296  0.59754144  0.50374403  1
  Ti  Ti126  1  0.59804601  0.19115344  0.49159921  1
  Ti  Ti127  1  0.90326007  0.30260089  0.62291244  1
  Ti  Ti128  1  -0.00216130  0.00256541  0.73732676  1
  Ti  Ti129  1  0.17614335  -0.00173171  0.00761676  1
  Ti  Ti130  1  0.39626091  -0.00116863  0.21886479  1
  Ti  Ti131  1  0.60071310  0.17644409  0.23712878  1
  Ti  Ti132  1  0.70514400  0.89690717  0.88399926  1
  Ti  Ti133  1  0.70529968  0.29203346  0.61774365  1
  Ti  Ti134  1  0.68415781  0.90553835  0.62990221  1
  Ti  Ti135  1  0.29137468  0.29453097  0.36260932  1
  Ti  Ti136  1  0.09945668  0.48860950  0.63612873  1
  Ti  Ti137  1  0.70012257  0.09014290  0.88590725  1
  Ti  Ti138  1  0.29834377  0.50435965  0.14289392  1
  Ti  Ti139  1  0.60202329  0.80738539  0.75740807  1
  Ti  Ti140  1  0.90632270  0.50047649  0.11162853  1
  Ti  Ti141  1  0.89531579  0.50368450  0.62648716  1
  Ti  Ti142  1  0.00541122  0.60109135  0.25810385  1
  Ti  Ti143  1  0.50092227  0.69084864  0.87667039  1
  Ti  Ti144  1  0.01034833  -0.00163315  0.50199803  1
  Ti  Ti145  1  0.68824012  0.49321917  0.11756325  1
  Ti  Ti146  1  0.60079749  -0.00446395  0.75891959  1
  Ti  Ti147  1  0.48662570  0.07306999  0.36576189  1
  Ti  Ti148  1  0.59268242  0.59256042  0.00449890  1
  Ti  Ti149  1  0.31449317  0.69285973  0.61517222  1
  Ti  Ti150  1  0.60942892  0.60262031  0.24440202  1
  Ti  Ti151  1  0.29935418  0.50123014  0.86206166  1
  Ti  Ti152  1  0.49954791  0.29749051  0.35044945  1
  Ti  Ti153  1  0.19099869  0.61707620  0.25527313  1
  Ti  Ti154  1  0.60579030  0.60327736  0.50098004  1
  Ti  Ti155  1  -0.00389439  0.20107486  0.00037467  1
  Ti  Ti156  1  0.59756632  0.59920817  0.75120725  1
  Ti  Ti157  1  0.19663641  0.40042717  0.50678912  1
  Ti  Ti158  1  0.80745045  0.19358936  0.00103372  1
  Ti  Ti159  1  0.90653082  0.30371894  0.12193610  1
  Mo  Mo160  1  0.50968377  0.90211326  0.63006751  1
  Mo  Mo161  1  0.09235657  0.91049906  0.12330643  1
  Mo  Mo162  1  0.70294687  0.68710729  0.11672371  1
  Mo  Mo163  1  0.09278613  0.10400441  0.62315657  1
  Mo  Mo164  1  0.40269748  0.60425775  0.74708324  1
  Mo  Mo165  1  0.91452279  0.71027326  0.87940103  1
  Mo  Mo166  1  0.00131538  0.00024118  0.26819792  1
  Mo  Mo167  1  0.39398035  0.39997156  0.26339458  1
  Mo  Mo168  1  -0.01108943  0.19837068  0.74509980  1
  Mo  Mo169  1  0.10064438  0.90623800  0.62212535  1
  Mo  Mo170  1  0.90569406  0.49506891  0.38242364  1
  Mo  Mo171  1  0.39907308  0.00585311  0.01391863  1
  Mo  Mo172  1  0.70606203  0.09959639  0.13451605  1
  Mo  Mo173  1  0.09411950  0.50852725  0.37227478  1
  Mo  Mo174  1  0.49573081  0.88655388  0.10655751  1
  Mo  Mo175  1  0.49638479  0.29416578  0.88107492  1
  Mo  Mo176  1  0.29866685  0.50419964  0.60962484  1
  Mo  Mo177  1  0.20040614  0.20076195  0.73792167  1
  Mo  Mo178  1  0.29371212  0.10081476  0.37332841  1
  Mo  Mo179  1  0.30383192  0.69286969  0.13363102  1
  Mo  Mo180  1  0.59932072  0.78112904  0.24113251  1
  Mo  Mo181  1  0.19156541  0.80295173  -0.00991777  1
  Mo  Mo182  1  0.09618954  0.69407375  0.62346057  1
  Mo  Mo183  1  0.39727632  0.40123712  0.00594473  1
  Mo  Mo184  1  0.48802289  0.10143486  0.11381854  1
  Mo  Mo185  1  0.89937249  0.68967566  0.62509872  1
  Mo  Mo186  1  0.39380454  0.40783487  0.74480410  1
  Mo  Mo187  1  0.19856178  0.40829205  0.74274220  1
  Mo  Mo188  1  0.80083563  0.59168337  0.51256138  1
  Mo  Mo189  1  0.08929193  0.10307895  0.11661148  1
  Mo  Mo190  1  0.69484657  0.68918411  0.37391434  1
  Mo  Mo191  1  -0.01096082  0.40282085  0.73903218  1
  Mo  Mo192  1  0.89341511  0.09997108  0.88552763  1
  Mo  Mo193  1  0.10329441  0.70127472  0.37189672  1
  Mo  Mo194  1  0.20108348  0.80308994  0.25898882  1
  Mo  Mo195  1  0.30403019  0.11163216  0.62506512  1
  Mo  Mo196  1  0.49525683  0.90005946  0.36879951  1
  Mo  Mo197  1  0.19456979  0.20872224  0.25022738  1
  Mo  Mo198  1  0.81309661  0.78985246  0.25299875  1
  Mo  Mo199  1  0.60302332  0.40423728  0.24408986  1
