# generated using pymatgen
data_HfZrTaTiMo
_symmetry_space_group_name_H-M   'P 1'
_cell_length_a   15.21956266
_cell_length_b   15.20464478
_cell_length_c   16.86377289
_cell_angle_alpha   89.97796177
_cell_angle_beta   89.96409551
_cell_angle_gamma   90.04566668
_symmetry_Int_Tables_number   1
_chemical_formula_structural   HfZrTaTiMo
_chemical_formula_sum   'Hf40 Zr40 Ta40 Ti40 Mo40'
_cell_volume   3902.41040464
_cell_formula_units_Z   40
loop_
 _symmetry_equiv_pos_site_id
 _symmetry_equiv_pos_as_xyz
  1  'x, y, z'
loop_
 _atom_site_type_symbol
 _atom_site_label
 _atom_site_symmetry_multiplicity
 _atom_site_fract_x
 _atom_site_fract_y
 _atom_site_fract_z
 _atom_site_occupancy
  Hf  Hf0  1  0.89537969  0.29993317  0.60919154  1
  Hf  Hf1  1  0.30246663  0.32583566  0.86626889  1
  Hf  Hf2  1  0.59918207  0.59772088  0.00013425  1
  Hf  Hf3  1  0.89360043  0.50064170  0.63694175  1
  Hf  Hf4  1  -0.00157114  0.58886230  0.50090079  1
  Hf  Hf5  1  -0.00488319  0.39825313  0.25601855  1
  Hf  Hf6  1  0.20377993  0.58984108  -0.00312660  1
  Hf  Hf7  1  0.19421949  0.79378924  0.23667809  1
  Hf  Hf8  1  0.68828436  0.70373592  0.63080393  1
  Hf  Hf9  1  0.18259493  0.00149394  0.74876212  1
  Hf  Hf10  1  0.29268796  0.89670728  0.87948543  1
  Hf  Hf11  1  0.40015473  -0.02121113  0.48741679  1
  Hf  Hf12  1  0.80455064  0.80791566  0.00619780  1
  Hf  Hf13  1  0.90343476  0.70791315  0.87530103  1
  Hf  Hf14  1  0.80297098  0.82470426  0.75049618  1
  Hf  Hf15  1  0.89477890  0.70441831  0.62434759  1
  Hf  Hf16  1  0.80246365  0.59825265  0.00497246  1
  Hf  Hf17  1  0.32570368  0.69774550  0.62473495  1
  Hf  Hf18  1  0.20168569  0.40151731  0.49398675  1
  Hf  Hf19  1  0.78839638  0.43163497  0.50082238  1
  Hf  Hf20  1  0.59321362  0.39251973  -0.00492085  1
  Hf  Hf21  1  0.00163719  0.39980157  -0.00476910  1
  Hf  Hf22  1  0.39595625  0.00936168  0.00470482  1
  Hf  Hf23  1  0.60940716  -0.00382954  0.26695614  1
  Hf  Hf24  1  0.11181787  0.70223264  0.38089633  1
  Hf  Hf25  1  0.88350773  0.91233427  0.39040445  1
  Hf  Hf26  1  0.09677560  0.90128138  0.61583667  1
  Hf  Hf27  1  0.30583942  0.29589192  0.13513304  1
  Hf  Hf28  1  0.21891572  0.59363087  0.50231822  1
  Hf  Hf29  1  0.50267665  0.88165047  0.62011990  1
  Hf  Hf30  1  0.78273858  0.41779859  0.24357606  1
  Hf  Hf31  1  -0.00165514  0.18304277  0.74913080  1
  Hf  Hf32  1  0.80920342  0.00858046  0.01081144  1
  Hf  Hf33  1  0.61206164  -0.01927804  0.48506195  1
  Hf  Hf34  1  0.39931518  0.20973855  0.74510836  1
  Hf  Hf35  1  0.42797985  0.59722651  0.49438184  1
  Hf  Hf36  1  0.10451005  0.29878512  0.61787365  1
  Hf  Hf37  1  0.20232649  0.79082343  0.01679636  1
  Hf  Hf38  1  0.09158861  0.29526380  0.12384542  1
  Hf  Hf39  1  0.59943894  0.19427576  0.27425365  1
  Zr  Zr40  1  0.29994155  0.11027838  0.60645729  1
  Zr  Zr41  1  0.59997857  0.02228109  -0.00262800  1
  Zr  Zr42  1  0.10789967  0.69647465  0.62025512  1
  Zr  Zr43  1  0.40509695  0.00433058  0.74970535  1
  Zr  Zr44  1  0.79139278  0.19982570  -0.00151128  1
  Zr  Zr45  1  0.87854669  0.70017299  0.38575123  1
  Zr  Zr46  1  0.69945802  0.70565918  0.87546532  1
  Zr  Zr47  1  0.88996944  0.09996283  0.60579360  1
  Zr  Zr48  1  0.10225128  0.28337796  0.88040730  1
  Zr  Zr49  1  0.89097794  0.30584531  0.38631971  1
  Zr  Zr50  1  0.80883449  0.01206608  0.24795153  1
  Zr  Zr51  1  0.29968042  0.89915372  0.62538554  1
  Zr  Zr52  1  0.29127805  0.10774206  0.87183715  1
  Zr  Zr53  1  0.29464558  0.29179531  0.37858345  1
  Zr  Zr54  1  0.39961752  0.79744693  0.01778604  1
  Zr  Zr55  1  0.79244168  0.80666847  0.24139046  1
  Zr  Zr56  1  0.80082776  0.20629980  0.25410677  1
  Zr  Zr57  1  0.00298950  0.80140077  0.49378709  1
  Zr  Zr58  1  -0.00236543  0.81381370  0.25901551  1
  Zr  Zr59  1  0.68227158  0.29005290  0.12900217  1
  Zr  Zr60  1  0.39484347  0.78554727  0.22357588  1
  Zr  Zr61  1  0.20824516  0.59138744  0.74798677  1
  Zr  Zr62  1  0.51196083  0.49477521  0.14415274  1
  Zr  Zr63  1  0.59184500  0.59830666  0.76002498  1
  Zr  Zr64  1  0.39958401  0.59824524  0.01370046  1
  Zr  Zr65  1  0.59960483  0.19994805  0.73799972  1
  Zr  Zr66  1  0.20454759  0.19024644  0.01190319  1
  Zr  Zr67  1  0.19286031  0.00490980  0.23836909  1
  Zr  Zr68  1  0.79748854  0.40042957  0.00834332  1
  Zr  Zr69  1  0.48333648  0.30444892  0.60895270  1
  Zr  Zr70  1  0.00418532  0.60594256  0.25593791  1
  Zr  Zr71  1  0.00743951  0.80733242  0.75396287  1
  Zr  Zr72  1  -0.00369649  0.38486249  0.75687119  1
  Zr  Zr73  1  0.50053848  0.87324759  0.36078663  1
  Zr  Zr74  1  0.89332863  0.49118426  0.86628428  1
  Zr  Zr75  1  0.28650471  0.09045662  0.38711248  1
  Zr  Zr76  1  0.41859977  0.20581799  -0.00584237  1
  Zr  Zr77  1  0.71040202  0.91594235  0.87539009  1
  Zr  Zr78  1  0.20001343  0.40235288  0.25934396  1
  Zr  Zr79  1  0.17866406  -0.00723935  0.01863706  1
  Ta  Ta80  1  0.00493776  0.19243914  0.25706821  1
  Ta  Ta81  1  0.59368136  0.80831733  0.75544582  1
  Ta  Ta82  1  0.31558760  0.47811593  0.63082378  1
  Ta  Ta83  1  0.20661438  0.40138410  0.00719619  1
  Ta  Ta84  1  0.40525830  0.79425707  0.75908639  1
  Ta  Ta85  1  0.50253736  0.67821966  0.34376103  1
  Ta  Ta86  1  0.10713128  0.70091680  0.87695933  1
  Ta  Ta87  1  0.90720766  0.11206383  0.39413140  1
  Ta  Ta88  1  0.52139893  0.49320877  0.36083131  1
  Ta  Ta89  1  0.09859851  0.10060448  0.60641691  1
  Ta  Ta90  1  0.50998942  0.10656236  0.13433883  1
  Ta  Ta91  1  0.50583559  0.09123150  0.60308145  1
  Ta  Ta92  1  0.40142683  0.18794158  0.26058154  1
  Ta  Ta93  1  0.59274922  0.41324828  0.50197935  1
  Ta  Ta94  1  0.30476633  0.69479464  0.87391754  1
  Ta  Ta95  1  0.00820528  0.81609494  -0.00521380  1
  Ta  Ta96  1  0.49609644  0.70831438  0.88174643  1
  Ta  Ta97  1  0.11517850  0.49062238  0.86827306  1
  Ta  Ta98  1  0.11056572  0.50556652  0.12947917  1
  Ta  Ta99  1  0.89090209  0.50848030  0.37332830  1
  Ta  Ta100  1  0.69618464  0.91049912  0.12289388  1
  Ta  Ta101  1  0.60247373  0.00372561  0.74545606  1
  Ta  Ta102  1  0.80210585  0.21000713  0.74860383  1
  Ta  Ta103  1  0.50710176  0.90985512  0.13375292  1
  Ta  Ta104  1  0.88807485  0.90572819  0.60869502  1
  Ta  Ta105  1  0.90751575  0.70570643  0.11814507  1
  Ta  Ta106  1  0.69775593  0.31015753  0.61682506  1
  Ta  Ta107  1  0.31095879  0.69173091  0.36708466  1
  Ta  Ta108  1  0.59570066  0.80465018  0.01239897  1
  Ta  Ta109  1  0.08041253  0.07609301  0.87746618  1
  Ta  Ta110  1  0.00510682  0.59905756  0.75590136  1
  Ta  Ta111  1  0.39558125  0.40554452  0.00716591  1
  Ta  Ta112  1  0.49750624  0.29618321  0.38604826  1
  Ta  Ta113  1  0.68486748  0.70103242  0.36496554  1
  Ta  Ta114  1  0.40430302  0.39437638  0.26384713  1
  Ta  Ta115  1  0.00639020  0.60208025  -0.00500383  1
  Ta  Ta116  1  0.91265862  0.50794632  0.12532613  1
  Ta  Ta117  1  0.50287553  0.90444095  0.87801416  1
  Ta  Ta118  1  0.20618587  0.79675108  0.75426409  1
  Ta  Ta119  1  0.19693498  0.20377151  0.74190708  1
  Ti  Ti120  1  0.40391025  0.00519583  0.25663395  1
  Ti  Ti121  1  0.88565908  0.09316236  0.86926929  1
  Ti  Ti122  1  0.69037558  0.32376344  0.38336017  1
  Ti  Ti123  1  0.00565265  0.00916819  0.26135278  1
  Ti  Ti124  1  0.80094769  0.60613627  0.23731214  1
  Ti  Ti125  1  0.00235954  0.40312106  0.49359158  1
  Ti  Ti126  1  0.91838655  0.90932564  0.12668585  1
  Ti  Ti127  1  0.71594310  0.10153869  0.39258084  1
  Ti  Ti128  1  -0.02349211  -0.00810370  0.74401138  1
  Ti  Ti129  1  0.10524433  0.50281195  0.37327069  1
  Ti  Ti130  1  0.22149356  0.80459878  0.49413382  1
  Ti  Ti131  1  0.62303979  0.59331254  0.49919203  1
  Ti  Ti132  1  0.40463734  0.59456575  0.75538909  1
  Ti  Ti133  1  0.00567632  0.00584836  0.49255603  1
  Ti  Ti134  1  0.91179538  0.10895832  0.12784643  1
  Ti  Ti135  1  0.57588683  0.77521752  0.49386029  1
  Ti  Ti136  1  0.30316835  0.91448783  0.12985153  1
  Ti  Ti137  1  0.09051607  0.69531419  0.12345757  1
  Ti  Ti138  1  0.69053293  0.11349268  0.86559212  1
  Ti  Ti139  1  0.70802016  0.30508922  0.86696524  1
  Ti  Ti140  1  0.50912946  0.50881222  0.62929520  1
  Ti  Ti141  1  0.70099520  0.10648786  0.61305670  1
  Ti  Ti142  1  -0.00864803  0.18811558  -0.00471302  1
  Ti  Ti143  1  0.69321473  0.69676877  0.12594995  1
  Ti  Ti144  1  0.50902037  0.29711871  0.86820259  1
  Ti  Ti145  1  0.76843393  0.80740108  0.50106300  1
  Ti  Ti146  1  0.29765572  0.88645917  0.36229313  1
  Ti  Ti147  1  0.09494101  0.28038649  0.38526012  1
  Ti  Ti148  1  0.49702600  0.29591263  0.13706434  1
  Ti  Ti149  1  0.69611270  0.49315261  0.86838229  1
  Ti  Ti150  1  0.59842233  0.40026177  0.74511413  1
  Ti  Ti151  1  0.70148915  0.91592483  0.62989400  1
  Ti  Ti152  1  0.90020982  0.30167666  0.12869907  1
  Ti  Ti153  1  0.39770568  0.40665072  0.48531690  1
  Ti  Ti154  1  0.60015755  0.20124003  0.49289123  1
  Ti  Ti155  1  0.48439110  0.49239579  0.87442079  1
  Ti  Ti156  1  0.10355147  0.49333115  0.63323342  1
  Ti  Ti157  1  0.11240676  0.91283948  0.38299319  1
  Ti  Ti158  1  0.19505432  0.19046045  0.24492131  1
  Ti  Ti159  1  0.79532405  0.59802777  0.75216431  1
  Mo  Mo160  1  0.40687522  0.19452754  0.49307342  1
  Mo  Mo161  1  0.28297287  0.66832799  0.13547368  1
  Mo  Mo162  1  0.50453581  0.10079235  0.86451586  1
  Mo  Mo163  1  0.29950645  0.48785484  0.13202290  1
  Mo  Mo164  1  0.70390126  0.51748932  0.37152804  1
  Mo  Mo165  1  0.70098492  0.88223325  0.37486273  1
  Mo  Mo166  1  0.78391966  0.21335428  0.49521291  1
  Mo  Mo167  1  0.89269843  0.28271350  0.87155066  1
  Mo  Mo168  1  0.69169315  0.09632269  0.13224849  1
  Mo  Mo169  1  0.60237352  0.79410214  0.22918044  1
  Mo  Mo170  1  0.41479905  0.40821934  0.74911035  1
  Mo  Mo171  1  0.30529798  0.50239273  0.87222665  1
  Mo  Mo172  1  -0.00970448  0.00389765  0.00072075  1
  Mo  Mo173  1  0.79252853  0.02009413  0.74341548  1
  Mo  Mo174  1  0.19705568  0.20048012  0.50314022  1
  Mo  Mo175  1  0.39468171  0.58423873  0.24655356  1
  Mo  Mo176  1  0.50248713  0.69738856  0.63121634  1
  Mo  Mo177  1  0.31582212  0.50644351  0.37339086  1
  Mo  Mo178  1  0.59748807  0.20473966  -0.00789031  1
  Mo  Mo179  1  0.08782479  0.89427185  0.12904486  1
  Mo  Mo180  1  0.59976621  0.38656683  0.25990579  1
  Mo  Mo181  1  0.50769193  0.69699438  0.13599390  1
  Mo  Mo182  1  0.79458377  0.61569314  0.50475735  1
  Mo  Mo183  1  0.78427907  0.39534734  0.74504926  1
  Mo  Mo184  1  0.29735581  0.30427781  0.62101692  1
  Mo  Mo185  1  0.20651368  0.39319943  0.74273211  1
  Mo  Mo186  1  0.00106944  0.20628436  0.49772214  1
  Mo  Mo187  1  0.70595127  0.50314662  0.12132718  1
  Mo  Mo188  1  0.69539871  0.50003763  0.63563961  1
  Mo  Mo189  1  0.79431450  0.00183638  0.49838961  1
  Mo  Mo190  1  0.19450478  -0.01026649  0.49694829  1
  Mo  Mo191  1  0.39809729  0.78258642  0.48445357  1
  Mo  Mo192  1  0.20360746  0.59769305  0.25407359  1
  Mo  Mo193  1  0.09631787  0.10255103  0.38424263  1
  Mo  Mo194  1  0.31618382  0.10176156  0.13770460  1
  Mo  Mo195  1  0.10061250  0.89521627  0.87392229  1
  Mo  Mo196  1  0.49960781  0.09906149  0.39237647  1
  Mo  Mo197  1  0.62052234  0.58995053  0.24178467  1
  Mo  Mo198  1  0.08314745  0.10217803  0.12963174  1
  Mo  Mo199  1  0.91385758  0.92022021  0.87611710  1
