# generated using pymatgen
data_HfZrTaTiMo
_symmetry_space_group_name_H-M   'P 1'
_cell_length_a   15.22273828
_cell_length_b   15.21662592
_cell_length_c   16.85166365
_cell_angle_alpha   89.96481092
_cell_angle_beta   89.99273585
_cell_angle_gamma   89.87022482
_symmetry_Int_Tables_number   1
_chemical_formula_structural   HfZrTaTiMo
_chemical_formula_sum   'Hf40 Zr40 Ta40 Ti40 Mo40'
_cell_volume   3903.48691657
_cell_formula_units_Z   40
loop_
 _symmetry_equiv_pos_site_id
 _symmetry_equiv_pos_as_xyz
  1  'x, y, z'
loop_
 _atom_site_type_symbol
 _atom_site_label
 _atom_site_symmetry_multiplicity
 _atom_site_fract_x
 _atom_site_fract_y
 _atom_site_fract_z
 _atom_site_occupancy
  Hf  Hf0  1  0.01348932  0.37892648  0.49752067  1
  Hf  Hf1  1  0.09913519  0.09975476  0.86210515  1
  Hf  Hf2  1  0.67982503  0.90751724  0.87769902  1
  Hf  Hf3  1  0.20872550  0.01438780  0.49085112  1
  Hf  Hf4  1  0.68497288  0.31094353  0.13434181  1
  Hf  Hf5  1  0.89634786  0.69691484  0.38669900  1
  Hf  Hf6  1  0.11993352  0.48004573  0.61737101  1
  Hf  Hf7  1  0.10325737  0.10873123  0.63340834  1
  Hf  Hf8  1  0.69591579  0.30219376  0.60820919  1
  Hf  Hf9  1  0.18812947  0.21066692  0.48916199  1
  Hf  Hf10  1  0.11183807  0.49920166  0.38254013  1
  Hf  Hf11  1  0.90989642  0.68578236  0.86654609  1
  Hf  Hf12  1  0.60607830  0.60298204  0.74231540  1
  Hf  Hf13  1  0.79065816  0.39613660  0.74370953  1
  Hf  Hf14  1  0.50406633  0.70319623  0.87189405  1
  Hf  Hf15  1  0.21552787  0.59886988  0.00347010  1
  Hf  Hf16  1  -0.01205668  0.17933457  0.49660368  1
  Hf  Hf17  1  0.10553336  0.69456560  0.13193989  1
  Hf  Hf18  1  0.67998804  0.51867452  0.13733049  1
  Hf  Hf19  1  0.38672639  0.20854196  -0.00741275  1
  Hf  Hf20  1  0.48578121  0.28757451  0.62089192  1
  Hf  Hf21  1  0.59469945  0.40254674  0.74291162  1
  Hf  Hf22  1  0.81409066  0.80466887  0.52399468  1
  Hf  Hf23  1  0.50429670  0.09699965  0.86065326  1
  Hf  Hf24  1  -0.00666776  0.18993807  -0.00043099  1
  Hf  Hf25  1  0.50207053  0.90939426  0.10930188  1
  Hf  Hf26  1  -0.00230211  0.79891636  0.25328423  1
  Hf  Hf27  1  0.21035347  0.80018212  0.00122801  1
  Hf  Hf28  1  0.21830056  0.59709342  0.24643611  1
  Hf  Hf29  1  0.42954648  0.59457824  0.24187739  1
  Hf  Hf30  1  0.49134437  0.30626413  0.86595442  1
  Hf  Hf31  1  0.22461905  0.59353717  0.50387235  1
  Hf  Hf32  1  0.08169385  0.09092289  0.36082015  1
  Hf  Hf33  1  0.20430159  0.20404984  0.26748219  1
  Hf  Hf34  1  0.88331544  0.08833937  0.36544782  1
  Hf  Hf35  1  0.78832654  -0.02067182  0.24790747  1
  Hf  Hf36  1  0.69317925  0.51292242  0.37649870  1
  Hf  Hf37  1  0.89048198  0.49080417  0.38976242  1
  Hf  Hf38  1  0.10293375  0.51149753  0.88023846  1
  Hf  Hf39  1  0.68570157  0.10130796  0.12357427  1
  Zr  Zr40  1  0.20487408  0.80375581  0.74622944  1
  Zr  Zr41  1  0.70139112  0.90546650  0.38740748  1
  Zr  Zr42  1  0.48703692  0.31168355  0.12049568  1
  Zr  Zr43  1  0.89120838  0.88912478  0.87837718  1
  Zr  Zr44  1  0.21619290  0.80626296  0.49317626  1
  Zr  Zr45  1  0.21519637  0.38318823  -0.01179139  1
  Zr  Zr46  1  0.88902250  0.08681951  0.62668271  1
  Zr  Zr47  1  -0.00223486  0.59592857  0.25489985  1
  Zr  Zr48  1  -0.00375052  -0.01366356  0.75445594  1
  Zr  Zr49  1  0.41086031  0.80563294  0.24267226  1
  Zr  Zr50  1  0.10734313  0.88587221  0.87391394  1
  Zr  Zr51  1  0.69543135  0.30921886  0.38161324  1
  Zr  Zr52  1  0.10604358  0.90440613  0.12791401  1
  Zr  Zr53  1  0.32656077  0.29390549  0.39637433  1
  Zr  Zr54  1  0.20580232  -0.01170493  0.25919051  1
  Zr  Zr55  1  0.28085148  0.30823186  0.61639418  1
  Zr  Zr56  1  0.09069156  0.90648869  0.61058069  1
  Zr  Zr57  1  0.80032317  0.79971453  0.73772776  1
  Zr  Zr58  1  0.89189652  0.88532415  0.11914116  1
  Zr  Zr59  1  0.89547105  0.49933896  0.13065359  1
  Zr  Zr60  1  0.89351660  0.49600614  0.87272258  1
  Zr  Zr61  1  0.29192257  0.10823342  0.12219110  1
  Zr  Zr62  1  0.78604674  0.40361363  0.00071584  1
  Zr  Zr63  1  0.00957023  0.38456475  0.26123854  1
  Zr  Zr64  1  0.69031438  0.89628236  0.10317000  1
  Zr  Zr65  1  0.10928436  0.70137323  0.61490231  1
  Zr  Zr66  1  0.88204194  0.28103218  0.87329679  1
  Zr  Zr67  1  0.61675587  0.79568794  0.24880202  1
  Zr  Zr68  1  0.00639934  0.59331120  0.73352172  1
  Zr  Zr69  1  0.00060521  0.78007589  0.00093033  1
  Zr  Zr70  1  0.00711299  -0.00149942  -0.00222182  1
  Zr  Zr71  1  0.20207219  0.39819418  0.76880979  1
  Zr  Zr72  1  0.11092896  0.48500634  0.12435043  1
  Zr  Zr73  1  0.31602228  0.70343115  0.37284346  1
  Zr  Zr74  1  0.90250371  0.29183213  0.13148962  1
  Zr  Zr75  1  0.69624528  0.70686140  0.39504778  1
  Zr  Zr76  1  0.68847258  0.91854513  0.63199516  1
  Zr  Zr77  1  0.80084706  0.01954268  -0.01129273  1
  Zr  Zr78  1  0.78354620  0.19926124  0.25453420  1
  Zr  Zr79  1  0.00270459  0.38317647  0.74817207  1
  Ta  Ta80  1  0.30853847  0.90301016  0.11866155  1
  Ta  Ta81  1  0.29905722  0.10141020  0.85829956  1
  Ta  Ta82  1  0.00235509  0.59093403  0.00653363  1
  Ta  Ta83  1  0.39393779  0.40894817  0.74067004  1
  Ta  Ta84  1  0.50296704  0.09443494  0.64135650  1
  Ta  Ta85  1  0.49620584  0.71347279  0.62944476  1
  Ta  Ta86  1  0.30606750  0.10403111  0.63875441  1
  Ta  Ta87  1  0.30700538  0.90206011  0.62647959  1
  Ta  Ta88  1  0.11263958  0.28731258  0.12603808  1
  Ta  Ta89  1  0.89408170  0.28820542  0.61784889  1
  Ta  Ta90  1  0.49773788  0.10541223  0.11972378  1
  Ta  Ta91  1  0.30864340  0.90219394  0.87514173  1
  Ta  Ta92  1  0.32236470  0.48328285  0.12182480  1
  Ta  Ta93  1  0.40834055  -0.00625578  0.50889460  1
  Ta  Ta94  1  0.21698898  0.39369810  0.25676159  1
  Ta  Ta95  1  0.90861684  0.89799950  0.38241396  1
  Ta  Ta96  1  0.39564833  -0.00814212  0.75034573  1
  Ta  Ta97  1  0.00565894  0.38845556  -0.00480609  1
  Ta  Ta98  1  0.48224838  0.10641830  0.37790460  1
  Ta  Ta99  1  0.59975744  0.20850438  -0.00680525  1
  Ta  Ta100  1  0.40456147  0.39524895  0.25815023  1
  Ta  Ta101  1  0.79356940  0.59383940  0.52274465  1
  Ta  Ta102  1  0.31566724  0.49909914  0.37574800  1
  Ta  Ta103  1  0.58316995  0.41786036  -0.01023743  1
  Ta  Ta104  1  0.79895722  0.00674758  0.50218623  1
  Ta  Ta105  1  0.59510317  0.01841705  0.50005601  1
  Ta  Ta106  1  0.40357645  0.01005040  0.24741401  1
  Ta  Ta107  1  0.61980107  0.61105870  -0.01128953  1
  Ta  Ta108  1  0.30296380  0.70018656  0.87503632  1
  Ta  Ta109  1  0.52912211  0.69765371  0.11233624  1
  Ta  Ta110  1  0.80067353  0.59591902  0.72260027  1
  Ta  Ta111  1  0.69937690  0.12974229  0.86337364  1
  Ta  Ta112  1  0.89749396  0.48281224  0.61164124  1
  Ta  Ta113  1  0.79365312  0.01325895  0.76226716  1
  Ta  Ta114  1  0.58932040  0.01074347  0.25750902  1
  Ta  Ta115  1  0.79014029  0.20495101  0.00748871  1
  Ta  Ta116  1  0.21608236  0.59997594  0.75097515  1
  Ta  Ta117  1  0.32727100  0.50031240  0.87809953  1
  Ta  Ta118  1  0.08813718  0.10314079  0.14312716  1
  Ta  Ta119  1  -0.00060258  0.59942520  0.50888013  1
  Ti  Ti120  1  0.68895538  0.11370865  0.63774895  1
  Ti  Ti121  1  0.58405469  0.41197778  0.26077740  1
  Ti  Ti122  1  0.49766134  0.89865611  0.64082047  1
  Ti  Ti123  1  0.59166156  0.40712945  0.50322382  1
  Ti  Ti124  1  0.79582262  0.40698899  0.25458639  1
  Ti  Ti125  1  0.10345721  0.70216939  0.38248221  1
  Ti  Ti126  1  0.31830637  0.90717116  0.37651209  1
  Ti  Ti127  1  0.70580043  0.70395561  0.86075797  1
  Ti  Ti128  1  0.50472814  0.70061361  0.38731935  1
  Ti  Ti129  1  0.39345281  0.42372395  0.51200273  1
  Ti  Ti130  1  0.49798849  0.50477297  0.38709955  1
  Ti  Ti131  1  0.20940903  0.79768357  0.25199469  1
  Ti  Ti132  1  0.20692505  0.00746895  -0.00190179  1
  Ti  Ti133  1  0.89827652  0.09197599  0.14135349  1
  Ti  Ti134  1  0.42494107  0.58689877  0.00344154  1
  Ti  Ti135  1  0.09441360  0.89478788  0.38225670  1
  Ti  Ti136  1  0.58287150  0.19975310  0.49041925  1
  Ti  Ti137  1  0.39840399  0.20435607  0.24929651  1
  Ti  Ti138  1  0.31985272  0.69989668  0.12305340  1
  Ti  Ti139  1  0.39885006  0.00460785  -0.00904311  1
  Ti  Ti140  1  0.90170087  0.28984330  0.37437558  1
  Ti  Ti141  1  0.80737821  0.60233563  0.00522481  1
  Ti  Ti142  1  0.78715369  0.77984675  -0.00613721  1
  Ti  Ti143  1  0.40655997  0.79474570  -0.00043399  1
  Ti  Ti144  1  0.49474059  0.89652832  0.87080516  1
  Ti  Ti145  1  0.19241840  0.21134566  0.75449117  1
  Ti  Ti146  1  0.58390258  0.81656140  0.50824862  1
  Ti  Ti147  1  0.49393149  0.51068468  0.62281664  1
  Ti  Ti148  1  0.31747554  0.70247354  0.62457310  1
  Ti  Ti149  1  0.58015255  0.20766903  0.26486276  1
  Ti  Ti150  1  0.79213027  0.62428185  0.24785790  1
  Ti  Ti151  1  0.78295018  0.19247683  0.49001645  1
  Ti  Ti152  1  0.50172943  0.90224743  0.37762020  1
  Ti  Ti153  1  0.68773578  0.70885959  0.62288073  1
  Ti  Ti154  1  0.59275523  0.60231342  0.51404587  1
  Ti  Ti155  1  0.19032533  0.19655082  -0.01118314  1
  Ti  Ti156  1  0.69617915  0.50547392  0.87035209  1
  Ti  Ti157  1  -0.01548017  0.19512581  0.75098383  1
  Ti  Ti158  1  -0.00175693  0.78915778  0.74126330  1
  Ti  Ti159  1  0.40335388  0.60418013  0.75032146  1
  Mo  Mo160  1  -0.00580403  -0.01085963  0.49910826  1
  Mo  Mo161  1  0.11137769  0.68958440  0.87213411  1
  Mo  Mo162  1  0.59595257  0.79760824  -0.01020029  1
  Mo  Mo163  1  0.80886761  0.79417568  0.25461884  1
  Mo  Mo164  1  0.90573538  0.69281369  0.62088077  1
  Mo  Mo165  1  0.09244437  0.29290587  0.88151400  1
  Mo  Mo166  1  0.30905274  0.51112710  0.63523968  1
  Mo  Mo167  1  0.20788776  0.40369913  0.49357890  1
  Mo  Mo168  1  0.79317427  0.20574988  0.74085983  1
  Mo  Mo169  1  0.50577936  0.50814649  0.86690451  1
  Mo  Mo170  1  0.89905066  0.89942256  0.62938368  1
  Mo  Mo171  1  0.50627635  0.50387081  0.12200086  1
  Mo  Mo172  1  0.41187586  0.80875878  0.50265073  1
  Mo  Mo173  1  0.29354873  0.30247865  0.13121545  1
  Mo  Mo174  1  0.41505948  0.60756538  0.50509517  1
  Mo  Mo175  1  0.08744051  0.28865945  0.62909662  1
  Mo  Mo176  1  0.68814517  0.30990085  0.87826450  1
  Mo  Mo177  1  -0.00912331  -0.00897997  0.24722755  1
  Mo  Mo178  1  0.80295839  0.39378792  0.49963590  1
  Mo  Mo179  1  0.20865406  0.00443427  0.74635466  1
  Mo  Mo180  1  0.89532106  0.69170196  0.12287336  1
  Mo  Mo181  1  0.59379248  0.80121669  0.74849715  1
  Mo  Mo182  1  0.39730278  0.79652103  0.75385375  1
  Mo  Mo183  1  0.68109911  0.09904060  0.37624608  1
  Mo  Mo184  1  0.30548423  0.09143017  0.37486603  1
  Mo  Mo185  1  0.60178368  0.60810103  0.25913435  1
  Mo  Mo186  1  0.58650616  0.01651896  -0.00867590  1
  Mo  Mo187  1  0.00454298  0.79460612  0.49110487  1
  Mo  Mo188  1  0.40058838  0.17071804  0.50936358  1
  Mo  Mo189  1  0.69129985  0.49985626  0.61406188  1
  Mo  Mo190  1  0.50024437  0.31294168  0.39001223  1
  Mo  Mo191  1  0.40072696  0.40349586  -0.00630305  1
  Mo  Mo192  1  0.38945444  0.20582667  0.75064248  1
  Mo  Mo193  1  0.09983698  0.29772795  0.37020231  1
  Mo  Mo194  1  0.59870757  0.00282332  0.75204088  1
  Mo  Mo195  1  0.71660417  0.70444157  0.11880197  1
  Mo  Mo196  1  0.89156204  0.09977511  0.86890699  1
  Mo  Mo197  1  0.60136303  0.20733245  0.74511678  1
  Mo  Mo198  1  0.30027826  0.29180555  0.86392735  1
  Mo  Mo199  1  -0.00409984  0.19468081  0.24964476  1
