# generated using pymatgen
data_HfZrTaTiMo
_symmetry_space_group_name_H-M   'P 1'
_cell_length_a   15.22205039
_cell_length_b   15.20280904
_cell_length_c   16.86487982
_cell_angle_alpha   90.05929408
_cell_angle_beta   89.96547345
_cell_angle_gamma   90.00732435
_symmetry_Int_Tables_number   1
_chemical_formula_structural   HfZrTaTiMo
_chemical_formula_sum   'Hf40 Zr40 Ta40 Ti40 Mo40'
_cell_volume   3902.83266834
_cell_formula_units_Z   40
loop_
 _symmetry_equiv_pos_site_id
 _symmetry_equiv_pos_as_xyz
  1  'x, y, z'
loop_
 _atom_site_type_symbol
 _atom_site_label
 _atom_site_symmetry_multiplicity
 _atom_site_fract_x
 _atom_site_fract_y
 _atom_site_fract_z
 _atom_site_occupancy
  Hf  Hf0  1  0.48881155  0.89961923  0.36965377  1
  Hf  Hf1  1  0.88674153  0.50569718  0.36397225  1
  Hf  Hf2  1  0.80675460  0.79153295  0.75719727  1
  Hf  Hf3  1  0.88738061  0.49948962  0.86472650  1
  Hf  Hf4  1  0.00966464  0.80428353  0.00597007  1
  Hf  Hf5  1  0.31893547  0.69753525  0.88630832  1
  Hf  Hf6  1  0.11153361  0.90952830  0.62813683  1
  Hf  Hf7  1  0.50324358  0.50070771  0.87295069  1
  Hf  Hf8  1  0.09845670  0.90936768  0.37254373  1
  Hf  Hf9  1  0.10944537  0.30188411  0.63154609  1
  Hf  Hf10  1  0.61689873  0.19634016  0.74441970  1
  Hf  Hf11  1  0.18846714  0.40362395  -0.00029645  1
  Hf  Hf12  1  -0.00713751  0.21196237  0.00034995  1
  Hf  Hf13  1  0.21337807  0.00045163  0.49554694  1
  Hf  Hf14  1  0.39701329  0.39051768  -0.01473048  1
  Hf  Hf15  1  0.10753667  0.32378599  0.85931275  1
  Hf  Hf16  1  0.90120581  0.71292327  0.36084634  1
  Hf  Hf17  1  0.39970105  -0.00380198  0.00994974  1
  Hf  Hf18  1  0.70311276  0.09473194  0.37324878  1
  Hf  Hf19  1  0.69637773  0.70126321  0.13012770  1
  Hf  Hf20  1  0.30846836  0.70389469  0.62176970  1
  Hf  Hf21  1  -0.00251874  0.01460862  0.50920467  1
  Hf  Hf22  1  0.39780302  -0.01692899  0.23215495  1
  Hf  Hf23  1  0.90222789  0.49329846  0.13441518  1
  Hf  Hf24  1  0.69839637  0.30222390  0.38176527  1
  Hf  Hf25  1  0.39530632  0.18511482  0.49517767  1
  Hf  Hf26  1  0.00815575  0.60045711  -0.01119342  1
  Hf  Hf27  1  0.09506625  0.30497821  0.12894586  1
  Hf  Hf28  1  0.79881700  0.80116547  -0.00227570  1
  Hf  Hf29  1  0.80485470  0.40154189  0.51048051  1
  Hf  Hf30  1  0.49702199  0.08489314  0.63112169  1
  Hf  Hf31  1  0.30281471  0.08546536  0.35846592  1
  Hf  Hf32  1  0.29957290  0.09403997  0.63149204  1
  Hf  Hf33  1  0.80404012  0.19728524  0.50613527  1
  Hf  Hf34  1  0.49523915  0.30001735  0.39054898  1
  Hf  Hf35  1  0.59652336  0.59802733  -0.00260369  1
  Hf  Hf36  1  0.59907671  0.80602871  0.24929165  1
  Hf  Hf37  1  0.39847096  0.77156425  0.24089386  1
  Hf  Hf38  1  0.50183886  0.30408800  0.61956840  1
  Hf  Hf39  1  0.59215594  0.38994351  0.24831329  1
  Zr  Zr40  1  0.20689067  0.60127527  0.49258818  1
  Zr  Zr41  1  0.70279808  0.89277188  0.38826431  1
  Zr  Zr42  1  0.58238033  -0.00810004  0.50157381  1
  Zr  Zr43  1  0.70128060  0.49201728  0.12928837  1
  Zr  Zr44  1  0.79862166  0.00936861  -0.00116190  1
  Zr  Zr45  1  0.50086688  0.11047297  0.12646538  1
  Zr  Zr46  1  0.90199251  0.29574493  0.85530983  1
  Zr  Zr47  1  0.80247839  0.59654578  -0.00577335  1
  Zr  Zr48  1  0.11095751  0.90918909  0.87505966  1
  Zr  Zr49  1  0.68444193  0.89445225  0.62438827  1
  Zr  Zr50  1  0.70851474  0.68582127  0.63396814  1
  Zr  Zr51  1  0.19845391  0.40757780  0.26258880  1
  Zr  Zr52  1  0.68721189  0.48757185  0.62633617  1
  Zr  Zr53  1  0.00115274  0.20981963  0.50437624  1
  Zr  Zr54  1  0.20150700  0.20756663  0.25587297  1
  Zr  Zr55  1  0.21655151  0.20524821  0.76315176  1
  Zr  Zr56  1  0.70264090  0.10784630  0.11877067  1
  Zr  Zr57  1  0.57999586  0.60016776  0.25297929  1
  Zr  Zr58  1  0.19238594  -0.00065799  0.01334440  1
  Zr  Zr59  1  0.41040771  0.60245861  0.74527166  1
  Zr  Zr60  1  0.49025614  0.88844379  0.88951638  1
  Zr  Zr61  1  0.29289126  0.49584773  0.12210014  1
  Zr  Zr62  1  0.09329654  0.70006359  0.62425826  1
  Zr  Zr63  1  0.00078782  0.01608351  0.00414391  1
  Zr  Zr64  1  0.58141727  0.78970459  0.75512905  1
  Zr  Zr65  1  0.89878484  0.91267231  0.37126469  1
  Zr  Zr66  1  -0.01707088  0.60931263  0.49540545  1
  Zr  Zr67  1  0.18769834  0.59488783  0.75210614  1
  Zr  Zr68  1  0.90989293  0.69282459  0.13619608  1
  Zr  Zr69  1  0.89968352  0.90969779  0.87117139  1
  Zr  Zr70  1  0.29457385  0.10622516  0.13185294  1
  Zr  Zr71  1  0.70741151  0.69027476  0.36975203  1
  Zr  Zr72  1  0.10954237  0.71553345  0.37504724  1
  Zr  Zr73  1  0.01176892  0.80444574  0.75332869  1
  Zr  Zr74  1  0.22385902  0.61275008  0.26266751  1
  Zr  Zr75  1  0.20232698  0.20158161  -0.00936668  1
  Zr  Zr76  1  0.00625923  0.42352588  0.73431064  1
  Zr  Zr77  1  0.48864143  0.49798385  0.11644981  1
  Zr  Zr78  1  0.50028091  0.49790125  0.39667812  1
  Zr  Zr79  1  0.89369646  0.12148345  0.64452035  1
  Ta  Ta80  1  0.78093314  0.00935821  0.74967517  1
  Ta  Ta81  1  0.09298711  0.10069763  0.36496834  1
  Ta  Ta82  1  0.50381220  0.09894299  0.36381421  1
  Ta  Ta83  1  0.01400215  0.59986448  0.25590276  1
  Ta  Ta84  1  0.40144404  0.81760771  0.50417742  1
  Ta  Ta85  1  -0.00111268  0.01143201  0.74636481  1
  Ta  Ta86  1  0.31537569  0.29868467  0.12287667  1
  Ta  Ta87  1  0.60838703  0.60648054  0.49984677  1
  Ta  Ta88  1  0.60782289  0.19439540  0.51189702  1
  Ta  Ta89  1  0.88979036  0.52695386  0.63129187  1
  Ta  Ta90  1  0.60540855  -0.00194452  0.24362943  1
  Ta  Ta91  1  0.49361881  0.50266942  0.61191888  1
  Ta  Ta92  1  0.09300245  0.49729936  0.38238624  1
  Ta  Ta93  1  0.79978570  0.81042145  0.23831097  1
  Ta  Ta94  1  0.41356930  0.18720019  0.76850461  1
  Ta  Ta95  1  0.60138744  0.20114836  0.25058045  1
  Ta  Ta96  1  0.90075453  0.90969480  0.13031865  1
  Ta  Ta97  1  0.31311297  0.68590660  0.10611185  1
  Ta  Ta98  1  0.28800352  0.48907915  0.86832219  1
  Ta  Ta99  1  0.90199383  0.10782059  0.36383822  1
  Ta  Ta100  1  0.69319454  0.90161265  0.87114648  1
  Ta  Ta101  1  0.30221326  0.48801278  0.61839101  1
  Ta  Ta102  1  0.40783830  0.19239683  -0.02004138  1
  Ta  Ta103  1  0.89537570  0.90343362  0.63152149  1
  Ta  Ta104  1  0.22449212  0.80772713  0.75211140  1
  Ta  Ta105  1  -0.00548604  0.81378214  0.50808803  1
  Ta  Ta106  1  0.20253751  0.38926115  0.48958293  1
  Ta  Ta107  1  0.39171118  -0.02162696  0.75841954  1
  Ta  Ta108  1  0.39433734  0.38689170  0.75409901  1
  Ta  Ta109  1  0.51264598  0.88724627  0.11474034  1
  Ta  Ta110  1  0.39534907  0.40111969  0.25623886  1
  Ta  Ta111  1  0.20052876  0.19880008  0.48774972  1
  Ta  Ta112  1  0.70321451  0.30379963  0.88193468  1
  Ta  Ta113  1  0.90007706  0.30422497  0.37088545  1
  Ta  Ta114  1  -0.00282909  0.40486872  0.50830546  1
  Ta  Ta115  1  0.90309189  0.11130600  0.13689055  1
  Ta  Ta116  1  0.69682317  0.68222261  0.86426486  1
  Ta  Ta117  1  0.09498610  0.51230947  0.12964626  1
  Ta  Ta118  1  0.01619897  0.81332934  0.23710832  1
  Ta  Ta119  1  0.09124418  0.30102312  0.37737612  1
  Ti  Ti120  1  0.79927109  0.39350743  -0.00333477  1
  Ti  Ti121  1  0.10614305  0.10889619  0.63397430  1
  Ti  Ti122  1  0.30479818  0.08476439  0.87694886  1
  Ti  Ti123  1  0.18203438  -0.01154533  0.23307451  1
  Ti  Ti124  1  0.10605890  0.50200293  0.60909926  1
  Ti  Ti125  1  0.79018611  0.38996224  0.73777002  1
  Ti  Ti126  1  0.69451205  0.29592931  0.10638334  1
  Ti  Ti127  1  0.29706268  0.88748667  0.89463202  1
  Ti  Ti128  1  0.59417670  0.39945871  0.75140089  1
  Ti  Ti129  1  0.20175663  0.00084921  0.75586932  1
  Ti  Ti130  1  -0.00435397  0.20541825  0.24960095  1
  Ti  Ti131  1  -0.00548408  0.40883511  -0.00360018  1
  Ti  Ti132  1  0.40596287  0.21296413  0.25502976  1
  Ti  Ti133  1  0.58802671  -0.00136708  0.75921121  1
  Ti  Ti134  1  0.69568043  0.10870979  0.88351422  1
  Ti  Ti135  1  0.51289598  0.29162172  0.87663984  1
  Ti  Ti136  1  0.69737015  0.49616377  0.37936514  1
  Ti  Ti137  1  0.50536118  0.29769950  0.11081471  1
  Ti  Ti138  1  0.88627903  0.29955004  0.12596122  1
  Ti  Ti139  1  0.31390216  0.50011983  0.38943389  1
  Ti  Ti140  1  0.60390151  0.79455620  -0.00419296  1
  Ti  Ti141  1  0.29236095  0.87815266  0.36279417  1
  Ti  Ti142  1  -0.01854931  0.62094724  0.76364238  1
  Ti  Ti143  1  0.48697196  0.69766146  0.39084032  1
  Ti  Ti144  1  0.20420797  0.80554950  0.50361354  1
  Ti  Ti145  1  0.28797046  0.87592338  0.11733419  1
  Ti  Ti146  1  0.79942571  0.00139021  0.51194510  1
  Ti  Ti147  1  0.80381881  0.78390422  0.51107231  1
  Ti  Ti148  1  0.19862561  0.59824050  -0.00788368  1
  Ti  Ti149  1  0.30473854  0.29575128  0.62277655  1
  Ti  Ti150  1  0.50850560  0.70586859  0.61250036  1
  Ti  Ti151  1  0.79738243  0.00194247  0.24253172  1
  Ti  Ti152  1  0.08715874  0.11221039  0.86333029  1
  Ti  Ti153  1  0.12024960  0.70507811  0.12717170  1
  Ti  Ti154  1  0.79474185  0.20634430  0.25119704  1
  Ti  Ti155  1  -0.00119585  0.40039603  0.25432708  1
  Ti  Ti156  1  0.60087368  0.00152563  -0.00270195  1
  Ti  Ti157  1  0.11221180  0.70671713  0.87693003  1
  Ti  Ti158  1  0.79334660  0.39465012  0.25004047  1
  Ti  Ti159  1  0.89110226  0.11006836  0.86173370  1
  Mo  Mo160  1  0.89978414  0.31709431  0.63785047  1
  Mo  Mo161  1  0.09803636  0.51052061  0.87358185  1
  Mo  Mo162  1  0.79835476  0.59082909  0.75784026  1
  Mo  Mo163  1  0.69550868  0.48622990  0.86383122  1
  Mo  Mo164  1  0.60544418  0.39134097  -0.00591429  1
  Mo  Mo165  1  0.31043941  0.29694332  0.87283702  1
  Mo  Mo166  1  0.00655315  0.20264186  0.75088497  1
  Mo  Mo167  1  0.80089768  0.59889587  0.24612357  1
  Mo  Mo168  1  0.69724267  0.09041337  0.62463198  1
  Mo  Mo169  1  0.40383589  0.60560620  0.51356438  1
  Mo  Mo170  1  0.90113308  0.70411910  0.88001087  1
  Mo  Mo171  1  0.79263585  0.20131613  0.75381203  1
  Mo  Mo172  1  0.39713111  0.79761240  0.75063734  1
  Mo  Mo173  1  0.30370421  0.90366889  0.62717771  1
  Mo  Mo174  1  0.48183469  0.89223656  0.63115802  1
  Mo  Mo175  1  0.59928684  0.19907838  -0.01001560  1
  Mo  Mo176  1  0.08731100  0.10566511  0.14074616  1
  Mo  Mo177  1  0.50534372  0.09033014  0.87235650  1
  Mo  Mo178  1  0.70538350  0.28892751  0.62350357  1
  Mo  Mo179  1  -0.00369557  0.00910819  0.24347807  1
  Mo  Mo180  1  0.09860552  0.89761092  0.12568807  1
  Mo  Mo181  1  0.80471935  0.20639474  -0.00255126  1
  Mo  Mo182  1  0.39244790  -0.00130134  0.49090644  1
  Mo  Mo183  1  0.70104454  0.90332794  0.12212737  1
  Mo  Mo184  1  0.40061596  0.58639707  0.25679998  1
  Mo  Mo185  1  0.31505268  0.70775736  0.38951803  1
  Mo  Mo186  1  0.38992694  0.39501385  0.50808633  1
  Mo  Mo187  1  0.39559406  0.59001970  -0.01098575  1
  Mo  Mo188  1  0.40987125  0.78970530  0.01466383  1
  Mo  Mo189  1  0.20080353  0.78829318  0.00259315  1
  Mo  Mo190  1  0.89869251  0.71107997  0.62491286  1
  Mo  Mo191  1  0.59407683  0.79040429  0.50020738  1
  Mo  Mo192  1  0.60208733  0.39408974  0.50446338  1
  Mo  Mo193  1  0.21279660  0.40807207  0.73899504  1
  Mo  Mo194  1  0.50826021  0.69562809  0.88014118  1
  Mo  Mo195  1  0.30127695  0.30122634  0.37875396  1
  Mo  Mo196  1  0.50056915  0.69625065  0.11749088  1
  Mo  Mo197  1  0.79915970  0.59795539  0.49863709  1
  Mo  Mo198  1  0.20920358  0.80524460  0.24202389  1
  Mo  Mo199  1  0.59953511  0.58934134  0.75079808  1
