# generated using pymatgen
data_HfZrTaTiMo
_symmetry_space_group_name_H-M   'P 1'
_cell_length_a   15.20134177
_cell_length_b   15.20960701
_cell_length_c   16.84114150
_cell_angle_alpha   90.04712537
_cell_angle_beta   89.93504291
_cell_angle_gamma   89.93506329
_symmetry_Int_Tables_number   1
_chemical_formula_structural   HfZrTaTiMo
_chemical_formula_sum   'Hf40 Zr40 Ta40 Ti40 Mo40'
_cell_volume   3893.77395448
_cell_formula_units_Z   40
loop_
 _symmetry_equiv_pos_site_id
 _symmetry_equiv_pos_as_xyz
  1  'x, y, z'
loop_
 _atom_site_type_symbol
 _atom_site_label
 _atom_site_symmetry_multiplicity
 _atom_site_fract_x
 _atom_site_fract_y
 _atom_site_fract_z
 _atom_site_occupancy
  Hf  Hf0  1  0.19935287  0.41545228  0.49855869  1
  Hf  Hf1  1  0.29021187  0.69172294  0.63423290  1
  Hf  Hf2  1  0.28935565  0.30068467  0.11582994  1
  Hf  Hf3  1  0.81203101  -0.00688959  0.77053050  1
  Hf  Hf4  1  -0.00397027  0.40317518  0.74714118  1
  Hf  Hf5  1  0.60709317  0.00317524  -0.01679427  1
  Hf  Hf6  1  0.19983866  0.79718691  0.50115379  1
  Hf  Hf7  1  0.40437123  0.61121925  0.49529517  1
  Hf  Hf8  1  0.18999904  0.17108748  0.72705526  1
  Hf  Hf9  1  -0.00737472  0.19496860  0.50324025  1
  Hf  Hf10  1  0.49986310  0.29233286  0.38344086  1
  Hf  Hf11  1  0.20179416  0.19002465  0.51223392  1
  Hf  Hf12  1  0.08979726  0.27649782  0.85643508  1
  Hf  Hf13  1  0.50455127  0.29994338  0.62530276  1
  Hf  Hf14  1  -0.00267986  0.01390542  -0.01985773  1
  Hf  Hf15  1  0.88478283  0.30266647  0.61696914  1
  Hf  Hf16  1  0.01947702  0.00662561  0.74482361  1
  Hf  Hf17  1  0.31005224  0.30287014  0.61405023  1
  Hf  Hf18  1  0.10342348  0.89073187  0.87410449  1
  Hf  Hf19  1  -0.01752958  0.80145022  0.75432292  1
  Hf  Hf20  1  0.59342829  0.20236690  0.23781607  1
  Hf  Hf21  1  0.20870497  0.40034345  0.73876515  1
  Hf  Hf22  1  0.09359744  0.10986611  0.12785285  1
  Hf  Hf23  1  0.09428054  0.69082255  0.14238826  1
  Hf  Hf24  1  0.58490727  0.80210934  0.49806475  1
  Hf  Hf25  1  0.00333785  0.20169037  0.26547251  1
  Hf  Hf26  1  -0.01487862  0.80518555  0.25052122  1
  Hf  Hf27  1  0.89135146  0.89219965  0.62056744  1
  Hf  Hf28  1  0.29391749  0.90767631  0.87273360  1
  Hf  Hf29  1  0.12377250  0.49800294  0.87250729  1
  Hf  Hf30  1  0.70761518  0.51533976  0.12847694  1
  Hf  Hf31  1  0.59329342  0.20854715  -0.00925514  1
  Hf  Hf32  1  0.49718433  0.09928174  0.11326110  1
  Hf  Hf33  1  0.80554827  0.20460344  0.24755204  1
  Hf  Hf34  1  0.69443350  0.10087757  0.37440377  1
  Hf  Hf35  1  0.79846874  0.18927296  -0.01847600  1
  Hf  Hf36  1  0.09349907  0.90551486  0.12180042  1
  Hf  Hf37  1  0.71083352  0.70893752  0.35503403  1
  Hf  Hf38  1  0.80999959  0.39676554  0.01162166  1
  Hf  Hf39  1  0.02699094  0.38764516  0.00798610  1
  Zr  Zr40  1  0.89492517  0.08939196  0.12202546  1
  Zr  Zr41  1  0.40381700  0.40062780  -0.00223258  1
  Zr  Zr42  1  0.19964182  0.39112549  0.26492485  1
  Zr  Zr43  1  0.17967274  0.20217203  -0.00292873  1
  Zr  Zr44  1  0.71373721  0.52275533  0.89570881  1
  Zr  Zr45  1  0.00718317  0.61126474  0.75368697  1
  Zr  Zr46  1  0.40567435  0.38936013  0.24700168  1
  Zr  Zr47  1  0.30042807  0.69515933  0.36123515  1
  Zr  Zr48  1  0.79451405  0.42136015  0.75811763  1
  Zr  Zr49  1  0.19510138  0.59835763  0.00221190  1
  Zr  Zr50  1  0.50223654  0.71043275  0.63504497  1
  Zr  Zr51  1  0.50206971  0.09138884  0.37612922  1
  Zr  Zr52  1  0.08761913  0.30766893  0.61782134  1
  Zr  Zr53  1  0.61517216  0.60323287  0.48725716  1
  Zr  Zr54  1  0.30997473  0.08811799  0.38967524  1
  Zr  Zr55  1  0.70229018  0.31174061  0.37053527  1
  Zr  Zr56  1  0.39156579  0.20115501  0.75283134  1
  Zr  Zr57  1  0.40522072  0.60302869  -0.01462526  1
  Zr  Zr58  1  0.30508859  0.69209522  0.13665360  1
  Zr  Zr59  1  0.50405087  0.50747970  0.35876002  1
  Zr  Zr60  1  0.40125062  0.79893234  0.76482106  1
  Zr  Zr61  1  0.60569079  0.41173599  0.49497361  1
  Zr  Zr62  1  0.68647612  0.88837548  0.63314402  1
  Zr  Zr63  1  0.91817092  0.51103563  0.89649427  1
  Zr  Zr64  1  -0.00411044  0.79011240  -0.00071010  1
  Zr  Zr65  1  0.20578155  0.19395359  0.25970474  1
  Zr  Zr66  1  0.29823852  0.90569980  0.11366568  1
  Zr  Zr67  1  0.59761405  0.40534969  0.01383209  1
  Zr  Zr68  1  0.10506032  0.08409011  0.38483710  1
  Zr  Zr69  1  0.89090513  0.88678812  0.38814502  1
  Zr  Zr70  1  0.51754323  0.50400369  0.63702458  1
  Zr  Zr71  1  0.39915942  0.00039232  0.23952316  1
  Zr  Zr72  1  0.59981276  0.79796107  0.00975051  1
  Zr  Zr73  1  -0.00548124  0.39617165  0.24770263  1
  Zr  Zr74  1  0.40091066  0.79441370  -0.00574729  1
  Zr  Zr75  1  0.79576422  -0.01593872  0.25037608  1
  Zr  Zr76  1  0.89395019  0.09381096  0.38607214  1
  Zr  Zr77  1  0.69529204  0.31354362  0.63551872  1
  Zr  Zr78  1  0.59727158  -0.00269469  0.76599582  1
  Zr  Zr79  1  0.70150583  0.10683524  0.64242078  1
  Ta  Ta80  1  0.10332403  0.51822672  0.62220342  1
  Ta  Ta81  1  0.87733618  0.70315811  0.88886262  1
  Ta  Ta82  1  0.80109230  -0.00892749  -0.02392598  1
  Ta  Ta83  1  0.09091396  0.51012321  0.37148865  1
  Ta  Ta84  1  0.39604682  0.20145847  0.24506270  1
  Ta  Ta85  1  0.27101337  0.69429489  0.86222370  1
  Ta  Ta86  1  0.80490732  0.40327646  0.23746948  1
  Ta  Ta87  1  0.40955685  0.80487463  0.23745150  1
  Ta  Ta88  1  0.30491157  0.89531601  0.37650311  1
  Ta  Ta89  1  0.78547374  0.77757543  0.75157186  1
  Ta  Ta90  1  0.09482298  0.30714585  0.39539697  1
  Ta  Ta91  1  0.28938821  0.30954323  0.87792911  1
  Ta  Ta92  1  0.51845192  0.49828791  0.86772443  1
  Ta  Ta93  1  0.68615105  0.90534048  0.37833438  1
  Ta  Ta94  1  0.49608630  0.90153158  0.37185127  1
  Ta  Ta95  1  0.30620213  0.29568941  0.39346079  1
  Ta  Ta96  1  0.48553769  0.10028140  0.87703621  1
  Ta  Ta97  1  0.62519045  0.61002449  0.75610230  1
  Ta  Ta98  1  0.19894368  0.80980884  0.25283175  1
  Ta  Ta99  1  0.30539081  0.89113310  0.63143071  1
  Ta  Ta100  1  0.78834846  0.00529083  0.50748485  1
  Ta  Ta101  1  0.39055462  0.00465791  0.74649773  1
  Ta  Ta102  1  0.89610362  0.30840720  0.39218970  1
  Ta  Ta103  1  0.00188626  0.78546405  0.50020833  1
  Ta  Ta104  1  0.09588925  0.69839873  0.36224774  1
  Ta  Ta105  1  0.49330922  0.51592092  0.13543198  1
  Ta  Ta106  1  0.40143731  0.59491832  0.76675119  1
  Ta  Ta107  1  0.40874071  0.39944761  0.76099738  1
  Ta  Ta108  1  0.10931723  0.49451208  0.13354465  1
  Ta  Ta109  1  0.70495107  0.29338815  0.12290663  1
  Ta  Ta110  1  0.80329710  0.20428523  0.76869103  1
  Ta  Ta111  1  0.29758657  0.50180702  0.13526175  1
  Ta  Ta112  1  0.61190837  0.19409134  0.50699269  1
  Ta  Ta113  1  0.89740293  0.10084099  0.62779524  1
  Ta  Ta114  1  0.49963229  0.09416705  0.63061260  1
  Ta  Ta115  1  0.89787199  0.50688384  0.61808122  1
  Ta  Ta116  1  0.31075687  0.50404300  0.62699947  1
  Ta  Ta117  1  0.50148729  0.71492745  0.35868236  1
  Ta  Ta118  1  0.59382114  0.00004869  0.51050257  1
  Ta  Ta119  1  0.00545709  -0.01463390  0.51479360  1
  Ti  Ti120  1  0.19453151  0.60521771  0.49600406  1
  Ti  Ti121  1  -0.00015120  0.59533256  0.49537958  1
  Ti  Ti122  1  0.40035689  0.00052246  -0.00494984  1
  Ti  Ti123  1  0.70021951  0.09621738  0.12116788  1
  Ti  Ti124  1  0.70724132  0.87489020  0.87498897  1
  Ti  Ti125  1  0.10200883  0.89458774  0.37774931  1
  Ti  Ti126  1  0.40359154  0.41153516  0.49504181  1
  Ti  Ti127  1  0.20260211  -0.01024294  0.52063141  1
  Ti  Ti128  1  0.60079266  0.61279635  0.24309943  1
  Ti  Ti129  1  0.90128322  0.30260192  0.87699620  1
  Ti  Ti130  1  0.70913175  0.71255044  0.13621401  1
  Ti  Ti131  1  0.60146343  0.82282932  0.23797616  1
  Ti  Ti132  1  0.19755883  0.00313465  -0.00237297  1
  Ti  Ti133  1  0.29852584  0.50239797  0.36799191  1
  Ti  Ti134  1  0.79076195  0.79165817  0.50127095  1
  Ti  Ti135  1  0.91286544  0.28532818  0.11709044  1
  Ti  Ti136  1  0.00282262  -0.00252025  0.25633549  1
  Ti  Ti137  1  0.59306717  0.21059779  0.77024011  1
  Ti  Ti138  1  0.19884790  -0.00351915  0.24992369  1
  Ti  Ti139  1  0.89273337  0.69681484  0.12917794  1
  Ti  Ti140  1  0.40546236  -0.02391421  0.51525414  1
  Ti  Ti141  1  0.88846542  0.89353605  0.11611198  1
  Ti  Ti142  1  0.89816719  0.69169674  0.61827370  1
  Ti  Ti143  1  0.70150458  0.90908189  0.11870004  1
  Ti  Ti144  1  0.91481332  0.51370150  0.11981473  1
  Ti  Ti145  1  0.50143997  0.89405321  0.87552588  1
  Ti  Ti146  1  0.80379708  0.59856615  0.48980090  1
  Ti  Ti147  1  0.19799164  0.79393056  0.00022669  1
  Ti  Ti148  1  0.90395902  0.68779567  0.36610330  1
  Ti  Ti149  1  0.70798310  0.68316846  0.62248385  1
  Ti  Ti150  1  0.68938628  0.31664301  0.87288092  1
  Ti  Ti151  1  0.59587573  0.61085814  0.01010250  1
  Ti  Ti152  1  0.29572713  0.10148443  0.11627251  1
  Ti  Ti153  1  0.28341457  0.10232900  0.87372425  1
  Ti  Ti154  1  0.41088426  0.18481508  0.50938089  1
  Ti  Ti155  1  0.79654764  0.41414127  0.49632897  1
  Ti  Ti156  1  0.89137405  0.50046321  0.36937159  1
  Ti  Ti157  1  0.39358392  0.20176530  -0.01005737  1
  Ti  Ti158  1  0.17799858  0.79322640  0.73924610  1
  Ti  Ti159  1  0.60542159  0.40044435  0.23577577  1
  Mo  Mo160  1  0.71669960  0.51117679  0.62357091  1
  Mo  Mo161  1  0.49633401  0.29998484  0.87163947  1
  Mo  Mo162  1  0.20441546  0.59904050  0.74388390  1
  Mo  Mo163  1  0.49490184  0.90364043  0.63252137  1
  Mo  Mo164  1  0.40484470  0.60038128  0.25254074  1
  Mo  Mo165  1  0.81049715  0.60014458  0.24331416  1
  Mo  Mo166  1  0.91608357  0.11375681  0.86326387  1
  Mo  Mo167  1  0.71223130  0.50689350  0.34435585  1
  Mo  Mo168  1  0.79296902  0.20011627  0.50224821  1
  Mo  Mo169  1  0.00199115  0.59843072  0.00755458  1
  Mo  Mo170  1  0.69538054  0.69916216  0.88549528  1
  Mo  Mo171  1  -0.00874274  0.41602566  0.49443250  1
  Mo  Mo172  1  0.60064636  0.40706256  0.75949218  1
  Mo  Mo173  1  0.19628150  0.59420370  0.25439373  1
  Mo  Mo174  1  0.21068343  0.40257320  0.00142112  1
  Mo  Mo175  1  0.30843073  0.49804389  0.86763963  1
  Mo  Mo176  1  0.11151593  0.09027951  0.86820060  1
  Mo  Mo177  1  0.30944887  0.08745355  0.61394209  1
  Mo  Mo178  1  0.20833157  -0.01627164  0.73469642  1
  Mo  Mo179  1  0.49997359  0.29959034  0.12692957  1
  Mo  Mo180  1  -0.01327125  0.19758150  0.73612371  1
  Mo  Mo181  1  0.81519026  0.60872437  0.74967281  1
  Mo  Mo182  1  0.69788093  0.10572867  0.86683343  1
  Mo  Mo183  1  -0.00509907  0.59474857  0.25347320  1
  Mo  Mo184  1  0.79650120  0.80510901  0.00920505  1
  Mo  Mo185  1  0.79486890  0.80306208  0.24290479  1
  Mo  Mo186  1  0.08897145  0.69810258  0.61528739  1
  Mo  Mo187  1  0.09051744  0.69574355  0.87847296  1
  Mo  Mo188  1  0.59832773  -0.00355404  0.23940566  1
  Mo  Mo189  1  0.89710736  0.89434264  0.87444752  1
  Mo  Mo190  1  0.51655780  0.69391759  0.86804888  1
  Mo  Mo191  1  0.09418687  0.08865058  0.61221788  1
  Mo  Mo192  1  0.39602308  0.80291495  0.49786884  1
  Mo  Mo193  1  0.60071487  0.79609575  0.75800318  1
  Mo  Mo194  1  0.80432420  0.61560051  0.02001518  1
  Mo  Mo195  1  0.50936655  0.70165045  0.13906164  1
  Mo  Mo196  1  0.09890721  0.30136392  0.13070638  1
  Mo  Mo197  1  0.50797099  0.90736972  0.12118681  1
  Mo  Mo198  1  0.09934204  0.88474116  0.62321528  1
  Mo  Mo199  1  -0.01137486  0.20250447  -0.00518773  1
