# generated using pymatgen
data_HfZrTaTiMo
_symmetry_space_group_name_H-M   'P 1'
_cell_length_a   15.20511856
_cell_length_b   15.21712551
_cell_length_c   16.85637383
_cell_angle_alpha   89.94415483
_cell_angle_beta   89.94169807
_cell_angle_gamma   90.01124429
_symmetry_Int_Tables_number   1
_chemical_formula_structural   HfZrTaTiMo
_chemical_formula_sum   'Hf40 Zr40 Ta40 Ti40 Mo40'
_cell_volume   3900.19344647
_cell_formula_units_Z   40
loop_
 _symmetry_equiv_pos_site_id
 _symmetry_equiv_pos_as_xyz
  1  'x, y, z'
loop_
 _atom_site_type_symbol
 _atom_site_label
 _atom_site_symmetry_multiplicity
 _atom_site_fract_x
 _atom_site_fract_y
 _atom_site_fract_z
 _atom_site_occupancy
  Hf  Hf0  1  0.29734417  0.70191581  0.64044483  1
  Hf  Hf1  1  0.50605366  0.10815193  0.12335670  1
  Hf  Hf2  1  0.41069199  0.00780826  0.26139193  1
  Hf  Hf3  1  0.39368145  0.80985297  0.25196464  1
  Hf  Hf4  1  0.00558501  0.40327132  0.25287514  1
  Hf  Hf5  1  0.00696614  0.81480788  0.26141512  1
  Hf  Hf6  1  0.10088069  0.49971432  0.11323257  1
  Hf  Hf7  1  0.70495092  0.29212230  0.86613682  1
  Hf  Hf8  1  0.11485821  0.30212797  0.63295778  1
  Hf  Hf9  1  0.88832196  0.90044852  0.62686318  1
  Hf  Hf10  1  0.39280366  0.79393819  0.00240995  1
  Hf  Hf11  1  0.88531677  0.10809517  0.87478603  1
  Hf  Hf12  1  -0.00412417  -0.00191365  0.49607763  1
  Hf  Hf13  1  0.31346492  0.50169713  0.87335427  1
  Hf  Hf14  1  -0.00402888  0.60690093  0.51422752  1
  Hf  Hf15  1  0.20750928  0.60923814  -0.00795428  1
  Hf  Hf16  1  0.19847989  0.79089493  0.49411635  1
  Hf  Hf17  1  -0.00815227  0.80185929  0.48916946  1
  Hf  Hf18  1  0.70346759  0.68350839  0.37575542  1
  Hf  Hf19  1  0.30227896  0.29725059  0.12617450  1
  Hf  Hf20  1  0.39003654  -0.00273064  0.00040134  1
  Hf  Hf21  1  0.69798902  0.91908663  0.10976472  1
  Hf  Hf22  1  0.77912463  0.58473576  -0.00485970  1
  Hf  Hf23  1  0.10537208  0.09629223  0.61316336  1
  Hf  Hf24  1  0.39686283  0.60644186  0.51274854  1
  Hf  Hf25  1  0.78641640  0.17885542  0.02332864  1
  Hf  Hf26  1  0.60163737  0.80572845  0.24619802  1
  Hf  Hf27  1  0.41636432  0.00155786  0.75035591  1
  Hf  Hf28  1  0.60252515  0.39198136  0.51041221  1
  Hf  Hf29  1  0.51606809  0.50119993  0.86032436  1
  Hf  Hf30  1  0.30622909  0.11171988  0.37891144  1
  Hf  Hf31  1  0.80303407  -0.00470435  0.25294227  1
  Hf  Hf32  1  0.09762957  0.10141243  0.86644278  1
  Hf  Hf33  1  0.28734614  0.49665752  0.37801492  1
  Hf  Hf34  1  0.20386393  0.39156250  -0.00466127  1
  Hf  Hf35  1  0.80568964  0.38639161  -0.00708474  1
  Hf  Hf36  1  0.89955019  0.51251383  0.37835261  1
  Hf  Hf37  1  0.10479940  0.49756554  0.64327486  1
  Hf  Hf38  1  0.91028219  0.90470424  0.11626938  1
  Hf  Hf39  1  0.09710633  0.87938198  0.62862809  1
  Zr  Zr40  1  0.79534547  0.20843636  0.50827956  1
  Zr  Zr41  1  -0.00535007  0.59604078  -0.01680404  1
  Zr  Zr42  1  0.78025148  0.19930845  0.24242762  1
  Zr  Zr43  1  0.90162560  0.69710907  0.12001844  1
  Zr  Zr44  1  0.30439441  0.89587639  0.85751906  1
  Zr  Zr45  1  0.60021381  0.59584246  0.24874019  1
  Zr  Zr46  1  0.29070293  0.08515178  0.13268168  1
  Zr  Zr47  1  0.89976974  0.30755541  0.37886802  1
  Zr  Zr48  1  0.69848260  0.08440657  0.61298038  1
  Zr  Zr49  1  0.01231778  0.00845342  0.00189363  1
  Zr  Zr50  1  0.59565858  0.39858847  0.26040176  1
  Zr  Zr51  1  0.58884600  0.22199799  -0.00652415  1
  Zr  Zr52  1  0.71446470  0.49851565  0.64457854  1
  Zr  Zr53  1  0.01198100  0.61953443  0.75608566  1
  Zr  Zr54  1  0.59122300  0.19631969  0.48622992  1
  Zr  Zr55  1  0.49744926  0.49921096  0.38846257  1
  Zr  Zr56  1  0.30715485  0.90277396  0.62292700  1
  Zr  Zr57  1  0.42486305  0.39444608  -0.00718110  1
  Zr  Zr58  1  0.10002496  0.67874091  0.36819381  1
  Zr  Zr59  1  0.89498206  0.31736611  0.63136168  1
  Zr  Zr60  1  0.10071805  0.10921594  0.38676355  1
  Zr  Zr61  1  0.49774601  0.50926302  0.64297288  1
  Zr  Zr62  1  0.09537906  0.70873859  0.12283214  1
  Zr  Zr63  1  0.49931169  0.09711381  0.61741192  1
  Zr  Zr64  1  -0.01365334  0.00196929  0.74430460  1
  Zr  Zr65  1  0.61502408  0.60419720  0.51403991  1
  Zr  Zr66  1  0.60108340  0.82094772  0.76533644  1
  Zr  Zr67  1  0.89579212  0.10819309  0.37438953  1
  Zr  Zr68  1  0.19913056  0.00172144  0.74328487  1
  Zr  Zr69  1  -0.01026185  0.21054346  0.00594134  1
  Zr  Zr70  1  0.19632460  0.81671044  -0.01671608  1
  Zr  Zr71  1  0.77589310  -0.00883986  0.75640166  1
  Zr  Zr72  1  0.30475706  0.69549921  0.36934196  1
  Zr  Zr73  1  0.79877842  0.79305477  -0.00613949  1
  Zr  Zr74  1  0.12940755  0.91092804  0.12805483  1
  Zr  Zr75  1  0.40297984  0.58759710  0.23793432  1
  Zr  Zr76  1  0.79810926  0.59514403  0.23768764  1
  Zr  Zr77  1  0.19149484  0.19842338  0.24913252  1
  Zr  Zr78  1  0.69461216  0.87902492  0.61532649  1
  Zr  Zr79  1  0.59404479  0.79179666  -0.00433013  1
  Ta  Ta80  1  0.59865382  0.18362742  0.75378693  1
  Ta  Ta81  1  0.10536263  0.49112651  0.86478824  1
  Ta  Ta82  1  0.89979755  0.48715207  0.11996894  1
  Ta  Ta83  1  0.39512556  0.21809047  0.49645945  1
  Ta  Ta84  1  0.29323965  0.70842437  0.13113500  1
  Ta  Ta85  1  0.19763226  0.59225312  0.23876680  1
  Ta  Ta86  1  0.49168235  0.69694880  0.86490851  1
  Ta  Ta87  1  0.79516570  0.40500319  0.24875451  1
  Ta  Ta88  1  0.10861259  0.31152585  0.38409002  1
  Ta  Ta89  1  0.90258333  0.50679470  0.64622524  1
  Ta  Ta90  1  0.89921807  0.48860695  0.85321734  1
  Ta  Ta91  1  0.79675247  0.19415477  0.73445230  1
  Ta  Ta92  1  0.00951372  0.01156733  0.25018464  1
  Ta  Ta93  1  0.30051618  0.11299881  0.60902597  1
  Ta  Ta94  1  0.10100416  0.29678120  0.86161211  1
  Ta  Ta95  1  0.30050319  0.29356399  0.87353125  1
  Ta  Ta96  1  0.89251682  0.90626854  0.88374664  1
  Ta  Ta97  1  0.19044184  0.18814564  0.00361374  1
  Ta  Ta98  1  0.49617045  0.10708486  0.88088166  1
  Ta  Ta99  1  0.21001551  0.39369373  0.50746029  1
  Ta  Ta100  1  0.00998354  0.41114326  0.50293376  1
  Ta  Ta101  1  0.19485122  0.58808107  0.51503590  1
  Ta  Ta102  1  0.79852746  0.80085278  0.24456226  1
  Ta  Ta103  1  0.68513601  0.31544134  0.12393655  1
  Ta  Ta104  1  0.49627564  0.90596619  0.12207751  1
  Ta  Ta105  1  0.40005153  0.20188649  0.75200093  1
  Ta  Ta106  1  0.79948157  -0.01363592  0.48591836  1
  Ta  Ta107  1  0.20625831  -0.02241510  0.27462022  1
  Ta  Ta108  1  0.38805011  0.19996087  -0.00459895  1
  Ta  Ta109  1  -0.00289736  0.19689337  0.73409521  1
  Ta  Ta110  1  0.41061322  0.60211038  0.00509712  1
  Ta  Ta111  1  0.89395138  0.70645332  0.36716128  1
  Ta  Ta112  1  0.20138199  0.40511111  0.24561290  1
  Ta  Ta113  1  0.88553656  0.70370919  0.63641735  1
  Ta  Ta114  1  0.29682009  0.10224908  0.87528004  1
  Ta  Ta115  1  0.09562790  0.30062570  0.12383314  1
  Ta  Ta116  1  0.50398103  0.90207319  0.61377711  1
  Ta  Ta117  1  0.38936025  0.39505218  0.74437449  1
  Ta  Ta118  1  0.40927747  0.00485430  0.48829210  1
  Ta  Ta119  1  0.00185896  0.21144175  0.51366635  1
  Ti  Ti120  1  0.50881370  0.90418553  0.38054881  1
  Ti  Ti121  1  0.60104377  0.37972361  0.74332986  1
  Ti  Ti122  1  0.58043140  0.19954035  0.26526495  1
  Ti  Ti123  1  -0.00565401  0.20210695  0.24323087  1
  Ti  Ti124  1  0.21096894  0.20300168  0.74592746  1
  Ti  Ti125  1  0.21311954  0.59041483  0.75200003  1
  Ti  Ti126  1  0.39627722  0.40288626  0.51676317  1
  Ti  Ti127  1  0.18063237  0.78681452  0.76157558  1
  Ti  Ti128  1  0.69775178  0.30892890  0.37606621  1
  Ti  Ti129  1  0.30690397  0.69722369  0.85870697  1
  Ti  Ti130  1  0.51029769  0.91330837  0.88678034  1
  Ti  Ti131  1  0.61520817  0.62372030  0.74600732  1
  Ti  Ti132  1  -0.00887257  0.80526681  0.76760125  1
  Ti  Ti133  1  0.79055729  0.78909345  0.76815512  1
  Ti  Ti134  1  0.30295589  0.30618599  0.37158993  1
  Ti  Ti135  1  0.49746766  0.69850399  0.12524067  1
  Ti  Ti136  1  0.79860537  0.78302845  0.49558673  1
  Ti  Ti137  1  0.49730063  0.29280153  0.63089046  1
  Ti  Ti138  1  0.50170573  0.70231548  0.37480343  1
  Ti  Ti139  1  0.90687932  0.29911720  0.85473852  1
  Ti  Ti140  1  0.70546535  0.88783240  0.37601517  1
  Ti  Ti141  1  0.50269002  0.71783839  0.63720077  1
  Ti  Ti142  1  0.59572134  0.79536874  0.49453778  1
  Ti  Ti143  1  0.52725201  0.49357216  0.11089188  1
  Ti  Ti144  1  0.60592930  0.00492832  0.25348589  1
  Ti  Ti145  1  0.69031325  0.69236015  0.12126582  1
  Ti  Ti146  1  0.00142206  0.39724470  -0.01112494  1
  Ti  Ti147  1  0.88877405  0.69245788  0.87240280  1
  Ti  Ti148  1  0.70540353  0.50038543  0.85499546  1
  Ti  Ti149  1  -0.00030613  0.59616696  0.24506120  1
  Ti  Ti150  1  0.49575463  0.30291581  0.13064785  1
  Ti  Ti151  1  0.39951151  0.39538332  0.25039397  1
  Ti  Ti152  1  0.68786332  0.08236386  0.88528973  1
  Ti  Ti153  1  0.20618515  -0.00926425  0.48738824  1
  Ti  Ti154  1  0.40292847  0.80465070  0.49366684  1
  Ti  Ti155  1  0.80032708  0.41915757  0.50275602  1
  Ti  Ti156  1  0.89517167  0.30048392  0.13218619  1
  Ti  Ti157  1  0.69161982  0.09040714  0.38070095  1
  Ti  Ti158  1  0.30897025  0.49813940  0.11780669  1
  Ti  Ti159  1  0.00556443  0.79893673  -0.02397097  1
  Mo  Mo160  1  0.61833759  0.41428577  -0.01142858  1
  Mo  Mo161  1  0.40534884  0.21367479  0.25520784  1
  Mo  Mo162  1  0.40579263  0.60397982  0.74678101  1
  Mo  Mo163  1  0.20384177  0.20813256  0.49826879  1
  Mo  Mo164  1  0.68815783  0.29219520  0.63761415  1
  Mo  Mo165  1  0.50300959  0.10066751  0.37440621  1
  Mo  Mo166  1  0.70112567  0.90487518  0.89563781  1
  Mo  Mo167  1  0.20236553  0.01099140  -0.00891939  1
  Mo  Mo168  1  0.79730550  0.39238068  0.75585724  1
  Mo  Mo169  1  0.70371533  0.49296430  0.11880978  1
  Mo  Mo170  1  0.40757015  0.79872364  0.75006928  1
  Mo  Mo171  1  0.80250351  0.00229104  0.00056127  1
  Mo  Mo172  1  0.29744070  0.49547985  0.62763190  1
  Mo  Mo173  1  0.89937137  0.10273301  0.61588358  1
  Mo  Mo174  1  0.08870763  0.90035094  0.86491199  1
  Mo  Mo175  1  0.81133124  0.60395230  0.50774456  1
  Mo  Mo176  1  0.09474863  0.10580007  0.13395824  1
  Mo  Mo177  1  0.00459211  0.39704594  0.75544317  1
  Mo  Mo178  1  0.30905344  0.89994024  0.39004068  1
  Mo  Mo179  1  0.59784520  0.01250241  0.00439065  1
  Mo  Mo180  1  0.20734986  0.39589555  0.76083351  1
  Mo  Mo181  1  0.20434644  0.79344884  0.25769422  1
  Mo  Mo182  1  0.89272057  0.89650398  0.37088942  1
  Mo  Mo183  1  0.68721583  0.10760046  0.13569723  1
  Mo  Mo184  1  0.71096971  0.48636511  0.38487699  1
  Mo  Mo185  1  0.49715375  0.30080775  0.85901663  1
  Mo  Mo186  1  0.30790819  0.29816141  0.62832368  1
  Mo  Mo187  1  0.10272750  0.89909542  0.37650183  1
  Mo  Mo188  1  0.10279651  0.49354820  0.37966630  1
  Mo  Mo189  1  0.10555318  0.69781736  0.87422679  1
  Mo  Mo190  1  0.59634045  0.00440968  0.75572722  1
  Mo  Mo191  1  0.60332453  -0.01415777  0.48430831  1
  Mo  Mo192  1  0.70431390  0.70413482  0.62793278  1
  Mo  Mo193  1  0.58958890  0.59599414  -0.00274302  1
  Mo  Mo194  1  0.09930430  0.70288605  0.62772316  1
  Mo  Mo195  1  0.90221455  0.09922597  0.13935243  1
  Mo  Mo196  1  0.80211062  0.60739317  0.76094700  1
  Mo  Mo197  1  0.48331241  0.30211648  0.37658995  1
  Mo  Mo198  1  0.30690525  0.89610024  0.13019940  1
  Mo  Mo199  1  0.68873991  0.68956081  0.87546331  1
