# generated using pymatgen
data_HfZrTaTiMo
_symmetry_space_group_name_H-M   'P 1'
_cell_length_a   15.21898961
_cell_length_b   15.21502713
_cell_length_c   16.81034611
_cell_angle_alpha   90.03024476
_cell_angle_beta   90.02454737
_cell_angle_gamma   89.96440960
_symmetry_Int_Tables_number   1
_chemical_formula_structural   HfZrTaTiMo
_chemical_formula_sum   'Hf40 Zr40 Ta40 Ti40 Mo40'
_cell_volume   3892.55737370
_cell_formula_units_Z   40
loop_
 _symmetry_equiv_pos_site_id
 _symmetry_equiv_pos_as_xyz
  1  'x, y, z'
loop_
 _atom_site_type_symbol
 _atom_site_label
 _atom_site_symmetry_multiplicity
 _atom_site_fract_x
 _atom_site_fract_y
 _atom_site_fract_z
 _atom_site_occupancy
  Hf  Hf0  1  0.09147268  0.52335993  0.11510637  1
  Hf  Hf1  1  0.29098380  0.08342609  0.12352444  1
  Hf  Hf2  1  0.70060584  0.89753843  0.10983863  1
  Hf  Hf3  1  0.40897571  -0.01448664  0.24889780  1
  Hf  Hf4  1  0.47553378  0.10702418  0.64555230  1
  Hf  Hf5  1  0.20317523  0.00831033  0.76396429  1
  Hf  Hf6  1  0.89051395  0.50365112  0.63460334  1
  Hf  Hf7  1  0.40824884  0.39540514  0.24584076  1
  Hf  Hf8  1  -0.00399182  0.20644155  -0.00354565  1
  Hf  Hf9  1  0.62298750  0.79716679  0.76459420  1
  Hf  Hf10  1  0.20876692  0.58472597  0.73555807  1
  Hf  Hf11  1  0.30315368  0.48947435  0.38096028  1
  Hf  Hf12  1  0.11648538  0.91228611  0.36572229  1
  Hf  Hf13  1  0.10062170  0.70067136  0.85929862  1
  Hf  Hf14  1  0.49759947  0.30695051  0.86126319  1
  Hf  Hf15  1  0.29921628  0.29215786  0.12333185  1
  Hf  Hf16  1  0.40873932  0.00459126  0.49933974  1
  Hf  Hf17  1  0.39688693  -0.01097255  -0.01121639  1
  Hf  Hf18  1  0.89885067  0.89689547  0.11917255  1
  Hf  Hf19  1  0.41752518  0.78536727  0.73997166  1
  Hf  Hf20  1  0.09981244  0.11319036  0.37470713  1
  Hf  Hf21  1  0.90134186  0.89689980  0.63826141  1
  Hf  Hf22  1  0.20588017  0.79788280  0.74286432  1
  Hf  Hf23  1  0.81218711  0.79447686  0.47775806  1
  Hf  Hf24  1  -0.01067414  0.41514211  0.24631564  1
  Hf  Hf25  1  0.11421403  0.89547676  0.13296475  1
  Hf  Hf26  1  0.31591073  0.91897528  0.64038938  1
  Hf  Hf27  1  0.70931361  0.70880424  0.62166428  1
  Hf  Hf28  1  0.69296791  0.48832687  0.35659211  1
  Hf  Hf29  1  0.21314716  0.59409790  0.51750731  1
  Hf  Hf30  1  -0.00657073  0.60791342  0.49034845  1
  Hf  Hf31  1  -0.00893980  0.60976117  -0.01313845  1
  Hf  Hf32  1  0.79801597  -0.00409584  0.25047413  1
  Hf  Hf33  1  0.88495705  0.49270430  0.88094896  1
  Hf  Hf34  1  0.71424983  0.31801226  0.86500523  1
  Hf  Hf35  1  0.12271628  0.70668373  0.38195115  1
  Hf  Hf36  1  -0.00008274  0.79677985  0.25983772  1
  Hf  Hf37  1  0.09590023  0.10316230  0.63478860  1
  Hf  Hf38  1  0.52359972  0.91048759  0.63205662  1
  Hf  Hf39  1  0.79495309  -0.00453545  0.50155226  1
  Zr  Zr40  1  0.79079927  0.39503732  0.50123987  1
  Zr  Zr41  1  0.20195084  0.00824266  0.51132989  1
  Zr  Zr42  1  0.20499044  0.78737154  -0.01055347  1
  Zr  Zr43  1  0.60848958  0.81245739  0.49106220  1
  Zr  Zr44  1  0.09197782  0.49253690  0.62642484  1
  Zr  Zr45  1  0.41019592  0.58899867  0.51614922  1
  Zr  Zr46  1  -0.00002171  0.01052020  0.24666687  1
  Zr  Zr47  1  0.40270367  0.58562662  0.72203862  1
  Zr  Zr48  1  0.00157723  0.80932082  -0.00897392  1
  Zr  Zr49  1  -0.00446419  0.20227142  0.50767392  1
  Zr  Zr50  1  0.88708710  0.29786512  0.37521386  1
  Zr  Zr51  1  0.40854945  0.40744085  0.01142439  1
  Zr  Zr52  1  0.60312721  0.60603589  0.48907871  1
  Zr  Zr53  1  0.80279799  0.59621113  0.47958980  1
  Zr  Zr54  1  0.60376017  0.20856227  0.24694062  1
  Zr  Zr55  1  0.20946741  0.80295900  0.51834319  1
  Zr  Zr56  1  0.69450517  0.30737805  0.63819039  1
  Zr  Zr57  1  0.70107630  0.09983783  0.10932036  1
  Zr  Zr58  1  0.10720631  0.30665476  0.37867763  1
  Zr  Zr59  1  0.49627486  0.70261177  0.12964664  1
  Zr  Zr60  1  -0.00799987  0.00012514  0.50236037  1
  Zr  Zr61  1  0.10265823  0.30360854  0.62810197  1
  Zr  Zr62  1  0.48659866  0.50405840  0.87167233  1
  Zr  Zr63  1  0.50255389  0.09427562  0.11588815  1
  Zr  Zr64  1  0.61646628  0.41434556  0.00182229  1
  Zr  Zr65  1  0.29584493  0.08516173  0.36492609  1
  Zr  Zr66  1  0.18925895  -0.00922455  -0.01935124  1
  Zr  Zr67  1  0.70624230  0.68311868  0.13485419  1
  Zr  Zr68  1  0.28216840  0.70007851  0.13003996  1
  Zr  Zr69  1  0.60483585  0.19769262  0.75728875  1
  Zr  Zr70  1  0.08373998  0.70455091  0.63117966  1
  Zr  Zr71  1  0.39735794  0.20018135  -0.00793202  1
  Zr  Zr72  1  0.58309307  0.20338639  0.51155951  1
  Zr  Zr73  1  0.19369627  0.20780754  0.77006593  1
  Zr  Zr74  1  -0.00432819  0.21282814  0.23568400  1
  Zr  Zr75  1  0.59882738  0.80998672  0.25507575  1
  Zr  Zr76  1  0.19650286  0.59936462  0.25817808  1
  Zr  Zr77  1  0.20133776  0.41289767  0.00428399  1
  Zr  Zr78  1  0.19735553  0.39634447  0.24326216  1
  Zr  Zr79  1  0.69425391  0.10554753  0.38151667  1
  Ta  Ta80  1  0.81365014  0.59173464  0.26034627  1
  Ta  Ta81  1  -0.01229355  0.59943685  0.76035416  1
  Ta  Ta82  1  0.40032602  0.19557360  0.24502299  1
  Ta  Ta83  1  0.49173492  0.09733898  0.86789995  1
  Ta  Ta84  1  0.60250293  0.79531317  -0.00892566  1
  Ta  Ta85  1  -0.00523259  0.00108817  0.76707702  1
  Ta  Ta86  1  0.31318982  0.87035372  0.37065064  1
  Ta  Ta87  1  0.60187731  0.20569124  -0.01587789  1
  Ta  Ta88  1  0.10215089  0.49921610  0.87297198  1
  Ta  Ta89  1  0.51084160  0.29941081  0.12195302  1
  Ta  Ta90  1  0.40363900  0.79299192  -0.00772594  1
  Ta  Ta91  1  0.88153239  0.50170591  0.10830669  1
  Ta  Ta92  1  0.40855934  0.79191772  0.51613647  1
  Ta  Ta93  1  0.49532347  0.10889333  0.37440211  1
  Ta  Ta94  1  0.48786433  0.70927008  0.37098952  1
  Ta  Ta95  1  0.60498741  0.00034383  -0.02352005  1
  Ta  Ta96  1  0.38871312  0.60171326  0.00242115  1
  Ta  Ta97  1  0.89611243  0.09809152  0.10946073  1
  Ta  Ta98  1  0.48388896  0.31265699  0.64327702  1
  Ta  Ta99  1  0.09697818  0.10117782  0.11203220  1
  Ta  Ta100  1  0.69428572  0.50790365  0.63049867  1
  Ta  Ta101  1  0.80031658  0.00576043  0.76667687  1
  Ta  Ta102  1  0.19622963  0.19138294  0.23891816  1
  Ta  Ta103  1  0.29773325  0.32030122  0.87171697  1
  Ta  Ta104  1  0.30949806  0.88994861  0.86256719  1
  Ta  Ta105  1  -0.00052154  0.80897117  0.48738957  1
  Ta  Ta106  1  0.50359243  0.69369262  0.87933940  1
  Ta  Ta107  1  0.30115832  0.28100738  0.63301117  1
  Ta  Ta108  1  0.59396835  0.61003604  0.74205460  1
  Ta  Ta109  1  0.40227474  0.60181534  0.25751514  1
  Ta  Ta110  1  -0.01010549  0.40687665  0.49831410  1
  Ta  Ta111  1  0.69117075  0.08586729  0.62934439  1
  Ta  Ta112  1  0.80328600  0.19709448  0.23887880  1
  Ta  Ta113  1  0.79960605  0.19109454  0.52062296  1
  Ta  Ta114  1  0.89257823  0.10150761  0.37402573  1
  Ta  Ta115  1  0.60971253  -0.00219774  0.77227739  1
  Ta  Ta116  1  0.72121846  0.89063331  0.88753840  1
  Ta  Ta117  1  0.19721597  0.20131895  -0.01161620  1
  Ta  Ta118  1  0.79342067  0.39069181  0.23764559  1
  Ta  Ta119  1  0.89885728  0.29999033  0.63813123  1
  Ti  Ti120  1  0.30949381  0.88730084  0.13126005  1
  Ti  Ti121  1  0.88092831  0.70894026  0.86482205  1
  Ti  Ti122  1  0.80467791  0.19320312  0.75170610  1
  Ti  Ti123  1  0.30591633  0.50616028  0.13091707  1
  Ti  Ti124  1  0.69251120  0.29564137  0.37593717  1
  Ti  Ti125  1  -0.00124823  0.60458030  0.25987795  1
  Ti  Ti126  1  0.09218180  0.31487486  0.88175128  1
  Ti  Ti127  1  0.59901090  0.60357398  0.00381449  1
  Ti  Ti128  1  0.69425137  0.51707578  0.87017134  1
  Ti  Ti129  1  0.90984332  0.69238080  0.12790460  1
  Ti  Ti130  1  0.59109013  0.40575585  0.50572816  1
  Ti  Ti131  1  0.89812912  0.70524141  0.63430991  1
  Ti  Ti132  1  -0.00265189  0.39816363  0.75578390  1
  Ti  Ti133  1  0.20721748  0.38694756  0.50281842  1
  Ti  Ti134  1  0.90229928  0.30232692  0.87399766  1
  Ti  Ti135  1  0.30873630  0.68332879  0.86856964  1
  Ti  Ti136  1  0.59591301  0.41944557  0.74808553  1
  Ti  Ti137  1  0.09776840  0.49832082  0.38465661  1
  Ti  Ti138  1  0.80537102  0.79234035  0.26483400  1
  Ti  Ti139  1  0.09604085  0.30522305  0.11361216  1
  Ti  Ti140  1  0.71203906  0.90289731  0.63428348  1
  Ti  Ti141  1  0.50371621  0.89229026  0.87234713  1
  Ti  Ti142  1  0.70398497  0.30567586  0.11550234  1
  Ti  Ti143  1  0.40253020  0.38171404  0.50314097  1
  Ti  Ti144  1  0.09215506  0.90178431  0.63727968  1
  Ti  Ti145  1  0.50439049  0.91073219  0.38115139  1
  Ti  Ti146  1  0.49907939  0.30103401  0.37384287  1
  Ti  Ti147  1  0.60098538  0.00666618  0.24831710  1
  Ti  Ti148  1  0.80369394  0.77992628  0.00020336  1
  Ti  Ti149  1  0.70102143  0.90655244  0.37196295  1
  Ti  Ti150  1  0.50116193  0.49597867  0.36900211  1
  Ti  Ti151  1  0.30569062  0.28116879  0.37535000  1
  Ti  Ti152  1  -0.01122729  0.19527293  0.75804965  1
  Ti  Ti153  1  0.51880710  0.50608030  0.13999712  1
  Ti  Ti154  1  -0.01262836  0.00191267  -0.01834604  1
  Ti  Ti155  1  0.50332518  0.89813557  0.11292627  1
  Ti  Ti156  1  0.79722406  0.19653982  -0.01261710  1
  Ti  Ti157  1  0.78843044  0.60730276  0.75288509  1
  Ti  Ti158  1  0.08915467  0.10514490  0.87877286  1
  Ti  Ti159  1  0.89485091  0.30474403  0.11035715  1
  Mo  Mo160  1  0.19312134  0.40133088  0.75903159  1
  Mo  Mo161  1  0.31315896  0.69098600  0.38041050  1
  Mo  Mo162  1  0.89614046  0.10779123  0.87800631  1
  Mo  Mo163  1  0.51711657  0.70266639  0.62099225  1
  Mo  Mo164  1  0.29867538  0.10415111  0.88326220  1
  Mo  Mo165  1  0.20589807  -0.00061662  0.24264127  1
  Mo  Mo166  1  0.30467493  0.70612863  0.62564251  1
  Mo  Mo167  1  0.90240579  0.89698759  0.86992617  1
  Mo  Mo168  1  0.29637663  0.10554961  0.63192451  1
  Mo  Mo169  1  0.78532789  0.59689900  -0.00201966  1
  Mo  Mo170  1  0.80271123  0.39211223  0.00500882  1
  Mo  Mo171  1  0.29209275  0.51007070  0.87690103  1
  Mo  Mo172  1  0.09991834  0.90058082  0.86379519  1
  Mo  Mo173  1  0.59881960  0.39462454  0.24431444  1
  Mo  Mo174  1  0.38284467  0.40026261  0.74625334  1
  Mo  Mo175  1  0.20064472  0.60361582  -0.00937925  1
  Mo  Mo176  1  0.80420728  0.80072351  0.75477350  1
  Mo  Mo177  1  0.20796839  0.80184071  0.25262410  1
  Mo  Mo178  1  0.69756406  0.69936365  0.35252562  1
  Mo  Mo179  1  0.40470520  -0.00509017  0.76891641  1
  Mo  Mo180  1  -0.00332545  0.40158124  -0.00137125  1
  Mo  Mo181  1  0.21518729  0.20242489  0.50217196  1
  Mo  Mo182  1  0.69986684  0.69079714  0.88373585  1
  Mo  Mo183  1  0.30546965  0.46173669  0.61637593  1
  Mo  Mo184  1  0.90978123  0.70008849  0.36583274  1
  Mo  Mo185  1  0.51251458  0.48671345  0.62156401  1
  Mo  Mo186  1  0.69939245  0.49668254  0.14057713  1
  Mo  Mo187  1  0.80132247  0.40863427  0.74761510  1
  Mo  Mo188  1  -0.00442663  0.80181983  0.75728748  1
  Mo  Mo189  1  0.59969910  0.00562304  0.50166388  1
  Mo  Mo190  1  0.38866268  0.19829560  0.76769071  1
  Mo  Mo191  1  0.70167969  0.10397585  0.88308797  1
  Mo  Mo192  1  0.90054398  0.90744074  0.37161270  1
  Mo  Mo193  1  0.39032625  0.20362482  0.49718065  1
  Mo  Mo194  1  0.08381542  0.70162941  0.12781980  1
  Mo  Mo195  1  0.90546919  0.49162218  0.36768384  1
  Mo  Mo196  1  0.80619670  -0.00494382  -0.01068356  1
  Mo  Mo197  1  0.88657742  0.10232772  0.63987106  1
  Mo  Mo198  1  0.59634595  0.59920380  0.26301520  1
  Mo  Mo199  1  0.40105525  0.79654204  0.25006129  1
