# generated using pymatgen
data_HfZrTaTiMo
_symmetry_space_group_name_H-M   'P 1'
_cell_length_a   15.20386614
_cell_length_b   15.22599411
_cell_length_c   16.81372336
_cell_angle_alpha   89.96501076
_cell_angle_beta   90.01572987
_cell_angle_gamma   89.98610295
_symmetry_Int_Tables_number   1
_chemical_formula_structural   HfZrTaTiMo
_chemical_formula_sum   'Hf40 Zr40 Ta40 Ti40 Mo40'
_cell_volume   3892.27469098
_cell_formula_units_Z   40
loop_
 _symmetry_equiv_pos_site_id
 _symmetry_equiv_pos_as_xyz
  1  'x, y, z'
loop_
 _atom_site_type_symbol
 _atom_site_label
 _atom_site_symmetry_multiplicity
 _atom_site_fract_x
 _atom_site_fract_y
 _atom_site_fract_z
 _atom_site_occupancy
  Hf  Hf0  1  0.09047582  0.51238469  0.38332158  1
  Hf  Hf1  1  0.80853019  0.20893125  0.75521576  1
  Hf  Hf2  1  0.01741496  0.40274007  0.24379136  1
  Hf  Hf3  1  0.49792125  0.69604461  0.36981277  1
  Hf  Hf4  1  0.77931546  0.00712039  0.74969327  1
  Hf  Hf5  1  0.09518824  0.08169722  0.63030194  1
  Hf  Hf6  1  0.50778233  0.09745269  0.37981263  1
  Hf  Hf7  1  0.19341731  0.61053751  0.50050626  1
  Hf  Hf8  1  0.78379883  0.61837366  0.49664775  1
  Hf  Hf9  1  0.89489159  0.50702176  0.60834856  1
  Hf  Hf10  1  -0.00556066  0.79313142  -0.01223513  1
  Hf  Hf11  1  0.51720667  0.89101933  0.36758769  1
  Hf  Hf12  1  0.19440105  0.21709458  0.24796516  1
  Hf  Hf13  1  0.80337170  0.61218107  0.74666731  1
  Hf  Hf14  1  0.60238660  0.60350842  0.75005333  1
  Hf  Hf15  1  0.20678640  -0.00409637  0.25784238  1
  Hf  Hf16  1  0.51472086  0.70508020  0.88683110  1
  Hf  Hf17  1  0.50287123  0.90586156  0.13517744  1
  Hf  Hf18  1  0.61345347  0.18461633  0.74642555  1
  Hf  Hf19  1  0.28747083  0.70781964  0.13246926  1
  Hf  Hf20  1  0.80900818  0.39244048  0.26045110  1
  Hf  Hf21  1  0.10750706  0.90174393  0.85214867  1
  Hf  Hf22  1  0.29046644  0.09202241  0.86366346  1
  Hf  Hf23  1  0.59792362  0.60137012  0.23557663  1
  Hf  Hf24  1  0.29072079  0.89445786  0.62661501  1
  Hf  Hf25  1  -0.00025700  0.59827344  0.00151924  1
  Hf  Hf26  1  0.78426421  0.18779168  0.25404078  1
  Hf  Hf27  1  0.89887904  0.29377128  0.12180617  1
  Hf  Hf28  1  0.51281603  0.30445008  0.86146819  1
  Hf  Hf29  1  0.09834806  0.09277455  0.37811514  1
  Hf  Hf30  1  0.40612047  -0.00703405  0.50035297  1
  Hf  Hf31  1  0.50964092  0.30653539  0.12907180  1
  Hf  Hf32  1  0.09478141  0.09874360  0.12561350  1
  Hf  Hf33  1  0.90891310  0.71307400  0.61670840  1
  Hf  Hf34  1  0.40306597  0.20579863  0.50164171  1
  Hf  Hf35  1  0.29067859  0.29743348  0.86101127  1
  Hf  Hf36  1  0.39988886  0.19247893  0.25172941  1
  Hf  Hf37  1  0.69078769  0.50149811  0.37335981  1
  Hf  Hf38  1  0.10272029  0.88033532  0.13718884  1
  Hf  Hf39  1  0.61107978  0.78482840  0.50631301  1
  Zr  Zr40  1  0.30464365  0.09854615  0.63097196  1
  Zr  Zr41  1  0.80938771  0.82300287  0.49118369  1
  Zr  Zr42  1  0.41538193  -0.00629362  0.74538002  1
  Zr  Zr43  1  0.51001521  0.29922607  0.36542317  1
  Zr  Zr44  1  0.70586938  0.71588631  0.34931450  1
  Zr  Zr45  1  -0.03061847  0.39624842  0.75234318  1
  Zr  Zr46  1  0.20412609  0.39895057  0.00369031  1
  Zr  Zr47  1  -0.00722182  0.19130447  0.50006016  1
  Zr  Zr48  1  0.20090490  0.80428093  -0.00640735  1
  Zr  Zr49  1  0.90745305  0.70636502  0.14678579  1
  Zr  Zr50  1  -0.01375462  0.19974473  0.26204554  1
  Zr  Zr51  1  0.61090171  0.41224534  -0.00674352  1
  Zr  Zr52  1  0.89449843  0.08918995  0.11463850  1
  Zr  Zr53  1  0.39270249  0.40107686  0.24299598  1
  Zr  Zr54  1  0.10815035  0.69904944  0.63526814  1
  Zr  Zr55  1  0.39127154  0.21148250  -0.00582018  1
  Zr  Zr56  1  0.61562340  0.80384887  0.02250867  1
  Zr  Zr57  1  0.00837608  0.39827810  0.00385064  1
  Zr  Zr58  1  0.10794577  0.69082181  0.86299634  1
  Zr  Zr59  1  0.88700139  0.10175038  0.89083035  1
  Zr  Zr60  1  0.50100270  0.09454211  0.88132851  1
  Zr  Zr61  1  0.29500414  0.50786606  0.86969192  1
  Zr  Zr62  1  0.38964204  0.59678712  0.49513468  1
  Zr  Zr63  1  0.00138089  -0.01563822  -0.00720013  1
  Zr  Zr64  1  0.61618638  0.01843106  0.24936516  1
  Zr  Zr65  1  0.41993414  0.78742093  0.74249588  1
  Zr  Zr66  1  0.49210364  0.49595021  0.37110886  1
  Zr  Zr67  1  0.80088254  0.39980992  -0.01243365  1
  Zr  Zr68  1  0.75491859  0.40858208  0.78219794  1
  Zr  Zr69  1  0.69357402  0.49848608  0.61522216  1
  Zr  Zr70  1  0.49052224  0.49837509  0.62240843  1
  Zr  Zr71  1  0.29781870  0.09834005  0.11956510  1
  Zr  Zr72  1  0.88479729  0.30330090  0.60927933  1
  Zr  Zr73  1  0.50261586  0.10418935  0.11447135  1
  Zr  Zr74  1  0.50434741  0.51079873  0.87669344  1
  Zr  Zr75  1  0.19985878  0.20514539  0.50947885  1
  Zr  Zr76  1  0.08646452  0.88818369  0.63919673  1
  Zr  Zr77  1  0.09846870  0.10220472  0.86414930  1
  Zr  Zr78  1  0.10639701  0.31207078  0.38307028  1
  Zr  Zr79  1  0.39593083  0.40902074  0.74681521  1
  Ta  Ta80  1  0.40341584  0.80131468  0.00339364  1
  Ta  Ta81  1  0.08860909  0.50119303  0.62374391  1
  Ta  Ta82  1  0.70210262  0.09768719  0.10314752  1
  Ta  Ta83  1  -0.00161367  0.19990345  0.74008296  1
  Ta  Ta84  1  0.71365230  0.71914281  0.87882403  1
  Ta  Ta85  1  0.31416783  0.69561912  0.87947611  1
  Ta  Ta86  1  0.89620362  0.49637861  0.38776016  1
  Ta  Ta87  1  0.51777009  0.09067677  0.61914433  1
  Ta  Ta88  1  0.39632768  0.80169831  0.25241813  1
  Ta  Ta89  1  -0.02453964  -0.00391850  0.75702905  1
  Ta  Ta90  1  0.31026893  0.89396477  0.86733717  1
  Ta  Ta91  1  0.89933927  0.50308525  0.13142832  1
  Ta  Ta92  1  0.28278145  0.49602024  0.36643320  1
  Ta  Ta93  1  0.49785135  0.50334293  0.12348528  1
  Ta  Ta94  1  0.17313477  0.60493966  0.24469985  1
  Ta  Ta95  1  0.62041780  -0.01156808  0.49737829  1
  Ta  Ta96  1  0.30189073  0.30945512  0.63098636  1
  Ta  Ta97  1  0.18634379  0.20390805  0.00014847  1
  Ta  Ta98  1  0.70447938  0.29742249  0.38591150  1
  Ta  Ta99  1  0.39620217  -0.01262270  -0.00593749  1
  Ta  Ta100  1  0.30485963  0.90175530  0.12842725  1
  Ta  Ta101  1  0.39507018  0.79355081  0.50182480  1
  Ta  Ta102  1  0.59320857  0.39410293  0.50298651  1
  Ta  Ta103  1  0.69209849  0.09217384  0.89962625  1
  Ta  Ta104  1  0.09272883  0.29843793  0.86421902  1
  Ta  Ta105  1  0.19562142  0.59934618  0.00797001  1
  Ta  Ta106  1  0.88756150  0.08330444  0.38225541  1
  Ta  Ta107  1  0.79640677  0.61308517  0.01305232  1
  Ta  Ta108  1  0.69948554  0.90600044  0.88283603  1
  Ta  Ta109  1  -0.00178587  0.59536745  0.75279322  1
  Ta  Ta110  1  -0.00091332  -0.02688650  0.49199208  1
  Ta  Ta111  1  0.70694136  0.49710371  0.13570626  1
  Ta  Ta112  1  0.30615280  0.89485045  0.37741846  1
  Ta  Ta113  1  0.09806946  0.49403228  0.86543086  1
  Ta  Ta114  1  0.18131546  0.40023237  0.73474056  1
  Ta  Ta115  1  0.20333967  0.40836391  0.51869885  1
  Ta  Ta116  1  0.79625595  0.81130475  0.74399424  1
  Ta  Ta117  1  0.50299957  0.29254494  0.62797791  1
  Ta  Ta118  1  0.39757284  0.60388205  0.01268385  1
  Ta  Ta119  1  0.19387930  0.80644098  0.48944845  1
  Ti  Ti120  1  0.00067238  -0.00594954  0.25652016  1
  Ti  Ti121  1  0.70168574  0.29698154  0.12645538  1
  Ti  Ti122  1  0.29515723  0.30327137  0.12351860  1
  Ti  Ti123  1  0.51279024  0.89967103  0.87921927  1
  Ti  Ti124  1  0.50344787  0.68967123  0.61718756  1
  Ti  Ti125  1  0.89540751  0.09539008  0.61703121  1
  Ti  Ti126  1  0.28952575  0.52247160  0.63805380  1
  Ti  Ti127  1  0.00247238  0.39732709  0.50309351  1
  Ti  Ti128  1  0.40080359  -0.00138261  0.25862229  1
  Ti  Ti129  1  0.51500497  0.89645016  0.61869062  1
  Ti  Ti130  1  0.39081022  0.39857116  0.50129237  1
  Ti  Ti131  1  0.72108331  0.91591895  0.35781748  1
  Ti  Ti132  1  0.19927628  -0.00467140  0.49310621  1
  Ti  Ti133  1  0.38722510  0.60115203  0.24584182  1
  Ti  Ti134  1  0.40254296  0.40707613  0.00120704  1
  Ti  Ti135  1  0.90516713  0.89936500  0.14183789  1
  Ti  Ti136  1  0.60263840  0.19622008  0.50545891  1
  Ti  Ti137  1  0.28754469  0.69875123  0.36335644  1
  Ti  Ti138  1  0.60669855  0.61027443  0.02166786  1
  Ti  Ti139  1  0.30072172  0.10235724  0.38037311  1
  Ti  Ti140  1  0.60567787  0.21225178  -0.00272269  1
  Ti  Ti141  1  0.89377261  0.91044103  0.62483623  1
  Ti  Ti142  1  -0.00129256  0.20656827  -0.00447780  1
  Ti  Ti143  1  0.29275393  0.50306397  0.12935195  1
  Ti  Ti144  1  -0.02388933  0.79252266  0.76823325  1
  Ti  Ti145  1  0.91379707  0.88743360  0.35932016  1
  Ti  Ti146  1  0.91214879  0.68976026  0.36512346  1
  Ti  Ti147  1  0.69718866  0.29830003  0.61461126  1
  Ti  Ti148  1  0.40552599  0.19886452  0.74353766  1
  Ti  Ti149  1  0.20229509  -0.00282338  -0.00164743  1
  Ti  Ti150  1  0.89419059  0.51246266  0.87972120  1
  Ti  Ti151  1  0.80911076  0.80644825  0.00906692  1
  Ti  Ti152  1  0.19341249  0.20318005  0.73406743  1
  Ti  Ti153  1  0.29941818  0.30830235  0.37656944  1
  Ti  Ti154  1  0.49377192  0.70554280  0.13173787  1
  Ti  Ti155  1  0.71801999  0.89980589  0.14306777  1
  Ti  Ti156  1  0.70252558  0.10232725  0.38841529  1
  Ti  Ti157  1  0.22173713  0.78365617  0.75183909  1
  Ti  Ti158  1  0.70888279  0.09583921  0.60973450  1
  Ti  Ti159  1  0.61360848  0.80864304  0.74075431  1
  Mo  Mo160  1  0.81374536  0.00322744  0.25107962  1
  Mo  Mo161  1  0.70215823  0.27197809  0.87997049  1
  Mo  Mo162  1  0.79213535  0.19445252  0.49563447  1
  Mo  Mo163  1  0.20004896  0.59403383  0.74884320  1
  Mo  Mo164  1  0.19841925  -0.00723739  0.74797029  1
  Mo  Mo165  1  0.39505828  0.61525892  0.74813524  1
  Mo  Mo166  1  0.01907572  0.79071347  0.26356842  1
  Mo  Mo167  1  0.69781153  0.70860105  0.62828908  1
  Mo  Mo168  1  0.59687609  -0.00536136  0.00787919  1
  Mo  Mo169  1  0.20841710  0.79818137  0.26152899  1
  Mo  Mo170  1  0.81219015  0.80632231  0.25500098  1
  Mo  Mo171  1  0.59369992  0.59889476  0.49599071  1
  Mo  Mo172  1  0.09558655  0.30151338  0.62727480  1
  Mo  Mo173  1  0.30589613  0.70279367  0.62013678  1
  Mo  Mo174  1  0.59204947  0.38544047  0.73565095  1
  Mo  Mo175  1  0.88307366  0.88774608  0.87100625  1
  Mo  Mo176  1  0.10100657  0.50750022  0.12583101  1
  Mo  Mo177  1  0.69935265  0.90577031  0.62313838  1
  Mo  Mo178  1  0.20486319  0.40970008  0.24332503  1
  Mo  Mo179  1  0.10369988  0.29246533  0.12220580  1
  Mo  Mo180  1  0.70546789  0.55058382  0.89157446  1
  Mo  Mo181  1  0.70799115  0.70261570  0.14227885  1
  Mo  Mo182  1  0.79696665  0.20362905  0.00158876  1
  Mo  Mo183  1  0.90566493  0.30073002  0.87768559  1
  Mo  Mo184  1  0.09931535  0.69416655  0.12354876  1
  Mo  Mo185  1  0.09634807  0.70411279  0.37707751  1
  Mo  Mo186  1  0.00683650  0.79100873  0.48597350  1
  Mo  Mo187  1  0.79431146  0.39830426  0.48721473  1
  Mo  Mo188  1  0.60294633  -0.01025052  0.74728054  1
  Mo  Mo189  1  0.88972294  0.69180286  0.87717945  1
  Mo  Mo190  1  0.89608597  0.30059313  0.38985146  1
  Mo  Mo191  1  0.80911901  0.00206767  0.49867035  1
  Mo  Mo192  1  -0.00716934  0.60272944  0.50055949  1
  Mo  Mo193  1  0.10441666  0.89776018  0.37002116  1
  Mo  Mo194  1  0.79371554  -0.02071883  0.00671382  1
  Mo  Mo195  1  -0.00941835  0.59173748  0.25303771  1
  Mo  Mo196  1  0.60895562  0.20799027  0.24724572  1
  Mo  Mo197  1  0.80763215  0.59123519  0.25368395  1
  Mo  Mo198  1  0.61244184  0.39581264  0.24155460  1
  Mo  Mo199  1  0.60277379  0.80377152  0.23434904  1
