# generated using pymatgen
data_HfZrTaTiMo
_symmetry_space_group_name_H-M   'P 1'
_cell_length_a   15.22207172
_cell_length_b   15.21207932
_cell_length_c   16.84505072
_cell_angle_alpha   90.03417457
_cell_angle_beta   89.97623968
_cell_angle_gamma   89.92229358
_symmetry_Int_Tables_number   1
_chemical_formula_structural   HfZrTaTiMo
_chemical_formula_sum   'Hf40 Zr40 Ta40 Ti40 Mo40'
_cell_volume   3900.62458528
_cell_formula_units_Z   40
loop_
 _symmetry_equiv_pos_site_id
 _symmetry_equiv_pos_as_xyz
  1  'x, y, z'
loop_
 _atom_site_type_symbol
 _atom_site_label
 _atom_site_symmetry_multiplicity
 _atom_site_fract_x
 _atom_site_fract_y
 _atom_site_fract_z
 _atom_site_occupancy
  Hf  Hf0  1  -0.00004472  -0.00738233  -0.01977746  1
  Hf  Hf1  1  0.29949029  0.29670842  0.87563978  1
  Hf  Hf2  1  0.20297621  0.60469198  0.49907764  1
  Hf  Hf3  1  0.60207340  -0.00156241  0.26320712  1
  Hf  Hf4  1  0.10546819  0.29632916  0.86678618  1
  Hf  Hf5  1  -0.00471121  0.40758497  0.26540926  1
  Hf  Hf6  1  0.89375651  0.50506669  0.61684326  1
  Hf  Hf7  1  0.60140723  -0.00617378  0.48331120  1
  Hf  Hf8  1  -0.00133596  0.79964387  0.00115496  1
  Hf  Hf9  1  0.00505042  0.20954287  0.24362864  1
  Hf  Hf10  1  0.10165971  0.29627453  0.62918447  1
  Hf  Hf11  1  0.79469114  0.20795028  -0.00050959  1
  Hf  Hf12  1  0.20517699  0.19573103  0.50650721  1
  Hf  Hf13  1  0.68956119  0.08648714  0.63375830  1
  Hf  Hf14  1  0.58909874  0.40064287  0.49457478  1
  Hf  Hf15  1  0.79807088  0.19647815  0.74551003  1
  Hf  Hf16  1  0.80591734  0.19228222  0.23782862  1
  Hf  Hf17  1  0.88710889  0.90453873  0.36707580  1
  Hf  Hf18  1  0.01062535  0.20406476  0.00396783  1
  Hf  Hf19  1  0.41134055  0.19458038  0.75174828  1
  Hf  Hf20  1  0.01532257  0.60197553  0.26929789  1
  Hf  Hf21  1  0.20206062  0.00061846  -0.00960484  1
  Hf  Hf22  1  -0.00396062  0.82404979  0.74310421  1
  Hf  Hf23  1  0.10595951  0.09414626  0.12772513  1
  Hf  Hf24  1  0.59800333  -0.00878365  -0.00964439  1
  Hf  Hf25  1  -0.00563148  0.60855813  0.74426051  1
  Hf  Hf26  1  0.60522609  0.79356602  0.75665986  1
  Hf  Hf27  1  0.50760928  0.68015712  0.61541226  1
  Hf  Hf28  1  0.21336680  0.40912013  0.50840748  1
  Hf  Hf29  1  0.50634917  0.89787935  0.62193572  1
  Hf  Hf30  1  0.30404112  0.88033203  0.37554271  1
  Hf  Hf31  1  0.80594699  0.18578475  0.51275228  1
  Hf  Hf32  1  0.60355228  0.19635437  0.49165332  1
  Hf  Hf33  1  0.61736276  0.79369634  0.49758954  1
  Hf  Hf34  1  0.59703318  0.19497693  0.24320837  1
  Hf  Hf35  1  0.69616015  0.49899725  0.13310125  1
  Hf  Hf36  1  -0.00191582  0.40631559  0.74720851  1
  Hf  Hf37  1  0.10653134  0.50789804  0.87371485  1
  Hf  Hf38  1  0.79787174  0.80648858  -0.00696029  1
  Hf  Hf39  1  0.39531890  0.20008151  0.01123458  1
  Zr  Zr40  1  0.89348652  0.28845611  0.37838059  1
  Zr  Zr41  1  0.41555024  0.40636089  0.75710317  1
  Zr  Zr42  1  0.40433121  0.20043976  0.23487778  1
  Zr  Zr43  1  0.80689892  0.60338157  0.25606013  1
  Zr  Zr44  1  0.88742826  0.71542499  0.60936355  1
  Zr  Zr45  1  -0.00680328  0.00658889  0.25667576  1
  Zr  Zr46  1  0.72819600  0.09119814  0.37113125  1
  Zr  Zr47  1  0.80183015  0.59780089  0.01138210  1
  Zr  Zr48  1  0.48541898  0.70354777  0.39184341  1
  Zr  Zr49  1  0.39275298  0.41792934  0.24037326  1
  Zr  Zr50  1  0.30247356  0.31125087  0.37361139  1
  Zr  Zr51  1  0.68066811  0.49994755  0.36363728  1
  Zr  Zr52  1  0.67148556  0.50239447  0.62596770  1
  Zr  Zr53  1  0.81046743  -0.01367037  0.76820396  1
  Zr  Zr54  1  0.78588453  0.40546894  0.74357864  1
  Zr  Zr55  1  0.89228428  0.30638152  0.87163528  1
  Zr  Zr56  1  0.69831520  0.68239862  0.87674947  1
  Zr  Zr57  1  -0.00860298  0.40397147  -0.00159246  1
  Zr  Zr58  1  0.30509516  0.70203906  0.62882781  1
  Zr  Zr59  1  0.57130986  0.60651034  0.24597944  1
  Zr  Zr60  1  0.77921454  0.60496375  0.48847236  1
  Zr  Zr61  1  0.29152331  0.50880509  0.11135165  1
  Zr  Zr62  1  0.91958678  0.07762777  0.63173086  1
  Zr  Zr63  1  0.79195919  0.39411508  0.49861292  1
  Zr  Zr64  1  0.49769795  0.30122102  0.37122853  1
  Zr  Zr65  1  0.09705101  0.89121817  0.13415764  1
  Zr  Zr66  1  0.01017965  0.60803059  0.00249683  1
  Zr  Zr67  1  0.30711426  0.89611987  0.12673101  1
  Zr  Zr68  1  0.20124989  0.78478553  0.00518061  1
  Zr  Zr69  1  0.39390199  -0.00161001  0.75126661  1
  Zr  Zr70  1  0.09397211  0.71564379  0.61773753  1
  Zr  Zr71  1  0.10938173  0.71947182  0.38599340  1
  Zr  Zr72  1  0.89581842  0.08963803  0.11086188  1
  Zr  Zr73  1  0.29703807  0.10017938  0.37176153  1
  Zr  Zr74  1  0.29125791  0.70009669  0.86584573  1
  Zr  Zr75  1  0.59526929  0.19279874  0.00797081  1
  Zr  Zr76  1  0.40124332  0.79918088  0.75096560  1
  Zr  Zr77  1  0.30565103  0.49893987  0.88910067  1
  Zr  Zr78  1  0.41225467  -0.00720339  0.26030610  1
  Zr  Zr79  1  0.00370130  0.40240721  0.49167836  1
  Ta  Ta80  1  0.21065585  0.82471298  0.51355418  1
  Ta  Ta81  1  0.90551926  0.70216546  0.87092263  1
  Ta  Ta82  1  0.90480457  0.10626922  0.87487453  1
  Ta  Ta83  1  0.59755371  0.80716584  0.25335251  1
  Ta  Ta84  1  0.20836057  0.40320473  0.73999784  1
  Ta  Ta85  1  0.70131088  0.89841437  0.12781644  1
  Ta  Ta86  1  0.49394471  0.50830320  0.10580264  1
  Ta  Ta87  1  0.68789714  0.10703734  0.86681518  1
  Ta  Ta88  1  0.90304058  0.29481391  0.62511260  1
  Ta  Ta89  1  0.10863818  0.29694945  0.37673766  1
  Ta  Ta90  1  0.90238654  0.50211717  0.13175355  1
  Ta  Ta91  1  0.19641524  0.38784890  0.01023702  1
  Ta  Ta92  1  0.31363888  0.29871653  0.62883212  1
  Ta  Ta93  1  0.41014764  0.80520881  -0.00594446  1
  Ta  Ta94  1  0.89744180  0.71353862  0.38309279  1
  Ta  Ta95  1  0.88422943  0.50978473  0.87382991  1
  Ta  Ta96  1  0.49620429  0.69102167  0.87891026  1
  Ta  Ta97  1  0.10210922  0.71197051  0.86002733  1
  Ta  Ta98  1  -0.00302296  0.59886720  0.48252065  1
  Ta  Ta99  1  0.60972377  0.40319149  -0.00257522  1
  Ta  Ta100  1  0.46669161  0.50644523  0.38767699  1
  Ta  Ta101  1  0.70227979  0.30537949  0.12853076  1
  Ta  Ta102  1  0.00737859  0.18950084  0.49988222  1
  Ta  Ta103  1  0.49542014  0.09960845  0.61673012  1
  Ta  Ta104  1  0.69611511  0.08636456  0.12370428  1
  Ta  Ta105  1  0.39301226  -0.00811778  0.49680533  1
  Ta  Ta106  1  0.20204246  0.20947834  0.23733819  1
  Ta  Ta107  1  0.50637452  0.29802144  0.88354071  1
  Ta  Ta108  1  0.79260504  0.60352338  0.74888076  1
  Ta  Ta109  1  0.71724773  0.88953941  0.62918502  1
  Ta  Ta110  1  0.21265991  0.77842159  0.24965713  1
  Ta  Ta111  1  0.03218629  0.00882970  0.77079384  1
  Ta  Ta112  1  0.20258165  0.18467437  0.74395056  1
  Ta  Ta113  1  0.41011533  0.78691837  0.24726264  1
  Ta  Ta114  1  0.80219549  0.79601569  0.76042662  1
  Ta  Ta115  1  0.50729143  0.29541902  0.62542645  1
  Ta  Ta116  1  0.79296485  -0.00216007  -0.02055106  1
  Ta  Ta117  1  0.09691206  0.49598564  0.12869960  1
  Ta  Ta118  1  0.50183426  0.31519724  0.11646372  1
  Ta  Ta119  1  0.30561792  0.09207741  0.12818230  1
  Ti  Ti120  1  0.20291061  0.20120362  0.01469745  1
  Ti  Ti121  1  0.29121959  0.08364254  0.62097552  1
  Ti  Ti122  1  0.40435562  0.19791082  0.50326713  1
  Ti  Ti123  1  0.29978307  0.10185127  0.87689446  1
  Ti  Ti124  1  0.19078527  0.40588058  0.24805225  1
  Ti  Ti125  1  0.59941179  0.60118010  0.00050981  1
  Ti  Ti126  1  0.19579450  0.83269873  0.73487283  1
  Ti  Ti127  1  0.59374126  0.00213833  0.76108644  1
  Ti  Ti128  1  0.90541477  0.70394178  0.13663912  1
  Ti  Ti129  1  0.59007105  0.39945991  0.24587834  1
  Ti  Ti130  1  0.10047819  0.10306674  0.37028648  1
  Ti  Ti131  1  0.30885315  0.69480682  0.12213780  1
  Ti  Ti132  1  0.58857385  0.56987541  0.76630408  1
  Ti  Ti133  1  0.49953133  0.89851425  0.87425665  1
  Ti  Ti134  1  0.29598810  0.89660099  0.87644037  1
  Ti  Ti135  1  0.40567972  0.00356094  -0.00430112  1
  Ti  Ti136  1  0.09967939  0.50705227  0.62376361  1
  Ti  Ti137  1  0.69826570  0.70898140  0.13048908  1
  Ti  Ti138  1  0.40002885  0.59342587  0.75315184  1
  Ti  Ti139  1  0.20370069  -0.00401152  0.25136116  1
  Ti  Ti140  1  0.60078423  0.79768796  -0.00584657  1
  Ti  Ti141  1  0.50559117  0.90295881  0.12091182  1
  Ti  Ti142  1  -0.00212093  0.83220378  0.50521774  1
  Ti  Ti143  1  0.00491268  0.19562998  0.75065943  1
  Ti  Ti144  1  0.88776635  0.89680241  0.13451921  1
  Ti  Ti145  1  0.50080147  0.70785652  0.11492199  1
  Ti  Ti146  1  0.89864056  0.31460583  0.12363886  1
  Ti  Ti147  1  0.19944137  0.59915943  0.73980439  1
  Ti  Ti148  1  0.70098945  0.71315609  0.36285767  1
  Ti  Ti149  1  0.69264294  0.30591570  0.86942235  1
  Ti  Ti150  1  0.80092105  0.39960260  0.25506185  1
  Ti  Ti151  1  0.11235133  0.68464832  0.13527991  1
  Ti  Ti152  1  0.47566699  0.48998478  0.61143767  1
  Ti  Ti153  1  0.69831818  0.29802730  0.36373189  1
  Ti  Ti154  1  0.00096720  0.79897439  0.25419098  1
  Ti  Ti155  1  0.80876591  -0.01823197  0.50537582  1
  Ti  Ti156  1  0.40020532  0.60888106  -0.00483134  1
  Ti  Ti157  1  0.69027089  0.29455351  0.63235125  1
  Ti  Ti158  1  0.10432448  0.90963458  0.37495713  1
  Ti  Ti159  1  0.69796885  0.69552643  0.63203079  1
  Mo  Mo160  1  0.50866829  0.50217682  0.89381754  1
  Mo  Mo161  1  0.10220556  0.93256213  0.61879968  1
  Mo  Mo162  1  0.89575602  0.50950955  0.37936536  1
  Mo  Mo163  1  0.30320610  0.90934318  0.61897712  1
  Mo  Mo164  1  0.10610060  0.10133063  0.62618221  1
  Mo  Mo165  1  0.58991405  0.59436119  0.49566151  1
  Mo  Mo166  1  0.30586880  0.69383584  0.38036658  1
  Mo  Mo167  1  0.79478141  -0.00314309  0.23982399  1
  Mo  Mo168  1  0.39415404  0.38994062  0.50699039  1
  Mo  Mo169  1  0.50117826  0.89504471  0.38179431  1
  Mo  Mo170  1  0.40785820  0.39705290  0.00145210  1
  Mo  Mo171  1  0.29410837  0.30322310  0.12588191  1
  Mo  Mo172  1  0.70041093  0.48980141  0.87868520  1
  Mo  Mo173  1  0.19037776  0.00347617  0.49242815  1
  Mo  Mo174  1  0.10127261  0.30907322  0.12890867  1
  Mo  Mo175  1  0.90432528  0.89595526  0.87644667  1
  Mo  Mo176  1  0.49965493  0.08853960  0.12190897  1
  Mo  Mo177  1  0.29559325  0.50003775  0.63644340  1
  Mo  Mo178  1  0.49496664  0.09886349  0.87625632  1
  Mo  Mo179  1  0.38774868  0.61334795  0.24263672  1
  Mo  Mo180  1  0.19431210  0.59897139  0.00061502  1
  Mo  Mo181  1  0.79962330  0.80542301  0.49726958  1
  Mo  Mo182  1  0.79553761  0.40225571  0.00665323  1
  Mo  Mo183  1  0.11258029  0.11205000  0.88103913  1
  Mo  Mo184  1  0.70367329  0.88682067  0.36747242  1
  Mo  Mo185  1  0.10854667  0.49591536  0.37705010  1
  Mo  Mo186  1  0.20893848  0.59467404  0.25676471  1
  Mo  Mo187  1  0.91053611  0.09839123  0.38088873  1
  Mo  Mo188  1  0.11251156  0.89249836  0.87438387  1
  Mo  Mo189  1  0.69383618  0.89696328  0.87217088  1
  Mo  Mo190  1  0.38721628  0.58682630  0.50661769  1
  Mo  Mo191  1  0.49480615  0.09933579  0.39090476  1
  Mo  Mo192  1  0.80076076  0.79886350  0.23948488  1
  Mo  Mo193  1  0.00251202  0.00717060  0.48607218  1
  Mo  Mo194  1  0.29080117  0.50858647  0.36963208  1
  Mo  Mo195  1  0.59687071  0.19545676  0.75210766  1
  Mo  Mo196  1  0.59111426  0.38591290  0.75531297  1
  Mo  Mo197  1  0.90472539  0.90272855  0.62378728  1
  Mo  Mo198  1  0.20699831  0.00330228  0.75994326  1
  Mo  Mo199  1  0.40082173  0.80179585  0.50952486  1
