# generated using pymatgen
data_HfZrTaTiMo
_symmetry_space_group_name_H-M   'P 1'
_cell_length_a   15.20734339
_cell_length_b   15.22589350
_cell_length_c   16.85561426
_cell_angle_alpha   89.99050378
_cell_angle_beta   89.92900470
_cell_angle_gamma   90.07181164
_symmetry_Int_Tables_number   1
_chemical_formula_structural   HfZrTaTiMo
_chemical_formula_sum   'Hf40 Zr40 Ta40 Ti40 Mo40'
_cell_volume   3902.83367426
_cell_formula_units_Z   40
loop_
 _symmetry_equiv_pos_site_id
 _symmetry_equiv_pos_as_xyz
  1  'x, y, z'
loop_
 _atom_site_type_symbol
 _atom_site_label
 _atom_site_symmetry_multiplicity
 _atom_site_fract_x
 _atom_site_fract_y
 _atom_site_fract_z
 _atom_site_occupancy
  Hf  Hf0  1  0.11219844  0.30974532  0.86277389  1
  Hf  Hf1  1  0.80568872  0.21475280  0.24824493  1
  Hf  Hf2  1  0.20678151  0.20331339  -0.01011895  1
  Hf  Hf3  1  0.70186337  0.10201619  0.39049454  1
  Hf  Hf4  1  0.40075653  0.01265087  0.75592287  1
  Hf  Hf5  1  0.10933647  0.89986874  0.12441468  1
  Hf  Hf6  1  0.20080677  -0.00357015  -0.02230530  1
  Hf  Hf7  1  0.91117952  0.51301578  0.88293731  1
  Hf  Hf8  1  0.00621728  -0.01768454  0.51368244  1
  Hf  Hf9  1  0.19727468  0.79603617  0.51181856  1
  Hf  Hf10  1  0.50246408  0.09437387  0.39523971  1
  Hf  Hf11  1  0.90968943  0.30593570  0.39075880  1
  Hf  Hf12  1  0.60870359  -0.00978281  -0.00374491  1
  Hf  Hf13  1  0.31137951  0.90000292  0.62965154  1
  Hf  Hf14  1  0.08801324  0.68725451  0.37755902  1
  Hf  Hf15  1  0.90842728  0.10532483  0.12544266  1
  Hf  Hf16  1  0.59611580  0.19276256  0.24745074  1
  Hf  Hf17  1  0.47771227  0.88973488  0.38789813  1
  Hf  Hf18  1  0.51913608  0.89344855  0.86385627  1
  Hf  Hf19  1  0.11187706  0.29536769  0.12214846  1
  Hf  Hf20  1  0.90355922  0.89319762  0.37212327  1
  Hf  Hf21  1  0.29168478  0.68321420  0.63838707  1
  Hf  Hf22  1  0.90511360  0.50900039  0.10730539  1
  Hf  Hf23  1  0.23077529  0.40665257  0.73623087  1
  Hf  Hf24  1  0.59541438  -0.00809985  0.52363956  1
  Hf  Hf25  1  0.09455481  0.10359617  0.85627130  1
  Hf  Hf26  1  0.29716027  0.72277952  0.37384933  1
  Hf  Hf27  1  0.70195494  0.09490948  0.11827830  1
  Hf  Hf28  1  0.78957511  0.79067931  0.49464878  1
  Hf  Hf29  1  0.48720257  0.31342849  0.62483097  1
  Hf  Hf30  1  0.01134319  0.18666574  0.51265763  1
  Hf  Hf31  1  0.78952894  0.19983312  0.75614798  1
  Hf  Hf32  1  0.11403689  0.88419371  0.36492466  1
  Hf  Hf33  1  0.40115766  0.01681437  0.24646107  1
  Hf  Hf34  1  0.30742889  0.11021102  0.38670623  1
  Hf  Hf35  1  0.71282091  0.88581449  0.63353024  1
  Hf  Hf36  1  0.00191268  0.39507974  0.24541839  1
  Hf  Hf37  1  -0.01193337  0.80727958  0.00008343  1
  Hf  Hf38  1  -0.01345230  0.58963734  0.51286737  1
  Hf  Hf39  1  0.01742716  0.40314401  -0.00188752  1
  Zr  Zr40  1  0.29969684  0.09816155  0.11247749  1
  Zr  Zr41  1  0.80291159  0.20000538  -0.00832641  1
  Zr  Zr42  1  0.67846667  0.69639140  0.37331003  1
  Zr  Zr43  1  0.60537073  0.40794844  0.49939489  1
  Zr  Zr44  1  0.40156461  0.42572128  0.48174028  1
  Zr  Zr45  1  0.00812886  0.19684993  0.24942519  1
  Zr  Zr46  1  0.07939417  0.69365447  0.87291010  1
  Zr  Zr47  1  0.10278606  0.08821017  0.37420012  1
  Zr  Zr48  1  0.59828939  0.60142372  0.50646704  1
  Zr  Zr49  1  0.00913151  0.40399104  0.73147070  1
  Zr  Zr50  1  0.50264946  0.49946374  0.12300508  1
  Zr  Zr51  1  0.61602402  0.40777579  0.25429822  1
  Zr  Zr52  1  0.21438276  0.39550737  0.50878567  1
  Zr  Zr53  1  0.78566189  0.78391190  0.25182803  1
  Zr  Zr54  1  0.88100804  0.29185868  0.61707895  1
  Zr  Zr55  1  0.40050813  0.39764883  0.26303756  1
  Zr  Zr56  1  0.18400224  0.80869636  0.75429769  1
  Zr  Zr57  1  0.49510165  0.70346200  0.65210285  1
  Zr  Zr58  1  0.07773282  0.68595198  0.11436021  1
  Zr  Zr59  1  0.69936970  0.50703647  0.63750064  1
  Zr  Zr60  1  0.79733282  -0.00008090  0.25876767  1
  Zr  Zr61  1  -0.00615590  0.78234988  0.24372400  1
  Zr  Zr62  1  0.89216948  0.90057264  0.12560046  1
  Zr  Zr63  1  0.20646263  0.00033090  0.50667753  1
  Zr  Zr64  1  0.38453420  0.81409754  0.23902432  1
  Zr  Zr65  1  0.22297117  0.19746201  0.24772402  1
  Zr  Zr66  1  0.79707741  0.61564523  0.75636111  1
  Zr  Zr67  1  0.80353775  0.40151073  0.75850629  1
  Zr  Zr68  1  0.39430165  0.60526830  0.24760554  1
  Zr  Zr69  1  0.39965353  0.80132901  -0.01212325  1
  Zr  Zr70  1  0.49890425  0.28797820  0.38001390  1
  Zr  Zr71  1  0.01574390  0.39792194  0.52053115  1
  Zr  Zr72  1  0.39028890  0.60061515  -0.00004290  1
  Zr  Zr73  1  0.70482867  0.08695177  0.87379131  1
  Zr  Zr74  1  0.71209529  0.30347474  0.38840146  1
  Zr  Zr75  1  0.59626464  -0.00927922  0.24858612  1
  Zr  Zr76  1  0.00481690  0.20044492  -0.00174414  1
  Zr  Zr77  1  0.20693548  0.40716749  0.25977363  1
  Zr  Zr78  1  0.60696803  0.00383771  0.73532281  1
  Zr  Zr79  1  0.50984415  0.29453637  0.12311564  1
  Ta  Ta80  1  0.27766092  0.70387464  0.12049444  1
  Ta  Ta81  1  0.57872106  0.79412808  0.51423639  1
  Ta  Ta82  1  0.87920399  0.71529268  0.88837989  1
  Ta  Ta83  1  0.49761113  0.49282592  0.87260935  1
  Ta  Ta84  1  0.59602483  0.60227453  -0.00442717  1
  Ta  Ta85  1  0.10879636  0.08995659  0.64337881  1
  Ta  Ta86  1  -0.00215525  0.00676076  -0.00287040  1
  Ta  Ta87  1  -0.02786045  0.79885304  0.74577903  1
  Ta  Ta88  1  0.60187852  0.39196390  0.75528295  1
  Ta  Ta89  1  0.11273365  0.50554544  0.86561105  1
  Ta  Ta90  1  0.19019382  0.60621650  0.25227939  1
  Ta  Ta91  1  0.30042309  0.89901007  0.10874286  1
  Ta  Ta92  1  0.08598230  0.70295752  0.63063584  1
  Ta  Ta93  1  0.28762245  0.68872733  0.86591610  1
  Ta  Ta94  1  0.90060158  0.09965570  0.38381958  1
  Ta  Ta95  1  0.30234950  0.11446382  0.62507929  1
  Ta  Ta96  1  0.11666401  0.29005313  0.38422946  1
  Ta  Ta97  1  0.48814553  0.50726070  0.64230095  1
  Ta  Ta98  1  0.90907340  0.29667970  0.86786293  1
  Ta  Ta99  1  0.40664450  0.39538508  -0.00491801  1
  Ta  Ta100  1  0.58201929  0.79611537  0.24299868  1
  Ta  Ta101  1  0.68653809  0.71309172  0.87309319  1
  Ta  Ta102  1  0.69382176  0.50470605  0.87872171  1
  Ta  Ta103  1  0.31650040  0.30264960  0.87612350  1
  Ta  Ta104  1  0.81240825  0.41761975  0.24627345  1
  Ta  Ta105  1  0.80387916  0.39658479  -0.01266899  1
  Ta  Ta106  1  0.19901719  0.79645194  -0.01611840  1
  Ta  Ta107  1  0.81257987  0.42690494  0.50737356  1
  Ta  Ta108  1  0.60327699  0.20179140  0.52491367  1
  Ta  Ta109  1  0.49758661  0.68831352  0.85992189  1
  Ta  Ta110  1  0.31323467  0.30761808  0.11622519  1
  Ta  Ta111  1  0.50393529  0.10872613  0.87531665  1
  Ta  Ta112  1  0.71025271  0.51003611  0.10995593  1
  Ta  Ta113  1  0.59616232  0.20233341  0.73402125  1
  Ta  Ta114  1  0.89768410  0.08523549  0.63131147  1
  Ta  Ta115  1  -0.00033528  -0.01554043  0.74136012  1
  Ta  Ta116  1  0.80604134  -0.00373043  0.50133602  1
  Ta  Ta117  1  0.40174871  0.62357072  0.49500873  1
  Ta  Ta118  1  0.69501742  0.88525932  0.12197604  1
  Ta  Ta119  1  -0.00715735  0.79239002  0.50740429  1
  Ti  Ti120  1  0.49716648  0.09870823  0.11179108  1
  Ti  Ti121  1  0.29450353  0.49224686  0.88519926  1
  Ti  Ti122  1  0.08119291  0.90074584  0.87314589  1
  Ti  Ti123  1  0.68506215  0.89908627  0.38263822  1
  Ti  Ti124  1  0.38774012  0.21339456  0.50899332  1
  Ti  Ti125  1  0.51373997  0.29726322  0.87400580  1
  Ti  Ti126  1  0.71446408  0.10728102  0.62035552  1
  Ti  Ti127  1  0.39149879  0.80688810  0.76506238  1
  Ti  Ti128  1  0.21085931  -0.01275186  0.24777497  1
  Ti  Ti129  1  0.49324582  0.70551926  0.12054928  1
  Ti  Ti130  1  0.18708635  0.59279695  -0.00239199  1
  Ti  Ti131  1  0.88161261  0.90933113  0.87748615  1
  Ti  Ti132  1  0.40528177  0.20854171  0.75078816  1
  Ti  Ti133  1  -0.00465771  0.60095353  0.73981960  1
  Ti  Ti134  1  0.49584155  0.90455350  0.11464183  1
  Ti  Ti135  1  0.10855345  0.50033038  0.12572655  1
  Ti  Ti136  1  0.60422810  0.20373928  -0.00309064  1
  Ti  Ti137  1  0.71625836  0.31134403  0.12019234  1
  Ti  Ti138  1  0.09586649  0.49327347  0.37826186  1
  Ti  Ti139  1  0.00667375  -0.00055330  0.24669513  1
  Ti  Ti140  1  0.29316293  0.49837125  0.11704552  1
  Ti  Ti141  1  0.39961451  0.00118273  -0.02118210  1
  Ti  Ti142  1  0.38098019  0.57943920  0.76115911  1
  Ti  Ti143  1  0.90373138  0.09309246  0.86343901  1
  Ti  Ti144  1  0.88456338  0.67501399  0.37908960  1
  Ti  Ti145  1  0.21982528  0.19536378  0.75725976  1
  Ti  Ti146  1  -0.00357681  0.19950570  0.73915561  1
  Ti  Ti147  1  0.72474109  0.51164057  0.37393975  1
  Ti  Ti148  1  -0.02093985  0.58582454  0.25482551  1
  Ti  Ti149  1  0.12266017  0.51808134  0.63169943  1
  Ti  Ti150  1  0.40777754  0.19832990  -0.00953328  1
  Ti  Ti151  1  0.20891328  -0.00127837  0.76153172  1
  Ti  Ti152  1  0.51086721  0.52816021  0.36548618  1
  Ti  Ti153  1  0.87736144  0.70041696  0.62334711  1
  Ti  Ti154  1  0.86043331  0.69358155  0.10255036  1
  Ti  Ti155  1  0.12559572  0.27885026  0.63184261  1
  Ti  Ti156  1  0.59950912  0.79190870  0.00192943  1
  Ti  Ti157  1  0.20637187  0.59205968  0.49455382  1
  Ti  Ti158  1  0.60989104  0.60662748  0.23630507  1
  Ti  Ti159  1  0.60999189  0.39676627  -0.00770344  1
  Mo  Mo160  1  0.40418208  0.00481825  0.51933108  1
  Mo  Mo161  1  -0.00538247  0.60216662  -0.00545842  1
  Mo  Mo162  1  0.78539994  0.60540652  -0.01419113  1
  Mo  Mo163  1  0.79532397  0.59275574  0.24303842  1
  Mo  Mo164  1  0.09982726  0.89197331  0.63387302  1
  Mo  Mo165  1  0.90727573  0.50158346  0.37457714  1
  Mo  Mo166  1  0.49104021  0.10628266  0.61998722  1
  Mo  Mo167  1  0.79606996  0.60120790  0.50607115  1
  Mo  Mo168  1  0.77961753  0.81071020  -0.00080481  1
  Mo  Mo169  1  0.40676660  0.20021061  0.24591760  1
  Mo  Mo170  1  0.68100908  0.69477251  0.12073620  1
  Mo  Mo171  1  0.30882653  0.10821036  0.87206297  1
  Mo  Mo172  1  0.69600496  0.30204862  0.62077409  1
  Mo  Mo173  1  0.29597835  0.91389466  0.37916710  1
  Mo  Mo174  1  0.90564094  0.50946586  0.63507170  1
  Mo  Mo175  1  0.28739399  0.52060556  0.37430337  1
  Mo  Mo176  1  0.89146866  0.31393491  0.12009350  1
  Mo  Mo177  1  0.81399320  -0.00280772  0.74519383  1
  Mo  Mo178  1  0.30008903  0.30277170  0.37782615  1
  Mo  Mo179  1  0.90299689  0.88963371  0.61877997  1
  Mo  Mo180  1  0.59385325  0.59143696  0.76370657  1
  Mo  Mo181  1  0.30084522  0.89648888  0.87216687  1
  Mo  Mo182  1  0.39748970  0.80167677  0.51059036  1
  Mo  Mo183  1  0.10331552  0.08502941  0.12520341  1
  Mo  Mo184  1  0.60227977  0.79250643  0.74867019  1
  Mo  Mo185  1  0.19097960  0.59703140  0.75341538  1
  Mo  Mo186  1  0.31643674  0.50659618  0.62188583  1
  Mo  Mo187  1  0.21308666  0.40647058  0.00010316  1
  Mo  Mo188  1  0.79828236  0.80567787  0.75358121  1
  Mo  Mo189  1  0.19928760  0.79469437  0.24123671  1
  Mo  Mo190  1  0.30872368  0.29826959  0.63178504  1
  Mo  Mo191  1  0.19966551  0.20118595  0.50801182  1
  Mo  Mo192  1  0.80904605  -0.00591734  0.00140701  1
  Mo  Mo193  1  0.41206396  0.39651222  0.76447527  1
  Mo  Mo194  1  0.80541899  0.19250870  0.50348041  1
  Mo  Mo195  1  0.71090992  0.89053536  0.86867998  1
  Mo  Mo196  1  0.69147852  0.70037725  0.62985909  1
  Mo  Mo197  1  0.49721752  0.89772715  0.63758909  1
  Mo  Mo198  1  0.69423131  0.30239931  0.87859834  1
  Mo  Mo199  1  0.49600330  0.70310137  0.37026728  1
