# generated using pymatgen
data_HfZrTaTiMo
_symmetry_space_group_name_H-M   'P 1'
_cell_length_a   15.15965818
_cell_length_b   15.16625121
_cell_length_c   16.81848834
_cell_angle_alpha   90.04315090
_cell_angle_beta   90.00551864
_cell_angle_gamma   90.14091638
_symmetry_Int_Tables_number   1
_chemical_formula_structural   HfZrTaTiMo
_chemical_formula_sum   'Hf40 Zr40 Ta40 Ti40 Mo40'
_cell_volume   3866.81303476
_cell_formula_units_Z   40
loop_
 _symmetry_equiv_pos_site_id
 _symmetry_equiv_pos_as_xyz
  1  'x, y, z'
loop_
 _atom_site_type_symbol
 _atom_site_label
 _atom_site_symmetry_multiplicity
 _atom_site_fract_x
 _atom_site_fract_y
 _atom_site_fract_z
 _atom_site_occupancy
  Hf  Hf0  1  0.71250904  0.91829688  0.12276005  1
  Hf  Hf1  1  0.60166723  0.21658238  -0.01485557  1
  Hf  Hf2  1  0.19458374  -0.00142313  0.74547158  1
  Hf  Hf3  1  0.10083853  0.10001256  0.37051221  1
  Hf  Hf4  1  0.19483986  0.38867523  0.25094544  1
  Hf  Hf5  1  0.40323059  0.60043401  0.25658950  1
  Hf  Hf6  1  0.61208037  0.59577705  0.25353898  1
  Hf  Hf7  1  0.50598329  0.30728733  0.11701203  1
  Hf  Hf8  1  0.69793886  0.51938273  0.61688340  1
  Hf  Hf9  1  0.39509162  0.38757288  0.50400232  1
  Hf  Hf10  1  0.59645591  0.21221313  0.25369569  1
  Hf  Hf11  1  0.49196473  0.09593355  0.38693248  1
  Hf  Hf12  1  0.60061894  0.81370229  0.01004092  1
  Hf  Hf13  1  0.38360767  0.18199618  0.52938346  1
  Hf  Hf14  1  0.38832701  0.19350142  0.25118933  1
  Hf  Hf15  1  0.08173972  0.49945615  0.36631893  1
  Hf  Hf16  1  0.29094013  0.11140460  0.86616659  1
  Hf  Hf17  1  0.40566483  0.39382082  0.25525013  1
  Hf  Hf18  1  -0.03322786  0.39934365  0.24672002  1
  Hf  Hf19  1  0.90137657  0.49862962  0.61799247  1
  Hf  Hf20  1  0.69336827  0.50184337  0.10774558  1
  Hf  Hf21  1  0.30726041  0.68672125  0.62381325  1
  Hf  Hf22  1  0.11524039  0.69323697  0.13780800  1
  Hf  Hf23  1  0.40274962  -0.00028865  -0.00378068  1
  Hf  Hf24  1  0.91221038  0.91447277  0.37673645  1
  Hf  Hf25  1  0.51389704  0.49439571  0.38262470  1
  Hf  Hf26  1  0.69810364  0.90669103  0.37764851  1
  Hf  Hf27  1  0.30244262  0.67725565  0.87293736  1
  Hf  Hf28  1  0.80631676  0.02114651  0.25533149  1
  Hf  Hf29  1  0.10368356  0.48313264  0.62521225  1
  Hf  Hf30  1  0.12441901  0.90473648  0.36689982  1
  Hf  Hf31  1  0.39113485  -0.01131666  0.23603622  1
  Hf  Hf32  1  0.89249708  0.31099212  0.39525409  1
  Hf  Hf33  1  0.58493830  0.41094613  0.74092340  1
  Hf  Hf34  1  0.79641232  0.40111786  0.75227617  1
  Hf  Hf35  1  0.10240265  0.28080345  0.87575741  1
  Hf  Hf36  1  0.79669287  0.22739666  0.25428345  1
  Hf  Hf37  1  0.90321031  0.50169223  0.88011570  1
  Hf  Hf38  1  0.70968840  0.10855614  0.63018617  1
  Hf  Hf39  1  0.60046876  0.79841697  0.24889579  1
  Zr  Zr40  1  0.61132509  0.01894218  -0.00553694  1
  Zr  Zr41  1  0.70533813  0.71415285  0.88312017  1
  Zr  Zr42  1  0.59971610  -0.00009631  0.51320935  1
  Zr  Zr43  1  0.58139525  0.20413634  0.74291846  1
  Zr  Zr44  1  0.20236829  0.59812712  0.48958174  1
  Zr  Zr45  1  0.69487038  0.50598773  0.88544537  1
  Zr  Zr46  1  0.29201725  0.28932763  0.12445930  1
  Zr  Zr47  1  0.69672683  0.11528746  0.38622334  1
  Zr  Zr48  1  0.19384444  0.78591909  0.75187410  1
  Zr  Zr49  1  0.00792233  0.79865146  0.00795133  1
  Zr  Zr50  1  0.80435922  0.80383800  0.50142683  1
  Zr  Zr51  1  0.80331980  0.61219726  0.75367309  1
  Zr  Zr52  1  0.09978744  0.90089297  0.13161435  1
  Zr  Zr53  1  0.49111815  0.50211605  0.87863897  1
  Zr  Zr54  1  0.49937876  0.10491326  0.11781925  1
  Zr  Zr55  1  -0.00319136  0.17718518  -0.00462290  1
  Zr  Zr56  1  0.18938380  0.39435371  0.00805046  1
  Zr  Zr57  1  0.41215683  0.78898470  0.75591585  1
  Zr  Zr58  1  0.30073833  0.90011015  0.87267513  1
  Zr  Zr59  1  0.50612645  0.69465946  0.62028604  1
  Zr  Zr60  1  0.40435961  0.79878019  0.23664554  1
  Zr  Zr61  1  0.20179515  0.01209745  0.52367544  1
  Zr  Zr62  1  0.08077416  0.29568087  0.12148620  1
  Zr  Zr63  1  0.01686533  0.59486249  -0.00184570  1
  Zr  Zr64  1  0.20793957  0.80415361  0.50322931  1
  Zr  Zr65  1  0.29618413  0.07633829  0.38098216  1
  Zr  Zr66  1  0.80322685  0.82452496  0.74105319  1
  Zr  Zr67  1  0.39690225  0.78962181  0.00098399  1
  Zr  Zr68  1  -0.00971343  0.19488657  0.25199175  1
  Zr  Zr69  1  0.89154043  0.48718665  0.10931430  1
  Zr  Zr70  1  0.00788132  0.80106600  0.48931862  1
  Zr  Zr71  1  0.59478243  0.00408786  0.24717423  1
  Zr  Zr72  1  -0.00307689  0.60191501  0.49687999  1
  Zr  Zr73  1  0.89977740  0.28964486  0.61952117  1
  Zr  Zr74  1  0.09531627  0.69295402  0.62773960  1
  Zr  Zr75  1  0.50477718  0.69091929  0.11866686  1
  Zr  Zr76  1  0.00411443  0.38324050  0.75793433  1
  Zr  Zr77  1  0.80449188  0.80257809  0.25028870  1
  Zr  Zr78  1  0.71651061  0.91659707  0.88178845  1
  Zr  Zr79  1  0.29769797  0.49009699  0.37747587  1
  Ta  Ta80  1  0.70827598  0.69263102  0.37880572  1
  Ta  Ta81  1  0.59590239  0.61556395  0.75176471  1
  Ta  Ta82  1  0.71514203  0.69923883  0.11717800  1
  Ta  Ta83  1  0.49374118  0.49718649  0.11867854  1
  Ta  Ta84  1  0.31041578  0.71622790  0.37652534  1
  Ta  Ta85  1  0.09421117  0.29594136  0.38383122  1
  Ta  Ta86  1  0.71611836  0.11489261  0.85984515  1
  Ta  Ta87  1  0.41275212  0.01273860  0.74348476  1
  Ta  Ta88  1  0.31368847  0.89983341  0.63600181  1
  Ta  Ta89  1  0.61532505  -0.00420345  0.74539396  1
  Ta  Ta90  1  0.81983864  0.81716255  0.01153423  1
  Ta  Ta91  1  0.00860521  0.60298980  0.75869104  1
  Ta  Ta92  1  0.18057012  0.00107929  -0.01037547  1
  Ta  Ta93  1  -0.00594376  0.17782825  0.49636547  1
  Ta  Ta94  1  0.38839212  0.40896297  0.00523954  1
  Ta  Ta95  1  0.29044342  0.89775489  0.10900236  1
  Ta  Ta96  1  0.49204920  0.50294729  0.61597104  1
  Ta  Ta97  1  0.51148940  0.90361003  0.86383469  1
  Ta  Ta98  1  0.90466101  0.68670174  0.36397176  1
  Ta  Ta99  1  0.11017254  0.09876096  0.13111231  1
  Ta  Ta100  1  0.28514658  0.27598484  0.38277665  1
  Ta  Ta101  1  0.69672920  0.72005739  0.62514944  1
  Ta  Ta102  1  0.19402315  0.20951370  0.73323453  1
  Ta  Ta103  1  0.00898884  0.79173055  0.25879971  1
  Ta  Ta104  1  0.82042370  0.01544359  0.50413965  1
  Ta  Ta105  1  0.90763293  0.69622604  0.13621629  1
  Ta  Ta106  1  0.20491398  0.58024753  0.74870698  1
  Ta  Ta107  1  0.69689824  0.31092794  0.62163388  1
  Ta  Ta108  1  0.29984677  0.48217950  0.86870190  1
  Ta  Ta109  1  0.22142685  0.58893111  0.00961313  1
  Ta  Ta110  1  0.70831065  0.31285964  0.11701680  1
  Ta  Ta111  1  0.09014229  0.88366611  0.86959704  1
  Ta  Ta112  1  0.48606851  0.89625804  0.38039938  1
  Ta  Ta113  1  0.39126208  0.20601819  -0.00739048  1
  Ta  Ta114  1  0.11188490  0.49489005  0.87320426  1
  Ta  Ta115  1  0.91012152  0.92100362  0.87689148  1
  Ta  Ta116  1  0.91820923  0.72148195  0.87056535  1
  Ta  Ta117  1  0.68807168  0.31903194  0.39244545  1
  Ta  Ta118  1  0.40823509  0.80629523  0.50413458  1
  Ta  Ta119  1  0.51712662  0.89369514  0.63644358  1
  Ti  Ti120  1  0.90088265  0.09189076  0.12108680  1
  Ti  Ti121  1  0.59414624  0.60310878  -0.00229291  1
  Ti  Ti122  1  0.28921682  0.09593589  0.11396863  1
  Ti  Ti123  1  0.60336881  0.61126426  0.49296785  1
  Ti  Ti124  1  0.88583328  0.50113059  0.38932317  1
  Ti  Ti125  1  0.20656287  0.60342018  0.25729477  1
  Ti  Ti126  1  0.81403229  0.61884863  -0.00375007  1
  Ti  Ti127  1  0.10050831  0.50016382  0.13765356  1
  Ti  Ti128  1  0.29497540  0.30080429  0.87155231  1
  Ti  Ti129  1  0.09445209  0.89505603  0.63099886  1
  Ti  Ti130  1  0.21751793  0.80551213  0.25084209  1
  Ti  Ti131  1  0.59608560  0.40196486  0.51155611  1
  Ti  Ti132  1  0.50613078  0.70158633  0.87914644  1
  Ti  Ti133  1  0.60078079  0.80027497  0.49301999  1
  Ti  Ti134  1  0.70869141  0.12156020  0.12193584  1
  Ti  Ti135  1  0.89924642  0.70294068  0.62843324  1
  Ti  Ti136  1  0.80230437  0.19929560  -0.00765995  1
  Ti  Ti137  1  0.40357852  0.58040217  0.74492370  1
  Ti  Ti138  1  0.80749649  0.58540014  0.24737657  1
  Ti  Ti139  1  0.48128738  0.30619827  0.87358830  1
  Ti  Ti140  1  -0.01445760  0.38161351  -0.01114755  1
  Ti  Ti141  1  0.91068666  0.91314983  0.61980182  1
  Ti  Ti142  1  0.79364947  0.38451195  -0.01607684  1
  Ti  Ti143  1  0.69149715  0.30502540  0.86409992  1
  Ti  Ti144  1  0.71139517  0.50178824  0.39166004  1
  Ti  Ti145  1  0.29830124  0.49027129  0.62014613  1
  Ti  Ti146  1  0.19135678  0.38860879  0.49485986  1
  Ti  Ti147  1  0.19834375  0.78677337  -0.00691729  1
  Ti  Ti148  1  0.58545335  0.20982053  0.51907205  1
  Ti  Ti149  1  0.49449910  0.29190965  0.38591419  1
  Ti  Ti150  1  0.07821063  0.09760794  0.63427346  1
  Ti  Ti151  1  0.61075959  0.40266250  0.25228242  1
  Ti  Ti152  1  0.09275779  0.29062106  0.61336400  1
  Ti  Ti153  1  0.82229383  0.02166404  0.74180591  1
  Ti  Ti154  1  0.00090791  -0.00333082  0.24543557  1
  Ti  Ti155  1  0.38573816  0.38132738  0.73327922  1
  Ti  Ti156  1  0.49900346  0.10612852  0.86889681  1
  Ti  Ti157  1  0.40647209  0.60414608  0.48687514  1
  Ti  Ti158  1  0.79128075  0.20589557  0.50122223  1
  Ti  Ti159  1  0.08121693  0.08174814  0.86177682  1
  Mo  Mo160  1  0.81693147  0.01736234  0.00460963  1
  Mo  Mo161  1  0.88498283  0.28606920  0.87054999  1
  Mo  Mo162  1  0.70953904  0.90633636  0.62190585  1
  Mo  Mo163  1  0.29321628  0.69737539  0.12633587  1
  Mo  Mo164  1  0.20141735  0.39477323  0.74914132  1
  Mo  Mo165  1  -0.00525733  -0.00903771  0.00485151  1
  Mo  Mo166  1  0.60691228  0.80383482  0.75517128  1
  Mo  Mo167  1  0.28060562  0.30717704  0.62158332  1
  Mo  Mo168  1  0.79781170  0.61297760  0.50210312  1
  Mo  Mo169  1  -0.00503341  0.79778833  0.74675548  1
  Mo  Mo170  1  0.20565557  0.00065108  0.23896856  1
  Mo  Mo171  1  0.39038595  0.20602475  0.74264525  1
  Mo  Mo172  1  0.59446719  0.39976607  -0.00700914  1
  Mo  Mo173  1  0.10613989  0.68765385  0.87413148  1
  Mo  Mo174  1  0.50354387  0.90511729  0.11863305  1
  Mo  Mo175  1  0.79943317  0.21042597  0.75107771  1
  Mo  Mo176  1  -0.00567947  0.18201474  0.75241026  1
  Mo  Mo177  1  0.39833010  0.59280470  0.00265653  1
  Mo  Mo178  1  0.10983342  0.69866680  0.35451222  1
  Mo  Mo179  1  -0.00358192  0.59663031  0.24766488  1
  Mo  Mo180  1  0.49999665  0.09515980  0.63219039  1
  Mo  Mo181  1  0.77988832  0.41229144  0.25505792  1
  Mo  Mo182  1  0.50892662  0.70316811  0.38220623  1
  Mo  Mo183  1  0.79117911  0.40486785  0.50943381  1
  Mo  Mo184  1  0.88161327  0.28974344  0.11329086  1
  Mo  Mo185  1  0.00295046  0.39373878  0.49777700  1
  Mo  Mo186  1  0.89759266  0.09998833  0.87073124  1
  Mo  Mo187  1  0.40323373  -0.01349253  0.52460455  1
  Mo  Mo188  1  0.90345616  0.10221359  0.62437916  1
  Mo  Mo189  1  0.18853199  0.20177464  0.51473757  1
  Mo  Mo190  1  0.29770169  0.50498069  0.13655934  1
  Mo  Mo191  1  0.90316215  0.90019059  0.13656181  1
  Mo  Mo192  1  0.20145046  0.18393366  -0.00673135  1
  Mo  Mo193  1  0.89913729  0.10586245  0.37877337  1
  Mo  Mo194  1  -0.00260303  -0.01425149  0.74521332  1
  Mo  Mo195  1  0.19719815  0.19518651  0.25285885  1
  Mo  Mo196  1  0.29243520  0.09953927  0.64626145  1
  Mo  Mo197  1  0.00747831  -0.00471199  0.50439284  1
  Mo  Mo198  1  0.31056770  0.90013952  0.37906353  1
  Mo  Mo199  1  0.49445551  0.30680613  0.61993259  1
