# generated using pymatgen
data_HfZrTaTiMo
_symmetry_space_group_name_H-M   'P 1'
_cell_length_a   15.21240923
_cell_length_b   15.20441858
_cell_length_c   16.81782008
_cell_angle_alpha   90.05159253
_cell_angle_beta   90.02565801
_cell_angle_gamma   90.02665244
_symmetry_Int_Tables_number   1
_chemical_formula_structural   HfZrTaTiMo
_chemical_formula_sum   'Hf40 Zr40 Ta40 Ti40 Mo40'
_cell_volume   3889.88939145
_cell_formula_units_Z   40
loop_
 _symmetry_equiv_pos_site_id
 _symmetry_equiv_pos_as_xyz
  1  'x, y, z'
loop_
 _atom_site_type_symbol
 _atom_site_label
 _atom_site_symmetry_multiplicity
 _atom_site_fract_x
 _atom_site_fract_y
 _atom_site_fract_z
 _atom_site_occupancy
  Hf  Hf0  1  0.20406195  0.40357448  -0.00127455  1
  Hf  Hf1  1  0.90186178  0.30732159  0.86289023  1
  Hf  Hf2  1  0.79662281  0.80170680  0.49312068  1
  Hf  Hf3  1  0.78647547  0.79111887  0.75130704  1
  Hf  Hf4  1  -0.02246887  0.60108135  0.23354826  1
  Hf  Hf5  1  0.60330389  -0.00294605  0.50560655  1
  Hf  Hf6  1  0.31043667  0.10925667  0.38469096  1
  Hf  Hf7  1  0.00083316  0.39849325  0.01283201  1
  Hf  Hf8  1  0.88573459  0.08678247  0.13020022  1
  Hf  Hf9  1  -0.00483337  0.18976441  0.48630962  1
  Hf  Hf10  1  0.79802757  -0.00377551  -0.01577470  1
  Hf  Hf11  1  0.11087388  0.50234497  0.13724647  1
  Hf  Hf12  1  0.59330550  0.21439631  0.26484425  1
  Hf  Hf13  1  0.31107411  0.29746839  0.13069821  1
  Hf  Hf14  1  0.09960151  0.09617048  0.12672167  1
  Hf  Hf15  1  -0.00506810  0.19891778  -0.00457151  1
  Hf  Hf16  1  0.81543125  0.00528805  0.51231730  1
  Hf  Hf17  1  0.49406227  0.50609231  0.85586316  1
  Hf  Hf18  1  0.40165046  0.01045087  0.00208336  1
  Hf  Hf19  1  0.19819170  0.20557864  0.26384707  1
  Hf  Hf20  1  0.70926422  0.70180217  0.12270842  1
  Hf  Hf21  1  0.59025171  0.40576321  -0.00352720  1
  Hf  Hf22  1  0.19640561  -0.00193635  0.26163763  1
  Hf  Hf23  1  0.37772098  0.40925485  0.51018804  1
  Hf  Hf24  1  0.00138589  0.59737179  0.00865776  1
  Hf  Hf25  1  0.48554280  0.30503407  0.85493109  1
  Hf  Hf26  1  0.09815349  0.69485039  0.61420453  1
  Hf  Hf27  1  0.29373008  0.69672889  0.12934062  1
  Hf  Hf28  1  0.79308033  0.20208145  0.26844191  1
  Hf  Hf29  1  0.10577185  0.10235610  0.62363611  1
  Hf  Hf30  1  0.70919430  0.91574394  0.37356339  1
  Hf  Hf31  1  0.79455569  0.60073326  0.47828916  1
  Hf  Hf32  1  0.79809122  0.39526585  0.00704088  1
  Hf  Hf33  1  -0.00980546  -0.01474609  0.24755943  1
  Hf  Hf34  1  0.30856645  0.50139125  0.14538582  1
  Hf  Hf35  1  0.20126563  0.80274066  0.26004247  1
  Hf  Hf36  1  0.59161148  0.19189656  0.72815051  1
  Hf  Hf37  1  -0.00124785  0.78841379  0.75175337  1
  Hf  Hf38  1  0.00274023  0.79577742  0.25543372  1
  Hf  Hf39  1  0.79186022  0.40853921  0.27180691  1
  Zr  Zr40  1  0.60569342  0.01435064  0.25041372  1
  Zr  Zr41  1  0.00528496  -0.01244223  -0.00491773  1
  Zr  Zr42  1  0.19944421  0.00525720  0.49016985  1
  Zr  Zr43  1  0.40631329  0.80043606  -0.00039050  1
  Zr  Zr44  1  0.21204609  0.19451474  0.00594235  1
  Zr  Zr45  1  0.59196726  0.20181238  0.52028139  1
  Zr  Zr46  1  0.60786412  0.00494047  -0.00703726  1
  Zr  Zr47  1  0.70094033  0.49603339  0.13159116  1
  Zr  Zr48  1  0.39748397  0.58760153  -0.00466518  1
  Zr  Zr49  1  0.49532775  0.12015124  0.12089626  1
  Zr  Zr50  1  0.09986936  0.67857656  0.37445381  1
  Zr  Zr51  1  0.50315012  0.10815743  0.86840653  1
  Zr  Zr52  1  0.30769574  0.69814212  0.63466740  1
  Zr  Zr53  1  0.79341848  0.20821990  0.73271734  1
  Zr  Zr54  1  0.60385198  0.80782558  0.25339125  1
  Zr  Zr55  1  0.19449596  0.80721157  0.76017431  1
  Zr  Zr56  1  0.69051106  0.69430144  0.61815366  1
  Zr  Zr57  1  0.80836856  0.40036921  0.48423271  1
  Zr  Zr58  1  0.88945505  0.29334697  0.13170591  1
  Zr  Zr59  1  0.50106930  0.69626400  0.13029613  1
  Zr  Zr60  1  0.19297258  0.37989760  0.74553365  1
  Zr  Zr61  1  0.10449737  0.89676496  0.61324392  1
  Zr  Zr62  1  0.70025191  0.50536170  0.86952234  1
  Zr  Zr63  1  0.11591748  0.10087548  0.87288496  1
  Zr  Zr64  1  0.61124695  0.39927025  0.72841762  1
  Zr  Zr65  1  0.90335275  0.90107644  0.63501269  1
  Zr  Zr66  1  0.29576311  0.29085699  0.86974507  1
  Zr  Zr67  1  0.89723192  0.50104902  0.87229768  1
  Zr  Zr68  1  0.19516619  0.59175329  0.74893901  1
  Zr  Zr69  1  0.20852453  0.57808609  0.50284672  1
  Zr  Zr70  1  0.61187803  0.59661648  0.26780114  1
  Zr  Zr71  1  -0.00115107  0.38897666  0.25386426  1
  Zr  Zr72  1  0.49435690  0.51974539  0.63074159  1
  Zr  Zr73  1  0.81201487  0.79241870  0.26278984  1
  Zr  Zr74  1  0.39952839  0.00566528  0.25226236  1
  Zr  Zr75  1  0.69479507  0.29211135  0.86951062  1
  Zr  Zr76  1  0.90370146  0.89054134  0.87021737  1
  Zr  Zr77  1  0.31484044  0.90062049  0.63002828  1
  Zr  Zr78  1  0.31064757  0.90479391  0.86933232  1
  Zr  Zr79  1  0.90745627  0.32176286  0.62834812  1
  Ta  Ta80  1  0.50078534  0.49836978  0.13751484  1
  Ta  Ta81  1  0.89316307  0.08003297  0.37215893  1
  Ta  Ta82  1  0.21884106  0.79425713  0.48397180  1
  Ta  Ta83  1  0.40715362  0.39826857  0.26445796  1
  Ta  Ta84  1  -0.00519965  0.79259668  0.49181509  1
  Ta  Ta85  1  0.30549276  0.69285460  0.86752293  1
  Ta  Ta86  1  0.20542469  -0.01077288  0.00085656  1
  Ta  Ta87  1  0.49741737  0.71605512  0.62972458  1
  Ta  Ta88  1  0.72123042  0.90546944  0.12681481  1
  Ta  Ta89  1  0.08613173  0.48556499  0.62318367  1
  Ta  Ta90  1  0.39962073  0.61641619  0.49723505  1
  Ta  Ta91  1  0.89735247  0.69010549  0.61836591  1
  Ta  Ta92  1  0.49202164  0.70519870  0.37117719  1
  Ta  Ta93  1  -0.00697733  0.59282623  0.74668495  1
  Ta  Ta94  1  0.79870317  0.20258181  0.50312420  1
  Ta  Ta95  1  0.20033193  0.21618166  0.48825912  1
  Ta  Ta96  1  0.01806434  0.21155408  0.75455840  1
  Ta  Ta97  1  0.40212085  -0.00817742  0.49731176  1
  Ta  Ta98  1  0.10384940  0.70413297  0.12025326  1
  Ta  Ta99  1  0.48575351  0.50292245  0.38295405  1
  Ta  Ta100  1  0.10072990  0.29546717  0.61414069  1
  Ta  Ta101  1  0.39801801  0.80670956  0.24932001  1
  Ta  Ta102  1  0.50483024  0.90393139  0.12485829  1
  Ta  Ta103  1  0.49355853  0.90376781  0.37666772  1
  Ta  Ta104  1  0.89418044  0.69513176  0.88572164  1
  Ta  Ta105  1  0.09679250  0.48898228  0.87300293  1
  Ta  Ta106  1  0.29606097  0.89926031  0.12198697  1
  Ta  Ta107  1  -0.00439022  0.58422929  0.49863508  1
  Ta  Ta108  1  0.60294974  0.62106619  0.75361788  1
  Ta  Ta109  1  0.01648109  0.00064469  0.75824656  1
  Ta  Ta110  1  0.59678249  0.60724950  -0.00185508  1
  Ta  Ta111  1  0.58953523  0.79847709  0.49100929  1
  Ta  Ta112  1  0.50352463  0.31358162  0.12972760  1
  Ta  Ta113  1  0.09163584  0.90110336  0.38795734  1
  Ta  Ta114  1  0.89926314  0.10489010  0.86014604  1
  Ta  Ta115  1  0.10480517  0.29435762  0.13323211  1
  Ta  Ta116  1  0.19373830  0.79726208  -0.01138325  1
  Ta  Ta117  1  0.69353932  0.89663674  0.62904240  1
  Ta  Ta118  1  0.59826279  0.40703270  0.50557213  1
  Ta  Ta119  1  -0.00103494  0.18926223  0.26797774  1
  Ti  Ti120  1  0.29934063  0.09776348  0.13123929  1
  Ti  Ti121  1  0.21752703  0.01390949  0.74251577  1
  Ti  Ti122  1  0.20139621  0.59843613  -0.01044990  1
  Ti  Ti123  1  0.41681954  -0.00687093  0.75336062  1
  Ti  Ti124  1  0.69790186  0.10636553  0.12680587  1
  Ti  Ti125  1  0.71667966  0.49806540  0.62215562  1
  Ti  Ti126  1  0.48104011  0.08710443  0.62257490  1
  Ti  Ti127  1  0.09265071  0.69547001  0.88031598  1
  Ti  Ti128  1  0.37591599  0.19487115  0.72684460  1
  Ti  Ti129  1  0.79812746  0.00021987  0.75673411  1
  Ti  Ti130  1  0.40306305  0.20848703  0.26148836  1
  Ti  Ti131  1  0.29077987  0.32331685  0.37692906  1
  Ti  Ti132  1  0.59753141  0.39711517  0.27177609  1
  Ti  Ti133  1  0.50539086  0.89582342  0.62582771  1
  Ti  Ti134  1  0.70545802  0.09111278  0.62710664  1
  Ti  Ti135  1  0.59490298  0.60265377  0.48957937  1
  Ti  Ti136  1  0.50214872  0.10420988  0.38792057  1
  Ti  Ti137  1  0.70048842  0.70700611  0.88625254  1
  Ti  Ti138  1  0.12102418  0.48435129  0.35878936  1
  Ti  Ti139  1  0.90162058  0.71888577  0.10681749  1
  Ti  Ti140  1  0.30638554  0.68746451  0.36341822  1
  Ti  Ti141  1  0.59175263  0.81152003  0.76159966  1
  Ti  Ti142  1  0.01323631  0.39213539  0.47979719  1
  Ti  Ti143  1  0.61088733  0.81170692  -0.00295978  1
  Ti  Ti144  1  0.48962560  0.29872208  0.39654481  1
  Ti  Ti145  1  0.31167414  0.10405619  0.87137933  1
  Ti  Ti146  1  0.69052622  0.29660385  0.12748174  1
  Ti  Ti147  1  0.61139657  -0.00502591  0.75742783  1
  Ti  Ti148  1  0.09718605  0.88893019  0.11898772  1
  Ti  Ti149  1  0.30380938  0.49316076  0.86000140  1
  Ti  Ti150  1  0.91183937  0.10252513  0.63999689  1
  Ti  Ti151  1  0.40029366  0.39489812  -0.00028904  1
  Ti  Ti152  1  0.47942604  0.30490359  0.62527778  1
  Ti  Ti153  1  0.91439152  0.50538457  0.37032344  1
  Ti  Ti154  1  0.59541963  0.20814493  -0.00260847  1
  Ti  Ti155  1  0.79715566  0.59953819  0.00344402  1
  Ti  Ti156  1  0.79955005  0.59833627  0.74677156  1
  Ti  Ti157  1  0.50101864  0.70796661  0.87361887  1
  Ti  Ti158  1  0.69764610  0.10990075  0.38877994  1
  Ti  Ti159  1  0.78985514  0.19186265  -0.00878199  1
  Mo  Mo160  1  0.50964503  0.89816823  0.87661528  1
  Mo  Mo161  1  0.29793481  0.49617926  0.63602083  1
  Mo  Mo162  1  0.89639821  0.29030457  0.37693195  1
  Mo  Mo163  1  0.30559376  0.89297219  0.37751646  1
  Mo  Mo164  1  0.09559402  0.09684666  0.37362146  1
  Mo  Mo165  1  0.40059239  0.79920276  0.49557889  1
  Mo  Mo166  1  0.18904550  0.40160569  0.50123666  1
  Mo  Mo167  1  0.90395677  0.89900650  0.38198269  1
  Mo  Mo168  1  0.40355667  0.60802080  0.75701535  1
  Mo  Mo169  1  0.00335376  0.40511799  0.74843486  1
  Mo  Mo170  1  0.90461098  0.69367267  0.38163397  1
  Mo  Mo171  1  0.19371955  0.60455493  0.25098618  1
  Mo  Mo172  1  -0.00399669  -0.00423058  0.49811914  1
  Mo  Mo173  1  0.68509519  0.49675243  0.38288411  1
  Mo  Mo174  1  0.39348594  0.19903334  0.50998114  1
  Mo  Mo175  1  0.10851305  0.89754927  0.87219775  1
  Mo  Mo176  1  0.69130655  0.70487217  0.38337996  1
  Mo  Mo177  1  0.41382003  0.79864613  0.75893952  1
  Mo  Mo178  1  0.79714303  0.00286885  0.24806214  1
  Mo  Mo179  1  0.41121926  0.21217727  0.00019358  1
  Mo  Mo180  1  0.68552047  0.29762211  0.39620713  1
  Mo  Mo181  1  0.40390547  0.60347465  0.25877347  1
  Mo  Mo182  1  0.89963258  0.89165830  0.11585884  1
  Mo  Mo183  1  0.69821445  0.30524037  0.60705088  1
  Mo  Mo184  1  0.00726736  0.79258704  -0.00614532  1
  Mo  Mo185  1  0.30397875  0.10109252  0.61107452  1
  Mo  Mo186  1  0.79642068  0.79801165  -0.00346063  1
  Mo  Mo187  1  0.19842584  0.18732121  0.74502142  1
  Mo  Mo188  1  0.80305466  0.41369818  0.73790131  1
  Mo  Mo189  1  0.88909803  0.50955168  0.12438849  1
  Mo  Mo190  1  0.70993837  0.10312476  0.86324563  1
  Mo  Mo191  1  0.10007141  0.29848357  0.37528884  1
  Mo  Mo192  1  0.09416840  0.30263620  0.87945618  1
  Mo  Mo193  1  0.90086847  0.51252838  0.62158019  1
  Mo  Mo194  1  0.69709819  0.89720432  0.86711890  1
  Mo  Mo195  1  0.79949939  0.60089012  0.27146722  1
  Mo  Mo196  1  0.28873311  0.29157602  0.61821569  1
  Mo  Mo197  1  0.20552338  0.39411985  0.24719603  1
  Mo  Mo198  1  0.38968522  0.40265919  0.72977786  1
  Mo  Mo199  1  0.30031988  0.50522223  0.36271354  1
