# generated using pymatgen
data_HfZrTaTiMo
_symmetry_space_group_name_H-M   'P 1'
_cell_length_a   15.20884956
_cell_length_b   15.21107527
_cell_length_c   16.83958956
_cell_angle_alpha   89.97653804
_cell_angle_beta   90.00778292
_cell_angle_gamma   90.01064006
_symmetry_Int_Tables_number   1
_chemical_formula_structural   HfZrTaTiMo
_chemical_formula_sum   'Hf40 Zr40 Ta40 Ti40 Mo40'
_cell_volume   3895.71998884
_cell_formula_units_Z   40
loop_
 _symmetry_equiv_pos_site_id
 _symmetry_equiv_pos_as_xyz
  1  'x, y, z'
loop_
 _atom_site_type_symbol
 _atom_site_label
 _atom_site_symmetry_multiplicity
 _atom_site_fract_x
 _atom_site_fract_y
 _atom_site_fract_z
 _atom_site_occupancy
  Hf  Hf0  1  0.90216986  0.31165892  0.88086407  1
  Hf  Hf1  1  0.63049527  0.79378364  0.01101948  1
  Hf  Hf2  1  0.48755210  0.29770385  0.89610546  1
  Hf  Hf3  1  0.40458319  0.00947769  0.25221113  1
  Hf  Hf4  1  0.37418204  0.40969811  -0.00008415  1
  Hf  Hf5  1  0.50481348  0.09733477  0.89842048  1
  Hf  Hf6  1  0.90458167  0.51049859  0.64474963  1
  Hf  Hf7  1  -0.00496292  0.60377153  -0.00201557  1
  Hf  Hf8  1  0.68591880  0.51020605  0.87135056  1
  Hf  Hf9  1  0.09304704  0.09724420  0.86536215  1
  Hf  Hf10  1  0.79237874  -0.01011843  0.51051521  1
  Hf  Hf11  1  0.90398789  0.91793087  0.12187121  1
  Hf  Hf12  1  0.00624792  0.60466806  0.24317855  1
  Hf  Hf13  1  0.89661642  0.70649002  0.86274342  1
  Hf  Hf14  1  0.41851948  0.80056557  0.73861825  1
  Hf  Hf15  1  0.70161958  0.70510362  0.63088573  1
  Hf  Hf16  1  0.67715384  0.50397852  0.12012018  1
  Hf  Hf17  1  0.60006662  -0.00788778  0.75972416  1
  Hf  Hf18  1  0.11116038  0.10468239  0.62733346  1
  Hf  Hf19  1  0.69604633  0.28964783  0.37810257  1
  Hf  Hf20  1  0.38584238  0.39769749  0.75365094  1
  Hf  Hf21  1  0.38569283  0.40689250  0.48544636  1
  Hf  Hf22  1  0.58250872  0.40109740  0.74261281  1
  Hf  Hf23  1  0.28134572  0.29379607  0.61569634  1
  Hf  Hf24  1  0.38967520  0.80700278  0.52043454  1
  Hf  Hf25  1  0.20963098  -0.01154936  0.50887826  1
  Hf  Hf26  1  0.89876605  0.11164607  0.86317318  1
  Hf  Hf27  1  0.18591328  -0.00843819  -0.01146991  1
  Hf  Hf28  1  0.22311611  0.80036012  -0.01740152  1
  Hf  Hf29  1  -0.00495350  0.39506479  0.24649610  1
  Hf  Hf30  1  -0.01059619  0.40736920  0.49134590  1
  Hf  Hf31  1  0.90736442  0.69722187  0.37628023  1
  Hf  Hf32  1  0.20730363  0.78787428  0.25610170  1
  Hf  Hf33  1  0.69067798  0.68591968  0.38747245  1
  Hf  Hf34  1  0.41259025  0.00414693  0.49586934  1
  Hf  Hf35  1  0.21105906  0.58815328  0.76123135  1
  Hf  Hf36  1  0.89278330  0.50601123  0.12100992  1
  Hf  Hf37  1  0.78736289  0.60444925  0.24454495  1
  Hf  Hf38  1  0.59624002  0.40941453  0.50366821  1
  Hf  Hf39  1  0.10827399  0.08274615  0.37257805  1
  Zr  Zr40  1  0.40682881  0.20538316  0.25312751  1
  Zr  Zr41  1  0.52060285  0.70250477  0.88240945  1
  Zr  Zr42  1  0.18242838  0.38241793  0.75057876  1
  Zr  Zr43  1  0.90472195  0.09803761  0.62103703  1
  Zr  Zr44  1  0.11490818  0.69561832  0.11310616  1
  Zr  Zr45  1  0.78358366  0.40194340  0.00187788  1
  Zr  Zr46  1  0.60014342  0.81478773  0.50564033  1
  Zr  Zr47  1  0.70288214  0.49874037  0.62986316  1
  Zr  Zr48  1  0.58355610  0.19575272  0.74624592  1
  Zr  Zr49  1  0.01310643  0.20277031  0.49454238  1
  Zr  Zr50  1  0.90154545  0.90713478  0.37997210  1
  Zr  Zr51  1  0.81102437  0.00193675  -0.00707315  1
  Zr  Zr52  1  0.00529699  0.79907084  0.24509692  1
  Zr  Zr53  1  0.48864851  0.71788923  0.37922010  1
  Zr  Zr54  1  0.69245521  0.29753784  0.87644140  1
  Zr  Zr55  1  0.10452861  0.48795888  0.62241610  1
  Zr  Zr56  1  0.79960800  0.81165169  0.24893567  1
  Zr  Zr57  1  0.10570802  0.69359680  0.63564713  1
  Zr  Zr58  1  0.89278029  0.09834444  0.38178072  1
  Zr  Zr59  1  0.88837710  0.30325724  0.37397001  1
  Zr  Zr60  1  0.01040014  0.81709515  -0.01218608  1
  Zr  Zr61  1  0.50968137  0.51737025  0.36876188  1
  Zr  Zr62  1  0.28596855  0.50798666  0.13817378  1
  Zr  Zr63  1  0.08490474  0.48732241  0.87840312  1
  Zr  Zr64  1  0.48451780  0.50417915  0.13135863  1
  Zr  Zr65  1  0.30570550  0.11092852  0.87893373  1
  Zr  Zr66  1  0.00343278  0.61316487  0.50055689  1
  Zr  Zr67  1  0.88491601  0.28588655  0.12123279  1
  Zr  Zr68  1  0.50004315  0.10494657  0.10544822  1
  Zr  Zr69  1  0.30507495  0.89837405  0.36950834  1
  Zr  Zr70  1  0.80896897  0.79135242  0.50704022  1
  Zr  Zr71  1  0.39392512  0.19399002  0.48359835  1
  Zr  Zr72  1  0.51251588  0.90651670  0.11672915  1
  Zr  Zr73  1  0.19791162  0.20050184  0.01159313  1
  Zr  Zr74  1  0.79283906  0.20548351  0.74289808  1
  Zr  Zr75  1  0.09804723  0.49886577  0.37280767  1
  Zr  Zr76  1  0.32558067  0.69396739  0.87111275  1
  Zr  Zr77  1  0.89188374  0.31042500  0.61667151  1
  Zr  Zr78  1  0.61007732  0.80074697  0.24671334  1
  Zr  Zr79  1  0.20301275  0.18770964  0.24785261  1
  Ta  Ta80  1  0.20959461  -0.00733762  0.75319621  1
  Ta  Ta81  1  0.40623538  0.80200633  0.23994465  1
  Ta  Ta82  1  0.00975771  0.80773436  0.75464863  1
  Ta  Ta83  1  0.31357966  0.09282022  0.63280768  1
  Ta  Ta84  1  0.71055399  0.08951959  0.11979271  1
  Ta  Ta85  1  0.30041462  0.30420795  0.12921793  1
  Ta  Ta86  1  0.60526688  0.19395641  0.23993729  1
  Ta  Ta87  1  0.10132685  0.49177376  0.12011261  1
  Ta  Ta88  1  0.60158257  0.00868095  0.50171253  1
  Ta  Ta89  1  0.78339310  0.62060622  -0.00128958  1
  Ta  Ta90  1  0.01063473  0.22321351  0.74124147  1
  Ta  Ta91  1  0.21308031  0.80414926  0.76076483  1
  Ta  Ta92  1  0.40330210  -0.00003513  0.75672956  1
  Ta  Ta93  1  0.58698271  0.60924672  0.73732350  1
  Ta  Ta94  1  0.11078553  0.90359960  0.12842730  1
  Ta  Ta95  1  0.48595172  0.29946021  0.61624106  1
  Ta  Ta96  1  0.09229262  0.28965993  0.88729448  1
  Ta  Ta97  1  0.10860881  0.89712433  0.63247158  1
  Ta  Ta98  1  0.90359997  0.70083256  0.64795480  1
  Ta  Ta99  1  0.50519210  0.30121251  0.37464943  1
  Ta  Ta100  1  0.40849219  0.60339307  0.51050067  1
  Ta  Ta101  1  0.68891553  0.09557702  0.62725352  1
  Ta  Ta102  1  0.59312811  0.39181666  0.24993283  1
  Ta  Ta103  1  0.09952632  0.89077194  0.37972747  1
  Ta  Ta104  1  0.39211766  0.40277767  0.26195260  1
  Ta  Ta105  1  0.79908984  -0.00173194  0.74733075  1
  Ta  Ta106  1  0.51463375  0.69158386  0.12533099  1
  Ta  Ta107  1  0.78349854  0.39369387  0.24016992  1
  Ta  Ta108  1  0.70718502  0.89243147  0.87473187  1
  Ta  Ta109  1  -0.01141687  0.18397637  0.00683450  1
  Ta  Ta110  1  0.30004568  0.89896962  0.12913609  1
  Ta  Ta111  1  0.08655964  0.08862957  0.12914765  1
  Ta  Ta112  1  0.38725718  -0.01568500  -0.00374288  1
  Ta  Ta113  1  0.21832356  0.59596209  0.48754553  1
  Ta  Ta114  1  0.50081489  0.30944632  0.11395188  1
  Ta  Ta115  1  0.48851890  0.50545906  0.87965198  1
  Ta  Ta116  1  0.59126795  0.19467738  0.50578561  1
  Ta  Ta117  1  -0.00015267  0.19593035  0.25250641  1
  Ta  Ta118  1  0.31472823  0.70204535  0.11878199  1
  Ta  Ta119  1  0.21010084  0.58491931  -0.01354079  1
  Ti  Ti120  1  0.51024333  0.91408166  0.62972973  1
  Ti  Ti121  1  0.19417708  0.39603494  0.25564407  1
  Ti  Ti122  1  0.39711850  0.20169526  0.74814960  1
  Ti  Ti123  1  0.70562844  0.70414712  0.85682058  1
  Ti  Ti124  1  0.40764440  0.59022406  0.73503229  1
  Ti  Ti125  1  0.70046925  0.48987430  0.37271554  1
  Ti  Ti126  1  0.20479746  0.60018276  0.26871037  1
  Ti  Ti127  1  0.79949998  0.58176531  0.50145619  1
  Ti  Ti128  1  0.20512769  0.19661650  0.75262055  1
  Ti  Ti129  1  0.30136383  0.49693414  0.61926717  1
  Ti  Ti130  1  0.28723303  0.29895114  0.36816716  1
  Ti  Ti131  1  0.69042750  0.08453514  0.37054322  1
  Ti  Ti132  1  0.29900927  0.69638303  0.63098426  1
  Ti  Ti133  1  0.90990156  0.91081967  0.86812888  1
  Ti  Ti134  1  0.28469620  0.30546043  0.88442140  1
  Ti  Ti135  1  0.69313284  0.29998519  0.61734945  1
  Ti  Ti136  1  0.00308552  0.00097304  0.74236008  1
  Ti  Ti137  1  0.40411002  0.60796303  0.00194170  1
  Ti  Ti138  1  0.78666791  0.19547906  0.50394111  1
  Ti  Ti139  1  0.79818831  0.81413152  0.74423600  1
  Ti  Ti140  1  0.19837241  0.78701952  0.49794652  1
  Ti  Ti141  1  0.79665344  0.40283076  0.75543357  1
  Ti  Ti142  1  0.89197692  0.71179838  0.11312049  1
  Ti  Ti143  1  0.18802106  0.38787779  0.48550737  1
  Ti  Ti144  1  0.62071030  0.20890009  0.01197965  1
  Ti  Ti145  1  0.52122649  0.91904148  0.36535594  1
  Ti  Ti146  1  0.29311958  0.09000618  0.12058951  1
  Ti  Ti147  1  0.88932765  0.51186156  0.86399747  1
  Ti  Ti148  1  0.50343396  0.89382999  0.88894508  1
  Ti  Ti149  1  0.20415040  0.19330891  0.48567737  1
  Ti  Ti150  1  0.00055112  0.39349799  0.01163628  1
  Ti  Ti151  1  0.70082939  0.09711894  0.88340744  1
  Ti  Ti152  1  0.00859503  0.80901842  0.50961595  1
  Ti  Ti153  1  0.79525042  0.18726812  0.24808574  1
  Ti  Ti154  1  0.90764264  0.89746841  0.62879377  1
  Ti  Ti155  1  0.09843769  0.29600363  0.12556976  1
  Ti  Ti156  1  0.88508557  0.50020858  0.36656586  1
  Ti  Ti157  1  0.10282117  0.69700777  0.86937993  1
  Ti  Ti158  1  0.39403266  0.61382766  0.25822204  1
  Ti  Ti159  1  -0.00071466  0.00043744  0.25229670  1
  Mo  Mo160  1  0.10753440  0.70703163  0.38459517  1
  Mo  Mo161  1  0.01001110  -0.01605709  0.51140476  1
  Mo  Mo162  1  0.59650348  0.59961665  0.25289246  1
  Mo  Mo163  1  0.79856521  0.19694454  -0.00091250  1
  Mo  Mo164  1  0.70973022  0.90604404  0.11799786  1
  Mo  Mo165  1  0.10278184  0.89860332  0.85674995  1
  Mo  Mo166  1  0.70661916  0.69756599  0.12616898  1
  Mo  Mo167  1  0.30212873  0.50062729  0.36683482  1
  Mo  Mo168  1  0.00683920  0.00469172  -0.00439673  1
  Mo  Mo169  1  0.59570640  0.60586124  0.51734444  1
  Mo  Mo170  1  -0.01131136  0.39604139  0.75460792  1
  Mo  Mo171  1  0.68889826  0.29453174  0.13051113  1
  Mo  Mo172  1  0.30081558  0.49657930  0.87403574  1
  Mo  Mo173  1  0.48964786  0.49692587  0.62257994  1
  Mo  Mo174  1  0.61608055  0.00478132  0.24674905  1
  Mo  Mo175  1  0.60872719  -0.00225857  -0.01291102  1
  Mo  Mo176  1  0.81408407  0.79949270  -0.00705524  1
  Mo  Mo177  1  0.51684519  0.10722074  0.36925825  1
  Mo  Mo178  1  0.49557059  0.10354405  0.63004858  1
  Mo  Mo179  1  0.29996489  0.89922118  0.63358815  1
  Mo  Mo180  1  0.59775659  0.59582483  -0.00509337  1
  Mo  Mo181  1  0.18650044  0.39751873  0.00572606  1
  Mo  Mo182  1  0.39334664  0.20114786  0.01550221  1
  Mo  Mo183  1  0.79407387  0.40465462  0.49721731  1
  Mo  Mo184  1  0.70408032  0.90646956  0.63574159  1
  Mo  Mo185  1  0.00313013  0.60474143  0.76108573  1
  Mo  Mo186  1  0.41163455  0.79907775  0.01437264  1
  Mo  Mo187  1  0.60678792  0.80681549  0.75026612  1
  Mo  Mo188  1  0.30324566  0.09552099  0.37327242  1
  Mo  Mo189  1  0.90250206  0.09936948  0.13556489  1
  Mo  Mo190  1  0.79054515  0.00538794  0.24850819  1
  Mo  Mo191  1  0.19604821  -0.01048375  0.24404560  1
  Mo  Mo192  1  0.58457202  0.40345616  -0.00351311  1
  Mo  Mo193  1  0.09962459  0.29540409  0.61491796  1
  Mo  Mo194  1  0.31688094  0.90141904  0.86964798  1
  Mo  Mo195  1  0.79383265  0.60472588  0.75542269  1
  Mo  Mo196  1  0.30497267  0.69771129  0.38140893  1
  Mo  Mo197  1  0.50144832  0.69845352  0.62264056  1
  Mo  Mo198  1  0.69725436  0.90384263  0.37758394  1
  Mo  Mo199  1  0.10028810  0.29382635  0.36433802  1
