# generated using pymatgen
data_HfZrTaTiMo
_symmetry_space_group_name_H-M   'P 1'
_cell_length_a   15.20463744
_cell_length_b   15.20806986
_cell_length_c   16.80545210
_cell_angle_alpha   90.02012794
_cell_angle_beta   89.96999040
_cell_angle_gamma   89.95222363
_symmetry_Int_Tables_number   1
_chemical_formula_structural   HfZrTaTiMo
_chemical_formula_sum   'Hf40 Zr40 Ta40 Ti40 Mo40'
_cell_volume   3885.97614677
_cell_formula_units_Z   40
loop_
 _symmetry_equiv_pos_site_id
 _symmetry_equiv_pos_as_xyz
  1  'x, y, z'
loop_
 _atom_site_type_symbol
 _atom_site_label
 _atom_site_symmetry_multiplicity
 _atom_site_fract_x
 _atom_site_fract_y
 _atom_site_fract_z
 _atom_site_occupancy
  Hf  Hf0  1  0.60368248  0.60797692  0.26254363  1
  Hf  Hf1  1  0.10674805  0.50998963  0.62393900  1
  Hf  Hf2  1  0.20917231  0.01057295  0.00988390  1
  Hf  Hf3  1  0.47730391  0.29641727  0.86953800  1
  Hf  Hf4  1  0.69926547  0.90402644  0.64194700  1
  Hf  Hf5  1  0.31011681  0.29139660  0.35390317  1
  Hf  Hf6  1  0.21749927  0.80140052  0.01068599  1
  Hf  Hf7  1  0.60462472  0.81061160  0.50033579  1
  Hf  Hf8  1  0.91546197  0.70285027  0.37124082  1
  Hf  Hf9  1  0.10815151  0.09002305  0.62236401  1
  Hf  Hf10  1  0.09967070  0.71963905  0.61223716  1
  Hf  Hf11  1  0.78510726  0.00218915  0.50086203  1
  Hf  Hf12  1  0.78714798  0.79324019  0.00541967  1
  Hf  Hf13  1  0.90407076  0.49671588  0.86847739  1
  Hf  Hf14  1  0.21361336  0.61642469  0.75607725  1
  Hf  Hf15  1  0.68908286  0.08372428  0.86710389  1
  Hf  Hf16  1  0.90065364  0.69321077  0.13573388  1
  Hf  Hf17  1  0.50263323  0.72426282  0.13560543  1
  Hf  Hf18  1  0.77833681  0.20973510  0.49355271  1
  Hf  Hf19  1  0.70323990  0.69501532  0.61637074  1
  Hf  Hf20  1  0.48779895  0.90078980  0.63953016  1
  Hf  Hf21  1  0.32791914  0.90892685  0.13336857  1
  Hf  Hf22  1  0.01409031  0.80169933  0.23938762  1
  Hf  Hf23  1  0.88186532  0.10069940  0.11602849  1
  Hf  Hf24  1  0.51359299  0.28530710  0.36433060  1
  Hf  Hf25  1  0.09229094  0.11023799  0.12839851  1
  Hf  Hf26  1  0.29742599  0.70733368  0.61108990  1
  Hf  Hf27  1  0.19614675  0.61682587  0.26835620  1
  Hf  Hf28  1  0.70306843  0.11507251  0.64262253  1
  Hf  Hf29  1  0.00712683  0.59660862  0.00495756  1
  Hf  Hf30  1  0.21492736  0.59855779  -0.00069009  1
  Hf  Hf31  1  0.60997659  0.61031482  0.00691599  1
  Hf  Hf32  1  0.70103581  0.27939651  0.12247577  1
  Hf  Hf33  1  0.70863199  0.49756199  0.13101901  1
  Hf  Hf34  1  0.00211281  0.19431725  0.48869726  1
  Hf  Hf35  1  0.40429424  0.38750050  0.50394246  1
  Hf  Hf36  1  0.59915933  0.39183108  0.00167157  1
  Hf  Hf37  1  0.11083229  0.29670677  0.62755797  1
  Hf  Hf38  1  0.88058728  0.29532516  0.62134646  1
  Hf  Hf39  1  0.89803889  0.70477302  0.87661472  1
  Zr  Zr40  1  0.89725094  0.90325700  0.89156242  1
  Zr  Zr41  1  -0.00482071  0.18694777  0.75703036  1
  Zr  Zr42  1  -0.00063262  0.61136416  0.74225417  1
  Zr  Zr43  1  0.09776343  0.91866118  0.88986694  1
  Zr  Zr44  1  0.50174249  0.49455748  0.87000545  1
  Zr  Zr45  1  0.61195656  0.38401469  0.49903273  1
  Zr  Zr46  1  0.50603590  0.91104884  0.84681931  1
  Zr  Zr47  1  0.30783344  0.90917327  0.37608749  1
  Zr  Zr48  1  0.39371500  0.39720125  0.01720848  1
  Zr  Zr49  1  0.80230938  0.38662035  -0.01040041  1
  Zr  Zr50  1  0.88652585  0.89486798  0.37698063  1
  Zr  Zr51  1  0.20649752  0.40015585  0.48890506  1
  Zr  Zr52  1  0.20484918  0.39897881  0.00389083  1
  Zr  Zr53  1  0.00539350  0.38871347  0.00528182  1
  Zr  Zr54  1  0.40395087  0.59368362  0.49876230  1
  Zr  Zr55  1  0.10506112  0.89730836  0.38723851  1
  Zr  Zr56  1  -0.00531642  0.00085235  0.25132910  1
  Zr  Zr57  1  0.00267092  0.39903386  0.50098030  1
  Zr  Zr58  1  0.10836049  0.49541568  0.86541875  1
  Zr  Zr59  1  0.57981771  0.18607135  -0.00539652  1
  Zr  Zr60  1  0.41044003  0.81382738  -0.01261117  1
  Zr  Zr61  1  0.40199164  0.60943489  0.00531996  1
  Zr  Zr62  1  0.51892201  0.70134799  0.86410430  1
  Zr  Zr63  1  0.10672429  0.71365948  0.87892079  1
  Zr  Zr64  1  -0.00391017  0.39366680  0.74366234  1
  Zr  Zr65  1  0.50408553  0.50372969  0.13900294  1
  Zr  Zr66  1  0.88569336  0.30585868  0.37851408  1
  Zr  Zr67  1  0.80500852  0.59262133  0.00580546  1
  Zr  Zr68  1  0.40754681  0.19098439  0.51046724  1
  Zr  Zr69  1  -0.00263886  0.40225672  0.25081273  1
  Zr  Zr70  1  0.61067142  0.59621600  0.73406779  1
  Zr  Zr71  1  0.78114799  0.39266714  0.75971536  1
  Zr  Zr72  1  0.10175036  0.49732927  0.14086186  1
  Zr  Zr73  1  0.37928443  0.78916669  0.75520035  1
  Zr  Zr74  1  0.40798861  0.58998403  0.72898961  1
  Zr  Zr75  1  0.19512538  0.20921894  -0.00340133  1
  Zr  Zr76  1  0.82099619  0.00145732  0.75165062  1
  Zr  Zr77  1  0.77667573  -0.00654919  0.25460882  1
  Zr  Zr78  1  0.80533666  0.59723100  0.25660821  1
  Zr  Zr79  1  0.20874773  0.19047017  0.49107666  1
  Ta  Ta80  1  0.50219359  0.70830701  0.38308105  1
  Ta  Ta81  1  0.69621699  0.87840973  0.85742785  1
  Ta  Ta82  1  0.29939540  0.51045812  0.15103792  1
  Ta  Ta83  1  0.09393516  0.50793704  0.37063668  1
  Ta  Ta84  1  0.31152650  0.49129866  0.86721216  1
  Ta  Ta85  1  -0.00569216  0.81184838  0.74461649  1
  Ta  Ta86  1  0.40167224  0.80654109  0.49967459  1
  Ta  Ta87  1  0.28195603  0.91071036  0.62132561  1
  Ta  Ta88  1  0.89232009  0.90479309  0.11723827  1
  Ta  Ta89  1  0.69506134  0.50653023  0.87349038  1
  Ta  Ta90  1  0.61379451  0.81133441  0.26492889  1
  Ta  Ta91  1  0.67195932  0.10047706  0.37819090  1
  Ta  Ta92  1  0.28118010  0.30003998  0.15184186  1
  Ta  Ta93  1  0.90986835  0.89808630  0.61559346  1
  Ta  Ta94  1  0.90391199  0.29139318  0.12732218  1
  Ta  Ta95  1  0.59714191  0.18082472  0.23938315  1
  Ta  Ta96  1  0.79978486  0.59764828  0.49149196  1
  Ta  Ta97  1  0.00785239  0.80575769  0.02206218  1
  Ta  Ta98  1  0.39828498  0.61836217  0.26291239  1
  Ta  Ta99  1  0.40636704  0.01591399  -0.01082670  1
  Ta  Ta100  1  0.50344125  0.49364718  0.36833169  1
  Ta  Ta101  1  0.59533645  -0.01846563  -0.00713714  1
  Ta  Ta102  1  0.88824354  0.09966169  0.37687279  1
  Ta  Ta103  1  0.90037854  0.50276300  0.38217683  1
  Ta  Ta104  1  0.58410365  0.01438752  0.51436983  1
  Ta  Ta105  1  0.70570648  0.48298615  0.37396404  1
  Ta  Ta106  1  0.00201436  0.60717203  0.49915848  1
  Ta  Ta107  1  0.20155144  0.60887643  0.48053016  1
  Ta  Ta108  1  0.38213149  0.19905510  0.00818124  1
  Ta  Ta109  1  0.60531808  0.59582068  0.48982580  1
  Ta  Ta110  1  0.11561496  0.70029228  0.12623500  1
  Ta  Ta111  1  0.79381740  0.19255231  -0.01907284  1
  Ta  Ta112  1  0.21570752  0.80300566  0.24307515  1
  Ta  Ta113  1  0.89352833  0.50559828  0.61605727  1
  Ta  Ta114  1  0.79983872  0.39031545  0.24464198  1
  Ta  Ta115  1  0.30465146  0.09985115  0.64076502  1
  Ta  Ta116  1  0.68534058  0.07923073  0.11230888  1
  Ta  Ta117  1  -0.00832580  0.19769630  0.26019814  1
  Ta  Ta118  1  0.01636615  -0.00636913  0.74772722  1
  Ta  Ta119  1  0.30571824  0.49770390  0.36226614  1
  Ti  Ti120  1  0.50755323  0.91373906  0.38384721  1
  Ti  Ti121  1  -0.00238415  0.19897096  -0.00737416  1
  Ti  Ti122  1  0.80328659  0.59756887  0.74689485  1
  Ti  Ti123  1  0.40702107  0.40216403  0.24576885  1
  Ti  Ti124  1  0.29726235  0.91179317  0.86940238  1
  Ti  Ti125  1  0.09987446  0.29377423  0.86644354  1
  Ti  Ti126  1  0.90587546  0.09378573  0.61774188  1
  Ti  Ti127  1  0.69274340  0.88903940  0.12435775  1
  Ti  Ti128  1  0.30218313  0.10820608  0.14269091  1
  Ti  Ti129  1  0.40074198  0.38746466  0.73163460  1
  Ti  Ti130  1  0.47985813  0.09439254  0.36656641  1
  Ti  Ti131  1  0.29577596  0.49177501  0.62036852  1
  Ti  Ti132  1  0.80047330  0.20616540  0.77835253  1
  Ti  Ti133  1  0.18540815  0.82276984  0.75047219  1
  Ti  Ti134  1  0.28902140  0.09678074  0.35556311  1
  Ti  Ti135  1  0.21423174  0.39543842  0.74955513  1
  Ti  Ti136  1  0.10773938  0.29445198  0.36201124  1
  Ti  Ti137  1  0.60707944  0.38809398  0.24786666  1
  Ti  Ti138  1  0.91450261  0.08931381  0.89167935  1
  Ti  Ti139  1  0.48687364  0.10006423  0.85016704  1
  Ti  Ti140  1  0.51391289  0.48960484  0.61803102  1
  Ti  Ti141  1  0.70932451  0.48697650  0.61677262  1
  Ti  Ti142  1  0.19345450  -0.00441368  0.24192104  1
  Ti  Ti143  1  0.10023144  0.90576961  0.60600441  1
  Ti  Ti144  1  0.58303660  -0.00724974  0.24841352  1
  Ti  Ti145  1  0.60166794  0.79901790  -0.00220860  1
  Ti  Ti146  1  0.39360460  0.00551495  0.50851116  1
  Ti  Ti147  1  0.48976178  0.28505259  0.13430631  1
  Ti  Ti148  1  0.90111521  0.70187112  0.61752474  1
  Ti  Ti149  1  0.29800600  0.10999418  0.86460681  1
  Ti  Ti150  1  0.80306982  0.78913947  0.74495992  1
  Ti  Ti151  1  0.80429572  0.80092902  0.50377872  1
  Ti  Ti152  1  0.59641693  0.21799256  0.75093751  1
  Ti  Ti153  1  0.48794675  0.08461843  0.12566611  1
  Ti  Ti154  1  0.59124693  0.19611523  0.51746382  1
  Ti  Ti155  1  0.78937242  0.19283635  0.25577113  1
  Ti  Ti156  1  0.41315132  0.81142684  0.26325358  1
  Ti  Ti157  1  0.20534376  0.20099827  0.75568522  1
  Ti  Ti158  1  0.71079966  0.71288791  0.37920707  1
  Ti  Ti159  1  -0.00053278  0.00284921  0.48965139  1
  Mo  Mo160  1  0.60541070  0.79389885  0.73509105  1
  Mo  Mo161  1  0.00448198  0.60365288  0.25482821  1
  Mo  Mo162  1  0.20696108  0.80682836  0.49786630  1
  Mo  Mo163  1  0.29781178  0.29965953  0.62991315  1
  Mo  Mo164  1  0.10436549  0.70796345  0.38457784  1
  Mo  Mo165  1  0.19669343  0.00384812  0.75424795  1
  Mo  Mo166  1  0.29518261  0.30537935  0.86754288  1
  Mo  Mo167  1  0.38310538  0.00282799  0.75234497  1
  Mo  Mo168  1  0.51768242  0.91282326  0.12300625  1
  Mo  Mo169  1  0.40328294  0.19426098  0.23996322  1
  Mo  Mo170  1  -0.00524119  0.80322515  0.50406918  1
  Mo  Mo171  1  0.10761646  0.90244919  0.12151738  1
  Mo  Mo172  1  0.40390497  0.00175566  0.25339651  1
  Mo  Mo173  1  0.70863252  0.69650445  0.86458250  1
  Mo  Mo174  1  0.50390568  0.69818218  0.60034784  1
  Mo  Mo175  1  0.89953031  0.48827373  0.12927183  1
  Mo  Mo176  1  0.78590497  -0.00455365  -0.00126250  1
  Mo  Mo177  1  0.68650658  0.90759825  0.38286166  1
  Mo  Mo178  1  0.30379505  0.69708131  0.87197575  1
  Mo  Mo179  1  0.60007526  0.00757677  0.74167221  1
  Mo  Mo180  1  0.30724871  0.71080205  0.38307946  1
  Mo  Mo181  1  0.20849788  0.00975682  0.49866733  1
  Mo  Mo182  1  0.50482867  0.29676493  0.63563743  1
  Mo  Mo183  1  0.79741888  0.40754955  0.50114994  1
  Mo  Mo184  1  -0.00256737  0.00438702  0.01455696  1
  Mo  Mo185  1  0.59150742  0.40074629  0.74404513  1
  Mo  Mo186  1  0.69712000  0.70931120  0.13728172  1
  Mo  Mo187  1  0.18808321  0.19195101  0.25656461  1
  Mo  Mo188  1  0.90259248  0.28829837  0.87891075  1
  Mo  Mo189  1  0.69435850  0.30147647  0.63321251  1
  Mo  Mo190  1  0.50158496  0.09759952  0.64594661  1
  Mo  Mo191  1  0.09709424  0.09924052  0.36596268  1
  Mo  Mo192  1  0.09398452  0.29072205  0.13990755  1
  Mo  Mo193  1  0.69380318  0.29051229  0.35928064  1
  Mo  Mo194  1  0.79360657  0.80060511  0.24277928  1
  Mo  Mo195  1  0.10210907  0.10304856  0.87755488  1
  Mo  Mo196  1  0.39320585  0.20443875  0.74112520  1
  Mo  Mo197  1  0.20251002  0.40365685  0.26440843  1
  Mo  Mo198  1  0.30848693  0.70275840  0.13772163  1
  Mo  Mo199  1  0.68629969  0.29528758  0.87933160  1
