# generated using pymatgen
data_HfZrTaTiMo
_symmetry_space_group_name_H-M   'P 1'
_cell_length_a   15.19974635
_cell_length_b   15.21622187
_cell_length_c   16.82181675
_cell_angle_alpha   89.94331628
_cell_angle_beta   89.97434073
_cell_angle_gamma   90.05151653
_symmetry_Int_Tables_number   1
_chemical_formula_structural   HfZrTaTiMo
_chemical_formula_sum   'Hf40 Zr40 Ta40 Ti40 Mo40'
_cell_volume   3890.59154546
_cell_formula_units_Z   40
loop_
 _symmetry_equiv_pos_site_id
 _symmetry_equiv_pos_as_xyz
  1  'x, y, z'
loop_
 _atom_site_type_symbol
 _atom_site_label
 _atom_site_symmetry_multiplicity
 _atom_site_fract_x
 _atom_site_fract_y
 _atom_site_fract_z
 _atom_site_occupancy
  Hf  Hf0  1  0.11245036  0.49335850  0.37295733  1
  Hf  Hf1  1  -0.00283422  0.39386975  0.01176623  1
  Hf  Hf2  1  0.69334001  0.90892944  0.61977131  1
  Hf  Hf3  1  0.21446137  0.80008279  -0.00183564  1
  Hf  Hf4  1  0.17958743  0.80238536  0.25352785  1
  Hf  Hf5  1  0.48676993  0.90301370  0.87755535  1
  Hf  Hf6  1  0.19594274  0.38882119  0.00308551  1
  Hf  Hf7  1  0.31834511  0.10109659  0.36082974  1
  Hf  Hf8  1  0.80372059  0.41929380  0.50169309  1
  Hf  Hf9  1  0.90890352  0.09038444  0.12522352  1
  Hf  Hf10  1  0.08111732  0.70291500  0.37692859  1
  Hf  Hf11  1  0.60576669  0.80200341  0.01958838  1
  Hf  Hf12  1  0.69869014  0.30988971  0.62436349  1
  Hf  Hf13  1  0.20712089  0.37986910  0.76223547  1
  Hf  Hf14  1  0.58803091  -0.00290850  0.01211688  1
  Hf  Hf15  1  0.70354829  0.71163773  0.62445381  1
  Hf  Hf16  1  0.60105291  0.60856627  0.24803555  1
  Hf  Hf17  1  0.90588331  0.51652751  0.37421635  1
  Hf  Hf18  1  0.89992632  0.10947833  0.63639521  1
  Hf  Hf19  1  0.20149840  0.58563604  0.24018371  1
  Hf  Hf20  1  0.21894578  -0.00998189  0.76120923  1
  Hf  Hf21  1  0.31314733  0.49410561  0.63218885  1
  Hf  Hf22  1  0.39271478  0.81224682  0.74099520  1
  Hf  Hf23  1  0.49673204  0.69755719  0.62776922  1
  Hf  Hf24  1  0.09379828  0.90903931  0.11170309  1
  Hf  Hf25  1  0.69530347  0.10830306  0.62621141  1
  Hf  Hf26  1  0.00500836  -0.00600516  0.75783945  1
  Hf  Hf27  1  0.81262144  0.61456558  0.76152151  1
  Hf  Hf28  1  -0.00507552  0.59404150  0.51727653  1
  Hf  Hf29  1  0.89823706  0.88050002  0.38467285  1
  Hf  Hf30  1  0.09451363  0.88705272  0.88253217  1
  Hf  Hf31  1  0.70592900  0.09587715  0.13145070  1
  Hf  Hf32  1  0.69150961  0.29610961  0.13032254  1
  Hf  Hf33  1  0.47521225  0.29936752  0.89763597  1
  Hf  Hf34  1  0.70500902  0.71818914  0.87432068  1
  Hf  Hf35  1  -0.00232600  0.61303599  0.23187865  1
  Hf  Hf36  1  0.78922506  -0.00067615  -0.01060701  1
  Hf  Hf37  1  0.60966821  0.19393705  -0.01106579  1
  Hf  Hf38  1  0.80146343  0.61209063  0.24496604  1
  Hf  Hf39  1  0.60497810  0.60022629  0.49695092  1
  Zr  Zr40  1  0.29492139  0.30690400  0.36277538  1
  Zr  Zr41  1  0.79202436  0.41146699  -0.01924824  1
  Zr  Zr42  1  0.90701636  0.29980627  0.36771000  1
  Zr  Zr43  1  0.69068511  0.29835561  0.37554218  1
  Zr  Zr44  1  0.50161490  0.49931429  0.11587547  1
  Zr  Zr45  1  0.88998828  0.90336297  0.62326332  1
  Zr  Zr46  1  0.89350501  0.28601602  0.12704820  1
  Zr  Zr47  1  0.10575199  0.28526523  0.62918382  1
  Zr  Zr48  1  0.50100557  0.70149551  0.87160414  1
  Zr  Zr49  1  0.00513732  0.39058583  0.50748023  1
  Zr  Zr50  1  0.39845440  0.59192008  0.49390953  1
  Zr  Zr51  1  0.20290619  -0.00684582  0.48683004  1
  Zr  Zr52  1  0.30713751  0.88950466  0.36482805  1
  Zr  Zr53  1  0.58844947  0.20325503  0.76308925  1
  Zr  Zr54  1  0.09606003  0.71092304  0.11180264  1
  Zr  Zr55  1  0.80884072  0.20628539  0.49875151  1
  Zr  Zr56  1  0.40774883  0.19676902  0.49622433  1
  Zr  Zr57  1  0.29584682  0.69918907  0.86842409  1
  Zr  Zr58  1  0.10537276  0.08808279  0.62773718  1
  Zr  Zr59  1  0.00446330  0.40891694  0.22440588  1
  Zr  Zr60  1  0.38883243  0.19807258  0.74584200  1
  Zr  Zr61  1  0.39274980  0.40839426  0.24707953  1
  Zr  Zr62  1  0.79642767  0.80877151  0.24388925  1
  Zr  Zr63  1  0.39797558  0.61143659  0.00856885  1
  Zr  Zr64  1  0.50064636  0.71268857  0.37111650  1
  Zr  Zr65  1  0.01015061  0.60732517  0.74234920  1
  Zr  Zr66  1  0.79845106  0.40332168  0.25313824  1
  Zr  Zr67  1  0.09448559  0.49632069  0.87085894  1
  Zr  Zr68  1  0.31087105  0.49061319  0.88198256  1
  Zr  Zr69  1  -0.00018383  -0.02101788  0.25682637  1
  Zr  Zr70  1  0.70516743  0.50028463  0.12270623  1
  Zr  Zr71  1  0.21149007  0.19223162  -0.01598993  1
  Zr  Zr72  1  0.18168914  0.78867440  0.74662288  1
  Zr  Zr73  1  0.50108098  0.30238251  0.61900417  1
  Zr  Zr74  1  0.10047981  0.28987182  0.36854768  1
  Zr  Zr75  1  0.81071065  0.20341226  -0.01827467  1
  Zr  Zr76  1  0.49419145  0.29550990  0.11581411  1
  Zr  Zr77  1  0.70636559  0.50674606  0.63268430  1
  Zr  Zr78  1  0.79013985  0.21465153  0.77200951  1
  Zr  Zr79  1  0.11155014  0.49552188  0.63732050  1
  Ta  Ta80  1  0.00054234  0.79830314  0.51011065  1
  Ta  Ta81  1  0.79574952  0.00610008  0.49115374  1
  Ta  Ta82  1  0.49863742  0.10249997  0.14751484  1
  Ta  Ta83  1  0.21349294  0.40163164  0.50041870  1
  Ta  Ta84  1  0.50957494  0.49574525  0.89036735  1
  Ta  Ta85  1  0.28821879  0.69258309  0.62809278  1
  Ta  Ta86  1  0.29582439  0.28091622  0.12901353  1
  Ta  Ta87  1  0.20972087  -0.00082266  -0.00877323  1
  Ta  Ta88  1  0.79535681  0.18120916  0.26186757  1
  Ta  Ta89  1  0.58774014  0.81514706  0.49969506  1
  Ta  Ta90  1  0.20319545  0.19860890  0.49646900  1
  Ta  Ta91  1  0.40482082  0.81357545  0.01750012  1
  Ta  Ta92  1  0.90369390  0.09297507  0.37345619  1
  Ta  Ta93  1  0.19450858  0.00601695  0.25534480  1
  Ta  Ta94  1  0.00088152  0.00719111  -0.01240044  1
  Ta  Ta95  1  -0.00115809  -0.00198703  0.49490577  1
  Ta  Ta96  1  0.29619681  0.89945626  0.61532977  1
  Ta  Ta97  1  0.60303692  0.40392384  0.76635955  1
  Ta  Ta98  1  0.88908419  0.70856238  0.10466569  1
  Ta  Ta99  1  0.69783477  0.50992033  0.37560310  1
  Ta  Ta100  1  0.29333162  0.69102242  0.36880171  1
  Ta  Ta101  1  0.90451712  0.09674446  0.86772090  1
  Ta  Ta102  1  0.89981666  0.31612768  0.64494225  1
  Ta  Ta103  1  0.11053407  0.10500537  0.12108616  1
  Ta  Ta104  1  0.41534539  -0.00611190  0.50298520  1
  Ta  Ta105  1  0.89474556  0.89730989  0.11160316  1
  Ta  Ta106  1  0.00730242  0.20638670  0.76567299  1
  Ta  Ta107  1  0.29636778  0.90543205  0.13971796  1
  Ta  Ta108  1  0.41199541  0.39728286  0.75439432  1
  Ta  Ta109  1  0.59862914  0.81057647  0.74496882  1
  Ta  Ta110  1  0.50150492  0.91167841  0.36036696  1
  Ta  Ta111  1  -0.02091661  0.79437750  0.74767455  1
  Ta  Ta112  1  0.30274700  0.09907531  0.61855591  1
  Ta  Ta113  1  0.60874145  0.60287809  0.00126711  1
  Ta  Ta114  1  -0.00808346  0.59050427  0.00649567  1
  Ta  Ta115  1  0.39371644  0.80072734  0.50445909  1
  Ta  Ta116  1  0.30560772  0.70706066  0.13588696  1
  Ta  Ta117  1  0.59241404  0.00299302  0.74799582  1
  Ta  Ta118  1  0.20042246  0.59975205  0.49912450  1
  Ta  Ta119  1  0.39996925  0.60536793  0.24865327  1
  Ti  Ti120  1  0.30065304  0.49368586  0.11575313  1
  Ti  Ti121  1  0.71301614  0.71044641  0.38808746  1
  Ti  Ti122  1  0.68960287  0.90638335  0.86966392  1
  Ti  Ti123  1  0.51006663  0.49334856  0.62734114  1
  Ti  Ti124  1  0.60149607  0.59813584  0.75690570  1
  Ti  Ti125  1  0.10221768  0.09698215  0.37415312  1
  Ti  Ti126  1  0.19447723  0.59391559  0.01006348  1
  Ti  Ti127  1  0.49536715  0.90423218  0.14735049  1
  Ti  Ti128  1  0.61712723  0.00371495  0.25612927  1
  Ti  Ti129  1  0.59544147  0.00858366  0.49044072  1
  Ti  Ti130  1  0.88704296  0.89093852  0.87708586  1
  Ti  Ti131  1  0.80164392  0.41869330  0.77034116  1
  Ti  Ti132  1  0.40989169  0.00528411  0.73192739  1
  Ti  Ti133  1  0.09422060  0.69170006  0.88631237  1
  Ti  Ti134  1  0.19078626  0.38848098  0.22598318  1
  Ti  Ti135  1  0.19672580  0.79210045  0.49825119  1
  Ti  Ti136  1  0.29992200  0.29823376  0.61951080  1
  Ti  Ti137  1  0.39376575  0.00278743  0.01436867  1
  Ti  Ti138  1  0.59613016  0.40036843  0.25497422  1
  Ti  Ti139  1  0.00932085  0.19008053  0.24595946  1
  Ti  Ti140  1  0.40543698  0.59253694  0.75187038  1
  Ti  Ti141  1  0.69631421  0.90235817  0.37996546  1
  Ti  Ti142  1  0.79125400  0.00066812  0.76089295  1
  Ti  Ti143  1  0.49789830  0.49679601  0.37002274  1
  Ti  Ti144  1  0.91453236  0.31925728  0.86745041  1
  Ti  Ti145  1  0.32068931  0.09086923  0.87780841  1
  Ti  Ti146  1  0.50093028  0.09294509  0.88006387  1
  Ti  Ti147  1  0.79677118  0.60775791  -0.00646016  1
  Ti  Ti148  1  0.00337957  0.19090262  0.50145020  1
  Ti  Ti149  1  0.49535786  0.28615580  0.35978342  1
  Ti  Ti150  1  0.90758943  0.70870941  0.89083284  1
  Ti  Ti151  1  0.59248969  0.39970196  0.48951263  1
  Ti  Ti152  1  0.60395940  0.80218530  0.23709259  1
  Ti  Ti153  1  0.09830916  0.89083734  0.62298441  1
  Ti  Ti154  1  0.30421791  0.09672371  0.13666799  1
  Ti  Ti155  1  0.59878666  0.18982182  0.48954145  1
  Ti  Ti156  1  0.89163903  0.70326847  0.61845598  1
  Ti  Ti157  1  0.40199816  0.39870687  0.48810932  1
  Ti  Ti158  1  0.19959277  0.18468125  0.77011961  1
  Ti  Ti159  1  0.01412425  0.19955508  -0.01602782  1
  Mo  Mo160  1  0.30117755  0.29206215  0.87691827  1
  Mo  Mo161  1  0.50497103  0.09211981  0.61885098  1
  Mo  Mo162  1  0.49937727  0.90002319  0.61953208  1
  Mo  Mo163  1  0.21333833  0.59752869  0.74987195  1
  Mo  Mo164  1  0.60073420  0.40244675  -0.00874542  1
  Mo  Mo165  1  0.51228951  0.09894198  0.35826657  1
  Mo  Mo166  1  0.80132673  0.60982627  0.49824905  1
  Mo  Mo167  1  0.89306399  0.69638409  0.38553462  1
  Mo  Mo168  1  0.10042035  0.70511570  0.61518434  1
  Mo  Mo169  1  0.09716496  0.29486289  0.87242038  1
  Mo  Mo170  1  0.19598953  0.19269473  0.24436984  1
  Mo  Mo171  1  0.70282968  0.09145729  0.37853364  1
  Mo  Mo172  1  0.89683870  0.50930274  0.11636086  1
  Mo  Mo173  1  0.89424061  0.49906258  0.63497100  1
  Mo  Mo174  1  0.80218283  -0.00158007  0.26062181  1
  Mo  Mo175  1  0.79134108  0.80264705  0.49846940  1
  Mo  Mo176  1  0.49811366  0.70718019  0.13325912  1
  Mo  Mo177  1  0.40126687  0.17461995  0.00941804  1
  Mo  Mo178  1  0.69509318  0.09216509  0.86802823  1
  Mo  Mo179  1  0.79660983  0.80599666  0.00142518  1
  Mo  Mo180  1  0.69563671  0.51967962  0.87090814  1
  Mo  Mo181  1  0.40196205  -0.00297426  0.24480579  1
  Mo  Mo182  1  -0.00510869  0.80402991  -0.00891149  1
  Mo  Mo183  1  -0.01182872  0.79561135  0.24296780  1
  Mo  Mo184  1  0.10087931  0.28198591  0.12340786  1
  Mo  Mo185  1  0.90307491  0.51544960  0.87917260  1
  Mo  Mo186  1  0.69941898  0.70192516  0.11924664  1
  Mo  Mo187  1  0.40038059  0.20089199  0.24704991  1
  Mo  Mo188  1  0.30994851  0.90347632  0.88152088  1
  Mo  Mo189  1  0.40247082  0.79655056  0.24250868  1
  Mo  Mo190  1  0.79793819  0.81277178  0.75434818  1
  Mo  Mo191  1  0.30125948  0.50609293  0.37542222  1
  Mo  Mo192  1  0.70311342  0.90703551  0.13147033  1
  Mo  Mo193  1  0.38797017  0.39132790  0.01369091  1
  Mo  Mo194  1  0.09760695  0.89787964  0.38580117  1
  Mo  Mo195  1  0.10230113  0.09111095  0.87262921  1
  Mo  Mo196  1  0.10563656  0.49977652  0.11489178  1
  Mo  Mo197  1  -0.00828349  0.40072665  0.75191262  1
  Mo  Mo198  1  0.60096113  0.19968226  0.25600644  1
  Mo  Mo199  1  0.68630559  0.31561269  0.87760597  1
