# generated using pymatgen
data_HfZrTaTiMo
_symmetry_space_group_name_H-M   'P 1'
_cell_length_a   15.21395067
_cell_length_b   15.21098606
_cell_length_c   16.83030525
_cell_angle_alpha   90.04969361
_cell_angle_beta   89.96776551
_cell_angle_gamma   89.98737051
_symmetry_Int_Tables_number   1
_chemical_formula_structural   HfZrTaTiMo
_chemical_formula_sum   'Hf40 Zr40 Ta40 Ti40 Mo40'
_cell_volume   3894.85345867
_cell_formula_units_Z   40
loop_
 _symmetry_equiv_pos_site_id
 _symmetry_equiv_pos_as_xyz
  1  'x, y, z'
loop_
 _atom_site_type_symbol
 _atom_site_label
 _atom_site_symmetry_multiplicity
 _atom_site_fract_x
 _atom_site_fract_y
 _atom_site_fract_z
 _atom_site_occupancy
  Hf  Hf0  1  0.90928134  0.90964925  0.87226614  1
  Hf  Hf1  1  0.19181200  0.39246076  0.23297373  1
  Hf  Hf2  1  0.79652606  0.00274456  0.24028724  1
  Hf  Hf3  1  0.50383312  0.90631352  0.86792808  1
  Hf  Hf4  1  0.79450284  0.79422609  0.01319797  1
  Hf  Hf5  1  0.01713898  0.21375042  0.00017935  1
  Hf  Hf6  1  0.58365558  0.60218913  0.76768815  1
  Hf  Hf7  1  0.39680228  0.01107447  -0.00470273  1
  Hf  Hf8  1  0.49138154  0.89453549  0.12298759  1
  Hf  Hf9  1  0.59683689  0.78380936  0.24934451  1
  Hf  Hf10  1  0.88551778  0.70208899  0.63410996  1
  Hf  Hf11  1  0.41898097  0.39631275  -0.00576580  1
  Hf  Hf12  1  0.90592006  0.50093726  0.62371437  1
  Hf  Hf13  1  0.29542918  0.69864101  0.11595699  1
  Hf  Hf14  1  0.79745201  0.00410171  0.49921639  1
  Hf  Hf15  1  0.79964641  -0.00373953  0.01769518  1
  Hf  Hf16  1  0.78888752  0.59472144  0.76542970  1
  Hf  Hf17  1  0.50239440  0.90252272  0.37046212  1
  Hf  Hf18  1  0.30318815  0.89415390  0.37343743  1
  Hf  Hf19  1  0.30408933  0.49391335  0.36638879  1
  Hf  Hf20  1  0.18332391  0.80247353  -0.00246077  1
  Hf  Hf21  1  0.59467726  0.39454640  0.74499108  1
  Hf  Hf22  1  0.38631630  0.58739719  0.76457697  1
  Hf  Hf23  1  0.40679667  0.60049013  0.49349835  1
  Hf  Hf24  1  0.48965763  0.69029842  0.11175152  1
  Hf  Hf25  1  0.09974817  0.50005438  0.37629088  1
  Hf  Hf26  1  0.71317727  0.89477087  0.63419152  1
  Hf  Hf27  1  0.19041864  0.60582432  0.24822227  1
  Hf  Hf28  1  0.01708988  0.79594773  0.75925189  1
  Hf  Hf29  1  0.60428855  0.00240663  0.23323226  1
  Hf  Hf30  1  0.21530248  0.19293185  0.00118174  1
  Hf  Hf31  1  0.60972506  0.41100251  0.25281763  1
  Hf  Hf32  1  0.18976113  0.39685857  0.01569787  1
  Hf  Hf33  1  0.19958228  0.59963923  0.50768317  1
  Hf  Hf34  1  0.91977993  0.89884962  0.13631594  1
  Hf  Hf35  1  0.30820196  0.49307459  0.62237955  1
  Hf  Hf36  1  0.30249222  0.30016888  0.36755972  1
  Hf  Hf37  1  0.69456976  0.50331290  0.62084784  1
  Hf  Hf38  1  0.26879753  0.68936882  0.87224011  1
  Hf  Hf39  1  -0.01344008  0.60509667  0.49127107  1
  Zr  Zr40  1  -0.00279318  0.79866302  -0.00615214  1
  Zr  Zr41  1  0.50133511  0.12270954  0.12476353  1
  Zr  Zr42  1  0.41721239  0.20490455  0.75566878  1
  Zr  Zr43  1  0.89111631  0.10945989  0.62205974  1
  Zr  Zr44  1  0.88201633  0.50400242  0.13643099  1
  Zr  Zr45  1  0.00734772  0.02265146  0.26988301  1
  Zr  Zr46  1  0.80722541  0.00699917  0.74384455  1
  Zr  Zr47  1  0.90888575  0.30950317  0.13034127  1
  Zr  Zr48  1  -0.00202090  0.21257227  0.74751668  1
  Zr  Zr49  1  0.78133075  0.59476206  -0.01515682  1
  Zr  Zr50  1  0.60687853  0.79697888  0.49142143  1
  Zr  Zr51  1  0.69556619  0.09887513  0.87860018  1
  Zr  Zr52  1  0.41487357  0.60821852  0.26121901  1
  Zr  Zr53  1  0.20850092  0.00167365  0.52054117  1
  Zr  Zr54  1  0.20232714  0.20883810  0.74209552  1
  Zr  Zr55  1  0.49931361  0.30549331  0.37160916  1
  Zr  Zr56  1  0.30375028  0.10109015  0.86442354  1
  Zr  Zr57  1  0.60576333  0.00304631  0.01401515  1
  Zr  Zr58  1  0.60263764  0.78809081  0.00019517  1
  Zr  Zr59  1  0.31548072  0.50076844  0.12990239  1
  Zr  Zr60  1  0.80395250  0.39400436  0.75382292  1
  Zr  Zr61  1  0.29281164  0.09728368  0.37235574  1
  Zr  Zr62  1  -0.00747872  0.20368809  0.49061526  1
  Zr  Zr63  1  0.89641463  0.89470944  0.37283703  1
  Zr  Zr64  1  0.28544211  0.90087741  0.86478038  1
  Zr  Zr65  1  0.17203014  0.60004797  0.73407749  1
  Zr  Zr66  1  0.40912671  -0.00253152  0.50971322  1
  Zr  Zr67  1  0.29356854  0.89856244  0.12600025  1
  Zr  Zr68  1  0.90468747  0.11554805  0.12319320  1
  Zr  Zr69  1  0.60184758  0.19661821  0.49781556  1
  Zr  Zr70  1  0.89895596  0.11251833  0.88447477  1
  Zr  Zr71  1  0.31735631  0.28668090  0.12605502  1
  Zr  Zr72  1  0.89246075  0.69170622  0.13908862  1
  Zr  Zr73  1  0.50978030  0.87996243  0.63495553  1
  Zr  Zr74  1  0.91295772  0.31758426  0.87969665  1
  Zr  Zr75  1  0.10938518  0.90074595  0.38611161  1
  Zr  Zr76  1  0.10461855  0.29341116  0.37526766  1
  Zr  Zr77  1  0.79465433  0.39081893  -0.00368337  1
  Zr  Zr78  1  0.70798162  0.88029032  0.85873965  1
  Zr  Zr79  1  0.51382803  0.10352788  0.62649486  1
  Ta  Ta80  1  0.40176273  0.39918163  0.75916451  1
  Ta  Ta81  1  0.39791324  -0.00699204  0.73952188  1
  Ta  Ta82  1  0.69769685  0.09923856  0.36741132  1
  Ta  Ta83  1  0.49671341  0.31366058  0.61777469  1
  Ta  Ta84  1  0.89069995  0.70354226  0.86677159  1
  Ta  Ta85  1  0.51693126  0.50403204  0.12530748  1
  Ta  Ta86  1  0.39905209  0.79278159  0.50112946  1
  Ta  Ta87  1  0.20590750  0.79892722  0.51666876  1
  Ta  Ta88  1  0.50223894  0.10126499  0.36789937  1
  Ta  Ta89  1  0.01452237  -0.00014688  0.00185898  1
  Ta  Ta90  1  0.30760134  0.30854990  0.87983604  1
  Ta  Ta91  1  0.70443089  0.29186544  0.61618662  1
  Ta  Ta92  1  0.60213605  0.40731956  0.50094352  1
  Ta  Ta93  1  0.08953873  0.69868380  0.12705842  1
  Ta  Ta94  1  0.68982062  0.70195774  0.63377720  1
  Ta  Ta95  1  0.78826729  0.60250217  0.48797848  1
  Ta  Ta96  1  0.11635027  0.30960181  0.87269087  1
  Ta  Ta97  1  0.19308584  -0.00050691  0.00320602  1
  Ta  Ta98  1  0.08200286  0.71015994  0.61164295  1
  Ta  Ta99  1  0.19637531  -0.00166460  0.72927200  1
  Ta  Ta100  1  0.09857072  0.31755424  0.61728633  1
  Ta  Ta101  1  0.09811673  0.70777808  0.38391193  1
  Ta  Ta102  1  0.01252658  0.00161570  0.74157615  1
  Ta  Ta103  1  0.91953135  0.89274158  0.61944809  1
  Ta  Ta104  1  0.59920368  0.60434529  0.48979730  1
  Ta  Ta105  1  0.40475808  0.78488181  0.76107687  1
  Ta  Ta106  1  0.09719689  0.50063107  0.87844918  1
  Ta  Ta107  1  0.39464668  0.20342657  0.50203283  1
  Ta  Ta108  1  0.01183752  0.79537058  0.25436854  1
  Ta  Ta109  1  0.10520904  0.09819531  0.12740352  1
  Ta  Ta110  1  0.09629969  0.10789072  0.62053613  1
  Ta  Ta111  1  0.60670051  0.22282811  -0.00466831  1
  Ta  Ta112  1  -0.01011107  0.59419493  -0.00200216  1
  Ta  Ta113  1  0.89177032  0.69825444  0.36258976  1
  Ta  Ta114  1  0.00157389  0.00416513  0.49529563  1
  Ta  Ta115  1  0.39326217  0.79479933  -0.01831812  1
  Ta  Ta116  1  0.10275230  0.09255365  0.86948289  1
  Ta  Ta117  1  0.40733698  0.19997868  0.25275475  1
  Ta  Ta118  1  0.70197326  0.30222137  0.37461759  1
  Ta  Ta119  1  0.81110056  0.20554731  0.26594032  1
  Ti  Ti120  1  0.70526522  0.29367699  0.13659009  1
  Ti  Ti121  1  0.89901695  0.30812937  0.62018657  1
  Ti  Ti122  1  0.49991591  0.68288955  0.62863295  1
  Ti  Ti123  1  0.39838529  0.00235979  0.24794096  1
  Ti  Ti124  1  0.68048812  0.47590817  0.87699459  1
  Ti  Ti125  1  0.29446875  0.70266425  0.37762903  1
  Ti  Ti126  1  0.79269128  0.20558864  0.74829940  1
  Ti  Ti127  1  0.20242833  0.39825469  0.50247723  1
  Ti  Ti128  1  0.19181620  0.18727309  0.24745061  1
  Ti  Ti129  1  0.80280989  0.40227192  0.48890152  1
  Ti  Ti130  1  0.40428532  0.40104841  0.49966773  1
  Ti  Ti131  1  -0.00867360  0.59519824  0.26251613  1
  Ti  Ti132  1  0.01367533  0.41775859  0.74554024  1
  Ti  Ti133  1  0.51216381  0.31018383  0.13338137  1
  Ti  Ti134  1  -0.00509155  0.40367136  0.49249210  1
  Ti  Ti135  1  0.60055952  0.00753598  0.74820230  1
  Ti  Ti136  1  0.68885368  0.66725200  0.13144227  1
  Ti  Ti137  1  0.20504188  0.40676642  0.74790433  1
  Ti  Ti138  1  0.79013670  0.79381166  0.24363626  1
  Ti  Ti139  1  0.18342512  0.59342203  0.00517749  1
  Ti  Ti140  1  -0.00830116  0.39327624  0.26381865  1
  Ti  Ti141  1  0.30711016  0.10710913  0.62921909  1
  Ti  Ti142  1  0.60823082  0.00033623  0.50063316  1
  Ti  Ti143  1  0.30259805  0.30112552  0.62248248  1
  Ti  Ti144  1  0.70171986  0.89846618  0.36886792  1
  Ti  Ti145  1  0.19703847  -0.00640747  0.24519146  1
  Ti  Ti146  1  0.19669988  0.79784429  0.24694812  1
  Ti  Ti147  1  0.20270272  0.80734608  0.72822761  1
  Ti  Ti148  1  0.60909781  0.20337453  0.75444737  1
  Ti  Ti149  1  0.30728435  0.70256711  0.62894070  1
  Ti  Ti150  1  0.80542579  0.79340347  0.49632686  1
  Ti  Ti151  1  0.79842894  0.20403044  0.48679504  1
  Ti  Ti152  1  0.50705493  0.50224792  0.37214067  1
  Ti  Ti153  1  0.30384078  0.09587252  0.13007769  1
  Ti  Ti154  1  0.39423448  0.79822866  0.25204114  1
  Ti  Ti155  1  0.58533657  0.58764584  -0.01929493  1
  Ti  Ti156  1  0.20025588  0.20197067  0.50649413  1
  Ti  Ti157  1  0.80109106  0.41123081  0.26778376  1
  Ti  Ti158  1  0.07653812  0.49704810  0.12863648  1
  Ti  Ti159  1  0.38920009  0.59245157  -0.02233452  1
  Mo  Mo160  1  0.89642235  0.50030572  0.37295005  1
  Mo  Mo161  1  0.60651240  0.59971823  0.25841973  1
  Mo  Mo162  1  -0.00497705  0.79901296  0.49553241  1
  Mo  Mo163  1  0.80642674  0.79521672  0.74775310  1
  Mo  Mo164  1  0.69268844  0.69410776  0.87243935  1
  Mo  Mo165  1  0.48583451  0.70089527  0.88323742  1
  Mo  Mo166  1  0.89346337  0.10416171  0.37916652  1
  Mo  Mo167  1  0.69664418  0.49826267  0.38868728  1
  Mo  Mo168  1  0.31016915  0.88992274  0.63525456  1
  Mo  Mo169  1  0.09796776  0.28876368  0.13753633  1
  Mo  Mo170  1  0.00962792  0.41192305  0.00449620  1
  Mo  Mo171  1  0.09546003  0.49792312  0.61100167  1
  Mo  Mo172  1  0.79422299  0.19803989  0.00817307  1
  Mo  Mo173  1  0.48991979  0.49057406  0.87885022  1
  Mo  Mo174  1  0.10701435  0.10058905  0.38582590  1
  Mo  Mo175  1  0.70620893  0.88211061  0.13384934  1
  Mo  Mo176  1  0.77907793  0.59788133  0.26732672  1
  Mo  Mo177  1  0.00614924  0.20756593  0.25868660  1
  Mo  Mo178  1  0.10063935  0.90095026  0.13336741  1
  Mo  Mo179  1  0.49179379  0.70517455  0.37721141  1
  Mo  Mo180  1  0.41828299  0.20015997  -0.01879413  1
  Mo  Mo181  1  0.49958758  0.49968672  0.61969134  1
  Mo  Mo182  1  0.51785624  0.30148286  0.87504939  1
  Mo  Mo183  1  -0.00705815  0.59782345  0.74994387  1
  Mo  Mo184  1  0.59718320  0.79145822  0.75033458  1
  Mo  Mo185  1  0.61166602  0.20119238  0.25566866  1
  Mo  Mo186  1  0.70307823  0.70692089  0.37447131  1
  Mo  Mo187  1  0.09795270  0.90119621  0.61487051  1
  Mo  Mo188  1  0.50494788  0.10177511  0.87238727  1
  Mo  Mo189  1  0.69500450  0.49217798  0.12417840  1
  Mo  Mo190  1  0.89520193  0.30743738  0.37472360  1
  Mo  Mo191  1  0.69897274  0.10529996  0.62709839  1
  Mo  Mo192  1  0.60860076  0.40587738  0.00959541  1
  Mo  Mo193  1  0.28060466  0.48457179  0.87875499  1
  Mo  Mo194  1  0.70425839  0.29289140  0.87265720  1
  Mo  Mo195  1  0.40577466  0.40029397  0.24259784  1
  Mo  Mo196  1  0.10523911  0.90716654  0.86844150  1
  Mo  Mo197  1  0.08176703  0.68610537  0.88079017  1
  Mo  Mo198  1  0.91493459  0.51073385  0.87084265  1
  Mo  Mo199  1  0.70565366  0.12060859  0.12677616  1
