# generated using pymatgen
data_HfZrTaTiMo
_symmetry_space_group_name_H-M   'P 1'
_cell_length_a   15.21253524
_cell_length_b   15.21390407
_cell_length_c   16.84886762
_cell_angle_alpha   90.01703577
_cell_angle_beta   89.98920496
_cell_angle_gamma   90.01043357
_symmetry_Int_Tables_number   1
_chemical_formula_structural   HfZrTaTiMo
_chemical_formula_sum   'Hf40 Zr40 Ta40 Ti40 Mo40'
_cell_volume   3899.53618620
_cell_formula_units_Z   40
loop_
 _symmetry_equiv_pos_site_id
 _symmetry_equiv_pos_as_xyz
  1  'x, y, z'
loop_
 _atom_site_type_symbol
 _atom_site_label
 _atom_site_symmetry_multiplicity
 _atom_site_fract_x
 _atom_site_fract_y
 _atom_site_fract_z
 _atom_site_occupancy
  Hf  Hf0  1  0.79300020  0.80327869  0.74173800  1
  Hf  Hf1  1  0.08721817  0.30445457  0.38276378  1
  Hf  Hf2  1  0.00650820  0.39083084  0.23894260  1
  Hf  Hf3  1  0.58655447  0.80914202  -0.00293255  1
  Hf  Hf4  1  0.69027076  0.10758910  0.87141796  1
  Hf  Hf5  1  0.10764788  0.50069501  0.88184523  1
  Hf  Hf6  1  0.11731782  0.50176205  0.11942726  1
  Hf  Hf7  1  0.31319513  0.89240509  0.37318106  1
  Hf  Hf8  1  0.39716086  0.00352618  0.00950541  1
  Hf  Hf9  1  0.19075271  -0.00792582  0.26467425  1
  Hf  Hf10  1  0.90238377  0.50121556  0.89086213  1
  Hf  Hf11  1  0.09509472  0.88221799  0.13337105  1
  Hf  Hf12  1  0.31055728  0.10233048  0.86439229  1
  Hf  Hf13  1  0.11313369  0.29176703  0.86630415  1
  Hf  Hf14  1  0.20337794  0.59975395  0.74686445  1
  Hf  Hf15  1  0.81861161  0.40736621  0.50201194  1
  Hf  Hf16  1  0.60212159  0.61166444  0.76488091  1
  Hf  Hf17  1  0.40292251  0.39915962  0.74581909  1
  Hf  Hf18  1  0.30496416  0.49006788  0.61262960  1
  Hf  Hf19  1  0.41021073  0.60884991  0.51282682  1
  Hf  Hf20  1  0.79978899  0.00211508  -0.01010971  1
  Hf  Hf21  1  0.09453622  0.90928566  0.62537066  1
  Hf  Hf22  1  0.39702875  0.39671706  0.25868016  1
  Hf  Hf23  1  0.71200638  0.30452348  0.37492986  1
  Hf  Hf24  1  0.42196928  0.60215331  0.23276000  1
  Hf  Hf25  1  0.27865695  0.89551219  0.85845263  1
  Hf  Hf26  1  0.50397134  0.08438521  0.38748028  1
  Hf  Hf27  1  0.40720010  -0.01018687  0.24168266  1
  Hf  Hf28  1  0.69807285  0.52154784  0.11534434  1
  Hf  Hf29  1  0.60445210  0.19297726  0.50750975  1
  Hf  Hf30  1  0.00239337  -0.00748433  -0.02105180  1
  Hf  Hf31  1  0.30183424  0.49081858  0.38838946  1
  Hf  Hf32  1  0.68728599  0.71054397  0.62671339  1
  Hf  Hf33  1  0.61111142  0.41574151  0.50146446  1
  Hf  Hf34  1  0.00605832  0.38933579  0.00477299  1
  Hf  Hf35  1  -0.00201978  0.78923369  -0.00475518  1
  Hf  Hf36  1  0.78407743  0.80100023  0.48688834  1
  Hf  Hf37  1  0.00399368  0.60771304  0.24041253  1
  Hf  Hf38  1  0.07860823  0.09130916  0.14057823  1
  Hf  Hf39  1  0.69886549  0.31550312  0.10914081  1
  Zr  Zr40  1  0.89460097  0.29726428  0.86996121  1
  Zr  Zr41  1  0.49487852  0.72183436  0.37140075  1
  Zr  Zr42  1  0.67459521  0.90508678  0.36732368  1
  Zr  Zr43  1  0.89469195  0.68869477  0.60431368  1
  Zr  Zr44  1  0.79943313  0.18794187  0.74036382  1
  Zr  Zr45  1  0.69833691  0.30502643  0.63175033  1
  Zr  Zr46  1  0.88866189  0.90573070  0.60789314  1
  Zr  Zr47  1  0.88282461  0.87967816  0.87638064  1
  Zr  Zr48  1  0.70388634  0.89818570  0.12946189  1
  Zr  Zr49  1  0.90343961  0.90994577  0.12572455  1
  Zr  Zr50  1  0.70614088  0.50341866  0.89274149  1
  Zr  Zr51  1  0.29686223  0.88752268  0.13146281  1
  Zr  Zr52  1  0.59550609  0.01509684  0.23567142  1
  Zr  Zr53  1  0.59672864  0.41739390  0.24837123  1
  Zr  Zr54  1  0.49856386  0.29942776  0.39061912  1
  Zr  Zr55  1  0.29940038  0.68717345  0.37074625  1
  Zr  Zr56  1  0.78867180  0.78520063  0.26039808  1
  Zr  Zr57  1  0.69292249  0.30952957  0.88109889  1
  Zr  Zr58  1  0.80420630  0.40046032  0.24203137  1
  Zr  Zr59  1  0.91992352  0.48824174  0.37044087  1
  Zr  Zr60  1  -0.01083414  0.81483257  0.27796565  1
  Zr  Zr61  1  0.31467923  0.69640937  0.87527603  1
  Zr  Zr62  1  0.71717047  0.11483233  0.13201309  1
  Zr  Zr63  1  0.00848903  0.19214468  0.74205664  1
  Zr  Zr64  1  0.51176277  0.51682278  0.38013319  1
  Zr  Zr65  1  -0.00248608  0.17984047  -0.01513778  1
  Zr  Zr66  1  0.20481204  0.38985434  0.74344527  1
  Zr  Zr67  1  0.11020437  0.29024105  0.12783112  1
  Zr  Zr68  1  0.48210102  0.91172306  0.86923646  1
  Zr  Zr69  1  0.20183425  0.19145175  -0.00223971  1
  Zr  Zr70  1  -0.00207688  0.79069865  0.74992231  1
  Zr  Zr71  1  0.80693485  0.20044187  0.51205108  1
  Zr  Zr72  1  0.40923905  0.19456768  0.25228151  1
  Zr  Zr73  1  0.40480430  0.59431118  0.00862096  1
  Zr  Zr74  1  0.59250748  0.01649172  0.00567643  1
  Zr  Zr75  1  0.59777703  0.40632495  0.75142018  1
  Zr  Zr76  1  0.19918990  0.79894157  0.49695715  1
  Zr  Zr77  1  0.50259659  0.90194978  0.63845035  1
  Zr  Zr78  1  0.19279842  -0.00700269  0.00009296  1
  Zr  Zr79  1  0.09502707  0.69701255  0.61453687  1
  Ta  Ta80  1  0.90736303  0.10674384  0.38801507  1
  Ta  Ta81  1  0.18783646  0.78204127  0.26128960  1
  Ta  Ta82  1  0.49352865  0.31220398  0.12041072  1
  Ta  Ta83  1  0.60312876  0.00674908  0.75310999  1
  Ta  Ta84  1  -0.00234500  0.59328113  0.75380248  1
  Ta  Ta85  1  0.71380262  0.51543033  0.62841498  1
  Ta  Ta86  1  0.29132825  0.10524000  0.13449276  1
  Ta  Ta87  1  0.71430114  0.71776506  0.88355513  1
  Ta  Ta88  1  0.80121426  0.19931681  -0.00525511  1
  Ta  Ta89  1  0.31227511  0.48447431  0.12382765  1
  Ta  Ta90  1  0.20083252  0.20149652  0.26128656  1
  Ta  Ta91  1  0.49006024  0.31005846  0.61169595  1
  Ta  Ta92  1  0.57209114  0.80145917  0.22929967  1
  Ta  Ta93  1  0.71791320  0.52063923  0.36860871  1
  Ta  Ta94  1  0.39103377  0.19053539  0.51382377  1
  Ta  Ta95  1  0.09080254  0.68358307  0.38349633  1
  Ta  Ta96  1  0.39695755  0.80374216  0.51716823  1
  Ta  Ta97  1  0.30262138  0.29691190  0.12760710  1
  Ta  Ta98  1  0.90056646  0.28003418  0.11961784  1
  Ta  Ta99  1  0.30057243  0.09903297  0.38319360  1
  Ta  Ta100  1  0.20173699  0.00147865  0.49871896  1
  Ta  Ta101  1  0.29448262  0.29093865  0.39514914  1
  Ta  Ta102  1  0.00103964  0.40449825  0.75043200  1
  Ta  Ta103  1  0.58395791  0.81175951  0.50504299  1
  Ta  Ta104  1  0.10611199  0.70560420  0.87066914  1
  Ta  Ta105  1  0.59928921  0.80813646  0.76832578  1
  Ta  Ta106  1  -0.00871488  -0.00314086  0.75972021  1
  Ta  Ta107  1  0.81910165  0.00161477  0.26531688  1
  Ta  Ta108  1  0.80744205  0.41432090  0.74688423  1
  Ta  Ta109  1  0.80811029  0.60693560  0.75786275  1
  Ta  Ta110  1  0.00854192  0.60592494  0.01066888  1
  Ta  Ta111  1  0.09796444  0.10220389  0.37926271  1
  Ta  Ta112  1  0.70688891  0.10436452  0.37319839  1
  Ta  Ta113  1  0.31210884  0.29431109  0.87170070  1
  Ta  Ta114  1  0.09295427  0.49572564  0.62492018  1
  Ta  Ta115  1  0.40412634  0.20165880  0.00589864  1
  Ta  Ta116  1  0.28713086  0.69088724  0.12943103  1
  Ta  Ta117  1  0.19456634  0.19175345  0.51366221  1
  Ta  Ta118  1  0.59672871  0.61640880  -0.00787340  1
  Ta  Ta119  1  0.89892869  0.49919371  0.11426831  1
  Ti  Ti120  1  0.40370867  -0.00889573  0.50867585  1
  Ti  Ti121  1  0.00317831  0.20555748  0.51169424  1
  Ti  Ti122  1  0.10145866  0.30097988  0.62416393  1
  Ti  Ti123  1  0.20252556  0.60328529  0.00029794  1
  Ti  Ti124  1  0.51379442  0.50996517  0.62478744  1
  Ti  Ti125  1  0.49476210  0.29197161  0.87548297  1
  Ti  Ti126  1  0.19512547  0.59375862  0.50167948  1
  Ti  Ti127  1  0.82053353  0.20013258  0.25525777  1
  Ti  Ti128  1  0.30399952  0.49111563  0.87611088  1
  Ti  Ti129  1  0.91173130  0.08805079  0.61412572  1
  Ti  Ti130  1  0.90817629  0.30868371  0.63371867  1
  Ti  Ti131  1  0.49124169  0.50608128  0.87495627  1
  Ti  Ti132  1  0.70470574  0.07413323  0.61892874  1
  Ti  Ti133  1  0.88473487  0.67979833  0.38282639  1
  Ti  Ti134  1  0.40122931  0.78907342  0.74358359  1
  Ti  Ti135  1  0.29201335  0.90098883  0.63868217  1
  Ti  Ti136  1  0.40908754  0.60044096  0.74296281  1
  Ti  Ti137  1  0.21288328  0.18633991  0.72315164  1
  Ti  Ti138  1  -0.00367268  0.81155162  0.47965106  1
  Ti  Ti139  1  0.29960681  0.70238148  0.63094870  1
  Ti  Ti140  1  0.39590091  0.01471660  0.73964666  1
  Ti  Ti141  1  0.18874725  0.39738315  0.50297550  1
  Ti  Ti142  1  0.20211007  0.58693414  0.25254823  1
  Ti  Ti143  1  0.57609574  0.41286956  -0.00022405  1
  Ti  Ti144  1  0.11402336  0.08265431  0.85566736  1
  Ti  Ti145  1  0.90543240  0.50190157  0.62643056  1
  Ti  Ti146  1  0.58995012  0.20452856  0.00237477  1
  Ti  Ti147  1  0.21960660  0.39500023  -0.00343349  1
  Ti  Ti148  1  0.68327653  0.69598120  0.37201271  1
  Ti  Ti149  1  0.80883434  0.62086980  0.00230197  1
  Ti  Ti150  1  0.58486580  0.20031661  0.74336408  1
  Ti  Ti151  1  -0.00004228  0.57786978  0.49462248  1
  Ti  Ti152  1  0.39805878  0.20478853  0.72842261  1
  Ti  Ti153  1  0.79481600  -0.00478336  0.75514389  1
  Ti  Ti154  1  0.60493802  0.21237734  0.24756516  1
  Ti  Ti155  1  0.89214796  0.70483564  0.12923489  1
  Ti  Ti156  1  0.60977303  0.61349541  0.50454206  1
  Ti  Ti157  1  0.20026273  0.79137999  0.00003537  1
  Ti  Ti158  1  0.20468036  0.39669655  0.25925878  1
  Ti  Ti159  1  0.50377880  0.09828826  0.62083375  1
  Mo  Mo160  1  0.49135751  0.89986132  0.11351765  1
  Mo  Mo161  1  0.11198172  0.50246886  0.37509913  1
  Mo  Mo162  1  0.10156935  0.89955199  0.38434336  1
  Mo  Mo163  1  0.19409677  0.00290787  0.74020091  1
  Mo  Mo164  1  0.50160190  0.70046085  0.87153711  1
  Mo  Mo165  1  -0.00428965  0.00600402  0.26747126  1
  Mo  Mo166  1  0.62068992  0.62061013  0.24246446  1
  Mo  Mo167  1  0.79285575  0.00496374  0.48612939  1
  Mo  Mo168  1  0.10500007  0.69809403  0.12538883  1
  Mo  Mo169  1  0.60120336  -0.00193269  0.50544522  1
  Mo  Mo170  1  0.20312092  0.79499772  0.74004234  1
  Mo  Mo171  1  0.69474040  0.90626244  0.62421862  1
  Mo  Mo172  1  0.90356172  0.68680657  0.87722552  1
  Mo  Mo173  1  0.29729606  0.29690381  0.60797067  1
  Mo  Mo174  1  0.39859487  0.39260725  -0.00684833  1
  Mo  Mo175  1  0.49817665  0.70425885  0.11711663  1
  Mo  Mo176  1  0.40265898  0.39756603  0.50164227  1
  Mo  Mo177  1  0.50567083  0.49760250  0.12071910  1
  Mo  Mo178  1  0.89158475  0.91179769  0.39421199  1
  Mo  Mo179  1  0.38962491  0.79655163  0.00535369  1
  Mo  Mo180  1  0.90385675  0.28949568  0.37671683  1
  Mo  Mo181  1  0.49457786  0.11982635  0.12540961  1
  Mo  Mo182  1  0.80528114  0.60189768  0.24346945  1
  Mo  Mo183  1  0.49127737  0.12095343  0.86223017  1
  Mo  Mo184  1  0.79307133  0.59661691  0.49700095  1
  Mo  Mo185  1  -0.00530035  0.19455254  0.25784595  1
  Mo  Mo186  1  0.80654346  0.39913676  0.01211064  1
  Mo  Mo187  1  0.09829645  0.09587359  0.62213615  1
  Mo  Mo188  1  0.09984332  0.89088156  0.86052250  1
  Mo  Mo189  1  0.89658569  0.09442083  0.86414210  1
  Mo  Mo190  1  0.79379367  0.79491209  0.00757903  1
  Mo  Mo191  1  0.49687563  0.70037858  0.63306433  1
  Mo  Mo192  1  0.89624453  0.09843717  0.12756262  1
  Mo  Mo193  1  0.30340536  0.08677603  0.62122727  1
  Mo  Mo194  1  0.70047827  0.70597467  0.11621688  1
  Mo  Mo195  1  0.00703447  0.00920902  0.49539697  1
  Mo  Mo196  1  0.49075948  0.90064393  0.37875043  1
  Mo  Mo197  1  0.00592950  0.39475581  0.51328804  1
  Mo  Mo198  1  0.69141734  0.90628281  0.87372951  1
  Mo  Mo199  1  0.38876872  0.79417511  0.23869618  1
