# generated using pymatgen
data_HfZrTaTiMo
_symmetry_space_group_name_H-M   'P 1'
_cell_length_a   15.21622414
_cell_length_b   15.20925850
_cell_length_c   16.86063618
_cell_angle_alpha   90.00937872
_cell_angle_beta   89.98784102
_cell_angle_gamma   90.01552028
_symmetry_Int_Tables_number   1
_chemical_formula_structural   HfZrTaTiMo
_chemical_formula_sum   'Hf40 Zr40 Ta40 Ti40 Mo40'
_cell_volume   3902.01436672
_cell_formula_units_Z   40
loop_
 _symmetry_equiv_pos_site_id
 _symmetry_equiv_pos_as_xyz
  1  'x, y, z'
loop_
 _atom_site_type_symbol
 _atom_site_label
 _atom_site_symmetry_multiplicity
 _atom_site_fract_x
 _atom_site_fract_y
 _atom_site_fract_z
 _atom_site_occupancy
  Hf  Hf0  1  0.00294628  0.60391486  0.74849182  1
  Hf  Hf1  1  0.49781476  0.70468655  0.62321471  1
  Hf  Hf2  1  0.30509053  0.31038769  0.63201103  1
  Hf  Hf3  1  0.09663539  0.30557957  0.62192562  1
  Hf  Hf4  1  0.00832843  0.39605557  0.25526616  1
  Hf  Hf5  1  0.90964939  0.88178149  0.36384455  1
  Hf  Hf6  1  0.29778939  0.10114998  0.88469403  1
  Hf  Hf7  1  0.89293776  0.09527881  0.37416467  1
  Hf  Hf8  1  0.59922216  0.79886095  0.25083875  1
  Hf  Hf9  1  0.40996543  0.41446002  0.49330171  1
  Hf  Hf10  1  0.30251605  0.10727111  0.62953221  1
  Hf  Hf11  1  0.18961675  0.60362300  0.25139571  1
  Hf  Hf12  1  0.91073240  0.49716571  0.63411340  1
  Hf  Hf13  1  0.28536630  0.70936832  0.37412314  1
  Hf  Hf14  1  0.69638085  0.90138476  0.12006948  1
  Hf  Hf15  1  0.91971023  0.89315940  0.12092556  1
  Hf  Hf16  1  0.00098230  0.38609621  -0.00629085  1
  Hf  Hf17  1  0.89961573  0.08581745  0.62598645  1
  Hf  Hf18  1  0.18830115  0.20365621  0.75532795  1
  Hf  Hf19  1  0.88262754  0.49737843  0.36566951  1
  Hf  Hf20  1  0.08040802  0.71398519  0.38684700  1
  Hf  Hf21  1  0.40966220  0.00202614  0.50890887  1
  Hf  Hf22  1  0.22355714  -0.00292899  0.23695291  1
  Hf  Hf23  1  0.69170715  0.70983611  0.89573207  1
  Hf  Hf24  1  0.31133380  0.10660799  0.37836441  1
  Hf  Hf25  1  0.80365786  0.39210893  0.50593744  1
  Hf  Hf26  1  0.80932159  0.78163877  0.23508650  1
  Hf  Hf27  1  0.69190667  0.10924920  0.11398813  1
  Hf  Hf28  1  0.20500188  0.00169205  0.51171318  1
  Hf  Hf29  1  0.27347679  0.71368239  0.12412074  1
  Hf  Hf30  1  -0.01443114  0.61215540  0.23596088  1
  Hf  Hf31  1  0.89260538  0.69714862  0.89224751  1
  Hf  Hf32  1  0.80731883  0.21288918  -0.00085591  1
  Hf  Hf33  1  0.21441352  0.39911311  0.26532592  1
  Hf  Hf34  1  0.28893416  0.31095716  0.87715406  1
  Hf  Hf35  1  0.80316971  0.40627434  -0.00684515  1
  Hf  Hf36  1  0.39816743  0.80379719  0.49982073  1
  Hf  Hf37  1  0.51256785  0.30191738  0.37236579  1
  Hf  Hf38  1  0.90642965  0.49449229  0.85978378  1
  Hf  Hf39  1  0.41830428  0.00185295  0.75444588  1
  Zr  Zr40  1  0.58776780  0.57126428  0.24551268  1
  Zr  Zr41  1  0.48344229  0.68860918  0.12945467  1
  Zr  Zr42  1  0.20778523  0.40047135  0.48217187  1
  Zr  Zr43  1  0.20390754  0.41556741  0.00273892  1
  Zr  Zr44  1  0.49586856  0.49761344  0.63668766  1
  Zr  Zr45  1  0.40639265  0.20608232  0.76024879  1
  Zr  Zr46  1  0.19458923  0.60423233  0.73375822  1
  Zr  Zr47  1  0.10229823  0.09399550  0.37898169  1
  Zr  Zr48  1  0.18766638  0.80295510  0.73578537  1
  Zr  Zr49  1  0.80619997  0.20569757  0.24442134  1
  Zr  Zr50  1  0.61088483  0.81311707  0.75684797  1
  Zr  Zr51  1  0.60246854  0.19334292  0.75637549  1
  Zr  Zr52  1  0.01711519  -0.01420247  0.24986230  1
  Zr  Zr53  1  0.29708007  0.89503429  0.86132207  1
  Zr  Zr54  1  0.50531140  0.09672536  0.37112120  1
  Zr  Zr55  1  0.19042736  0.80924918  0.51833832  1
  Zr  Zr56  1  -0.01955635  0.80461165  0.75375208  1
  Zr  Zr57  1  0.70208114  0.50178794  0.86572069  1
  Zr  Zr58  1  0.69405641  0.11123855  0.36738900  1
  Zr  Zr59  1  0.77596380  0.19748660  0.51372413  1
  Zr  Zr60  1  0.70069754  0.48799220  0.64180684  1
  Zr  Zr61  1  0.38450138  0.81604265  0.24572249  1
  Zr  Zr62  1  0.79453280  0.18357604  0.74831522  1
  Zr  Zr63  1  0.69791117  0.71367779  0.61678300  1
  Zr  Zr64  1  0.39603233  0.20405268  0.24236945  1
  Zr  Zr65  1  -0.00220087  -0.01553658  0.49463869  1
  Zr  Zr66  1  0.19661378  0.20651410  0.25485614  1
  Zr  Zr67  1  0.10724136  0.09393653  0.10668894  1
  Zr  Zr68  1  0.69946168  0.68905715  0.37229942  1
  Zr  Zr69  1  0.39533301  0.79960516  0.00105406  1
  Zr  Zr70  1  0.79929744  0.59569664  0.50761747  1
  Zr  Zr71  1  0.48507165  0.68850990  0.37227904  1
  Zr  Zr72  1  0.20486554  0.60172810  0.50908949  1
  Zr  Zr73  1  0.10401341  0.70542239  0.87961122  1
  Zr  Zr74  1  0.50776863  0.30319364  0.11959380  1
  Zr  Zr75  1  0.90518773  0.09647394  0.11425895  1
  Zr  Zr76  1  0.59491630  0.60539395  0.75988833  1
  Zr  Zr77  1  0.90504787  0.09962460  0.88890223  1
  Zr  Zr78  1  0.00372933  0.58792425  0.00979476  1
  Zr  Zr79  1  0.90444112  0.90214146  0.89807649  1
  Ta  Ta80  1  0.91101816  0.30094199  0.12910560  1
  Ta  Ta81  1  0.79727470  -0.00653889  0.24463830  1
  Ta  Ta82  1  0.30509156  0.69710141  0.86218280  1
  Ta  Ta83  1  0.29484643  0.90862862  0.37674642  1
  Ta  Ta84  1  0.59263380  -0.00297566  0.00447730  1
  Ta  Ta85  1  0.40031651  0.00172167  -0.00077476  1
  Ta  Ta86  1  0.79853167  0.80754890  0.49163194  1
  Ta  Ta87  1  0.10515676  0.29582199  0.12133383  1
  Ta  Ta88  1  0.90456415  0.29543550  0.62922579  1
  Ta  Ta89  1  0.31203883  0.90017842  0.64253761  1
  Ta  Ta90  1  0.50985072  0.89868025  0.88403285  1
  Ta  Ta91  1  0.10275310  0.10073191  0.89478860  1
  Ta  Ta92  1  0.09332519  0.10791072  0.62230209  1
  Ta  Ta93  1  0.08451644  0.91352612  0.63215520  1
  Ta  Ta94  1  0.70792993  0.31770548  0.12528735  1
  Ta  Ta95  1  0.20019476  0.20776076  0.49419949  1
  Ta  Ta96  1  0.41612492  0.41620947  0.25218811  1
  Ta  Ta97  1  0.60219498  0.40007131  -0.00828965  1
  Ta  Ta98  1  0.61239389  0.38589701  0.50392604  1
  Ta  Ta99  1  0.30931315  0.50471416  0.85466038  1
  Ta  Ta100  1  0.11193139  0.48525132  0.86178821  1
  Ta  Ta101  1  0.09019039  0.51125312  0.37818191  1
  Ta  Ta102  1  0.69982006  0.90611159  0.36681241  1
  Ta  Ta103  1  0.58105876  0.58825037  -0.00151407  1
  Ta  Ta104  1  0.30143827  0.30965956  0.11660061  1
  Ta  Ta105  1  0.79857330  -0.01979087  0.75698179  1
  Ta  Ta106  1  0.50927881  0.29942732  0.62388077  1
  Ta  Ta107  1  0.58731020  0.58330536  0.49515215  1
  Ta  Ta108  1  0.40188957  0.20808214  -0.00114168  1
  Ta  Ta109  1  -0.00341408  0.20567762  0.75837702  1
  Ta  Ta110  1  0.80173870  0.79483434  0.01862041  1
  Ta  Ta111  1  0.88875427  0.88395984  0.62497438  1
  Ta  Ta112  1  0.70199582  0.08826605  0.89559284  1
  Ta  Ta113  1  0.40720351  0.41566592  -0.00472201  1
  Ta  Ta114  1  0.30599603  0.50056220  0.63968851  1
  Ta  Ta115  1  0.61015921  0.00171053  0.50130110  1
  Ta  Ta116  1  0.00062246  0.40096349  0.48963862  1
  Ta  Ta117  1  0.68731784  0.69164295  0.11431992  1
  Ta  Ta118  1  0.80375012  0.62557906  0.74601057  1
  Ta  Ta119  1  0.51224952  0.90377399  0.62652335  1
  Ti  Ti120  1  0.40309515  0.21098643  0.50147957  1
  Ti  Ti121  1  0.49670309  0.09873863  0.11922611  1
  Ti  Ti122  1  0.88839485  0.48971512  0.13030469  1
  Ti  Ti123  1  0.61301002  0.00473993  0.75854448  1
  Ti  Ti124  1  0.06685997  0.70044782  0.60899013  1
  Ti  Ti125  1  0.79555854  -0.00560197  0.49674134  1
  Ti  Ti126  1  0.30502218  0.10513016  0.10815900  1
  Ti  Ti127  1  0.20100571  -0.02619967  0.00025585  1
  Ti  Ti128  1  0.59507309  0.00133781  0.24172070  1
  Ti  Ti129  1  0.70048510  0.29187555  0.87762432  1
  Ti  Ti130  1  0.90281733  0.29611174  0.37275556  1
  Ti  Ti131  1  0.78252380  0.58539286  0.23373388  1
  Ti  Ti132  1  0.60000523  0.80883870  0.48781581  1
  Ti  Ti133  1  0.10247620  0.49344266  0.62097287  1
  Ti  Ti134  1  0.51364436  0.10246100  0.62306682  1
  Ti  Ti135  1  0.02312152  0.79945212  0.00656317  1
  Ti  Ti136  1  0.70465511  0.90160637  0.89857292  1
  Ti  Ti137  1  0.38982829  0.59638533  -0.00787738  1
  Ti  Ti138  1  0.70897235  0.31797468  0.36129612  1
  Ti  Ti139  1  0.60300019  0.20735215  0.24144024  1
  Ti  Ti140  1  0.49849200  0.30719961  0.88229369  1
  Ti  Ti141  1  0.50880700  0.10365881  0.89062481  1
  Ti  Ti142  1  0.49101089  0.70122527  0.87538647  1
  Ti  Ti143  1  0.18997411  0.00674021  0.74885754  1
  Ti  Ti144  1  0.59564393  0.38876732  0.75954596  1
  Ti  Ti145  1  -0.00392162  0.20433593  0.49649517  1
  Ti  Ti146  1  0.79239990  0.59368311  0.01235267  1
  Ti  Ti147  1  0.70156385  0.90858269  0.62205139  1
  Ti  Ti148  1  0.17226336  0.81014747  0.24992769  1
  Ti  Ti149  1  0.31278480  0.50911967  0.13135507  1
  Ti  Ti150  1  0.10722832  0.49599990  0.13034821  1
  Ti  Ti151  1  0.31308149  0.70018386  0.63397898  1
  Ti  Ti152  1  0.49389002  0.90340524  0.12267738  1
  Ti  Ti153  1  0.89726867  0.68961282  0.38146347  1
  Ti  Ti154  1  0.20261986  0.60555409  -0.00333075  1
  Ti  Ti155  1  0.00677453  0.19891793  0.25413276  1
  Ti  Ti156  1  0.31980321  0.51668169  0.37169717  1
  Ti  Ti157  1  0.49711719  0.90664662  0.36876859  1
  Ti  Ti158  1  0.00203673  0.00702315  0.75717975  1
  Ti  Ti159  1  0.80721952  0.37894605  0.75237249  1
  Mo  Mo160  1  -0.01618247  0.79522133  0.50574690  1
  Mo  Mo161  1  0.09553251  0.69716666  0.11714296  1
  Mo  Mo162  1  0.09255030  0.30090012  0.38154620  1
  Mo  Mo163  1  0.11318656  0.89441220  0.37668043  1
  Mo  Mo164  1  0.60757665  0.39428523  0.24518946  1
  Mo  Mo165  1  0.19707687  0.40146418  0.74729545  1
  Mo  Mo166  1  0.41041631  0.00088708  0.23966289  1
  Mo  Mo167  1  0.69116530  0.49735687  0.11235503  1
  Mo  Mo168  1  0.59900708  0.20499655  -0.00856799  1
  Mo  Mo169  1  0.79857585  -0.00189929  0.01000559  1
  Mo  Mo170  1  0.30871896  0.30298535  0.38032727  1
  Mo  Mo171  1  0.30245178  0.91086417  0.11544980  1
  Mo  Mo172  1  0.59000786  0.19724984  0.51002503  1
  Mo  Mo173  1  0.80184917  0.40578351  0.24206477  1
  Mo  Mo174  1  0.00658784  0.39165239  0.75023274  1
  Mo  Mo175  1  0.89481814  0.69069395  0.10860024  1
  Mo  Mo176  1  0.01318012  -0.00737287  0.00025585  1
  Mo  Mo177  1  0.20298742  0.79267428  -0.01191204  1
  Mo  Mo178  1  0.49520999  0.49850020  0.87245055  1
  Mo  Mo179  1  0.38376006  0.59631968  0.24790084  1
  Mo  Mo180  1  0.40921672  0.80216622  0.75001482  1
  Mo  Mo181  1  0.59368422  0.79817711  0.00408633  1
  Mo  Mo182  1  -0.00408326  0.58773315  0.49972376  1
  Mo  Mo183  1  0.68993125  0.48803417  0.37836355  1
  Mo  Mo184  1  0.48984869  0.49366087  0.11490292  1
  Mo  Mo185  1  0.69678354  0.29722994  0.63494080  1
  Mo  Mo186  1  0.50775512  0.49611641  0.37959721  1
  Mo  Mo187  1  0.39627379  0.60255700  0.50551151  1
  Mo  Mo188  1  0.20554877  0.20800216  0.00315494  1
  Mo  Mo189  1  0.89156835  0.70096714  0.62022109  1
  Mo  Mo190  1  0.12062682  0.88180385  0.11789969  1
  Mo  Mo191  1  0.09325756  0.29552698  0.87750967  1
  Mo  Mo192  1  0.79301631  0.80627870  0.75854151  1
  Mo  Mo193  1  0.89532743  0.29956859  0.86533515  1
  Mo  Mo194  1  0.00245285  0.78781062  0.24154754  1
  Mo  Mo195  1  0.40722456  0.40025785  0.75775626  1
  Mo  Mo196  1  0.09971550  0.91585067  0.87185580  1
  Mo  Mo197  1  0.40107063  0.60886811  0.75390084  1
  Mo  Mo198  1  0.00819702  0.20744986  -0.00204779  1
  Mo  Mo199  1  0.69390919  0.08044570  0.62822485  1
