# generated using pymatgen
data_HfZrTaTiMo
_symmetry_space_group_name_H-M   'P 1'
_cell_length_a   15.20815724
_cell_length_b   15.22159845
_cell_length_c   16.82563113
_cell_angle_alpha   89.95157800
_cell_angle_beta   90.06807861
_cell_angle_gamma   89.99429369
_symmetry_Int_Tables_number   1
_chemical_formula_structural   HfZrTaTiMo
_chemical_formula_sum   'Hf40 Zr40 Ta40 Ti40 Mo40'
_cell_volume   3895.00262713
_cell_formula_units_Z   40
loop_
 _symmetry_equiv_pos_site_id
 _symmetry_equiv_pos_as_xyz
  1  'x, y, z'
loop_
 _atom_site_type_symbol
 _atom_site_label
 _atom_site_symmetry_multiplicity
 _atom_site_fract_x
 _atom_site_fract_y
 _atom_site_fract_z
 _atom_site_occupancy
  Hf  Hf0  1  0.90028793  0.49586324  0.12477590  1
  Hf  Hf1  1  0.19478774  0.20691984  0.00091075  1
  Hf  Hf2  1  0.68215629  0.89414061  0.86813576  1
  Hf  Hf3  1  0.29968151  0.91178028  0.61213208  1
  Hf  Hf4  1  0.31623100  0.49878083  0.37100062  1
  Hf  Hf5  1  0.09536900  0.09867710  0.87193426  1
  Hf  Hf6  1  0.70684485  0.90100570  0.13631274  1
  Hf  Hf7  1  0.88593076  0.09106306  0.12377082  1
  Hf  Hf8  1  0.08826368  0.29634737  0.12642321  1
  Hf  Hf9  1  0.80199478  0.60559463  0.00528376  1
  Hf  Hf10  1  0.60800907  0.59472153  0.73107267  1
  Hf  Hf11  1  0.69330565  0.10399753  0.37254751  1
  Hf  Hf12  1  0.12372166  0.48698899  0.13961496  1
  Hf  Hf13  1  0.70503154  0.90086473  0.62917353  1
  Hf  Hf14  1  0.40380415  0.61750748  0.72626371  1
  Hf  Hf15  1  0.30754326  0.70056100  0.87393325  1
  Hf  Hf16  1  0.60900138  0.79413690  0.49437715  1
  Hf  Hf17  1  0.50598031  0.89841437  0.14730305  1
  Hf  Hf18  1  0.59324535  0.39325324  0.49805555  1
  Hf  Hf19  1  0.89224130  0.09147387  0.36949562  1
  Hf  Hf20  1  0.39708004  0.41346543  0.00291243  1
  Hf  Hf21  1  0.79618927  0.21776972  0.49741039  1
  Hf  Hf22  1  0.10058258  0.29742632  0.37904187  1
  Hf  Hf23  1  0.68316852  0.51588826  0.38370271  1
  Hf  Hf24  1  0.20342690  0.00098362  0.48155550  1
  Hf  Hf25  1  0.29865997  0.30331693  0.87608703  1
  Hf  Hf26  1  -0.01026879  0.38947651  0.50232362  1
  Hf  Hf27  1  0.10031054  0.09523545  0.36732688  1
  Hf  Hf28  1  -0.00931675  -0.00824876  -0.00541470  1
  Hf  Hf29  1  0.09765637  0.29589818  0.62759393  1
  Hf  Hf30  1  0.70836660  0.69192819  0.86254714  1
  Hf  Hf31  1  -0.01873691  0.58672311  0.72509552  1
  Hf  Hf32  1  0.00274727  0.78797917  0.74516145  1
  Hf  Hf33  1  0.39831237  0.01424115  0.25336754  1
  Hf  Hf34  1  -0.02157342  0.20879941  0.75152541  1
  Hf  Hf35  1  0.79874281  0.61743021  0.25398043  1
  Hf  Hf36  1  -0.00817949  0.18528481  0.50600924  1
  Hf  Hf37  1  0.79103447  0.01074544  0.75549300  1
  Hf  Hf38  1  0.40795217  0.80548885  0.00790385  1
  Hf  Hf39  1  0.19494286  0.79787311  0.48423398  1
  Zr  Zr40  1  0.78859429  0.39849682  0.26675086  1
  Zr  Zr41  1  0.29374229  0.32192083  0.12035270  1
  Zr  Zr42  1  0.10811624  0.49620077  0.86876353  1
  Zr  Zr43  1  0.69281385  0.30332815  0.12276647  1
  Zr  Zr44  1  0.50706815  0.71430701  0.88095618  1
  Zr  Zr45  1  0.90484076  0.51015258  0.38470910  1
  Zr  Zr46  1  0.90784292  0.50499418  0.87813922  1
  Zr  Zr47  1  0.51021056  0.50664560  0.86339042  1
  Zr  Zr48  1  -0.00762629  0.79170524  0.48937273  1
  Zr  Zr49  1  0.10175796  0.08696381  0.62894228  1
  Zr  Zr50  1  0.01367937  0.59854161  0.01040644  1
  Zr  Zr51  1  -0.00999823  0.78946737  -0.00491587  1
  Zr  Zr52  1  0.20319243  -0.01080644  0.00369279  1
  Zr  Zr53  1  0.20476009  0.19945160  0.24611088  1
  Zr  Zr54  1  0.50532658  0.69974061  0.12962531  1
  Zr  Zr55  1  0.40294965  -0.00851388  0.75246776  1
  Zr  Zr56  1  0.69349169  0.50846099  0.12857004  1
  Zr  Zr57  1  0.69263575  0.10324168  0.12224054  1
  Zr  Zr58  1  0.11090633  0.69560687  0.13478083  1
  Zr  Zr59  1  0.49595693  0.46554945  0.63840063  1
  Zr  Zr60  1  0.60735831  0.40304283  -0.00744749  1
  Zr  Zr61  1  0.21444909  0.80359164  0.74769965  1
  Zr  Zr62  1  0.50237664  0.09702114  0.88533976  1
  Zr  Zr63  1  0.11504058  0.49844301  0.37549477  1
  Zr  Zr64  1  0.21304996  0.19720164  0.50437032  1
  Zr  Zr65  1  0.09556765  0.89503326  0.62260503  1
  Zr  Zr66  1  0.49393016  0.90421904  0.60743795  1
  Zr  Zr67  1  0.80603816  0.00491019  0.51076564  1
  Zr  Zr68  1  0.09768064  0.89219954  0.12799720  1
  Zr  Zr69  1  0.30876253  0.50189472  0.85723531  1
  Zr  Zr70  1  0.23357454  0.58804392  0.01178297  1
  Zr  Zr71  1  0.59291653  0.19752893  0.50156742  1
  Zr  Zr72  1  0.20509530  0.79100047  0.26818578  1
  Zr  Zr73  1  -0.01356116  0.19749409  -0.00704726  1
  Zr  Zr74  1  0.19062500  0.61099930  0.72661240  1
  Zr  Zr75  1  0.57723265  0.79977826  0.73513470  1
  Zr  Zr76  1  0.30748627  0.09991030  0.88654805  1
  Zr  Zr77  1  -0.00719588  0.39160569  0.25692932  1
  Zr  Zr78  1  0.20600586  0.19755932  0.74887853  1
  Zr  Zr79  1  -0.00971239  -0.01475024  0.25064887  1
  Ta  Ta80  1  0.59499003  0.21355027  0.25455760  1
  Ta  Ta81  1  -0.01116632  0.19664400  0.24633384  1
  Ta  Ta82  1  0.20280883  -0.00180044  0.25038162  1
  Ta  Ta83  1  0.50254775  0.68197623  0.38537070  1
  Ta  Ta84  1  0.71406454  0.49420899  0.62532908  1
  Ta  Ta85  1  0.30581807  0.88838000  0.14024850  1
  Ta  Ta86  1  0.40695998  0.21504915  0.23843217  1
  Ta  Ta87  1  0.59518150  -0.01551148  0.00302988  1
  Ta  Ta88  1  0.10158103  0.89146308  0.87357402  1
  Ta  Ta89  1  0.59637275  0.19442473  0.75090989  1
  Ta  Ta90  1  0.89110872  0.89242972  0.86484739  1
  Ta  Ta91  1  -0.00020536  0.60264696  0.24623123  1
  Ta  Ta92  1  0.79878148  0.61385666  0.50564381  1
  Ta  Ta93  1  0.59834519  0.59735901  0.52059700  1
  Ta  Ta94  1  0.30507885  0.30206554  0.36995638  1
  Ta  Ta95  1  0.70658993  0.90851775  0.36954986  1
  Ta  Ta96  1  0.09824768  0.49113885  0.61794710  1
  Ta  Ta97  1  0.88491882  0.29560540  0.11565189  1
  Ta  Ta98  1  0.80273233  0.80201982  0.48870713  1
  Ta  Ta99  1  0.79063389  -0.00404902  -0.01409189  1
  Ta  Ta100  1  0.40115256  0.80139755  0.47926759  1
  Ta  Ta101  1  0.71808944  0.48539923  0.86059862  1
  Ta  Ta102  1  0.19987818  -0.00398253  0.75739117  1
  Ta  Ta103  1  0.40014120  0.58593220  0.51407819  1
  Ta  Ta104  1  -0.00550701  -0.00443926  0.75863208  1
  Ta  Ta105  1  0.79800840  0.20431265  0.25655252  1
  Ta  Ta106  1  0.50774176  0.90352984  0.36996912  1
  Ta  Ta107  1  0.82282556  0.40001633  0.73740295  1
  Ta  Ta108  1  0.22039263  0.40185986  0.51126985  1
  Ta  Ta109  1  0.49614073  0.30229851  0.86238346  1
  Ta  Ta110  1  0.30337888  0.10154620  0.11820058  1
  Ta  Ta111  1  0.40388897  0.21215904  0.50148601  1
  Ta  Ta112  1  0.40338756  0.01804984  0.48319337  1
  Ta  Ta113  1  0.20460144  0.79295945  0.00037500  1
  Ta  Ta114  1  0.32214337  0.30907025  0.63621099  1
  Ta  Ta115  1  0.58413277  0.40381909  0.25650708  1
  Ta  Ta116  1  -0.01009491  0.78784855  0.26581700  1
  Ta  Ta117  1  0.88394301  0.31365644  0.88029351  1
  Ta  Ta118  1  0.09698398  0.09556131  0.12785609  1
  Ta  Ta119  1  0.20042694  0.59976017  0.51405762  1
  Ti  Ti120  1  0.89735547  0.89596399  0.63438374  1
  Ti  Ti121  1  0.89758705  0.69825636  0.86303678  1
  Ti  Ti122  1  -0.00244615  0.60275342  0.51772592  1
  Ti  Ti123  1  0.78115497  0.20369855  -0.01581865  1
  Ti  Ti124  1  0.30799138  0.90495964  0.36630396  1
  Ti  Ti125  1  0.69452009  0.30445860  0.63422092  1
  Ti  Ti126  1  0.59351520  0.59849094  0.25384469  1
  Ti  Ti127  1  0.59409499  0.00733351  0.74797171  1
  Ti  Ti128  1  0.49253618  0.11310210  0.36878489  1
  Ti  Ti129  1  0.88646869  0.10211562  0.87445937  1
  Ti  Ti130  1  0.59880723  0.00265471  0.49577510  1
  Ti  Ti131  1  0.60119334  0.60922603  -0.00006019  1
  Ti  Ti132  1  0.49575463  0.50233802  0.12314039  1
  Ti  Ti133  1  0.89327216  0.88305851  0.12583918  1
  Ti  Ti134  1  0.60725276  0.78763170  0.26963802  1
  Ti  Ti135  1  0.80666825  0.80603503  0.26759040  1
  Ti  Ti136  1  0.70508313  0.71129743  0.12653648  1
  Ti  Ti137  1  0.32094856  0.10615489  0.62905291  1
  Ti  Ti138  1  0.50010033  0.11260939  0.11944224  1
  Ti  Ti139  1  0.40421436  0.00001733  0.01355244  1
  Ti  Ti140  1  0.78259539  0.20910537  0.75916375  1
  Ti  Ti141  1  0.79260090  0.80140705  -0.00272650  1
  Ti  Ti142  1  0.79485537  0.40344660  0.49617119  1
  Ti  Ti143  1  0.60308804  0.01137806  0.25257784  1
  Ti  Ti144  1  0.30301362  0.68834535  0.38329091  1
  Ti  Ti145  1  0.58934158  0.20538860  -0.00646662  1
  Ti  Ti146  1  0.49217764  0.31344084  0.37235990  1
  Ti  Ti147  1  0.00008812  -0.01605836  0.48895682  1
  Ti  Ti148  1  0.09053082  0.30929797  0.86527910  1
  Ti  Ti149  1  0.30817212  0.71615273  0.61016393  1
  Ti  Ti150  1  0.40260707  0.40856490  0.24061011  1
  Ti  Ti151  1  0.20200511  0.40296583  0.73700675  1
  Ti  Ti152  1  0.09432528  0.68236119  0.37363849  1
  Ti  Ti153  1  0.39910941  0.61605060  0.25150932  1
  Ti  Ti154  1  0.89226643  0.10311267  0.63474334  1
  Ti  Ti155  1  0.00216422  0.39517197  0.00142460  1
  Ti  Ti156  1  0.69102189  0.10580676  0.62545051  1
  Ti  Ti157  1  0.10229464  0.69500721  0.87662203  1
  Ti  Ti158  1  0.30991606  0.89687347  0.87899294  1
  Ti  Ti159  1  0.71533761  0.70460695  0.63196526  1
  Mo  Mo160  1  0.18738920  0.39809676  -0.00958373  1
  Mo  Mo161  1  0.69561863  0.10071087  0.88227589  1
  Mo  Mo162  1  0.61681067  0.80247297  0.00691727  1
  Mo  Mo163  1  0.89615397  0.89771579  0.37579364  1
  Mo  Mo164  1  0.40043420  0.39001299  0.49901723  1
  Mo  Mo165  1  0.89136367  0.70901380  0.13165927  1
  Mo  Mo166  1  0.10147724  0.89717087  0.36706383  1
  Mo  Mo167  1  0.39407908  0.80131191  0.74382187  1
  Mo  Mo168  1  0.69295412  0.30626669  0.37073572  1
  Mo  Mo169  1  0.89875075  0.69169075  0.37754534  1
  Mo  Mo170  1  0.50189103  0.27868129  0.63886830  1
  Mo  Mo171  1  0.89631881  0.28936567  0.37403340  1
  Mo  Mo172  1  0.40932612  0.20744329  0.01568367  1
  Mo  Mo173  1  0.21220475  0.39587233  0.25754598  1
  Mo  Mo174  1  0.49478829  0.50432842  0.37712966  1
  Mo  Mo175  1  0.89564590  0.49608390  0.60660627  1
  Mo  Mo176  1  0.69547339  0.70404342  0.37861738  1
  Mo  Mo177  1  0.40688006  0.19664039  0.74751636  1
  Mo  Mo178  1  0.69564668  0.29791769  0.86832993  1
  Mo  Mo179  1  0.50011290  0.30410043  0.12503106  1
  Mo  Mo180  1  0.80280340  0.80127191  0.74936617  1
  Mo  Mo181  1  0.49616487  0.70140623  0.60161994  1
  Mo  Mo182  1  0.41409111  0.60092155  0.00619170  1
  Mo  Mo183  1  0.80561584  0.39742917  -0.00201396  1
  Mo  Mo184  1  0.31022684  0.11006045  0.36940764  1
  Mo  Mo185  1  0.40222918  0.39447656  0.75803890  1
  Mo  Mo186  1  0.88558200  0.29789000  0.62611255  1
  Mo  Mo187  1  0.30988579  0.71058404  0.13182048  1
  Mo  Mo188  1  0.29740316  0.49752481  0.62853570  1
  Mo  Mo189  1  0.61844784  0.38592342  0.75419271  1
  Mo  Mo190  1  0.80032708  0.59903238  0.74063093  1
  Mo  Mo191  1  0.79217561  -0.00264938  0.24941213  1
  Mo  Mo192  1  0.88964957  0.70818698  0.62220923  1
  Mo  Mo193  1  0.00596995  0.39573336  0.74234616  1
  Mo  Mo194  1  0.20895036  0.59799794  0.25555396  1
  Mo  Mo195  1  0.50047944  0.09610529  0.62213860  1
  Mo  Mo196  1  0.31356765  0.51992422  0.14877544  1
  Mo  Mo197  1  0.49195219  0.90409357  0.88332984  1
  Mo  Mo198  1  0.40984084  0.79990874  0.27584450  1
  Mo  Mo199  1  0.09917837  0.69794772  0.61433911  1
