# generated using pymatgen
data_HfZrTaTiMo
_symmetry_space_group_name_H-M   'P 1'
_cell_length_a   15.21913755
_cell_length_b   15.21665853
_cell_length_c   16.85612792
_cell_angle_alpha   90.03247597
_cell_angle_beta   90.00376818
_cell_angle_gamma   90.02781699
_symmetry_Int_Tables_number   1
_chemical_formula_structural   HfZrTaTiMo
_chemical_formula_sum   'Hf40 Zr40 Ta40 Ti40 Mo40'
_cell_volume   3903.61550002
_cell_formula_units_Z   40
loop_
 _symmetry_equiv_pos_site_id
 _symmetry_equiv_pos_as_xyz
  1  'x, y, z'
loop_
 _atom_site_type_symbol
 _atom_site_label
 _atom_site_symmetry_multiplicity
 _atom_site_fract_x
 _atom_site_fract_y
 _atom_site_fract_z
 _atom_site_occupancy
  Hf  Hf0  1  0.28360747  0.69899782  0.63169200  1
  Hf  Hf1  1  0.20752571  0.79363581  -0.00246888  1
  Hf  Hf2  1  0.00027821  0.40562900  0.49625481  1
  Hf  Hf3  1  0.09021521  0.69196482  0.12296065  1
  Hf  Hf4  1  0.68835604  0.48278144  0.62405007  1
  Hf  Hf5  1  0.90926627  0.29433687  0.88385344  1
  Hf  Hf6  1  0.48039483  0.68529538  0.62689748  1
  Hf  Hf7  1  0.18575138  0.57279761  0.25087947  1
  Hf  Hf8  1  0.50368835  0.09342004  0.61474649  1
  Hf  Hf9  1  0.68442701  0.90307982  0.39115191  1
  Hf  Hf10  1  0.60681964  -0.01936805  0.24867970  1
  Hf  Hf11  1  0.52470830  0.30364947  0.61445549  1
  Hf  Hf12  1  0.90243528  0.90442461  0.62025564  1
  Hf  Hf13  1  0.89092847  0.70866218  0.88038888  1
  Hf  Hf14  1  0.42122327  0.40918147  0.75471786  1
  Hf  Hf15  1  0.39016435  0.59878966  0.23564284  1
  Hf  Hf16  1  0.51634936  0.89168082  0.11453979  1
  Hf  Hf17  1  0.30944903  0.30541076  0.62309646  1
  Hf  Hf18  1  0.90843856  0.91269725  0.88041954  1
  Hf  Hf19  1  0.49412974  0.68364803  0.87228907  1
  Hf  Hf20  1  0.29516925  0.69648423  0.37796313  1
  Hf  Hf21  1  0.40885573  0.20137169  0.75250938  1
  Hf  Hf22  1  0.60481996  0.19444538  -0.00217218  1
  Hf  Hf23  1  0.39161062  0.60038175  0.00773309  1
  Hf  Hf24  1  0.29787129  0.48805413  0.37988588  1
  Hf  Hf25  1  0.69919734  0.49793340  0.12927425  1
  Hf  Hf26  1  0.59582545  0.60807340  0.24058179  1
  Hf  Hf27  1  0.79039335  0.79951196  0.50700548  1
  Hf  Hf28  1  0.10228350  0.27693946  0.61287287  1
  Hf  Hf29  1  0.30229064  0.09934595  0.87622712  1
  Hf  Hf30  1  0.70055960  0.30915930  0.35016585  1
  Hf  Hf31  1  0.60899733  0.38734839  0.76706043  1
  Hf  Hf32  1  0.81288190  0.00995056  0.75401253  1
  Hf  Hf33  1  0.50780118  0.08796323  0.39198456  1
  Hf  Hf34  1  0.80242417  0.40245452  0.75627122  1
  Hf  Hf35  1  -0.00713512  0.20466495  0.02237869  1
  Hf  Hf36  1  0.70490653  0.11395999  0.62293489  1
  Hf  Hf37  1  0.71612572  0.10204810  0.36799455  1
  Hf  Hf38  1  0.89219777  0.71237149  0.11941252  1
  Hf  Hf39  1  0.90411185  0.30992951  0.35702154  1
  Zr  Zr40  1  0.19899458  0.79938160  0.25945662  1
  Zr  Zr41  1  0.08104370  0.09556091  0.89071503  1
  Zr  Zr42  1  0.60890228  0.78929229  -0.01783051  1
  Zr  Zr43  1  0.49570838  0.89940611  0.86482772  1
  Zr  Zr44  1  0.09059190  0.89172977  0.12113695  1
  Zr  Zr45  1  0.69890894  0.08713199  0.13182739  1
  Zr  Zr46  1  0.19374196  0.80789245  0.48641406  1
  Zr  Zr47  1  0.32038137  0.89175119  0.12559464  1
  Zr  Zr48  1  0.50620166  0.48935903  0.36507574  1
  Zr  Zr49  1  -0.00869018  0.80089372  0.25999033  1
  Zr  Zr50  1  0.18361443  0.00641144  0.75185545  1
  Zr  Zr51  1  0.71381542  0.50291219  0.35884128  1
  Zr  Zr52  1  0.39687066  0.39074014  0.24300421  1
  Zr  Zr53  1  0.68978640  0.69824425  0.62865011  1
  Zr  Zr54  1  0.29812347  0.10189007  0.38363042  1
  Zr  Zr55  1  0.18395180  0.58646964  0.49818153  1
  Zr  Zr56  1  0.39361354  0.19421594  0.24277547  1
  Zr  Zr57  1  0.90533902  0.50168159  0.63574772  1
  Zr  Zr58  1  0.20594478  0.39789854  0.75830421  1
  Zr  Zr59  1  0.79554916  0.01055804  -0.00586301  1
  Zr  Zr60  1  0.19554597  0.59082081  -0.00981294  1
  Zr  Zr61  1  0.59014176  0.58709632  0.50038464  1
  Zr  Zr62  1  0.79946299  0.20973597  0.75379718  1
  Zr  Zr63  1  0.20441561  0.00212803  0.01114762  1
  Zr  Zr64  1  0.58703544  0.19636126  0.24722740  1
  Zr  Zr65  1  0.20403634  0.01834879  0.23895870  1
  Zr  Zr66  1  0.08529720  0.69807692  0.62777883  1
  Zr  Zr67  1  0.48431347  0.69783712  0.38071884  1
  Zr  Zr68  1  0.00551184  0.18474143  0.75283874  1
  Zr  Zr69  1  0.02369854  0.20972498  0.23476841  1
  Zr  Zr70  1  0.68982407  0.91034330  0.62926563  1
  Zr  Zr71  1  0.09587636  0.90590655  0.61733750  1
  Zr  Zr72  1  0.10621413  0.49517160  0.63981646  1
  Zr  Zr73  1  0.81733728  0.40635768  0.01406466  1
  Zr  Zr74  1  0.87799167  0.70010283  0.36657593  1
  Zr  Zr75  1  0.88701512  0.91334108  0.37265980  1
  Zr  Zr76  1  0.80997927  0.59375353  0.50379483  1
  Zr  Zr77  1  0.30033927  0.90242487  0.63004351  1
  Zr  Zr78  1  0.31371660  0.30782062  0.88906819  1
  Zr  Zr79  1  0.90381465  0.50381512  0.87236322  1
  Ta  Ta80  1  0.29757751  0.89618671  0.87082362  1
  Ta  Ta81  1  0.40850733  0.19353622  0.00176957  1
  Ta  Ta82  1  0.76819422  0.80986475  0.24581465  1
  Ta  Ta83  1  0.91783254  0.50930174  0.36433230  1
  Ta  Ta84  1  0.40808579  -0.00593153  0.25062182  1
  Ta  Ta85  1  0.11460595  0.31690048  0.10757088  1
  Ta  Ta86  1  0.48890675  0.88952670  0.37464203  1
  Ta  Ta87  1  0.08851426  0.70127387  0.87667296  1
  Ta  Ta88  1  0.09642302  0.89325253  0.88599072  1
  Ta  Ta89  1  0.88272834  0.90881716  0.13239002  1
  Ta  Ta90  1  0.58600229  0.58173222  0.75530971  1
  Ta  Ta91  1  0.10646351  0.30291814  0.89562810  1
  Ta  Ta92  1  0.00067696  0.01807980  0.48921033  1
  Ta  Ta93  1  0.10016493  0.49566685  0.11146145  1
  Ta  Ta94  1  0.57530470  0.80859019  0.50893630  1
  Ta  Ta95  1  0.11480425  0.29224247  0.38040561  1
  Ta  Ta96  1  0.20600782  0.19694728  0.01320413  1
  Ta  Ta97  1  0.49949468  0.29665670  0.38674343  1
  Ta  Ta98  1  0.78595246  0.61293083  0.00239317  1
  Ta  Ta99  1  0.49733989  0.89393845  0.63988772  1
  Ta  Ta100  1  0.78468555  0.60520657  0.75437267  1
  Ta  Ta101  1  0.31045639  0.31608109  0.10345914  1
  Ta  Ta102  1  -0.00616854  0.79549259  0.48641852  1
  Ta  Ta103  1  0.68224677  0.70656621  0.37561676  1
  Ta  Ta104  1  0.71009515  0.29844662  0.13846534  1
  Ta  Ta105  1  0.07801226  0.67176086  0.37456529  1
  Ta  Ta106  1  0.31412859  0.51117525  0.63131633  1
  Ta  Ta107  1  0.82323841  0.20249504  0.49489456  1
  Ta  Ta108  1  -0.00437433  0.81085131  0.75402758  1
  Ta  Ta109  1  0.59928968  0.19744220  0.76465591  1
  Ta  Ta110  1  0.62406951  0.21044587  0.49223194  1
  Ta  Ta111  1  0.00463132  0.00620156  0.24386228  1
  Ta  Ta112  1  0.49285315  0.08723750  0.11734956  1
  Ta  Ta113  1  0.29024636  0.10736041  0.61888571  1
  Ta  Ta114  1  0.48839070  0.70784538  0.11907514  1
  Ta  Ta115  1  0.89374335  0.10710661  0.14451220  1
  Ta  Ta116  1  0.79157924  0.38767893  0.49717748  1
  Ta  Ta117  1  0.29402646  0.70172532  0.86349922  1
  Ta  Ta118  1  0.91436565  0.11064119  0.35879901  1
  Ta  Ta119  1  0.02097368  0.41307131  0.24542375  1
  Ti  Ti120  1  0.89859851  0.29787679  0.62158522  1
  Ti  Ti121  1  0.41474936  0.41467189  0.50697543  1
  Ti  Ti122  1  0.39477734  0.79473168  0.75129583  1
  Ti  Ti123  1  0.19446896  0.01588998  0.49747222  1
  Ti  Ti124  1  0.20780319  0.39321584  0.50571283  1
  Ti  Ti125  1  0.30496965  0.29729838  0.38353131  1
  Ti  Ti126  1  0.80070321  0.01294095  0.50364445  1
  Ti  Ti127  1  0.70365822  0.30611154  0.89459406  1
  Ti  Ti128  1  0.68689329  0.71420113  0.12358117  1
  Ti  Ti129  1  -0.00103934  0.60765725  0.75848423  1
  Ti  Ti130  1  0.59686724  0.00915828  0.75764568  1
  Ti  Ti131  1  0.09876333  0.49624511  0.87309753  1
  Ti  Ti132  1  0.70252258  0.10358122  0.87341008  1
  Ti  Ti133  1  0.09752216  0.91717349  0.37423445  1
  Ti  Ti134  1  -0.01313308  0.59680426  -0.00060727  1
  Ti  Ti135  1  0.51247939  0.30370081  0.11282131  1
  Ti  Ti136  1  0.00578514  0.38351973  0.75177749  1
  Ti  Ti137  1  0.20207973  0.20214934  0.75390779  1
  Ti  Ti138  1  0.92126681  0.10426187  0.61908329  1
  Ti  Ti139  1  0.80564273  0.60579296  0.23669348  1
  Ti  Ti140  1  0.60134227  0.78696275  0.75444758  1
  Ti  Ti141  1  0.89844484  0.70229912  0.63172315  1
  Ti  Ti142  1  0.69460416  0.50815269  0.88637320  1
  Ti  Ti143  1  0.29186987  0.69817033  0.12953614  1
  Ti  Ti144  1  0.59525513  0.59042241  0.00441883  1
  Ti  Ti145  1  -0.00792917  0.00188208  0.01980427  1
  Ti  Ti146  1  0.40073225  0.20161842  0.50381332  1
  Ti  Ti147  1  0.59966986  -0.00244111  -0.01418059  1
  Ti  Ti148  1  0.39914820  0.00670654  0.74978434  1
  Ti  Ti149  1  0.49509082  0.48932935  0.11906504  1
  Ti  Ti150  1  0.70280747  0.89524382  0.86255424  1
  Ti  Ti151  1  0.80234652  0.20231930  0.01088659  1
  Ti  Ti152  1  0.30702181  0.89944994  0.37385003  1
  Ti  Ti153  1  0.40474317  -0.00485552  -0.00821393  1
  Ti  Ti154  1  0.79820273  0.79924808  0.75005609  1
  Ti  Ti155  1  0.21058809  0.21303245  0.22926196  1
  Ti  Ti156  1  0.79802043  0.80983688  -0.00174512  1
  Ti  Ti157  1  0.31461200  0.50901379  0.86945527  1
  Ti  Ti158  1  0.40326182  -0.02005529  0.50613938  1
  Ti  Ti159  1  0.18830873  0.79844678  0.75820636  1
  Mo  Mo160  1  0.70314027  0.89077188  0.11717547  1
  Mo  Mo161  1  0.59641537  0.00115456  0.50519943  1
  Mo  Mo162  1  0.90533974  0.31566138  0.13825692  1
  Mo  Mo163  1  0.50077139  0.09789863  0.87595288  1
  Mo  Mo164  1  0.81633197  0.41071228  0.23314283  1
  Mo  Mo165  1  -0.00510491  0.80317161  -0.00051127  1
  Mo  Mo166  1  0.80743651  0.20352834  0.24536680  1
  Mo  Mo167  1  0.00175910  0.20066275  0.48996729  1
  Mo  Mo168  1  0.31176017  0.10419915  0.11693816  1
  Mo  Mo169  1  0.60546110  0.39250897  0.49127058  1
  Mo  Mo170  1  0.10162944  0.09682683  0.61770686  1
  Mo  Mo171  1  0.39519967  0.79728288  -0.01059238  1
  Mo  Mo172  1  0.58689817  0.79417509  0.25100669  1
  Mo  Mo173  1  0.10208311  0.10396687  0.11999798  1
  Mo  Mo174  1  0.71209436  0.29511451  0.62142481  1
  Mo  Mo175  1  0.80510298  -0.00305025  0.25390497  1
  Mo  Mo176  1  0.89427203  0.10573896  0.88659427  1
  Mo  Mo177  1  0.19896989  0.38043903  0.24777210  1
  Mo  Mo178  1  -0.00553581  0.59670806  0.23975589  1
  Mo  Mo179  1  0.50423603  0.49074764  0.89132365  1
  Mo  Mo180  1  0.09630042  0.48164941  0.37794984  1
  Mo  Mo181  1  0.39958354  0.80154085  0.24759202  1
  Mo  Mo182  1  0.60905245  0.39938343  0.00044932  1
  Mo  Mo183  1  0.59641649  0.39664544  0.23629602  1
  Mo  Mo184  1  0.19441623  0.60362020  0.76737717  1
  Mo  Mo185  1  0.51211474  0.29366563  0.88965143  1
  Mo  Mo186  1  0.39333498  0.80163439  0.50719413  1
  Mo  Mo187  1  -0.01046538  0.60537474  0.50133783  1
  Mo  Mo188  1  0.01097392  0.40937965  -0.00054908  1
  Mo  Mo189  1  0.29112128  0.49050234  0.12110734  1
  Mo  Mo190  1  0.91030954  0.51516540  0.12716000  1
  Mo  Mo191  1  0.39499653  0.59802863  0.75654775  1
  Mo  Mo192  1  0.41662030  0.40648552  0.00013017  1
  Mo  Mo193  1  0.49769359  0.49393734  0.62668446  1
  Mo  Mo194  1  0.21092502  0.40763488  -0.01507756  1
  Mo  Mo195  1  0.69909052  0.69439753  0.86533530  1
  Mo  Mo196  1  0.20698765  0.20185333  0.49895737  1
  Mo  Mo197  1  -0.00248212  -0.00543998  0.75026111  1
  Mo  Mo198  1  0.10114824  0.10405829  0.37077697  1
  Mo  Mo199  1  0.38670011  0.59279910  0.50181806  1
