# generated using pymatgen
data_HfZrTaTiMo
_symmetry_space_group_name_H-M   'P 1'
_cell_length_a   15.22316782
_cell_length_b   15.20920628
_cell_length_c   16.81499213
_cell_angle_alpha   90.04146393
_cell_angle_beta   89.99854024
_cell_angle_gamma   90.05995593
_symmetry_Int_Tables_number   1
_chemical_formula_structural   HfZrTaTiMo
_chemical_formula_sum   'Hf40 Zr40 Ta40 Ti40 Mo40'
_cell_volume   3893.21064378
_cell_formula_units_Z   40
loop_
 _symmetry_equiv_pos_site_id
 _symmetry_equiv_pos_as_xyz
  1  'x, y, z'
loop_
 _atom_site_type_symbol
 _atom_site_label
 _atom_site_symmetry_multiplicity
 _atom_site_fract_x
 _atom_site_fract_y
 _atom_site_fract_z
 _atom_site_occupancy
  Hf  Hf0  1  0.80371756  0.40025401  0.50643391  1
  Hf  Hf1  1  0.91968365  0.08609602  0.38345010  1
  Hf  Hf2  1  0.90804746  0.10788404  0.87616126  1
  Hf  Hf3  1  0.30305125  0.29147781  0.87585032  1
  Hf  Hf4  1  0.88793981  0.49882299  0.35720936  1
  Hf  Hf5  1  0.39388403  0.80344262  0.24634137  1
  Hf  Hf6  1  0.78799265  0.80422415  0.00017287  1
  Hf  Hf7  1  0.11873138  0.71088474  0.86936684  1
  Hf  Hf8  1  0.80650361  0.40931969  0.74339566  1
  Hf  Hf9  1  0.39353493  0.37800095  0.24456295  1
  Hf  Hf10  1  0.30215945  0.70015639  0.39326658  1
  Hf  Hf11  1  0.10270031  0.89870330  0.12427312  1
  Hf  Hf12  1  0.19545035  -0.00362193  0.73488987  1
  Hf  Hf13  1  0.92400838  0.29530073  0.37667697  1
  Hf  Hf14  1  0.49911237  0.50099936  0.36989442  1
  Hf  Hf15  1  0.80863793  0.19507142  0.25021047  1
  Hf  Hf16  1  0.20436609  0.40513473  0.74496867  1
  Hf  Hf17  1  0.02119335  0.20514149  0.51760638  1
  Hf  Hf18  1  0.59241266  0.37882544  0.25484949  1
  Hf  Hf19  1  0.00237314  0.41088316  0.00612451  1
  Hf  Hf20  1  0.41254267  0.41578400  0.74486629  1
  Hf  Hf21  1  0.49129815  0.91027658  0.38940855  1
  Hf  Hf22  1  0.09137874  0.92525028  0.39036526  1
  Hf  Hf23  1  0.70507049  0.89318647  0.63234638  1
  Hf  Hf24  1  0.47244087  0.68728705  0.86223276  1
  Hf  Hf25  1  0.30902925  0.52025720  0.87045798  1
  Hf  Hf26  1  0.29731308  0.50679144  0.13831886  1
  Hf  Hf27  1  0.49167083  0.88356002  0.85663095  1
  Hf  Hf28  1  0.81093745  0.19513980  0.50711777  1
  Hf  Hf29  1  0.21949778  -0.00206981  -0.01049658  1
  Hf  Hf30  1  0.89806760  0.70439592  0.87891868  1
  Hf  Hf31  1  -0.00158307  0.80962059  0.74879475  1
  Hf  Hf32  1  0.19254854  0.39120875  0.50078772  1
  Hf  Hf33  1  0.57898443  0.78577941  0.00877982  1
  Hf  Hf34  1  -0.00782872  0.81725385  0.26482158  1
  Hf  Hf35  1  0.69258577  0.90189695  0.85958963  1
  Hf  Hf36  1  0.50835290  0.09260280  0.84959468  1
  Hf  Hf37  1  0.79181758  0.59827395  0.00046035  1
  Hf  Hf38  1  0.70564918  0.30686454  0.86479433  1
  Hf  Hf39  1  0.89522010  0.91100081  0.11637645  1
  Zr  Zr40  1  0.61095763  0.39636873  0.00634321  1
  Zr  Zr41  1  0.37797278  0.00432698  0.25546706  1
  Zr  Zr42  1  0.01101278  0.20376342  0.74055188  1
  Zr  Zr43  1  0.08930288  0.50892449  0.61951579  1
  Zr  Zr44  1  0.50277661  0.70751566  0.39380904  1
  Zr  Zr45  1  0.19682830  0.38079080  0.24686694  1
  Zr  Zr46  1  0.58960785  -0.00180388  -0.00838929  1
  Zr  Zr47  1  0.88233647  0.71249532  0.37688237  1
  Zr  Zr48  1  0.50532957  0.29330389  0.86554213  1
  Zr  Zr49  1  0.67908924  0.69512771  0.86503590  1
  Zr  Zr50  1  0.19988819  0.39775920  0.00982890  1
  Zr  Zr51  1  0.20233692  0.61650196  0.00483484  1
  Zr  Zr52  1  0.40863140  0.39789734  0.00656613  1
  Zr  Zr53  1  0.70917620  0.30363401  0.37066542  1
  Zr  Zr54  1  0.60218147  0.20081921  0.50656086  1
  Zr  Zr55  1  0.31610065  0.09060786  0.39961078  1
  Zr  Zr56  1  0.40611101  0.60524557  0.01648235  1
  Zr  Zr57  1  0.69182542  0.09308859  0.37765408  1
  Zr  Zr58  1  0.70858121  0.49076529  0.14851491  1
  Zr  Zr59  1  0.89429141  0.70170224  0.61728072  1
  Zr  Zr60  1  0.30184471  0.49336423  0.37667133  1
  Zr  Zr61  1  0.90073093  0.51463284  0.13772186  1
  Zr  Zr62  1  0.19611494  0.80903839  0.26989492  1
  Zr  Zr63  1  0.36944334  0.80128553  0.01253530  1
  Zr  Zr64  1  0.00133227  0.40393657  0.75579292  1
  Zr  Zr65  1  0.69716375  0.88393672  0.38050719  1
  Zr  Zr66  1  0.68633273  0.89966700  0.12588071  1
  Zr  Zr67  1  0.28943289  0.87576798  0.85798481  1
  Zr  Zr68  1  0.80484299  -0.00677243  0.25081567  1
  Zr  Zr69  1  0.02132539  0.19760110  0.23113083  1
  Zr  Zr70  1  0.00231460  0.01134545  0.00613377  1
  Zr  Zr71  1  0.01162028  0.20802561  0.01507567  1
  Zr  Zr72  1  -0.00332256  0.60262513  0.75099257  1
  Zr  Zr73  1  0.90704288  0.70739274  0.12802837  1
  Zr  Zr74  1  0.00443571  0.39616587  0.24117943  1
  Zr  Zr75  1  0.70113324  0.09803626  0.64083629  1
  Zr  Zr76  1  0.51976087  0.31074569  0.63469626  1
  Zr  Zr77  1  0.67934151  0.69991783  0.62223572  1
  Zr  Zr78  1  0.39742534  -0.01265966  0.72341709  1
  Zr  Zr79  1  0.78828010  0.59433191  0.49770778  1
  Ta  Ta80  1  0.09471608  0.49899562  0.37252441  1
  Ta  Ta81  1  0.21295632  0.20456382  0.52668186  1
  Ta  Ta82  1  0.89281935  0.50296301  0.88155592  1
  Ta  Ta83  1  0.70249719  0.28674134  0.13126197  1
  Ta  Ta84  1  0.50597294  0.28036371  0.11977194  1
  Ta  Ta85  1  0.50661953  0.50167412  0.14280315  1
  Ta  Ta86  1  0.00117848  0.00140627  0.75140833  1
  Ta  Ta87  1  0.49072797  0.09759599  0.11650933  1
  Ta  Ta88  1  0.08519241  0.90469048  0.61175753  1
  Ta  Ta89  1  0.20807688  0.20263079  0.73083882  1
  Ta  Ta90  1  -0.00196116  0.60329632  0.48639022  1
  Ta  Ta91  1  0.81442143  -0.00469974  0.75512450  1
  Ta  Ta92  1  0.31178503  0.09747066  0.86358021  1
  Ta  Ta93  1  0.22862383  0.18715045  0.25035985  1
  Ta  Ta94  1  0.70446459  0.10519820  0.85686949  1
  Ta  Ta95  1  0.58564397  0.58386731  0.74033784  1
  Ta  Ta96  1  0.09994034  0.51693811  0.13637592  1
  Ta  Ta97  1  0.58074750  0.00611046  0.25103087  1
  Ta  Ta98  1  0.79081175  0.59444261  0.74795383  1
  Ta  Ta99  1  0.58740103  0.79617324  0.24409680  1
  Ta  Ta100  1  0.59495501  -0.00271870  0.51484150  1
  Ta  Ta101  1  0.14149346  0.10211086  0.12175208  1
  Ta  Ta102  1  0.89095016  0.30634804  0.12349963  1
  Ta  Ta103  1  0.39877255  0.19892183  0.72821055  1
  Ta  Ta104  1  0.11694238  0.10777119  0.87077629  1
  Ta  Ta105  1  0.59787784  0.59098034  0.00933897  1
  Ta  Ta106  1  0.40676791  0.19455602  0.52631020  1
  Ta  Ta107  1  0.40188918  0.61142817  0.24699250  1
  Ta  Ta108  1  0.81438958  0.20349978  0.74513662  1
  Ta  Ta109  1  0.79033173  0.01461529  -0.00493201  1
  Ta  Ta110  1  0.30066823  0.50090666  0.61326400  1
  Ta  Ta111  1  0.90714872  0.08695158  0.62442741  1
  Ta  Ta112  1  0.09337170  0.90717001  0.87517028  1
  Ta  Ta113  1  0.10664474  0.29761850  0.87774612  1
  Ta  Ta114  1  0.79539587  0.20418933  0.00047455  1
  Ta  Ta115  1  0.68657521  0.10273999  0.12738441  1
  Ta  Ta116  1  0.11889441  0.12250600  0.37957600  1
  Ta  Ta117  1  0.60131270  0.41026436  0.49130976  1
  Ta  Ta118  1  0.21076116  0.61784712  0.73483568  1
  Ta  Ta119  1  0.30084940  0.28159441  0.38522989  1
  Ti  Ti120  1  0.89712727  0.89823458  0.62029004  1
  Ti  Ti121  1  0.00585119  0.60489579  -0.00186425  1
  Ti  Ti122  1  0.79958788  0.79411411  0.75387229  1
  Ti  Ti123  1  -0.00124262  0.40908555  0.49979732  1
  Ti  Ti124  1  0.80058469  0.40135387  -0.00079741  1
  Ti  Ti125  1  0.10331436  0.50398525  0.87477369  1
  Ti  Ti126  1  0.37273641  0.78277931  0.71505180  1
  Ti  Ti127  1  0.49586059  0.28294976  0.38537216  1
  Ti  Ti128  1  0.40228805  0.39017581  0.50577469  1
  Ti  Ti129  1  0.48422777  0.90916106  0.12302970  1
  Ti  Ti130  1  0.68673585  0.69193573  0.37265591  1
  Ti  Ti131  1  0.09678117  0.70848225  0.61468654  1
  Ti  Ti132  1  0.51158087  0.87916046  0.62778864  1
  Ti  Ti133  1  0.19254913  0.01389519  0.51995944  1
  Ti  Ti134  1  0.80542644  -0.01216403  0.49895252  1
  Ti  Ti135  1  -0.01354771  0.80846168  0.48991452  1
  Ti  Ti136  1  0.90927885  0.31021443  0.62354051  1
  Ti  Ti137  1  0.00870024  0.01336327  0.23904907  1
  Ti  Ti138  1  0.52023232  0.49677315  0.87711667  1
  Ti  Ti139  1  0.30485271  0.26326859  0.10801420  1
  Ti  Ti140  1  0.10896867  0.70484877  0.13087031  1
  Ti  Ti141  1  0.40659030  0.59523963  0.51106656  1
  Ti  Ti142  1  0.68887306  0.68763831  0.13730036  1
  Ti  Ti143  1  0.00883283  0.80025957  -0.00378540  1
  Ti  Ti144  1  0.68914690  0.49461875  0.62229004  1
  Ti  Ti145  1  0.28718023  0.91264250  0.12976848  1
  Ti  Ti146  1  0.00904199  0.61724908  0.26642466  1
  Ti  Ti147  1  0.78964566  0.79549891  0.24357578  1
  Ti  Ti148  1  0.29672589  0.90104692  0.40217656  1
  Ti  Ti149  1  0.19148183  0.80024216  0.50191959  1
  Ti  Ti150  1  0.39705551  0.60401474  0.71985146  1
  Ti  Ti151  1  0.19035918  0.59772174  0.49530652  1
  Ti  Ti152  1  0.42182746  0.18893776  0.25556461  1
  Ti  Ti153  1  0.89853556  0.90452504  0.88388012  1
  Ti  Ti154  1  0.69507001  0.50595444  0.35641204  1
  Ti  Ti155  1  0.19773303  0.60850490  0.26272465  1
  Ti  Ti156  1  0.70764784  0.30259522  0.63389693  1
  Ti  Ti157  1  0.60321864  0.19269911  -0.00763629  1
  Ti  Ti158  1  0.90577870  0.30429303  0.88084255  1
  Ti  Ti159  1  0.40460680  -0.00434952  0.53013588  1
  Mo  Mo160  1  0.11365711  0.29959997  0.11756259  1
  Mo  Mo161  1  0.60532929  -0.01030476  0.74258285  1
  Mo  Mo162  1  0.31674663  0.09254988  0.12013288  1
  Mo  Mo163  1  0.79463801  0.61278772  0.25572567  1
  Mo  Mo164  1  0.11398819  0.29621882  0.37858757  1
  Mo  Mo165  1  0.80187593  0.39129987  0.25061651  1
  Mo  Mo166  1  0.18841088  0.80499271  0.00273462  1
  Mo  Mo167  1  0.30261651  0.09654528  0.61922653  1
  Mo  Mo168  1  0.39578899  0.80443329  0.51646536  1
  Mo  Mo169  1  0.09968415  0.09764769  0.63197779  1
  Mo  Mo170  1  0.57957644  0.78676121  0.74611215  1
  Mo  Mo171  1  0.61116296  0.20351724  0.74782277  1
  Mo  Mo172  1  0.50431134  0.50312755  0.61064601  1
  Mo  Mo173  1  0.21023939  0.19512076  -0.01114259  1
  Mo  Mo174  1  0.89271783  0.50346846  0.61851970  1
  Mo  Mo175  1  0.60006130  0.80424297  0.50149041  1
  Mo  Mo176  1  0.59378616  0.60481281  0.25117252  1
  Mo  Mo177  1  0.59807356  0.59058930  0.49669286  1
  Mo  Mo178  1  0.18757654  0.79950818  0.72459093  1
  Mo  Mo179  1  0.49852888  0.70207223  0.13219029  1
  Mo  Mo180  1  0.70264878  0.50416512  0.87520169  1
  Mo  Mo181  1  0.09589278  0.70076147  0.38847495  1
  Mo  Mo182  1  0.50126781  0.09830401  0.38804098  1
  Mo  Mo183  1  0.28613746  0.69050493  0.59876411  1
  Mo  Mo184  1  0.30941450  0.31010957  0.62664171  1
  Mo  Mo185  1  0.10364787  0.30960191  0.62945388  1
  Mo  Mo186  1  0.28526073  0.89087575  0.60554961  1
  Mo  Mo187  1  0.40864648  0.17864769  -0.01091999  1
  Mo  Mo188  1  0.28467288  0.70463063  0.14220701  1
  Mo  Mo189  1  0.89510781  0.90592876  0.37749689  1
  Mo  Mo190  1  0.30025435  0.69932694  0.86083453  1
  Mo  Mo191  1  0.87438577  0.11174996  0.11849433  1
  Mo  Mo192  1  0.59314417  0.18850460  0.25010874  1
  Mo  Mo193  1  -0.00264141  0.00525801  0.50769043  1
  Mo  Mo194  1  0.50914984  0.09216425  0.64075012  1
  Mo  Mo195  1  0.49216153  0.69579802  0.61226521  1
  Mo  Mo196  1  0.40438721  -0.00231844  -0.01089073  1
  Mo  Mo197  1  0.18910440  0.00942725  0.25693113  1
  Mo  Mo198  1  0.61292385  0.41210139  0.75062816  1
  Mo  Mo199  1  0.79436226  0.80570579  0.50169526  1
