# generated using pymatgen
data_HfZrTaTiMo
_symmetry_space_group_name_H-M   'P 1'
_cell_length_a   15.15944343
_cell_length_b   15.16269142
_cell_length_c   16.84839475
_cell_angle_alpha   90.03879254
_cell_angle_beta   89.94372711
_cell_angle_gamma   89.93455603
_symmetry_Int_Tables_number   1
_chemical_formula_structural   HfZrTaTiMo
_chemical_formula_sum   'Hf40 Zr40 Ta40 Ti40 Mo40'
_cell_volume   3872.73240954
_cell_formula_units_Z   40
loop_
 _symmetry_equiv_pos_site_id
 _symmetry_equiv_pos_as_xyz
  1  'x, y, z'
loop_
 _atom_site_type_symbol
 _atom_site_label
 _atom_site_symmetry_multiplicity
 _atom_site_fract_x
 _atom_site_fract_y
 _atom_site_fract_z
 _atom_site_occupancy
  Hf  Hf0  1  0.20185027  0.81498451  0.48558780  1
  Hf  Hf1  1  0.50277392  0.50441559  0.87707836  1
  Hf  Hf2  1  0.30221245  0.48905670  0.14749455  1
  Hf  Hf3  1  0.12991860  0.50924988  0.86522498  1
  Hf  Hf4  1  0.31004373  0.49922159  0.37418613  1
  Hf  Hf5  1  0.18388192  0.00131231  0.00418970  1
  Hf  Hf6  1  0.30363226  0.10678930  0.11115235  1
  Hf  Hf7  1  0.10848617  0.70511061  0.61740935  1
  Hf  Hf8  1  0.29373167  0.89314200  0.88554154  1
  Hf  Hf9  1  0.60981359  -0.00577587  0.00625466  1
  Hf  Hf10  1  0.71928156  0.68874891  0.35813226  1
  Hf  Hf11  1  0.01006990  0.00848398  0.49298631  1
  Hf  Hf12  1  0.88895988  0.92023744  0.87299527  1
  Hf  Hf13  1  0.59975532  0.59405807  0.23816153  1
  Hf  Hf14  1  0.69689618  0.88624586  0.87195859  1
  Hf  Hf15  1  0.02916326  0.61120060  0.00697621  1
  Hf  Hf16  1  -0.01263241  0.03144382  0.00099825  1
  Hf  Hf17  1  0.40724749  0.39188402  0.49285550  1
  Hf  Hf18  1  0.20135869  0.60740196  0.26665538  1
  Hf  Hf19  1  0.39530358  0.78977046  0.75207657  1
  Hf  Hf20  1  0.31480020  0.69743518  0.60520175  1
  Hf  Hf21  1  0.59266610  0.78612202  0.02185466  1
  Hf  Hf22  1  0.19783648  0.78898847  0.00715804  1
  Hf  Hf23  1  0.72563746  0.48728521  0.63007897  1
  Hf  Hf24  1  0.90184658  0.12101632  0.39074189  1
  Hf  Hf25  1  0.90385715  0.88255619  0.36187447  1
  Hf  Hf26  1  0.19585293  0.79902647  0.75275742  1
  Hf  Hf27  1  0.21033341  0.02007745  0.24813959  1
  Hf  Hf28  1  0.00251590  0.82117374  0.01058804  1
  Hf  Hf29  1  0.68371414  0.68618295  0.88375545  1
  Hf  Hf30  1  0.59409864  0.18750579  -0.00159325  1
  Hf  Hf31  1  0.50725459  0.29135488  0.62907088  1
  Hf  Hf32  1  0.81556121  0.17727723  -0.00630086  1
  Hf  Hf33  1  0.29238246  0.10718727  0.88179891  1
  Hf  Hf34  1  0.39093467  0.18448939  0.50951819  1
  Hf  Hf35  1  0.91201791  0.49178301  0.10993312  1
  Hf  Hf36  1  0.90122085  0.68635486  0.62998699  1
  Hf  Hf37  1  0.29300430  0.90674434  0.63083574  1
  Hf  Hf38  1  0.40849049  0.37733985  0.26243131  1
  Hf  Hf39  1  0.79851162  0.20691974  0.25328926  1
  Zr  Zr40  1  0.90086415  0.92117905  0.13622029  1
  Zr  Zr41  1  -0.01228028  0.79918126  0.50171157  1
  Zr  Zr42  1  0.19044596  0.37927222  0.26997890  1
  Zr  Zr43  1  0.20327791  0.42142149  0.00352942  1
  Zr  Zr44  1  0.80141494  0.58548386  0.76498255  1
  Zr  Zr45  1  0.40121583  0.39635228  -0.00027730  1
  Zr  Zr46  1  0.79881335  -0.00794114  0.49597769  1
  Zr  Zr47  1  0.40070298  -0.00031815  0.75749690  1
  Zr  Zr48  1  0.08904064  0.91413330  0.62995254  1
  Zr  Zr49  1  0.51674267  0.50934381  0.62192077  1
  Zr  Zr50  1  0.57741976  0.00247129  0.23953339  1
  Zr  Zr51  1  0.91422657  0.49509593  0.89725444  1
  Zr  Zr52  1  0.79564024  0.79539072  0.74599261  1
  Zr  Zr53  1  0.70173007  0.48683782  0.10993195  1
  Zr  Zr54  1  0.29141815  0.31606058  0.86175301  1
  Zr  Zr55  1  0.10287743  0.31303434  0.11857600  1
  Zr  Zr56  1  0.89793075  0.71226515  0.88918168  1
  Zr  Zr57  1  0.79352200  0.00547964  0.26604617  1
  Zr  Zr58  1  0.49935414  0.89367378  0.88339532  1
  Zr  Zr59  1  0.01243252  0.61125574  0.76008293  1
  Zr  Zr60  1  0.67869994  0.11138691  0.38967291  1
  Zr  Zr61  1  0.32204151  0.71209253  0.37648737  1
  Zr  Zr62  1  0.39041410  0.19442424  0.74173933  1
  Zr  Zr63  1  0.19317187  0.39895245  0.48601389  1
  Zr  Zr64  1  0.10967521  0.51006983  0.62532502  1
  Zr  Zr65  1  0.39069944  0.17450871  0.25376261  1
  Zr  Zr66  1  0.00353761  0.23071737  0.26057747  1
  Zr  Zr67  1  0.48357982  0.88214099  0.36753683  1
  Zr  Zr68  1  0.68271807  0.89273838  0.63197618  1
  Zr  Zr69  1  0.61668726  0.38274848  0.49359893  1
  Zr  Zr70  1  0.62609633  0.59294550  0.48594766  1
  Zr  Zr71  1  0.39175628  0.41550367  0.73906152  1
  Zr  Zr72  1  0.78474599  0.78747115  0.50585736  1
  Zr  Zr73  1  0.88493654  0.30732787  0.61737803  1
  Zr  Zr74  1  0.08721387  0.30489164  0.62235534  1
  Zr  Zr75  1  0.59468922  0.19981506  0.23903652  1
  Zr  Zr76  1  0.70148641  0.10227078  0.61933339  1
  Zr  Zr77  1  0.68791888  0.88624154  0.36752176  1
  Zr  Zr78  1  0.69761466  0.28381375  0.87382959  1
  Zr  Zr79  1  0.09175529  0.30167673  0.87662014  1
  Ta  Ta80  1  0.68613779  0.68145426  0.63235889  1
  Ta  Ta81  1  0.08363024  0.71376134  0.36307971  1
  Ta  Ta82  1  0.88847242  0.32861467  0.38443680  1
  Ta  Ta83  1  0.82836715  0.58811270  0.49795570  1
  Ta  Ta84  1  0.81244678  0.18443265  0.75351648  1
  Ta  Ta85  1  0.18678043  0.02638657  0.75236516  1
  Ta  Ta86  1  0.18795879  0.19246538  0.51540582  1
  Ta  Ta87  1  0.69683483  0.29343315  0.64375279  1
  Ta  Ta88  1  0.70241791  0.89650920  0.13507196  1
  Ta  Ta89  1  0.70084637  0.49120121  0.89525064  1
  Ta  Ta90  1  0.50170819  0.08368407  0.62226532  1
  Ta  Ta91  1  -0.01491505  0.61854411  0.23993353  1
  Ta  Ta92  1  -0.00386316  0.81168163  0.75029875  1
  Ta  Ta93  1  0.80759912  0.38824924  0.76920969  1
  Ta  Ta94  1  0.60020637  0.78798598  0.23091793  1
  Ta  Ta95  1  0.48567889  0.69489729  0.88958699  1
  Ta  Ta96  1  0.00586036  0.19660801  0.74995915  1
  Ta  Ta97  1  0.39299762  -0.01537053  0.50554261  1
  Ta  Ta98  1  0.10358290  0.91421128  0.36128186  1
  Ta  Ta99  1  -0.01782594  0.42895400  0.49973266  1
  Ta  Ta100  1  0.58353474  -0.01476191  0.50083041  1
  Ta  Ta101  1  0.70585245  0.29230741  0.11259001  1
  Ta  Ta102  1  0.11273530  0.12359855  0.37219226  1
  Ta  Ta103  1  0.42685005  0.60839759  0.48713579  1
  Ta  Ta104  1  0.10257409  0.51192266  0.14456707  1
  Ta  Ta105  1  0.59458257  0.38774205  0.00017412  1
  Ta  Ta106  1  0.20629917  0.01029203  0.49400665  1
  Ta  Ta107  1  0.71493608  0.09261922  0.12345415  1
  Ta  Ta108  1  0.30314836  0.69349373  0.13589998  1
  Ta  Ta109  1  -0.00433145  0.40532927  0.75039562  1
  Ta  Ta110  1  0.09081341  0.91522298  0.86711789  1
  Ta  Ta111  1  0.49076773  0.29086542  0.12230153  1
  Ta  Ta112  1  0.10529188  0.71487547  0.14471965  1
  Ta  Ta113  1  0.60766457  0.40365880  0.75821414  1
  Ta  Ta114  1  0.29487268  0.68331518  0.88071481  1
  Ta  Ta115  1  0.21447655  0.81603115  0.25549752  1
  Ta  Ta116  1  0.51227353  0.49640229  0.36519859  1
  Ta  Ta117  1  0.80848428  0.39654105  0.23937391  1
  Ta  Ta118  1  0.38969730  0.59899899  0.01021885  1
  Ta  Ta119  1  0.30116178  0.89687968  0.11758726  1
  Ti  Ti120  1  0.48226895  0.08458560  0.38338925  1
  Ti  Ti121  1  0.10366502  0.71447549  0.87569566  1
  Ti  Ti122  1  0.79634587  0.80865337  0.01427501  1
  Ti  Ti123  1  0.51223590  0.27920749  0.38116221  1
  Ti  Ti124  1  0.59834086  -0.00418622  0.75411932  1
  Ti  Ti125  1  0.48613981  0.90039493  0.12093939  1
  Ti  Ti126  1  -0.00144927  0.02140133  0.25930100  1
  Ti  Ti127  1  0.40860334  0.78810075  0.23678935  1
  Ti  Ti128  1  0.58572912  0.77623036  0.75130809  1
  Ti  Ti129  1  0.90708967  0.29401959  0.11590540  1
  Ti  Ti130  1  0.71525659  0.48245918  0.36150648  1
  Ti  Ti131  1  0.28824510  0.30589238  0.62691852  1
  Ti  Ti132  1  0.23017368  0.59478187  0.73923738  1
  Ti  Ti133  1  0.41752114  0.60558672  0.74580449  1
  Ti  Ti134  1  0.19521424  0.60606806  0.47925074  1
  Ti  Ti135  1  0.49433082  0.88530545  0.62819266  1
  Ti  Ti136  1  0.59638748  0.18388680  0.75868188  1
  Ti  Ti137  1  0.10141937  0.91376384  0.14355851  1
  Ti  Ti138  1  0.80208157  0.59455392  0.22520717  1
  Ti  Ti139  1  0.57981217  0.78105856  0.50046825  1
  Ti  Ti140  1  0.78090711  0.22449228  0.49571628  1
  Ti  Ti141  1  0.08710016  0.11659886  0.13367476  1
  Ti  Ti142  1  0.28554217  0.26760389  0.38263175  1
  Ti  Ti143  1  0.90816664  0.11080831  0.61090842  1
  Ti  Ti144  1  0.88866642  0.91308987  0.63281116  1
  Ti  Ti145  1  0.89657585  0.52063843  0.35962989  1
  Ti  Ti146  1  0.79766527  0.61298937  0.01203426  1
  Ti  Ti147  1  0.61061010  0.38746660  0.24512037  1
  Ti  Ti148  1  0.71178950  0.07810352  0.86862171  1
  Ti  Ti149  1  -0.01571074  0.01672256  0.74854329  1
  Ti  Ti150  1  0.19326023  0.20550987  0.00123062  1
  Ti  Ti151  1  0.40982677  0.00739778  -0.00535034  1
  Ti  Ti152  1  0.07925008  0.50350752  0.36527947  1
  Ti  Ti153  1  0.49376898  0.49090272  0.13361604  1
  Ti  Ti154  1  0.81821197  0.77952488  0.22978601  1
  Ti  Ti155  1  0.49699283  0.29419778  0.86537184  1
  Ti  Ti156  1  0.30581353  0.50341771  0.60138973  1
  Ti  Ti157  1  0.80910059  0.37994412  -0.00941810  1
  Ti  Ti158  1  0.40200946  0.20357712  -0.00775432  1
  Ti  Ti159  1  0.59002929  0.59116839  0.01760563  1
  Mo  Mo160  1  0.00866747  0.81261622  0.24159425  1
  Mo  Mo161  1  0.79619107  0.00382113  0.74072997  1
  Mo  Mo162  1  0.08285194  0.30560132  0.39488120  1
  Mo  Mo163  1  -0.01052551  0.41803175  0.25472954  1
  Mo  Mo164  1  0.19916126  0.40752366  0.73722145  1
  Mo  Mo165  1  0.30533721  0.29453787  0.12228902  1
  Mo  Mo166  1  0.29947529  0.09224354  0.38148064  1
  Mo  Mo167  1  0.20650994  0.60564375  0.01618767  1
  Mo  Mo168  1  0.40917977  0.59416551  0.25610327  1
  Mo  Mo169  1  0.51634567  0.69415569  0.36572287  1
  Mo  Mo170  1  0.38861943  -0.02191709  0.24126883  1
  Mo  Mo171  1  0.90434513  0.70290942  0.11078812  1
  Mo  Mo172  1  0.79396849  0.41391499  0.49550761  1
  Mo  Mo173  1  0.09981404  0.10358279  0.87429689  1
  Mo  Mo174  1  0.91199613  0.49754696  0.63285028  1
  Mo  Mo175  1  0.50922116  0.10361812  0.87313700  1
  Mo  Mo176  1  0.01050096  0.60546058  0.48988124  1
  Mo  Mo177  1  0.90483296  0.10598257  0.86618659  1
  Mo  Mo178  1  0.30109675  0.90942061  0.37099080  1
  Mo  Mo179  1  0.00513548  0.20979715  0.00090263  1
  Mo  Mo180  1  0.58881761  0.19194343  0.50353138  1
  Mo  Mo181  1  0.60211556  0.59328750  0.75807904  1
  Mo  Mo182  1  0.69896547  0.30424974  0.36724051  1
  Mo  Mo183  1  0.31471822  0.51550340  0.87084473  1
  Mo  Mo184  1  0.50854107  0.70007618  0.62472128  1
  Mo  Mo185  1  0.09158613  0.10225989  0.62389633  1
  Mo  Mo186  1  0.29273529  0.09944951  0.62672355  1
  Mo  Mo187  1  0.90316865  0.29627059  0.87150967  1
  Mo  Mo188  1  0.40864738  0.80424524  0.50494532  1
  Mo  Mo189  1  0.90067194  0.69569957  0.36662374  1
  Mo  Mo190  1  0.00535557  0.40246928  0.00071399  1
  Mo  Mo191  1  0.79583281  -0.00668932  0.00513036  1
  Mo  Mo192  1  0.49168871  0.68848331  0.12292935  1
  Mo  Mo193  1  0.20085394  0.20548486  0.24770966  1
  Mo  Mo194  1  0.90363243  0.11557476  0.13743966  1
  Mo  Mo195  1  -0.00475495  0.21392724  0.49361323  1
  Mo  Mo196  1  0.49544239  0.09310604  0.11488723  1
  Mo  Mo197  1  0.70592923  0.69638808  0.12348292  1
  Mo  Mo198  1  0.19360936  0.20598148  0.73595278  1
  Mo  Mo199  1  0.39361058  0.79497118  0.01009501  1
