# generated using pymatgen
data_HfZrTaTiMo
_symmetry_space_group_name_H-M   'P 1'
_cell_length_a   15.22038534
_cell_length_b   15.21450076
_cell_length_c   16.85531066
_cell_angle_alpha   89.90914247
_cell_angle_beta   90.01497491
_cell_angle_gamma   90.01626938
_symmetry_Int_Tables_number   1
_chemical_formula_structural   HfZrTaTiMo
_chemical_formula_sum   'Hf40 Zr40 Ta40 Ti40 Mo40'
_cell_volume   3903.18860377
_cell_formula_units_Z   40
loop_
 _symmetry_equiv_pos_site_id
 _symmetry_equiv_pos_as_xyz
  1  'x, y, z'
loop_
 _atom_site_type_symbol
 _atom_site_label
 _atom_site_symmetry_multiplicity
 _atom_site_fract_x
 _atom_site_fract_y
 _atom_site_fract_z
 _atom_site_occupancy
  Hf  Hf0  1  0.39825078  0.40008956  0.73815151  1
  Hf  Hf1  1  0.40000794  0.61330258  0.50014805  1
  Hf  Hf2  1  0.28815496  0.68548315  0.12852855  1
  Hf  Hf3  1  0.80544225  -0.01719672  0.26659309  1
  Hf  Hf4  1  0.50793040  0.31726495  0.13540905  1
  Hf  Hf5  1  0.90480642  0.88583529  0.12546714  1
  Hf  Hf6  1  0.29606262  0.89019012  0.10356336  1
  Hf  Hf7  1  0.89117216  0.47340444  0.35180684  1
  Hf  Hf8  1  0.80461799  0.59323470  0.74937270  1
  Hf  Hf9  1  0.00472456  0.19179573  0.49908017  1
  Hf  Hf10  1  0.60263337  0.61107649  0.50061457  1
  Hf  Hf11  1  0.61203689  0.39985353  0.48776524  1
  Hf  Hf12  1  0.59538409  0.61030524  0.00927690  1
  Hf  Hf13  1  0.30906833  0.29824449  0.37066513  1
  Hf  Hf14  1  0.89602674  0.49931744  0.12521188  1
  Hf  Hf15  1  0.50558571  0.08647754  0.63242367  1
  Hf  Hf16  1  0.30301962  0.09531746  0.11943951  1
  Hf  Hf17  1  0.70190825  0.88490735  0.14243348  1
  Hf  Hf18  1  0.40111013  0.19420872  0.50579852  1
  Hf  Hf19  1  0.69569690  0.49787446  0.89135349  1
  Hf  Hf20  1  0.58551343  0.80845708  0.50401966  1
  Hf  Hf21  1  -0.01357654  0.80357201  -0.01466436  1
  Hf  Hf22  1  0.19054712  0.61935995  0.75020657  1
  Hf  Hf23  1  0.69309963  0.70956980  0.35687953  1
  Hf  Hf24  1  0.11119936  0.51418574  0.13329354  1
  Hf  Hf25  1  0.80021572  -0.00733441  0.49620016  1
  Hf  Hf26  1  0.79559424  0.18178470  0.00125439  1
  Hf  Hf27  1  0.18643940  0.61168533  0.50566283  1
  Hf  Hf28  1  0.08862463  0.71500243  0.12580759  1
  Hf  Hf29  1  0.01596354  -0.00782317  0.74411393  1
  Hf  Hf30  1  0.20183792  0.20739180  0.74723211  1
  Hf  Hf31  1  0.70966779  0.10161639  0.63245952  1
  Hf  Hf32  1  0.00321262  0.78223579  0.74594446  1
  Hf  Hf33  1  0.21866733  0.41678915  0.24545090  1
  Hf  Hf34  1  0.69802854  0.50033397  0.62653135  1
  Hf  Hf35  1  0.09575683  0.10102850  0.10671172  1
  Hf  Hf36  1  0.20418845  0.20123949  0.24032041  1
  Hf  Hf37  1  0.49909659  0.10906576  0.14239437  1
  Hf  Hf38  1  0.09997270  0.30300405  0.62094787  1
  Hf  Hf39  1  0.78954719  0.78795230  0.72851749  1
  Zr  Zr40  1  0.79095511  0.78570194  0.51234335  1
  Zr  Zr41  1  0.19473493  0.82056001  0.75499668  1
  Zr  Zr42  1  0.59888303  0.60751269  0.74836459  1
  Zr  Zr43  1  0.40060927  0.20332350  -0.00096402  1
  Zr  Zr44  1  -0.00230132  0.60673874  0.00355974  1
  Zr  Zr45  1  0.89665484  0.47752651  0.63146414  1
  Zr  Zr46  1  0.01063797  -0.00249028  0.25515222  1
  Zr  Zr47  1  0.80344531  0.21207043  0.49150308  1
  Zr  Zr48  1  0.11645964  0.11170724  0.89324798  1
  Zr  Zr49  1  0.09431081  0.51593906  0.36456400  1
  Zr  Zr50  1  0.48583634  0.71078295  0.87182009  1
  Zr  Zr51  1  0.29203205  0.30682416  0.88007821  1
  Zr  Zr52  1  0.50183960  0.30344311  0.87638141  1
  Zr  Zr53  1  0.49989281  0.50779662  0.36621582  1
  Zr  Zr54  1  0.20947001  -0.01079557  0.24784121  1
  Zr  Zr55  1  0.20245184  0.77912981  -0.02500531  1
  Zr  Zr56  1  0.69616172  0.47809633  0.10760387  1
  Zr  Zr57  1  0.80355309  0.58082729  0.49246500  1
  Zr  Zr58  1  0.91178750  0.08747041  0.88000613  1
  Zr  Zr59  1  0.50427277  0.89832097  0.36432366  1
  Zr  Zr60  1  0.70620848  0.29596365  0.87798124  1
  Zr  Zr61  1  0.69763725  0.10400842  0.37289840  1
  Zr  Zr62  1  0.38766020  0.80000970  0.24914080  1
  Zr  Zr63  1  0.87595179  0.89019918  0.86007210  1
  Zr  Zr64  1  0.09488946  0.31133433  0.36403317  1
  Zr  Zr65  1  0.59678592  0.81215017  -0.00054278  1
  Zr  Zr66  1  0.49135342  0.10319827  0.36122923  1
  Zr  Zr67  1  0.00339080  0.38534959  0.76829959  1
  Zr  Zr68  1  0.70495199  0.30253519  0.63198120  1
  Zr  Zr69  1  0.20863177  0.01185728  0.50619449  1
  Zr  Zr70  1  0.20511751  0.41098193  0.74281396  1
  Zr  Zr71  1  0.11131594  0.10360555  0.37647071  1
  Zr  Zr72  1  -0.01438613  0.39868748  0.49415682  1
  Zr  Zr73  1  0.49462682  0.50298488  0.87817474  1
  Zr  Zr74  1  0.89272623  0.48743602  0.89295148  1
  Zr  Zr75  1  0.70019549  0.07689349  0.85597334  1
  Zr  Zr76  1  0.08544870  0.51689161  0.62558283  1
  Zr  Zr77  1  0.60627339  0.01194986  0.00192203  1
  Zr  Zr78  1  0.49498091  0.90841181  0.13545655  1
  Zr  Zr79  1  0.89758152  0.09156477  0.12562016  1
  Ta  Ta80  1  0.89365759  0.30010143  0.11782171  1
  Ta  Ta81  1  -0.00506960  0.80429529  0.25684862  1
  Ta  Ta82  1  0.61547830  0.21489823  0.24775584  1
  Ta  Ta83  1  0.59639171  0.20270994  0.49901421  1
  Ta  Ta84  1  0.90271280  0.68718601  0.37140730  1
  Ta  Ta85  1  0.29974353  0.89693814  0.38305136  1
  Ta  Ta86  1  0.10077293  0.89270902  0.38697045  1
  Ta  Ta87  1  0.01442915  0.39148206  0.00638993  1
  Ta  Ta88  1  0.29945929  0.51641211  0.87833130  1
  Ta  Ta89  1  0.59572396  0.20343685  0.74759224  1
  Ta  Ta90  1  0.20648639  0.40340103  0.50220560  1
  Ta  Ta91  1  0.30858545  0.90748542  0.88185591  1
  Ta  Ta92  1  0.59950004  0.40190192  0.74760790  1
  Ta  Ta93  1  0.30115489  0.71307277  0.62475550  1
  Ta  Ta94  1  0.50563667  0.91340527  0.86023437  1
  Ta  Ta95  1  0.50613624  0.30032196  0.36358220  1
  Ta  Ta96  1  0.49073054  0.51076098  0.13619556  1
  Ta  Ta97  1  0.00164344  -0.01051934  0.50443577  1
  Ta  Ta98  1  0.79679460  -0.02659023  0.00088776  1
  Ta  Ta99  1  0.90823547  0.09736581  0.37324907  1
  Ta  Ta100  1  0.20952061  0.41402806  0.01158623  1
  Ta  Ta101  1  0.29871918  0.50424277  0.38520856  1
  Ta  Ta102  1  0.10450104  0.50451709  0.88193835  1
  Ta  Ta103  1  0.49847529  0.49974264  0.62054500  1
  Ta  Ta104  1  0.40703188  -0.00171160  -0.01057862  1
  Ta  Ta105  1  0.00269173  0.78795083  0.51004763  1
  Ta  Ta106  1  0.90030782  0.28351849  0.63360947  1
  Ta  Ta107  1  0.20066202  0.80864180  0.50992189  1
  Ta  Ta108  1  0.90222552  0.89767882  0.62536980  1
  Ta  Ta109  1  0.61997722  0.41229189  0.25856217  1
  Ta  Ta110  1  0.40372894  0.39675618  0.50421700  1
  Ta  Ta111  1  0.10179497  0.90703254  0.10292888  1
  Ta  Ta112  1  0.38663150  0.61193072  0.00363235  1
  Ta  Ta113  1  0.18582283  0.80042730  0.25288789  1
  Ta  Ta114  1  0.39703634  0.19646908  0.74646866  1
  Ta  Ta115  1  0.49334417  0.70635668  0.63218362  1
  Ta  Ta116  1  0.68675555  0.90906332  0.63058686  1
  Ta  Ta117  1  0.29010535  0.70386719  0.37795738  1
  Ta  Ta118  1  0.70489529  0.70592065  0.87684441  1
  Ta  Ta119  1  0.60155915  0.20745617  0.00906167  1
  Ti  Ti120  1  0.49588604  0.70765039  0.13209627  1
  Ti  Ti121  1  0.21430398  0.01183877  0.75381038  1
  Ti  Ti122  1  0.38287352  0.59249036  0.25387764  1
  Ti  Ti123  1  0.89690345  0.68544320  0.87145964  1
  Ti  Ti124  1  0.30862353  0.09502644  0.36601335  1
  Ti  Ti125  1  0.78241972  0.58185656  0.25196466  1
  Ti  Ti126  1  0.60608707  -0.00136116  0.25509763  1
  Ti  Ti127  1  0.60159852  0.00367431  0.49413136  1
  Ti  Ti128  1  -0.00666305  0.20777125  0.24741075  1
  Ti  Ti129  1  0.40373846  0.41294522  0.00637525  1
  Ti  Ti130  1  0.09675069  0.30735666  0.13279026  1
  Ti  Ti131  1  0.89845631  0.88133234  0.38500319  1
  Ti  Ti132  1  0.49647624  0.10073930  0.86307510  1
  Ti  Ti133  1  0.91327693  0.28533568  0.89547393  1
  Ti  Ti134  1  0.00749233  0.19412393  0.75371905  1
  Ti  Ti135  1  0.09409482  0.70727943  0.37494090  1
  Ti  Ti136  1  0.30193778  0.50549572  0.61438368  1
  Ti  Ti137  1  0.39073135  0.60143907  0.74149272  1
  Ti  Ti138  1  0.31280096  0.31072454  0.13156138  1
  Ti  Ti139  1  0.38903884  0.80483244  0.75268314  1
  Ti  Ti140  1  0.70335991  0.68991360  0.14028643  1
  Ti  Ti141  1  0.50182365  0.29862870  0.62427120  1
  Ti  Ti142  1  0.81453042  0.19376023  0.75813203  1
  Ti  Ti143  1  0.19650940  0.22214188  0.01001612  1
  Ti  Ti144  1  0.59797992  0.80532936  0.74791469  1
  Ti  Ti145  1  0.80061469  0.38832117  0.76079863  1
  Ti  Ti146  1  0.30534699  0.10429239  0.62964466  1
  Ti  Ti147  1  0.48830446  0.89776085  0.63712960  1
  Ti  Ti148  1  0.40728708  -0.01433547  0.50094639  1
  Ti  Ti149  1  -0.00952630  0.61068932  0.24289419  1
  Ti  Ti150  1  0.09766887  0.91553409  0.89024867  1
  Ti  Ti151  1  0.79359741  0.77772956  0.00528094  1
  Ti  Ti152  1  0.70221582  0.09563780  0.13535997  1
  Ti  Ti153  1  0.30345268  0.90865102  0.62648671  1
  Ti  Ti154  1  0.20902255  0.21060940  0.50642777  1
  Ti  Ti155  1  0.90656954  0.09371044  0.63075771  1
  Ti  Ti156  1  0.91548300  0.67557101  0.62230559  1
  Ti  Ti157  1  0.49233146  0.70346683  0.36180163  1
  Ti  Ti158  1  0.80237092  0.20531999  0.25300074  1
  Ti  Ti159  1  0.10352002  0.09744528  0.62513545  1
  Mo  Mo160  1  0.80523950  0.38787033  -0.00077848  1
  Mo  Mo161  1  0.30710329  0.30126787  0.61594757  1
  Mo  Mo162  1  0.39162032  -0.00012630  0.75296819  1
  Mo  Mo163  1  0.10031895  0.90664257  0.61860303  1
  Mo  Mo164  1  0.19832709  0.59478839  -0.00574315  1
  Mo  Mo165  1  0.60086727  0.79648988  0.24532197  1
  Mo  Mo166  1  0.20904836  0.00484002  -0.00797258  1
  Mo  Mo167  1  0.69634950  0.88700775  0.86642395  1
  Mo  Mo168  1  0.19998833  0.61528180  0.26094822  1
  Mo  Mo169  1  0.39923741  0.20936600  0.24718192  1
  Mo  Mo170  1  0.81199912  0.78434251  0.25439526  1
  Mo  Mo171  1  0.70305195  0.28480752  0.12195796  1
  Mo  Mo172  1  0.79623859  0.38102654  0.24192510  1
  Mo  Mo173  1  0.80043381  0.38925480  0.49488218  1
  Mo  Mo174  1  0.70177647  0.90012931  0.37159589  1
  Mo  Mo175  1  0.31316256  0.09928553  0.87214672  1
  Mo  Mo176  1  0.90346206  0.28509069  0.36061749  1
  Mo  Mo177  1  0.79471536  0.60840370  0.00249485  1
  Mo  Mo178  1  0.80679625  -0.00468250  0.73189201  1
  Mo  Mo179  1  0.59233127  0.60528862  0.23609911  1
  Mo  Mo180  1  0.40682879  0.79794432  -0.00251768  1
  Mo  Mo181  1  0.00200688  0.20797255  0.01006180  1
  Mo  Mo182  1  0.09913107  0.70988492  0.62108022  1
  Mo  Mo183  1  0.40807351  0.40578015  0.25735389  1
  Mo  Mo184  1  0.00102029  0.39542108  0.22994355  1
  Mo  Mo185  1  0.39047128  0.00188725  0.25096110  1
  Mo  Mo186  1  0.10122263  0.30902413  0.88724405  1
  Mo  Mo187  1  0.30286270  0.69984926  0.86559924  1
  Mo  Mo188  1  -0.00119923  0.59653968  0.76306687  1
  Mo  Mo189  1  0.31045734  0.50032547  0.12467208  1
  Mo  Mo190  1  0.68827112  0.70332879  0.62381397  1
  Mo  Mo191  1  0.70135307  0.50453231  0.36818056  1
  Mo  Mo192  1  -0.00648456  -0.00512156  -0.00466981  1
  Mo  Mo193  1  0.08983176  0.69458590  0.87324065  1
  Mo  Mo194  1  -0.00703524  0.60565321  0.49037407  1
  Mo  Mo195  1  0.59106357  0.39619937  0.00376665  1
  Mo  Mo196  1  0.59714106  -0.00322198  0.74706877  1
  Mo  Mo197  1  0.39341383  0.80597530  0.50427735  1
  Mo  Mo198  1  0.70946022  0.30947176  0.37039490  1
  Mo  Mo199  1  0.88649737  0.69786360  0.13705056  1
