# generated using pymatgen
data_HfZrTaTiMo
_symmetry_space_group_name_H-M   'P 1'
_cell_length_a   15.22960163
_cell_length_b   15.20964972
_cell_length_c   16.83053907
_cell_angle_alpha   90.00658634
_cell_angle_beta   89.97618857
_cell_angle_gamma   90.04988225
_symmetry_Int_Tables_number   1
_chemical_formula_structural   HfZrTaTiMo
_chemical_formula_sum   'Hf40 Zr40 Ta40 Ti40 Mo40'
_cell_volume   3898.57215914
_cell_formula_units_Z   40
loop_
 _symmetry_equiv_pos_site_id
 _symmetry_equiv_pos_as_xyz
  1  'x, y, z'
loop_
 _atom_site_type_symbol
 _atom_site_label
 _atom_site_symmetry_multiplicity
 _atom_site_fract_x
 _atom_site_fract_y
 _atom_site_fract_z
 _atom_site_occupancy
  Hf  Hf0  1  0.70461806  0.50942530  0.61567407  1
  Hf  Hf1  1  0.27493978  0.69948259  0.13049530  1
  Hf  Hf2  1  0.20704697  0.19612040  0.24541857  1
  Hf  Hf3  1  0.90303707  0.48026697  0.12862717  1
  Hf  Hf4  1  0.51342068  0.09213552  0.87903547  1
  Hf  Hf5  1  0.39305899  0.58385208  0.51589850  1
  Hf  Hf6  1  0.79761191  0.79287692  -0.00280549  1
  Hf  Hf7  1  0.32052895  0.09667780  0.60542307  1
  Hf  Hf8  1  0.78789675  0.21165120  0.51063846  1
  Hf  Hf9  1  0.79377848  0.59777015  0.25252205  1
  Hf  Hf10  1  0.60280983  0.00769316  0.49098206  1
  Hf  Hf11  1  0.40301706  0.20259492  0.00118400  1
  Hf  Hf12  1  0.71523246  0.12298828  0.88050029  1
  Hf  Hf13  1  0.09706542  0.10205634  0.38405606  1
  Hf  Hf14  1  0.89479380  0.68839988  0.38344724  1
  Hf  Hf15  1  0.91477226  0.10492737  0.12238045  1
  Hf  Hf16  1  0.80422636  0.80009719  0.73898830  1
  Hf  Hf17  1  0.38830090  0.17982490  0.76236713  1
  Hf  Hf18  1  0.48444245  0.71458141  0.86397202  1
  Hf  Hf19  1  0.39402038  0.39558059  0.22818400  1
  Hf  Hf20  1  0.70372192  0.11680405  0.36368104  1
  Hf  Hf21  1  0.48931151  0.11532805  0.35880667  1
  Hf  Hf22  1  0.10859552  0.88658475  0.85707514  1
  Hf  Hf23  1  0.60854526  0.60231166  -0.00297242  1
  Hf  Hf24  1  0.11665364  0.09656362  0.86591489  1
  Hf  Hf25  1  0.19779969  0.60310921  0.73334521  1
  Hf  Hf26  1  0.60325860  0.40386429  0.50581821  1
  Hf  Hf27  1  0.60660984  0.19871628  0.73925570  1
  Hf  Hf28  1  0.11183283  0.08420706  0.12021420  1
  Hf  Hf29  1  0.49972098  0.50639458  0.87217743  1
  Hf  Hf30  1  0.49992959  0.10635126  0.14258814  1
  Hf  Hf31  1  -0.01439277  0.59595009  0.52272812  1
  Hf  Hf32  1  0.19906283  0.41697423  0.52211757  1
  Hf  Hf33  1  0.91049389  0.89517896  0.38169521  1
  Hf  Hf34  1  0.01580183  -0.01132611  -0.00663182  1
  Hf  Hf35  1  0.69680690  0.69518511  0.86508370  1
  Hf  Hf36  1  0.88841035  0.08595180  0.61648787  1
  Hf  Hf37  1  0.70647126  0.10923700  0.13810837  1
  Hf  Hf38  1  0.49499228  0.71027496  0.12754698  1
  Hf  Hf39  1  0.80731187  0.00149559  -0.00243995  1
  Zr  Zr40  1  0.90678144  0.70147987  0.87303538  1
  Zr  Zr41  1  -0.00741913  0.59755173  0.73334036  1
  Zr  Zr42  1  0.58338000  0.80980273  -0.00144920  1
  Zr  Zr43  1  0.70796130  0.91912687  0.61813816  1
  Zr  Zr44  1  0.58412624  0.20449112  0.50602105  1
  Zr  Zr45  1  0.10138327  0.31360627  0.36767931  1
  Zr  Zr46  1  0.29839030  0.89816847  0.12178689  1
  Zr  Zr47  1  0.00026836  0.79780010  0.25145449  1
  Zr  Zr48  1  0.90740217  0.29579627  0.38238104  1
  Zr  Zr49  1  0.19488973  0.39891870  0.00908578  1
  Zr  Zr50  1  0.40485382  -0.01001175  -0.00211974  1
  Zr  Zr51  1  0.82502920  0.21401634  0.24524948  1
  Zr  Zr52  1  0.81021255  0.01083335  0.75955544  1
  Zr  Zr53  1  0.10111902  0.51428195  0.38219102  1
  Zr  Zr54  1  0.50402519  0.30479571  0.87069884  1
  Zr  Zr55  1  0.59528777  0.78482001  0.26910849  1
  Zr  Zr56  1  0.01173379  0.59867545  0.24813879  1
  Zr  Zr57  1  0.60344224  -0.00592969  0.25916911  1
  Zr  Zr58  1  0.81093391  0.79577302  0.51431410  1
  Zr  Zr59  1  0.28325594  0.68548334  0.38030366  1
  Zr  Zr60  1  0.19925231  -0.01640881  0.25969598  1
  Zr  Zr61  1  0.08955341  0.29882825  0.86946524  1
  Zr  Zr62  1  0.30020221  0.48650086  0.37238088  1
  Zr  Zr63  1  0.22634132  0.00092333  0.74726863  1
  Zr  Zr64  1  0.40853242  0.78758423  0.49183167  1
  Zr  Zr65  1  0.90195533  0.89097591  0.12532391  1
  Zr  Zr66  1  -0.00981962  0.18904746  0.74294608  1
  Zr  Zr67  1  0.60757451  0.00741001  0.01253003  1
  Zr  Zr68  1  0.51116990  0.31047126  0.35504841  1
  Zr  Zr69  1  0.07470828  0.29581457  0.13313888  1
  Zr  Zr70  1  0.69210048  0.90611653  0.86834666  1
  Zr  Zr71  1  0.20283695  0.21473931  0.50295077  1
  Zr  Zr72  1  0.39612543  0.39880753  0.01322926  1
  Zr  Zr73  1  0.39865844  0.60117648  0.24457404  1
  Zr  Zr74  1  0.39229309  0.60313719  0.00580937  1
  Zr  Zr75  1  0.39469640  0.41116863  0.74638892  1
  Zr  Zr76  1  0.40064128  0.38372542  0.50601948  1
  Zr  Zr77  1  0.88955850  0.50013982  0.87719240  1
  Zr  Zr78  1  0.48888122  0.29248804  0.63555033  1
  Zr  Zr79  1  0.11931681  0.89130924  0.62462098  1
  Ta  Ta80  1  0.38897601  0.80625365  0.26741458  1
  Ta  Ta81  1  0.61027286  0.21605308  0.01015741  1
  Ta  Ta82  1  0.41916028  -0.01514913  0.75048728  1
  Ta  Ta83  1  0.19698017  0.41070203  0.23185908  1
  Ta  Ta84  1  0.30991795  0.28837862  0.36459456  1
  Ta  Ta85  1  0.10574822  0.88279195  0.12256181  1
  Ta  Ta86  1  0.71222206  0.89793016  0.38236136  1
  Ta  Ta87  1  0.00005270  0.19782239  0.51712004  1
  Ta  Ta88  1  0.00227942  0.00484427  0.25434105  1
  Ta  Ta89  1  -0.01225591  0.39772304  0.73911176  1
  Ta  Ta90  1  0.28865859  0.50238477  0.87147504  1
  Ta  Ta91  1  0.10895189  0.09535734  0.62698767  1
  Ta  Ta92  1  0.90181219  0.09481298  0.38791036  1
  Ta  Ta93  1  0.49456428  0.89954342  0.14129996  1
  Ta  Ta94  1  0.70467935  0.50728780  0.12156380  1
  Ta  Ta95  1  0.60199434  0.79938283  0.49368040  1
  Ta  Ta96  1  0.79036247  0.40148935  -0.00151336  1
  Ta  Ta97  1  0.88298708  0.29319957  0.87397619  1
  Ta  Ta98  1  -0.00560029  0.39416598  0.52275102  1
  Ta  Ta99  1  0.29013314  0.70065344  0.86994038  1
  Ta  Ta100  1  0.31324402  0.89079454  0.87834088  1
  Ta  Ta101  1  0.30159763  0.09695817  0.38786862  1
  Ta  Ta102  1  0.89928959  0.48608303  0.37793705  1
  Ta  Ta103  1  0.49795670  0.90627209  0.61217961  1
  Ta  Ta104  1  0.18821574  0.60436468  -0.00619293  1
  Ta  Ta105  1  0.28593759  0.29346902  0.86839292  1
  Ta  Ta106  1  0.59252191  0.60310777  0.74093898  1
  Ta  Ta107  1  0.70147099  0.70049668  0.12696513  1
  Ta  Ta108  1  0.60177781  0.40227833  0.00653043  1
  Ta  Ta109  1  0.70675435  0.50341994  0.38733538  1
  Ta  Ta110  1  0.58559910  0.81098292  0.73867821  1
  Ta  Ta111  1  0.18984962  0.40281148  0.74543440  1
  Ta  Ta112  1  0.00097570  -0.00796010  0.51087965  1
  Ta  Ta113  1  0.79628327  0.39591406  0.74271143  1
  Ta  Ta114  1  0.51147231  0.51541692  0.36950079  1
  Ta  Ta115  1  0.81039007  -0.00582898  0.25601606  1
  Ta  Ta116  1  0.09583714  0.50310560  0.87197644  1
  Ta  Ta117  1  0.20490327  0.19210323  0.00241670  1
  Ta  Ta118  1  0.29480451  0.90158198  0.39307783  1
  Ta  Ta119  1  0.69847285  0.89367441  0.13455847  1
  Ti  Ti120  1  0.09170715  0.70971422  0.40351434  1
  Ti  Ti121  1  0.79498675  0.21023754  0.73135889  1
  Ti  Ti122  1  0.60465071  0.40715120  0.73768552  1
  Ti  Ti123  1  0.10343203  0.51346678  0.12311525  1
  Ti  Ti124  1  0.30510394  0.09667820  0.12253282  1
  Ti  Ti125  1  0.00524996  0.79481573  0.72988748  1
  Ti  Ti126  1  -0.00976615  0.39582941  -0.00760062  1
  Ti  Ti127  1  0.51141391  0.50592061  0.12907347  1
  Ti  Ti128  1  0.91267955  0.10063667  0.87749885  1
  Ti  Ti129  1  0.71109878  0.31882037  0.36546299  1
  Ti  Ti130  1  0.69634829  0.31208198  0.87386670  1
  Ti  Ti131  1  0.58902908  0.60924740  0.50535641  1
  Ti  Ti132  1  0.29111173  0.29329313  0.63960512  1
  Ti  Ti133  1  0.89732301  0.68836508  0.11822514  1
  Ti  Ti134  1  0.49822641  0.70439987  0.62817729  1
  Ti  Ti135  1  0.79618263  0.79773202  0.25392687  1
  Ti  Ti136  1  0.49501742  0.90263645  0.37847521  1
  Ti  Ti137  1  0.00057482  0.20091507  -0.00732783  1
  Ti  Ti138  1  0.00888945  0.78675438  -0.00009175  1
  Ti  Ti139  1  0.71044053  0.31547845  0.13402174  1
  Ti  Ti140  1  0.09749914  0.29435360  0.63908026  1
  Ti  Ti141  1  0.61702886  0.42077754  0.24702839  1
  Ti  Ti142  1  0.39369895  0.60586205  0.73592521  1
  Ti  Ti143  1  0.38429599  0.80394287  0.73507548  1
  Ti  Ti144  1  0.80510801  0.21340009  0.00923826  1
  Ti  Ti145  1  0.91318575  0.89850141  0.86665014  1
  Ti  Ti146  1  0.79451082  0.59667221  0.74203224  1
  Ti  Ti147  1  0.10365588  0.89778401  0.39488791  1
  Ti  Ti148  1  0.38948358  -0.00033452  0.25651178  1
  Ti  Ti149  1  0.51565592  0.29947716  0.13627213  1
  Ti  Ti150  1  -0.00234073  0.59514333  0.00155634  1
  Ti  Ti151  1  0.30939939  0.90342025  0.59975236  1
  Ti  Ti152  1  0.28530739  0.71169969  0.61610132  1
  Ti  Ti153  1  0.69112685  0.69000845  0.38510809  1
  Ti  Ti154  1  0.19969667  0.80180290  -0.00635209  1
  Ti  Ti155  1  0.18828376  0.78568357  0.26238307  1
  Ti  Ti156  1  0.69260846  0.70390504  0.62322287  1
  Ti  Ti157  1  0.60376746  0.00576119  0.73940853  1
  Ti  Ti158  1  0.10153777  0.69526172  0.86825454  1
  Ti  Ti159  1  0.69627559  0.49861719  0.86940138  1
  Mo  Mo160  1  0.39027826  0.79479340  -0.00176540  1
  Mo  Mo161  1  0.50176836  0.89707350  0.86292099  1
  Mo  Mo162  1  0.20135678  0.20191635  0.74288538  1
  Mo  Mo163  1  0.89875223  0.29810830  0.62424459  1
  Mo  Mo164  1  0.80191076  0.00487569  0.48622898  1
  Mo  Mo165  1  0.50368976  0.08631554  0.62668396  1
  Mo  Mo166  1  0.39976483  0.20274389  0.49414826  1
  Mo  Mo167  1  0.21142552  0.79314402  0.75056491  1
  Mo  Mo168  1  0.80252502  0.40733415  0.25402369  1
  Mo  Mo169  1  0.00303539  0.79843918  0.51434149  1
  Mo  Mo170  1  0.89634875  0.29957009  0.11329025  1
  Mo  Mo171  1  0.20597050  -0.00470436  -0.01006156  1
  Mo  Mo172  1  0.69992625  0.30880048  0.62852029  1
  Mo  Mo173  1  0.20029776  0.79960588  0.49489195  1
  Mo  Mo174  1  0.88592817  0.69728718  0.63005286  1
  Mo  Mo175  1  0.29135854  0.50144285  0.12024112  1
  Mo  Mo176  1  0.78821481  0.59951793  0.49804445  1
  Mo  Mo177  1  -0.00380691  0.39457541  0.25334042  1
  Mo  Mo178  1  0.80121727  0.59813307  0.00834092  1
  Mo  Mo179  1  0.19871677  0.00378568  0.49839121  1
  Mo  Mo180  1  0.60518090  0.59695671  0.24957195  1
  Mo  Mo181  1  0.60925120  0.22050765  0.24469655  1
  Mo  Mo182  1  0.49748283  0.69466635  0.37935186  1
  Mo  Mo183  1  0.08958621  0.70185482  0.11310284  1
  Mo  Mo184  1  0.19465588  0.60547315  0.52321639  1
  Mo  Mo185  1  0.91386111  0.90080429  0.62917835  1
  Mo  Mo186  1  0.80590970  0.40563612  0.50169489  1
  Mo  Mo187  1  0.19642632  0.59808044  0.24601057  1
  Mo  Mo188  1  0.39444406  0.20041022  0.23764036  1
  Mo  Mo189  1  0.29312739  0.28873978  0.12417626  1
  Mo  Mo190  1  0.09831295  0.70183775  0.61406166  1
  Mo  Mo191  1  0.30306043  0.09743633  0.88268243  1
  Mo  Mo192  1  0.09535601  0.49147044  0.63121432  1
  Mo  Mo193  1  0.40993415  0.00085852  0.48701302  1
  Mo  Mo194  1  0.69312054  0.10326688  0.62285254  1
  Mo  Mo195  1  0.50460412  0.51076443  0.63114744  1
  Mo  Mo196  1  0.30079366  0.49822736  0.63616096  1
  Mo  Mo197  1  0.88849087  0.49265507  0.62773829  1
  Mo  Mo198  1  0.00591663  0.18658758  0.25533904  1
  Mo  Mo199  1  0.00187756  -0.01117431  0.74190964  1
