# generated using pymatgen
data_HfZrTaTiMo
_symmetry_space_group_name_H-M   'P 1'
_cell_length_a   15.22058610
_cell_length_b   15.20421623
_cell_length_c   16.83177947
_cell_angle_alpha   90.10415107
_cell_angle_beta   89.96719996
_cell_angle_gamma   89.95290320
_symmetry_Int_Tables_number   1
_chemical_formula_structural   HfZrTaTiMo
_chemical_formula_sum   'Hf40 Zr40 Ta40 Ti40 Mo40'
_cell_volume   3895.15290281
_cell_formula_units_Z   40
loop_
 _symmetry_equiv_pos_site_id
 _symmetry_equiv_pos_as_xyz
  1  'x, y, z'
loop_
 _atom_site_type_symbol
 _atom_site_label
 _atom_site_symmetry_multiplicity
 _atom_site_fract_x
 _atom_site_fract_y
 _atom_site_fract_z
 _atom_site_occupancy
  Hf  Hf0  1  0.38729469  0.80846498  -0.00761479  1
  Hf  Hf1  1  0.61077550  0.58876434  0.49892024  1
  Hf  Hf2  1  0.90076314  0.50101322  0.13625259  1
  Hf  Hf3  1  0.09950214  0.69286576  0.62058236  1
  Hf  Hf4  1  0.49975054  0.30233157  0.88121448  1
  Hf  Hf5  1  0.00169067  0.19684491  0.25552924  1
  Hf  Hf6  1  0.80063071  0.80072965  0.25940854  1
  Hf  Hf7  1  0.29584056  0.10223811  0.12422426  1
  Hf  Hf8  1  0.18924595  0.79162565  -0.01664894  1
  Hf  Hf9  1  0.59339115  0.80613956  0.50890418  1
  Hf  Hf10  1  0.28257410  0.69830628  0.11865169  1
  Hf  Hf11  1  0.21444479  -0.00792170  -0.02038779  1
  Hf  Hf12  1  0.50407842  0.90751541  0.11093135  1
  Hf  Hf13  1  0.50130486  0.89448210  0.37493774  1
  Hf  Hf14  1  0.79414193  0.59836091  0.27105538  1
  Hf  Hf15  1  0.00743426  -0.01416124  -0.00138180  1
  Hf  Hf16  1  0.40211696  0.59242148  0.50266987  1
  Hf  Hf17  1  0.31675171  0.09784990  0.86158116  1
  Hf  Hf18  1  0.60018221  0.78982118  -0.00308419  1
  Hf  Hf19  1  0.80645427  0.21091482  0.00013249  1
  Hf  Hf20  1  0.18879360  0.40512215  -0.00927713  1
  Hf  Hf21  1  0.70025360  0.91675380  0.87191160  1
  Hf  Hf22  1  0.58778045  0.20666647  0.74904343  1
  Hf  Hf23  1  0.28467734  0.90811375  0.12739570  1
  Hf  Hf24  1  0.50242215  0.49232712  0.36434114  1
  Hf  Hf25  1  0.69653032  0.11059546  0.61067595  1
  Hf  Hf26  1  0.60537069  0.59791327  0.73991670  1
  Hf  Hf27  1  0.81246190  0.59627747  -0.00898753  1
  Hf  Hf28  1  0.78817811  0.18941193  0.75660554  1
  Hf  Hf29  1  0.79114506  0.39470142  0.47841234  1
  Hf  Hf30  1  0.29037441  0.49210744  0.11801081  1
  Hf  Hf31  1  0.40463161  -0.01236632  0.51120225  1
  Hf  Hf32  1  0.00860408  -0.01553397  0.24970854  1
  Hf  Hf33  1  0.80218260  0.39629975  0.74455681  1
  Hf  Hf34  1  0.28586292  0.10195836  0.37246725  1
  Hf  Hf35  1  0.61108467  -0.00334493  0.25978131  1
  Hf  Hf36  1  0.18190488  0.58659804  0.25512484  1
  Hf  Hf37  1  0.90934977  0.89944266  0.86143376  1
  Hf  Hf38  1  0.10900311  0.89037843  0.38899150  1
  Hf  Hf39  1  -0.02503564  0.20675957  0.50361777  1
  Zr  Zr40  1  0.18639096  0.79519797  0.24992676  1
  Zr  Zr41  1  0.39054562  0.20623440  0.24907793  1
  Zr  Zr42  1  0.41123716  0.60825065  0.00976420  1
  Zr  Zr43  1  0.40111506  -0.00038727  0.25240138  1
  Zr  Zr44  1  0.70937820  0.69994075  0.62064361  1
  Zr  Zr45  1  0.10543948  0.09166519  0.12365542  1
  Zr  Zr46  1  0.30078962  0.49900069  0.63050343  1
  Zr  Zr47  1  0.40724954  0.79241283  0.23398742  1
  Zr  Zr48  1  0.50452045  0.30528109  0.36035315  1
  Zr  Zr49  1  0.10013174  0.50146850  0.61968605  1
  Zr  Zr50  1  0.80767353  0.79656013  -0.00939115  1
  Zr  Zr51  1  0.29846931  0.51455268  0.88212839  1
  Zr  Zr52  1  0.50754891  0.10483961  0.12080009  1
  Zr  Zr53  1  0.30036469  0.29982949  0.63190275  1
  Zr  Zr54  1  0.29933591  0.89771668  0.37801518  1
  Zr  Zr55  1  -0.01513587  0.21416446  0.73309967  1
  Zr  Zr56  1  0.50877365  0.50386436  0.87583679  1
  Zr  Zr57  1  0.49230254  0.91708191  0.88573195  1
  Zr  Zr58  1  0.70189897  0.91357498  0.62581859  1
  Zr  Zr59  1  0.10351893  0.29813494  0.37909345  1
  Zr  Zr60  1  0.08351240  0.29588745  0.87674010  1
  Zr  Zr61  1  0.09670076  0.09073086  0.38806674  1
  Zr  Zr62  1  0.58947251  0.81118647  0.74771534  1
  Zr  Zr63  1  0.50287218  0.69791738  0.37743315  1
  Zr  Zr64  1  0.40004444  0.59242082  0.23681594  1
  Zr  Zr65  1  0.29008218  0.70161236  0.61753146  1
  Zr  Zr66  1  0.70349176  0.48943790  0.87805789  1
  Zr  Zr67  1  -0.01542237  0.39953888  0.00203273  1
  Zr  Zr68  1  0.90574347  0.89523039  0.38591341  1
  Zr  Zr69  1  0.40125572  0.19741509  0.49677505  1
  Zr  Zr70  1  0.09422861  0.69067810  0.86626641  1
  Zr  Zr71  1  -0.00283817  0.79720360  0.51187869  1
  Zr  Zr72  1  0.50313183  0.31684267  0.13930665  1
  Zr  Zr73  1  0.70922654  0.90274929  0.12213289  1
  Zr  Zr74  1  0.71226336  0.10935116  0.13409378  1
  Zr  Zr75  1  -0.00928088  0.00822749  0.73493113  1
  Zr  Zr76  1  0.80847038  0.01028126  -0.00136001  1
  Zr  Zr77  1  0.19477064  0.20250523  0.75524717  1
  Zr  Zr78  1  0.29094059  0.69844656  0.38909750  1
  Zr  Zr79  1  0.30100876  0.09589878  0.63625467  1
  Ta  Ta80  1  0.69849176  0.69595893  0.86774510  1
  Ta  Ta81  1  0.10767224  0.89935556  0.84795176  1
  Ta  Ta82  1  0.10015805  0.10491481  0.61888414  1
  Ta  Ta83  1  0.09371510  0.09284606  0.87215176  1
  Ta  Ta84  1  0.89763711  0.29773882  0.14274867  1
  Ta  Ta85  1  0.90119734  0.70144752  0.12795137  1
  Ta  Ta86  1  0.20224246  0.38926458  0.24803519  1
  Ta  Ta87  1  0.09987710  0.30207065  0.12558146  1
  Ta  Ta88  1  0.30119968  0.30716290  0.37427757  1
  Ta  Ta89  1  -0.00136192  0.00180978  0.51987035  1
  Ta  Ta90  1  0.80439877  0.20392155  0.27826475  1
  Ta  Ta91  1  0.81113819  0.59620883  0.75491761  1
  Ta  Ta92  1  0.71113070  0.30893753  0.14685545  1
  Ta  Ta93  1  0.80330270  0.01113234  0.48673448  1
  Ta  Ta94  1  0.80339499  0.79430507  0.75414227  1
  Ta  Ta95  1  0.40330751  0.39841149  0.00444383  1
  Ta  Ta96  1  0.11272712  0.89773385  0.63863208  1
  Ta  Ta97  1  0.40847999  0.39730818  0.50017066  1
  Ta  Ta98  1  0.29144781  0.29637627  0.11757884  1
  Ta  Ta99  1  -0.00312533  0.78058127  0.25680436  1
  Ta  Ta100  1  0.88904590  0.89433233  0.62422387  1
  Ta  Ta101  1  0.48812994  0.71062021  0.62621199  1
  Ta  Ta102  1  0.89452903  0.68816979  0.61760616  1
  Ta  Ta103  1  0.70716244  0.69232427  0.12551853  1
  Ta  Ta104  1  0.80855700  0.00966727  0.27060694  1
  Ta  Ta105  1  0.60983137  0.21700356  0.48509331  1
  Ta  Ta106  1  0.30867801  0.88903133  0.64526533  1
  Ta  Ta107  1  0.42055143  0.00047257  0.74207553  1
  Ta  Ta108  1  0.20742821  0.40213884  0.49545389  1
  Ta  Ta109  1  0.40217645  0.60688629  0.74900432  1
  Ta  Ta110  1  -0.00657439  0.40963878  0.74616228  1
  Ta  Ta111  1  0.60854789  0.78985522  0.24620896  1
  Ta  Ta112  1  0.60845170  0.20860381  0.00555145  1
  Ta  Ta113  1  0.08861494  0.68439915  0.39390735  1
  Ta  Ta114  1  0.70440936  0.30273078  0.61564427  1
  Ta  Ta115  1  0.19274445  0.40555127  0.76319077  1
  Ta  Ta116  1  0.89367497  0.49893058  0.61025150  1
  Ta  Ta117  1  0.40521127  0.39609646  0.75284875  1
  Ta  Ta118  1  0.39753964  0.20186471  0.00194309  1
  Ta  Ta119  1  0.19865625  0.19846114  -0.01213093  1
  Ti  Ti120  1  0.88181641  0.10290845  0.62086805  1
  Ti  Ti121  1  0.08595451  0.67948872  0.11873726  1
  Ti  Ti122  1  0.90328895  0.89434001  0.13050481  1
  Ti  Ti123  1  0.89959511  0.10451035  0.87282571  1
  Ti  Ti124  1  0.09610963  0.30819210  0.62165454  1
  Ti  Ti125  1  -0.00162247  0.19270601  0.00624836  1
  Ti  Ti126  1  0.49563442  0.70040120  0.86806444  1
  Ti  Ti127  1  0.60283412  0.39893329  0.74294057  1
  Ti  Ti128  1  0.50328963  0.49415098  0.62694999  1
  Ti  Ti129  1  -0.00469332  0.59970962  0.25896964  1
  Ti  Ti130  1  0.70682915  0.49438988  0.61844176  1
  Ti  Ti131  1  0.60682107  0.59675009  0.01089096  1
  Ti  Ti132  1  0.70068086  0.89495929  0.38532085  1
  Ti  Ti133  1  0.50084951  0.09999628  0.37574289  1
  Ti  Ti134  1  0.59918501  0.01054245  0.49267175  1
  Ti  Ti135  1  0.90248084  0.09830576  0.13262207  1
  Ti  Ti136  1  0.20046357  0.60119307  0.75488599  1
  Ti  Ti137  1  0.30566707  0.30107075  0.87316099  1
  Ti  Ti138  1  0.91178096  0.50488694  0.38369932  1
  Ti  Ti139  1  0.20125971  -0.00813984  0.51701173  1
  Ti  Ti140  1  -0.00566079  0.78712903  -0.00597119  1
  Ti  Ti141  1  0.79460512  0.39862145  0.00596689  1
  Ti  Ti142  1  0.50467534  0.30313076  0.62079145  1
  Ti  Ti143  1  0.50503421  0.10594318  0.62025012  1
  Ti  Ti144  1  0.51236632  0.10481228  0.88705487  1
  Ti  Ti145  1  0.60344279  0.40239704  0.01409684  1
  Ti  Ti146  1  0.61154429  0.01804964  0.75083410  1
  Ti  Ti147  1  0.19609597  0.20306216  0.50770205  1
  Ti  Ti148  1  -0.00469055  0.78871953  0.73850212  1
  Ti  Ti149  1  0.00709847  0.40809622  0.25686264  1
  Ti  Ti150  1  0.29692346  0.49296958  0.37273121  1
  Ti  Ti151  1  -0.00016389  0.40001148  0.49679249  1
  Ti  Ti152  1  0.09168101  0.87709221  0.12223919  1
  Ti  Ti153  1  0.00766472  0.59009218  -0.00787909  1
  Ti  Ti154  1  -0.00748860  0.59306463  0.75213521  1
  Ti  Ti155  1  0.70237375  0.49692312  0.13167490  1
  Ti  Ti156  1  0.89112255  0.30736514  0.87421216  1
  Ti  Ti157  1  0.60196202  0.60310747  0.24399781  1
  Ti  Ti158  1  0.61109390  0.19926410  0.26122600  1
  Ti  Ti159  1  0.69484415  0.29718615  0.87881097  1
  Mo  Mo160  1  0.59362873  0.39910130  0.50600370  1
  Mo  Mo161  1  0.09168434  0.49494758  0.12833252  1
  Mo  Mo162  1  0.89750642  0.69764509  0.86472047  1
  Mo  Mo163  1  0.61533040  0.41668036  0.24503769  1
  Mo  Mo164  1  0.51569010  0.70297633  0.12315935  1
  Mo  Mo165  1  0.81351348  0.40169289  0.26593812  1
  Mo  Mo166  1  0.20137031  0.00051826  0.74889245  1
  Mo  Mo167  1  0.79487462  0.80148364  0.49635666  1
  Mo  Mo168  1  0.69428356  0.09948094  0.38206646  1
  Mo  Mo169  1  0.90370472  0.09886053  0.37948666  1
  Mo  Mo170  1  0.88730248  0.30906529  0.61866094  1
  Mo  Mo171  1  0.29947495  0.89756718  0.84661625  1
  Mo  Mo172  1  0.30452841  0.70098742  0.86945672  1
  Mo  Mo173  1  0.38804492  0.40573434  0.24568835  1
  Mo  Mo174  1  0.18610802  0.60041208  0.00141563  1
  Mo  Mo175  1  0.90681377  0.30913522  0.36518773  1
  Mo  Mo176  1  -0.00679777  0.58991763  0.49915714  1
  Mo  Mo177  1  0.60560570  0.01606673  -0.00297117  1
  Mo  Mo178  1  0.69369947  0.10921440  0.88381996  1
  Mo  Mo179  1  0.50046670  0.91244484  0.62773914  1
  Mo  Mo180  1  0.51047256  0.50291700  0.12517136  1
  Mo  Mo181  1  0.90674886  0.49752730  0.87006051  1
  Mo  Mo182  1  0.80431375  0.60344522  0.48208200  1
  Mo  Mo183  1  0.40057196  0.80189412  0.50892782  1
  Mo  Mo184  1  0.20011467  0.79245468  0.75533688  1
  Mo  Mo185  1  0.19199778  0.00029817  0.25011091  1
  Mo  Mo186  1  0.79967685  0.00241804  0.74944201  1
  Mo  Mo187  1  0.79536921  0.20140803  0.47940847  1
  Mo  Mo188  1  0.19743846  0.59026945  0.48845371  1
  Mo  Mo189  1  0.69952295  0.70807934  0.38396659  1
  Mo  Mo190  1  0.20148919  0.80632025  0.50941650  1
  Mo  Mo191  1  0.10414194  0.49438962  0.38281013  1
  Mo  Mo192  1  0.09456442  0.49747149  0.86440243  1
  Mo  Mo193  1  0.41269415  0.20519799  0.74969344  1
  Mo  Mo194  1  0.89857631  0.69608660  0.38532571  1
  Mo  Mo195  1  0.69651241  0.30973038  0.35860950  1
  Mo  Mo196  1  0.69256266  0.50169882  0.37040600  1
  Mo  Mo197  1  0.19541798  0.20540738  0.24599302  1
  Mo  Mo198  1  0.39962693  0.79567935  0.75803410  1
  Mo  Mo199  1  0.39904009  0.01104316  -0.00381367  1
