# generated using pymatgen
data_HfZrTaTiMo
_symmetry_space_group_name_H-M   'P 1'
_cell_length_a   15.20993670
_cell_length_b   15.19270522
_cell_length_c   16.79648437
_cell_angle_alpha   89.96583834
_cell_angle_beta   89.99768175
_cell_angle_gamma   89.92290975
_symmetry_Int_Tables_number   1
_chemical_formula_structural   HfZrTaTiMo
_chemical_formula_sum   'Hf40 Zr40 Ta40 Ti40 Mo40'
_cell_volume   3881.32882447
_cell_formula_units_Z   40
loop_
 _symmetry_equiv_pos_site_id
 _symmetry_equiv_pos_as_xyz
  1  'x, y, z'
loop_
 _atom_site_type_symbol
 _atom_site_label
 _atom_site_symmetry_multiplicity
 _atom_site_fract_x
 _atom_site_fract_y
 _atom_site_fract_z
 _atom_site_occupancy
  Hf  Hf0  1  0.82149490  0.80734171  0.73024356  1
  Hf  Hf1  1  0.59815807  -0.01276106  0.24011149  1
  Hf  Hf2  1  0.58288517  0.81645007  0.76258028  1
  Hf  Hf3  1  0.89590618  0.90604954  0.11909877  1
  Hf  Hf4  1  0.10630000  0.49360558  0.36760866  1
  Hf  Hf5  1  0.88990692  0.30246332  0.88058974  1
  Hf  Hf6  1  0.32276964  0.70507840  0.11372244  1
  Hf  Hf7  1  0.00485200  0.61980546  -0.00254190  1
  Hf  Hf8  1  0.09175191  0.89489347  0.87696813  1
  Hf  Hf9  1  0.30183525  0.28722120  0.63132159  1
  Hf  Hf10  1  0.30635634  0.70710824  0.64406385  1
  Hf  Hf11  1  0.58469839  0.20220751  0.01899935  1
  Hf  Hf12  1  0.42244493  0.37320745  0.74549796  1
  Hf  Hf13  1  0.70796924  0.29703116  0.37876571  1
  Hf  Hf14  1  0.69608980  0.29306093  0.59908124  1
  Hf  Hf15  1  -0.02922799  0.40141694  0.74105280  1
  Hf  Hf16  1  0.39383014  0.19578976  0.24307163  1
  Hf  Hf17  1  0.10867242  0.50342112  0.85804114  1
  Hf  Hf18  1  0.69804422  0.69978058  0.62687705  1
  Hf  Hf19  1  0.00346122  0.40121546  0.00296186  1
  Hf  Hf20  1  0.39703194  -0.01715167  0.23544448  1
  Hf  Hf21  1  0.51227955  0.48125925  0.87431936  1
  Hf  Hf22  1  0.20514838  0.59686373  0.23837974  1
  Hf  Hf23  1  0.69120743  0.09883584  0.62096391  1
  Hf  Hf24  1  -0.00190589  0.62643438  0.75037947  1
  Hf  Hf25  1  0.32555810  0.89461975  0.38089552  1
  Hf  Hf26  1  0.19825302  0.19138266  0.50126735  1
  Hf  Hf27  1  0.09822011  0.89816808  0.62182602  1
  Hf  Hf28  1  0.08737631  0.09296044  0.85860629  1
  Hf  Hf29  1  0.29758294  0.49862024  0.65157232  1
  Hf  Hf30  1  0.60659988  0.40028192  0.01741313  1
  Hf  Hf31  1  0.41132489  -0.01160248  0.76257371  1
  Hf  Hf32  1  0.50025003  0.71120112  0.63582577  1
  Hf  Hf33  1  0.58460790  0.39199359  0.48780297  1
  Hf  Hf34  1  0.60333419  0.78421268  0.24568715  1
  Hf  Hf35  1  0.10090667  0.30057881  0.37415426  1
  Hf  Hf36  1  0.68664225  0.30473769  0.88082847  1
  Hf  Hf37  1  0.09835910  0.69526661  0.37146879  1
  Hf  Hf38  1  0.79075316  0.21983345  0.74348656  1
  Hf  Hf39  1  0.09683098  0.29573286  0.63205448  1
  Zr  Zr40  1  0.10067977  0.29627929  0.85632155  1
  Zr  Zr41  1  0.68627157  0.90343040  0.39029061  1
  Zr  Zr42  1  0.09439251  0.28879952  0.13196559  1
  Zr  Zr43  1  0.58828227  0.00070997  0.00794572  1
  Zr  Zr44  1  0.29709479  0.30269439  0.37457212  1
  Zr  Zr45  1  0.09698774  0.09430360  0.62874671  1
  Zr  Zr46  1  0.89751266  0.50998414  0.88211308  1
  Zr  Zr47  1  0.70251112  0.51998350  0.14146071  1
  Zr  Zr48  1  0.10825854  0.90351140  0.37645159  1
  Zr  Zr49  1  0.40673723  0.19838715  0.48917402  1
  Zr  Zr50  1  0.31061224  0.49931800  0.12222613  1
  Zr  Zr51  1  0.38776730  0.40762877  0.50684486  1
  Zr  Zr52  1  0.09946180  0.90284305  0.12911045  1
  Zr  Zr53  1  0.30710155  0.68836526  0.37180504  1
  Zr  Zr54  1  0.61472632  0.79335596  -0.01397478  1
  Zr  Zr55  1  0.18530592  0.18639198  -0.00513180  1
  Zr  Zr56  1  0.59062367  0.19799046  0.25594168  1
  Zr  Zr57  1  0.10522994  0.49266183  0.64238171  1
  Zr  Zr58  1  0.21887134  0.80652533  0.24396325  1
  Zr  Zr59  1  -0.02504197  -0.00391463  0.27131975  1
  Zr  Zr60  1  0.20995597  0.38702114  -0.00026212  1
  Zr  Zr61  1  0.80503533  0.58682279  0.73771933  1
  Zr  Zr62  1  0.50414834  0.51139529  0.12926513  1
  Zr  Zr63  1  0.10571406  0.69427557  0.62357449  1
  Zr  Zr64  1  0.80237055  0.01365036  0.74483657  1
  Zr  Zr65  1  0.39653198  0.60616810  0.50951261  1
  Zr  Zr66  1  0.70682201  0.09821062  0.13545055  1
  Zr  Zr67  1  0.70434309  0.90976877  0.86467530  1
  Zr  Zr68  1  0.19010946  0.78844015  -0.00655238  1
  Zr  Zr69  1  0.19632240  0.79711970  0.76300145  1
  Zr  Zr70  1  0.49446669  0.51329300  0.36527249  1
  Zr  Zr71  1  0.89981735  0.10969583  0.12719230  1
  Zr  Zr72  1  0.90628368  0.51202389  0.12955347  1
  Zr  Zr73  1  0.79483638  0.01081912  -0.00756860  1
  Zr  Zr74  1  0.21028545  0.79057124  0.50130028  1
  Zr  Zr75  1  0.59852829  0.59972246  0.50392768  1
  Zr  Zr76  1  0.20523178  0.59048043  -0.00254190  1
  Zr  Zr77  1  0.28054954  0.09560178  0.12676043  1
  Zr  Zr78  1  0.62173526  0.40171064  0.73769261  1
  Zr  Zr79  1  0.79960189  0.62747713  0.25678947  1
  Ta  Ta80  1  0.31921063  0.28217088  0.87016996  1
  Ta  Ta81  1  0.90537655  0.90770508  0.88089079  1
  Ta  Ta82  1  0.71993607  0.48765409  0.60418067  1
  Ta  Ta83  1  0.81270627  0.60636774  0.50168771  1
  Ta  Ta84  1  0.41046627  0.38195202  0.00426563  1
  Ta  Ta85  1  0.28771781  0.08890389  0.36394649  1
  Ta  Ta86  1  0.09056322  0.09350051  0.14538592  1
  Ta  Ta87  1  0.00965218  0.01078518  0.00001701  1
  Ta  Ta88  1  0.41118871  0.79394047  -0.02629422  1
  Ta  Ta89  1  0.89068035  0.30297403  0.13191129  1
  Ta  Ta90  1  0.60151493  0.40124915  0.25806724  1
  Ta  Ta91  1  0.41271713  0.60084001  0.76556333  1
  Ta  Ta92  1  0.70785638  0.50621112  0.37599620  1
  Ta  Ta93  1  0.80151042  0.80887667  0.51521512  1
  Ta  Ta94  1  0.79814057  0.40715736  0.01340944  1
  Ta  Ta95  1  0.08944468  0.70103133  0.13428072  1
  Ta  Ta96  1  0.29550175  0.09254902  0.87860763  1
  Ta  Ta97  1  0.57780315  0.20330569  0.74793155  1
  Ta  Ta98  1  -0.00720801  0.19903047  0.49489444  1
  Ta  Ta99  1  0.20736148  0.38723550  0.23590022  1
  Ta  Ta100  1  0.69790915  0.70541217  0.39237029  1
  Ta  Ta101  1  0.68228299  0.90673608  0.62086658  1
  Ta  Ta102  1  0.50050579  0.72604787  0.38454839  1
  Ta  Ta103  1  0.00328861  0.60073480  0.50068940  1
  Ta  Ta104  1  0.00557068  0.40641171  0.50417855  1
  Ta  Ta105  1  -0.02010592  0.19214123  0.74042182  1
  Ta  Ta106  1  0.49257038  0.07533063  0.37452823  1
  Ta  Ta107  1  0.60919131  0.60069767  -0.01427966  1
  Ta  Ta108  1  0.80734623  0.39999740  0.25974902  1
  Ta  Ta109  1  -0.01014899  0.20503393  0.26475266  1
  Ta  Ta110  1  0.90602144  0.50568607  0.37586379  1
  Ta  Ta111  1  0.60178516  0.18114595  0.47710232  1
  Ta  Ta112  1  0.20194331  0.57328816  0.50039403  1
  Ta  Ta113  1  0.79475438  0.61942165  0.00117194  1
  Ta  Ta114  1  0.30148841  0.89891145  0.10053590  1
  Ta  Ta115  1  0.40671125  0.39236496  0.24426547  1
  Ta  Ta116  1  0.48325426  0.90886346  0.61606723  1
  Ta  Ta117  1  -0.00727282  0.80104448  0.49921441  1
  Ta  Ta118  1  0.49864988  0.10320741  0.62088824  1
  Ta  Ta119  1  0.30812145  0.08006627  0.62774913  1
  Ti  Ti120  1  0.29829301  0.49502076  0.36357622  1
  Ti  Ti121  1  0.88703132  0.31278488  0.60496377  1
  Ti  Ti122  1  0.39482261  0.19915578  0.01786809  1
  Ti  Ti123  1  0.90730816  0.72348465  0.87918201  1
  Ti  Ti124  1  0.78959386  0.21204982  0.00514698  1
  Ti  Ti125  1  0.68591619  0.10983605  0.86911970  1
  Ti  Ti126  1  0.41651887  0.62053979  0.24690917  1
  Ti  Ti127  1  0.29935409  0.90333333  0.88886447  1
  Ti  Ti128  1  0.51872573  0.69561706  0.11363214  1
  Ti  Ti129  1  0.89273039  0.71726994  0.12328678  1
  Ti  Ti130  1  0.39753289  0.00553001  0.00005093  1
  Ti  Ti131  1  0.80463181  0.18925901  0.26578908  1
  Ti  Ti132  1  0.09807528  0.10101249  0.36855852  1
  Ti  Ti133  1  -0.01254731  -0.01104370  0.73943894  1
  Ti  Ti134  1  0.80249260  0.82510822  0.26284421  1
  Ti  Ti135  1  0.90295253  0.30670024  0.38425138  1
  Ti  Ti136  1  0.60673008  0.59835514  0.75541449  1
  Ti  Ti137  1  0.20983367  -0.00481344  0.50366082  1
  Ti  Ti138  1  0.09944474  0.50000196  0.12870026  1
  Ti  Ti139  1  0.71307722  0.49840155  0.87689251  1
  Ti  Ti140  1  0.70498185  0.30346676  0.14227693  1
  Ti  Ti141  1  -0.01045822  0.79724867  0.25843962  1
  Ti  Ti142  1  0.49155584  0.88175506  0.11173492  1
  Ti  Ti143  1  0.89461540  0.10823098  0.61091440  1
  Ti  Ti144  1  0.89249539  0.10556458  0.87504498  1
  Ti  Ti145  1  0.89565386  0.71098825  0.38281742  1
  Ti  Ti146  1  0.79406133  0.01328070  0.49319511  1
  Ti  Ti147  1  0.71441228  0.69890407  0.86148518  1
  Ti  Ti148  1  0.41302506  0.59354045  -0.01989261  1
  Ti  Ti149  1  -0.00277555  0.60481569  0.25041043  1
  Ti  Ti150  1  -0.01154060  0.20048929  -0.00006835  1
  Ti  Ti151  1  0.20815797  0.18893502  0.75084449  1
  Ti  Ti152  1  0.70650471  0.88441865  0.12129967  1
  Ti  Ti153  1  -0.00158266  0.40151194  0.24835341  1
  Ti  Ti154  1  0.20616395  -0.00709241  0.74850692  1
  Ti  Ti155  1  -0.00789855  0.00162501  0.49103197  1
  Ti  Ti156  1  0.29862182  0.68723132  0.86928293  1
  Ti  Ti157  1  0.50786652  0.50065150  0.63211582  1
  Ti  Ti158  1  0.30754070  0.48146627  0.86350394  1
  Ti  Ti159  1  0.49015347  0.11330085  0.87755008  1
  Mo  Mo160  1  0.49922457  0.30290752  0.13403334  1
  Mo  Mo161  1  0.49050839  0.08835420  0.12259219  1
  Mo  Mo162  1  0.80688712  0.40676078  0.48052624  1
  Mo  Mo163  1  0.30096892  0.90034671  0.62907046  1
  Mo  Mo164  1  0.49975906  0.29670921  0.36415856  1
  Mo  Mo165  1  0.49983763  0.28812797  0.88416685  1
  Mo  Mo166  1  0.21235600  0.38361415  0.76350747  1
  Mo  Mo167  1  0.39725620  0.18139478  0.74971394  1
  Mo  Mo168  1  0.49433162  0.91038906  0.88686143  1
  Mo  Mo169  1  0.21064589  0.59666193  0.76401526  1
  Mo  Mo170  1  0.40286824  0.80388046  0.50957038  1
  Mo  Mo171  1  -0.00866063  0.80599495  0.00558812  1
  Mo  Mo172  1  0.09396341  0.69979464  0.87276532  1
  Mo  Mo173  1  0.80864591  0.80060852  -0.00660347  1
  Mo  Mo174  1  -0.00512704  0.81393739  0.74384655  1
  Mo  Mo175  1  0.90507874  0.50327667  0.60940640  1
  Mo  Mo176  1  0.89767636  0.91831840  0.60421441  1
  Mo  Mo177  1  0.60240874  0.60632148  0.26751493  1
  Mo  Mo178  1  0.79733099  0.39791586  0.74123153  1
  Mo  Mo179  1  0.41464898  0.79885675  0.23656501  1
  Mo  Mo180  1  0.19615544  0.39949057  0.50344150  1
  Mo  Mo181  1  0.89281632  0.89864902  0.39598488  1
  Mo  Mo182  1  0.50580798  0.28756049  0.61681658  1
  Mo  Mo183  1  0.19637933  -0.00117496  -0.00490195  1
  Mo  Mo184  1  0.79197889  -0.00372408  0.25887748  1
  Mo  Mo185  1  0.39667093  0.79899156  0.77584467  1
  Mo  Mo186  1  0.90601896  0.70575781  0.61237187  1
  Mo  Mo187  1  0.39232539  0.00431122  0.50006286  1
  Mo  Mo188  1  0.19037773  0.19430643  0.25636640  1
  Mo  Mo189  1  0.59761172  0.80349761  0.51311478  1
  Mo  Mo190  1  0.50124301  0.89656386  0.37966524  1
  Mo  Mo191  1  0.30124366  0.29860033  0.12531398  1
  Mo  Mo192  1  0.50872309  0.69139126  0.86994186  1
  Mo  Mo193  1  0.80539921  0.19725151  0.49229324  1
  Mo  Mo194  1  0.70615948  0.70955689  0.12171665  1
  Mo  Mo195  1  0.59375404  0.01556858  0.75150535  1
  Mo  Mo196  1  0.89419518  0.10812839  0.38534108  1
  Mo  Mo197  1  0.19811601  -0.00145872  0.25459615  1
  Mo  Mo198  1  0.69988604  0.09410966  0.36767142  1
  Mo  Mo199  1  0.58981320  0.00239820  0.50093620  1
