# generated using pymatgen
data_HfZrTaTiMo
_symmetry_space_group_name_H-M   'P 1'
_cell_length_a   15.21797712
_cell_length_b   15.21264039
_cell_length_c   16.82914523
_cell_angle_alpha   90.07273518
_cell_angle_beta   89.98573711
_cell_angle_gamma   89.99085137
_symmetry_Int_Tables_number   1
_chemical_formula_structural   HfZrTaTiMo
_chemical_formula_sum   'Hf40 Zr40 Ta40 Ti40 Mo40'
_cell_volume   3896.03827782
_cell_formula_units_Z   40
loop_
 _symmetry_equiv_pos_site_id
 _symmetry_equiv_pos_as_xyz
  1  'x, y, z'
loop_
 _atom_site_type_symbol
 _atom_site_label
 _atom_site_symmetry_multiplicity
 _atom_site_fract_x
 _atom_site_fract_y
 _atom_site_fract_z
 _atom_site_occupancy
  Hf  Hf0  1  0.79569553  0.21505522  0.76333030  1
  Hf  Hf1  1  0.59914336  0.59559053  -0.00045039  1
  Hf  Hf2  1  0.30515483  0.11208456  0.63688663  1
  Hf  Hf3  1  0.39618193  0.80214102  0.25936917  1
  Hf  Hf4  1  0.49094431  0.09839582  0.11365363  1
  Hf  Hf5  1  0.29234960  0.32749848  0.88044285  1
  Hf  Hf6  1  0.51440369  0.48056437  0.37531881  1
  Hf  Hf7  1  0.80137065  0.60838538  0.00222736  1
  Hf  Hf8  1  0.61150657  0.39274862  0.74951783  1
  Hf  Hf9  1  0.82829585  0.39903210  0.49309180  1
  Hf  Hf10  1  0.08055427  0.11036730  0.63282951  1
  Hf  Hf11  1  0.71922922  0.91466582  0.61875753  1
  Hf  Hf12  1  0.02929626  0.58571067  0.74470210  1
  Hf  Hf13  1  0.19358595  -0.00899443  0.74098294  1
  Hf  Hf14  1  0.30017250  0.52235760  0.61035202  1
  Hf  Hf15  1  0.19010501  0.20580441  0.01024165  1
  Hf  Hf16  1  0.81412242  0.42981601  0.23912364  1
  Hf  Hf17  1  0.60166742  0.79775367  0.47995397  1
  Hf  Hf18  1  0.09154571  0.88980740  0.88237448  1
  Hf  Hf19  1  0.69422869  0.71482049  0.62439421  1
  Hf  Hf20  1  0.91809488  0.46863433  0.63958871  1
  Hf  Hf21  1  0.90071535  0.90312543  0.36480711  1
  Hf  Hf22  1  -0.01423318  -0.01608407  0.74649050  1
  Hf  Hf23  1  0.70121495  0.30605302  0.35500082  1
  Hf  Hf24  1  0.18768054  0.22719355  0.74793488  1
  Hf  Hf25  1  0.30427630  0.09196137  0.11975020  1
  Hf  Hf26  1  0.79884813  0.00393735  0.77103666  1
  Hf  Hf27  1  0.09245419  0.48522964  0.37378392  1
  Hf  Hf28  1  0.40111420  0.79068269  0.00874070  1
  Hf  Hf29  1  0.78436452  0.19523489  0.49178949  1
  Hf  Hf30  1  0.39812882  0.78197475  0.74097552  1
  Hf  Hf31  1  0.69911987  0.30555513  0.13526686  1
  Hf  Hf32  1  0.49443104  0.89597003  0.13031106  1
  Hf  Hf33  1  0.60281451  -0.00586144  0.76489921  1
  Hf  Hf34  1  0.60959971  0.79072141  -0.00548357  1
  Hf  Hf35  1  0.09633491  0.90447013  0.38171333  1
  Hf  Hf36  1  0.91121809  0.31495034  0.35190496  1
  Hf  Hf37  1  0.10821613  0.89592376  0.12571557  1
  Hf  Hf38  1  0.00791447  0.00757212  0.24040958  1
  Hf  Hf39  1  0.08975919  0.69266123  0.36359192  1
  Zr  Zr40  1  0.89924347  0.89134537  0.13476505  1
  Zr  Zr41  1  0.69468419  0.10136744  0.11713416  1
  Zr  Zr42  1  0.80191438  -0.01002794  -0.01264390  1
  Zr  Zr43  1  0.90893645  0.11442088  0.36344728  1
  Zr  Zr44  1  0.61531826  0.38432898  0.50301599  1
  Zr  Zr45  1  0.59215973  -0.00809052  -0.01183891  1
  Zr  Zr46  1  0.50039662  0.28520795  0.62827865  1
  Zr  Zr47  1  0.58643136  0.19590873  0.25395506  1
  Zr  Zr48  1  0.50845863  0.88866283  0.62082192  1
  Zr  Zr49  1  0.69090083  0.11773426  0.63407291  1
  Zr  Zr50  1  0.40312636  0.38545724  0.25289749  1
  Zr  Zr51  1  0.08854398  0.88924331  0.60984486  1
  Zr  Zr52  1  0.29697442  0.11021749  0.86689481  1
  Zr  Zr53  1  0.10504650  0.68796028  0.88138421  1
  Zr  Zr54  1  0.11308057  0.68964992  0.60782956  1
  Zr  Zr55  1  0.20462244  0.59627520  0.02339410  1
  Zr  Zr56  1  0.30862936  0.11173017  0.37494824  1
  Zr  Zr57  1  0.69930674  0.89306788  0.12894084  1
  Zr  Zr58  1  0.49941583  0.09554930  0.63587944  1
  Zr  Zr59  1  0.19222191  0.01065347  0.50342655  1
  Zr  Zr60  1  0.49548407  0.31213283  0.11773234  1
  Zr  Zr61  1  0.80713970  0.61071266  0.50864828  1
  Zr  Zr62  1  0.19529960  0.21364240  0.51039580  1
  Zr  Zr63  1  0.61589229  0.01216676  0.48247103  1
  Zr  Zr64  1  0.39016739  0.78505464  0.48999230  1
  Zr  Zr65  1  0.81407442  0.60369073  0.74634339  1
  Zr  Zr66  1  0.20812415  0.00291157  0.25438964  1
  Zr  Zr67  1  0.48752284  0.49723266  0.87445136  1
  Zr  Zr68  1  0.81398682  0.81146543  0.75852270  1
  Zr  Zr69  1  0.70865050  0.50040836  0.62803976  1
  Zr  Zr70  1  0.08790889  0.69917288  0.14621273  1
  Zr  Zr71  1  0.10251321  0.28323678  0.36879283  1
  Zr  Zr72  1  0.09794742  0.10236858  0.87198797  1
  Zr  Zr73  1  0.59286542  -0.00566543  0.26350253  1
  Zr  Zr74  1  0.58884784  0.60411757  0.74448095  1
  Zr  Zr75  1  0.39017833  0.41145634  0.74335662  1
  Zr  Zr76  1  0.91518229  0.50111478  0.87667855  1
  Zr  Zr77  1  0.29939527  0.89724498  0.87836900  1
  Zr  Zr78  1  0.90842069  0.10868670  0.88730126  1
  Zr  Zr79  1  0.48446174  0.10013919  0.87325313  1
  Ta  Ta80  1  0.79718405  0.41017520  0.00968515  1
  Ta  Ta81  1  0.18423142  0.42333046  0.74546396  1
  Ta  Ta82  1  0.40213047  0.59078529  0.47853642  1
  Ta  Ta83  1  0.40181788  0.59396206  0.25759796  1
  Ta  Ta84  1  0.49611318  0.29600244  0.87202973  1
  Ta  Ta85  1  0.79759684  0.21303309  0.00267285  1
  Ta  Ta86  1  0.78679343  0.79985557  0.26618994  1
  Ta  Ta87  1  0.59863739  0.78878120  0.26796826  1
  Ta  Ta88  1  0.20177993  0.79159256  0.74481391  1
  Ta  Ta89  1  0.79217107  0.01371861  0.25405272  1
  Ta  Ta90  1  0.40125068  0.00443181  0.50448902  1
  Ta  Ta91  1  0.49573148  0.69628950  0.87508506  1
  Ta  Ta92  1  0.20702585  0.20436783  0.23222779  1
  Ta  Ta93  1  0.11737434  0.48861476  0.89003521  1
  Ta  Ta94  1  0.29677780  0.30505514  0.37556056  1
  Ta  Ta95  1  -0.01312254  0.78703562  0.49033325  1
  Ta  Ta96  1  0.89407085  0.10631843  0.12321605  1
  Ta  Ta97  1  0.69151182  0.11635084  0.88358536  1
  Ta  Ta98  1  0.20244199  0.79423245  0.00864008  1
  Ta  Ta99  1  0.39400321  0.39164663  0.49907212  1
  Ta  Ta100  1  0.90093753  0.31242288  0.89116986  1
  Ta  Ta101  1  0.89198062  0.68634400  0.35875525  1
  Ta  Ta102  1  0.89100634  0.69623511  0.14573327  1
  Ta  Ta103  1  0.40258262  0.58917065  0.01362329  1
  Ta  Ta104  1  0.49901972  0.49671700  0.61173252  1
  Ta  Ta105  1  0.29084146  0.31719103  0.62355033  1
  Ta  Ta106  1  0.49202014  0.88815162  0.87342498  1
  Ta  Ta107  1  0.20278593  0.58737594  0.24721454  1
  Ta  Ta108  1  0.79952245  0.81161543  0.48365798  1
  Ta  Ta109  1  0.29722739  0.89926141  0.38531912  1
  Ta  Ta110  1  0.48839709  0.27803538  0.38543202  1
  Ta  Ta111  1  0.29526478  0.88871351  0.61270222  1
  Ta  Ta112  1  0.68737605  0.50509921  0.12893493  1
  Ta  Ta113  1  0.00495157  -0.00003290  0.01235176  1
  Ta  Ta114  1  0.60012009  0.59776060  0.49660910  1
  Ta  Ta115  1  0.30722317  0.68776194  0.88099565  1
  Ta  Ta116  1  0.01235508  0.20519503  0.22396704  1
  Ta  Ta117  1  0.70364457  0.69779728  0.86884514  1
  Ta  Ta118  1  0.19676721  0.39424845  0.23288331  1
  Ta  Ta119  1  -0.01509556  0.20766456  0.50472840  1
  Ti  Ti120  1  0.49922875  0.68722271  0.37057356  1
  Ti  Ti121  1  0.60688787  0.59295885  0.25752808  1
  Ti  Ti122  1  0.91196870  0.70412926  0.87445107  1
  Ti  Ti123  1  0.00818115  0.78928650  0.74643928  1
  Ti  Ti124  1  0.71044736  0.49959237  0.86942047  1
  Ti  Ti125  1  0.20269750  -0.00353565  -0.00038530  1
  Ti  Ti126  1  -0.01325460  0.21517778  0.75142385  1
  Ti  Ti127  1  0.11148078  0.49201849  0.59824740  1
  Ti  Ti128  1  -0.01814491  0.00542374  0.50108505  1
  Ti  Ti129  1  0.08821440  0.30756699  0.88461673  1
  Ti  Ti130  1  0.50439977  0.68517734  0.13827683  1
  Ti  Ti131  1  0.21076786  0.61414572  0.47682096  1
  Ti  Ti132  1  0.21095082  0.40250843  0.02461671  1
  Ti  Ti133  1  0.60483570  0.80179595  0.76077015  1
  Ti  Ti134  1  0.39153691  0.21497224  -0.00192729  1
  Ti  Ti135  1  0.72306269  0.30654878  0.63066893  1
  Ti  Ti136  1  0.59434875  0.40505094  -0.00281801  1
  Ti  Ti137  1  0.29652428  0.49402969  0.37228175  1
  Ti  Ti138  1  -0.00324295  0.20459125  0.01644327  1
  Ti  Ti139  1  -0.00939237  0.58536663  0.49726166  1
  Ti  Ti140  1  0.31984936  0.49225087  0.13389464  1
  Ti  Ti141  1  0.39527764  -0.01467650  0.74346893  1
  Ti  Ti142  1  0.30297414  0.70088618  0.13942663  1
  Ti  Ti143  1  0.20000340  0.79860037  0.25949239  1
  Ti  Ti144  1  0.08293761  0.31670824  0.62160660  1
  Ti  Ti145  1  0.80688050  0.79725800  -0.00845323  1
  Ti  Ti146  1  0.90637912  0.71227045  0.62269236  1
  Ti  Ti147  1  0.69907138  0.31168747  0.88431135  1
  Ti  Ti148  1  -0.00011960  0.59722372  0.01263249  1
  Ti  Ti149  1  0.22451078  0.60609586  0.75016381  1
  Ti  Ti150  1  0.89982766  0.30882833  0.12769465  1
  Ti  Ti151  1  0.48575333  0.68380986  0.61297936  1
  Ti  Ti152  1  0.71919281  0.51366439  0.37418591  1
  Ti  Ti153  1  0.69663228  0.70147002  0.13387908  1
  Ti  Ti154  1  0.88309707  0.09377364  0.62324491  1
  Ti  Ti155  1  0.59693819  0.21019762  -0.00365628  1
  Ti  Ti156  1  0.48891711  0.90911950  0.37716394  1
  Ti  Ti157  1  -0.00472125  0.79182911  0.00616014  1
  Ti  Ti158  1  0.30349518  0.89900020  0.12473467  1
  Ti  Ti159  1  0.00770188  0.40442755  0.02022970  1
  Mo  Mo160  1  0.70473186  0.10637627  0.36382406  1
  Mo  Mo161  1  0.29514900  0.69091061  0.35785485  1
  Mo  Mo162  1  -0.01432065  0.58100328  0.24650551  1
  Mo  Mo163  1  0.70252488  0.90152431  0.36990090  1
  Mo  Mo164  1  0.81036441  0.00550252  0.49031048  1
  Mo  Mo165  1  0.69827346  0.89156241  0.87724114  1
  Mo  Mo166  1  0.40014532  0.40756185  0.00287624  1
  Mo  Mo167  1  0.89973142  0.50908640  0.11214432  1
  Mo  Mo168  1  0.39284546  0.18979571  0.24793236  1
  Mo  Mo169  1  0.00973347  0.40528723  0.22972134  1
  Mo  Mo170  1  0.39745470  0.19993627  0.50744643  1
  Mo  Mo171  1  0.30422961  0.29696291  0.12131108  1
  Mo  Mo172  1  -0.00438962  0.79631974  0.25811537  1
  Mo  Mo173  1  0.01438396  0.38635378  0.76134084  1
  Mo  Mo174  1  0.09916842  0.30216640  0.11959220  1
  Mo  Mo175  1  0.59975804  0.20593956  0.76744631  1
  Mo  Mo176  1  0.89797292  0.89712311  0.61170724  1
  Mo  Mo177  1  0.09329103  0.10707661  0.37430901  1
  Mo  Mo178  1  0.39866146  0.60370703  0.74565068  1
  Mo  Mo179  1  0.29186980  0.51215580  0.88180226  1
  Mo  Mo180  1  0.78653270  0.60889939  0.24303394  1
  Mo  Mo181  1  0.49463297  0.09746685  0.38331476  1
  Mo  Mo182  1  0.29826145  0.70302715  0.61461351  1
  Mo  Mo183  1  0.80751814  0.20313405  0.23549084  1
  Mo  Mo184  1  0.80977267  0.39517806  0.76463942  1
  Mo  Mo185  1  0.69470884  0.69298710  0.37847675  1
  Mo  Mo186  1  0.90256572  0.28054268  0.62787990  1
  Mo  Mo187  1  0.50738288  0.50768891  0.13502746  1
  Mo  Mo188  1  0.00762647  0.39164414  0.49806081  1
  Mo  Mo189  1  0.60414667  0.40589296  0.25795214  1
  Mo  Mo190  1  0.20612686  0.40781874  0.49491404  1
  Mo  Mo191  1  0.39070536  0.21363705  0.75790329  1
  Mo  Mo192  1  0.10151116  0.50012223  0.12868509  1
  Mo  Mo193  1  0.40029263  -0.00100787  0.25610695  1
  Mo  Mo194  1  0.91177377  0.89068811  0.88912101  1
  Mo  Mo195  1  0.39264405  -0.01087384  -0.00275387  1
  Mo  Mo196  1  0.90756373  0.50853908  0.37244682  1
  Mo  Mo197  1  0.19569829  0.79841875  0.48382905  1
  Mo  Mo198  1  0.09952770  0.09568576  0.11441641  1
  Mo  Mo199  1  0.59378717  0.19793510  0.48857775  1
