# generated using pymatgen
data_HfZrTaTiMo
_symmetry_space_group_name_H-M   'P 1'
_cell_length_a   15.21368096
_cell_length_b   15.21842506
_cell_length_c   16.84247445
_cell_angle_alpha   89.99933199
_cell_angle_beta   90.05544811
_cell_angle_gamma   89.98047941
_symmetry_Int_Tables_number   1
_chemical_formula_structural   HfZrTaTiMo
_chemical_formula_sum   'Hf40 Zr40 Ta40 Ti40 Mo40'
_cell_volume   3899.50681159
_cell_formula_units_Z   40
loop_
 _symmetry_equiv_pos_site_id
 _symmetry_equiv_pos_as_xyz
  1  'x, y, z'
loop_
 _atom_site_type_symbol
 _atom_site_label
 _atom_site_symmetry_multiplicity
 _atom_site_fract_x
 _atom_site_fract_y
 _atom_site_fract_z
 _atom_site_occupancy
  Hf  Hf0  1  0.29616362  0.88478325  0.12678075  1
  Hf  Hf1  1  0.59398846  -0.01245842  0.50084282  1
  Hf  Hf2  1  0.51146300  0.50252180  0.13665949  1
  Hf  Hf3  1  -0.00494212  0.60173739  0.24758880  1
  Hf  Hf4  1  0.59822489  0.79983173  0.75736218  1
  Hf  Hf5  1  0.69086294  0.70366599  0.61472529  1
  Hf  Hf6  1  0.79287070  0.80939411  0.48934041  1
  Hf  Hf7  1  0.49726913  0.68181031  0.87736298  1
  Hf  Hf8  1  0.19979698  0.00221596  0.00240098  1
  Hf  Hf9  1  0.91459276  0.09866456  0.87585680  1
  Hf  Hf10  1  0.51150593  0.29516715  0.11972206  1
  Hf  Hf11  1  0.00020931  0.79811841  0.25448109  1
  Hf  Hf12  1  0.79120429  0.79492869  0.25682267  1
  Hf  Hf13  1  0.48854591  0.71194120  0.12048618  1
  Hf  Hf14  1  0.69275217  0.09403905  0.63173381  1
  Hf  Hf15  1  0.19182909  0.78753263  -0.00737287  1
  Hf  Hf16  1  0.29077327  0.69197428  0.13620527  1
  Hf  Hf17  1  0.90002455  0.70273179  0.89550947  1
  Hf  Hf18  1  0.32146827  0.09009891  0.13110719  1
  Hf  Hf19  1  0.48548852  0.69826026  0.61035922  1
  Hf  Hf20  1  0.88799332  0.10402191  0.12932407  1
  Hf  Hf21  1  -0.00458145  0.39932180  0.25162701  1
  Hf  Hf22  1  0.40260554  0.39283719  0.26159461  1
  Hf  Hf23  1  0.29404025  0.48903861  0.14418627  1
  Hf  Hf24  1  0.40406841  0.01783210  0.75922297  1
  Hf  Hf25  1  0.41309040  0.19410055  0.00322155  1
  Hf  Hf26  1  0.68465345  0.91850783  0.13302843  1
  Hf  Hf27  1  0.19275922  0.80748100  0.74421786  1
  Hf  Hf28  1  0.70634434  0.30030911  0.12393849  1
  Hf  Hf29  1  0.42430150  0.19752465  0.24674304  1
  Hf  Hf30  1  0.00841813  -0.00578450  0.49884189  1
  Hf  Hf31  1  0.71254263  0.29703439  0.63093012  1
  Hf  Hf32  1  0.90062559  0.29800554  0.11821587  1
  Hf  Hf33  1  0.39590823  0.80580037  0.75920866  1
  Hf  Hf34  1  0.69737204  0.49155526  0.37986741  1
  Hf  Hf35  1  0.89302604  0.70246969  0.62142359  1
  Hf  Hf36  1  0.79557434  0.59289795  0.24358174  1
  Hf  Hf37  1  0.11192528  0.30743765  0.13054230  1
  Hf  Hf38  1  0.79655197  0.20596182  0.49007347  1
  Hf  Hf39  1  0.79333055  0.59055700  0.50306571  1
  Zr  Zr40  1  0.69097684  0.70430889  0.12044627  1
  Zr  Zr41  1  -0.00252911  0.79711326  0.75059648  1
  Zr  Zr42  1  0.30324011  0.09623491  0.37006610  1
  Zr  Zr43  1  0.30502114  0.29725750  0.38789688  1
  Zr  Zr44  1  0.39176109  0.82291953  0.49411974  1
  Zr  Zr45  1  0.59115425  0.81832339  -0.00898979  1
  Zr  Zr46  1  0.28647967  0.11428315  0.87209729  1
  Zr  Zr47  1  0.40578738  0.60875096  0.26436317  1
  Zr  Zr48  1  0.89318012  0.10081586  0.62260496  1
  Zr  Zr49  1  0.81313606  0.40441123  0.75095215  1
  Zr  Zr50  1  0.59998933  0.59260350  0.73820770  1
  Zr  Zr51  1  0.70529723  0.90248325  0.63282186  1
  Zr  Zr52  1  0.91088619  0.10882810  0.37722249  1
  Zr  Zr53  1  0.09612165  0.90464808  0.88074598  1
  Zr  Zr54  1  0.00659805  0.19827479  0.73882247  1
  Zr  Zr55  1  0.21149638  0.21923721  0.72329372  1
  Zr  Zr56  1  0.40276099  -0.01144770  -0.02353312  1
  Zr  Zr57  1  0.19894846  0.58598903  0.73553755  1
  Zr  Zr58  1  0.00772474  0.19525165  0.25052975  1
  Zr  Zr59  1  0.18624334  0.81001934  0.51122929  1
  Zr  Zr60  1  0.30761393  0.50018995  0.60573621  1
  Zr  Zr61  1  0.88940707  0.89562150  0.12625786  1
  Zr  Zr62  1  0.70723758  0.69492576  0.88372519  1
  Zr  Zr63  1  0.59728021  0.03425995  -0.01596599  1
  Zr  Zr64  1  0.49598144  0.31504107  0.87664022  1
  Zr  Zr65  1  0.19733270  0.60634834  0.50370631  1
  Zr  Zr66  1  -0.00530524  0.58860375  0.74682003  1
  Zr  Zr67  1  0.00017445  0.59689922  0.49887412  1
  Zr  Zr68  1  0.10131011  0.29607758  0.38517101  1
  Zr  Zr69  1  0.10032131  0.28458642  0.87873521  1
  Zr  Zr70  1  0.29120836  0.68395106  0.86711627  1
  Zr  Zr71  1  0.51222576  0.09685372  0.37028732  1
  Zr  Zr72  1  0.67783747  0.90239094  0.36448676  1
  Zr  Zr73  1  0.58422257  0.19344945  0.75239529  1
  Zr  Zr74  1  0.90323936  0.49879284  0.87918752  1
  Zr  Zr75  1  0.79423553  0.00194180  -0.00290960  1
  Zr  Zr76  1  0.01402144  0.59242804  0.00887116  1
  Zr  Zr77  1  0.29489242  0.31214578  0.87562553  1
  Zr  Zr78  1  0.19744950  -0.00658484  0.25034570  1
  Zr  Zr79  1  0.59395222  0.40504022  0.73205800  1
  Ta  Ta80  1  0.00351564  -0.00452227  0.74470927  1
  Ta  Ta81  1  0.48638693  0.91505191  0.13020027  1
  Ta  Ta82  1  0.78777351  0.58569725  0.01346964  1
  Ta  Ta83  1  0.90418801  0.49417902  0.37749078  1
  Ta  Ta84  1  0.11853483  0.48577265  0.87419307  1
  Ta  Ta85  1  0.00287288  0.00093641  0.00951132  1
  Ta  Ta86  1  0.20845782  0.58443838  0.00059083  1
  Ta  Ta87  1  0.78998059  0.19828311  -0.01257432  1
  Ta  Ta88  1  0.20897562  0.00080806  0.50343290  1
  Ta  Ta89  1  0.60893258  0.39343201  0.51156197  1
  Ta  Ta90  1  0.20464039  0.40113751  0.00668762  1
  Ta  Ta91  1  0.00669791  0.39711015  0.00380813  1
  Ta  Ta92  1  0.41492148  0.39956462  0.49454947  1
  Ta  Ta93  1  0.68603074  0.69418824  0.38295770  1
  Ta  Ta94  1  0.49921214  0.90788533  0.63242318  1
  Ta  Ta95  1  0.28736934  0.71037231  0.37003034  1
  Ta  Ta96  1  0.90413952  0.90141682  0.62222440  1
  Ta  Ta97  1  0.50025962  0.70926417  0.38897006  1
  Ta  Ta98  1  0.20493138  0.20126234  0.01781527  1
  Ta  Ta99  1  0.70814364  0.90267943  0.87051909  1
  Ta  Ta100  1  0.59383208  0.19775030  0.50244056  1
  Ta  Ta101  1  0.38967213  0.79933046  -0.01704410  1
  Ta  Ta102  1  0.89930362  0.70160851  0.10948553  1
  Ta  Ta103  1  0.09343690  0.89127315  0.12330998  1
  Ta  Ta104  1  -0.00581371  0.80194747  0.49257475  1
  Ta  Ta105  1  0.29955026  0.91957346  0.63265391  1
  Ta  Ta106  1  0.19345544  0.01049351  0.74733091  1
  Ta  Ta107  1  0.10703555  0.49651051  0.37007647  1
  Ta  Ta108  1  0.60504743  0.38495319  0.25997013  1
  Ta  Ta109  1  0.80383963  0.79954331  0.75315330  1
  Ta  Ta110  1  0.89873007  0.90378472  0.36843993  1
  Ta  Ta111  1  0.39907039  0.40977509  0.00958482  1
  Ta  Ta112  1  0.38950814  0.39168051  0.73119198  1
  Ta  Ta113  1  0.89842025  0.89381876  0.88745820  1
  Ta  Ta114  1  0.79690101  0.39817221  -0.00656888  1
  Ta  Ta115  1  0.78577280  0.02022385  0.25917652  1
  Ta  Ta116  1  -0.00330543  -0.00381869  0.25040045  1
  Ta  Ta117  1  0.70215566  0.30230888  0.87132720  1
  Ta  Ta118  1  0.29626364  0.50331451  0.38016060  1
  Ta  Ta119  1  0.59316588  0.58681695  0.00156313  1
  Ti  Ti120  1  0.10746424  0.09443521  0.61827066  1
  Ti  Ti121  1  0.90517413  0.29984607  0.88132349  1
  Ti  Ti122  1  0.39752362  0.59322942  0.00319418  1
  Ti  Ti123  1  0.10234919  0.69991560  0.12991281  1
  Ti  Ti124  1  0.09497991  0.68423170  0.87410957  1
  Ti  Ti125  1  0.80200329  0.19651730  0.76112588  1
  Ti  Ti126  1  0.79324399  0.59733242  0.74099342  1
  Ti  Ti127  1  0.60505132  0.40536280  -0.00163514  1
  Ti  Ti128  1  0.89268422  0.69718081  0.37824240  1
  Ti  Ti129  1  0.21415019  0.19635865  0.51489195  1
  Ti  Ti130  1  0.60297419  0.60208945  0.25649643  1
  Ti  Ti131  1  0.58714314  0.58709121  0.50658581  1
  Ti  Ti132  1  0.29896555  0.70779076  0.62551407  1
  Ti  Ti133  1  0.00724260  0.19331913  0.00556796  1
  Ti  Ti134  1  0.40921232  0.58515855  0.74186703  1
  Ti  Ti135  1  0.31525572  0.49511070  0.87001852  1
  Ti  Ti136  1  0.50331349  0.50031611  0.37941430  1
  Ti  Ti137  1  0.09706583  0.69790268  0.37181245  1
  Ti  Ti138  1  0.02559331  0.39527001  0.74039367  1
  Ti  Ti139  1  0.89375225  0.49260915  0.12049763  1
  Ti  Ti140  1  0.10978103  0.09755339  0.37867338  1
  Ti  Ti141  1  0.39966636  0.01690777  0.50657713  1
  Ti  Ti142  1  0.10670977  0.50366275  0.13788285  1
  Ti  Ti143  1  0.91495933  0.30531260  0.62027084  1
  Ti  Ti144  1  0.09158402  0.70127468  0.62425271  1
  Ti  Ti145  1  0.10169065  0.09621478  0.13071574  1
  Ti  Ti146  1  0.80969616  0.39538178  0.49752174  1
  Ti  Ti147  1  0.00565682  0.20511617  0.50619313  1
  Ti  Ti148  1  0.90369882  0.49157513  0.62027242  1
  Ti  Ti149  1  0.80724720  -0.00313984  0.75892474  1
  Ti  Ti150  1  0.59851595  -0.00008394  0.76844470  1
  Ti  Ti151  1  0.38875566  0.81411193  0.26533377  1
  Ti  Ti152  1  0.57927063  0.80108887  0.25230307  1
  Ti  Ti153  1  0.48537984  0.28435704  0.61823385  1
  Ti  Ti154  1  0.79465592  0.21333698  0.26868261  1
  Ti  Ti155  1  0.79900018  0.00374462  0.48926635  1
  Ti  Ti156  1  0.68929545  0.49843122  0.87362477  1
  Ti  Ti157  1  0.21708918  0.21085739  0.23955395  1
  Ti  Ti158  1  0.79839806  0.39854386  0.25682725  1
  Ti  Ti159  1  0.10694522  0.89614881  0.37135497  1
  Mo  Mo160  1  0.29450139  0.89728728  0.86634375  1
  Mo  Mo161  1  0.20046897  0.40505812  0.74084281  1
  Mo  Mo162  1  0.49735847  0.09220287  0.62087446  1
  Mo  Mo163  1  -0.00230474  0.39856448  0.49908370  1
  Mo  Mo164  1  0.48493206  0.90251133  0.36767099  1
  Mo  Mo165  1  0.70919967  0.49627893  0.61439910  1
  Mo  Mo166  1  0.40934305  0.19863872  0.49964966  1
  Mo  Mo167  1  0.89774283  0.31185765  0.37834997  1
  Mo  Mo168  1  0.70918145  0.10578873  0.85916135  1
  Mo  Mo169  1  0.49165023  0.49694638  0.87702687  1
  Mo  Mo170  1  0.29270093  0.90360839  0.37734845  1
  Mo  Mo171  1  0.79424761  0.79923214  0.00274188  1
  Mo  Mo172  1  0.52331573  0.09715743  0.13087535  1
  Mo  Mo173  1  0.10210695  0.30823547  0.60216213  1
  Mo  Mo174  1  0.09652406  0.09946997  0.88137670  1
  Mo  Mo175  1  0.69884362  0.11708396  0.12898937  1
  Mo  Mo176  1  0.39956907  0.21048923  0.74144965  1
  Mo  Mo177  1  0.70373988  0.09982646  0.38170781  1
  Mo  Mo178  1  0.51504190  0.30661991  0.38347293  1
  Mo  Mo179  1  0.40449315  -0.00770490  0.25104317  1
  Mo  Mo180  1  0.30659672  0.29759910  0.12349994  1
  Mo  Mo181  1  0.39954510  0.60405794  0.47921853  1
  Mo  Mo182  1  0.62332381  0.19501672  0.25524411  1
  Mo  Mo183  1  0.20112625  0.40012371  0.25775673  1
  Mo  Mo184  1  0.19123332  0.60028783  0.26106058  1
  Mo  Mo185  1  0.61107364  0.21561051  -0.01103095  1
  Mo  Mo186  1  0.49947861  0.49422298  0.61106422  1
  Mo  Mo187  1  0.69574164  0.30048754  0.38104238  1
  Mo  Mo188  1  0.31105906  0.10406290  0.62190295  1
  Mo  Mo189  1  0.09249999  0.48602852  0.61745786  1
  Mo  Mo190  1  0.69979807  0.49107178  0.12817119  1
  Mo  Mo191  1  0.00039424  0.80200249  0.00850683  1
  Mo  Mo192  1  0.30490589  0.30461384  0.59980236  1
  Mo  Mo193  1  0.50227536  0.89764572  0.86917454  1
  Mo  Mo194  1  0.09563215  0.90858560  0.62682796  1
  Mo  Mo195  1  0.59336563  0.00695248  0.24500150  1
  Mo  Mo196  1  0.59242234  0.79738509  0.50032933  1
  Mo  Mo197  1  0.19803533  0.40168503  0.49591961  1
  Mo  Mo198  1  0.49766923  0.11279583  0.87058166  1
  Mo  Mo199  1  0.19246870  0.79399256  0.25411037  1
