# generated using pymatgen
data_HfZrTaTiMo
_symmetry_space_group_name_H-M   'P 1'
_cell_length_a   15.18177524
_cell_length_b   15.18797156
_cell_length_c   16.79620440
_cell_angle_alpha   90.00317943
_cell_angle_beta   90.03492199
_cell_angle_gamma   90.04686164
_symmetry_Int_Tables_number   1
_chemical_formula_structural   HfZrTaTiMo
_chemical_formula_sum   'Hf40 Zr40 Ta40 Ti40 Mo40'
_cell_volume   3872.87301444
_cell_formula_units_Z   40
loop_
 _symmetry_equiv_pos_site_id
 _symmetry_equiv_pos_as_xyz
  1  'x, y, z'
loop_
 _atom_site_type_symbol
 _atom_site_label
 _atom_site_symmetry_multiplicity
 _atom_site_fract_x
 _atom_site_fract_y
 _atom_site_fract_z
 _atom_site_occupancy
  Hf  Hf0  1  0.81199962  0.79970359  0.48118159  1
  Hf  Hf1  1  0.09922320  0.50613863  0.62427117  1
  Hf  Hf2  1  0.20250660  0.60284175  0.00462402  1
  Hf  Hf3  1  0.38637530  0.39417857  0.49683178  1
  Hf  Hf4  1  0.28756055  0.29019370  0.12046416  1
  Hf  Hf5  1  0.41049338  0.80732041  0.75676431  1
  Hf  Hf6  1  0.69319619  0.08904700  0.13489892  1
  Hf  Hf7  1  -0.00567619  0.22105409  -0.00070550  1
  Hf  Hf8  1  0.11324731  0.69381442  0.14000891  1
  Hf  Hf9  1  0.92019440  0.92145441  0.36338061  1
  Hf  Hf10  1  0.71468610  0.68681257  0.88035167  1
  Hf  Hf11  1  0.89641251  0.10309190  0.13398852  1
  Hf  Hf12  1  0.39078227  0.01075927  0.25749430  1
  Hf  Hf13  1  0.11247950  0.92219789  0.61799921  1
  Hf  Hf14  1  0.40049454  0.38196509  0.25103355  1
  Hf  Hf15  1  0.21748148  0.82029699  0.49409611  1
  Hf  Hf16  1  0.29487380  0.50655005  0.13949802  1
  Hf  Hf17  1  0.00209599  0.00517491  0.75483284  1
  Hf  Hf18  1  0.49251509  0.29899884  0.10680370  1
  Hf  Hf19  1  0.29000084  0.49583856  0.36171292  1
  Hf  Hf20  1  0.82054373  0.78659944  0.26122029  1
  Hf  Hf21  1  0.79732755  0.19244026  0.74376161  1
  Hf  Hf22  1  0.41365842  0.79890060  0.49413078  1
  Hf  Hf23  1  0.09205574  0.50751856  0.86023485  1
  Hf  Hf24  1  0.80981384  0.00347913  0.49646955  1
  Hf  Hf25  1  0.70307252  0.08987198  0.86930005  1
  Hf  Hf26  1  0.48855830  0.29389365  0.61878851  1
  Hf  Hf27  1  0.18382909  0.19150460  0.25392665  1
  Hf  Hf28  1  0.70815285  0.89982889  0.62721994  1
  Hf  Hf29  1  0.49374870  0.09328741  0.88346606  1
  Hf  Hf30  1  0.10524360  0.90089620  0.89405063  1
  Hf  Hf31  1  0.30930651  0.89914096  0.11969440  1
  Hf  Hf32  1  0.69734980  0.90087801  0.35592402  1
  Hf  Hf33  1  0.07759522  0.30493049  0.38376639  1
  Hf  Hf34  1  -0.01110728  0.61513750  0.74180469  1
  Hf  Hf35  1  0.11112984  0.70305187  0.87598789  1
  Hf  Hf36  1  0.18128776  0.40080087  0.00619713  1
  Hf  Hf37  1  0.78688694  0.21488956  0.24502813  1
  Hf  Hf38  1  0.38972818  0.41318304  -0.00693058  1
  Hf  Hf39  1  0.09931443  0.71032973  0.61080921  1
  Zr  Zr40  1  0.29647075  0.48572451  0.64208030  1
  Zr  Zr41  1  0.60727513  0.38865394  0.23851425  1
  Zr  Zr42  1  0.29088383  0.50694349  0.85766189  1
  Zr  Zr43  1  0.80841866  0.59700468  0.01196101  1
  Zr  Zr44  1  0.60620257  -0.02097965  0.00203794  1
  Zr  Zr45  1  0.50670930  0.49135082  0.37400052  1
  Zr  Zr46  1  0.20638024  0.81230512  0.74677153  1
  Zr  Zr47  1  0.71265328  0.68715750  0.61861975  1
  Zr  Zr48  1  0.80531994  0.81701902  0.01183980  1
  Zr  Zr49  1  0.42943717  0.58845713  0.75776161  1
  Zr  Zr50  1  0.69157763  0.09929132  0.36730500  1
  Zr  Zr51  1  0.69818177  0.89432181  0.86352827  1
  Zr  Zr52  1  0.89848580  0.30047946  0.62946907  1
  Zr  Zr53  1  0.38560412  -0.00959097  0.49280742  1
  Zr  Zr54  1  0.51337574  0.69239925  0.89153533  1
  Zr  Zr55  1  0.91471840  0.70019407  0.13059214  1
  Zr  Zr56  1  0.68401325  0.30047405  0.61948638  1
  Zr  Zr57  1  0.89822435  0.89897430  0.87083986  1
  Zr  Zr58  1  0.20176228  0.19275885  0.75316906  1
  Zr  Zr59  1  0.59511471  -0.00223451  0.49784103  1
  Zr  Zr60  1  0.58516157  0.41454722  0.75697751  1
  Zr  Zr61  1  0.68562414  0.29883851  0.39202950  1
  Zr  Zr62  1  0.69770911  0.30102800  0.87136770  1
  Zr  Zr63  1  0.10808831  0.89946130  0.11440216  1
  Zr  Zr64  1  0.10658492  0.70575449  0.37493779  1
  Zr  Zr65  1  0.30014015  0.69347629  0.63333120  1
  Zr  Zr66  1  0.09954353  0.10937047  0.10746927  1
  Zr  Zr67  1  0.82156010  0.78792290  0.74360689  1
  Zr  Zr68  1  0.50425604  0.70623700  0.13219266  1
  Zr  Zr69  1  0.40000358  0.59687163  0.49406579  1
  Zr  Zr70  1  0.70853975  0.49438238  0.36709032  1
  Zr  Zr71  1  0.51361653  0.68843201  0.62133112  1
  Zr  Zr72  1  0.48631976  0.09498392  0.11091647  1
  Zr  Zr73  1  0.60476250  0.78469724  0.74875340  1
  Zr  Zr74  1  0.80605850  0.60034192  0.48594055  1
  Zr  Zr75  1  0.29306713  0.09780836  0.10676674  1
  Zr  Zr76  1  0.56752178  0.19712204  0.24928218  1
  Zr  Zr77  1  0.30720296  0.70399280  0.35292341  1
  Zr  Zr78  1  0.31123889  0.90584341  0.89379313  1
  Zr  Zr79  1  -0.01169676  0.40459347  0.74789720  1
  Ta  Ta80  1  -0.00039380  0.59263220  0.26179484  1
  Ta  Ta81  1  0.29390894  0.29711399  0.87795297  1
  Ta  Ta82  1  0.89638446  0.10130977  0.87743720  1
  Ta  Ta83  1  0.79316773  0.19350839  0.50490824  1
  Ta  Ta84  1  0.88134321  0.50168311  0.87586125  1
  Ta  Ta85  1  0.90232330  0.12046981  0.36556280  1
  Ta  Ta86  1  0.91728917  0.49424573  0.12910185  1
  Ta  Ta87  1  0.70610234  0.49378999  0.12309891  1
  Ta  Ta88  1  0.91490538  0.69309350  0.88526837  1
  Ta  Ta89  1  0.79806898  0.18936607  0.00328905  1
  Ta  Ta90  1  0.60774955  0.79455558  0.48898517  1
  Ta  Ta91  1  0.89120112  0.50791350  0.61702874  1
  Ta  Ta92  1  0.50078566  0.90059320  0.62510728  1
  Ta  Ta93  1  0.60703422  0.20307929  -0.00060578  1
  Ta  Ta94  1  0.91382234  0.90228955  0.61872279  1
  Ta  Ta95  1  0.28922162  0.08837568  0.62273816  1
  Ta  Ta96  1  0.10182269  0.30256146  0.62332148  1
  Ta  Ta97  1  0.51246768  0.70035057  0.35999099  1
  Ta  Ta98  1  0.17640017  0.39739975  0.24437178  1
  Ta  Ta99  1  0.00094851  0.19819033  0.75781209  1
  Ta  Ta100  1  -0.01381976  0.20226776  0.50204941  1
  Ta  Ta101  1  -0.00988651  0.41625739  -0.00852192  1
  Ta  Ta102  1  0.79950610  0.38628338  0.00890158  1
  Ta  Ta103  1  0.28884511  0.28952279  0.37365032  1
  Ta  Ta104  1  0.09864383  0.30540966  0.86800390  1
  Ta  Ta105  1  0.70594368  0.89724900  0.15196896  1
  Ta  Ta106  1  0.49001678  0.09830915  0.62553981  1
  Ta  Ta107  1  0.91323791  0.48362210  0.37504098  1
  Ta  Ta108  1  0.89363393  0.30213716  0.87048552  1
  Ta  Ta109  1  0.39623323  0.00330013  0.74896970  1
  Ta  Ta110  1  0.18863683  0.19439078  0.49926475  1
  Ta  Ta111  1  0.09967496  0.10262175  0.89179163  1
  Ta  Ta112  1  0.50576644  0.50329496  0.11244189  1
  Ta  Ta113  1  0.27291921  0.08874580  0.37695511  1
  Ta  Ta114  1  0.80914914  0.39455850  0.50075626  1
  Ta  Ta115  1  0.90505182  0.91122911  0.14362957  1
  Ta  Ta116  1  0.70128480  0.69309936  0.36002604  1
  Ta  Ta117  1  -0.02022397  -0.00055937  0.00127544  1
  Ta  Ta118  1  0.81483055  0.39891475  0.24131472  1
  Ta  Ta119  1  0.30484328  0.70809162  0.14143747  1
  Ti  Ti120  1  -0.00997952  0.22859779  0.24252114  1
  Ti  Ti121  1  0.01089795  0.80678944  0.74666025  1
  Ti  Ti122  1  0.50599636  0.49198308  0.61431494  1
  Ti  Ti123  1  0.20564592  0.59767623  0.49728886  1
  Ti  Ti124  1  0.61170109  0.79073914  0.01203259  1
  Ti  Ti125  1  0.30362325  0.70160778  0.87247043  1
  Ti  Ti126  1  0.49943490  0.89492027  0.35798388  1
  Ti  Ti127  1  0.09113344  0.10985814  0.62222840  1
  Ti  Ti128  1  0.78688103  0.40780050  0.74748484  1
  Ti  Ti129  1  0.58516023  0.19747482  0.75265271  1
  Ti  Ti130  1  0.89888226  0.09281089  0.62753417  1
  Ti  Ti131  1  0.70759981  0.69636664  0.14001821  1
  Ti  Ti132  1  0.60224536  0.59682354  0.48904987  1
  Ti  Ti133  1  0.02258223  0.81238976  0.25809262  1
  Ti  Ti134  1  0.79403876  0.58940059  0.74961780  1
  Ti  Ti135  1  0.51019621  0.90161799  0.14341665  1
  Ti  Ti136  1  0.39902763  0.61135526  0.00444570  1
  Ti  Ti137  1  0.39429780  0.38320046  0.76010763  1
  Ti  Ti138  1  0.02075552  0.02142904  0.24974110  1
  Ti  Ti139  1  0.29761319  0.10211357  0.89815391  1
  Ti  Ti140  1  0.10136671  0.49978430  0.38058576  1
  Ti  Ti141  1  0.59125282  -0.00247480  0.74625271  1
  Ti  Ti142  1  -0.00125843  0.60167274  0.48943813  1
  Ti  Ti143  1  0.48724976  0.10452978  0.38104332  1
  Ti  Ti144  1  0.41174855  0.59414730  0.24729363  1
  Ti  Ti145  1  0.49155515  0.28953809  0.39312232  1
  Ti  Ti146  1  0.00755951  0.78978118  0.00628038  1
  Ti  Ti147  1  0.49652836  0.30234143  0.88790172  1
  Ti  Ti148  1  0.20518787  0.00407419  0.76189039  1
  Ti  Ti149  1  0.61013517  0.59299165  0.24154744  1
  Ti  Ti150  1  0.00823806  0.82027822  0.48540894  1
  Ti  Ti151  1  0.39595040  0.19315046  0.75649291  1
  Ti  Ti152  1  0.68743770  0.09826182  0.62729276  1
  Ti  Ti153  1  0.29215682  0.28768870  0.62718186  1
  Ti  Ti154  1  0.68302233  0.49904703  0.89521442  1
  Ti  Ti155  1  0.41631984  0.80736624  0.00097339  1
  Ti  Ti156  1  0.90925295  0.70700590  0.60897945  1
  Ti  Ti157  1  0.38433532  0.18992321  0.49952069  1
  Ti  Ti158  1  0.19198810  0.39544590  0.50066764  1
  Ti  Ti159  1  0.69410665  0.49692481  0.61615794  1
  Mo  Mo160  1  0.31133467  0.90886051  0.63155206  1
  Mo  Mo161  1  0.59450854  0.40414204  0.50457404  1
  Mo  Mo162  1  0.08185816  0.10240107  0.37808744  1
  Mo  Mo163  1  0.58325960  0.19088430  0.50532374  1
  Mo  Mo164  1  0.29979774  0.90057450  0.36305239  1
  Mo  Mo165  1  0.60735386  0.60122114  0.01990106  1
  Mo  Mo166  1  0.38325295  0.20189721  0.26312959  1
  Mo  Mo167  1  0.81040004  0.00465081  0.25531183  1
  Mo  Mo168  1  0.50782802  0.90114484  0.87448672  1
  Mo  Mo169  1  0.09428573  0.50536793  0.12896924  1
  Mo  Mo170  1  0.40780223  0.80563576  0.25194724  1
  Mo  Mo171  1  0.80728103  0.58868246  0.24537659  1
  Mo  Mo172  1  0.61847251  0.58417468  0.75425641  1
  Mo  Mo173  1  0.40819961  -0.00496796  0.00097283  1
  Mo  Mo174  1  0.88624738  0.30112068  0.38192475  1
  Mo  Mo175  1  0.19505716  -0.00167672  -0.00510061  1
  Mo  Mo176  1  0.19605232  0.60976355  0.74442885  1
  Mo  Mo177  1  0.00004591  0.01619974  0.50062641  1
  Mo  Mo178  1  0.11634884  0.92357259  0.37380597  1
  Mo  Mo179  1  0.50342809  0.49788387  0.89966356  1
  Mo  Mo180  1  -0.00041396  0.40837885  0.50793388  1
  Mo  Mo181  1  0.20632212  0.81377851  0.25440758  1
  Mo  Mo182  1  0.19253374  0.00941019  0.50091977  1
  Mo  Mo183  1  0.08523744  0.31483202  0.12468756  1
  Mo  Mo184  1  0.39890123  0.20674209  -0.01515343  1
  Mo  Mo185  1  0.22055450  0.78522761  0.00319025  1
  Mo  Mo186  1  0.00539125  0.59665462  -0.00182593  1
  Mo  Mo187  1  -0.00152162  0.39948351  0.25161449  1
  Mo  Mo188  1  0.80303884  0.00109610  0.00754542  1
  Mo  Mo189  1  0.19854904  0.59518447  0.25174115  1
  Mo  Mo190  1  0.59087332  -0.00226694  0.25201952  1
  Mo  Mo191  1  0.60631537  0.79237110  0.25023772  1
  Mo  Mo192  1  0.19465694  0.21021052  -0.01312296  1
  Mo  Mo193  1  0.80090231  0.00180020  0.73204748  1
  Mo  Mo194  1  0.91533974  0.69795346  0.36987415  1
  Mo  Mo195  1  0.89476019  0.30419434  0.11816462  1
  Mo  Mo196  1  0.69795399  0.29370897  0.11597786  1
  Mo  Mo197  1  0.60171933  0.40108372  0.00118517  1
  Mo  Mo198  1  0.19157208  -0.00403854  0.24831153  1
  Mo  Mo199  1  0.19924240  0.39055683  0.74488514  1
