# generated using pymatgen
data_HfZrTaTiMo
_symmetry_space_group_name_H-M   'P 1'
_cell_length_a   15.21037218
_cell_length_b   15.20851484
_cell_length_c   16.81599766
_cell_angle_alpha   90.04611236
_cell_angle_beta   89.97980208
_cell_angle_gamma   89.94654459
_symmetry_Int_Tables_number   1
_chemical_formula_structural   HfZrTaTiMo
_chemical_formula_sum   'Hf40 Zr40 Ta40 Ti40 Mo40'
_cell_volume   3889.99397184
_cell_formula_units_Z   40
loop_
 _symmetry_equiv_pos_site_id
 _symmetry_equiv_pos_as_xyz
  1  'x, y, z'
loop_
 _atom_site_type_symbol
 _atom_site_label
 _atom_site_symmetry_multiplicity
 _atom_site_fract_x
 _atom_site_fract_y
 _atom_site_fract_z
 _atom_site_occupancy
  Hf  Hf0  1  0.40912466  0.41134076  0.75827885  1
  Hf  Hf1  1  0.89591673  0.09003477  0.37079840  1
  Hf  Hf2  1  0.59184532  0.19074763  0.00522928  1
  Hf  Hf3  1  0.68909033  0.09846617  0.87654896  1
  Hf  Hf4  1  0.59809338  0.79915880  0.74824960  1
  Hf  Hf5  1  0.60349991  0.60077877  0.24620202  1
  Hf  Hf6  1  0.60499539  0.59777130  0.75284278  1
  Hf  Hf7  1  0.39933198  0.40631713  0.24855650  1
  Hf  Hf8  1  0.50378324  0.89929370  0.13131539  1
  Hf  Hf9  1  0.80014931  -0.00573670  0.75259598  1
  Hf  Hf10  1  -0.00018866  0.62498801  0.47883040  1
  Hf  Hf11  1  0.79200885  0.40271979  0.23435556  1
  Hf  Hf12  1  0.29562404  0.71031449  0.61479649  1
  Hf  Hf13  1  0.21185101  0.19839658  0.25842497  1
  Hf  Hf14  1  0.39639948  0.20378555  -0.01274006  1
  Hf  Hf15  1  0.68720952  0.10316028  0.62690866  1
  Hf  Hf16  1  0.29313241  0.90467894  0.13047489  1
  Hf  Hf17  1  0.78766638  0.40663170  0.49377759  1
  Hf  Hf18  1  0.71463236  0.30553569  0.88472807  1
  Hf  Hf19  1  0.39800004  0.81724031  0.75015523  1
  Hf  Hf20  1  0.69453232  0.89688457  0.88632021  1
  Hf  Hf21  1  0.39128272  0.00100386  0.27244702  1
  Hf  Hf22  1  0.20014312  -0.00521722  0.49853523  1
  Hf  Hf23  1  0.89988440  0.50660439  0.62134483  1
  Hf  Hf24  1  0.49359753  0.12059096  0.37044807  1
  Hf  Hf25  1  0.11007386  0.29374257  0.38525466  1
  Hf  Hf26  1  0.00508054  0.80936046  0.77488014  1
  Hf  Hf27  1  0.19679776  0.19650047  0.73534512  1
  Hf  Hf28  1  0.51015720  0.48722153  0.61510204  1
  Hf  Hf29  1  0.48992076  0.10001045  0.14275369  1
  Hf  Hf30  1  0.40990446  0.20589571  0.52688333  1
  Hf  Hf31  1  0.80154206  0.20911521  0.75282739  1
  Hf  Hf32  1  0.88362338  0.29176550  0.36785169  1
  Hf  Hf33  1  0.21195836  0.19195375  0.51856628  1
  Hf  Hf34  1  0.70287758  0.10636414  0.36765565  1
  Hf  Hf35  1  0.10211462  0.50852654  0.61255456  1
  Hf  Hf36  1  0.29714543  0.10654701  0.12569961  1
  Hf  Hf37  1  0.09749614  0.69084911  0.10345250  1
  Hf  Hf38  1  0.69399185  0.50769709  0.11144324  1
  Hf  Hf39  1  0.60861836  0.79824342  0.25015681  1
  Zr  Zr40  1  0.50204450  0.69993636  0.38202610  1
  Zr  Zr41  1  0.29973042  0.50923556  0.62273222  1
  Zr  Zr42  1  0.00483167  0.19131413  0.24326531  1
  Zr  Zr43  1  -0.00325910  0.41315163  0.47859432  1
  Zr  Zr44  1  0.19609910  -0.01983730  0.75722399  1
  Zr  Zr45  1  0.40855853  0.00923220  -0.00584190  1
  Zr  Zr46  1  0.49085480  0.31076416  0.12119874  1
  Zr  Zr47  1  0.40243223  0.61371740  0.75299450  1
  Zr  Zr48  1  0.69503011  0.06920956  0.13005502  1
  Zr  Zr49  1  -0.00792275  0.19946497  0.00856397  1
  Zr  Zr50  1  0.60376523  0.21651213  0.23904669  1
  Zr  Zr51  1  0.29750732  0.29842256  0.85404753  1
  Zr  Zr52  1  0.39735621  0.00529401  0.49597681  1
  Zr  Zr53  1  0.79755192  -0.00447068  0.50147667  1
  Zr  Zr54  1  0.00075011  0.40047021  0.26157879  1
  Zr  Zr55  1  0.79896862  0.20192271  0.02261345  1
  Zr  Zr56  1  0.70853423  0.69444929  0.62395195  1
  Zr  Zr57  1  0.89960705  0.09808385  0.62377474  1
  Zr  Zr58  1  -0.00349276  0.19110687  0.50220874  1
  Zr  Zr59  1  0.69222056  0.30844624  0.62715078  1
  Zr  Zr60  1  0.38852390  0.40855162  -0.01796772  1
  Zr  Zr61  1  0.11067267  0.48612742  0.12148080  1
  Zr  Zr62  1  0.00847049  0.59679957  0.25768934  1
  Zr  Zr63  1  0.28854201  0.31455733  0.12244714  1
  Zr  Zr64  1  0.10063388  0.69809208  0.63194477  1
  Zr  Zr65  1  -0.01327339  -0.01069237  0.23405928  1
  Zr  Zr66  1  0.08979161  0.09592248  0.87402739  1
  Zr  Zr67  1  0.80182936  0.79625995  0.75890660  1
  Zr  Zr68  1  0.11120279  0.67997090  0.89623831  1
  Zr  Zr69  1  0.09116970  0.30782553  0.61981323  1
  Zr  Zr70  1  0.19688597  0.20297982  -0.01400339  1
  Zr  Zr71  1  0.30699753  0.70337663  0.12416632  1
  Zr  Zr72  1  0.89721977  0.70097936  0.89737176  1
  Zr  Zr73  1  0.18773386  -0.00635641  0.25911083  1
  Zr  Zr74  1  0.90053812  0.88036577  0.36632607  1
  Zr  Zr75  1  0.20900835  0.59756342  0.25592431  1
  Zr  Zr76  1  0.00474350  0.58746282  0.76763186  1
  Zr  Zr77  1  0.80951489  0.78632531  0.50221207  1
  Zr  Zr78  1  0.40201510  0.80973967  -0.00669305  1
  Zr  Zr79  1  0.31718968  0.49511555  0.38531934  1
  Ta  Ta80  1  0.68857912  0.30582699  0.37272139  1
  Ta  Ta81  1  0.31065554  0.09038294  0.85200046  1
  Ta  Ta82  1  0.18772812  0.41451852  0.75396053  1
  Ta  Ta83  1  0.49934843  0.31514054  0.37923082  1
  Ta  Ta84  1  0.20432377  -0.00497777  -0.01325818  1
  Ta  Ta85  1  0.61777690  0.59678906  0.49807526  1
  Ta  Ta86  1  0.10113454  0.29430363  0.12801041  1
  Ta  Ta87  1  0.91096317  0.69948826  0.63336295  1
  Ta  Ta88  1  0.09435061  0.89092135  0.10789601  1
  Ta  Ta89  1  -0.00599515  0.56144454  -0.00405727  1
  Ta  Ta90  1  0.51097623  0.29574576  0.86249716  1
  Ta  Ta91  1  0.71174234  0.50369421  0.89372756  1
  Ta  Ta92  1  0.00661017  -0.02020345  0.49702015  1
  Ta  Ta93  1  0.20241570  0.78848690  0.76636667  1
  Ta  Ta94  1  -0.00850052  0.78528084  0.23334398  1
  Ta  Ta95  1  0.50248962  0.70473199  0.61075595  1
  Ta  Ta96  1  0.40591171  0.60320952  0.50268655  1
  Ta  Ta97  1  0.29566049  0.70015042  0.38355643  1
  Ta  Ta98  1  0.80941203  0.61911868  0.22904031  1
  Ta  Ta99  1  0.59306111  0.00219009  0.49258293  1
  Ta  Ta100  1  0.71936147  0.69321184  0.37362352  1
  Ta  Ta101  1  0.09805379  0.88943893  0.62882259  1
  Ta  Ta102  1  0.87822494  0.88448449  0.11867537  1
  Ta  Ta103  1  0.60275139  0.39713266  -0.00213294  1
  Ta  Ta104  1  0.82448423  0.40469573  0.01840382  1
  Ta  Ta105  1  0.69517476  0.90051760  0.62088514  1
  Ta  Ta106  1  0.40414950  0.61053432  -0.00677968  1
  Ta  Ta107  1  0.18109129  0.79888498  0.48939543  1
  Ta  Ta108  1  0.51361781  0.50863017  0.88717033  1
  Ta  Ta109  1  0.60117954  0.80747488  0.49519973  1
  Ta  Ta110  1  0.80414994  0.19496989  0.22607284  1
  Ta  Ta111  1  -0.00482232  0.20053038  0.75006110  1
  Ta  Ta112  1  0.59157092  -0.00254895  0.74370162  1
  Ta  Ta113  1  0.21414105  0.39835240  0.49791089  1
  Ta  Ta114  1  0.10487346  0.08826394  0.11437509  1
  Ta  Ta115  1  0.49441786  0.51553199  0.11116599  1
  Ta  Ta116  1  0.70666161  0.50144432  0.62759683  1
  Ta  Ta117  1  0.90872808  0.89196539  0.62783122  1
  Ta  Ta118  1  0.61379296  0.40460327  0.76335953  1
  Ta  Ta119  1  0.69367492  0.69262515  0.89209648  1
  Ti  Ti120  1  0.19932849  0.40187511  0.26629998  1
  Ti  Ti121  1  -0.00626256  -0.00171618  0.75765857  1
  Ti  Ti122  1  0.87851724  0.51915766  0.36930410  1
  Ti  Ti123  1  0.80763430  0.41003304  0.75517398  1
  Ti  Ti124  1  0.59742178  -0.00891902  0.26738309  1
  Ti  Ti125  1  0.18735131  0.79508034  0.25154501  1
  Ti  Ti126  1  0.20267225  0.80430180  -0.01060957  1
  Ti  Ti127  1  0.49692617  0.10559203  0.85248583  1
  Ti  Ti128  1  0.80570889  0.60289794  0.01380363  1
  Ti  Ti129  1  0.79210873  0.20318386  0.50088118  1
  Ti  Ti130  1  0.29475417  0.90298210  0.62265662  1
  Ti  Ti131  1  0.51018533  0.49643305  0.38941021  1
  Ti  Ti132  1  0.69458742  0.50012141  0.36949750  1
  Ti  Ti133  1  0.59807491  0.20829376  0.50208852  1
  Ti  Ti134  1  0.39913539  0.81029375  0.49512708  1
  Ti  Ti135  1  0.09508117  0.08290176  0.62855356  1
  Ti  Ti136  1  0.49627947  0.91515334  0.87088479  1
  Ti  Ti137  1  0.70093996  0.89659761  0.37596427  1
  Ti  Ti138  1  0.30203437  0.50697093  0.11530763  1
  Ti  Ti139  1  0.30538268  0.70308245  0.87933681  1
  Ti  Ti140  1  0.49958191  0.90564573  0.61869464  1
  Ti  Ti141  1  0.31602659  0.28708772  0.38503061  1
  Ti  Ti142  1  0.89051257  0.10127808  0.87755529  1
  Ti  Ti143  1  0.31020366  0.31385391  0.63639492  1
  Ti  Ti144  1  0.40040531  0.79797420  0.26014159  1
  Ti  Ti145  1  0.18152526  0.40118871  -0.02025815  1
  Ti  Ti146  1  0.10159623  0.09164645  0.38048568  1
  Ti  Ti147  1  0.80191304  0.59662309  0.76269148  1
  Ti  Ti148  1  0.91444645  0.30878372  0.87904649  1
  Ti  Ti149  1  0.29085829  0.89020887  0.37483899  1
  Ti  Ti150  1  0.40915880  0.60621791  0.24772980  1
  Ti  Ti151  1  0.59605578  0.80231997  0.00621080  1
  Ti  Ti152  1  0.79854469  -0.00571264  0.00080725  1
  Ti  Ti153  1  0.50599800  0.70790445  0.87850191  1
  Ti  Ti154  1  0.28404377  0.51802129  0.87177946  1
  Ti  Ti155  1  -0.00842876  -0.00683073  0.00357314  1
  Ti  Ti156  1  0.70647919  0.71753469  0.11120179  1
  Ti  Ti157  1  -0.00520126  0.39450885  0.75289797  1
  Ti  Ti158  1  0.89522430  0.30603420  0.62280154  1
  Ti  Ti159  1  0.59538967  0.40818924  0.24134014  1
  Mo  Mo160  1  0.80421072  0.59315725  0.49540803  1
  Mo  Mo161  1  0.21316462  0.58832152  -0.00073784  1
  Mo  Mo162  1  0.20193635  0.60359745  0.48727929  1
  Mo  Mo163  1  0.09303163  0.29782554  0.85970163  1
  Mo  Mo164  1  0.90606133  0.50387913  0.12913750  1
  Mo  Mo165  1  0.00332200  0.38338506  0.00390069  1
  Mo  Mo166  1  0.09600907  0.89412536  0.89639753  1
  Mo  Mo167  1  -0.00225964  0.80522340  -0.00071207  1
  Mo  Mo168  1  0.10157785  0.71719651  0.36455055  1
  Mo  Mo169  1  0.90083476  0.91818342  0.88735764  1
  Mo  Mo170  1  0.50613700  0.09617490  0.62984300  1
  Mo  Mo171  1  0.78514370  -0.01409319  0.25051980  1
  Mo  Mo172  1  0.90090767  0.08419139  0.12595577  1
  Mo  Mo173  1  0.58868234  -0.00393884  -0.00498138  1
  Mo  Mo174  1  0.90676286  0.30125201  0.13851398  1
  Mo  Mo175  1  0.50735959  0.29824954  0.64738786  1
  Mo  Mo176  1  0.29277679  0.10938174  0.38317687  1
  Mo  Mo177  1  0.40187076  -0.00053248  0.73878330  1
  Mo  Mo178  1  0.20489315  0.60207064  0.75544360  1
  Mo  Mo179  1  0.39765997  0.21154525  0.25897151  1
  Mo  Mo180  1  0.30046398  0.89889632  0.87428287  1
  Mo  Mo181  1  0.40603880  0.19894646  0.73209561  1
  Mo  Mo182  1  0.59739885  0.39812689  0.49675613  1
  Mo  Mo183  1  0.00049985  0.80566987  0.50361265  1
  Mo  Mo184  1  0.11635865  0.50513350  0.38925371  1
  Mo  Mo185  1  0.50397749  0.69756845  0.12654794  1
  Mo  Mo186  1  0.90404546  0.69556668  0.10641752  1
  Mo  Mo187  1  0.50360112  0.89888780  0.37825446  1
  Mo  Mo188  1  0.69273163  0.89377972  0.11520818  1
  Mo  Mo189  1  0.79626934  0.80200767  -0.00462925  1
  Mo  Mo190  1  0.40423817  0.39352945  0.50715691  1
  Mo  Mo191  1  0.09451037  0.48238303  0.87480550  1
  Mo  Mo192  1  0.60253191  0.20308126  0.75524125  1
  Mo  Mo193  1  0.89761053  0.70050166  0.36268657  1
  Mo  Mo194  1  0.59887242  0.60911400  0.00129998  1
  Mo  Mo195  1  0.30076562  0.09148511  0.64272989  1
  Mo  Mo196  1  0.88948985  0.48740472  0.87706926  1
  Mo  Mo197  1  0.09681669  0.89336318  0.36778996  1
  Mo  Mo198  1  0.79647096  0.79862939  0.24255230  1
  Mo  Mo199  1  0.69762379  0.30627283  0.11530288  1
