# generated using pymatgen
data_HfZrTaTiMo
_symmetry_space_group_name_H-M   'P 1'
_cell_length_a   15.19476474
_cell_length_b   15.18656431
_cell_length_c   16.80828804
_cell_angle_alpha   90.00007173
_cell_angle_beta   89.93963600
_cell_angle_gamma   89.96784847
_symmetry_Int_Tables_number   1
_chemical_formula_structural   HfZrTaTiMo
_chemical_formula_sum   'Hf40 Zr40 Ta40 Ti40 Mo40'
_cell_volume   3878.61512099
_cell_formula_units_Z   40
loop_
 _symmetry_equiv_pos_site_id
 _symmetry_equiv_pos_as_xyz
  1  'x, y, z'
loop_
 _atom_site_type_symbol
 _atom_site_label
 _atom_site_symmetry_multiplicity
 _atom_site_fract_x
 _atom_site_fract_y
 _atom_site_fract_z
 _atom_site_occupancy
  Hf  Hf0  1  0.60247864  0.39667391  -0.00173348  1
  Hf  Hf1  1  0.00027935  -0.00669252  0.01464075  1
  Hf  Hf2  1  0.90478170  0.87573480  0.13169810  1
  Hf  Hf3  1  0.39961723  0.58951418  0.74806622  1
  Hf  Hf4  1  0.90753809  0.50398387  0.11651665  1
  Hf  Hf5  1  0.89925070  0.92623208  0.86587150  1
  Hf  Hf6  1  0.09681399  0.68148861  0.61108877  1
  Hf  Hf7  1  0.79468496  0.80095071  0.76037588  1
  Hf  Hf8  1  0.69175746  0.88805276  0.63664855  1
  Hf  Hf9  1  0.69367070  0.51814017  0.64005298  1
  Hf  Hf10  1  0.51375159  0.09994658  0.87900681  1
  Hf  Hf11  1  0.49267010  0.90588976  0.86186893  1
  Hf  Hf12  1  0.19942524  0.20174377  0.01000106  1
  Hf  Hf13  1  0.19941876  0.57779418  0.75894077  1
  Hf  Hf14  1  0.81036334  0.60428723  0.76194907  1
  Hf  Hf15  1  0.29681882  0.90394170  0.86180899  1
  Hf  Hf16  1  0.81176163  0.20816913  0.49647642  1
  Hf  Hf17  1  0.09597064  0.09144937  0.36010504  1
  Hf  Hf18  1  0.37781759  0.79563886  0.23618455  1
  Hf  Hf19  1  0.91547798  0.30138247  0.62160121  1
  Hf  Hf20  1  0.29780300  0.50839327  0.38192773  1
  Hf  Hf21  1  0.00532574  0.40246877  0.75616618  1
  Hf  Hf22  1  0.10172692  0.50865427  0.11668358  1
  Hf  Hf23  1  0.39902061  0.59631813  0.23965978  1
  Hf  Hf24  1  0.77372169  0.60097404  0.48811024  1
  Hf  Hf25  1  0.59782371  -0.00162197  0.00728212  1
  Hf  Hf26  1  0.90194798  0.50117884  0.61994588  1
  Hf  Hf27  1  0.49179865  0.30167722  0.87534330  1
  Hf  Hf28  1  0.90368138  0.90911357  0.36700192  1
  Hf  Hf29  1  0.31370333  0.08580548  0.12556663  1
  Hf  Hf30  1  0.50619721  0.29779591  0.12359552  1
  Hf  Hf31  1  0.48301009  0.89800502  0.36335394  1
  Hf  Hf32  1  0.70685285  0.50043482  0.12317829  1
  Hf  Hf33  1  0.19982724  -0.02782764  0.24607636  1
  Hf  Hf34  1  0.79707857  0.01317696  0.23735214  1
  Hf  Hf35  1  0.61308502  0.20101782  0.24958830  1
  Hf  Hf36  1  0.38877091  0.20002037  0.74277408  1
  Hf  Hf37  1  0.28802002  0.10922472  0.62051343  1
  Hf  Hf38  1  0.19977015  0.61868726  0.24518305  1
  Hf  Hf39  1  0.11006802  0.69870983  0.39561415  1
  Zr  Zr40  1  0.50114144  0.50563036  0.12088888  1
  Zr  Zr41  1  0.18965504  0.20412623  0.48168703  1
  Zr  Zr42  1  0.91250578  0.69810493  0.39117191  1
  Zr  Zr43  1  0.48167097  0.90806227  0.13054989  1
  Zr  Zr44  1  0.79802258  0.02597834  0.01289696  1
  Zr  Zr45  1  0.70405176  0.09129873  0.39226575  1
  Zr  Zr46  1  0.69171068  0.09415918  0.60182211  1
  Zr  Zr47  1  0.31100066  0.70680375  0.38922346  1
  Zr  Zr48  1  0.50318808  0.30135914  0.38603049  1
  Zr  Zr49  1  0.50457917  0.50359656  0.37697727  1
  Zr  Zr50  1  0.69450997  0.49957574  0.86721287  1
  Zr  Zr51  1  0.30330604  0.90861346  0.65183872  1
  Zr  Zr52  1  0.52721160  0.70078808  0.64549681  1
  Zr  Zr53  1  0.09150847  0.71278947  0.10896064  1
  Zr  Zr54  1  0.39916026  0.80333585  -0.00228042  1
  Zr  Zr55  1  0.59575165  0.18266213  0.73717241  1
  Zr  Zr56  1  0.80274228  0.61800837  -0.00881485  1
  Zr  Zr57  1  0.91304153  0.49338101  0.89094051  1
  Zr  Zr58  1  0.80966611  0.19793993  0.74515590  1
  Zr  Zr59  1  0.21354595  0.80857267  0.51887732  1
  Zr  Zr60  1  0.79780811  0.81352713  -0.01070688  1
  Zr  Zr61  1  0.10099900  0.10342349  0.13283434  1
  Zr  Zr62  1  0.68970772  0.89116102  0.13848994  1
  Zr  Zr63  1  0.51155715  0.70327653  0.36629372  1
  Zr  Zr64  1  0.01423926  0.18918720  0.75399870  1
  Zr  Zr65  1  0.70096983  0.29364986  0.86354013  1
  Zr  Zr66  1  0.30584281  0.10383179  0.88247352  1
  Zr  Zr67  1  0.68653044  0.88772400  0.35751206  1
  Zr  Zr68  1  0.40537159  0.19518981  0.25605174  1
  Zr  Zr69  1  0.89735555  0.70138134  0.61367762  1
  Zr  Zr70  1  0.08999509  0.91409089  0.64322853  1
  Zr  Zr71  1  0.19534767  0.77366283  0.75151253  1
  Zr  Zr72  1  0.49856315  0.29502476  0.61150230  1
  Zr  Zr73  1  0.89077882  0.29716893  0.12970196  1
  Zr  Zr74  1  0.50735159  0.09473737  0.39180554  1
  Zr  Zr75  1  0.70839089  0.31716545  0.63027734  1
  Zr  Zr76  1  0.09194877  0.30916664  0.13926708  1
  Zr  Zr77  1  0.79803386  0.81750828  0.49664060  1
  Zr  Zr78  1  0.08997161  0.30555196  0.35110545  1
  Zr  Zr79  1  0.09724219  0.90187325  0.86230719  1
  Ta  Ta80  1  -0.00849328  0.79047632  0.75389328  1
  Ta  Ta81  1  0.08993277  0.10217808  0.88785876  1
  Ta  Ta82  1  0.42154664  0.80986949  0.51727848  1
  Ta  Ta83  1  0.38882527  -0.00730451  0.50721533  1
  Ta  Ta84  1  -0.00629905  0.00736738  0.49601668  1
  Ta  Ta85  1  0.90451313  0.10730829  0.37205076  1
  Ta  Ta86  1  0.29223263  0.31031700  0.61618011  1
  Ta  Ta87  1  0.90326345  0.29193516  0.88274905  1
  Ta  Ta88  1  0.30114796  0.30322972  0.13082550  1
  Ta  Ta89  1  0.90218141  0.09331794  0.61481851  1
  Ta  Ta90  1  0.50475257  0.69494456  0.87157354  1
  Ta  Ta91  1  -0.00581322  0.60861277  0.24984795  1
  Ta  Ta92  1  0.10154106  0.48647993  0.62071993  1
  Ta  Ta93  1  0.49798583  0.49542619  0.62046670  1
  Ta  Ta94  1  0.18879729  0.03674475  0.75533409  1
  Ta  Ta95  1  0.39290659  0.39566047  0.00375023  1
  Ta  Ta96  1  0.09916023  0.30276718  0.88723326  1
  Ta  Ta97  1  0.19819604  0.39960648  0.00347522  1
  Ta  Ta98  1  0.19151502  0.40718543  0.49061816  1
  Ta  Ta99  1  0.61271529  0.41401921  0.49973754  1
  Ta  Ta100  1  0.20181670  -0.00773330  0.00045881  1
  Ta  Ta101  1  0.90618851  0.49546144  0.37515464  1
  Ta  Ta102  1  0.30314356  0.08650874  0.37225696  1
  Ta  Ta103  1  0.39185656  0.19660709  0.49665650  1
  Ta  Ta104  1  0.60438293  0.79670498  -0.01060915  1
  Ta  Ta105  1  0.29606176  0.49781959  0.61536542  1
  Ta  Ta106  1  0.68864193  0.91997360  0.86595400  1
  Ta  Ta107  1  0.41353371  0.60913203  0.51252229  1
  Ta  Ta108  1  0.18972174  -0.00270260  0.49597168  1
  Ta  Ta109  1  0.79664391  0.40190320  0.25830016  1
  Ta  Ta110  1  0.60703262  0.40176219  0.25175338  1
  Ta  Ta111  1  0.60754631  0.77553121  0.50107576  1
  Ta  Ta112  1  0.01101688  0.60353469  0.76294175  1
  Ta  Ta113  1  0.02338725  0.80121777  0.25723172  1
  Ta  Ta114  1  0.48758007  0.50327293  0.88310574  1
  Ta  Ta115  1  0.58746593  -0.03240370  0.50585005  1
  Ta  Ta116  1  0.20992152  0.41237518  0.24752230  1
  Ta  Ta117  1  0.30629407  0.68457779  0.88625482  1
  Ta  Ta118  1  -0.00204614  -0.00403961  0.23744145  1
  Ta  Ta119  1  0.10919109  0.29728151  0.62163033  1
  Ti  Ti120  1  0.30840245  0.69350337  0.62351850  1
  Ti  Ti121  1  0.29932720  0.49045853  0.88841526  1
  Ti  Ti122  1  0.80424138  0.40689734  0.48813430  1
  Ti  Ti123  1  0.50438742  0.10110111  0.12089117  1
  Ti  Ti124  1  0.89655752  0.91005103  0.63236505  1
  Ti  Ti125  1  0.50034306  0.90973263  0.64939424  1
  Ti  Ti126  1  0.29996099  0.49991013  0.11401287  1
  Ti  Ti127  1  0.09183383  0.10853377  0.61630638  1
  Ti  Ti128  1  0.60003274  0.60810810  -0.00352369  1
  Ti  Ti129  1  0.70998176  0.70153787  0.12945932  1
  Ti  Ti130  1  0.39048000  0.39954773  0.74794271  1
  Ti  Ti131  1  0.62593620  0.19622606  0.00719239  1
  Ti  Ti132  1  0.39463970  0.40267795  0.49793580  1
  Ti  Ti133  1  0.18920920  0.79571029  -0.01818865  1
  Ti  Ti134  1  -0.01546422  0.19606472  0.00476913  1
  Ti  Ti135  1  0.40615067  0.19842822  0.00514007  1
  Ti  Ti136  1  0.79253045  0.01443583  0.74815121  1
  Ti  Ti137  1  0.27811911  0.88348190  0.11273911  1
  Ti  Ti138  1  0.51140201  0.70460539  0.12207668  1
  Ti  Ti139  1  0.00982929  0.82249579  0.50384506  1
  Ti  Ti140  1  0.79815435  0.20420136  0.25391212  1
  Ti  Ti141  1  0.61459625  0.60332785  0.24855165  1
  Ti  Ti142  1  0.40069942  0.78973799  0.75388849  1
  Ti  Ti143  1  0.80873590  0.77979869  0.25639661  1
  Ti  Ti144  1  0.28861459  0.89461878  0.37839268  1
  Ti  Ti145  1  0.58816231  0.00723718  0.24500865  1
  Ti  Ti146  1  0.20279875  0.38771197  0.75538877  1
  Ti  Ti147  1  0.20895964  0.19983814  0.25123612  1
  Ti  Ti148  1  0.90349353  0.30112305  0.36438356  1
  Ti  Ti149  1  0.29589791  0.30025424  0.88027736  1
  Ti  Ti150  1  0.00280652  0.38742991  0.49160849  1
  Ti  Ti151  1  0.80315492  0.59522654  0.25840085  1
  Ti  Ti152  1  0.29620403  0.68811412  0.09877497  1
  Ti  Ti153  1  0.29921266  0.30459285  0.36974903  1
  Ti  Ti154  1  0.58482403  0.40632702  0.75031245  1
  Ti  Ti155  1  0.69982790  0.30349435  0.38260542  1
  Ti  Ti156  1  0.79924784  0.38650240  0.00141145  1
  Ti  Ti157  1  0.09588388  0.50474713  0.36929669  1
  Ti  Ti158  1  -0.01052779  0.78835642  -0.01847378  1
  Ti  Ti159  1  0.40117142  0.39895582  0.24814271  1
  Mo  Mo160  1  0.39454178  0.00497782  0.00047664  1
  Mo  Mo161  1  0.49010421  0.08870989  0.60478680  1
  Mo  Mo162  1  0.39394684  -0.00138415  0.25553548  1
  Mo  Mo163  1  0.69288184  0.70758760  0.87607578  1
  Mo  Mo164  1  0.80164527  -0.00580238  0.50034027  1
  Mo  Mo165  1  0.11075273  0.49206506  0.88691535  1
  Mo  Mo166  1  0.10057839  0.89378933  0.11372213  1
  Mo  Mo167  1  0.59590010  0.59548075  0.76428331  1
  Mo  Mo168  1  0.20755478  0.59241548  0.50748894  1
  Mo  Mo169  1  0.70111854  0.49414673  0.36598110  1
  Mo  Mo170  1  0.89696307  0.69317562  0.13365720  1
  Mo  Mo171  1  0.09827394  0.89710629  0.38135926  1
  Mo  Mo172  1  0.70940459  0.09752300  0.87320240  1
  Mo  Mo173  1  0.19807407  0.21583597  0.75460235  1
  Mo  Mo174  1  -0.00620212  0.41608822  0.25358485  1
  Mo  Mo175  1  0.40157492  0.01337316  0.74303210  1
  Mo  Mo176  1  0.19751074  0.79269047  0.24848844  1
  Mo  Mo177  1  0.60046286  0.20955240  0.50495617  1
  Mo  Mo178  1  -0.01504984  0.19277351  0.24815641  1
  Mo  Mo179  1  0.00628929  0.60325836  -0.01253534  1
  Mo  Mo180  1  0.90610954  0.70802491  0.86957329  1
  Mo  Mo181  1  0.10007881  0.69058742  0.88313360  1
  Mo  Mo182  1  0.00118689  0.19908525  0.49484286  1
  Mo  Mo183  1  0.89983799  0.10343277  0.13522258  1
  Mo  Mo184  1  0.80798191  0.39916908  0.75138490  1
  Mo  Mo185  1  0.59682589  0.59732726  0.50116621  1
  Mo  Mo186  1  0.69355762  0.11443509  0.13233078  1
  Mo  Mo187  1  0.00889835  0.56941424  0.49545348  1
  Mo  Mo188  1  0.20582670  0.59698345  -0.00803871  1
  Mo  Mo189  1  0.59564042  0.78933460  0.23724708  1
  Mo  Mo190  1  0.60057396  0.80002758  0.76928501  1
  Mo  Mo191  1  0.69979790  0.30848704  0.12902158  1
  Mo  Mo192  1  0.79734331  0.20652661  0.00011026  1
  Mo  Mo193  1  0.60078999  0.00471904  0.74412855  1
  Mo  Mo194  1  0.90174488  0.10829305  0.87963138  1
  Mo  Mo195  1  0.00364339  0.38963561  -0.00042783  1
  Mo  Mo196  1  0.40681434  0.59734546  0.00162685  1
  Mo  Mo197  1  -0.01054204  0.00729862  0.74519507  1
  Mo  Mo198  1  0.70643809  0.69921699  0.63102969  1
  Mo  Mo199  1  0.70176202  0.69564565  0.35997846  1
