# generated using pymatgen
data_HfZrTaTiMo
_symmetry_space_group_name_H-M   'P 1'
_cell_length_a   15.16398458
_cell_length_b   15.17227706
_cell_length_c   16.82049153
_cell_angle_alpha   89.98547408
_cell_angle_beta   89.98411551
_cell_angle_gamma   89.93611793
_symmetry_Int_Tables_number   1
_chemical_formula_structural   HfZrTaTiMo
_chemical_formula_sum   'Hf40 Zr40 Ta40 Ti40 Mo40'
_cell_volume   3869.92439951
_cell_formula_units_Z   40
loop_
 _symmetry_equiv_pos_site_id
 _symmetry_equiv_pos_as_xyz
  1  'x, y, z'
loop_
 _atom_site_type_symbol
 _atom_site_label
 _atom_site_symmetry_multiplicity
 _atom_site_fract_x
 _atom_site_fract_y
 _atom_site_fract_z
 _atom_site_occupancy
  Hf  Hf0  1  0.59877541  0.78450990  -0.00970345  1
  Hf  Hf1  1  0.50489347  0.48193544  0.86888245  1
  Hf  Hf2  1  0.08926333  0.50669316  0.86725261  1
  Hf  Hf3  1  0.19477793  0.18689814  0.25283501  1
  Hf  Hf4  1  0.29432425  0.29133820  0.37465726  1
  Hf  Hf5  1  0.80970383  -0.00550517  0.75184969  1
  Hf  Hf6  1  0.89155094  0.91340225  0.11813640  1
  Hf  Hf7  1  0.48579534  0.10039582  0.11893943  1
  Hf  Hf8  1  0.89523460  0.69652325  0.12907080  1
  Hf  Hf9  1  0.20246665  0.60261375  0.26059533  1
  Hf  Hf10  1  -0.01243513  0.60288326  -0.00441583  1
  Hf  Hf11  1  0.60622253  0.79650056  0.74366902  1
  Hf  Hf12  1  0.71036482  0.68573856  0.86313673  1
  Hf  Hf13  1  0.10496430  0.90206519  0.39735248  1
  Hf  Hf14  1  0.00591540  0.01251134  0.24187059  1
  Hf  Hf15  1  0.19883530  0.40422438  0.25060095  1
  Hf  Hf16  1  0.50014233  0.68943797  0.85839416  1
  Hf  Hf17  1  0.28952597  0.27918122  0.62912575  1
  Hf  Hf18  1  0.30464191  0.48490743  0.12036706  1
  Hf  Hf19  1  0.70375658  0.50338287  0.39050809  1
  Hf  Hf20  1  0.09748265  0.91884613  0.61312360  1
  Hf  Hf21  1  0.00005790  0.59061448  0.26030614  1
  Hf  Hf22  1  0.29724191  0.27484072  0.12260150  1
  Hf  Hf23  1  0.90265740  0.31715875  0.86313696  1
  Hf  Hf24  1  0.59727544  0.61332851  0.50488773  1
  Hf  Hf25  1  0.39548949  0.18235500  0.76023803  1
  Hf  Hf26  1  0.01316634  0.21477273  -0.01131430  1
  Hf  Hf27  1  0.20595283  0.40017955  0.75731315  1
  Hf  Hf28  1  0.49984369  0.88706366  0.11572969  1
  Hf  Hf29  1  0.79016166  0.81175915  0.25178680  1
  Hf  Hf30  1  0.50987675  0.49286378  0.11842317  1
  Hf  Hf31  1  0.01045276  0.22481542  0.51239680  1
  Hf  Hf32  1  0.89146781  0.29378132  0.12007712  1
  Hf  Hf33  1  -0.00123215  0.00877257  0.00180245  1
  Hf  Hf34  1  0.80136097  0.20590552  -0.01609889  1
  Hf  Hf35  1  0.40209276  0.58545708  -0.01413585  1
  Hf  Hf36  1  0.39697439  -0.00241106  0.25245983  1
  Hf  Hf37  1  0.70947942  0.89842513  0.62954800  1
  Hf  Hf38  1  0.09179606  0.31087640  0.12930475  1
  Hf  Hf39  1  0.20158355  0.61574767  -0.01425058  1
  Zr  Zr40  1  0.80359496  0.01962451  0.25397373  1
  Zr  Zr41  1  0.90977893  0.09635069  0.86572045  1
  Zr  Zr42  1  0.00049224  0.80291554  0.25722254  1
  Zr  Zr43  1  0.10548663  0.49300003  0.39230350  1
  Zr  Zr44  1  0.20666984  0.60421162  0.51301972  1
  Zr  Zr45  1  0.71847687  0.09660968  0.10649087  1
  Zr  Zr46  1  0.10179222  0.72199077  0.86268590  1
  Zr  Zr47  1  0.20292671  -0.00951721  0.25093983  1
  Zr  Zr48  1  0.78727233  0.21038288  0.75420729  1
  Zr  Zr49  1  0.69358627  0.31553156  0.12860813  1
  Zr  Zr50  1  0.58828627  0.41196183  0.26489862  1
  Zr  Zr51  1  0.89335427  0.31663447  0.63467500  1
  Zr  Zr52  1  0.40914698  0.58677084  0.50462599  1
  Zr  Zr53  1  0.49915227  0.09946580  0.38128426  1
  Zr  Zr54  1  0.69604229  0.10744273  0.62358035  1
  Zr  Zr55  1  0.09695581  0.49124084  0.62128228  1
  Zr  Zr56  1  0.30089105  0.69534783  0.12575797  1
  Zr  Zr57  1  0.79838062  0.60252604  0.26162445  1
  Zr  Zr58  1  0.70525558  0.89855884  0.87609541  1
  Zr  Zr59  1  0.41103471  0.79119695  0.25833987  1
  Zr  Zr60  1  0.91497854  0.09673121  0.62550287  1
  Zr  Zr61  1  0.56638236  0.39856348  0.48875458  1
  Zr  Zr62  1  0.20485736  0.79972183  0.25974770  1
  Zr  Zr63  1  0.38106098  0.78788175  -0.01452445  1
  Zr  Zr64  1  0.59221852  0.00885009  0.74977969  1
  Zr  Zr65  1  0.90074660  0.11399533  0.38592919  1
  Zr  Zr66  1  0.89076890  0.51379401  0.61069838  1
  Zr  Zr67  1  0.69849412  0.28922757  0.37836790  1
  Zr  Zr68  1  0.20400181  0.61087328  0.73883587  1
  Zr  Zr69  1  0.40494716  0.58269773  0.26265653  1
  Zr  Zr70  1  0.58565563  0.21647860  -0.00429130  1
  Zr  Zr71  1  0.19793738  0.39634890  -0.01285297  1
  Zr  Zr72  1  0.60443681  -0.01890036  0.24786243  1
  Zr  Zr73  1  0.81853900  0.39432485  0.26457812  1
  Zr  Zr74  1  0.60165484  0.19161010  0.24622425  1
  Zr  Zr75  1  0.10129927  0.10384531  0.38970560  1
  Zr  Zr76  1  0.70041965  0.49450826  0.60500329  1
  Zr  Zr77  1  0.68638979  0.72138718  0.37427569  1
  Zr  Zr78  1  0.48265454  0.09978984  0.61979011  1
  Zr  Zr79  1  0.01093266  0.80298800  0.00271470  1
  Ta  Ta80  1  0.49101618  0.89687114  0.86721457  1
  Ta  Ta81  1  0.78795885  0.59843611  0.00182807  1
  Ta  Ta82  1  0.48643090  0.30986892  0.63289464  1
  Ta  Ta83  1  0.80511295  0.00036054  0.50194677  1
  Ta  Ta84  1  0.69530293  0.10131698  0.88164586  1
  Ta  Ta85  1  0.90107330  0.49220625  0.12476624  1
  Ta  Ta86  1  0.60055471  0.80224352  0.51977410  1
  Ta  Ta87  1  0.38066383  0.18385420  -0.01260981  1
  Ta  Ta88  1  -0.00548403  0.79587071  0.50331994  1
  Ta  Ta89  1  0.38734933  0.79327360  0.74307791  1
  Ta  Ta90  1  0.80244583  0.80532826  0.49645990  1
  Ta  Ta91  1  -0.00716373  0.41006361  -0.00765247  1
  Ta  Ta92  1  0.40644631  0.79064332  0.51539542  1
  Ta  Ta93  1  -0.01387724  0.61645500  0.73905230  1
  Ta  Ta94  1  0.68573736  0.30758157  0.61922562  1
  Ta  Ta95  1  0.10636850  0.91641127  0.86735657  1
  Ta  Ta96  1  0.59947366  -0.00573415  0.50530665  1
  Ta  Ta97  1  0.20722538  0.00205889  -0.00000272  1
  Ta  Ta98  1  0.19551052  0.19320389  0.75990629  1
  Ta  Ta99  1  0.50106217  0.69081228  0.64005862  1
  Ta  Ta100  1  0.79767395  0.20984411  0.50907233  1
  Ta  Ta101  1  0.10277835  0.70084535  0.12603861  1
  Ta  Ta102  1  0.80460261  0.79486566  -0.00187300  1
  Ta  Ta103  1  0.11006324  0.10938323  0.11510080  1
  Ta  Ta104  1  0.78217360  0.42313824  0.76009728  1
  Ta  Ta105  1  0.29988183  0.29334965  0.87410050  1
  Ta  Ta106  1  0.31771439  0.47794681  0.62340965  1
  Ta  Ta107  1  0.91021410  0.89062509  0.87267911  1
  Ta  Ta108  1  0.69971941  0.09733965  0.39043301  1
  Ta  Ta109  1  0.79952977  0.41238377  -0.01358149  1
  Ta  Ta110  1  0.30405156  0.09335695  0.38666985  1
  Ta  Ta111  1  0.19790374  0.81285115  0.72763090  1
  Ta  Ta112  1  0.61100976  0.58126319  0.73786132  1
  Ta  Ta113  1  0.50645939  0.68715629  0.12066724  1
  Ta  Ta114  1  0.50919403  0.88412590  0.38691828  1
  Ta  Ta115  1  0.39651432  -0.00960754  -0.00798777  1
  Ta  Ta116  1  0.31094986  0.89591164  0.39800745  1
  Ta  Ta117  1  0.09721543  0.50972393  0.11960838  1
  Ta  Ta118  1  0.49521945  0.09051577  0.88020813  1
  Ta  Ta119  1  0.39716081  0.58056162  0.74828031  1
  Ti  Ti120  1  0.31145324  0.90934136  0.61795910  1
  Ti  Ti121  1  -0.00060703  0.81070226  0.73797000  1
  Ti  Ti122  1  0.61111897  0.40857104  -0.00886511  1
  Ti  Ti123  1  0.19141391  0.37533454  0.50820182  1
  Ti  Ti124  1  0.21641625  0.00727637  0.74264974  1
  Ti  Ti125  1  0.31222874  0.48198025  0.38789624  1
  Ti  Ti126  1  0.28982220  0.89176751  0.86710373  1
  Ti  Ti127  1  0.81200068  0.62223697  0.48623064  1
  Ti  Ti128  1  0.59915602  -0.00315125  -0.00617146  1
  Ti  Ti129  1  0.69068066  0.70057732  0.12695385  1
  Ti  Ti130  1  0.01221359  0.20924565  0.74842897  1
  Ti  Ti131  1  0.59362977  0.20829497  0.76155979  1
  Ti  Ti132  1  0.21434695  0.01038132  0.50835646  1
  Ti  Ti133  1  0.59309053  0.61526594  0.26132790  1
  Ti  Ti134  1  -0.00535754  0.41429362  0.74929996  1
  Ti  Ti135  1  0.11898587  0.11681335  0.62028497  1
  Ti  Ti136  1  0.70017313  0.91089561  0.38499578  1
  Ti  Ti137  1  0.00218308  0.61302217  0.50399262  1
  Ti  Ti138  1  0.11531047  0.10639996  0.87927495  1
  Ti  Ti139  1  0.10802890  0.89867163  0.12101853  1
  Ti  Ti140  1  0.90301502  0.89734414  0.62190144  1
  Ti  Ti141  1  0.49632615  0.89998777  0.63070382  1
  Ti  Ti142  1  0.20446612  0.79284862  0.52116622  1
  Ti  Ti143  1  0.89924532  0.70138708  0.86821617  1
  Ti  Ti144  1  0.40884824  0.37866998  -0.00808501  1
  Ti  Ti145  1  0.39454100  0.20421568  0.50065425  1
  Ti  Ti146  1  0.91075170  0.49174302  0.39548517  1
  Ti  Ti147  1  0.08217167  0.30562931  0.36810015  1
  Ti  Ti148  1  0.90284624  0.90306471  0.38209779  1
  Ti  Ti149  1  -0.01760263  0.20937078  0.24940868  1
  Ti  Ti150  1  0.59735363  0.38920792  0.75212501  1
  Ti  Ti151  1  0.02054541  0.00810473  0.74994590  1
  Ti  Ti152  1  0.30492304  0.70157871  0.38870113  1
  Ti  Ti153  1  0.09952723  0.70254771  0.38486453  1
  Ti  Ti154  1  0.48467093  0.30124882  0.13698974  1
  Ti  Ti155  1  0.29850321  0.89803251  0.11817121  1
  Ti  Ti156  1  0.70391063  0.51094614  0.12816885  1
  Ti  Ti157  1  0.72225409  0.69705045  0.63127616  1
  Ti  Ti158  1  0.59087961  0.20303338  0.50148647  1
  Ti  Ti159  1  0.69850503  0.89392313  0.10889770  1
  Mo  Mo160  1  0.09449035  0.71055695  0.62598031  1
  Mo  Mo161  1  0.49739131  0.28940062  0.87416194  1
  Mo  Mo162  1  0.19920526  0.81296934  -0.00216010  1
  Mo  Mo163  1  0.40016036  0.38804477  0.75746318  1
  Mo  Mo164  1  0.00182032  0.40557987  0.50475101  1
  Mo  Mo165  1  0.79994706  -0.00619771  -0.01149300  1
  Mo  Mo166  1  0.29730346  0.09078959  0.62084543  1
  Mo  Mo167  1  0.50345954  0.48971825  0.63740165  1
  Mo  Mo168  1  0.89840175  0.71290039  0.62125578  1
  Mo  Mo169  1  0.40611952  -0.01026143  0.49892420  1
  Mo  Mo170  1  0.89185501  0.51912217  0.86801616  1
  Mo  Mo171  1  0.39676529  0.38711821  0.25057544  1
  Mo  Mo172  1  0.49715051  0.50280646  0.37541957  1
  Mo  Mo173  1  0.91246586  0.11075517  0.12061008  1
  Mo  Mo174  1  0.47993479  0.29579019  0.36444587  1
  Mo  Mo175  1  0.19933401  0.19717223  -0.01052115  1
  Mo  Mo176  1  0.60569168  0.59500627  0.00228354  1
  Mo  Mo177  1  0.29952089  0.70324356  0.85733116  1
  Mo  Mo178  1  0.29286965  0.07958024  0.87226484  1
  Mo  Mo179  1  0.80355023  0.39281792  0.49048935  1
  Mo  Mo180  1  0.20321773  0.20052903  0.49750423  1
  Mo  Mo181  1  0.60004014  0.79849800  0.24034478  1
  Mo  Mo182  1  0.39399541  -0.01608520  0.75497581  1
  Mo  Mo183  1  -0.00363276  -0.00167088  0.50486689  1
  Mo  Mo184  1  0.80243629  0.60262251  0.74430235  1
  Mo  Mo185  1  0.90536012  0.30453468  0.38263856  1
  Mo  Mo186  1  0.29726950  0.08685326  0.12007215  1
  Mo  Mo187  1  0.09586185  0.30161544  0.86026412  1
  Mo  Mo188  1  0.49394562  0.70710320  0.38451176  1
  Mo  Mo189  1  0.80177775  0.19610146  0.25141387  1
  Mo  Mo190  1  0.09744776  0.29975098  0.64293719  1
  Mo  Mo191  1  0.90693684  0.70715089  0.37934966  1
  Mo  Mo192  1  0.00320117  0.40341250  0.24694454  1
  Mo  Mo193  1  0.30612626  0.69933515  0.62832362  1
  Mo  Mo194  1  0.82010202  0.79458942  0.74896153  1
  Mo  Mo195  1  0.69132778  0.30909334  0.87314221  1
  Mo  Mo196  1  0.30505725  0.49874343  0.87428408  1
  Mo  Mo197  1  0.69645978  0.50206725  0.87412700  1
  Mo  Mo198  1  0.38541923  0.38845621  0.50258113  1
  Mo  Mo199  1  0.39615189  0.19407144  0.25280515  1
