# generated using pymatgen
data_HfZrTaTiMo
_symmetry_space_group_name_H-M   'P 1'
_cell_length_a   15.20773276
_cell_length_b   15.20551287
_cell_length_c   16.83282572
_cell_angle_alpha   89.97381147
_cell_angle_beta   89.99958580
_cell_angle_gamma   89.98214120
_symmetry_Int_Tables_number   1
_chemical_formula_structural   HfZrTaTiMo
_chemical_formula_sum   'Hf40 Zr40 Ta40 Ti40 Mo40'
_cell_volume   3892.44519054
_cell_formula_units_Z   40
loop_
 _symmetry_equiv_pos_site_id
 _symmetry_equiv_pos_as_xyz
  1  'x, y, z'
loop_
 _atom_site_type_symbol
 _atom_site_label
 _atom_site_symmetry_multiplicity
 _atom_site_fract_x
 _atom_site_fract_y
 _atom_site_fract_z
 _atom_site_occupancy
  Hf  Hf0  1  0.19181512  0.41720946  0.01029589  1
  Hf  Hf1  1  0.31067800  0.10821646  0.36877617  1
  Hf  Hf2  1  0.80152478  0.20274330  0.49950578  1
  Hf  Hf3  1  0.09726040  0.70597670  0.89189436  1
  Hf  Hf4  1  0.59045507  0.60021622  -0.00086555  1
  Hf  Hf5  1  0.59939635  -0.00414058  0.51239139  1
  Hf  Hf6  1  0.80573838  0.40974228  0.50070547  1
  Hf  Hf7  1  -0.00142534  0.20277002  0.24187082  1
  Hf  Hf8  1  0.59171726  0.20489090  0.50151069  1
  Hf  Hf9  1  0.70144940  0.70114789  0.63455195  1
  Hf  Hf10  1  0.51424521  0.89677845  0.38041212  1
  Hf  Hf11  1  0.10313884  0.90213981  0.89038210  1
  Hf  Hf12  1  0.81174818  0.20694202  -0.01084410  1
  Hf  Hf13  1  0.39619205  0.21841065  0.76274740  1
  Hf  Hf14  1  0.39589344  0.19853842  -0.01683673  1
  Hf  Hf15  1  0.59184044  0.19717261  0.25795309  1
  Hf  Hf16  1  0.17813766  0.80112912  0.74166815  1
  Hf  Hf17  1  0.90967815  0.09751959  0.63179230  1
  Hf  Hf18  1  0.29949447  0.68904116  0.38111574  1
  Hf  Hf19  1  0.79224681  0.00859275  -0.01877543  1
  Hf  Hf20  1  0.50414578  0.69781744  0.12847677  1
  Hf  Hf21  1  0.91027620  0.71707302  0.37030129  1
  Hf  Hf22  1  0.40758844  0.00087679  0.24127573  1
  Hf  Hf23  1  0.50097676  0.88986885  0.85706103  1
  Hf  Hf24  1  -0.00518944  0.00353337  0.00155451  1
  Hf  Hf25  1  0.08108941  0.89275361  0.37298223  1
  Hf  Hf26  1  0.41379982  0.79967802  0.50111125  1
  Hf  Hf27  1  0.00610254  0.19969062  0.75417061  1
  Hf  Hf28  1  0.60185656  0.40572830  0.00374525  1
  Hf  Hf29  1  0.79086200  0.59709345  -0.00443507  1
  Hf  Hf30  1  0.20884562  0.18521113  0.76896988  1
  Hf  Hf31  1  0.70901857  0.89567658  0.64570802  1
  Hf  Hf32  1  0.47442887  0.29950124  0.36954029  1
  Hf  Hf33  1  0.09769287  0.49313328  0.36726557  1
  Hf  Hf34  1  0.40554090  0.79758174  0.25436614  1
  Hf  Hf35  1  0.69834819  0.29613361  0.12644071  1
  Hf  Hf36  1  0.60435793  0.80228092  -0.00809894  1
  Hf  Hf37  1  0.29652117  0.89594977  0.87380742  1
  Hf  Hf38  1  0.11840876  0.09248572  0.62484485  1
  Hf  Hf39  1  0.00040588  0.58232731  0.00712509  1
  Zr  Zr40  1  0.68707534  0.50107045  0.85793586  1
  Zr  Zr41  1  0.30574061  0.68643146  0.60804667  1
  Zr  Zr42  1  0.89879016  0.47970841  0.86679900  1
  Zr  Zr43  1  -0.00713005  0.38164076  0.02220438  1
  Zr  Zr44  1  0.29310742  0.68359273  0.87866333  1
  Zr  Zr45  1  0.11670352  0.30547364  0.63426514  1
  Zr  Zr46  1  0.50657540  0.08984272  0.86763836  1
  Zr  Zr47  1  0.30099624  0.89963414  0.38011290  1
  Zr  Zr48  1  0.61504369  0.00261829  0.24873399  1
  Zr  Zr49  1  0.61552481  0.60113812  0.24725729  1
  Zr  Zr50  1  0.19395029  0.20366729  -0.00565763  1
  Zr  Zr51  1  0.80794654  0.81271053  0.24467217  1
  Zr  Zr52  1  0.20206313  0.00269315  0.49333832  1
  Zr  Zr53  1  0.19573478  0.57833207  0.50878880  1
  Zr  Zr54  1  -0.00930356  0.60379720  0.51151791  1
  Zr  Zr55  1  0.28945022  0.90695087  0.61719851  1
  Zr  Zr56  1  0.39254350  0.40745863  -0.00292250  1
  Zr  Zr57  1  0.72028039  0.90419239  0.38080513  1
  Zr  Zr58  1  0.78865759  0.40753466  0.24794903  1
  Zr  Zr59  1  0.18829372  0.79526693  0.24993118  1
  Zr  Zr60  1  0.11045813  0.69459971  0.10856904  1
  Zr  Zr61  1  0.69943782  0.30675901  0.63520849  1
  Zr  Zr62  1  0.80847311  -0.00163639  0.51541760  1
  Zr  Zr63  1  0.10908718  0.50642325  0.86422028  1
  Zr  Zr64  1  0.39085086  0.78236316  0.74142968  1
  Zr  Zr65  1  0.80225010  0.80383365  -0.01243084  1
  Zr  Zr66  1  0.69692217  0.10217922  0.64547540  1
  Zr  Zr67  1  0.90048099  0.08173268  0.37206222  1
  Zr  Zr68  1  -0.00630087  0.40264272  0.23214927  1
  Zr  Zr69  1  0.49615609  0.29159768  0.12553399  1
  Zr  Zr70  1  0.69621328  0.51310697  0.38365422  1
  Zr  Zr71  1  0.58058951  0.40949742  0.49567682  1
  Zr  Zr72  1  0.90871257  0.30542534  0.37856055  1
  Zr  Zr73  1  0.39894566  -0.00751235  0.00164829  1
  Zr  Zr74  1  0.50372222  0.90041360  0.63860385  1
  Zr  Zr75  1  0.29951282  0.30379452  0.13541685  1
  Zr  Zr76  1  0.69098851  0.50504169  0.63083533  1
  Zr  Zr77  1  0.10185751  0.10652736  0.37305501  1
  Zr  Zr78  1  0.71447926  0.31202279  0.86465009  1
  Zr  Zr79  1  0.30633591  0.69660501  0.12701683  1
  Ta  Ta80  1  0.79406476  0.19330170  0.25375863  1
  Ta  Ta81  1  0.59741202  0.20356956  0.75906052  1
  Ta  Ta82  1  0.61038032  0.19230322  -0.01667254  1
  Ta  Ta83  1  0.58780868  0.40489832  0.25540627  1
  Ta  Ta84  1  0.90550368  0.30383780  0.62369674  1
  Ta  Ta85  1  0.89094998  0.09886952  0.12728890  1
  Ta  Ta86  1  0.02075155  -0.00809508  0.75404344  1
  Ta  Ta87  1  0.20291648  0.59293826  0.72985167  1
  Ta  Ta88  1  0.40350769  0.79248461  -0.00123984  1
  Ta  Ta89  1  0.81783714  0.79875845  0.51153496  1
  Ta  Ta90  1  0.90229284  0.51372172  0.37193126  1
  Ta  Ta91  1  0.47479731  0.50335627  0.62934978  1
  Ta  Ta92  1  0.50817523  0.09936633  0.11345199  1
  Ta  Ta93  1  0.51109208  0.69347416  0.37578268  1
  Ta  Ta94  1  0.00282918  0.61651482  0.73918547  1
  Ta  Ta95  1  0.37800654  0.39108178  0.49981504  1
  Ta  Ta96  1  0.29266029  0.51008828  0.15011987  1
  Ta  Ta97  1  0.70262819  0.90692953  0.11993046  1
  Ta  Ta98  1  0.50553797  0.31227268  0.87573812  1
  Ta  Ta99  1  0.69508346  0.91066703  0.84941894  1
  Ta  Ta100  1  0.19708026  -0.00144961  0.24105563  1
  Ta  Ta101  1  0.60793023  0.80130154  0.24544860  1
  Ta  Ta102  1  0.69401426  0.70308859  0.85813712  1
  Ta  Ta103  1  0.00821870  0.40411007  0.50888987  1
  Ta  Ta104  1  0.90792393  0.70711022  0.12157987  1
  Ta  Ta105  1  0.81590824  0.79089808  0.75788986  1
  Ta  Ta106  1  0.60534645  -0.00159184  -0.00464061  1
  Ta  Ta107  1  0.80079309  0.40420219  0.01502572  1
  Ta  Ta108  1  0.19432085  0.19794802  0.24259938  1
  Ta  Ta109  1  0.09361265  0.30698094  0.87231597  1
  Ta  Ta110  1  0.09888471  0.09505292  0.12770395  1
  Ta  Ta111  1  0.48854504  0.49919865  0.13816591  1
  Ta  Ta112  1  0.49691701  0.09507186  0.38644216  1
  Ta  Ta113  1  0.01221492  0.20459345  0.50450133  1
  Ta  Ta114  1  0.90892356  0.89537552  0.86759621  1
  Ta  Ta115  1  0.30339029  0.10154303  0.12963149  1
  Ta  Ta116  1  0.50619405  0.89734926  0.12160512  1
  Ta  Ta117  1  0.30299960  0.48831196  0.35579145  1
  Ta  Ta118  1  0.37878859  0.01551791  0.74810730  1
  Ta  Ta119  1  0.28066486  0.29935520  0.36232026  1
  Ti  Ti120  1  0.59461429  0.61156786  0.50267974  1
  Ti  Ti121  1  0.19459504  0.39138891  0.49810931  1
  Ti  Ti122  1  0.20214635  0.00740630  0.00666842  1
  Ti  Ti123  1  0.00204872  0.19659647  0.00159818  1
  Ti  Ti124  1  0.89898864  0.90104417  0.11679296  1
  Ti  Ti125  1  0.80785593  0.61012901  0.25109364  1
  Ti  Ti126  1  0.92050542  0.88406716  0.64163198  1
  Ti  Ti127  1  0.48730168  0.10809188  0.62871456  1
  Ti  Ti128  1  0.22268367  0.39563838  0.75427979  1
  Ti  Ti129  1  0.81156812  0.21079753  0.75856661  1
  Ti  Ti130  1  0.18286561  0.39484271  0.24125404  1
  Ti  Ti131  1  0.00925636  0.61031841  0.24397816  1
  Ti  Ti132  1  0.48341240  0.30376627  0.62648582  1
  Ti  Ti133  1  0.58148298  0.39964220  0.74506439  1
  Ti  Ti134  1  0.70210255  0.71363139  0.38497207  1
  Ti  Ti135  1  0.69456678  0.30136993  0.37426678  1
  Ti  Ti136  1  0.10132600  0.69739559  0.38432904  1
  Ti  Ti137  1  0.21582967  0.20882899  0.50196563  1
  Ti  Ti138  1  0.91267166  0.10283998  0.86932389  1
  Ti  Ti139  1  0.49388383  0.69366772  0.86901211  1
  Ti  Ti140  1  0.88564126  0.51155126  0.13184490  1
  Ti  Ti141  1  0.39147713  0.59215521  0.00207986  1
  Ti  Ti142  1  0.50617588  0.69750897  0.62391677  1
  Ti  Ti143  1  0.70059643  0.10131877  0.12000376  1
  Ti  Ti144  1  0.58050374  0.60283959  0.74777241  1
  Ti  Ti145  1  -0.00712204  -0.01514280  0.23933731  1
  Ti  Ti146  1  0.40767408  0.57861588  0.48830565  1
  Ti  Ti147  1  0.89939053  0.50254469  0.63227293  1
  Ti  Ti148  1  0.70994930  0.70174571  0.12285356  1
  Ti  Ti149  1  0.47932263  0.50606557  0.86280432  1
  Ti  Ti150  1  0.69811893  0.10146334  0.38003613  1
  Ti  Ti151  1  0.80747138  0.59576653  0.75190833  1
  Ti  Ti152  1  0.00180239  0.40463801  0.74126827  1
  Ti  Ti153  1  0.79919895  0.60926553  0.50373645  1
  Ti  Ti154  1  0.09086613  0.71562581  0.61319039  1
  Ti  Ti155  1  -0.00062964  -0.01059741  0.50765294  1
  Ti  Ti156  1  0.29539582  0.89645591  0.12038494  1
  Ti  Ti157  1  0.81253206  0.00590704  0.75884917  1
  Ti  Ti158  1  0.90592151  0.69476484  0.87773991  1
  Ti  Ti159  1  0.09667274  0.89327271  0.11470704  1
  Mo  Mo160  1  0.29362371  0.31293394  0.88009652  1
  Mo  Mo161  1  0.10215176  0.30004179  0.38233345  1
  Mo  Mo162  1  0.09432001  0.90122859  0.61938817  1
  Mo  Mo163  1  0.09876855  0.28846871  0.12320072  1
  Mo  Mo164  1  0.80481878  0.00868994  0.23846582  1
  Mo  Mo165  1  0.29695835  0.49936618  0.87211035  1
  Mo  Mo166  1  0.00002873  0.80054919  0.23517777  1
  Mo  Mo167  1  0.19569670  0.59726777  0.26155316  1
  Mo  Mo168  1  0.90559462  0.90348774  0.37687350  1
  Mo  Mo169  1  0.30605686  0.29646449  0.62605956  1
  Mo  Mo170  1  0.39317956  0.58977426  0.74610451  1
  Mo  Mo171  1  0.09526969  0.49831320  0.63890063  1
  Mo  Mo172  1  0.39753632  0.20276068  0.50367046  1
  Mo  Mo173  1  0.39659638  0.39633441  0.24889241  1
  Mo  Mo174  1  0.61239392  0.78778835  0.50152547  1
  Mo  Mo175  1  0.18971444  0.79171557  0.49646527  1
  Mo  Mo176  1  0.40796783  0.59538678  0.26250378  1
  Mo  Mo177  1  0.10030920  0.50332890  0.13986827  1
  Mo  Mo178  1  0.59153617  0.00593471  0.73953390  1
  Mo  Mo179  1  0.81098097  0.40213132  0.73533053  1
  Mo  Mo180  1  0.60209272  0.79120420  0.75531042  1
  Mo  Mo181  1  0.49061323  0.50396035  0.37178897  1
  Mo  Mo182  1  0.69367741  0.50767729  0.12497520  1
  Mo  Mo183  1  0.09563973  0.09584203  0.88172722  1
  Mo  Mo184  1  0.29411495  0.09067302  0.87981161  1
  Mo  Mo185  1  0.88595587  0.28697928  0.12965312  1
  Mo  Mo186  1  0.39733502  0.18941525  0.24638784  1
  Mo  Mo187  1  0.29210983  0.47764258  0.62172247  1
  Mo  Mo188  1  0.20982892  0.59296611  0.00322865  1
  Mo  Mo189  1  0.00152515  0.79658267  0.75566120  1
  Mo  Mo190  1  -0.00028054  0.80420425  0.50451644  1
  Mo  Mo191  1  0.20111507  -0.00196086  0.75219887  1
  Mo  Mo192  1  0.89414668  0.69871575  0.63183018  1
  Mo  Mo193  1  0.91328036  0.30228508  0.87185608  1
  Mo  Mo194  1  -0.00575521  0.79997522  0.00354717  1
  Mo  Mo195  1  0.39938145  0.40510234  0.75470745  1
  Mo  Mo196  1  0.40808595  0.01188348  0.50597593  1
  Mo  Mo197  1  0.31044017  0.11100884  0.62035608  1
  Mo  Mo198  1  0.21241838  0.81139423  0.00756529  1
  Mo  Mo199  1  0.70568268  0.10077591  0.85555943  1
