# generated using pymatgen
data_HfZrTaTiMo
_symmetry_space_group_name_H-M   'P 1'
_cell_length_a   15.21029939
_cell_length_b   15.19708877
_cell_length_c   16.83969948
_cell_angle_alpha   89.98810223
_cell_angle_beta   89.99380028
_cell_angle_gamma   89.99741941
_symmetry_Int_Tables_number   1
_chemical_formula_structural   HfZrTaTiMo
_chemical_formula_sum   'Hf40 Zr40 Ta40 Ti40 Mo40'
_cell_volume   3892.53464959
_cell_formula_units_Z   40
loop_
 _symmetry_equiv_pos_site_id
 _symmetry_equiv_pos_as_xyz
  1  'x, y, z'
loop_
 _atom_site_type_symbol
 _atom_site_label
 _atom_site_symmetry_multiplicity
 _atom_site_fract_x
 _atom_site_fract_y
 _atom_site_fract_z
 _atom_site_occupancy
  Hf  Hf0  1  0.20466635  0.59872520  0.73361530  1
  Hf  Hf1  1  0.80472198  -0.00649259  0.50063331  1
  Hf  Hf2  1  0.61060356  0.59654403  0.76550804  1
  Hf  Hf3  1  0.20313860  0.00028742  0.00801261  1
  Hf  Hf4  1  0.10466988  0.70493947  0.38800083  1
  Hf  Hf5  1  0.20369742  0.39485083  0.74574376  1
  Hf  Hf6  1  0.40774931  0.79385605  -0.01405830  1
  Hf  Hf7  1  0.18920435  0.39599608  0.25202414  1
  Hf  Hf8  1  0.30205609  0.92027257  0.87395601  1
  Hf  Hf9  1  0.00120860  0.80210513  0.00307302  1
  Hf  Hf10  1  0.69093351  0.89536085  0.10893982  1
  Hf  Hf11  1  0.32293407  0.70622184  0.62007221  1
  Hf  Hf12  1  0.00722377  0.82714035  0.50416665  1
  Hf  Hf13  1  0.69786245  0.70661804  0.37780498  1
  Hf  Hf14  1  0.90278849  0.10884829  0.38250914  1
  Hf  Hf15  1  0.19427641  0.39485867  0.00766120  1
  Hf  Hf16  1  0.60056831  0.21315555  0.51132760  1
  Hf  Hf17  1  0.09777260  0.51383895  0.86929088  1
  Hf  Hf18  1  0.60101527  0.79167112  0.77089514  1
  Hf  Hf19  1  0.39988369  0.19582686  0.49619768  1
  Hf  Hf20  1  0.39472482  0.59560368  0.24056042  1
  Hf  Hf21  1  0.20957292  0.59086476  0.51111827  1
  Hf  Hf22  1  0.30346769  0.29985092  0.61863280  1
  Hf  Hf23  1  0.20155466  0.18208397  0.74114800  1
  Hf  Hf24  1  0.30919537  0.88589235  0.12260378  1
  Hf  Hf25  1  0.51669122  0.07739525  0.38616526  1
  Hf  Hf26  1  0.20603988  0.81492375  0.74500982  1
  Hf  Hf27  1  0.88382628  0.49268043  0.37672507  1
  Hf  Hf28  1  0.40421018  0.19053319  0.26314997  1
  Hf  Hf29  1  0.41172671  0.59626530  0.75143219  1
  Hf  Hf30  1  0.30265423  0.48680623  0.87917210  1
  Hf  Hf31  1  -0.01129633  0.40583555  0.00062981  1
  Hf  Hf32  1  0.39800474  -0.02889952  0.49942093  1
  Hf  Hf33  1  0.89402022  0.52528009  0.86277023  1
  Hf  Hf34  1  0.58258775  0.21009102  0.73684761  1
  Hf  Hf35  1  0.79686227  0.78670159  0.24280247  1
  Hf  Hf36  1  0.69623215  0.09545492  0.11046520  1
  Hf  Hf37  1  0.79571044  0.40886219  0.00132583  1
  Hf  Hf38  1  0.81801215  0.20040224  0.23917911  1
  Hf  Hf39  1  0.69067857  0.30298385  0.87721075  1
  Zr  Zr40  1  0.58911290  0.39404110  0.00079000  1
  Zr  Zr41  1  0.19186525  0.79161065  -0.00516884  1
  Zr  Zr42  1  0.78535359  0.59346858  0.49519633  1
  Zr  Zr43  1  0.09945393  0.71029549  0.62052561  1
  Zr  Zr44  1  0.19456324  0.59968807  0.25704925  1
  Zr  Zr45  1  0.50434467  0.51080957  0.37001002  1
  Zr  Zr46  1  0.18107436  0.39958426  0.49866002  1
  Zr  Zr47  1  -0.00720265  0.19375316  0.73891782  1
  Zr  Zr48  1  0.09524861  0.30293972  0.86771094  1
  Zr  Zr49  1  0.10359743  0.09182109  0.87193885  1
  Zr  Zr50  1  0.29031967  0.29640598  0.37368740  1
  Zr  Zr51  1  0.69238604  0.10024513  0.87547565  1
  Zr  Zr52  1  0.29067140  0.68567514  0.87910459  1
  Zr  Zr53  1  0.00379574  0.02735947  0.23763403  1
  Zr  Zr54  1  0.40271865  0.41121440  0.50369418  1
  Zr  Zr55  1  0.40339858  0.79268404  0.24610257  1
  Zr  Zr56  1  0.61472397  0.19882668  0.25443122  1
  Zr  Zr57  1  0.60493540  0.59984496  -0.01175279  1
  Zr  Zr58  1  0.59445811  -0.00530280  0.74980968  1
  Zr  Zr59  1  0.29338412  0.08092941  0.37749868  1
  Zr  Zr60  1  0.90093586  0.89706171  0.36611277  1
  Zr  Zr61  1  0.09571368  0.09863506  0.39197193  1
  Zr  Zr62  1  0.28352260  0.07490520  0.61127226  1
  Zr  Zr63  1  0.51322429  0.70691027  0.11735759  1
  Zr  Zr64  1  0.39627498  0.39724443  0.01298825  1
  Zr  Zr65  1  0.79705444  0.39885772  0.23421195  1
  Zr  Zr66  1  0.51202873  0.30619089  0.37222625  1
  Zr  Zr67  1  0.09537987  0.50754613  0.12485847  1
  Zr  Zr68  1  0.29595260  0.29406040  0.13938559  1
  Zr  Zr69  1  0.70316855  0.09164763  0.62989748  1
  Zr  Zr70  1  0.00182209  0.00545544  0.00820319  1
  Zr  Zr71  1  0.89093469  0.50286018  0.63523585  1
  Zr  Zr72  1  0.80346095  0.21254731  0.51756206  1
  Zr  Zr73  1  0.89791818  0.70499266  0.62142688  1
  Zr  Zr74  1  0.81207211  0.79437664  -0.00084399  1
  Zr  Zr75  1  0.89943002  0.90379003  0.13607116  1
  Zr  Zr76  1  0.77524756  -0.00129893  0.25653172  1
  Zr  Zr77  1  0.79537286  0.20667236  0.74466450  1
  Zr  Zr78  1  0.30362736  0.08946558  0.13923140  1
  Zr  Zr79  1  0.80643825  0.79498497  0.75653538  1
  Ta  Ta80  1  0.42127120  0.78039501  0.49552557  1
  Ta  Ta81  1  0.80166127  0.59812767  0.23798221  1
  Ta  Ta82  1  0.39604495  0.19899742  0.00434108  1
  Ta  Ta83  1  0.69060372  0.50850211  0.12476083  1
  Ta  Ta84  1  0.50629629  0.91200373  0.11271624  1
  Ta  Ta85  1  0.40790483  0.01086241  -0.00064297  1
  Ta  Ta86  1  0.19769125  0.19482846  0.00422453  1
  Ta  Ta87  1  0.68907712  0.70365797  0.62295011  1
  Ta  Ta88  1  0.59095152  0.40559993  0.75390660  1
  Ta  Ta89  1  0.50315647  0.09823456  0.12801183  1
  Ta  Ta90  1  0.48082424  0.10652526  0.86987380  1
  Ta  Ta91  1  0.70083259  0.89154111  0.62576821  1
  Ta  Ta92  1  0.10517887  0.90249301  0.36481258  1
  Ta  Ta93  1  -0.00175425  0.20714673  0.51816479  1
  Ta  Ta94  1  0.80902084  0.00477681  -0.00482943  1
  Ta  Ta95  1  0.60994494  0.61489287  0.24361310  1
  Ta  Ta96  1  0.09219713  0.30451118  0.62974595  1
  Ta  Ta97  1  0.91288624  0.90651756  0.86191339  1
  Ta  Ta98  1  0.30839776  0.69016477  0.38652797  1
  Ta  Ta99  1  0.90661820  0.30469055  0.38224795  1
  Ta  Ta100  1  0.49328564  0.08910996  0.61646184  1
  Ta  Ta101  1  0.71487497  0.31716458  0.38000377  1
  Ta  Ta102  1  0.20328493  0.79150075  0.24848079  1
  Ta  Ta103  1  0.29881307  0.87891820  0.37403785  1
  Ta  Ta104  1  0.80828142  0.20420413  -0.00054533  1
  Ta  Ta105  1  -0.00345704  0.20232864  0.00002787  1
  Ta  Ta106  1  0.58068932  0.61586425  0.50348866  1
  Ta  Ta107  1  0.50402193  0.50187663  0.62455657  1
  Ta  Ta108  1  0.60724443  0.80089754  -0.02252006  1
  Ta  Ta109  1  0.17786665  0.18750872  0.25134138  1
  Ta  Ta110  1  0.70238819  0.10602027  0.38860574  1
  Ta  Ta111  1  0.69573049  0.29650273  0.11465158  1
  Ta  Ta112  1  0.41011783  0.80209639  0.76327988  1
  Ta  Ta113  1  0.08269751  0.49610950  0.63457261  1
  Ta  Ta114  1  0.00076420  0.58878868  0.49763351  1
  Ta  Ta115  1  0.81515693  0.60259606  0.02148122  1
  Ta  Ta116  1  0.10711043  0.89774658  0.13800508  1
  Ta  Ta117  1  0.71396562  0.90728271  0.87952364  1
  Ta  Ta118  1  0.60305763  0.82397072  0.25339363  1
  Ta  Ta119  1  0.50292647  0.87987823  0.62661546  1
  Ti  Ti120  1  0.79611212  0.80203297  0.49909636  1
  Ti  Ti121  1  0.08591495  0.29709949  0.37685392  1
  Ti  Ti122  1  0.00728214  0.79188305  0.25027202  1
  Ti  Ti123  1  0.50656322  0.91291137  0.88140320  1
  Ti  Ti124  1  0.60287312  0.40934859  0.24459218  1
  Ti  Ti125  1  0.72766510  0.68386135  0.87984313  1
  Ti  Ti126  1  0.90591724  0.69763667  0.38027126  1
  Ti  Ti127  1  0.50430190  0.29354996  0.13495989  1
  Ti  Ti128  1  0.01500832  -0.00236878  0.73352635  1
  Ti  Ti129  1  0.69466018  0.32495401  0.62831373  1
  Ti  Ti130  1  0.90140195  0.91177685  0.63623033  1
  Ti  Ti131  1  0.89680201  0.09888289  0.86869810  1
  Ti  Ti132  1  0.61546185  0.41901097  0.49834554  1
  Ti  Ti133  1  0.40637377  0.39304312  0.74008849  1
  Ti  Ti134  1  0.50279459  0.70664425  0.36659378  1
  Ti  Ti135  1  0.89944975  0.31908452  0.63207415  1
  Ti  Ti136  1  0.39559002  0.19544988  0.73838395  1
  Ti  Ti137  1  0.08136976  0.49266649  0.37517753  1
  Ti  Ti138  1  0.89750541  0.30570606  0.86763240  1
  Ti  Ti139  1  0.08466165  0.28561139  0.12837135  1
  Ti  Ti140  1  0.48508855  0.29871979  0.87220084  1
  Ti  Ti141  1  0.08139906  0.70651380  0.85504042  1
  Ti  Ti142  1  0.49443926  0.50292178  0.12512766  1
  Ti  Ti143  1  -0.01103088  0.39477741  0.24121564  1
  Ti  Ti144  1  0.29804518  0.49761357  0.37441652  1
  Ti  Ti145  1  0.19257469  0.19667537  0.50568473  1
  Ti  Ti146  1  0.69599404  0.50894812  0.62893545  1
  Ti  Ti147  1  0.10319960  0.70136933  0.12672053  1
  Ti  Ti148  1  0.20506376  -0.01031270  0.24908847  1
  Ti  Ti149  1  0.30094196  0.28014105  0.87371053  1
  Ti  Ti150  1  0.78627242  0.41414340  0.76031490  1
  Ti  Ti151  1  0.29605083  0.67776811  0.10743585  1
  Ti  Ti152  1  0.39784063  0.40167634  0.24607366  1
  Ti  Ti153  1  0.41918718  -0.01744223  0.25865720  1
  Ti  Ti154  1  -0.00953253  0.60076159  0.25265016  1
  Ti  Ti155  1  0.39035054  -0.00115809  0.74145323  1
  Ti  Ti156  1  0.58491539  0.19385690  -0.00159840  1
  Ti  Ti157  1  0.49570890  0.49862517  0.88083305  1
  Ti  Ti158  1  0.09839735  0.90006310  0.86625864  1
  Ti  Ti159  1  0.00529604  0.61267716  0.00057982  1
  Mo  Mo160  1  0.49833890  0.69847258  0.88142711  1
  Mo  Mo161  1  0.60255092  -0.00464630  0.51436475  1
  Mo  Mo162  1  0.91285965  0.70418754  0.87260316  1
  Mo  Mo163  1  0.59674652  0.00176625  -0.01246512  1
  Mo  Mo164  1  0.79085375  0.60611276  0.74542897  1
  Mo  Mo165  1  0.39654679  0.58980631  0.00673141  1
  Mo  Mo166  1  0.40347316  0.59485156  0.50129238  1
  Mo  Mo167  1  0.91795672  0.69168598  0.13432431  1
  Mo  Mo168  1  -0.00353540  0.00394586  0.51153891  1
  Mo  Mo169  1  0.90279091  0.09708943  0.62669238  1
  Mo  Mo170  1  0.30101315  0.49681145  0.63217284  1
  Mo  Mo171  1  -0.00713153  0.40091562  0.75492722  1
  Mo  Mo172  1  0.11675103  0.91441075  0.62423067  1
  Mo  Mo173  1  0.51244192  0.69896995  0.63164197  1
  Mo  Mo174  1  0.68553216  0.90987817  0.38617258  1
  Mo  Mo175  1  0.68941346  0.50351439  0.36456529  1
  Mo  Mo176  1  0.50729290  0.88691174  0.37947149  1
  Mo  Mo177  1  0.20097681  -0.00134285  0.74845870  1
  Mo  Mo178  1  -0.00115378  0.61046974  0.74473233  1
  Mo  Mo179  1  0.70210697  0.70119481  0.12230347  1
  Mo  Mo180  1  0.30608762  0.10841071  0.87523396  1
  Mo  Mo181  1  0.18762128  -0.02781896  0.49411662  1
  Mo  Mo182  1  0.10452845  0.10379882  0.12389793  1
  Mo  Mo183  1  0.79177387  0.40031502  0.50509266  1
  Mo  Mo184  1  0.00498752  0.81324681  0.74298243  1
  Mo  Mo185  1  0.89973774  0.11250014  0.11519569  1
  Mo  Mo186  1  0.59487219  0.00279147  0.24884509  1
  Mo  Mo187  1  0.09411675  0.09607498  0.61024391  1
  Mo  Mo188  1  0.60643075  0.80728794  0.49850740  1
  Mo  Mo189  1  0.90190616  0.50406707  0.12700275  1
  Mo  Mo190  1  0.00233258  0.21824112  0.25152776  1
  Mo  Mo191  1  -0.00978966  0.39856933  0.50216487  1
  Mo  Mo192  1  0.50326211  0.30454929  0.62527512  1
  Mo  Mo193  1  0.30044681  0.49927620  0.12614040  1
  Mo  Mo194  1  0.21644506  0.80575690  0.49929825  1
  Mo  Mo195  1  0.19454231  0.59193455  0.00278002  1
  Mo  Mo196  1  0.89998320  0.30129675  0.11508591  1
  Mo  Mo197  1  0.81339236  -0.00123922  0.75331857  1
  Mo  Mo198  1  0.31334790  0.89100877  0.62808771  1
  Mo  Mo199  1  0.70337981  0.49593186  0.87639191  1
