# generated using pymatgen
data_HfZrTaTiMo
_symmetry_space_group_name_H-M   'P 1'
_cell_length_a   15.21256833
_cell_length_b   15.20579265
_cell_length_c   16.86468052
_cell_angle_alpha   90.04073123
_cell_angle_beta   90.03052994
_cell_angle_gamma   90.01074144
_symmetry_Int_Tables_number   1
_chemical_formula_structural   HfZrTaTiMo
_chemical_formula_sum   'Hf40 Zr40 Ta40 Ti40 Mo40'
_cell_volume   3901.12211945
_cell_formula_units_Z   40
loop_
 _symmetry_equiv_pos_site_id
 _symmetry_equiv_pos_as_xyz
  1  'x, y, z'
loop_
 _atom_site_type_symbol
 _atom_site_label
 _atom_site_symmetry_multiplicity
 _atom_site_fract_x
 _atom_site_fract_y
 _atom_site_fract_z
 _atom_site_occupancy
  Hf  Hf0  1  0.39258777  -0.00436231  0.24942833  1
  Hf  Hf1  1  0.30627622  0.50369061  0.63147765  1
  Hf  Hf2  1  0.80917101  0.17855373  0.00971345  1
  Hf  Hf3  1  0.40737433  0.19999328  0.00684413  1
  Hf  Hf4  1  0.71233671  0.90404474  0.87267795  1
  Hf  Hf5  1  0.70361789  0.69616361  0.12634194  1
  Hf  Hf6  1  0.39053169  0.60587168  0.00499600  1
  Hf  Hf7  1  0.09678209  0.70988065  0.86224434  1
  Hf  Hf8  1  0.81120007  -0.00538630  0.24449780  1
  Hf  Hf9  1  0.49800012  0.10244123  0.62498921  1
  Hf  Hf10  1  0.50099113  0.70849794  0.12140117  1
  Hf  Hf11  1  0.49267063  0.49909115  0.12145098  1
  Hf  Hf12  1  0.19250514  0.41048499  0.25968472  1
  Hf  Hf13  1  0.60590846  0.00470980  0.50054811  1
  Hf  Hf14  1  0.69995224  0.69642064  0.62159547  1
  Hf  Hf15  1  0.59807549  0.79830436  0.26014675  1
  Hf  Hf16  1  0.29235188  0.70251913  0.12883664  1
  Hf  Hf17  1  0.19410008  0.39319919  0.74718685  1
  Hf  Hf18  1  0.49308192  0.50665025  0.37628350  1
  Hf  Hf19  1  0.89708325  0.90629935  0.63248340  1
  Hf  Hf20  1  0.70291235  0.88794100  0.13175175  1
  Hf  Hf21  1  0.19884619  0.61976264  0.51667729  1
  Hf  Hf22  1  0.59115804  0.00793986  0.24817282  1
  Hf  Hf23  1  0.79177980  0.60148612  0.49548336  1
  Hf  Hf24  1  0.80800549  -0.01744004  0.01522542  1
  Hf  Hf25  1  0.69476241  0.50792386  0.89882256  1
  Hf  Hf26  1  0.80760148  0.00331445  0.49215412  1
  Hf  Hf27  1  0.08153742  0.50961396  0.86999251  1
  Hf  Hf28  1  0.00605320  0.00566588  0.00488788  1
  Hf  Hf29  1  0.50560043  0.31845016  0.62566828  1
  Hf  Hf30  1  -0.00916304  0.19533075  0.48604047  1
  Hf  Hf31  1  0.29186237  0.89217578  0.38675345  1
  Hf  Hf32  1  0.01395116  0.19878232  0.27018623  1
  Hf  Hf33  1  0.78914482  0.58487623  0.74933919  1
  Hf  Hf34  1  0.62409751  0.21693695  0.50827981  1
  Hf  Hf35  1  0.10956965  0.91240673  0.86871971  1
  Hf  Hf36  1  0.89841674  0.48942208  0.11289630  1
  Hf  Hf37  1  0.81074466  0.21255997  0.24375833  1
  Hf  Hf38  1  0.90518625  0.68081742  0.86631043  1
  Hf  Hf39  1  0.40003789  -0.01418616  -0.00037889  1
  Zr  Zr40  1  0.50313712  0.09832937  0.38251038  1
  Zr  Zr41  1  -0.01073976  0.40076808  0.75008918  1
  Zr  Zr42  1  0.60391719  0.78788909  0.49362539  1
  Zr  Zr43  1  0.18161088  0.20705737  -0.00780251  1
  Zr  Zr44  1  0.29181395  0.50600204  0.86136083  1
  Zr  Zr45  1  0.62033252  0.00954102  0.74578048  1
  Zr  Zr46  1  0.89313594  0.49436748  0.38642166  1
  Zr  Zr47  1  0.18493800  0.60462257  0.00149656  1
  Zr  Zr48  1  0.60234731  0.41941427  0.75419194  1
  Zr  Zr49  1  0.01209646  0.80541056  0.51653259  1
  Zr  Zr50  1  0.38254907  0.19508985  0.74622136  1
  Zr  Zr51  1  0.50080917  0.09963612  0.86535938  1
  Zr  Zr52  1  0.79481225  0.37450217  0.75560578  1
  Zr  Zr53  1  0.39127643  0.39829014  0.25345527  1
  Zr  Zr54  1  0.51633181  0.30301220  0.37441264  1
  Zr  Zr55  1  0.21053326  0.01587005  0.74273905  1
  Zr  Zr56  1  0.09259180  0.70552753  0.37711833  1
  Zr  Zr57  1  0.09298195  0.10617015  0.13338030  1
  Zr  Zr58  1  0.88037391  0.48446124  0.61657228  1
  Zr  Zr59  1  0.42796479  0.19565924  0.23153718  1
  Zr  Zr60  1  0.20630806  0.81526571  -0.00262996  1
  Zr  Zr61  1  0.29947393  0.69671022  0.37463415  1
  Zr  Zr62  1  0.70736195  0.90241710  0.36898713  1
  Zr  Zr63  1  0.91075995  0.88430295  0.86798858  1
  Zr  Zr64  1  0.50356779  0.89678906  0.86144992  1
  Zr  Zr65  1  0.29434337  0.31114049  0.12075554  1
  Zr  Zr66  1  0.39935756  0.21117242  0.49528678  1
  Zr  Zr67  1  0.30229715  0.70814583  0.86040749  1
  Zr  Zr68  1  0.49684747  0.30027590  0.86970029  1
  Zr  Zr69  1  0.49180660  0.50503386  0.88212791  1
  Zr  Zr70  1  0.22068981  0.20565345  0.27515181  1
  Zr  Zr71  1  0.70396353  0.28684788  0.89286294  1
  Zr  Zr72  1  0.79472336  0.58076527  0.25354166  1
  Zr  Zr73  1  0.61319093  0.39545460  0.23931762  1
  Zr  Zr74  1  -0.01497368  0.40164341  0.25647223  1
  Zr  Zr75  1  0.50729699  0.69781859  0.86937398  1
  Zr  Zr76  1  0.29010298  0.09161328  0.11684048  1
  Zr  Zr77  1  0.19461675  0.20062223  0.48375285  1
  Zr  Zr78  1  0.09112679  0.29413191  0.61871541  1
  Zr  Zr79  1  0.50597157  0.89728188  0.62509080  1
  Ta  Ta80  1  0.10605313  0.90114517  0.12802899  1
  Ta  Ta81  1  0.59141063  0.59789575  0.25269410  1
  Ta  Ta82  1  0.69824554  0.10183184  0.13350248  1
  Ta  Ta83  1  0.71192331  0.30588447  0.11318922  1
  Ta  Ta84  1  0.91521270  0.28381693  0.88933799  1
  Ta  Ta85  1  0.00385894  0.00709511  0.74687735  1
  Ta  Ta86  1  0.90804017  0.10539705  0.62547216  1
  Ta  Ta87  1  0.67424585  0.49272904  0.60563934  1
  Ta  Ta88  1  0.29813000  0.09864868  0.60721983  1
  Ta  Ta89  1  -0.00523204  0.20116030  0.75139511  1
  Ta  Ta90  1  0.39080228  0.59886758  0.24411565  1
  Ta  Ta91  1  -0.00941127  0.60977750  0.51757157  1
  Ta  Ta92  1  0.69807448  0.50190943  0.10549579  1
  Ta  Ta93  1  0.39175945  0.79304127  0.51614021  1
  Ta  Ta94  1  0.09489567  0.31003353  0.12855493  1
  Ta  Ta95  1  0.39759954  0.79858720  0.73123678  1
  Ta  Ta96  1  -0.00773366  0.39825400  0.50239589  1
  Ta  Ta97  1  0.09297566  0.50419122  0.62267154  1
  Ta  Ta98  1  0.61702801  0.21194081  0.73994530  1
  Ta  Ta99  1  -0.00143629  0.60637211  0.25189415  1
  Ta  Ta100  1  0.19277276  0.59916446  0.24568497  1
  Ta  Ta101  1  0.29951965  0.89552661  0.12874860  1
  Ta  Ta102  1  0.31067828  0.90487264  0.85888072  1
  Ta  Ta103  1  0.89967581  0.09201708  0.36823997  1
  Ta  Ta104  1  0.89193864  0.08619096  0.87012383  1
  Ta  Ta105  1  0.09644048  0.50451394  0.12259059  1
  Ta  Ta106  1  0.39852725  0.80050034  0.25246809  1
  Ta  Ta107  1  0.72221929  0.10958661  0.62361191  1
  Ta  Ta108  1  0.19299893  0.80539218  0.24697604  1
  Ta  Ta109  1  0.59035669  0.39175205  0.00822303  1
  Ta  Ta110  1  0.48697959  0.89604558  0.38646575  1
  Ta  Ta111  1  0.60680585  0.00568948  0.00197475  1
  Ta  Ta112  1  0.80023038  0.79318105  0.74476065  1
  Ta  Ta113  1  0.40671408  0.60423265  0.50975737  1
  Ta  Ta114  1  0.80936473  0.61184966  0.00135679  1
  Ta  Ta115  1  0.29207171  0.29985366  0.87819849  1
  Ta  Ta116  1  0.81625741  0.79623778  0.49196222  1
  Ta  Ta117  1  0.09445261  0.90243243  0.37272623  1
  Ta  Ta118  1  0.60315788  0.80558331  -0.00173438  1
  Ta  Ta119  1  0.90104938  0.69798752  0.13006495  1
  Ti  Ti120  1  0.00412730  -0.00832107  0.25315565  1
  Ti  Ti121  1  0.68656878  0.49115202  0.38735547  1
  Ti  Ti122  1  0.50393849  0.68137160  0.63224969  1
  Ti  Ti123  1  0.09709236  0.31869196  0.38521765  1
  Ti  Ti124  1  0.49387955  0.69989931  0.37557934  1
  Ti  Ti125  1  0.18955711  0.20237082  0.75433020  1
  Ti  Ti126  1  0.18853553  -0.01004811  0.50537836  1
  Ti  Ti127  1  0.00230450  0.00009437  0.49595865  1
  Ti  Ti128  1  0.01016194  0.39013979  -0.00379640  1
  Ti  Ti129  1  0.89118617  0.48488065  0.89381532  1
  Ti  Ti130  1  0.70439701  0.69306117  0.36899384  1
  Ti  Ti131  1  0.60884993  0.79053204  0.74660943  1
  Ti  Ti132  1  -0.00951402  0.78937098  0.00277223  1
  Ti  Ti133  1  0.09663399  0.51201545  0.39005403  1
  Ti  Ti134  1  0.08709978  0.11508535  0.87479277  1
  Ti  Ti135  1  0.70038089  0.11689066  0.36279939  1
  Ti  Ti136  1  0.30299701  0.08360245  0.39324670  1
  Ti  Ti137  1  0.00354067  0.79374832  0.73150200  1
  Ti  Ti138  1  0.08736843  0.70651928  0.12851862  1
  Ti  Ti139  1  0.29525483  0.29603662  0.62055908  1
  Ti  Ti140  1  0.19759715  0.81160049  0.72746162  1
  Ti  Ti141  1  0.70359317  0.70451604  0.88116178  1
  Ti  Ti142  1  0.40090493  0.40752166  0.50173447  1
  Ti  Ti143  1  0.70726597  0.90151493  0.62455688  1
  Ti  Ti144  1  0.59887830  0.19226759  0.01156627  1
  Ti  Ti145  1  0.19040147  0.61108325  0.73552868  1
  Ti  Ti146  1  0.49880491  0.90058027  0.12224222  1
  Ti  Ti147  1  0.39652075  0.40114326  0.74876989  1
  Ti  Ti148  1  0.39072293  0.39874406  0.00123382  1
  Ti  Ti149  1  0.72162558  0.30907091  0.37256853  1
  Ti  Ti150  1  0.91227546  0.28903183  0.11355731  1
  Ti  Ti151  1  0.29095699  0.09413612  0.88378124  1
  Ti  Ti152  1  0.19646677  0.00263744  0.25980681  1
  Ti  Ti153  1  0.30162601  0.90858389  0.61810859  1
  Ti  Ti154  1  0.20022341  0.40652395  0.50298182  1
  Ti  Ti155  1  0.19810158  0.40880134  -0.00294892  1
  Ti  Ti156  1  0.29285306  0.50550666  0.38600421  1
  Ti  Ti157  1  0.10093363  0.09847911  0.62216714  1
  Ti  Ti158  1  0.91119753  0.88179737  0.13298682  1
  Ti  Ti159  1  0.80110349  0.18202118  0.75825411  1
  Mo  Mo160  1  0.91200041  0.89458219  0.37485530  1
  Mo  Mo161  1  0.70371961  0.09657202  0.88153765  1
  Mo  Mo162  1  0.80904661  -0.00015685  0.74535705  1
  Mo  Mo163  1  0.50903515  0.29974828  0.11665908  1
  Mo  Mo164  1  0.80416444  0.19445777  0.48853333  1
  Mo  Mo165  1  -0.00446424  0.60255678  0.72877306  1
  Mo  Mo166  1  0.28727723  0.50316626  0.12551503  1
  Mo  Mo167  1  0.59239674  0.60359529  0.48730440  1
  Mo  Mo168  1  -0.00022232  0.80243842  0.24634974  1
  Mo  Mo169  1  0.89768564  0.70454501  0.37257219  1
  Mo  Mo170  1  0.80593012  0.39259807  -0.00027955  1
  Mo  Mo171  1  0.30487738  0.70516925  0.63466680  1
  Mo  Mo172  1  0.39797871  -0.00247211  0.74270040  1
  Mo  Mo173  1  0.10037901  0.30457790  0.87181750  1
  Mo  Mo174  1  0.90516817  0.09216348  0.14000427  1
  Mo  Mo175  1  0.89413662  0.69718613  0.63194403  1
  Mo  Mo176  1  0.88481943  0.27807848  0.62342873  1
  Mo  Mo177  1  0.89839692  0.29822906  0.37955376  1
  Mo  Mo178  1  0.29629899  0.32681255  0.38959508  1
  Mo  Mo179  1  -0.00161179  0.60147151  0.00381410  1
  Mo  Mo180  1  0.40560400  0.80663963  0.00122067  1
  Mo  Mo181  1  0.20166569  0.80987829  0.51692629  1
  Mo  Mo182  1  0.10460020  0.08229708  0.37502978  1
  Mo  Mo183  1  0.39632020  -0.00490066  0.50131601  1
  Mo  Mo184  1  0.59469895  0.40432990  0.49419274  1
  Mo  Mo185  1  0.60262781  0.60466879  0.00519522  1
  Mo  Mo186  1  0.80383248  0.79280310  0.00054220  1
  Mo  Mo187  1  0.10141717  0.91430055  0.63136159  1
  Mo  Mo188  1  0.60597597  0.60631483  0.74956019  1
  Mo  Mo189  1  0.81582723  0.78695562  0.26238929  1
  Mo  Mo190  1  0.71352768  0.30468879  0.62538358  1
  Mo  Mo191  1  0.78745430  0.38194319  0.50138231  1
  Mo  Mo192  1  -0.00297809  0.19811400  0.00229588  1
  Mo  Mo193  1  0.09898084  0.70172720  0.63407493  1
  Mo  Mo194  1  0.61698707  0.20031750  0.24139722  1
  Mo  Mo195  1  0.50866496  0.09035844  0.11698462  1
  Mo  Mo196  1  0.40720319  0.59765832  0.73929414  1
  Mo  Mo197  1  0.20151778  0.00046077  -0.00637376  1
  Mo  Mo198  1  0.79807255  0.40061878  0.24175314  1
  Mo  Mo199  1  0.49757056  0.50610808  0.62229267  1
