# generated using pymatgen
data_HfZrTaTiMo
_symmetry_space_group_name_H-M   'P 1'
_cell_length_a   15.21404804
_cell_length_b   15.20675956
_cell_length_c   16.84331644
_cell_angle_alpha   90.00330890
_cell_angle_beta   90.08223678
_cell_angle_gamma   89.96147538
_symmetry_Int_Tables_number   1
_chemical_formula_structural   HfZrTaTiMo
_chemical_formula_sum   'Hf40 Zr40 Ta40 Ti40 Mo40'
_cell_volume   3896.80365569
_cell_formula_units_Z   40
loop_
 _symmetry_equiv_pos_site_id
 _symmetry_equiv_pos_as_xyz
  1  'x, y, z'
loop_
 _atom_site_type_symbol
 _atom_site_label
 _atom_site_symmetry_multiplicity
 _atom_site_fract_x
 _atom_site_fract_y
 _atom_site_fract_z
 _atom_site_occupancy
  Hf  Hf0  1  0.01591304  0.80397710  0.74882050  1
  Hf  Hf1  1  0.12353575  0.70001500  0.61137473  1
  Hf  Hf2  1  -0.00115034  0.62448243  0.25241616  1
  Hf  Hf3  1  0.39339952  0.81510942  0.51034428  1
  Hf  Hf4  1  0.80220306  0.19839565  -0.00196348  1
  Hf  Hf5  1  0.08771336  0.69741920  0.10393835  1
  Hf  Hf6  1  0.31008339  0.10707270  0.11885767  1
  Hf  Hf7  1  0.60938142  0.19733519  0.51507310  1
  Hf  Hf8  1  0.89810149  0.90379626  0.86396418  1
  Hf  Hf9  1  0.90466361  0.91143816  0.63612966  1
  Hf  Hf10  1  0.68975430  0.08665380  0.36672395  1
  Hf  Hf11  1  0.50299068  0.69411527  0.37087803  1
  Hf  Hf12  1  0.89103368  0.70800609  0.38725454  1
  Hf  Hf13  1  0.59778413  -0.00718117  0.51597923  1
  Hf  Hf14  1  0.01168295  0.20130804  0.76478146  1
  Hf  Hf15  1  0.59894040  0.78831183  0.51059086  1
  Hf  Hf16  1  0.90290462  0.49619981  0.36568279  1
  Hf  Hf17  1  0.30037988  0.89296164  0.11715811  1
  Hf  Hf18  1  0.58712810  0.59404955  0.00499393  1
  Hf  Hf19  1  0.59314020  0.59331577  0.23999775  1
  Hf  Hf20  1  0.49326637  0.69239850  0.87011374  1
  Hf  Hf21  1  0.80073927  0.00588227  0.50759726  1
  Hf  Hf22  1  0.30388452  0.10638560  0.62328283  1
  Hf  Hf23  1  0.60761396  0.21493786  0.74813672  1
  Hf  Hf24  1  0.20675867  0.19779610  0.76303494  1
  Hf  Hf25  1  0.91159576  0.10534403  0.64200022  1
  Hf  Hf26  1  0.91799450  0.89834840  0.38375080  1
  Hf  Hf27  1  0.38948914  0.39269521  0.49291276  1
  Hf  Hf28  1  0.68560963  0.50326160  0.37191597  1
  Hf  Hf29  1  0.81141146  0.59864104  -0.00634915  1
  Hf  Hf30  1  0.68887960  0.70462867  0.87335629  1
  Hf  Hf31  1  0.90260452  0.30494095  0.12738980  1
  Hf  Hf32  1  0.78800573  0.18829359  0.23709949  1
  Hf  Hf33  1  0.90574724  0.29658398  0.35576394  1
  Hf  Hf34  1  0.10459326  0.69960703  0.88724504  1
  Hf  Hf35  1  0.50328234  0.89344732  0.86111199  1
  Hf  Hf36  1  0.22167282  0.21558097  0.25747530  1
  Hf  Hf37  1  0.70561659  0.92083525  0.12964964  1
  Hf  Hf38  1  0.20154501  0.19576932  -0.00429363  1
  Hf  Hf39  1  0.78866842  0.80040067  0.74037369  1
  Zr  Zr40  1  0.09789994  0.49538039  0.63284946  1
  Zr  Zr41  1  0.70254431  0.70666642  0.11428283  1
  Zr  Zr42  1  0.42942794  0.20749153  0.25710293  1
  Zr  Zr43  1  0.20522507  0.00348950  0.24956156  1
  Zr  Zr44  1  0.90094978  0.69255553  0.86531264  1
  Zr  Zr45  1  0.01326520  0.19480033  0.24247569  1
  Zr  Zr46  1  0.42414883  -0.00880635  0.00401363  1
  Zr  Zr47  1  0.31409735  0.31575539  0.11782242  1
  Zr  Zr48  1  0.59653193  0.80731683  0.24147305  1
  Zr  Zr49  1  -0.01412339  0.41083873  -0.01401075  1
  Zr  Zr50  1  0.91083981  0.69711308  0.62786635  1
  Zr  Zr51  1  0.18093191  0.80572394  0.24450917  1
  Zr  Zr52  1  -0.00902630  0.39271701  0.50216804  1
  Zr  Zr53  1  0.78649301  0.39511904  0.51061548  1
  Zr  Zr54  1  0.89054127  0.50170875  0.63644300  1
  Zr  Zr55  1  0.42091379  -0.00200311  0.23536674  1
  Zr  Zr56  1  0.78513848  0.40226055  0.23916020  1
  Zr  Zr57  1  0.49410634  0.49737236  0.62894135  1
  Zr  Zr58  1  0.80928510  0.19958104  0.50245507  1
  Zr  Zr59  1  0.90935251  0.51310453  0.12962649  1
  Zr  Zr60  1  0.19192324  0.40993661  0.49806018  1
  Zr  Zr61  1  0.79282686  0.80550918  0.52009640  1
  Zr  Zr62  1  0.78390174  0.60041230  0.50077564  1
  Zr  Zr63  1  0.48665019  0.47888054  0.13642357  1
  Zr  Zr64  1  0.70855811  0.88556594  0.36732155  1
  Zr  Zr65  1  0.00957894  0.20173753  0.50071392  1
  Zr  Zr66  1  0.79085306  0.61555170  0.24959442  1
  Zr  Zr67  1  0.39593792  0.40074703  0.75593376  1
  Zr  Zr68  1  0.49320766  0.91545983  0.37725498  1
  Zr  Zr69  1  0.68778819  0.29388012  0.37008146  1
  Zr  Zr70  1  0.29672678  0.68775610  0.87330178  1
  Zr  Zr71  1  0.38949135  0.59939008  0.50078694  1
  Zr  Zr72  1  0.10363573  0.09849420  0.37419875  1
  Zr  Zr73  1  0.40330981  0.19710115  0.76552266  1
  Zr  Zr74  1  0.29497580  0.90333731  0.63442171  1
  Zr  Zr75  1  0.89739252  0.08279900  0.12497840  1
  Zr  Zr76  1  0.10662950  0.30938940  0.11659579  1
  Zr  Zr77  1  0.10686838  0.30877573  0.88545310  1
  Zr  Zr78  1  0.28969029  0.71023911  0.38139656  1
  Zr  Zr79  1  0.19986460  0.60524194  0.24494936  1
  Ta  Ta80  1  0.29481858  0.30496518  0.62647696  1
  Ta  Ta81  1  0.59197060  0.81443245  0.00524832  1
  Ta  Ta82  1  0.89853126  0.09000306  0.36425289  1
  Ta  Ta83  1  0.48814437  0.48722799  0.36290682  1
  Ta  Ta84  1  0.77234058  0.39664828  0.74877413  1
  Ta  Ta85  1  0.30459139  0.08851419  0.88399431  1
  Ta  Ta86  1  0.79264365  0.81104649  -0.00738451  1
  Ta  Ta87  1  0.82479390  0.80845872  0.24152802  1
  Ta  Ta88  1  0.00018045  0.00400323  -0.01275577  1
  Ta  Ta89  1  0.70924690  0.09414231  0.64809910  1
  Ta  Ta90  1  0.38899862  0.79181834  0.24448983  1
  Ta  Ta91  1  0.68545122  0.68519576  0.63813205  1
  Ta  Ta92  1  0.30092199  0.89214818  0.87719349  1
  Ta  Ta93  1  0.40984833  0.19373765  -0.01140161  1
  Ta  Ta94  1  0.69234555  0.90898529  0.86048028  1
  Ta  Ta95  1  0.21494324  0.20846850  0.48989309  1
  Ta  Ta96  1  -0.00853414  0.40369036  0.76431695  1
  Ta  Ta97  1  0.49926238  0.09534840  0.63416459  1
  Ta  Ta98  1  0.69696696  0.30105196  0.88544270  1
  Ta  Ta99  1  0.09072812  0.71166273  0.39588947  1
  Ta  Ta100  1  0.49322715  0.29471907  0.62456919  1
  Ta  Ta101  1  0.89511930  0.29937953  0.64658879  1
  Ta  Ta102  1  0.00371153  0.59565293  0.49781427  1
  Ta  Ta103  1  0.00854818  0.00047885  0.50488828  1
  Ta  Ta104  1  0.51006174  0.30561512  0.88878459  1
  Ta  Ta105  1  0.58923592  0.39755110  0.50212783  1
  Ta  Ta106  1  0.19793779  -0.00162118  0.76330521  1
  Ta  Ta107  1  0.41093245  0.19718531  0.49380891  1
  Ta  Ta108  1  0.09046825  0.90394861  0.10750452  1
  Ta  Ta109  1  0.79748575  0.00087341  -0.01434215  1
  Ta  Ta110  1  0.32347918  0.09021923  0.37989071  1
  Ta  Ta111  1  0.39500821  0.79261394  0.74393656  1
  Ta  Ta112  1  0.10452719  0.51058680  0.88080281  1
  Ta  Ta113  1  0.00153383  -0.02062363  0.24645866  1
  Ta  Ta114  1  0.21595773  -0.00146450  0.49335421  1
  Ta  Ta115  1  0.40271277  0.78952177  0.00430900  1
  Ta  Ta116  1  -0.00278956  0.19286126  -0.00927747  1
  Ta  Ta117  1  0.59744331  0.58296203  0.75405768  1
  Ta  Ta118  1  0.48252912  0.69545721  0.12752897  1
  Ta  Ta119  1  0.30646797  0.30773893  0.88962474  1
  Ti  Ti120  1  0.20313211  0.79547172  0.75213993  1
  Ti  Ti121  1  0.01678143  0.00435493  0.76042006  1
  Ti  Ti122  1  0.11286889  0.09705333  0.62242661  1
  Ti  Ti123  1  0.10015466  0.09403032  0.11823226  1
  Ti  Ti124  1  0.89654274  0.10257519  0.86505885  1
  Ti  Ti125  1  0.51755776  0.09310244  0.87348411  1
  Ti  Ti126  1  0.69111364  0.49291444  0.88104194  1
  Ti  Ti127  1  0.10203049  0.29224783  0.63200348  1
  Ti  Ti128  1  0.58075693  0.37340731  0.24713293  1
  Ti  Ti129  1  0.79339202  0.58906390  0.75606610  1
  Ti  Ti130  1  0.11289431  0.89527058  0.38828999  1
  Ti  Ti131  1  0.59318542  0.59277047  0.50243525  1
  Ti  Ti132  1  0.38383213  0.59389667  0.00758291  1
  Ti  Ti133  1  0.69334970  0.49305617  0.11681993  1
  Ti  Ti134  1  0.50524937  0.89854576  0.64444656  1
  Ti  Ti135  1  0.10726869  0.90000419  0.88493355  1
  Ti  Ti136  1  0.10504298  0.49772199  0.11457166  1
  Ti  Ti137  1  0.79298121  0.40440853  -0.00264306  1
  Ti  Ti138  1  0.90501359  0.89309997  0.11364100  1
  Ti  Ti139  1  0.49459721  0.49792292  0.87460149  1
  Ti  Ti140  1  0.48977733  0.69308798  0.63708532  1
  Ti  Ti141  1  0.68287859  0.10579039  0.11295926  1
  Ti  Ti142  1  0.39664608  -0.00015393  0.75766570  1
  Ti  Ti143  1  0.29259143  0.49797775  0.36367225  1
  Ti  Ti144  1  0.70430064  0.09977976  0.86110215  1
  Ti  Ti145  1  0.10653140  0.31679454  0.36425508  1
  Ti  Ti146  1  0.40609306  0.40682375  -0.00508208  1
  Ti  Ti147  1  0.88575120  0.30327526  0.86636648  1
  Ti  Ti148  1  0.20046161  -0.00232779  -0.00459634  1
  Ti  Ti149  1  0.28869394  0.51659332  0.63389903  1
  Ti  Ti150  1  -0.01318242  0.80036339  -0.00952392  1
  Ti  Ti151  1  0.09871394  0.50987121  0.37055816  1
  Ti  Ti152  1  0.19440479  0.40266678  0.75352622  1
  Ti  Ti153  1  0.10452230  0.90631482  0.61879302  1
  Ti  Ti154  1  0.68861873  0.30040607  0.10777796  1
  Ti  Ti155  1  0.01216995  0.59725156  0.75549471  1
  Ti  Ti156  1  0.51177163  0.27949667  0.10137421  1
  Ti  Ti157  1  0.29399180  0.50053930  0.87496944  1
  Ti  Ti158  1  0.29709209  0.50519821  0.13480982  1
  Ti  Ti159  1  0.20677263  0.79546579  0.00270270  1
  Mo  Mo160  1  0.80404202  0.20761448  0.75792516  1
  Mo  Mo161  1  0.51121387  0.10640211  0.38228498  1
  Mo  Mo162  1  0.59361086  0.40081857  0.75848096  1
  Mo  Mo163  1  0.10158138  0.09124694  0.88241391  1
  Mo  Mo164  1  0.68675865  0.49919903  0.62860253  1
  Mo  Mo165  1  0.19064854  0.40748574  0.25131386  1
  Mo  Mo166  1  -0.00030890  0.60055738  -0.00887572  1
  Mo  Mo167  1  0.50475818  0.29994453  0.38371369  1
  Mo  Mo168  1  0.61666425  -0.00422665  -0.01150478  1
  Mo  Mo169  1  0.69282745  0.90284931  0.64366737  1
  Mo  Mo170  1  0.69309282  0.70017681  0.37577108  1
  Mo  Mo171  1  0.39681889  0.60132090  0.25307373  1
  Mo  Mo172  1  0.59580252  0.00313167  0.74409933  1
  Mo  Mo173  1  0.30334085  0.69706768  0.63197672  1
  Mo  Mo174  1  0.29949784  0.90647628  0.37458399  1
  Mo  Mo175  1  0.20494080  0.59168415  0.00907789  1
  Mo  Mo176  1  0.60307202  0.19962477  0.23828013  1
  Mo  Mo177  1  0.38171921  0.39706171  0.26553161  1
  Mo  Mo178  1  0.39279973  0.59830641  0.74896887  1
  Mo  Mo179  1  0.60515238  0.18947002  -0.01597430  1
  Mo  Mo180  1  0.21476384  0.41535050  -0.00177757  1
  Mo  Mo181  1  0.51270230  0.09785660  0.11170616  1
  Mo  Mo182  1  0.90015444  0.71645331  0.11117769  1
  Mo  Mo183  1  0.80979101  -0.00526286  0.25006404  1
  Mo  Mo184  1  0.29863216  0.69589279  0.12002144  1
  Mo  Mo185  1  0.00377825  0.80491641  0.24577503  1
  Mo  Mo186  1  0.80306380  0.00606124  0.75858714  1
  Mo  Mo187  1  0.60078965  0.40060505  0.00104626  1
  Mo  Mo188  1  0.50786406  0.89055346  0.12350908  1
  Mo  Mo189  1  0.69335657  0.30334719  0.62861600  1
  Mo  Mo190  1  0.20065019  0.80884726  0.50179286  1
  Mo  Mo191  1  0.88910030  0.49523795  0.85924165  1
  Mo  Mo192  1  0.19808763  0.59606767  0.49059358  1
  Mo  Mo193  1  0.40615980  0.00875565  0.50825450  1
  Mo  Mo194  1  0.00637661  0.80820504  0.51198402  1
  Mo  Mo195  1  0.60331448  0.01915209  0.24282895  1
  Mo  Mo196  1  0.01748520  0.41241803  0.24774839  1
  Mo  Mo197  1  0.29995779  0.30130713  0.37595280  1
  Mo  Mo198  1  0.19838766  0.59485613  0.75289744  1
  Mo  Mo199  1  0.59249746  0.79087869  0.74013865  1
