# generated using pymatgen
data_HfZrTaTiMo
_symmetry_space_group_name_H-M   'P 1'
_cell_length_a   15.22167934
_cell_length_b   15.20353942
_cell_length_c   16.83929306
_cell_angle_alpha   90.08002269
_cell_angle_beta   90.01170620
_cell_angle_gamma   90.09131060
_symmetry_Int_Tables_number   1
_chemical_formula_structural   HfZrTaTiMo
_chemical_formula_sum   'Hf40 Zr40 Ta40 Ti40 Mo40'
_cell_volume   3896.99765063
_cell_formula_units_Z   40
loop_
 _symmetry_equiv_pos_site_id
 _symmetry_equiv_pos_as_xyz
  1  'x, y, z'
loop_
 _atom_site_type_symbol
 _atom_site_label
 _atom_site_symmetry_multiplicity
 _atom_site_fract_x
 _atom_site_fract_y
 _atom_site_fract_z
 _atom_site_occupancy
  Hf  Hf0  1  0.59582113  0.40193415  0.26007910  1
  Hf  Hf1  1  0.89498974  0.48667542  0.61299632  1
  Hf  Hf2  1  0.81343702  0.00475509  0.49089425  1
  Hf  Hf3  1  0.70691623  0.91323759  0.12170947  1
  Hf  Hf4  1  0.00391796  0.59046606  0.50317362  1
  Hf  Hf5  1  0.00413750  0.37822738  0.75063097  1
  Hf  Hf6  1  0.79479135  0.59708256  0.75856736  1
  Hf  Hf7  1  0.29723120  0.69643521  0.37545590  1
  Hf  Hf8  1  0.11151339  0.88939980  0.11870123  1
  Hf  Hf9  1  0.00344402  -0.00267745  0.00506037  1
  Hf  Hf10  1  0.29613203  0.90367517  0.39507528  1
  Hf  Hf11  1  0.39176977  0.81227464  0.25276502  1
  Hf  Hf12  1  -0.00620537  0.59170385  0.74154219  1
  Hf  Hf13  1  0.00083587  0.59434107  -0.00450619  1
  Hf  Hf14  1  0.00019404  0.78704677  -0.00676466  1
  Hf  Hf15  1  0.01754357  -0.00100170  0.24154831  1
  Hf  Hf16  1  0.10068468  0.29123447  0.88505328  1
  Hf  Hf17  1  0.69056118  0.48886035  0.12065973  1
  Hf  Hf18  1  0.61705381  -0.00892562  0.49427228  1
  Hf  Hf19  1  0.70945687  0.30244612  0.60870351  1
  Hf  Hf20  1  0.79046338  0.79812790  0.75651641  1
  Hf  Hf21  1  0.79618565  0.40645562  0.27427489  1
  Hf  Hf22  1  0.91055972  0.29081883  0.61069023  1
  Hf  Hf23  1  0.71844477  0.11821664  0.86832076  1
  Hf  Hf24  1  0.41068784  0.19869732  -0.00258151  1
  Hf  Hf25  1  0.00838238  0.18698651  0.49061106  1
  Hf  Hf26  1  0.48598966  0.50020245  0.87646752  1
  Hf  Hf27  1  0.59474739  0.81834437  -0.00968843  1
  Hf  Hf28  1  0.60562738  0.20557758  0.74857811  1
  Hf  Hf29  1  0.01058283  0.79284596  0.73139952  1
  Hf  Hf30  1  0.40142781  0.80583321  0.75299262  1
  Hf  Hf31  1  0.60069353  0.79137248  0.24506608  1
  Hf  Hf32  1  0.59256474  0.60263368  -0.00464880  1
  Hf  Hf33  1  -0.00745798  0.79974058  0.25673282  1
  Hf  Hf34  1  0.18898298  0.20267872  0.74912600  1
  Hf  Hf35  1  0.89258145  0.70833728  0.38904498  1
  Hf  Hf36  1  0.10265430  0.69463948  0.37831921  1
  Hf  Hf37  1  0.30141040  0.50620644  0.63797337  1
  Hf  Hf38  1  0.50000340  0.90288339  0.37035625  1
  Hf  Hf39  1  0.53063833  0.91106839  0.64596204  1
  Zr  Zr40  1  0.60799811  0.02121073  -0.00935318  1
  Zr  Zr41  1  0.59726176  0.40230746  0.49824318  1
  Zr  Zr42  1  0.89604526  0.88975759  0.12339382  1
  Zr  Zr43  1  0.18954081  0.59235062  -0.00123557  1
  Zr  Zr44  1  0.59838478  0.40922943  0.74161195  1
  Zr  Zr45  1  0.28511659  0.31634406  0.64001220  1
  Zr  Zr46  1  0.79666404  0.38806318  0.74843742  1
  Zr  Zr47  1  0.31322721  0.11670784  0.37137553  1
  Zr  Zr48  1  0.28923778  0.69699149  0.13428870  1
  Zr  Zr49  1  0.79819040  0.20396269  0.26432281  1
  Zr  Zr50  1  0.80721970  0.60700516  -0.01299198  1
  Zr  Zr51  1  0.09602983  0.89765434  0.39353638  1
  Zr  Zr52  1  -0.00405964  0.39414595  0.00579643  1
  Zr  Zr53  1  0.61234321  0.00813871  0.25037624  1
  Zr  Zr54  1  0.59072806  0.18853302  0.50744623  1
  Zr  Zr55  1  -0.00302004  0.18675196  0.00943337  1
  Zr  Zr56  1  0.42258036  0.01036456  0.51198326  1
  Zr  Zr57  1  -0.00742402  0.38765826  0.26356115  1
  Zr  Zr58  1  0.70689679  0.70049490  0.12328811  1
  Zr  Zr59  1  0.39010968  0.20060930  0.51398437  1
  Zr  Zr60  1  0.49532018  0.50759621  0.62551438  1
  Zr  Zr61  1  0.31559085  0.31573182  0.11342469  1
  Zr  Zr62  1  0.69885631  0.08462299  0.63526388  1
  Zr  Zr63  1  0.30926344  0.89819833  0.87579709  1
  Zr  Zr64  1  0.38057862  0.40044316  0.49111858  1
  Zr  Zr65  1  0.89691515  0.90503354  0.63386722  1
  Zr  Zr66  1  0.49631870  0.51145523  0.37811803  1
  Zr  Zr67  1  0.49034218  0.70392748  0.11683769  1
  Zr  Zr68  1  0.23197477  0.00313994  0.23355136  1
  Zr  Zr69  1  0.31785767  0.89273031  0.61334852  1
  Zr  Zr70  1  0.20529164  0.00920208  0.00010654  1
  Zr  Zr71  1  0.91432454  0.90606221  0.86158056  1
  Zr  Zr72  1  0.11755356  0.10208263  0.36599635  1
  Zr  Zr73  1  0.78138705  0.80368642  0.50745668  1
  Zr  Zr74  1  0.48928141  0.70869684  0.62118724  1
  Zr  Zr75  1  0.20565025  0.02703944  0.52286773  1
  Zr  Zr76  1  0.69181701  0.48621695  0.88488309  1
  Zr  Zr77  1  0.89317975  0.50079868  0.13025288  1
  Zr  Zr78  1  0.48156608  0.49234433  0.11602777  1
  Zr  Zr79  1  0.20384496  -0.00686710  0.73726686  1
  Ta  Ta80  1  0.12383761  0.30113237  0.36238652  1
  Ta  Ta81  1  0.48616744  0.71179105  0.88054895  1
  Ta  Ta82  1  0.10139348  0.69870678  0.86411748  1
  Ta  Ta83  1  0.20204975  0.20084135  0.01322943  1
  Ta  Ta84  1  0.20286685  0.78742138  0.73117430  1
  Ta  Ta85  1  0.88550212  0.29377937  0.13154954  1
  Ta  Ta86  1  0.59434584  0.61728673  0.75766911  1
  Ta  Ta87  1  0.70355940  0.51876492  0.61895075  1
  Ta  Ta88  1  0.90214855  0.48520126  0.87582780  1
  Ta  Ta89  1  0.50447904  0.30513598  0.87679966  1
  Ta  Ta90  1  0.50635514  0.10419796  0.12801612  1
  Ta  Ta91  1  0.89692745  0.09729060  0.14076708  1
  Ta  Ta92  1  0.49915943  0.91148621  0.12606203  1
  Ta  Ta93  1  0.10054458  0.50091370  0.14537919  1
  Ta  Ta94  1  0.37686958  0.60886643  -0.01239365  1
  Ta  Ta95  1  0.01199331  0.38984734  0.48054891  1
  Ta  Ta96  1  0.10517816  0.47320607  0.62445589  1
  Ta  Ta97  1  0.91400475  0.09320911  0.36116619  1
  Ta  Ta98  1  0.90079203  0.10237895  0.63685345  1
  Ta  Ta99  1  0.80123774  0.80807757  -0.01904090  1
  Ta  Ta100  1  0.09940094  0.49278797  0.86572689  1
  Ta  Ta101  1  0.40353525  0.59741656  0.25295394  1
  Ta  Ta102  1  0.18965487  0.60191410  0.74179508  1
  Ta  Ta103  1  0.30311400  0.30735597  0.87768765  1
  Ta  Ta104  1  0.41329245  -0.00165824  -0.00582522  1
  Ta  Ta105  1  0.19386152  0.80484109  0.25336550  1
  Ta  Ta106  1  0.48986647  0.30084590  0.63480695  1
  Ta  Ta107  1  0.68395599  0.69107389  0.37211993  1
  Ta  Ta108  1  0.20576965  0.20624194  0.22508746  1
  Ta  Ta109  1  0.31439914  0.89519125  0.10840665  1
  Ta  Ta110  1  0.40461682  0.19690646  0.23497104  1
  Ta  Ta111  1  0.81104045  0.01075241  -0.00680638  1
  Ta  Ta112  1  0.48775648  0.28770918  0.36885095  1
  Ta  Ta113  1  0.20734858  0.78650877  -0.00735451  1
  Ta  Ta114  1  0.88340432  0.68815130  0.61703558  1
  Ta  Ta115  1  0.10980670  0.89150012  0.86961334  1
  Ta  Ta116  1  0.28270269  0.49369835  0.36058331  1
  Ta  Ta117  1  0.88630766  0.27956809  0.87488722  1
  Ta  Ta118  1  0.09077163  0.69168126  0.13787934  1
  Ta  Ta119  1  0.29013705  0.49799190  0.86091581  1
  Ti  Ti120  1  0.80766885  0.40330927  0.47476661  1
  Ti  Ti121  1  0.69276694  0.70642863  0.87664581  1
  Ti  Ti122  1  0.39662813  0.20387740  0.75249531  1
  Ti  Ti123  1  0.68602673  0.71130287  0.63227079  1
  Ti  Ti124  1  0.50716939  0.10363961  0.36102074  1
  Ti  Ti125  1  0.60194193  0.60835981  0.50215345  1
  Ti  Ti126  1  0.10252623  0.50042221  0.36061017  1
  Ti  Ti127  1  0.19750122  0.22652479  0.50899077  1
  Ti  Ti128  1  0.80731632  0.19813863  0.48255732  1
  Ti  Ti129  1  0.80027102  0.79511228  0.25712402  1
  Ti  Ti130  1  0.70309518  0.12160789  0.13109130  1
  Ti  Ti131  1  0.52028076  0.30047798  0.12509400  1
  Ti  Ti132  1  0.89729117  0.69492573  0.13028153  1
  Ti  Ti133  1  0.59048917  0.80021316  0.49684627  1
  Ti  Ti134  1  0.80053117  0.00307595  0.75866296  1
  Ti  Ti135  1  0.29107270  0.50473473  0.13610672  1
  Ti  Ti136  1  0.61407861  0.21788734  -0.00187904  1
  Ti  Ti137  1  0.09143897  0.08810482  0.86508225  1
  Ti  Ti138  1  0.79039328  0.59427589  0.49082265  1
  Ti  Ti139  1  0.49586580  0.09797913  0.85995209  1
  Ti  Ti140  1  0.19708059  0.78220042  0.52272182  1
  Ti  Ti141  1  0.70861665  0.89054463  0.36891938  1
  Ti  Ti142  1  0.00321528  -0.00476609  0.50814966  1
  Ti  Ti143  1  0.78761884  0.38225649  -0.00050826  1
  Ti  Ti144  1  0.20065818  0.58509136  0.50630457  1
  Ti  Ti145  1  0.39146799  0.60995667  0.49879433  1
  Ti  Ti146  1  0.68740556  0.29455644  0.38466147  1
  Ti  Ti147  1  0.78703729  0.59873637  0.26429085  1
  Ti  Ti148  1  0.70044257  0.10056776  0.37180586  1
  Ti  Ti149  1  0.38989734  0.61131393  0.75888057  1
  Ti  Ti150  1  0.39102526  0.39337163  0.25787438  1
  Ti  Ti151  1  0.80091516  0.19728671  0.00922913  1
  Ti  Ti152  1  0.29745769  0.10716713  0.87259722  1
  Ti  Ti153  1  0.08844120  0.10533856  0.63404752  1
  Ti  Ti154  1  0.19879228  0.40390419  0.00337495  1
  Ti  Ti155  1  0.49590251  0.70277995  0.37654179  1
  Ti  Ti156  1  0.09539099  0.30272483  0.12992911  1
  Ti  Ti157  1  0.81300218  -0.01263549  0.26306281  1
  Ti  Ti158  1  -0.01573174  0.59728354  0.26187481  1
  Ti  Ti159  1  -0.00083176  0.79765600  0.51944351  1
  Mo  Mo160  1  0.59634872  0.59855268  0.25142761  1
  Mo  Mo161  1  0.38768258  0.40754435  -0.00962162  1
  Mo  Mo162  1  0.60926639  -0.00324622  0.77436226  1
  Mo  Mo163  1  0.19314348  0.60370546  0.25253552  1
  Mo  Mo164  1  0.20093684  0.40096418  0.23921554  1
  Mo  Mo165  1  0.19403793  0.40091918  0.75959582  1
  Mo  Mo166  1  0.70273524  0.29947193  0.12933895  1
  Mo  Mo167  1  0.69598887  0.50748748  0.38265020  1
  Mo  Mo168  1  0.90354552  0.50552959  0.38418381  1
  Mo  Mo169  1  0.69907218  0.30099716  0.87942730  1
  Mo  Mo170  1  0.60301111  0.79783992  0.76892033  1
  Mo  Mo171  1  0.31675352  0.10109499  0.11362872  1
  Mo  Mo172  1  0.40043243  0.39534942  0.76042136  1
  Mo  Mo173  1  0.19139632  0.40904893  0.49162490  1
  Mo  Mo174  1  0.30143490  0.11037254  0.63779593  1
  Mo  Mo175  1  0.50604787  0.90929968  0.86531342  1
  Mo  Mo176  1  0.40409600  0.79663906  0.49048086  1
  Mo  Mo177  1  0.40357148  0.01573528  0.75133795  1
  Mo  Mo178  1  0.70440292  0.89689634  0.63105779  1
  Mo  Mo179  1  0.90373241  0.69312768  0.87008360  1
  Mo  Mo180  1  0.09212283  0.29408227  0.61912904  1
  Mo  Mo181  1  0.49375818  0.10535737  0.65213243  1
  Mo  Mo182  1  0.09891360  0.68339102  0.61766795  1
  Mo  Mo183  1  0.39835416  0.80269169  -0.00422094  1
  Mo  Mo184  1  0.90218872  0.90191336  0.37921763  1
  Mo  Mo185  1  0.80621300  0.20326469  0.74266397  1
  Mo  Mo186  1  -0.00529002  0.18925917  0.75509466  1
  Mo  Mo187  1  0.10245806  0.89567542  0.61072289  1
  Mo  Mo188  1  0.90834279  0.29009846  0.38504522  1
  Mo  Mo189  1  0.10620994  0.10731510  0.12956885  1
  Mo  Mo190  1  0.91010494  0.10037964  0.86633497  1
  Mo  Mo191  1  0.29954022  0.69086520  0.62047856  1
  Mo  Mo192  1  0.59952368  0.20782072  0.25410083  1
  Mo  Mo193  1  0.01073834  -0.00033107  0.74376021  1
  Mo  Mo194  1  0.29767730  0.29935966  0.36276441  1
  Mo  Mo195  1  0.40822910  0.00328798  0.24391418  1
  Mo  Mo196  1  0.58887435  0.38954282  0.00197064  1
  Mo  Mo197  1  0.29013061  0.69780142  0.86789452  1
  Mo  Mo198  1  0.70760470  0.90879390  0.88085500  1
  Mo  Mo199  1  0.00497544  0.19707453  0.24055714  1
