# generated using pymatgen
data_HfZrTaTiMo
_symmetry_space_group_name_H-M   'P 1'
_cell_length_a   15.19846466
_cell_length_b   15.21421611
_cell_length_c   16.83503792
_cell_angle_alpha   89.99910523
_cell_angle_beta   90.01583935
_cell_angle_gamma   89.94132987
_symmetry_Int_Tables_number   1
_chemical_formula_structural   HfZrTaTiMo
_chemical_formula_sum   'Hf40 Zr40 Ta40 Ti40 Mo40'
_cell_volume   3892.80951774
_cell_formula_units_Z   40
loop_
 _symmetry_equiv_pos_site_id
 _symmetry_equiv_pos_as_xyz
  1  'x, y, z'
loop_
 _atom_site_type_symbol
 _atom_site_label
 _atom_site_symmetry_multiplicity
 _atom_site_fract_x
 _atom_site_fract_y
 _atom_site_fract_z
 _atom_site_occupancy
  Hf  Hf0  1  0.40586838  0.59233088  0.50066235  1
  Hf  Hf1  1  -0.02253713  0.39878899  0.48849991  1
  Hf  Hf2  1  0.60781298  0.20395998  0.51615368  1
  Hf  Hf3  1  -0.00047511  0.41566116  0.74300363  1
  Hf  Hf4  1  0.30190571  0.69159245  0.13174166  1
  Hf  Hf5  1  -0.02820312  0.80287669  0.00495450  1
  Hf  Hf6  1  0.48388449  0.11278229  0.85598083  1
  Hf  Hf7  1  0.30692682  0.70124009  0.37259749  1
  Hf  Hf8  1  0.72280353  0.70966584  0.87825304  1
  Hf  Hf9  1  0.39365899  0.19742208  0.50879402  1
  Hf  Hf10  1  0.29293697  0.69483528  0.87344529  1
  Hf  Hf11  1  0.90821912  0.70654461  0.60402762  1
  Hf  Hf12  1  0.68922195  0.11389251  0.36821702  1
  Hf  Hf13  1  0.20686284  0.39316906  0.48973171  1
  Hf  Hf14  1  0.10622003  0.90678488  0.35871434  1
  Hf  Hf15  1  0.30335613  0.69716964  0.62205346  1
  Hf  Hf16  1  0.39135749  -0.00437549  0.51652003  1
  Hf  Hf17  1  0.50560043  0.28756670  0.13040067  1
  Hf  Hf18  1  0.81338809  0.62228324  0.01967887  1
  Hf  Hf19  1  0.21182508  0.19407609  0.00747504  1
  Hf  Hf20  1  0.21029984  0.38554126  0.74382409  1
  Hf  Hf21  1  0.59991537  0.79798834  0.00965696  1
  Hf  Hf22  1  0.81783488  0.40709847  0.00570763  1
  Hf  Hf23  1  0.28145822  0.89935727  0.13346294  1
  Hf  Hf24  1  0.09598275  0.30133681  0.61824897  1
  Hf  Hf25  1  0.79622041  0.21463259  0.23578054  1
  Hf  Hf26  1  0.51029886  0.69678866  0.87018125  1
  Hf  Hf27  1  0.30839294  0.91446859  0.36226492  1
  Hf  Hf28  1  0.00908604  0.21029741  0.23195423  1
  Hf  Hf29  1  0.59183171  0.22520158  0.74302950  1
  Hf  Hf30  1  0.51599714  0.29267261  0.37835989  1
  Hf  Hf31  1  0.10673979  0.69468570  0.60439001  1
  Hf  Hf32  1  0.89829490  0.11335784  0.36373510  1
  Hf  Hf33  1  0.70745497  0.09688128  0.64101615  1
  Hf  Hf34  1  0.19934585  -0.00201005  0.50753992  1
  Hf  Hf35  1  0.01207033  0.20646206  0.00834556  1
  Hf  Hf36  1  0.20999324  0.19550621  0.24757350  1
  Hf  Hf37  1  0.11203801  0.69976957  0.37933206  1
  Hf  Hf38  1  0.59543267  -0.00087183  0.50653046  1
  Hf  Hf39  1  0.68622504  0.31599397  0.88560791  1
  Zr  Zr40  1  0.60604129  0.59665817  0.51069194  1
  Zr  Zr41  1  0.09105512  0.89136857  0.62078303  1
  Zr  Zr42  1  0.67711375  0.10269201  0.12135208  1
  Zr  Zr43  1  0.69772348  0.49882080  0.12620458  1
  Zr  Zr44  1  0.11224817  0.49293718  0.14463006  1
  Zr  Zr45  1  0.80978476  0.19963726  -0.00720961  1
  Zr  Zr46  1  0.20615293  0.39515836  0.00451235  1
  Zr  Zr47  1  0.40387853  0.59079957  0.74684175  1
  Zr  Zr48  1  0.61389328  0.58611332  0.73797388  1
  Zr  Zr49  1  0.30603218  0.48421511  0.87577394  1
  Zr  Zr50  1  0.07766540  0.91774487  0.14044855  1
  Zr  Zr51  1  0.70753580  0.51093211  0.88728421  1
  Zr  Zr52  1  0.78917156  0.40872643  0.74269688  1
  Zr  Zr53  1  0.00162601  0.20958937  0.76046934  1
  Zr  Zr54  1  0.59821870  0.79798102  0.23601810  1
  Zr  Zr55  1  0.68415616  0.90249616  0.37598806  1
  Zr  Zr56  1  0.41077546  0.80273139  0.24440254  1
  Zr  Zr57  1  0.08695856  0.09747474  0.63540879  1
  Zr  Zr58  1  0.89257650  0.91804444  0.61467466  1
  Zr  Zr59  1  0.82150372  0.60721120  0.73555106  1
  Zr  Zr60  1  0.09497578  0.69879033  0.87450398  1
  Zr  Zr61  1  0.79594642  -0.01152788  -0.00272102  1
  Zr  Zr62  1  0.38729378  -0.00520551  0.75203162  1
  Zr  Zr63  1  0.19432009  0.18953799  0.49317591  1
  Zr  Zr64  1  -0.00890412  0.80092919  0.75312122  1
  Zr  Zr65  1  0.88998961  0.90974111  0.38198685  1
  Zr  Zr66  1  0.79263077  0.79904037  0.23839643  1
  Zr  Zr67  1  0.58354959  0.19825442  -0.01178248  1
  Zr  Zr68  1  0.50270938  0.89114871  0.63719432  1
  Zr  Zr69  1  0.10451779  0.70600504  0.14315063  1
  Zr  Zr70  1  0.39491184  0.80327936  -0.00210980  1
  Zr  Zr71  1  0.19403279  -0.00780432  0.74856707  1
  Zr  Zr72  1  0.80261065  0.60561469  0.25058455  1
  Zr  Zr73  1  0.40697949  0.59162099  0.00318606  1
  Zr  Zr74  1  0.38727596  0.01254324  -0.02073582  1
  Zr  Zr75  1  0.01157020  0.59759953  0.00924911  1
  Zr  Zr76  1  0.39828996  0.39044541  0.25633176  1
  Zr  Zr77  1  0.80249225  0.20851187  0.76085455  1
  Zr  Zr78  1  -0.01729378  0.79350593  0.26180830  1
  Zr  Zr79  1  0.90800547  0.08903655  0.12763543  1
  Ta  Ta80  1  0.41135502  0.80121171  0.49651125  1
  Ta  Ta81  1  0.48772779  0.31991758  0.61364788  1
  Ta  Ta82  1  0.91312261  0.51924732  0.87752114  1
  Ta  Ta83  1  0.49056533  0.92430583  0.11734140  1
  Ta  Ta84  1  0.19568020  0.58692516  0.74105250  1
  Ta  Ta85  1  -0.01171067  0.19634585  0.49864045  1
  Ta  Ta86  1  -0.00466330  0.59137909  0.27520602  1
  Ta  Ta87  1  0.50921680  0.49829159  0.37064824  1
  Ta  Ta88  1  0.79163475  0.00099213  0.24332280  1
  Ta  Ta89  1  0.71834814  0.31107394  0.37997015  1
  Ta  Ta90  1  0.51187236  0.70105426  0.37620154  1
  Ta  Ta91  1  0.50393937  0.70093054  0.63088046  1
  Ta  Ta92  1  0.10298714  0.10014949  0.87136625  1
  Ta  Ta93  1  0.69971516  0.30534593  0.11271506  1
  Ta  Ta94  1  -0.00195179  0.59388643  0.47860633  1
  Ta  Ta95  1  0.50128887  0.49355790  0.13066445  1
  Ta  Ta96  1  0.49662923  0.10320377  0.63957035  1
  Ta  Ta97  1  0.69654509  0.09994018  0.86510815  1
  Ta  Ta98  1  0.58670676  -0.00586762  -0.02409916  1
  Ta  Ta99  1  0.70022999  0.49698445  0.37291697  1
  Ta  Ta100  1  0.70497276  0.70981707  0.61898703  1
  Ta  Ta101  1  0.10371191  0.49633423  0.87365465  1
  Ta  Ta102  1  0.60066350  -0.00639029  0.76180206  1
  Ta  Ta103  1  0.37496325  0.20909205  0.73224357  1
  Ta  Ta104  1  0.51502581  0.48618591  0.88053535  1
  Ta  Ta105  1  0.10559528  0.50406859  0.60625915  1
  Ta  Ta106  1  -0.00163431  0.00249266  -0.01051523  1
  Ta  Ta107  1  0.31584139  0.09218861  0.12768873  1
  Ta  Ta108  1  0.41273805  0.39514107  0.74694598  1
  Ta  Ta109  1  0.41284082  0.59583089  0.25205384  1
  Ta  Ta110  1  0.20454671  0.59798028  0.00459838  1
  Ta  Ta111  1  0.41668447  0.17789105  0.25596289  1
  Ta  Ta112  1  0.30466371  0.49786505  0.37683897  1
  Ta  Ta113  1  0.31050468  0.48080757  0.61421761  1
  Ta  Ta114  1  0.80715512  0.58042139  0.50277792  1
  Ta  Ta115  1  0.91418282  0.49988803  0.13812819  1
  Ta  Ta116  1  0.79758643  0.81132961  0.74425710  1
  Ta  Ta117  1  0.57600455  0.00902172  0.25200221  1
  Ta  Ta118  1  0.70370443  0.69553479  0.38376928  1
  Ta  Ta119  1  0.18785036  -0.00156140  -0.00258259  1
  Ti  Ti120  1  0.91270162  0.31920675  0.87763327  1
  Ti  Ti121  1  0.79593916  0.02014711  0.49838676  1
  Ti  Ti122  1  0.30430649  0.29784971  0.13225494  1
  Ti  Ti123  1  0.01207058  0.40015265  0.00761990  1
  Ti  Ti124  1  0.90021231  0.08406928  0.86811701  1
  Ti  Ti125  1  0.10282470  0.09643188  0.36438685  1
  Ti  Ti126  1  0.80426567  0.21233844  0.50504194  1
  Ti  Ti127  1  0.60085863  0.60246118  0.24667503  1
  Ti  Ti128  1  0.70160334  0.90204285  0.62688093  1
  Ti  Ti129  1  0.89897648  0.10347785  0.63599056  1
  Ti  Ti130  1  0.89010844  0.30397297  0.62452960  1
  Ti  Ti131  1  0.18458412  0.80061062  0.00000008  1
  Ti  Ti132  1  0.20110438  0.79285211  0.74500774  1
  Ti  Ti133  1  0.30758323  0.28856271  0.37382237  1
  Ti  Ti134  1  0.69160804  0.91024624  0.12198239  1
  Ti  Ti135  1  -0.00593659  0.39738167  0.26316655  1
  Ti  Ti136  1  0.00114585  0.80653562  0.48303916  1
  Ti  Ti137  1  0.28334724  0.89487586  0.87715086  1
  Ti  Ti138  1  -0.00048482  0.01198825  0.49187383  1
  Ti  Ti139  1  0.48291024  0.30696593  0.87580851  1
  Ti  Ti140  1  0.39589106  0.80037207  0.75724252  1
  Ti  Ti141  1  0.40654908  0.38646457  0.00642873  1
  Ti  Ti142  1  0.08364411  0.90339065  0.87355652  1
  Ti  Ti143  1  0.19601038  0.38907860  0.26231549  1
  Ti  Ti144  1  0.10621920  0.49508433  0.37703237  1
  Ti  Ti145  1  0.60705010  0.40553421  0.50709368  1
  Ti  Ti146  1  0.79360760  0.79960852  0.49626768  1
  Ti  Ti147  1  0.20902918  0.59318467  0.25898825  1
  Ti  Ti148  1  0.70021388  0.89954123  0.87335851  1
  Ti  Ti149  1  0.11527326  0.30057955  0.87421547  1
  Ti  Ti150  1  0.08815814  0.29036431  0.37643621  1
  Ti  Ti151  1  0.48615439  0.08392051  0.38224965  1
  Ti  Ti152  1  0.60493795  0.79726967  0.75088986  1
  Ti  Ti153  1  0.01066026  0.60383010  0.74189411  1
  Ti  Ti154  1  0.30637594  0.49377579  0.13329168  1
  Ti  Ti155  1  0.80913960  0.40139778  0.24521215  1
  Ti  Ti156  1  0.59818151  0.79899748  0.50316360  1
  Ti  Ti157  1  0.61213917  0.39193652  0.25139467  1
  Ti  Ti158  1  0.21678404  0.80639116  0.49963878  1
  Ti  Ti159  1  0.60036555  0.59954619  0.00981165  1
  Mo  Mo160  1  0.50219949  0.68662235  0.12417857  1
  Mo  Mo161  1  -0.01160753  -0.00172056  0.76602154  1
  Mo  Mo162  1  0.88627912  0.48987250  0.36768010  1
  Mo  Mo163  1  0.69866154  0.30271782  0.62002684  1
  Mo  Mo164  1  0.29678618  0.88274705  0.62549475  1
  Mo  Mo165  1  0.90758234  0.69707685  0.13664226  1
  Mo  Mo166  1  0.40885188  0.39683343  0.48323020  1
  Mo  Mo167  1  0.70885749  0.49699377  0.61983913  1
  Mo  Mo168  1  0.50155186  0.89522097  0.38224234  1
  Mo  Mo169  1  0.50216649  0.89275890  0.86492022  1
  Mo  Mo170  1  0.89781708  0.70078157  0.87314225  1
  Mo  Mo171  1  0.89557904  0.29739273  0.37289161  1
  Mo  Mo172  1  0.59190513  0.40441362  0.74351255  1
  Mo  Mo173  1  0.11487991  0.09305052  0.12390469  1
  Mo  Mo174  1  0.19891061  0.19776805  0.75212063  1
  Mo  Mo175  1  0.29618627  0.29991038  0.61513382  1
  Mo  Mo176  1  0.29576679  0.09781996  0.62890125  1
  Mo  Mo177  1  0.39849303  0.00114741  0.24882628  1
  Mo  Mo178  1  0.10825590  0.30427310  0.13091031  1
  Mo  Mo179  1  0.19887434  0.01103161  0.24530429  1
  Mo  Mo180  1  0.79682349  -0.00526947  0.75695420  1
  Mo  Mo181  1  0.49685881  0.09655938  0.11846174  1
  Mo  Mo182  1  0.88676055  0.89237437  0.87342006  1
  Mo  Mo183  1  0.88708043  0.90469598  0.13093349  1
  Mo  Mo184  1  0.59194707  0.40556455  0.00661185  1
  Mo  Mo185  1  0.49920041  0.49801005  0.62082486  1
  Mo  Mo186  1  0.30023255  0.10132126  0.37184446  1
  Mo  Mo187  1  0.89314178  0.69741326  0.39554145  1
  Mo  Mo188  1  0.78861643  0.39725062  0.51003277  1
  Mo  Mo189  1  0.20162316  0.79520175  0.25243692  1
  Mo  Mo190  1  0.90571276  0.31493851  0.12173803  1
  Mo  Mo191  1  -0.00930700  0.00892768  0.25750375  1
  Mo  Mo192  1  0.30972222  0.28589989  0.87511643  1
  Mo  Mo193  1  0.91699413  0.50128952  0.61942946  1
  Mo  Mo194  1  0.69272819  0.69968331  0.12270603  1
  Mo  Mo195  1  0.39101303  0.20880078  0.00038366  1
  Mo  Mo196  1  0.28523714  0.10782287  0.86944784  1
  Mo  Mo197  1  0.20553211  0.59193576  0.49445731  1
  Mo  Mo198  1  0.60207152  0.20406434  0.25424792  1
  Mo  Mo199  1  0.79149831  0.80572716  0.01934531  1
