# generated using pymatgen
data_HfZrTaTiMo
_symmetry_space_group_name_H-M   'P 1'
_cell_length_a   15.20906278
_cell_length_b   15.21051118
_cell_length_c   16.82804449
_cell_angle_alpha   90.02554437
_cell_angle_beta   90.05751631
_cell_angle_gamma   90.04841967
_symmetry_Int_Tables_number   1
_chemical_formula_structural   HfZrTaTiMo
_chemical_formula_sum   'Hf40 Zr40 Ta40 Ti40 Mo40'
_cell_volume   3892.95601425
_cell_formula_units_Z   40
loop_
 _symmetry_equiv_pos_site_id
 _symmetry_equiv_pos_as_xyz
  1  'x, y, z'
loop_
 _atom_site_type_symbol
 _atom_site_label
 _atom_site_symmetry_multiplicity
 _atom_site_fract_x
 _atom_site_fract_y
 _atom_site_fract_z
 _atom_site_occupancy
  Hf  Hf0  1  0.51950015  0.90210012  0.38915954  1
  Hf  Hf1  1  0.90001792  0.50085929  0.63031811  1
  Hf  Hf2  1  0.50241503  0.90373104  0.86186227  1
  Hf  Hf3  1  0.80321731  0.39244456  0.49797738  1
  Hf  Hf4  1  -0.00364412  0.61093922  -0.00047796  1
  Hf  Hf5  1  0.10836164  0.90096913  0.86382377  1
  Hf  Hf6  1  -0.01587432  -0.01055551  0.50682126  1
  Hf  Hf7  1  0.40297148  0.60254643  0.01812966  1
  Hf  Hf8  1  0.90101437  0.50348250  0.11883826  1
  Hf  Hf9  1  0.27124179  0.09069835  0.13424859  1
  Hf  Hf10  1  0.49352621  0.11067435  0.63005901  1
  Hf  Hf11  1  0.50905719  0.91641925  0.61733887  1
  Hf  Hf12  1  0.77599486  -0.01302992  0.50039475  1
  Hf  Hf13  1  0.91756839  0.09000848  0.13327324  1
  Hf  Hf14  1  0.69065923  0.48727533  0.62501875  1
  Hf  Hf15  1  0.30214628  0.89543651  0.13671803  1
  Hf  Hf16  1  0.18445103  0.78424059  0.49311949  1
  Hf  Hf17  1  0.40030464  0.19680561  0.00351246  1
  Hf  Hf18  1  0.10592631  0.68855881  0.64072459  1
  Hf  Hf19  1  0.29814101  0.89946672  0.38953614  1
  Hf  Hf20  1  0.39680060  -0.00215868  0.00422271  1
  Hf  Hf21  1  -0.00264724  0.22306491  0.75819638  1
  Hf  Hf22  1  0.01339837  -0.00264284  -0.00727703  1
  Hf  Hf23  1  0.39803888  0.40558327  0.00185563  1
  Hf  Hf24  1  0.60418097  0.61567649  0.24904202  1
  Hf  Hf25  1  0.19389786  0.80327842  0.00266739  1
  Hf  Hf26  1  0.49999160  0.30877102  0.86578650  1
  Hf  Hf27  1  0.49017802  0.51421695  0.62713521  1
  Hf  Hf28  1  0.40928988  0.79718872  0.25869178  1
  Hf  Hf29  1  0.60635108  0.19272650  0.48479077  1
  Hf  Hf30  1  0.40616627  0.80060539  0.00650228  1
  Hf  Hf31  1  0.90463840  0.70393305  0.38141553  1
  Hf  Hf32  1  0.21940190  -0.00169482  0.73989463  1
  Hf  Hf33  1  0.79172510  0.38548509  0.74764343  1
  Hf  Hf34  1  0.59132846  0.39711275  0.49186164  1
  Hf  Hf35  1  0.69359992  0.09854777  0.62515447  1
  Hf  Hf36  1  0.00542876  0.60791016  0.49903069  1
  Hf  Hf37  1  0.20045323  0.59461217  0.01496759  1
  Hf  Hf38  1  0.60173199  0.41367816  -0.00281214  1
  Hf  Hf39  1  0.90434289  0.88720932  0.85855124  1
  Zr  Zr40  1  0.89760974  0.28966483  0.12897773  1
  Zr  Zr41  1  0.18433299  0.19038516  -0.00424108  1
  Zr  Zr42  1  0.28618147  0.30097264  0.88094126  1
  Zr  Zr43  1  0.10338663  0.09929271  0.61171362  1
  Zr  Zr44  1  0.11035835  0.50084878  0.86504388  1
  Zr  Zr45  1  0.19710655  0.79903799  0.26614638  1
  Zr  Zr46  1  0.19561554  0.60550706  0.24806908  1
  Zr  Zr47  1  0.09796098  0.92129541  0.13032907  1
  Zr  Zr48  1  0.79764540  0.18992355  0.75777549  1
  Zr  Zr49  1  0.19735516  0.19534382  0.74792866  1
  Zr  Zr50  1  0.81093172  0.60623467  0.24984702  1
  Zr  Zr51  1  0.70146266  0.29892093  0.14274661  1
  Zr  Zr52  1  -0.00707157  0.20623278  0.49109675  1
  Zr  Zr53  1  0.29564809  0.31368073  0.37141316  1
  Zr  Zr54  1  0.30412026  0.68265767  0.86893693  1
  Zr  Zr55  1  0.49966462  0.09475084  0.14107792  1
  Zr  Zr56  1  0.00089939  0.01396005  0.74299701  1
  Zr  Zr57  1  0.59647774  0.20451889  0.00012086  1
  Zr  Zr58  1  0.09529517  0.70259009  0.85703732  1
  Zr  Zr59  1  0.69845338  0.51149419  0.37533865  1
  Zr  Zr60  1  0.30396472  0.29909286  0.61956992  1
  Zr  Zr61  1  -0.00491087  0.79839237  0.24891562  1
  Zr  Zr62  1  0.38495929  0.41845815  0.76025012  1
  Zr  Zr63  1  0.89963666  0.48947540  0.86993083  1
  Zr  Zr64  1  0.00044821  0.39788691  0.24333052  1
  Zr  Zr65  1  0.70121486  0.49675047  0.13257349  1
  Zr  Zr66  1  0.70157188  0.30270023  0.35232999  1
  Zr  Zr67  1  0.60110716  0.00294426  -0.00429217  1
  Zr  Zr68  1  0.80331156  -0.01046008  -0.00157390  1
  Zr  Zr69  1  0.52415492  0.31302776  0.64222314  1
  Zr  Zr70  1  0.40774117  0.79488089  0.73262126  1
  Zr  Zr71  1  0.29530616  0.29570857  0.13008042  1
  Zr  Zr72  1  0.09400599  0.49618115  0.63022642  1
  Zr  Zr73  1  0.40132023  0.60847941  0.24910365  1
  Zr  Zr74  1  0.40945908  0.21398371  0.48898101  1
  Zr  Zr75  1  0.28824154  0.50383431  0.61802633  1
  Zr  Zr76  1  0.29975924  0.90490148  0.60237022  1
  Zr  Zr77  1  0.70956479  0.09617640  0.13902557  1
  Zr  Zr78  1  0.38681859  0.19254132  0.25628329  1
  Zr  Zr79  1  0.69986597  0.70802736  0.87506548  1
  Ta  Ta80  1  0.09236641  0.88934116  0.62348903  1
  Ta  Ta81  1  0.29790222  0.49602624  0.13630841  1
  Ta  Ta82  1  0.78740472  0.59595815  0.75121097  1
  Ta  Ta83  1  0.69590049  0.89205154  0.12496795  1
  Ta  Ta84  1  0.40206552  0.60029825  0.48538598  1
  Ta  Ta85  1  0.21140393  0.79733528  0.73937870  1
  Ta  Ta86  1  0.88746194  0.89787388  0.64269982  1
  Ta  Ta87  1  0.30519386  0.89514232  0.87057869  1
  Ta  Ta88  1  0.60808708  0.79972889  0.73319376  1
  Ta  Ta89  1  0.09554579  0.49257504  0.37758886  1
  Ta  Ta90  1  0.39530988  -0.00811802  0.26442207  1
  Ta  Ta91  1  0.79898488  0.60568268  0.50716632  1
  Ta  Ta92  1  0.51518831  0.70173152  0.38928396  1
  Ta  Ta93  1  0.39476531  0.18987659  0.75454257  1
  Ta  Ta94  1  0.50199591  0.30884457  0.34866087  1
  Ta  Ta95  1  0.62232002  0.80807645  0.51699544  1
  Ta  Ta96  1  0.09309135  0.30739109  0.61536796  1
  Ta  Ta97  1  0.81449167  0.18546499  0.26557509  1
  Ta  Ta98  1  0.00974871  0.39447291  0.00484214  1
  Ta  Ta99  1  0.79714813  0.19363304  -0.00930223  1
  Ta  Ta100  1  0.79068033  0.80075379  0.24475103  1
  Ta  Ta101  1  0.19120812  0.39865486  0.24670708  1
  Ta  Ta102  1  0.50476345  0.70783686  0.87601574  1
  Ta  Ta103  1  0.88163411  0.89764113  0.37154335  1
  Ta  Ta104  1  0.90635400  0.30298398  0.36737773  1
  Ta  Ta105  1  0.90063826  0.69655855  0.85715889  1
  Ta  Ta106  1  0.70403236  0.30748874  0.88071066  1
  Ta  Ta107  1  0.49522259  0.52131787  0.87248460  1
  Ta  Ta108  1  0.40937107  0.01496156  0.48481125  1
  Ta  Ta109  1  0.17952528  0.01300265  0.27369525  1
  Ta  Ta110  1  0.79907836  0.18996680  0.48383048  1
  Ta  Ta111  1  0.18324391  0.38954142  0.75216050  1
  Ta  Ta112  1  0.19677283  0.20124364  0.48853696  1
  Ta  Ta113  1  0.59813506  0.60966407  0.00408726  1
  Ta  Ta114  1  0.79246308  0.59628382  -0.00857406  1
  Ta  Ta115  1  0.89502578  0.09441237  0.87569108  1
  Ta  Ta116  1  0.50336801  0.30788697  0.14948941  1
  Ta  Ta117  1  0.00827729  0.59973566  0.24838709  1
  Ta  Ta118  1  0.59011652  0.60881029  0.74552439  1
  Ta  Ta119  1  0.70788438  0.90696608  0.85656595  1
  Ti  Ti120  1  0.29144452  0.10010538  0.38003282  1
  Ti  Ti121  1  0.41031667  0.79166300  0.50176320  1
  Ti  Ti122  1  0.60413701  0.80135974  0.25129202  1
  Ti  Ti123  1  0.88929674  0.10412756  0.62276552  1
  Ti  Ti124  1  0.81436773  0.79731404  0.51364667  1
  Ti  Ti125  1  0.08863400  0.70726829  0.12201247  1
  Ti  Ti126  1  0.02088804  0.18239177  0.26734116  1
  Ti  Ti127  1  0.60280706  -0.01561656  0.24825733  1
  Ti  Ti128  1  0.49772700  0.10193985  0.86609118  1
  Ti  Ti129  1  0.80377138  0.39536522  -0.00465525  1
  Ti  Ti130  1  0.89744198  0.29954720  0.61871216  1
  Ti  Ti131  1  0.49759483  0.49927127  0.36517023  1
  Ti  Ti132  1  0.60562742  0.01156477  0.75582210  1
  Ti  Ti133  1  0.50259413  0.49795601  0.13630955  1
  Ti  Ti134  1  0.39859680  0.40901862  0.49268080  1
  Ti  Ti135  1  0.90452255  0.08401992  0.37032824  1
  Ti  Ti136  1  0.60220274  0.60804815  0.50626936  1
  Ti  Ti137  1  0.50863813  0.10115251  0.35987033  1
  Ti  Ti138  1  0.31042452  0.69025732  0.61861086  1
  Ti  Ti139  1  0.90040351  0.49837375  0.37661060  1
  Ti  Ti140  1  0.19299628  0.39949136  0.00962951  1
  Ti  Ti141  1  0.90795807  0.70358903  0.64256747  1
  Ti  Ti142  1  0.30117493  0.08621462  0.87622881  1
  Ti  Ti143  1  0.70287929  0.07599961  0.36071276  1
  Ti  Ti144  1  0.09830705  0.28132455  0.13100384  1
  Ti  Ti145  1  0.71101791  0.70236246  0.11429675  1
  Ti  Ti146  1  0.60923888  0.21101365  0.75852603  1
  Ti  Ti147  1  0.89805099  0.89077828  0.12676848  1
  Ti  Ti148  1  0.30361511  0.09843929  0.60730802  1
  Ti  Ti149  1  0.70840301  0.69801310  0.62817520  1
  Ti  Ti150  1  0.20686893  0.59721337  0.48221681  1
  Ti  Ti151  1  0.07959506  0.89759491  0.38655390  1
  Ti  Ti152  1  0.30006219  0.50309448  0.36501609  1
  Ti  Ti153  1  0.70679727  0.71613843  0.38650095  1
  Ti  Ti154  1  0.81659830  0.79141430  0.00039532  1
  Ti  Ti155  1  -0.00681683  0.20171886  -0.01046811  1
  Ti  Ti156  1  0.51179667  0.71801668  0.12400436  1
  Ti  Ti157  1  0.18715022  0.39901742  0.49258553  1
  Ti  Ti158  1  0.60763971  0.80942555  0.00020452  1
  Ti  Ti159  1  0.10260442  0.10141150  0.86977402  1
  Mo  Mo160  1  0.20712200  -0.00270924  -0.01122622  1
  Mo  Mo161  1  0.30113879  0.49701977  0.88158629  1
  Mo  Mo162  1  0.29510475  0.70447919  0.12302885  1
  Mo  Mo163  1  0.69170177  0.50568022  0.87413078  1
  Mo  Mo164  1  0.30857325  0.69660408  0.38658432  1
  Mo  Mo165  1  0.19581452  0.00041740  0.48917238  1
  Mo  Mo166  1  0.71318803  0.28531284  0.61027098  1
  Mo  Mo167  1  0.39425662  0.40982935  0.24649064  1
  Mo  Mo168  1  0.00539850  0.80178673  0.73988266  1
  Mo  Mo169  1  0.09745929  0.09096442  0.39343613  1
  Mo  Mo170  1  0.59934504  0.00739314  0.49481402  1
  Mo  Mo171  1  0.89747993  0.70519542  0.11807891  1
  Mo  Mo172  1  0.18811253  0.20095140  0.26663540  1
  Mo  Mo173  1  0.50712682  0.70282870  0.60411039  1
  Mo  Mo174  1  -0.00643656  0.39561523  0.74848321  1
  Mo  Mo175  1  0.09536458  0.69179903  0.37707391  1
  Mo  Mo176  1  0.50801379  0.89806849  0.13393610  1
  Mo  Mo177  1  0.80911918  0.39953498  0.25786800  1
  Mo  Mo178  1  0.09910391  0.30203016  0.37517994  1
  Mo  Mo179  1  0.60254754  0.19098864  0.25959221  1
  Mo  Mo180  1  0.60438927  0.41818229  0.76900247  1
  Mo  Mo181  1  0.08953678  0.30644378  0.88266451  1
  Mo  Mo182  1  0.79708091  0.79182486  0.74328456  1
  Mo  Mo183  1  -0.00603468  -0.00397494  0.26349151  1
  Mo  Mo184  1  0.80365771  -0.01279097  0.24764123  1
  Mo  Mo185  1  -0.00145329  0.40286527  0.49190166  1
  Mo  Mo186  1  0.22099567  0.59245425  0.74649595  1
  Mo  Mo187  1  0.40232129  0.61225004  0.74812784  1
  Mo  Mo188  1  0.09221418  0.10749138  0.12846805  1
  Mo  Mo189  1  0.40139518  0.00712600  0.75098924  1
  Mo  Mo190  1  0.69209564  0.10036437  0.87399733  1
  Mo  Mo191  1  0.89771033  0.29686062  0.89027948  1
  Mo  Mo192  1  0.10092083  0.49299733  0.12263093  1
  Mo  Mo193  1  0.70183897  0.90228781  0.64106022  1
  Mo  Mo194  1  -0.00885813  0.80123243  0.00249879  1
  Mo  Mo195  1  0.70161108  0.88715519  0.37210671  1
  Mo  Mo196  1  0.59568231  0.41212072  0.25138233  1
  Mo  Mo197  1  -0.01044087  0.59581173  0.75111787  1
  Mo  Mo198  1  -0.00987021  0.80086857  0.51125967  1
  Mo  Mo199  1  0.79785880  0.00167196  0.75217370  1
