# generated using pymatgen
data_HfZrTaTiMo
_symmetry_space_group_name_H-M   'P 1'
_cell_length_a   15.17609997
_cell_length_b   15.17887112
_cell_length_c   16.82900068
_cell_angle_alpha   90.03249260
_cell_angle_beta   89.98033432
_cell_angle_gamma   89.90409739
_symmetry_Int_Tables_number   1
_chemical_formula_structural   HfZrTaTiMo
_chemical_formula_sum   'Hf40 Zr40 Ta40 Ti40 Mo40'
_cell_volume   3876.65609885
_cell_formula_units_Z   40
loop_
 _symmetry_equiv_pos_site_id
 _symmetry_equiv_pos_as_xyz
  1  'x, y, z'
loop_
 _atom_site_type_symbol
 _atom_site_label
 _atom_site_symmetry_multiplicity
 _atom_site_fract_x
 _atom_site_fract_y
 _atom_site_fract_z
 _atom_site_occupancy
  Hf  Hf0  1  0.22138290  0.78907339  0.24410287  1
  Hf  Hf1  1  0.01511477  0.39514787  0.47555072  1
  Hf  Hf2  1  0.90108633  0.69719297  0.61069175  1
  Hf  Hf3  1  0.58987391  0.40155448  0.50003638  1
  Hf  Hf4  1  0.59798375  0.20220672  -0.00407822  1
  Hf  Hf5  1  0.79906850  0.39244618  0.50395507  1
  Hf  Hf6  1  0.12780431  0.30491001  0.86944252  1
  Hf  Hf7  1  0.40372027  0.19489683  0.26952062  1
  Hf  Hf8  1  0.59460723  0.00565021  0.24854245  1
  Hf  Hf9  1  0.90241492  0.70733023  0.13158373  1
  Hf  Hf10  1  0.50724841  0.51249460  0.37684006  1
  Hf  Hf11  1  0.48599717  0.89787909  0.37050451  1
  Hf  Hf12  1  0.49761301  0.70528086  0.63457532  1
  Hf  Hf13  1  0.67560043  0.11436501  0.61460160  1
  Hf  Hf14  1  0.90380851  0.90552416  0.87539297  1
  Hf  Hf15  1  0.40640963  -0.00943020  0.75483630  1
  Hf  Hf16  1  0.78217136  0.00707811  0.74551521  1
  Hf  Hf17  1  0.69082698  0.90758365  0.87490888  1
  Hf  Hf18  1  0.80672961  0.40143798  0.74207222  1
  Hf  Hf19  1  0.49831858  0.89480677  0.12255611  1
  Hf  Hf20  1  0.02064617  0.40823759  0.00173853  1
  Hf  Hf21  1  0.80832631  0.00337551  0.24947850  1
  Hf  Hf22  1  0.30570281  0.29491670  0.15011537  1
  Hf  Hf23  1  0.00642220  0.20889506  0.73422502  1
  Hf  Hf24  1  0.49894926  0.49364040  0.87039456  1
  Hf  Hf25  1  0.89041479  0.10531027  0.61979307  1
  Hf  Hf26  1  0.01727395  0.41974901  0.75551395  1
  Hf  Hf27  1  0.28674176  0.47925728  0.87264943  1
  Hf  Hf28  1  0.79056036  0.21182009  0.74737490  1
  Hf  Hf29  1  0.69254861  0.50620070  0.61861955  1
  Hf  Hf30  1  0.19267377  0.20318112  0.49664850  1
  Hf  Hf31  1  0.80138893  0.20090707  -0.00270879  1
  Hf  Hf32  1  0.79824908  0.40887383  0.00116803  1
  Hf  Hf33  1  0.10971882  0.32257243  0.61981567  1
  Hf  Hf34  1  0.00231565  -0.00214898  0.73242246  1
  Hf  Hf35  1  0.68668194  0.68042661  0.38999160  1
  Hf  Hf36  1  0.87826289  0.49682795  0.36623294  1
  Hf  Hf37  1  0.29868286  0.48723201  0.61010675  1
  Hf  Hf38  1  0.59976752  0.78672787  0.24306279  1
  Hf  Hf39  1  0.39321639  0.00619992  0.00614845  1
  Zr  Zr40  1  0.60791880  0.79179938  0.00430695  1
  Zr  Zr41  1  0.71073847  0.10256302  0.37943572  1
  Zr  Zr42  1  0.19117286  -0.01067496  -0.00670882  1
  Zr  Zr43  1  0.01010425  0.80617954  0.25895311  1
  Zr  Zr44  1  0.19614428  0.00112946  0.73394707  1
  Zr  Zr45  1  0.48865256  0.30230143  0.86971770  1
  Zr  Zr46  1  0.20529355  0.77856858  -0.00608904  1
  Zr  Zr47  1  0.00158809  0.60269958  0.47548501  1
  Zr  Zr48  1  0.91163118  0.49746343  0.61337165  1
  Zr  Zr49  1  0.39465242  0.21244902  0.00657788  1
  Zr  Zr50  1  0.60244847  0.21723307  0.26558003  1
  Zr  Zr51  1  0.91178474  0.31048833  0.87907492  1
  Zr  Zr52  1  0.38272402  -0.00309628  0.24365120  1
  Zr  Zr53  1  0.90784055  0.90786329  0.38858369  1
  Zr  Zr54  1  0.68927398  0.90445011  0.62044423  1
  Zr  Zr55  1  0.38831442  0.58858818  0.00179743  1
  Zr  Zr56  1  0.12095668  0.70837837  0.38209147  1
  Zr  Zr57  1  0.69653749  0.89438855  0.37731781  1
  Zr  Zr58  1  0.31629234  0.08851547  0.60813276  1
  Zr  Zr59  1  0.50939847  0.28571821  0.62565099  1
  Zr  Zr60  1  0.41930763  0.19163759  0.47729318  1
  Zr  Zr61  1  0.70013692  0.10562471  0.12915375  1
  Zr  Zr62  1  0.30434046  0.51070503  0.38288028  1
  Zr  Zr63  1  0.39879421  0.58557124  0.74452906  1
  Zr  Zr64  1  0.10530053  0.29733844  0.14750049  1
  Zr  Zr65  1  0.29847442  0.10766636  0.86897741  1
  Zr  Zr66  1  0.50146001  0.69837167  0.87493281  1
  Zr  Zr67  1  0.18737227  0.59414871  0.74838999  1
  Zr  Zr68  1  0.09355408  0.10028289  0.38448126  1
  Zr  Zr69  1  0.89740657  0.10506349  0.86863032  1
  Zr  Zr70  1  0.19653013  0.19083268  0.01085812  1
  Zr  Zr71  1  0.89861823  0.49790559  0.13762950  1
  Zr  Zr72  1  0.01021748  0.80453790  -0.01142636  1
  Zr  Zr73  1  0.80328843  0.79809980  0.74907381  1
  Zr  Zr74  1  0.80518936  0.60320057  0.75352531  1
  Zr  Zr75  1  0.69503037  0.50158972  0.87753794  1
  Zr  Zr76  1  0.01111729  0.79931128  0.75738950  1
  Zr  Zr77  1  0.90719738  0.29922239  0.13002017  1
  Zr  Zr78  1  0.77971967  0.60285003  0.24322334  1
  Zr  Zr79  1  0.90279720  0.90714844  0.12229847  1
  Ta  Ta80  1  0.10474988  0.51701956  0.61038456  1
  Ta  Ta81  1  0.59706377  0.00606887  0.00377519  1
  Ta  Ta82  1  0.60401820  0.60194024  0.74416919  1
  Ta  Ta83  1  0.79261070  0.61158489  0.00674692  1
  Ta  Ta84  1  0.70067049  0.31293850  0.12731250  1
  Ta  Ta85  1  0.50550014  0.31553309  0.13348268  1
  Ta  Ta86  1  0.20250485  0.59319361  0.24620465  1
  Ta  Ta87  1  0.50105721  0.68342678  0.11421265  1
  Ta  Ta88  1  0.79662088  0.79635899  0.49868010  1
  Ta  Ta89  1  0.29117718  0.30809243  0.37457070  1
  Ta  Ta90  1  0.80550044  0.20846653  0.25212805  1
  Ta  Ta91  1  0.58902318  0.81103379  0.75146952  1
  Ta  Ta92  1  0.19136567  -0.01116050  0.25235629  1
  Ta  Ta93  1  0.59781625  0.18021241  0.76704741  1
  Ta  Ta94  1  0.10915360  0.90756241  0.39832194  1
  Ta  Ta95  1  0.09789929  0.71139413  0.61264399  1
  Ta  Ta96  1  0.22075948  0.39303565  0.01290219  1
  Ta  Ta97  1  0.29450463  0.89089502  0.12003854  1
  Ta  Ta98  1  0.58433599  0.80176607  0.50161110  1
  Ta  Ta99  1  0.69650062  0.70246797  0.61438511  1
  Ta  Ta100  1  0.39459794  0.61589301  0.24121679  1
  Ta  Ta101  1  0.49199812  0.90068729  0.88389199  1
  Ta  Ta102  1  0.79576926  0.00115886  0.00077870  1
  Ta  Ta103  1  0.79669901  0.00125446  0.50647473  1
  Ta  Ta104  1  0.57983318  0.01223245  0.49125739  1
  Ta  Ta105  1  0.48490659  0.70304709  0.37778401  1
  Ta  Ta106  1  -0.00153583  0.60415644  0.00527981  1
  Ta  Ta107  1  0.00218562  0.01236927  -0.00243019  1
  Ta  Ta108  1  -0.00229411  0.60958789  0.75190185  1
  Ta  Ta109  1  0.29341572  0.88211539  0.38116965  1
  Ta  Ta110  1  0.00544958  0.00566933  0.25296105  1
  Ta  Ta111  1  0.21403101  0.21186486  0.73180096  1
  Ta  Ta112  1  0.80440822  0.79862634  -0.00495822  1
  Ta  Ta113  1  0.00573680  0.60121120  0.26266446  1
  Ta  Ta114  1  0.09476691  0.10175551  0.86548187  1
  Ta  Ta115  1  0.38661127  0.79252795  0.50693463  1
  Ta  Ta116  1  0.10100263  0.89759932  0.12638399  1
  Ta  Ta117  1  0.40490359  0.18983425  0.74446895  1
  Ta  Ta118  1  0.48640597  0.90959124  0.62040413  1
  Ta  Ta119  1  0.29345905  0.70237919  0.63386654  1
  Ti  Ti120  1  -0.00834219  0.20901091  0.50914428  1
  Ti  Ti121  1  0.40972529  0.40806776  0.25947941  1
  Ti  Ti122  1  0.10016962  0.68191059  0.87833413  1
  Ti  Ti123  1  0.39403065  0.79418351  0.00192066  1
  Ti  Ti124  1  0.70295653  0.69959816  0.87349600  1
  Ti  Ti125  1  0.29685071  0.89056566  0.87244761  1
  Ti  Ti126  1  0.00794061  0.19949939  0.00072224  1
  Ti  Ti127  1  0.21240149  0.60981176  0.50005443  1
  Ti  Ti128  1  0.20268514  0.18234578  0.26272867  1
  Ti  Ti129  1  0.38543184  0.38157878  0.73957366  1
  Ti  Ti130  1  0.61389453  0.41106613  0.25747087  1
  Ti  Ti131  1  0.90783149  0.51848320  0.88302775  1
  Ti  Ti132  1  0.89129851  0.70543075  0.37570187  1
  Ti  Ti133  1  0.67997502  0.50751758  0.11702956  1
  Ti  Ti134  1  0.79717390  0.20855809  0.50216672  1
  Ti  Ti135  1  0.89809287  0.29070728  0.36953352  1
  Ti  Ti136  1  0.58570284  0.40550839  0.00620627  1
  Ti  Ti137  1  0.10203609  0.09171519  0.13258541  1
  Ti  Ti138  1  0.69497092  0.30527046  0.87624511  1
  Ti  Ti139  1  0.30694631  0.49298025  0.13444031  1
  Ti  Ti140  1  0.19864514  0.80544726  0.74935490  1
  Ti  Ti141  1  0.31010779  0.29859980  0.60074702  1
  Ti  Ti142  1  0.60734623  0.21380192  0.47465670  1
  Ti  Ti143  1  0.41638283  0.59479075  0.51563455  1
  Ti  Ti144  1  0.30406537  0.69791797  0.85933346  1
  Ti  Ti145  1  0.60239344  0.39171162  0.74024331  1
  Ti  Ti146  1  0.01074703  0.00772541  0.52020640  1
  Ti  Ti147  1  0.90581942  0.89165416  0.61219081  1
  Ti  Ti148  1  0.00611476  0.39823614  0.26767820  1
  Ti  Ti149  1  0.18837848  0.58091177  0.01150675  1
  Ti  Ti150  1  0.29686357  0.07470982  0.38999271  1
  Ti  Ti151  1  0.49029731  0.11195265  0.12893445  1
  Ti  Ti152  1  0.70684450  0.89469140  0.12361871  1
  Ti  Ti153  1  0.10414232  0.69385510  0.12775232  1
  Ti  Ti154  1  0.58749767  0.59689042  0.24238501  1
  Ti  Ti155  1  0.90232798  0.10119268  0.38831268  1
  Ti  Ti156  1  0.10204558  0.49537279  0.14265083  1
  Ti  Ti157  1  0.79800042  0.80092423  0.25421793  1
  Ti  Ti158  1  -0.00116328  0.19104582  0.25664817  1
  Ti  Ti159  1  0.90756434  0.10334543  0.12336407  1
  Mo  Mo160  1  0.90348185  0.30121831  0.61871475  1
  Mo  Mo161  1  0.50182108  0.09564536  0.36800774  1
  Mo  Mo162  1  0.89924463  0.69481188  0.88525613  1
  Mo  Mo163  1  0.79396879  0.60153928  0.49620042  1
  Mo  Mo164  1  0.40514636  0.79215428  0.23761951  1
  Mo  Mo165  1  0.59007611  0.00038223  0.75490704  1
  Mo  Mo166  1  0.20256417  0.79903863  0.51104787  1
  Mo  Mo167  1  0.49775110  0.49289630  0.63771714  1
  Mo  Mo168  1  0.39736684  0.39726272  0.01036657  1
  Mo  Mo169  1  0.49895655  0.31671461  0.36804316  1
  Mo  Mo170  1  0.30018933  0.88418115  0.62868487  1
  Mo  Mo171  1  0.10162991  0.11078096  0.61678209  1
  Mo  Mo172  1  0.71291881  0.31661445  0.37104875  1
  Mo  Mo173  1  -0.00423407  0.80610244  0.49527105  1
  Mo  Mo174  1  0.60193466  0.59361653  0.00350205  1
  Mo  Mo175  1  0.69360436  0.49743269  0.38115640  1
  Mo  Mo176  1  0.20200745  0.40515167  0.48742662  1
  Mo  Mo177  1  0.50209226  0.09246969  0.62428574  1
  Mo  Mo178  1  0.31363583  0.69967642  0.37982559  1
  Mo  Mo179  1  0.69627446  0.09950832  0.88287278  1
  Mo  Mo180  1  0.09759558  0.50097615  0.88621548  1
  Mo  Mo181  1  0.39079552  0.79931019  0.75572660  1
  Mo  Mo182  1  0.49751008  0.49273734  0.13350630  1
  Mo  Mo183  1  0.20689397  0.40297468  0.25637581  1
  Mo  Mo184  1  0.79230864  0.39309963  0.24839738  1
  Mo  Mo185  1  0.50418224  0.08875693  0.88176931  1
  Mo  Mo186  1  0.40054092  0.39379049  0.49307850  1
  Mo  Mo187  1  0.39941534  -0.01604982  0.49206801  1
  Mo  Mo188  1  0.20326357  -0.00552737  0.51196324  1
  Mo  Mo189  1  0.29663239  0.68717060  0.11865190  1
  Mo  Mo190  1  0.29002354  0.09148009  0.13554496  1
  Mo  Mo191  1  0.70272338  0.29766558  0.62786738  1
  Mo  Mo192  1  0.10767511  0.49761265  0.35847074  1
  Mo  Mo193  1  0.10688028  0.91024674  0.86918600  1
  Mo  Mo194  1  0.10145444  0.29487859  0.35911712  1
  Mo  Mo195  1  0.30306199  0.29590057  0.86737865  1
  Mo  Mo196  1  0.10163773  0.89818443  0.60798847  1
  Mo  Mo197  1  0.70194814  0.70202431  0.12381819  1
  Mo  Mo198  1  0.59019304  0.60683768  0.51205321  1
  Mo  Mo199  1  0.20781276  0.39900843  0.73841011  1
