# generated using pymatgen
data_HfZrTaTiMo
_symmetry_space_group_name_H-M   'P 1'
_cell_length_a   15.19668553
_cell_length_b   15.18382822
_cell_length_c   16.79917472
_cell_angle_alpha   89.99667522
_cell_angle_beta   90.03538597
_cell_angle_gamma   89.95942931
_symmetry_Int_Tables_number   1
_chemical_formula_structural   HfZrTaTiMo
_chemical_formula_sum   'Hf40 Zr40 Ta40 Ti40 Mo40'
_cell_volume   3876.30474670
_cell_formula_units_Z   40
loop_
 _symmetry_equiv_pos_site_id
 _symmetry_equiv_pos_as_xyz
  1  'x, y, z'
loop_
 _atom_site_type_symbol
 _atom_site_label
 _atom_site_symmetry_multiplicity
 _atom_site_fract_x
 _atom_site_fract_y
 _atom_site_fract_z
 _atom_site_occupancy
  Hf  Hf0  1  0.19731534  0.18972871  0.76588016  1
  Hf  Hf1  1  0.30284997  0.89602332  0.63165041  1
  Hf  Hf2  1  0.90069435  0.09711931  0.62804432  1
  Hf  Hf3  1  0.91400720  0.88275056  0.37936598  1
  Hf  Hf4  1  0.59473490  0.60508198  0.49947772  1
  Hf  Hf5  1  0.90593112  0.70931424  0.11528916  1
  Hf  Hf6  1  0.60075161  0.00077224  0.50019082  1
  Hf  Hf7  1  0.10558173  0.91681455  0.88355856  1
  Hf  Hf8  1  0.10517338  0.09385379  0.62804621  1
  Hf  Hf9  1  0.10096187  0.88733523  0.11822061  1
  Hf  Hf10  1  0.29279127  0.68429243  0.87667649  1
  Hf  Hf11  1  0.60408033  0.81175004  -0.00873457  1
  Hf  Hf12  1  0.21079509  -0.00377012  0.24118728  1
  Hf  Hf13  1  0.90502817  0.32741336  0.38089786  1
  Hf  Hf14  1  0.68977321  0.29740038  0.89456283  1
  Hf  Hf15  1  -0.00913159  0.60188656  0.24101302  1
  Hf  Hf16  1  0.08440538  0.48481596  0.36868901  1
  Hf  Hf17  1  0.68702469  0.50771213  0.87106518  1
  Hf  Hf18  1  0.30405966  0.49157083  0.86637125  1
  Hf  Hf19  1  0.79060706  0.39673171  0.75631469  1
  Hf  Hf20  1  0.00996458  0.20970511  0.49949393  1
  Hf  Hf21  1  0.47669537  0.30447632  0.11146537  1
  Hf  Hf22  1  0.59362218  0.60276219  0.01218615  1
  Hf  Hf23  1  0.80614145  0.20505849  0.76313462  1
  Hf  Hf24  1  0.89948987  0.70283084  0.61505429  1
  Hf  Hf25  1  -0.00508970  0.39403866  0.75603466  1
  Hf  Hf26  1  0.60620494  0.20882526  0.75077834  1
  Hf  Hf27  1  0.20808212  -0.00061816  0.49206720  1
  Hf  Hf28  1  0.40426098  0.79286674  -0.00503809  1
  Hf  Hf29  1  -0.00134421  -0.01261280  0.24824989  1
  Hf  Hf30  1  0.00294482  0.80650226  0.75768932  1
  Hf  Hf31  1  0.60447406  0.80463134  0.49028973  1
  Hf  Hf32  1  0.07915751  0.70210867  0.38241122  1
  Hf  Hf33  1  0.29850496  0.29673129  0.63619978  1
  Hf  Hf34  1  0.60363628  0.00973919  -0.00784368  1
  Hf  Hf35  1  0.40431015  -0.00130234  0.49270944  1
  Hf  Hf36  1  0.38922623  -0.00917016  0.00573172  1
  Hf  Hf37  1  0.49815597  0.11276189  0.36843870  1
  Hf  Hf38  1  0.80867562  0.79169224  0.26015864  1
  Hf  Hf39  1  0.38358646  0.81054679  0.26744786  1
  Zr  Zr40  1  0.00731813  -0.00833769  0.49378478  1
  Zr  Zr41  1  0.29436801  0.50163025  0.62741071  1
  Zr  Zr42  1  0.49645278  0.70441350  0.14185871  1
  Zr  Zr43  1  0.59328369  0.80152113  0.75131772  1
  Zr  Zr44  1  0.00761443  0.21043769  0.24140440  1
  Zr  Zr45  1  0.09016626  0.29174335  0.89566163  1
  Zr  Zr46  1  0.69169011  0.30381874  0.37494346  1
  Zr  Zr47  1  0.70309670  0.71053369  0.12389339  1
  Zr  Zr48  1  0.70038171  0.90386149  0.63363932  1
  Zr  Zr49  1  0.10768906  0.50292985  0.88762321  1
  Zr  Zr50  1  0.90180037  0.50235978  0.62401579  1
  Zr  Zr51  1  0.19594729  0.59346658  0.25360968  1
  Zr  Zr52  1  0.70862562  0.91300751  0.13759649  1
  Zr  Zr53  1  0.19313126  0.78326669  0.75454988  1
  Zr  Zr54  1  0.90426750  0.90092244  0.62262929  1
  Zr  Zr55  1  0.31008640  0.09398080  0.63576145  1
  Zr  Zr56  1  0.80431446  0.79978005  0.75992442  1
  Zr  Zr57  1  0.80201490  0.41217336  0.01007276  1
  Zr  Zr58  1  0.29329147  0.70166640  0.12939904  1
  Zr  Zr59  1  0.89190026  0.30284220  0.61253850  1
  Zr  Zr60  1  0.79376275  0.00052589  0.48863620  1
  Zr  Zr61  1  0.10099007  0.09895667  0.36835293  1
  Zr  Zr62  1  0.57947475  0.40616220  0.74213614  1
  Zr  Zr63  1  0.72097752  0.49929481  0.37553338  1
  Zr  Zr64  1  0.88688811  0.10035161  0.12890817  1
  Zr  Zr65  1  0.69955904  0.29074254  0.11174831  1
  Zr  Zr66  1  0.39778641  0.39604556  0.49598003  1
  Zr  Zr67  1  0.50911263  0.48337397  0.36781114  1
  Zr  Zr68  1  0.20195053  0.80245911  0.48168146  1
  Zr  Zr69  1  0.59860055  0.20129315  0.50591857  1
  Zr  Zr70  1  0.70770820  0.69703525  0.87344433  1
  Zr  Zr71  1  0.01550053  0.60452054  0.75399406  1
  Zr  Zr72  1  0.50217591  0.68398786  0.87023969  1
  Zr  Zr73  1  0.30362586  0.69300127  0.61810456  1
  Zr  Zr74  1  0.92467845  0.10649858  0.87622371  1
  Zr  Zr75  1  0.58477621  0.20543898  0.24526127  1
  Zr  Zr76  1  0.40681318  0.79940124  0.48247578  1
  Zr  Zr77  1  0.50416427  0.90368959  0.13721846  1
  Zr  Zr78  1  0.30549027  0.29456646  0.88734463  1
  Zr  Zr79  1  0.79953789  0.21473870  0.25221962  1
  Ta  Ta80  1  0.89826107  0.89978874  0.12272860  1
  Ta  Ta81  1  0.11656398  0.29826944  0.36734571  1
  Ta  Ta82  1  0.89463220  0.10545892  0.36986435  1
  Ta  Ta83  1  0.10207839  0.69070223  0.60879721  1
  Ta  Ta84  1  0.70472203  0.10778660  0.63065754  1
  Ta  Ta85  1  0.29836890  0.11224166  0.36827591  1
  Ta  Ta86  1  0.88598346  0.67846531  0.38256480  1
  Ta  Ta87  1  0.20614411  0.37703329  0.23527078  1
  Ta  Ta88  1  0.70014612  0.50030537  0.62563338  1
  Ta  Ta89  1  0.50077485  0.11155869  0.88409421  1
  Ta  Ta90  1  0.59900362  0.01345067  0.76032085  1
  Ta  Ta91  1  0.29931499  0.11707662  0.11481767  1
  Ta  Ta92  1  0.18678351  0.39093007  0.50325641  1
  Ta  Ta93  1  0.89726272  0.50287982  0.88005888  1
  Ta  Ta94  1  0.18533220  0.80081131  0.26424613  1
  Ta  Ta95  1  0.40945116  0.19857961  0.76274407  1
  Ta  Ta96  1  0.40175027  0.01818501  0.24166230  1
  Ta  Ta97  1  0.20794807  0.20327968  0.50208418  1
  Ta  Ta98  1  -0.00447072  0.00173215  0.00703223  1
  Ta  Ta99  1  0.79949613  0.00416184  -0.00968630  1
  Ta  Ta100  1  0.21068451  0.40530898  0.01500411  1
  Ta  Ta101  1  0.49799002  0.10918420  0.11586443  1
  Ta  Ta102  1  0.61352104  0.40532413  0.23299812  1
  Ta  Ta103  1  0.10356009  0.09806352  0.11267179  1
  Ta  Ta104  1  0.18986858  0.39529709  0.74880680  1
  Ta  Ta105  1  0.60892553  0.60496497  0.25394969  1
  Ta  Ta106  1  0.00787617  0.20217010  0.74589445  1
  Ta  Ta107  1  0.80660645  0.81451322  -0.01054272  1
  Ta  Ta108  1  0.58966849  0.41393695  0.01266047  1
  Ta  Ta109  1  0.37813324  0.22152754  0.24943737  1
  Ta  Ta110  1  0.39582116  0.59663469  0.26668524  1
  Ta  Ta111  1  0.40877900  0.59402942  0.74505141  1
  Ta  Ta112  1  0.60603449  0.39878201  0.51440644  1
  Ta  Ta113  1  0.49407341  0.50412846  0.14250617  1
  Ta  Ta114  1  0.39490718  0.80233811  0.75868046  1
  Ta  Ta115  1  0.50140382  0.09698947  0.63417415  1
  Ta  Ta116  1  0.21121955  0.80856745  -0.00462685  1
  Ta  Ta117  1  0.39224613  0.58206914  0.00866695  1
  Ta  Ta118  1  0.39803465  0.20061320  0.49760850  1
  Ta  Ta119  1  -0.00290163  0.59277007  0.00510198  1
  Ti  Ti120  1  0.79974271  0.58403708  0.23818852  1
  Ti  Ti121  1  -0.00270776  0.58593324  0.49849427  1
  Ti  Ti122  1  0.09944288  0.89052008  0.62619808  1
  Ti  Ti123  1  0.49301904  0.49349259  0.87447122  1
  Ti  Ti124  1  0.49262565  0.50806752  0.61946103  1
  Ti  Ti125  1  0.19936399  0.58912599  0.48384989  1
  Ti  Ti126  1  -0.01059996  0.40247988  0.22852777  1
  Ti  Ti127  1  -0.00092677  0.80317979  -0.00977764  1
  Ti  Ti128  1  0.69345140  0.09738670  0.12986608  1
  Ti  Ti129  1  0.49629477  0.30656387  0.89179803  1
  Ti  Ti130  1  0.70124962  0.91155315  0.86752074  1
  Ti  Ti131  1  0.49695481  0.70508860  0.62641587  1
  Ti  Ti132  1  0.10105868  0.49379035  0.62174422  1
  Ti  Ti133  1  0.29795169  0.08142888  0.88203829  1
  Ti  Ti134  1  0.79362292  0.20377533  0.49320821  1
  Ti  Ti135  1  0.69611639  0.69653209  0.62953930  1
  Ti  Ti136  1  0.39082581  0.60032843  0.47569987  1
  Ti  Ti137  1  0.80123510  0.59912404  0.74953284  1
  Ti  Ti138  1  0.20182388  -0.01012381  0.75577534  1
  Ti  Ti139  1  0.48812577  0.91105373  0.86766393  1
  Ti  Ti140  1  0.90360022  0.90847519  0.87410521  1
  Ti  Ti141  1  0.29093459  0.47879346  0.36676346  1
  Ti  Ti142  1  0.50410795  0.69748658  0.36586931  1
  Ti  Ti143  1  0.10309563  0.69601413  0.11324783  1
  Ti  Ti144  1  0.69782584  0.09041029  0.36070075  1
  Ti  Ti145  1  0.49365970  0.29685952  0.62779770  1
  Ti  Ti146  1  0.79943025  0.60346868  0.00510724  1
  Ti  Ti147  1  0.80412781  0.00858237  0.75960594  1
  Ti  Ti148  1  0.61003100  0.80403158  0.26766751  1
  Ti  Ti149  1  0.49584346  0.90458221  0.63568272  1
  Ti  Ti150  1  0.81143638  0.19928352  -0.00790964  1
  Ti  Ti151  1  -0.00694529  0.39452437  0.01077808  1
  Ti  Ti152  1  0.50985402  0.91517715  0.35912680  1
  Ti  Ti153  1  0.79230707  0.79271290  0.48866722  1
  Ti  Ti154  1  0.10340569  0.49864416  0.11949504  1
  Ti  Ti155  1  0.79230601  0.59556608  0.50366279  1
  Ti  Ti156  1  0.10833191  0.29063458  0.11023642  1
  Ti  Ti157  1  0.90490932  0.69517131  0.88361917  1
  Ti  Ti158  1  0.10183804  0.69589211  0.89395264  1
  Ti  Ti159  1  0.30772459  0.48867096  0.13539647  1
  Mo  Mo160  1  0.40204897  0.41008242  0.00166275  1
  Mo  Mo161  1  0.20214317  0.59774596  0.01407970  1
  Mo  Mo162  1  0.70519037  0.09932307  0.87537975  1
  Mo  Mo163  1  0.69850215  0.69585929  0.37466053  1
  Mo  Mo164  1  0.29573511  0.68839268  0.37389521  1
  Mo  Mo165  1  0.80025812  -0.00071935  0.26627475  1
  Mo  Mo166  1  0.59953290  0.60189914  0.72808026  1
  Mo  Mo167  1  0.20371964  -0.00495937  0.01118827  1
  Mo  Mo168  1  0.60198894  0.20037125  0.00296852  1
  Mo  Mo169  1  0.00276263  0.79144198  0.24395738  1
  Mo  Mo170  1  0.69856244  0.29907746  0.62080550  1
  Mo  Mo171  1  0.39885149  0.40069118  0.25272857  1
  Mo  Mo172  1  0.90503120  0.50539497  0.11665899  1
  Mo  Mo173  1  0.10405932  0.30071638  0.63056547  1
  Mo  Mo174  1  0.19957575  0.19605400  0.24103581  1
  Mo  Mo175  1  0.40219179  0.19230556  -0.01075834  1
  Mo  Mo176  1  0.90020777  0.31048245  0.88271955  1
  Mo  Mo177  1  0.29616003  0.29927163  0.37758083  1
  Mo  Mo178  1  0.40580374  0.00186137  0.75975368  1
  Mo  Mo179  1  0.20131785  0.18913860  -0.00730128  1
  Mo  Mo180  1  0.29720503  0.90081165  0.12824131  1
  Mo  Mo181  1  0.01292080  0.00494428  0.74886405  1
  Mo  Mo182  1  0.70184024  0.90117577  0.36524385  1
  Mo  Mo183  1  0.90300500  0.50463655  0.37346401  1
  Mo  Mo184  1  0.79565223  0.40274353  0.50652870  1
  Mo  Mo185  1  0.30259985  0.89439419  0.86919600  1
  Mo  Mo186  1  0.80923484  0.40862688  0.23052143  1
  Mo  Mo187  1  0.30446125  0.91410529  0.36848449  1
  Mo  Mo188  1  0.29365355  0.29862299  0.11022333  1
  Mo  Mo189  1  0.59650564  0.00615732  0.24965728  1
  Mo  Mo190  1  0.00893065  0.40240071  0.50245996  1
  Mo  Mo191  1  -0.00264963  0.78711830  0.50673092  1
  Mo  Mo192  1  0.49465682  0.30461804  0.37325179  1
  Mo  Mo193  1  0.90784284  0.30035021  0.11802249  1
  Mo  Mo194  1  0.10187700  0.89776540  0.36830987  1
  Mo  Mo195  1  0.40132359  0.39345764  0.74716248  1
  Mo  Mo196  1  0.19489406  0.59010041  0.74514460  1
  Mo  Mo197  1  0.69560854  0.50779320  0.12802916  1
  Mo  Mo198  1  0.10873875  0.09806652  0.88919816  1
  Mo  Mo199  1  -0.00358614  0.20117916  0.01548077  1
