# generated using pymatgen
data_HfZrTaTiMo
_symmetry_space_group_name_H-M   'P 1'
_cell_length_a   15.19817782
_cell_length_b   15.20146348
_cell_length_c   16.87422315
_cell_angle_alpha   90.03717716
_cell_angle_beta   89.98411688
_cell_angle_gamma   89.95347045
_symmetry_Int_Tables_number   1
_chemical_formula_structural   HfZrTaTiMo
_chemical_formula_sum   'Hf40 Zr40 Ta40 Ti40 Mo40'
_cell_volume   3898.52621180
_cell_formula_units_Z   40
loop_
 _symmetry_equiv_pos_site_id
 _symmetry_equiv_pos_as_xyz
  1  'x, y, z'
loop_
 _atom_site_type_symbol
 _atom_site_label
 _atom_site_symmetry_multiplicity
 _atom_site_fract_x
 _atom_site_fract_y
 _atom_site_fract_z
 _atom_site_occupancy
  Hf  Hf0  1  0.80437597  -0.00724928  0.49360614  1
  Hf  Hf1  1  0.89018684  0.28604953  0.63086838  1
  Hf  Hf2  1  0.12851733  0.88702599  0.87113728  1
  Hf  Hf3  1  0.39413509  0.21118685  0.77102074  1
  Hf  Hf4  1  0.48702121  0.30789693  0.11138312  1
  Hf  Hf5  1  0.70595644  0.52022846  0.88311697  1
  Hf  Hf6  1  0.01695466  0.77403969  0.76383197  1
  Hf  Hf7  1  0.80192937  0.59888256  0.24074255  1
  Hf  Hf8  1  0.50561330  0.70804110  0.87719543  1
  Hf  Hf9  1  0.89993354  0.89365285  0.11835028  1
  Hf  Hf10  1  0.40761540  0.00328901  0.00034829  1
  Hf  Hf11  1  0.89249945  0.09599016  0.11917593  1
  Hf  Hf12  1  0.69537712  0.29909242  0.10914682  1
  Hf  Hf13  1  0.30468968  0.70246911  0.63156077  1
  Hf  Hf14  1  0.19972874  0.00394223  0.00985634  1
  Hf  Hf15  1  0.30236775  0.71671266  0.36144232  1
  Hf  Hf16  1  0.60050786  0.58457043  0.23506905  1
  Hf  Hf17  1  0.10488829  0.68675918  0.13280595  1
  Hf  Hf18  1  0.38841821  0.21281590  -0.01853374  1
  Hf  Hf19  1  0.08781536  0.49873180  0.86019267  1
  Hf  Hf20  1  0.90595831  0.66319749  0.88832433  1
  Hf  Hf21  1  0.60193802  0.79581538  0.51090470  1
  Hf  Hf22  1  0.41295607  0.40938683  0.24705323  1
  Hf  Hf23  1  0.20750678  0.80584410  0.02175339  1
  Hf  Hf24  1  0.29462602  0.28869652  0.63110447  1
  Hf  Hf25  1  0.59951823  0.41093125  0.50897173  1
  Hf  Hf26  1  0.50610673  0.70116310  0.36767514  1
  Hf  Hf27  1  0.69475540  0.31541016  0.37585402  1
  Hf  Hf28  1  0.81336697  0.79102686  0.50235620  1
  Hf  Hf29  1  0.02087409  -0.02423443  0.49273196  1
  Hf  Hf30  1  0.78903820  0.40333621  0.24482174  1
  Hf  Hf31  1  0.89913694  0.68609210  0.62724921  1
  Hf  Hf32  1  0.59993748  0.82609038  0.01366004  1
  Hf  Hf33  1  0.01188014  0.78695732  -0.00034659  1
  Hf  Hf34  1  -0.00093470  0.58739721  0.25802979  1
  Hf  Hf35  1  0.60389105  0.62039087  0.00894336  1
  Hf  Hf36  1  0.79467685  0.78164978  0.76328000  1
  Hf  Hf37  1  0.40927530  0.59664420  0.50552944  1
  Hf  Hf38  1  0.40184788  0.59118590  0.75454924  1
  Hf  Hf39  1  0.90780778  0.30081635  0.87118355  1
  Zr  Zr40  1  0.78667965  0.19242164  0.76597834  1
  Zr  Zr41  1  0.40582369  0.80584131  0.49797588  1
  Zr  Zr42  1  0.49392827  0.10157612  0.13124862  1
  Zr  Zr43  1  0.09742835  0.71549409  0.37225115  1
  Zr  Zr44  1  0.30322874  0.50276865  0.11444940  1
  Zr  Zr45  1  0.21016997  0.60101828  0.49183742  1
  Zr  Zr46  1  -0.00383550  0.59434274  0.48923455  1
  Zr  Zr47  1  0.37993546  0.00730888  0.48541149  1
  Zr  Zr48  1  0.91380671  0.89407299  0.87862127  1
  Zr  Zr49  1  0.59394224  0.21700457  0.25119274  1
  Zr  Zr50  1  0.01257806  0.19178121  0.50239978  1
  Zr  Zr51  1  0.00683607  0.19134074  -0.01421681  1
  Zr  Zr52  1  0.78963950  -0.01176252  -0.01087114  1
  Zr  Zr53  1  0.00025749  0.39074346  0.25100494  1
  Zr  Zr54  1  0.70075060  0.68423375  0.37298728  1
  Zr  Zr55  1  0.40417339  0.80551695  0.01270203  1
  Zr  Zr56  1  0.19821369  0.83308674  0.49232259  1
  Zr  Zr57  1  0.58772870  -0.00375251  0.50145978  1
  Zr  Zr58  1  0.59583664  0.01389397  0.73618283  1
  Zr  Zr59  1  0.12151403  0.09282770  0.63270638  1
  Zr  Zr60  1  0.90690153  0.29275564  0.11432241  1
  Zr  Zr61  1  0.37903237  0.21322483  0.26007520  1
  Zr  Zr62  1  0.29272914  0.71249735  0.87624586  1
  Zr  Zr63  1  0.20814437  0.38937824  0.25208639  1
  Zr  Zr64  1  0.80014263  0.19825094  0.25262233  1
  Zr  Zr65  1  0.69820231  0.89116783  0.36732098  1
  Zr  Zr66  1  0.90674662  0.08075825  0.62319385  1
  Zr  Zr67  1  0.49620279  0.30187481  0.63562384  1
  Zr  Zr68  1  0.71297828  0.89583329  0.62732305  1
  Zr  Zr69  1  0.19801343  0.39296589  0.50152536  1
  Zr  Zr70  1  0.90533269  0.09727495  0.37511386  1
  Zr  Zr71  1  0.29028744  0.91503383  0.63111528  1
  Zr  Zr72  1  0.09873369  0.71912791  0.61154975  1
  Zr  Zr73  1  0.80886280  -0.00567630  0.76245352  1
  Zr  Zr74  1  0.10348238  0.50606390  0.63370162  1
  Zr  Zr75  1  0.69741782  0.11567004  0.61911835  1
  Zr  Zr76  1  0.09142900  0.30283467  0.64423578  1
  Zr  Zr77  1  -0.00060393  0.80003882  0.24097057  1
  Zr  Zr78  1  0.90342319  0.47949179  0.62215878  1
  Zr  Zr79  1  0.58539785  0.20552740  0.49739647  1
  Ta  Ta80  1  0.79391505  0.40072188  0.76137939  1
  Ta  Ta81  1  0.39704047  0.40219092  0.50254882  1
  Ta  Ta82  1  0.19268058  0.61432633  0.75343787  1
  Ta  Ta83  1  0.59446563  0.40449114  -0.01695425  1
  Ta  Ta84  1  0.10362120  0.49053681  0.12182436  1
  Ta  Ta85  1  0.01162624  0.39890488  -0.00451619  1
  Ta  Ta86  1  0.09451858  0.10300210  0.12639458  1
  Ta  Ta87  1  0.29100441  0.12478229  0.11908176  1
  Ta  Ta88  1  0.20369965  0.59207375  0.25940448  1
  Ta  Ta89  1  0.67861365  0.08264397  0.88169902  1
  Ta  Ta90  1  0.51324754  0.91720690  0.87200924  1
  Ta  Ta91  1  0.31186687  0.49712447  0.37393634  1
  Ta  Ta92  1  0.60242522  0.60148483  0.51582132  1
  Ta  Ta93  1  0.88409307  0.49290641  0.38377695  1
  Ta  Ta94  1  0.70310858  0.49902873  0.10716533  1
  Ta  Ta95  1  0.69345963  0.09961001  0.37674826  1
  Ta  Ta96  1  0.69805553  0.50124756  0.63960078  1
  Ta  Ta97  1  0.59901868  0.80490219  0.74841727  1
  Ta  Ta98  1  0.51616815  0.49985111  0.37624526  1
  Ta  Ta99  1  0.20074719  0.39473629  -0.00930953  1
  Ta  Ta100  1  0.90459791  0.30428324  0.38504891  1
  Ta  Ta101  1  0.12839561  0.91952890  0.34407031  1
  Ta  Ta102  1  0.89674278  0.68831132  0.11212477  1
  Ta  Ta103  1  0.10773314  0.28405306  0.37876168  1
  Ta  Ta104  1  0.28565335  0.09751321  0.87600299  1
  Ta  Ta105  1  0.80061564  -0.00402801  0.25224676  1
  Ta  Ta106  1  0.39681073  0.00970388  0.76056543  1
  Ta  Ta107  1  -0.00393616  0.17769624  0.75995293  1
  Ta  Ta108  1  0.58834832  0.41232573  0.77108129  1
  Ta  Ta109  1  0.70136454  0.90556920  0.13607845  1
  Ta  Ta110  1  0.60997328  0.61000774  0.75116470  1
  Ta  Ta111  1  0.59063563  0.19470671  -0.01256694  1
  Ta  Ta112  1  0.60181735  0.00701147  0.25154172  1
  Ta  Ta113  1  0.90640946  0.49592817  0.11351647  1
  Ta  Ta114  1  0.49495539  0.90194463  0.35475862  1
  Ta  Ta115  1  0.80552972  0.40164473  -0.00905659  1
  Ta  Ta116  1  0.78788586  0.78287458  -0.00484526  1
  Ta  Ta117  1  0.49255011  0.10168387  0.36773435  1
  Ta  Ta118  1  0.69483650  0.09819916  0.11717533  1
  Ta  Ta119  1  0.69526289  0.31215860  0.63796760  1
  Ti  Ti120  1  0.49373025  0.69829322  0.12754448  1
  Ti  Ti121  1  0.92510688  0.88425086  0.63577963  1
  Ti  Ti122  1  0.48988364  0.90327248  0.63271485  1
  Ti  Ti123  1  0.50668349  0.70379623  0.63816738  1
  Ti  Ti124  1  0.00212973  0.19935870  0.25259478  1
  Ti  Ti125  1  0.39726987  0.81349402  0.75855823  1
  Ti  Ti126  1  0.80891456  0.58960187  0.75102187  1
  Ti  Ti127  1  0.19192611  0.19438063  0.25163399  1
  Ti  Ti128  1  0.49970673  0.50270627  0.10754490  1
  Ti  Ti129  1  0.00335368  0.00564059  0.24280303  1
  Ti  Ti130  1  0.19370751  0.20843024  -0.01230659  1
  Ti  Ti131  1  0.78642589  0.58955756  0.50591388  1
  Ti  Ti132  1  0.69604281  0.30174134  0.88116723  1
  Ti  Ti133  1  0.09754505  0.48553221  0.37934312  1
  Ti  Ti134  1  0.38802758  0.01159368  0.25598345  1
  Ti  Ti135  1  0.00735466  -0.00661417  0.00245061  1
  Ti  Ti136  1  0.30257567  0.69162244  0.13300237  1
  Ti  Ti137  1  0.11530554  0.29417212  0.12100233  1
  Ti  Ti138  1  0.59153137  0.20984905  0.76891664  1
  Ti  Ti139  1  0.91235097  0.89190311  0.36601396  1
  Ti  Ti140  1  0.11046978  0.29660937  0.85299275  1
  Ti  Ti141  1  0.48913745  0.31140053  0.37916009  1
  Ti  Ti142  1  0.49567390  0.49800640  0.63541862  1
  Ti  Ti143  1  0.80056346  0.79548677  0.24470982  1
  Ti  Ti144  1  0.40192432  0.60070587  0.25159456  1
  Ti  Ti145  1  0.37925834  0.20328867  0.48618131  1
  Ti  Ti146  1  0.79262823  0.20272336  0.49551880  1
  Ti  Ti147  1  0.60040579  0.79791591  0.23404874  1
  Ti  Ti148  1  0.09173119  0.08604497  0.86744153  1
  Ti  Ti149  1  0.79602313  0.39677961  0.50434759  1
  Ti  Ti150  1  0.39766752  0.41026610  -0.01912525  1
  Ti  Ti151  1  0.20390237  -0.00192018  0.75681430  1
  Ti  Ti152  1  0.22288344  0.40809149  0.75112954  1
  Ti  Ti153  1  0.19210291  0.59891357  -0.00582768  1
  Ti  Ti154  1  0.29865586  0.50704005  0.87971907  1
  Ti  Ti155  1  0.47345545  0.10640099  0.62205996  1
  Ti  Ti156  1  0.30385874  0.91423665  0.14079824  1
  Ti  Ti157  1  0.79473472  0.19062145  -0.01538998  1
  Ti  Ti158  1  0.89766055  0.69834859  0.37549640  1
  Ti  Ti159  1  0.40201303  0.80579611  0.23764415  1
  Mo  Mo160  1  -0.00403846  0.39194520  0.48925358  1
  Mo  Mo161  1  0.19948716  0.19216803  0.76464346  1
  Mo  Mo162  1  -0.00012019  0.59010618  0.74478196  1
  Mo  Mo163  1  0.69851989  0.50106155  0.38013043  1
  Mo  Mo164  1  0.59683959  0.00403965  0.00923090  1
  Mo  Mo165  1  0.90132848  0.09380451  0.88186259  1
  Mo  Mo166  1  0.10878357  0.68861738  0.88360041  1
  Mo  Mo167  1  0.20185465  0.01208600  0.22570771  1
  Mo  Mo168  1  0.89834659  0.48770574  0.87692868  1
  Mo  Mo169  1  0.20021735  0.01667842  0.49024338  1
  Mo  Mo170  1  0.28950132  0.30524080  0.11346789  1
  Mo  Mo171  1  0.68935654  0.89002909  0.87124795  1
  Mo  Mo172  1  0.39548571  0.60300364  0.00061779  1
  Mo  Mo173  1  0.70536309  0.70913739  0.13151239  1
  Mo  Mo174  1  0.69850522  0.70657639  0.87633912  1
  Mo  Mo175  1  0.09802828  0.09894217  0.36141899  1
  Mo  Mo176  1  0.10181281  0.90624159  0.13528948  1
  Mo  Mo177  1  0.50018572  0.90733650  0.15101119  1
  Mo  Mo178  1  0.70019020  0.68964134  0.62924427  1
  Mo  Mo179  1  0.30738780  0.10819425  0.63259799  1
  Mo  Mo180  1  0.21020282  0.79948498  0.74848844  1
  Mo  Mo181  1  0.30573461  0.90669284  0.35042262  1
  Mo  Mo182  1  0.27618682  0.10154736  0.36726185  1
  Mo  Mo183  1  0.00959893  -0.01202076  0.75268736  1
  Mo  Mo184  1  -0.00592654  0.80284258  0.49072129  1
  Mo  Mo185  1  -0.00688245  0.38857088  0.75212476  1
  Mo  Mo186  1  0.31379791  0.90769081  0.87290741  1
  Mo  Mo187  1  0.20800636  0.18830580  0.49474162  1
  Mo  Mo188  1  0.59765400  0.40699176  0.24005714  1
  Mo  Mo189  1  0.50158049  0.31090194  0.87871050  1
  Mo  Mo190  1  0.39959857  0.41053591  0.76174166  1
  Mo  Mo191  1  0.21112192  0.80184274  0.22931796  1
  Mo  Mo192  1  0.30810230  0.49628345  0.63108237  1
  Mo  Mo193  1  0.49507669  0.10220865  0.87640545  1
  Mo  Mo194  1  0.09535076  0.90401561  0.64000154  1
  Mo  Mo195  1  0.28967935  0.31324100  0.87066058  1
  Mo  Mo196  1  0.80146091  0.59592512  0.01121669  1
  Mo  Mo197  1  0.29982959  0.30664893  0.38177180  1
  Mo  Mo198  1  0.00952775  0.58337671  0.00720929  1
  Mo  Mo199  1  0.49519648  0.51435209  0.88774426  1
