# generated using pymatgen
data_HfZrTaTiMo
_symmetry_space_group_name_H-M   'P 1'
_cell_length_a   15.20767953
_cell_length_b   15.20775569
_cell_length_c   16.85127166
_cell_angle_alpha   90.03780302
_cell_angle_beta   90.00115655
_cell_angle_gamma   89.98143784
_symmetry_Int_Tables_number   1
_chemical_formula_structural   HfZrTaTiMo
_chemical_formula_sum   'Hf40 Zr40 Ta40 Ti40 Mo40'
_cell_volume   3897.27131970
_cell_formula_units_Z   40
loop_
 _symmetry_equiv_pos_site_id
 _symmetry_equiv_pos_as_xyz
  1  'x, y, z'
loop_
 _atom_site_type_symbol
 _atom_site_label
 _atom_site_symmetry_multiplicity
 _atom_site_fract_x
 _atom_site_fract_y
 _atom_site_fract_z
 _atom_site_occupancy
  Hf  Hf0  1  0.70921551  0.70321981  0.36386994  1
  Hf  Hf1  1  0.18780245  0.40647921  0.49968827  1
  Hf  Hf2  1  0.60986001  0.00258504  0.50684896  1
  Hf  Hf3  1  0.09876240  0.30276849  0.87101553  1
  Hf  Hf4  1  0.19650007  0.19483906  0.25940948  1
  Hf  Hf5  1  0.90645826  0.89765547  0.10377560  1
  Hf  Hf6  1  0.79129439  0.77573709  0.00412750  1
  Hf  Hf7  1  0.39685147  0.79135741  0.51462599  1
  Hf  Hf8  1  0.60778989  0.79630312  0.50596371  1
  Hf  Hf9  1  0.09396287  0.49717605  0.86860649  1
  Hf  Hf10  1  0.18746587  0.80720443  0.51331686  1
  Hf  Hf11  1  0.09031848  0.09699425  0.12338255  1
  Hf  Hf12  1  0.80478539  -0.01145985  0.75798596  1
  Hf  Hf13  1  0.70626740  0.69699528  0.63549519  1
  Hf  Hf14  1  0.59364159  0.19890019  0.23603460  1
  Hf  Hf15  1  0.79019627  0.40425951  0.74562674  1
  Hf  Hf16  1  0.20931954  0.60692249  0.52129567  1
  Hf  Hf17  1  0.41265328  0.62502477  -0.00625648  1
  Hf  Hf18  1  0.00575622  0.18691871  0.75463856  1
  Hf  Hf19  1  0.29394019  0.70199360  0.12862874  1
  Hf  Hf20  1  0.09431258  0.69967569  0.86658544  1
  Hf  Hf21  1  0.50328459  0.50240207  0.12006469  1
  Hf  Hf22  1  0.19615086  0.20806030  -0.00165758  1
  Hf  Hf23  1  0.80445401  -0.00156416  0.50579898  1
  Hf  Hf24  1  0.28792089  0.89966670  0.38245564  1
  Hf  Hf25  1  0.40298145  0.81019359  0.24821560  1
  Hf  Hf26  1  0.80644701  0.60040512  0.75443996  1
  Hf  Hf27  1  0.31407945  0.50932811  0.63883900  1
  Hf  Hf28  1  0.89543913  0.31107238  0.87474695  1
  Hf  Hf29  1  0.70794365  0.30323712  0.12445086  1
  Hf  Hf30  1  0.87808958  0.09823204  0.13233317  1
  Hf  Hf31  1  0.29090760  0.51232898  0.37401530  1
  Hf  Hf32  1  0.00104675  0.62121715  0.24117637  1
  Hf  Hf33  1  0.50327069  0.68880923  0.63655661  1
  Hf  Hf34  1  0.29120646  0.09748372  0.11757299  1
  Hf  Hf35  1  0.42225382  0.81412764  0.74462620  1
  Hf  Hf36  1  0.60264527  0.00035123  0.23747578  1
  Hf  Hf37  1  0.30345276  0.30168473  0.13175831  1
  Hf  Hf38  1  -0.00840418  0.40942915  0.01304214  1
  Hf  Hf39  1  0.31329152  0.91063863  0.88537571  1
  Zr  Zr40  1  0.70291565  0.48703308  0.37362519  1
  Zr  Zr41  1  0.51183795  0.10465580  0.38146023  1
  Zr  Zr42  1  0.30494401  0.30596155  0.61602770  1
  Zr  Zr43  1  0.39745424  -0.00296401  0.50953549  1
  Zr  Zr44  1  0.78929635  0.19431479  -0.00540396  1
  Zr  Zr45  1  0.01072617  0.59842613  0.51696264  1
  Zr  Zr46  1  0.20527467  0.59221690  -0.01397999  1
  Zr  Zr47  1  0.40475997  0.40244454  0.25587493  1
  Zr  Zr48  1  0.79603271  0.60464013  0.50478678  1
  Zr  Zr49  1  0.68246108  0.09546698  0.87051703  1
  Zr  Zr50  1  0.70634928  0.10538612  0.63697371  1
  Zr  Zr51  1  0.18780287  0.02002504  0.75977660  1
  Zr  Zr52  1  0.51799722  0.48035898  0.62927554  1
  Zr  Zr53  1  0.39445366  0.01109646  0.25733641  1
  Zr  Zr54  1  0.50412928  0.69394846  0.37119698  1
  Zr  Zr55  1  0.39186543  0.00861603  0.73971623  1
  Zr  Zr56  1  0.31815300  0.90640700  0.10533697  1
  Zr  Zr57  1  0.19466481  0.81878253  0.75571205  1
  Zr  Zr58  1  -0.00799210  0.41788234  0.24719637  1
  Zr  Zr59  1  0.80099487  0.19879860  0.75951099  1
  Zr  Zr60  1  0.39233926  0.19989106  0.74428953  1
  Zr  Zr61  1  0.50520108  0.29749499  0.87304381  1
  Zr  Zr62  1  0.69777075  0.88592740  0.12834666  1
  Zr  Zr63  1  0.50501938  0.89352329  0.37767198  1
  Zr  Zr64  1  0.89555582  0.49409048  0.61719376  1
  Zr  Zr65  1  0.11098470  0.68648298  0.37889837  1
  Zr  Zr66  1  0.89256550  0.30083997  0.36227587  1
  Zr  Zr67  1  0.39557423  0.40671151  -0.00465641  1
  Zr  Zr68  1  0.51093222  0.51098190  0.87498527  1
  Zr  Zr69  1  0.00034783  -0.00883431  0.24752180  1
  Zr  Zr70  1  0.61414591  0.59697330  0.24049276  1
  Zr  Zr71  1  0.21050192  0.79014441  -0.01578979  1
  Zr  Zr72  1  0.29490811  0.50489245  0.13280990  1
  Zr  Zr73  1  -0.00677320  0.20371758  0.00221326  1
  Zr  Zr74  1  0.88467417  0.09914598  0.35748798  1
  Zr  Zr75  1  0.10911252  0.89056210  0.10746374  1
  Zr  Zr76  1  0.00181248  -0.00622035  0.49566162  1
  Zr  Zr77  1  0.71313355  0.90398175  0.35974533  1
  Zr  Zr78  1  0.91165333  0.71227068  0.38140099  1
  Zr  Zr79  1  0.40291508  0.20744897  0.49934804  1
  Ta  Ta80  1  -0.00205251  -0.01002254  0.75955366  1
  Ta  Ta81  1  0.09911670  0.28591327  0.61833244  1
  Ta  Ta82  1  0.50715367  0.30694310  0.37487687  1
  Ta  Ta83  1  0.39902656  0.20371310  0.25799141  1
  Ta  Ta84  1  0.51110687  0.71678294  0.13111544  1
  Ta  Ta85  1  0.19424284  0.39986365  0.00214979  1
  Ta  Ta86  1  0.87341612  0.51289612  0.12084985  1
  Ta  Ta87  1  0.09908555  0.30546378  0.13639024  1
  Ta  Ta88  1  0.58836990  -0.01341857  0.74475722  1
  Ta  Ta89  1  0.90630862  0.50467458  0.38208014  1
  Ta  Ta90  1  0.50248155  0.10543339  0.62198828  1
  Ta  Ta91  1  0.89757428  0.30106612  0.14378334  1
  Ta  Ta92  1  0.08728227  0.71564640  0.63936448  1
  Ta  Ta93  1  0.89990877  0.89173683  0.89468293  1
  Ta  Ta94  1  0.60204249  -0.00049564  0.01050077  1
  Ta  Ta95  1  0.09195333  0.88677654  0.37295613  1
  Ta  Ta96  1  0.19850190  -0.01179387  0.25323194  1
  Ta  Ta97  1  0.26600940  0.10612066  0.60606288  1
  Ta  Ta98  1  0.89862830  0.28495032  0.62167605  1
  Ta  Ta99  1  0.70300688  0.89360570  0.63558629  1
  Ta  Ta100  1  0.79825401  0.19847685  0.50078410  1
  Ta  Ta101  1  0.00024894  0.39665333  0.73614845  1
  Ta  Ta102  1  0.09714572  0.51556674  0.12237425  1
  Ta  Ta103  1  0.82105975  0.77898869  0.23008906  1
  Ta  Ta104  1  0.69059101  0.31033842  0.62532645  1
  Ta  Ta105  1  0.60163405  0.39406890  0.24255512  1
  Ta  Ta106  1  0.29641740  0.31035436  0.86978882  1
  Ta  Ta107  1  0.30177760  0.70408163  0.37239641  1
  Ta  Ta108  1  0.79426994  0.38855177  0.50276041  1
  Ta  Ta109  1  -0.00245629  0.59762514  0.73962464  1
  Ta  Ta110  1  0.40587531  0.59717149  0.49999280  1
  Ta  Ta111  1  0.48640802  0.09774471  0.11866670  1
  Ta  Ta112  1  0.58727416  0.19898111  0.01186194  1
  Ta  Ta113  1  0.51197807  0.89803632  0.88591209  1
  Ta  Ta114  1  0.18963197  0.40705824  0.26084738  1
  Ta  Ta115  1  0.68802078  0.69394562  0.87023994  1
  Ta  Ta116  1  0.19689142  0.39810049  0.73888158  1
  Ta  Ta117  1  0.39802047  0.20404086  -0.00302068  1
  Ta  Ta118  1  0.31762441  0.69657020  0.85223935  1
  Ta  Ta119  1  0.29667404  0.30229972  0.38000678  1
  Ti  Ti120  1  0.70043568  0.28448271  0.36414802  1
  Ti  Ti121  1  0.19392956  0.59862364  0.74370852  1
  Ti  Ti122  1  0.90683272  0.88421022  0.63071278  1
  Ti  Ti123  1  0.60855596  0.58690222  0.75139189  1
  Ti  Ti124  1  0.59985920  0.39229170  0.49574255  1
  Ti  Ti125  1  0.90081084  0.69078566  0.88550822  1
  Ti  Ti126  1  0.29361457  0.10852027  0.88450079  1
  Ti  Ti127  1  0.41236949  0.39822439  0.75171553  1
  Ti  Ti128  1  0.91238053  0.09112044  0.62800928  1
  Ti  Ti129  1  0.60582299  0.39898990  0.00894121  1
  Ti  Ti130  1  0.28603955  0.10323021  0.39021823  1
  Ti  Ti131  1  0.29179105  0.90875054  0.62396222  1
  Ti  Ti132  1  -0.00262947  0.19585816  0.49661280  1
  Ti  Ti133  1  0.18669717  0.78935322  0.24686878  1
  Ti  Ti134  1  0.19944695  0.20511899  0.75012720  1
  Ti  Ti135  1  0.80201681  0.79676824  0.76194984  1
  Ti  Ti136  1  0.09207777  0.91432665  0.89571777  1
  Ti  Ti137  1  0.30042587  0.50006851  0.85689512  1
  Ti  Ti138  1  0.90060023  0.89423528  0.36431845  1
  Ti  Ti139  1  -0.00367674  0.39145142  0.50107751  1
  Ti  Ti140  1  0.70781231  0.49466981  0.88658933  1
  Ti  Ti141  1  0.90491771  0.08477899  0.88687166  1
  Ti  Ti142  1  0.50200395  0.49935495  0.37487217  1
  Ti  Ti143  1  0.60014392  0.59144597  0.50149518  1
  Ti  Ti144  1  0.59313688  0.20848364  0.74410121  1
  Ti  Ti145  1  0.69329978  0.30661298  0.88127361  1
  Ti  Ti146  1  0.90185371  0.50266691  0.88003536  1
  Ti  Ti147  1  0.49153850  0.09244308  0.87845232  1
  Ti  Ti148  1  0.09191923  0.29872662  0.37256057  1
  Ti  Ti149  1  0.09555855  0.91964612  0.62713734  1
  Ti  Ti150  1  0.39810849  0.60647103  0.25083549  1
  Ti  Ti151  1  0.61031250  0.20663585  0.50234731  1
  Ti  Ti152  1  -0.01183244  0.80204090  0.76136595  1
  Ti  Ti153  1  0.62042010  0.60531069  0.01113257  1
  Ti  Ti154  1  0.59128125  0.79010258  0.00024469  1
  Ti  Ti155  1  0.69917016  0.89459120  0.88240350  1
  Ti  Ti156  1  0.81106392  0.80469498  0.50726780  1
  Ti  Ti157  1  0.09764133  0.09351657  0.37352519  1
  Ti  Ti158  1  0.40514729  0.40621382  0.49509215  1
  Ti  Ti159  1  0.30020041  0.70637032  0.64778867  1
  Mo  Mo160  1  0.69727513  0.49751415  0.61868046  1
  Mo  Mo161  1  0.90051390  0.71201751  0.63492062  1
  Mo  Mo162  1  0.71557300  0.68060908  0.12942652  1
  Mo  Mo163  1  0.41125456  0.01460928  -0.00824789  1
  Mo  Mo164  1  0.00212622  0.79079189  -0.01305322  1
  Mo  Mo165  1  0.41273151  0.80039061  -0.00672370  1
  Mo  Mo166  1  0.50992179  0.90152881  0.62111874  1
  Mo  Mo167  1  0.20058492  0.59831510  0.24905853  1
  Mo  Mo168  1  0.79120150  0.40774355  0.25222004  1
  Mo  Mo169  1  0.61481538  0.80330728  0.75545882  1
  Mo  Mo170  1  0.69336998  0.09515788  0.11679433  1
  Mo  Mo171  1  0.79716654  0.40012779  -0.00327026  1
  Mo  Mo172  1  0.19143115  0.00275335  0.49721009  1
  Mo  Mo173  1  0.09105284  0.49182351  0.37686045  1
  Mo  Mo174  1  0.70308007  0.10999033  0.37531137  1
  Mo  Mo175  1  0.79729298  -0.00968821  0.24594082  1
  Mo  Mo176  1  0.08554264  0.10648868  0.62116898  1
  Mo  Mo177  1  0.51204880  0.70743433  0.86526299  1
  Mo  Mo178  1  0.00327248  0.20635220  0.24484134  1
  Mo  Mo179  1  0.60665687  0.79676640  0.24169438  1
  Mo  Mo180  1  0.19714929  0.01070299  -0.01412183  1
  Mo  Mo181  1  0.69980545  0.49562878  0.11934062  1
  Mo  Mo182  1  -0.00601640  0.00357417  -0.00177282  1
  Mo  Mo183  1  -0.00318231  0.80427783  0.51057859  1
  Mo  Mo184  1  0.49624949  0.29894747  0.11953990  1
  Mo  Mo185  1  0.80077331  0.58824257  -0.01254537  1
  Mo  Mo186  1  0.91473430  0.69593968  0.10926467  1
  Mo  Mo187  1  0.50100294  0.90017916  0.11285272  1
  Mo  Mo188  1  0.78746278  0.19764540  0.24438139  1
  Mo  Mo189  1  0.60937313  0.39588076  0.75937397  1
  Mo  Mo190  1  0.18410083  0.20342755  0.48165800  1
  Mo  Mo191  1  0.51004542  0.29233707  0.62598825  1
  Mo  Mo192  1  0.09763514  0.09903480  0.88405787  1
  Mo  Mo193  1  0.10402322  0.49500321  0.63613891  1
  Mo  Mo194  1  0.79185959  -0.00738847  -0.01203909  1
  Mo  Mo195  1  -0.00370489  0.60409223  0.00396635  1
  Mo  Mo196  1  0.40494228  0.59902507  0.75450155  1
  Mo  Mo197  1  0.81491023  0.58951328  0.25318710  1
  Mo  Mo198  1  0.00904628  0.80630671  0.24363694  1
  Mo  Mo199  1  0.10116394  0.69881918  0.11662010  1
