# generated using pymatgen
data_HfZrTaTiMo
_symmetry_space_group_name_H-M   'P 1'
_cell_length_a   15.21793366
_cell_length_b   15.20476034
_cell_length_c   16.84690422
_cell_angle_alpha   90.00551030
_cell_angle_beta   90.02571402
_cell_angle_gamma   89.86384057
_symmetry_Int_Tables_number   1
_chemical_formula_structural   HfZrTaTiMo
_chemical_formula_sum   'Hf40 Zr40 Ta40 Ti40 Mo40'
_cell_volume   3898.11009325
_cell_formula_units_Z   40
loop_
 _symmetry_equiv_pos_site_id
 _symmetry_equiv_pos_as_xyz
  1  'x, y, z'
loop_
 _atom_site_type_symbol
 _atom_site_label
 _atom_site_symmetry_multiplicity
 _atom_site_fract_x
 _atom_site_fract_y
 _atom_site_fract_z
 _atom_site_occupancy
  Hf  Hf0  1  0.87973005  0.10339950  0.85996010  1
  Hf  Hf1  1  0.11266755  0.49950239  0.11945640  1
  Hf  Hf2  1  0.69858852  0.70075582  0.37055587  1
  Hf  Hf3  1  0.39674412  -0.00709326  0.74745909  1
  Hf  Hf4  1  0.09028387  0.30894925  0.62776254  1
  Hf  Hf5  1  0.38881258  0.82026104  0.01352697  1
  Hf  Hf6  1  0.70567147  0.30584461  0.36385208  1
  Hf  Hf7  1  0.79821906  0.20310898  0.51094638  1
  Hf  Hf8  1  0.80102734  0.60651712  0.50548560  1
  Hf  Hf9  1  0.78487117  0.20935242  -0.00852523  1
  Hf  Hf10  1  0.20153835  -0.00348766  0.75155981  1
  Hf  Hf11  1  0.40008664  0.19680904  0.48666578  1
  Hf  Hf12  1  0.61001210  0.40079747  0.50721319  1
  Hf  Hf13  1  0.88045167  0.09696474  0.64894401  1
  Hf  Hf14  1  0.81828019  0.59879548  0.75812716  1
  Hf  Hf15  1  0.89923226  0.29676839  0.36781803  1
  Hf  Hf16  1  0.82072879  0.40275656  0.51636921  1
  Hf  Hf17  1  0.49128947  0.89744434  0.35307435  1
  Hf  Hf18  1  0.10541155  0.49315579  0.36987395  1
  Hf  Hf19  1  0.10842519  0.09597201  0.12063092  1
  Hf  Hf20  1  0.71994409  0.09675590  0.13528295  1
  Hf  Hf21  1  -0.01337769  -0.00120025  0.25135946  1
  Hf  Hf22  1  0.51108302  0.50230943  0.12024306  1
  Hf  Hf23  1  0.69570565  0.91335008  0.62968451  1
  Hf  Hf24  1  -0.00674731  0.20008069  0.50287031  1
  Hf  Hf25  1  -0.00577922  -0.00420107  0.49878288  1
  Hf  Hf26  1  0.60601386  0.41686890  0.24808268  1
  Hf  Hf27  1  0.29528662  0.50514888  0.63748914  1
  Hf  Hf28  1  0.19845977  0.19470355  0.49699737  1
  Hf  Hf29  1  0.40785082  0.19911733  0.74882990  1
  Hf  Hf30  1  0.40218838  0.78585999  0.49192962  1
  Hf  Hf31  1  0.71749546  0.48636715  0.88076612  1
  Hf  Hf32  1  0.49759011  0.70303330  0.35067328  1
  Hf  Hf33  1  -0.00388151  0.59485831  0.24865075  1
  Hf  Hf34  1  0.10087285  0.29845976  0.37010469  1
  Hf  Hf35  1  0.40030228  0.39944606  0.00614431  1
  Hf  Hf36  1  0.79783260  0.80576947  0.23917119  1
  Hf  Hf37  1  -0.00741593  0.00211488  -0.00839710  1
  Hf  Hf38  1  0.50439619  0.11040410  0.12903527  1
  Hf  Hf39  1  0.78027636  0.79521331  -0.00625912  1
  Zr  Zr40  1  0.50557782  0.08307543  0.61211788  1
  Zr  Zr41  1  0.39594255  0.60552520  0.00212729  1
  Zr  Zr42  1  0.09565508  0.50128119  0.63489444  1
  Zr  Zr43  1  0.89239089  0.69219660  0.11299167  1
  Zr  Zr44  1  0.58854071  0.61365998  0.50581139  1
  Zr  Zr45  1  0.60007894  0.39763281  0.74550267  1
  Zr  Zr46  1  0.50341404  0.09516487  0.88780181  1
  Zr  Zr47  1  0.40426164  0.20427569  0.26000329  1
  Zr  Zr48  1  0.30038621  0.29456556  0.12544972  1
  Zr  Zr49  1  -0.00184598  0.19395909  0.24454488  1
  Zr  Zr50  1  -0.00825948  0.78781136  0.75347319  1
  Zr  Zr51  1  0.09238094  0.68550908  0.87983810  1
  Zr  Zr52  1  0.30221369  0.89445098  0.61169862  1
  Zr  Zr53  1  0.30103269  0.30694274  0.62368678  1
  Zr  Zr54  1  0.21633823  0.79420121  0.74800912  1
  Zr  Zr55  1  0.20661189  0.19826187  0.75208714  1
  Zr  Zr56  1  0.69955089  0.51072673  0.63435336  1
  Zr  Zr57  1  0.11350739  0.69562002  0.62535881  1
  Zr  Zr58  1  0.59151166  0.81175995  0.01806431  1
  Zr  Zr59  1  0.49602314  0.50995939  0.37052902  1
  Zr  Zr60  1  0.51418988  0.29660253  0.88183705  1
  Zr  Zr61  1  -0.00712450  0.20137836  -0.00714199  1
  Zr  Zr62  1  0.00326198  0.58894936  0.49682821  1
  Zr  Zr63  1  0.09053960  0.08932071  0.63643594  1
  Zr  Zr64  1  0.72106180  0.10533980  0.35473677  1
  Zr  Zr65  1  -0.00166100  0.79384077  0.24732765  1
  Zr  Zr66  1  0.50592311  0.30502914  0.37777909  1
  Zr  Zr67  1  -0.01430083  0.22140353  0.75974016  1
  Zr  Zr68  1  0.09608472  0.89769889  0.12204973  1
  Zr  Zr69  1  0.89775316  0.89766891  0.63926614  1
  Zr  Zr70  1  0.69978421  0.29945015  0.13964707  1
  Zr  Zr71  1  0.49189503  0.70182501  0.13909610  1
  Zr  Zr72  1  0.30390273  0.70321399  0.87702960  1
  Zr  Zr73  1  0.00452831  0.39466796  -0.00240676  1
  Zr  Zr74  1  0.19619319  0.79581239  0.00527109  1
  Zr  Zr75  1  0.69278764  0.90346251  0.37171747  1
  Zr  Zr76  1  0.50936356  0.50340554  0.88229021  1
  Zr  Zr77  1  0.50020536  0.30140358  0.61781752  1
  Zr  Zr78  1  0.41047697  0.60178456  0.75897668  1
  Zr  Zr79  1  0.10082588  0.89977585  0.87395694  1
  Ta  Ta80  1  0.10782436  0.29443037  0.12642806  1
  Ta  Ta81  1  0.20057406  0.20024732  -0.01039477  1
  Ta  Ta82  1  0.21049939  0.18292824  0.25891779  1
  Ta  Ta83  1  0.19675801  0.79444973  0.49075463  1
  Ta  Ta84  1  0.89201636  0.90078105  0.37968706  1
  Ta  Ta85  1  0.10605326  0.08695256  0.37333436  1
  Ta  Ta86  1  0.79053486  0.00675775  0.50070275  1
  Ta  Ta87  1  0.20047797  0.59972946  0.25071857  1
  Ta  Ta88  1  0.30621861  0.30172039  0.87511852  1
  Ta  Ta89  1  0.88177025  0.91531740  0.11476466  1
  Ta  Ta90  1  0.11145044  0.50234879  0.87579991  1
  Ta  Ta91  1  0.59542946  -0.00354879  0.75414767  1
  Ta  Ta92  1  0.79444903  0.59583885  0.24876692  1
  Ta  Ta93  1  0.61195738  0.18693629  0.49937771  1
  Ta  Ta94  1  0.88701233  0.90041042  0.86513942  1
  Ta  Ta95  1  0.48158779  0.91662802  0.14589345  1
  Ta  Ta96  1  0.22293902  0.59663999  0.48848693  1
  Ta  Ta97  1  0.30304073  0.08924564  0.11955040  1
  Ta  Ta98  1  0.61665974  0.18857075  0.74475459  1
  Ta  Ta99  1  0.48743932  0.90063921  0.88057309  1
  Ta  Ta100  1  0.71448590  0.50812113  0.11198551  1
  Ta  Ta101  1  0.09562537  0.89250021  0.37599032  1
  Ta  Ta102  1  0.89822629  0.49655504  0.37136831  1
  Ta  Ta103  1  0.48786730  0.50975964  0.62450997  1
  Ta  Ta104  1  0.30239940  0.09491192  0.61324868  1
  Ta  Ta105  1  0.51607148  0.09288447  0.37171943  1
  Ta  Ta106  1  0.60024690  0.81030882  0.49850410  1
  Ta  Ta107  1  0.10591245  0.30694209  0.87250004  1
  Ta  Ta108  1  -0.01731553  0.79877200  -0.00666822  1
  Ta  Ta109  1  0.38766578  0.42273323  0.49375065  1
  Ta  Ta110  1  0.28739267  0.89949403  0.36699233  1
  Ta  Ta111  1  0.61841496  0.61198897  -0.00091866  1
  Ta  Ta112  1  0.09919262  0.10202945  0.86996904  1
  Ta  Ta113  1  -0.00345161  0.79442268  0.49871793  1
  Ta  Ta114  1  0.68225299  0.90405891  0.87319993  1
  Ta  Ta115  1  0.77977682  0.79387949  0.76406053  1
  Ta  Ta116  1  0.90168173  0.49609491  0.11191295  1
  Ta  Ta117  1  0.80926604  0.38614965  0.73970348  1
  Ta  Ta118  1  0.89796600  0.70087517  0.37662603  1
  Ta  Ta119  1  0.29524301  0.31429964  0.37454898  1
  Ti  Ti120  1  0.50760004  0.29989665  0.12474203  1
  Ti  Ti121  1  0.50303619  0.88624352  0.62024099  1
  Ti  Ti122  1  0.20091857  -0.00629237  0.49796712  1
  Ti  Ti123  1  0.60754631  -0.00010253  0.24016791  1
  Ti  Ti124  1  0.70644267  0.50419801  0.37726473  1
  Ti  Ti125  1  0.21506500  -0.00361542  -0.00834299  1
  Ti  Ti126  1  0.38768804  0.59102517  0.24083889  1
  Ti  Ti127  1  0.51330933  0.71315993  0.88184714  1
  Ti  Ti128  1  0.28963864  0.90531658  0.14527003  1
  Ti  Ti129  1  0.39873895  0.19534226  0.00141965  1
  Ti  Ti130  1  0.28704934  0.69354656  0.13069799  1
  Ti  Ti131  1  0.19377449  0.40449996  0.49892457  1
  Ti  Ti132  1  0.20862450  0.39950815  -0.00257536  1
  Ti  Ti133  1  0.30036108  0.69646605  0.36410320  1
  Ti  Ti134  1  0.00262663  0.39845705  0.23698439  1
  Ti  Ti135  1  0.30367865  0.09351485  0.88269609  1
  Ti  Ti136  1  0.10162946  0.69834177  0.37750935  1
  Ti  Ti137  1  0.20802777  0.39911344  0.24431856  1
  Ti  Ti138  1  0.20259873  0.40120530  0.75858995  1
  Ti  Ti139  1  0.78847985  0.00010656  -0.00862921  1
  Ti  Ti140  1  0.37664799  0.01472700  0.26232470  1
  Ti  Ti141  1  0.31909353  0.69235670  0.62239415  1
  Ti  Ti142  1  0.09761417  0.69235475  0.11457146  1
  Ti  Ti143  1  0.80243498  0.80426390  0.50429088  1
  Ti  Ti144  1  0.29827360  0.49776996  0.86988951  1
  Ti  Ti145  1  0.09713971  0.89361707  0.62409398  1
  Ti  Ti146  1  0.41775257  0.79829556  0.74820955  1
  Ti  Ti147  1  0.19470777  0.79495715  0.25217800  1
  Ti  Ti148  1  0.89676463  0.29298174  0.12686532  1
  Ti  Ti149  1  0.59832655  0.00394987  0.01152258  1
  Ti  Ti150  1  0.91392103  0.51401545  0.89330490  1
  Ti  Ti151  1  0.60748630  0.62205553  0.75337016  1
  Ti  Ti152  1  -0.00993424  0.41766090  0.76403166  1
  Ti  Ti153  1  0.61961664  0.38603962  0.00234579  1
  Ti  Ti154  1  0.60556451  0.80174568  0.23040895  1
  Ti  Ti155  1  0.69619195  0.71694847  0.62958238  1
  Ti  Ti156  1  0.39589220  0.40454193  0.24446732  1
  Ti  Ti157  1  0.40336438  -0.00701682  0.48515503  1
  Ti  Ti158  1  0.90315223  0.69249206  0.62660220  1
  Ti  Ti159  1  0.81338517  0.40787225  0.24369664  1
  Mo  Mo160  1  0.30107904  0.09413801  0.38523519  1
  Mo  Mo161  1  -0.00273961  -0.00132903  0.76379435  1
  Mo  Mo162  1  0.70223844  0.29177933  0.62430321  1
  Mo  Mo163  1  0.29786302  0.49962117  0.36336304  1
  Mo  Mo164  1  0.20578278  0.58788280  0.00417603  1
  Mo  Mo165  1  0.89215685  0.70109986  0.88612253  1
  Mo  Mo166  1  0.60097221  0.20095648  0.25278103  1
  Mo  Mo167  1  0.81630463  0.19991560  0.24501257  1
  Mo  Mo168  1  0.59585203  -0.00352221  0.48980145  1
  Mo  Mo169  1  0.38017667  0.80254802  0.24280232  1
  Mo  Mo170  1  0.00338455  0.39623578  0.49453018  1
  Mo  Mo171  1  -0.00166045  0.59589853  0.75471231  1
  Mo  Mo172  1  0.30786252  0.90724369  0.87719246  1
  Mo  Mo173  1  0.70530771  0.29262711  0.87123826  1
  Mo  Mo174  1  0.90937598  0.50055929  0.63285455  1
  Mo  Mo175  1  0.69494923  0.09655039  0.62261679  1
  Mo  Mo176  1  0.00801214  0.60265548  0.00659395  1
  Mo  Mo177  1  0.69288999  0.90563793  0.12458888  1
  Mo  Mo178  1  0.61167463  0.60295811  0.24339666  1
  Mo  Mo179  1  0.88638860  0.32317577  0.87615555  1
  Mo  Mo180  1  0.89986915  0.09873592  0.11426531  1
  Mo  Mo181  1  0.30221602  0.50317181  0.12922297  1
  Mo  Mo182  1  0.69669475  0.69260146  0.12974034  1
  Mo  Mo183  1  0.50764739  0.70270682  0.62628903  1
  Mo  Mo184  1  0.20209102  0.59535881  0.75573035  1
  Mo  Mo185  1  0.39798406  0.00137670  0.01057393  1
  Mo  Mo186  1  0.59028917  0.80484842  0.75248261  1
  Mo  Mo187  1  0.80959483  -0.00572158  0.24848096  1
  Mo  Mo188  1  0.90480535  0.30400113  0.62880407  1
  Mo  Mo189  1  0.39576968  0.60368248  0.49733747  1
  Mo  Mo190  1  0.69167881  0.69635352  0.87127820  1
  Mo  Mo191  1  0.77958263  0.00145586  0.76333803  1
  Mo  Mo192  1  0.68606222  0.09696985  0.88211685  1
  Mo  Mo193  1  0.90568011  0.09084446  0.38328279  1
  Mo  Mo194  1  0.80685223  0.60044635  -0.01062197  1
  Mo  Mo195  1  0.59623999  0.20018093  0.00814402  1
  Mo  Mo196  1  0.78523387  0.20879698  0.75118805  1
  Mo  Mo197  1  0.80724105  0.39879603  0.00390417  1
  Mo  Mo198  1  0.39422383  0.39593237  0.75738547  1
  Mo  Mo199  1  0.19335796  -0.00218254  0.25540717  1
