# generated using pymatgen
data_HfZrTaTiMo
_symmetry_space_group_name_H-M   'P 1'
_cell_length_a   15.18230369
_cell_length_b   15.19109389
_cell_length_c   16.81684759
_cell_angle_alpha   89.95324068
_cell_angle_beta   89.99737078
_cell_angle_gamma   89.90709929
_symmetry_Int_Tables_number   1
_chemical_formula_structural   HfZrTaTiMo
_chemical_formula_sum   'Hf40 Zr40 Ta40 Ti40 Mo40'
_cell_volume   3878.56071621
_cell_formula_units_Z   40
loop_
 _symmetry_equiv_pos_site_id
 _symmetry_equiv_pos_as_xyz
  1  'x, y, z'
loop_
 _atom_site_type_symbol
 _atom_site_label
 _atom_site_symmetry_multiplicity
 _atom_site_fract_x
 _atom_site_fract_y
 _atom_site_fract_z
 _atom_site_occupancy
  Hf  Hf0  1  0.68289363  0.70852109  0.85955327  1
  Hf  Hf1  1  0.47689007  0.70201248  0.59873579  1
  Hf  Hf2  1  0.29373747  0.30570525  0.12933255  1
  Hf  Hf3  1  0.00037524  0.38603976  0.27044207  1
  Hf  Hf4  1  0.60046907  0.60138388  0.01055196  1
  Hf  Hf5  1  0.19085654  0.60655560  0.49214765  1
  Hf  Hf6  1  0.90152628  0.31128074  0.63557273  1
  Hf  Hf7  1  0.60378836  0.40825563  0.74359427  1
  Hf  Hf8  1  0.58788090  0.59144947  0.24993037  1
  Hf  Hf9  1  0.39676018  -0.00203816  0.50180974  1
  Hf  Hf10  1  0.08378529  0.69893149  0.62547360  1
  Hf  Hf11  1  0.50338533  0.31410468  0.11832732  1
  Hf  Hf12  1  0.09397979  0.48889967  0.60808600  1
  Hf  Hf13  1  0.30525382  0.69169739  0.88252989  1
  Hf  Hf14  1  0.80993328  0.00619571  0.50036142  1
  Hf  Hf15  1  0.59438768  0.19418614  0.75498978  1
  Hf  Hf16  1  0.51025729  0.69530547  0.39290094  1
  Hf  Hf17  1  0.10475240  0.90119566  0.62933380  1
  Hf  Hf18  1  0.40092200  -0.01148223  -0.00234081  1
  Hf  Hf19  1  0.50419462  0.10178331  0.37498120  1
  Hf  Hf20  1  0.20901771  0.21046528  0.49207777  1
  Hf  Hf21  1  0.31069524  0.69061259  0.37302207  1
  Hf  Hf22  1  -0.00840253  0.80486484  -0.00179144  1
  Hf  Hf23  1  0.19187738  0.58123982  0.74708612  1
  Hf  Hf24  1  0.20554139  0.00207701  0.75303893  1
  Hf  Hf25  1  0.21054263  0.78608159  0.74908864  1
  Hf  Hf26  1  0.70153993  0.10565826  0.63149761  1
  Hf  Hf27  1  0.91218031  0.89442000  0.63494126  1
  Hf  Hf28  1  0.19105822  -0.00460703  -0.00306326  1
  Hf  Hf29  1  0.79115945  0.61601831  0.24100461  1
  Hf  Hf30  1  0.39989268  0.20755259  0.24882708  1
  Hf  Hf31  1  0.49768960  0.29482067  0.61886554  1
  Hf  Hf32  1  0.29774852  0.10172591  0.12177786  1
  Hf  Hf33  1  -0.00782933  0.20847681  0.49150977  1
  Hf  Hf34  1  0.51135144  0.10167698  0.11226228  1
  Hf  Hf35  1  0.09628423  0.10069873  0.62164083  1
  Hf  Hf36  1  0.90079986  0.10840400  0.36627119  1
  Hf  Hf37  1  -0.00661414  0.78300145  0.48244399  1
  Hf  Hf38  1  0.60904369  0.20047989  0.24674760  1
  Hf  Hf39  1  0.80635059  0.00127319  0.00547482  1
  Zr  Zr40  1  0.30192167  0.49954956  0.61024142  1
  Zr  Zr41  1  0.71478293  0.29476148  0.86231502  1
  Zr  Zr42  1  0.60063845  0.40218858  -0.00571612  1
  Zr  Zr43  1  0.49340351  0.30674223  0.87652284  1
  Zr  Zr44  1  0.69528036  0.50823729  0.39030557  1
  Zr  Zr45  1  0.09305859  0.31104872  0.12520672  1
  Zr  Zr46  1  0.69080373  0.70674115  0.61297812  1
  Zr  Zr47  1  0.89524564  0.50952781  0.37950883  1
  Zr  Zr48  1  0.50186656  0.89673238  0.12823956  1
  Zr  Zr49  1  0.88484620  0.91164234  0.85612006  1
  Zr  Zr50  1  0.29538577  0.30090285  0.86502838  1
  Zr  Zr51  1  0.81473893  0.39522360  0.00519842  1
  Zr  Zr52  1  0.00820420  0.61082424  0.25525694  1
  Zr  Zr53  1  0.79487667  0.00439931  0.24907082  1
  Zr  Zr54  1  0.19813340  0.00159241  0.25793883  1
  Zr  Zr55  1  0.40341697  -0.00160771  0.24972872  1
  Zr  Zr56  1  0.71775399  0.50445036  0.87040252  1
  Zr  Zr57  1  0.17877243  0.79309642  0.26362362  1
  Zr  Zr58  1  0.91848424  0.49706792  0.13014506  1
  Zr  Zr59  1  0.39671901  0.57956242  0.01143816  1
  Zr  Zr60  1  0.09653117  0.10735686  0.12746992  1
  Zr  Zr61  1  0.50802822  0.89225465  0.62484999  1
  Zr  Zr62  1  0.10082103  0.30138232  0.62760831  1
  Zr  Zr63  1  0.90575160  0.10859992  0.13216410  1
  Zr  Zr64  1  0.70743918  0.30168792  0.62829420  1
  Zr  Zr65  1  0.08630694  0.50505356  0.89473272  1
  Zr  Zr66  1  0.90092776  0.68932573  0.87060614  1
  Zr  Zr67  1  0.29041871  0.88586129  0.12669641  1
  Zr  Zr68  1  0.09328580  0.89286033  0.86581062  1
  Zr  Zr69  1  0.19728820  0.80898658  0.48644362  1
  Zr  Zr70  1  0.59286976  0.79603729  0.00855605  1
  Zr  Zr71  1  0.50168563  0.09660664  0.88789439  1
  Zr  Zr72  1  0.60575837  0.00695596  0.50202541  1
  Zr  Zr73  1  0.60811156  -0.01172124  0.75837690  1
  Zr  Zr74  1  0.80725501  0.60575088  0.01746725  1
  Zr  Zr75  1  0.49080987  0.49865031  0.39803374  1
  Zr  Zr76  1  0.49737902  0.86422600  0.86661150  1
  Zr  Zr77  1  0.78981446  0.80329041  -0.00293904  1
  Zr  Zr78  1  0.58867711  0.60067276  0.73236162  1
  Zr  Zr79  1  0.39744474  -0.00343259  0.74988750  1
  Ta  Ta80  1  0.19749614  0.19613325  0.75311709  1
  Ta  Ta81  1  0.80343330  0.59431911  0.73312751  1
  Ta  Ta82  1  0.71211663  0.49802148  0.60822231  1
  Ta  Ta83  1  0.88963351  0.89105263  0.36880878  1
  Ta  Ta84  1  0.30236838  0.10751121  0.37568913  1
  Ta  Ta85  1  0.49207451  0.51063112  0.86895027  1
  Ta  Ta86  1  0.21260424  0.40775210  0.00153934  1
  Ta  Ta87  1  0.71003367  0.90213168  0.63217609  1
  Ta  Ta88  1  0.20214979  0.58474488  0.26040617  1
  Ta  Ta89  1  0.28963669  0.68631456  0.13689107  1
  Ta  Ta90  1  -0.00649849  0.21296636  -0.01513879  1
  Ta  Ta91  1  0.08004950  0.89574845  0.12591490  1
  Ta  Ta92  1  -0.00123838  0.20348305  0.76157615  1
  Ta  Ta93  1  0.61250321  0.79434017  0.25203292  1
  Ta  Ta94  1  0.30679508  0.88301760  0.61868228  1
  Ta  Ta95  1  0.29801342  0.88997555  0.88138902  1
  Ta  Ta96  1  0.48927870  0.69030535  0.13839971  1
  Ta  Ta97  1  0.00499667  -0.00831961  0.48890678  1
  Ta  Ta98  1  0.60556492  -0.00439603  0.25377241  1
  Ta  Ta99  1  0.40406586  0.41015000  0.25893448  1
  Ta  Ta100  1  0.69335430  0.48779115  0.13255830  1
  Ta  Ta101  1  0.50199808  0.29744643  0.38376270  1
  Ta  Ta102  1  0.70816055  0.89512339  0.13170659  1
  Ta  Ta103  1  0.29912251  0.49399686  0.87128784  1
  Ta  Ta104  1  0.20038108  0.00535660  0.49221439  1
  Ta  Ta105  1  0.80068925  0.81314220  0.50346766  1
  Ta  Ta106  1  0.39904219  0.41130978  0.74050176  1
  Ta  Ta107  1  0.39534233  0.19382955  0.74270794  1
  Ta  Ta108  1  0.29442314  0.29960840  0.63539838  1
  Ta  Ta109  1  0.19398467  0.20527273  -0.00727142  1
  Ta  Ta110  1  0.90772756  0.32243925  0.86373940  1
  Ta  Ta111  1  0.39270746  0.20782918  0.00290713  1
  Ta  Ta112  1  0.39051728  0.61058793  0.74187167  1
  Ta  Ta113  1  0.40528033  0.79015201  0.25632228  1
  Ta  Ta114  1  0.72353626  0.08921792  0.86702290  1
  Ta  Ta115  1  0.09911702  0.10703143  0.87575893  1
  Ta  Ta116  1  0.70998373  0.71541640  0.38618696  1
  Ta  Ta117  1  0.00210408  -0.01184781  0.25964814  1
  Ta  Ta118  1  0.50833024  0.89168483  0.37706989  1
  Ta  Ta119  1  0.70056764  0.29931941  0.37972950  1
  Ti  Ti120  1  -0.00888146  0.60280696  0.74741389  1
  Ti  Ti121  1  0.81654963  0.61943186  0.50707990  1
  Ti  Ti122  1  0.09997755  0.10170598  0.37465938  1
  Ti  Ti123  1  0.80606832  0.19869771  -0.00467763  1
  Ti  Ti124  1  0.70711695  0.29462305  0.12230862  1
  Ti  Ti125  1  0.20389468  0.39714300  0.26660526  1
  Ti  Ti126  1  0.39488829  0.78297106  0.00969789  1
  Ti  Ti127  1  0.79572075  0.79704656  0.74420343  1
  Ti  Ti128  1  0.29936342  0.10040486  0.88082312  1
  Ti  Ti129  1  0.50263510  0.49967111  0.60265394  1
  Ti  Ti130  1  0.90044562  0.10633006  0.63004270  1
  Ti  Ti131  1  0.30051887  0.09991871  0.62238595  1
  Ti  Ti132  1  0.10324488  0.31119229  0.87292742  1
  Ti  Ti133  1  0.79211536  0.20453766  0.49703523  1
  Ti  Ti134  1  0.69956182  0.10525043  0.37731186  1
  Ti  Ti135  1  0.09666093  0.69763761  0.12092649  1
  Ti  Ti136  1  0.19030424  0.21012622  0.26522261  1
  Ti  Ti137  1  0.00561965  0.41663597  0.75300197  1
  Ti  Ti138  1  0.09979231  0.69545668  0.88225331  1
  Ti  Ti139  1  0.90711759  0.50772934  0.61123538  1
  Ti  Ti140  1  0.30568015  0.90234050  0.37264583  1
  Ti  Ti141  1  0.29783809  0.49067082  0.38524988  1
  Ti  Ti142  1  0.38326908  0.38085775  0.49729851  1
  Ti  Ti143  1  0.70192925  0.10207824  0.12042087  1
  Ti  Ti144  1  0.60649235  0.38793832  0.50238685  1
  Ti  Ti145  1  0.19640702  0.79030625  0.00329513  1
  Ti  Ti146  1  -0.00429031  0.01036998  -0.00580265  1
  Ti  Ti147  1  0.80506728  0.21592836  0.25260984  1
  Ti  Ti148  1  0.09824144  0.49148118  0.38949748  1
  Ti  Ti149  1  0.40658913  0.19272498  0.50482817  1
  Ti  Ti150  1  0.81555301  0.39377888  0.49433017  1
  Ti  Ti151  1  -0.00215743  0.01238333  0.75422203  1
  Ti  Ti152  1  0.59988694  0.39432485  0.25583073  1
  Ti  Ti153  1  0.61402017  0.19647536  -0.00743200  1
  Ti  Ti154  1  0.30600296  0.49575488  0.13616090  1
  Ti  Ti155  1  0.79279257  0.40092713  0.25158289  1
  Ti  Ti156  1  0.90386663  0.29804912  0.12909511  1
  Ti  Ti157  1  0.90084130  0.72886076  0.13538449  1
  Ti  Ti158  1  0.61638981  -0.01035382  -0.01031836  1
  Ti  Ti159  1  0.11468605  0.50890484  0.11479982  1
  Mo  Mo160  1  0.80864817  0.00724412  0.73823771  1
  Mo  Mo161  1  0.39354818  0.39881523  -0.00034509  1
  Mo  Mo162  1  0.39191671  0.59418740  0.50113145  1
  Mo  Mo163  1  0.70036193  0.89908409  0.86473710  1
  Mo  Mo164  1  0.88987878  0.70206062  0.36985357  1
  Mo  Mo165  1  0.20053684  0.60475688  0.00863782  1
  Mo  Mo166  1  0.19926995  0.39975028  0.75161402  1
  Mo  Mo167  1  0.10145955  0.29609700  0.37570904  1
  Mo  Mo168  1  0.49927461  0.49215598  0.13516945  1
  Mo  Mo169  1  0.81099202  0.20081931  0.75353322  1
  Mo  Mo170  1  0.49100288  0.68350846  0.87332040  1
  Mo  Mo171  1  0.90512823  0.90700861  0.12758063  1
  Mo  Mo172  1  0.39649732  0.78946000  0.74655966  1
  Mo  Mo173  1  0.59758574  0.79231366  0.74160119  1
  Mo  Mo174  1  0.00775295  0.39638143  0.00215964  1
  Mo  Mo175  1  0.88678747  0.30184722  0.37440005  1
  Mo  Mo176  1  0.39559268  0.80779634  0.48476221  1
  Mo  Mo177  1  -0.00928006  0.80292970  0.25721873  1
  Mo  Mo178  1  0.89585729  0.70001899  0.63080535  1
  Mo  Mo179  1  0.60101009  0.20322678  0.49611904  1
  Mo  Mo180  1  0.60812139  0.59517168  0.50970170  1
  Mo  Mo181  1  0.00396493  0.61157379  0.01533287  1
  Mo  Mo182  1  0.79785544  0.80657383  0.24936224  1
  Mo  Mo183  1  0.19910639  0.39401735  0.48625137  1
  Mo  Mo184  1  0.69742461  0.90557087  0.37467462  1
  Mo  Mo185  1  0.90342271  0.50416127  0.87351145  1
  Mo  Mo186  1  0.00233540  0.79130139  0.75473633  1
  Mo  Mo187  1  0.60887026  0.81067707  0.49204864  1
  Mo  Mo188  1  -0.00559198  0.59673284  0.49372780  1
  Mo  Mo189  1  0.09369408  0.90721041  0.37879469  1
  Mo  Mo190  1  0.81531180  0.41606020  0.74136396  1
  Mo  Mo191  1  0.28993029  0.70231689  0.61841988  1
  Mo  Mo192  1  0.49237265  0.10458463  0.62698264  1
  Mo  Mo193  1  0.00107383  0.19708744  0.26151063  1
  Mo  Mo194  1  0.69410978  0.70090083  0.13300027  1
  Mo  Mo195  1  0.09716444  0.68894728  0.37197123  1
  Mo  Mo196  1  0.30924637  0.30107700  0.36949206  1
  Mo  Mo197  1  0.90301312  0.11350080  0.87406033  1
  Mo  Mo198  1  0.39298689  0.59396176  0.25065509  1
  Mo  Mo199  1  -0.00239436  0.39738837  0.48687038  1
