# generated using pymatgen
data_HfZrTaTiMo
_symmetry_space_group_name_H-M   'P 1'
_cell_length_a   15.20747251
_cell_length_b   15.21713164
_cell_length_c   16.82395526
_cell_angle_alpha   89.96298282
_cell_angle_beta   89.99022799
_cell_angle_gamma   90.02746928
_symmetry_Int_Tables_number   1
_chemical_formula_structural   HfZrTaTiMo
_chemical_formula_sum   'Hf40 Zr40 Ta40 Ti40 Mo40'
_cell_volume   3893.29933373
_cell_formula_units_Z   40
loop_
 _symmetry_equiv_pos_site_id
 _symmetry_equiv_pos_as_xyz
  1  'x, y, z'
loop_
 _atom_site_type_symbol
 _atom_site_label
 _atom_site_symmetry_multiplicity
 _atom_site_fract_x
 _atom_site_fract_y
 _atom_site_fract_z
 _atom_site_occupancy
  Hf  Hf0  1  0.29924789  0.10424848  0.35828797  1
  Hf  Hf1  1  0.20163080  0.20704763  -0.00117892  1
  Hf  Hf2  1  0.11418703  0.48564979  0.13527179  1
  Hf  Hf3  1  0.49783741  0.49974827  0.87334538  1
  Hf  Hf4  1  0.49891799  0.30495080  0.87042103  1
  Hf  Hf5  1  0.50025136  0.09588973  0.88678906  1
  Hf  Hf6  1  0.79478257  0.01615194  0.48410538  1
  Hf  Hf7  1  0.00082117  0.39686932  0.49811250  1
  Hf  Hf8  1  0.61508129  -0.02037394  0.00502478  1
  Hf  Hf9  1  0.89483062  0.29201197  0.38571118  1
  Hf  Hf10  1  0.79757768  0.40500584  0.25345554  1
  Hf  Hf11  1  0.19732446  0.59762604  0.48847366  1
  Hf  Hf12  1  0.66571704  0.10035723  0.36700434  1
  Hf  Hf13  1  0.19866848  0.39460231  0.74654065  1
  Hf  Hf14  1  0.90369454  0.90670322  0.61485539  1
  Hf  Hf15  1  0.39587550  0.60499260  0.73625321  1
  Hf  Hf16  1  -0.01746522  0.39630590  0.75648774  1
  Hf  Hf17  1  0.10278311  0.10054825  0.13952743  1
  Hf  Hf18  1  -0.00995939  0.59824012  0.48828391  1
  Hf  Hf19  1  0.59618608  0.59016290  0.25068997  1
  Hf  Hf20  1  0.81104613  -0.00956329  0.76205425  1
  Hf  Hf21  1  0.79899207  0.80609007  0.48861502  1
  Hf  Hf22  1  0.39988385  0.59916107  0.00774650  1
  Hf  Hf23  1  0.51165744  0.91234570  0.62369941  1
  Hf  Hf24  1  0.10714759  0.89701480  0.62667081  1
  Hf  Hf25  1  0.69187381  0.49600464  0.11719626  1
  Hf  Hf26  1  0.20077286  0.19406425  0.50350979  1
  Hf  Hf27  1  0.79734628  0.62481069  0.00733665  1
  Hf  Hf28  1  0.40748725  0.59672606  0.49075187  1
  Hf  Hf29  1  0.59567517  0.18854555  0.74594285  1
  Hf  Hf30  1  0.20993743  0.79762616  0.75249212  1
  Hf  Hf31  1  0.59523611  0.60022296  0.73997602  1
  Hf  Hf32  1  0.21196702  0.60041077  0.26792961  1
  Hf  Hf33  1  -0.01598867  0.80827569  0.75443051  1
  Hf  Hf34  1  0.90544824  0.49337862  0.11348032  1
  Hf  Hf35  1  0.38398105  0.80905018  0.26683099  1
  Hf  Hf36  1  0.89908142  0.28982436  0.11828614  1
  Hf  Hf37  1  0.29876223  0.70847115  0.60986096  1
  Hf  Hf38  1  0.89513057  0.70161880  0.62604353  1
  Hf  Hf39  1  0.19989832  0.80245260  0.48328038  1
  Zr  Zr40  1  0.09272589  0.90774501  0.87906096  1
  Zr  Zr41  1  0.69314328  0.50188801  0.88104617  1
  Zr  Zr42  1  0.11048704  0.90448997  0.34638130  1
  Zr  Zr43  1  0.70356941  0.30483955  0.86319347  1
  Zr  Zr44  1  0.79882080  0.00313448  0.25463056  1
  Zr  Zr45  1  0.41042811  0.41249560  0.25697085  1
  Zr  Zr46  1  0.00341728  0.59479293  -0.00628975  1
  Zr  Zr47  1  -0.00447409  0.59076148  0.25714311  1
  Zr  Zr48  1  0.60315697  0.80446341  0.49027860  1
  Zr  Zr49  1  0.88589642  0.49483683  0.88376326  1
  Zr  Zr50  1  0.89851083  0.10614117  0.62503290  1
  Zr  Zr51  1  0.70345787  0.29365671  0.61972542  1
  Zr  Zr52  1  0.19744709  0.59840628  0.74625570  1
  Zr  Zr53  1  0.10313157  0.09369817  0.63254821  1
  Zr  Zr54  1  0.08440652  0.50048947  0.62745609  1
  Zr  Zr55  1  0.69385573  0.30141134  0.39136647  1
  Zr  Zr56  1  0.19915688  0.80356496  0.00500421  1
  Zr  Zr57  1  0.09590762  0.70211093  0.87600006  1
  Zr  Zr58  1  0.00284896  0.19655825  -0.00274305  1
  Zr  Zr59  1  0.21063255  0.59963096  -0.00108246  1
  Zr  Zr60  1  0.30767264  0.90133813  0.87632955  1
  Zr  Zr61  1  0.40095273  0.60454971  0.26601655  1
  Zr  Zr62  1  0.78702790  0.60316507  0.49643455  1
  Zr  Zr63  1  0.80360557  0.60669360  0.24561500  1
  Zr  Zr64  1  0.57964971  0.17586736  0.51624764  1
  Zr  Zr65  1  0.21413631  -0.00115088  0.49313089  1
  Zr  Zr66  1  0.41660654  0.20413077  0.23899878  1
  Zr  Zr67  1  0.69496053  0.73300930  0.13499516  1
  Zr  Zr68  1  0.40458531  0.79577491  0.00419517  1
  Zr  Zr69  1  0.50813184  0.29312895  0.37892006  1
  Zr  Zr70  1  0.09904959  0.69530863  0.13206565  1
  Zr  Zr71  1  0.40414076  0.39591150  0.51002090  1
  Zr  Zr72  1  0.19311239  0.40161903  -0.00866106  1
  Zr  Zr73  1  0.30186157  0.10717203  0.12993595  1
  Zr  Zr74  1  0.30744150  0.30030026  0.87121647  1
  Zr  Zr75  1  0.90703490  0.89906375  0.37104618  1
  Zr  Zr76  1  0.20637665  0.39857596  0.50851264  1
  Zr  Zr77  1  0.60625734  0.20129602  0.00621724  1
  Zr  Zr78  1  0.10836160  0.28393837  0.36864846  1
  Zr  Zr79  1  0.79328973  0.19845030  0.24978002  1
  Ta  Ta80  1  0.87137647  0.89637448  0.12051541  1
  Ta  Ta81  1  -0.01947367  0.79671401  0.23233573  1
  Ta  Ta82  1  0.08968601  0.28657757  0.63272525  1
  Ta  Ta83  1  -0.00363174  0.39194893  0.25770920  1
  Ta  Ta84  1  0.40407125  -0.00174005  0.01619742  1
  Ta  Ta85  1  -0.00054289  -0.00759560  0.01730201  1
  Ta  Ta86  1  0.10706752  0.09846802  0.87712865  1
  Ta  Ta87  1  0.80393857  0.41142814  0.50853178  1
  Ta  Ta88  1  0.70947311  0.89619302  0.63006224  1
  Ta  Ta89  1  0.50156315  0.70786742  0.61246760  1
  Ta  Ta90  1  0.41054863  0.80046282  0.74899647  1
  Ta  Ta91  1  0.00994480  0.00225800  0.48840892  1
  Ta  Ta92  1  0.51287722  0.89140038  0.87565821  1
  Ta  Ta93  1  0.40221250  0.40591413  0.73029932  1
  Ta  Ta94  1  -0.01104008  0.19256566  0.24969469  1
  Ta  Ta95  1  0.31736850  0.09909666  0.62875918  1
  Ta  Ta96  1  0.20214640  0.00225406  0.00986688  1
  Ta  Ta97  1  0.30683536  0.50443858  0.86883832  1
  Ta  Ta98  1  0.19871742  0.19261559  0.75607549  1
  Ta  Ta99  1  -0.02087820  0.79786742  0.01196428  1
  Ta  Ta100  1  0.39641232  0.40158516  0.00969602  1
  Ta  Ta101  1  0.29557414  0.31832410  0.13066637  1
  Ta  Ta102  1  0.09905641  0.49011827  0.37118974  1
  Ta  Ta103  1  0.31448758  0.90651830  0.62627228  1
  Ta  Ta104  1  0.69529922  0.70463277  0.62755912  1
  Ta  Ta105  1  0.60923208  -0.00691135  0.76233730  1
  Ta  Ta106  1  0.39971050  0.81812938  0.48146639  1
  Ta  Ta107  1  -0.01091234  0.60279778  0.75584619  1
  Ta  Ta108  1  0.90090144  0.30043023  0.62176332  1
  Ta  Ta109  1  0.09161903  0.70376971  0.62351950  1
  Ta  Ta110  1  0.30435342  0.09733376  0.88358497  1
  Ta  Ta111  1  0.50828529  0.89021819  0.13227522  1
  Ta  Ta112  1  0.41313150  -0.00100456  0.24139750  1
  Ta  Ta113  1  0.68993994  0.49937658  0.37809948  1
  Ta  Ta114  1  0.79710450  0.59656341  0.74647999  1
  Ta  Ta115  1  0.41056614  0.00132663  0.75484832  1
  Ta  Ta116  1  0.42045948  0.01747568  0.49238383  1
  Ta  Ta117  1  -0.00155863  0.19793639  0.76552247  1
  Ta  Ta118  1  0.69013784  0.70621766  0.87214320  1
  Ta  Ta119  1  0.69696359  0.08183910  0.62917574  1
  Ti  Ti120  1  0.71156885  0.10022680  0.88145156  1
  Ti  Ti121  1  0.49514819  0.70068342  0.87389727  1
  Ti  Ti122  1  0.10779783  0.89645679  0.13716990  1
  Ti  Ti123  1  0.69696560  0.30004415  0.12792210  1
  Ti  Ti124  1  0.00488337  0.79974275  0.49476230  1
  Ti  Ti125  1  0.00445063  0.38919322  -0.01176936  1
  Ti  Ti126  1  0.88270557  0.71507060  0.87166687  1
  Ti  Ti127  1  0.89107968  0.28885092  0.88124037  1
  Ti  Ti128  1  -0.00584757  0.18699181  0.49585574  1
  Ti  Ti129  1  0.09903103  0.09451987  0.35153479  1
  Ti  Ti130  1  0.59957944  0.42393157  0.51683250  1
  Ti  Ti131  1  -0.01144448  -0.00115193  0.23228474  1
  Ti  Ti132  1  0.49953726  0.70348782  0.13644337  1
  Ti  Ti133  1  0.71312932  0.09577334  0.11716245  1
  Ti  Ti134  1  0.49147913  0.29071724  0.62719169  1
  Ti  Ti135  1  0.49652590  0.49754129  0.12405363  1
  Ti  Ti136  1  0.59279644  0.61457035  0.00604824  1
  Ti  Ti137  1  0.60176297  0.40441219  0.73120111  1
  Ti  Ti138  1  0.21252765  0.00258097  0.75258136  1
  Ti  Ti139  1  0.40335235  0.20510419  0.01199267  1
  Ti  Ti140  1  0.39606234  0.19657251  0.75126613  1
  Ti  Ti141  1  0.79279585  0.38495861  0.00255320  1
  Ti  Ti142  1  0.29553017  0.29088409  0.63048478  1
  Ti  Ti143  1  0.00492059  0.00552750  0.75690147  1
  Ti  Ti144  1  0.10353277  0.29562878  0.14204615  1
  Ti  Ti145  1  0.69807105  0.70455774  0.36003604  1
  Ti  Ti146  1  0.29884735  0.70707299  0.13556308  1
  Ti  Ti147  1  0.68360993  0.89943181  0.35489202  1
  Ti  Ti148  1  0.09260671  0.70815548  0.36189097  1
  Ti  Ti149  1  0.59219944  0.40095051  0.00027182  1
  Ti  Ti150  1  0.50898095  0.70464577  0.37660932  1
  Ti  Ti151  1  0.90316968  0.08817353  0.88846665  1
  Ti  Ti152  1  0.80484848  0.19977595  0.75171476  1
  Ti  Ti153  1  0.50861118  0.30619739  0.12672928  1
  Ti  Ti154  1  0.89672593  0.70143665  0.37011270  1
  Ti  Ti155  1  0.21107645  0.40004295  0.26118167  1
  Ti  Ti156  1  0.09777955  0.49427485  0.86715410  1
  Ti  Ti157  1  0.60308010  0.79960275  0.74771684  1
  Ti  Ti158  1  0.30649734  0.29961156  0.37622425  1
  Ti  Ti159  1  0.71358500  0.88809227  0.87553997  1
  Mo  Mo160  1  0.79121678  0.79456030  0.75061471  1
  Mo  Mo161  1  0.38730966  0.19764332  0.50565946  1
  Mo  Mo162  1  0.29803471  0.90040062  0.12667713  1
  Mo  Mo163  1  0.91609840  0.10059017  0.37527099  1
  Mo  Mo164  1  0.70216204  0.50559223  0.62567595  1
  Mo  Mo165  1  0.89583845  0.49172639  0.37561860  1
  Mo  Mo166  1  0.80575410  0.00008557  -0.00691822  1
  Mo  Mo167  1  0.51548157  0.49780932  0.38255457  1
  Mo  Mo168  1  0.19715978  0.79535859  0.25223455  1
  Mo  Mo169  1  0.80061722  0.20004281  0.50356585  1
  Mo  Mo170  1  0.60441311  0.39531793  0.24620103  1
  Mo  Mo171  1  0.31047210  0.91394755  0.37456567  1
  Mo  Mo172  1  0.21526620  -0.00820059  0.23835708  1
  Mo  Mo173  1  0.89642529  0.70432433  0.12242624  1
  Mo  Mo174  1  0.79469876  0.40288326  0.73363709  1
  Mo  Mo175  1  0.20075639  0.21022715  0.24783873  1
  Mo  Mo176  1  0.89941735  0.89964270  0.88940328  1
  Mo  Mo177  1  0.59502972  0.01156202  0.22862311  1
  Mo  Mo178  1  0.30371092  0.50056756  0.12891948  1
  Mo  Mo179  1  0.79609013  0.80285233  0.26103088  1
  Mo  Mo180  1  0.50933279  0.09632146  0.11129052  1
  Mo  Mo181  1  0.30000830  0.49049770  0.38063119  1
  Mo  Mo182  1  0.49895280  0.09464904  0.63862632  1
  Mo  Mo183  1  0.59984830  0.60586153  0.49886306  1
  Mo  Mo184  1  0.90011630  0.09302090  0.11675664  1
  Mo  Mo185  1  0.31201105  0.69505437  0.86957742  1
  Mo  Mo186  1  0.49162628  0.09830057  0.36802982  1
  Mo  Mo187  1  0.59812169  0.78943774  -0.00499864  1
  Mo  Mo188  1  0.50324563  0.50271126  0.62457562  1
  Mo  Mo189  1  0.29926466  0.70609272  0.38736017  1
  Mo  Mo190  1  0.50877904  0.92035003  0.36710817  1
  Mo  Mo191  1  0.60554660  -0.00940994  0.50029032  1
  Mo  Mo192  1  0.89199391  0.49882876  0.63166867  1
  Mo  Mo193  1  0.09393099  0.29587960  0.86429140  1
  Mo  Mo194  1  0.79953893  0.19481558  -0.00231505  1
  Mo  Mo195  1  0.78669847  0.81440039  -0.00395544  1
  Mo  Mo196  1  0.30012408  0.49718882  0.62714884  1
  Mo  Mo197  1  0.60258775  0.20261610  0.22962186  1
  Mo  Mo198  1  0.58428307  0.80487009  0.26190034  1
  Mo  Mo199  1  0.69134452  0.90892471  0.13592624  1
