# generated using pymatgen
data_HfZrTaTiMo
_symmetry_space_group_name_H-M   'P 1'
_cell_length_a   15.20367232
_cell_length_b   15.21214645
_cell_length_c   16.86118797
_cell_angle_alpha   90.08681242
_cell_angle_beta   90.06037395
_cell_angle_gamma   89.95840121
_symmetry_Int_Tables_number   1
_chemical_formula_structural   HfZrTaTiMo
_chemical_formula_sum   'Hf40 Zr40 Ta40 Ti40 Mo40'
_cell_volume   3899.65614909
_cell_formula_units_Z   40
loop_
 _symmetry_equiv_pos_site_id
 _symmetry_equiv_pos_as_xyz
  1  'x, y, z'
loop_
 _atom_site_type_symbol
 _atom_site_label
 _atom_site_symmetry_multiplicity
 _atom_site_fract_x
 _atom_site_fract_y
 _atom_site_fract_z
 _atom_site_occupancy
  Hf  Hf0  1  0.19322409  0.00771227  0.49563806  1
  Hf  Hf1  1  0.70462006  0.47847558  0.61532664  1
  Hf  Hf2  1  0.19641811  0.79137374  0.49704074  1
  Hf  Hf3  1  0.40742846  0.78897715  0.74117273  1
  Hf  Hf4  1  0.20571837  0.58855249  0.23604918  1
  Hf  Hf5  1  0.20941770  0.19623705  0.00707851  1
  Hf  Hf6  1  0.21061199  0.21119389  0.50669642  1
  Hf  Hf7  1  0.80127471  0.60172391  0.73924363  1
  Hf  Hf8  1  0.89455462  0.89443543  0.61872618  1
  Hf  Hf9  1  0.49114702  0.50751341  0.13847612  1
  Hf  Hf10  1  0.60816799  0.39998576  0.26131207  1
  Hf  Hf11  1  0.69782809  0.89143863  0.13859340  1
  Hf  Hf12  1  -0.00410332  0.80592092  0.49060905  1
  Hf  Hf13  1  0.49574148  0.69300754  0.87231864  1
  Hf  Hf14  1  0.09798152  0.10295708  0.87772161  1
  Hf  Hf15  1  0.80598734  0.17993579  0.48721518  1
  Hf  Hf16  1  0.30162958  0.11480661  0.86867889  1
  Hf  Hf17  1  0.79328521  0.37221276  0.75459048  1
  Hf  Hf18  1  0.29158631  0.50034265  0.38551929  1
  Hf  Hf19  1  0.70057821  0.48638724  0.86765684  1
  Hf  Hf20  1  0.61611107  0.00425703  0.00097032  1
  Hf  Hf21  1  0.80413786  0.19877749  0.26098640  1
  Hf  Hf22  1  0.08086721  0.50974512  0.11489604  1
  Hf  Hf23  1  0.09209564  0.90334689  0.88183693  1
  Hf  Hf24  1  0.60072287  0.78968224  0.00499809  1
  Hf  Hf25  1  0.60739953  0.37176122  -0.00704143  1
  Hf  Hf26  1  0.11650137  0.30827799  0.36085964  1
  Hf  Hf27  1  0.51651678  0.11012787  0.87583876  1
  Hf  Hf28  1  0.11647891  0.51934606  0.63597361  1
  Hf  Hf29  1  0.50826317  0.89579603  0.87723589  1
  Hf  Hf30  1  0.09600897  0.31074765  0.88038644  1
  Hf  Hf31  1  0.49564821  0.49087621  0.86802948  1
  Hf  Hf32  1  0.70765028  0.47950991  0.12254078  1
  Hf  Hf33  1  0.69718951  0.70525315  0.86976825  1
  Hf  Hf34  1  0.29724331  0.69648428  0.87946458  1
  Hf  Hf35  1  0.01582119  0.20136600  0.50662230  1
  Hf  Hf36  1  0.09693910  0.69785082  0.86462899  1
  Hf  Hf37  1  0.69667221  0.29963099  0.39255536  1
  Hf  Hf38  1  0.69581671  0.68418721  0.14241218  1
  Hf  Hf39  1  0.50826847  0.70277125  0.35717559  1
  Zr  Zr40  1  0.40888362  0.00100771  0.75288589  1
  Zr  Zr41  1  0.89278722  0.10820348  0.87878960  1
  Zr  Zr42  1  0.30713324  0.30485161  0.11870287  1
  Zr  Zr43  1  0.62064840  0.20617931  0.74246321  1
  Zr  Zr44  1  0.10083590  0.91395991  0.36608516  1
  Zr  Zr45  1  0.20108536  0.80773323  0.75089460  1
  Zr  Zr46  1  0.00719493  0.40663587  0.51201625  1
  Zr  Zr47  1  0.00341755  0.79809793  0.25108270  1
  Zr  Zr48  1  0.70272106  0.67867907  0.37236634  1
  Zr  Zr49  1  0.69946455  0.09052210  0.13780979  1
  Zr  Zr50  1  0.40539024  0.62176796  0.50823259  1
  Zr  Zr51  1  0.00042488  0.61704910  0.50601640  1
  Zr  Zr52  1  0.90934792  0.31053187  0.38225923  1
  Zr  Zr53  1  0.31268750  0.10562253  0.62828250  1
  Zr  Zr54  1  0.89410387  0.90232829  0.12752559  1
  Zr  Zr55  1  0.09284423  0.50702512  0.37097061  1
  Zr  Zr56  1  0.37434127  0.40508309  0.25689350  1
  Zr  Zr57  1  0.59244885  0.60048034  0.73187838  1
  Zr  Zr58  1  0.50314929  0.89963449  0.61247991  1
  Zr  Zr59  1  0.88861353  0.29999628  0.61418701  1
  Zr  Zr60  1  0.00083273  0.79280013  0.01043545  1
  Zr  Zr61  1  0.49772135  0.90189132  0.12265692  1
  Zr  Zr62  1  -0.00971548  0.21910750  0.01323935  1
  Zr  Zr63  1  0.39317516  0.00571167  0.25321430  1
  Zr  Zr64  1  0.00750439  0.40186747  0.73974730  1
  Zr  Zr65  1  0.39266984  0.01898096  0.00361914  1
  Zr  Zr66  1  0.51012436  0.30236081  0.13338650  1
  Zr  Zr67  1  -0.00959791  0.01335335  0.50177862  1
  Zr  Zr68  1  0.50855289  0.50489640  0.38341686  1
  Zr  Zr69  1  0.80753370  0.59097591  -0.00339908  1
  Zr  Zr70  1  0.48638447  0.29089940  0.38356284  1
  Zr  Zr71  1  0.49757967  0.48570479  0.61352878  1
  Zr  Zr72  1  -0.01354778  0.00077415  0.74809738  1
  Zr  Zr73  1  0.29953995  0.89783883  0.61676934  1
  Zr  Zr74  1  0.20091704  0.22087864  0.74574307  1
  Zr  Zr75  1  0.29664630  0.90475392  0.88838477  1
  Zr  Zr76  1  0.90212245  0.70315095  0.86887933  1
  Zr  Zr77  1  0.80460804  0.78547203  0.26043573  1
  Zr  Zr78  1  0.30121636  0.70483467  0.36740655  1
  Zr  Zr79  1  0.59591152  0.58872913  0.00239435  1
  Ta  Ta80  1  0.79728330  0.81254884  0.74412647  1
  Ta  Ta81  1  0.09621801  0.90514903  0.62753093  1
  Ta  Ta82  1  0.20747666  0.80959891  0.24576963  1
  Ta  Ta83  1  0.50148670  0.29099624  0.60918489  1
  Ta  Ta84  1  0.79563578  0.78221685  0.49718593  1
  Ta  Ta85  1  0.78400260  0.19736238  0.00357792  1
  Ta  Ta86  1  0.00279185  0.21105219  0.23537746  1
  Ta  Ta87  1  0.30687782  0.70187393  0.13009029  1
  Ta  Ta88  1  0.49925557  0.11182603  0.12358647  1
  Ta  Ta89  1  0.30115808  0.11550079  0.37622409  1
  Ta  Ta90  1  0.19625117  0.00642519  0.74735562  1
  Ta  Ta91  1  0.59940516  0.18895090  0.26263109  1
  Ta  Ta92  1  0.20970774  0.20289685  0.23800359  1
  Ta  Ta93  1  0.28213312  0.68886819  0.62432522  1
  Ta  Ta94  1  0.39421248  0.60156721  0.00897875  1
  Ta  Ta95  1  0.08247150  0.71281340  0.64437431  1
  Ta  Ta96  1  0.88880407  0.90490860  0.88419645  1
  Ta  Ta97  1  0.10597353  0.09887976  0.12839744  1
  Ta  Ta98  1  0.88973645  0.89985372  0.37615730  1
  Ta  Ta99  1  0.29646386  0.50172030  0.88099401  1
  Ta  Ta100  1  0.28907268  0.90803467  0.11758929  1
  Ta  Ta101  1  0.81622768  0.57540536  0.25170654  1
  Ta  Ta102  1  0.51507694  0.09753324  0.61609257  1
  Ta  Ta103  1  0.69958908  0.90787486  0.61194560  1
  Ta  Ta104  1  0.39782684  0.00230599  0.48847535  1
  Ta  Ta105  1  0.91269645  0.49188220  0.87039089  1
  Ta  Ta106  1  -0.01342703  0.41426235  0.24337697  1
  Ta  Ta107  1  -0.01041659  0.20868307  0.74501904  1
  Ta  Ta108  1  0.39612667  0.81023490  0.24603506  1
  Ta  Ta109  1  0.38356441  0.59005949  0.73939168  1
  Ta  Ta110  1  0.90857075  0.67428344  0.12534980  1
  Ta  Ta111  1  0.89633408  0.10528313  0.12668130  1
  Ta  Ta112  1  0.19894907  0.40622738  -0.00107452  1
  Ta  Ta113  1  0.68392240  0.88977369  0.37828968  1
  Ta  Ta114  1  -0.00214105  0.00714894  0.01037058  1
  Ta  Ta115  1  0.40148362  0.39460743  0.74895639  1
  Ta  Ta116  1  0.41604949  0.21407805  0.75243647  1
  Ta  Ta117  1  0.19829040  0.40284313  0.50942851  1
  Ta  Ta118  1  0.10238763  0.51106153  0.87632102  1
  Ta  Ta119  1  0.50458218  0.09165704  0.38100865  1
  Ti  Ti120  1  0.78629049  -0.00733775  0.48618053  1
  Ti  Ti121  1  0.69571288  0.28488445  0.60245171  1
  Ti  Ti122  1  0.10386371  0.70480601  0.13086071  1
  Ti  Ti123  1  0.20215323  0.80189090  0.00967369  1
  Ti  Ti124  1  0.19786060  0.60630968  0.00848314  1
  Ti  Ti125  1  0.71011926  0.09485767  0.87217132  1
  Ti  Ti126  1  0.81743973  0.38087590  -0.00943337  1
  Ti  Ti127  1  0.79679623  0.80077005  0.00603283  1
  Ti  Ti128  1  0.10260180  0.90725270  0.12578409  1
  Ti  Ti129  1  0.61666217  -0.00327568  0.74635891  1
  Ti  Ti130  1  0.10049812  0.69583436  0.36440419  1
  Ti  Ti131  1  0.21584658  0.41214376  0.75478206  1
  Ti  Ti132  1  -0.00306139  0.00913014  0.24296600  1
  Ti  Ti133  1  0.09853908  0.10623924  0.63591172  1
  Ti  Ti134  1  0.80410835  0.39280848  0.25519755  1
  Ti  Ti135  1  0.30188160  0.49856109  0.61484391  1
  Ti  Ti136  1  0.09654937  0.31230380  0.12603445  1
  Ti  Ti137  1  0.90153822  0.51040091  0.62255972  1
  Ti  Ti138  1  0.87752519  0.09615226  0.63139683  1
  Ti  Ti139  1  0.59136353  0.79053582  0.50438744  1
  Ti  Ti140  1  0.89391218  0.51326179  0.38958239  1
  Ti  Ti141  1  0.61369414  0.60811903  0.51797833  1
  Ti  Ti142  1  0.59212399  -0.00666667  0.25965925  1
  Ti  Ti143  1  0.79625592  -0.00182565  0.26559956  1
  Ti  Ti144  1  0.20534818  0.00561618  0.24995235  1
  Ti  Ti145  1  0.48740344  0.89195393  0.38359611  1
  Ti  Ti146  1  0.50140742  0.69965696  0.14742348  1
  Ti  Ti147  1  0.40065607  0.40618548  -0.00348849  1
  Ti  Ti148  1  0.70697294  0.28502695  0.13141426  1
  Ti  Ti149  1  0.70971437  0.49342324  0.39774224  1
  Ti  Ti150  1  0.10266208  0.11290400  0.35893755  1
  Ti  Ti151  1  0.91286102  0.09575750  0.36502209  1
  Ti  Ti152  1  0.41575820  0.21903375  -0.01117981  1
  Ti  Ti153  1  0.60645518  0.80065301  0.73598549  1
  Ti  Ti154  1  0.30729378  0.30901105  0.62728237  1
  Ti  Ti155  1  0.40066063  0.19756034  0.25037027  1
  Ti  Ti156  1  0.60307930  0.17738578  0.49402524  1
  Ti  Ti157  1  0.38870865  0.38476268  0.49458685  1
  Ti  Ti158  1  0.70721742  0.90236281  0.87557436  1
  Ti  Ti159  1  0.39989137  0.79568237  0.00980320  1
  Mo  Mo160  1  0.30218979  0.10296371  0.12869049  1
  Mo  Mo161  1  0.61014630  0.59039943  0.25007699  1
  Mo  Mo162  1  -0.00952062  0.80779435  0.75129665  1
  Mo  Mo163  1  0.69933006  0.71204491  0.62172394  1
  Mo  Mo164  1  0.20432249  0.59877933  0.75463578  1
  Mo  Mo165  1  0.29322098  0.29791311  0.37215830  1
  Mo  Mo166  1  0.69941752  0.09015626  0.61589998  1
  Mo  Mo167  1  0.39840502  0.80456454  0.49606601  1
  Mo  Mo168  1  0.80669351  0.18394005  0.74517838  1
  Mo  Mo169  1  0.70742683  0.27995594  0.87798764  1
  Mo  Mo170  1  0.80292045  0.40150884  0.50139231  1
  Mo  Mo171  1  0.89812657  0.30071112  0.87295141  1
  Mo  Mo172  1  0.80232353  0.60122007  0.51369184  1
  Mo  Mo173  1  0.89330291  0.48774032  0.12052582  1
  Mo  Mo174  1  0.59460814  0.80617653  0.25621533  1
  Mo  Mo175  1  0.19607909  0.60141601  0.50320146  1
  Mo  Mo176  1  0.89531272  0.70550362  0.63329588  1
  Mo  Mo177  1  0.18923952  0.00097192  0.00766473  1
  Mo  Mo178  1  -0.00663214  0.60390350  0.25199126  1
  Mo  Mo179  1  0.50259011  0.30155383  0.86983043  1
  Mo  Mo180  1  0.49568720  0.70036810  0.62676632  1
  Mo  Mo181  1  0.29258618  0.50445852  0.10712062  1
  Mo  Mo182  1  0.89087597  0.30794560  0.13039753  1
  Mo  Mo183  1  0.40328589  0.19383199  0.50270892  1
  Mo  Mo184  1  0.60195604  0.19349181  0.00225872  1
  Mo  Mo185  1  0.90519881  0.69229779  0.37469161  1
  Mo  Mo186  1  0.59778678  0.39248605  0.49527772  1
  Mo  Mo187  1  0.70012028  0.08732427  0.36528871  1
  Mo  Mo188  1  0.58890212  0.38235437  0.74780028  1
  Mo  Mo189  1  -0.00314836  0.41005891  -0.00493670  1
  Mo  Mo190  1  0.18534090  0.39572581  0.23522819  1
  Mo  Mo191  1  0.30049459  0.90712834  0.37625676  1
  Mo  Mo192  1  0.80561111  -0.00474428  0.00149213  1
  Mo  Mo193  1  0.10962887  0.30332930  0.63191110  1
  Mo  Mo194  1  0.00308576  0.59767016  -0.00589079  1
  Mo  Mo195  1  0.59944507  -0.00777015  0.48790060  1
  Mo  Mo196  1  0.78646871  -0.00460731  0.74779443  1
  Mo  Mo197  1  -0.00485709  0.60121848  0.74628521  1
  Mo  Mo198  1  0.39733929  0.60528379  0.24401122  1
  Mo  Mo199  1  0.30906058  0.31631697  0.88146811  1
