# generated using pymatgen
data_HfZrTaTiMo
_symmetry_space_group_name_H-M   'P 1'
_cell_length_a   15.21525057
_cell_length_b   15.21085658
_cell_length_c   16.84567045
_cell_angle_alpha   90.03426334
_cell_angle_beta   90.03058075
_cell_angle_gamma   89.83895139
_symmetry_Int_Tables_number   1
_chemical_formula_structural   HfZrTaTiMo
_chemical_formula_sum   'Hf40 Zr40 Ta40 Ti40 Mo40'
_cell_volume   3898.69468447
_cell_formula_units_Z   40
loop_
 _symmetry_equiv_pos_site_id
 _symmetry_equiv_pos_as_xyz
  1  'x, y, z'
loop_
 _atom_site_type_symbol
 _atom_site_label
 _atom_site_symmetry_multiplicity
 _atom_site_fract_x
 _atom_site_fract_y
 _atom_site_fract_z
 _atom_site_occupancy
  Hf  Hf0  1  0.31310626  0.28928627  0.85726754  1
  Hf  Hf1  1  0.37781277  0.21451684  0.23654891  1
  Hf  Hf2  1  0.60307367  0.40167678  0.48358161  1
  Hf  Hf3  1  0.12260998  0.28375544  0.11347620  1
  Hf  Hf4  1  0.89817704  0.69567946  0.36599659  1
  Hf  Hf5  1  0.90473131  0.70275962  0.62577686  1
  Hf  Hf6  1  0.38137888  0.60222538  -0.00598460  1
  Hf  Hf7  1  0.90279152  0.09737456  0.88057648  1
  Hf  Hf8  1  0.59328620  0.60021594  -0.01249615  1
  Hf  Hf9  1  0.10080135  0.89015370  0.88890411  1
  Hf  Hf10  1  0.60131929  0.01331307  0.00193397  1
  Hf  Hf11  1  0.09883676  0.48479602  0.38972572  1
  Hf  Hf12  1  0.69508886  0.32723245  0.87396600  1
  Hf  Hf13  1  0.70046154  0.10031553  0.62284262  1
  Hf  Hf14  1  0.00223391  0.38946665  -0.00169585  1
  Hf  Hf15  1  0.70601179  0.91020546  0.88344982  1
  Hf  Hf16  1  0.70916883  0.11991571  0.87458882  1
  Hf  Hf17  1  0.81726900  -0.00316572  0.74781255  1
  Hf  Hf18  1  0.10592388  0.70364237  0.63166316  1
  Hf  Hf19  1  0.92549916  0.70151860  0.89252970  1
  Hf  Hf20  1  0.00796229  0.18325827  0.74643025  1
  Hf  Hf21  1  0.27579333  0.30189532  0.37735485  1
  Hf  Hf22  1  0.41485302  0.40214538  -0.00260807  1
  Hf  Hf23  1  0.39453252  -0.00606597  0.22978011  1
  Hf  Hf24  1  0.59740463  0.19613799  0.49327409  1
  Hf  Hf25  1  0.30592620  0.70933385  0.65062134  1
  Hf  Hf26  1  0.69205366  0.70509115  0.12740203  1
  Hf  Hf27  1  0.91623964  0.50765613  0.12216865  1
  Hf  Hf28  1  0.51686834  0.49206929  0.63061211  1
  Hf  Hf29  1  0.02699293  0.38825052  0.24202418  1
  Hf  Hf30  1  0.48189209  0.70969847  0.86763476  1
  Hf  Hf31  1  0.39190077  -0.00558733  0.74437076  1
  Hf  Hf32  1  0.49204624  0.11639658  0.87851440  1
  Hf  Hf33  1  0.90442572  0.90143712  0.89155976  1
  Hf  Hf34  1  0.21388741  0.39019794  -0.02108477  1
  Hf  Hf35  1  0.61514501  0.60616571  0.50006499  1
  Hf  Hf36  1  0.30653390  0.89396606  0.37451093  1
  Hf  Hf37  1  0.89418582  0.49070312  0.88101285  1
  Hf  Hf38  1  0.61453166  0.58676131  0.76641154  1
  Hf  Hf39  1  0.81399637  0.21463600  0.50516618  1
  Zr  Zr40  1  0.39162124  0.20814711  0.01362929  1
  Zr  Zr41  1  0.79611868  -0.00721314  0.49301678  1
  Zr  Zr42  1  0.29262368  0.08665153  0.87758977  1
  Zr  Zr43  1  -0.01649157  0.00097421  0.24453498  1
  Zr  Zr44  1  0.39387988  0.61004800  0.51799171  1
  Zr  Zr45  1  0.39507518  0.39615208  0.50964923  1
  Zr  Zr46  1  0.20298085  0.79490826  0.50165911  1
  Zr  Zr47  1  0.09122479  0.11797554  0.36303589  1
  Zr  Zr48  1  0.59975612  0.40360393  0.25805241  1
  Zr  Zr49  1  0.49444201  0.51328457  0.37730649  1
  Zr  Zr50  1  0.48834818  0.71830007  0.38167773  1
  Zr  Zr51  1  0.81412668  0.39233433  0.23679304  1
  Zr  Zr52  1  0.69717277  0.71098813  0.36184045  1
  Zr  Zr53  1  0.38996050  0.61615156  0.24384333  1
  Zr  Zr54  1  0.70582218  0.69849983  0.62774010  1
  Zr  Zr55  1  0.21138385  0.79251870  0.23920858  1
  Zr  Zr56  1  0.71824770  0.29760318  0.37090711  1
  Zr  Zr57  1  0.09110444  0.67969109  0.12534359  1
  Zr  Zr58  1  0.39708860  0.80445554  0.01442064  1
  Zr  Zr59  1  0.10065763  0.69041168  0.37562574  1
  Zr  Zr60  1  0.80984946  0.61269470  0.76345361  1
  Zr  Zr61  1  0.49427851  0.88785796  0.61400396  1
  Zr  Zr62  1  0.79803781  0.59670174  0.00512213  1
  Zr  Zr63  1  0.28963822  0.09582837  0.36757447  1
  Zr  Zr64  1  0.09088628  0.49734385  0.63195241  1
  Zr  Zr65  1  0.69493256  0.31992882  0.61948414  1
  Zr  Zr66  1  0.19352697  0.19812536  0.51476510  1
  Zr  Zr67  1  0.19302799  0.57598959  0.25042356  1
  Zr  Zr68  1  0.51425711  0.91153586  0.38199224  1
  Zr  Zr69  1  0.51820776  0.11455177  0.13907694  1
  Zr  Zr70  1  0.90518859  0.49147362  0.37012158  1
  Zr  Zr71  1  0.60559695  0.80257540  0.76289530  1
  Zr  Zr72  1  0.91635265  0.09057196  0.61840462  1
  Zr  Zr73  1  0.49049572  0.10227296  0.36505010  1
  Zr  Zr74  1  0.20447434  0.76943114  0.00356951  1
  Zr  Zr75  1  0.59249427  0.22083028  0.74352694  1
  Zr  Zr76  1  0.38638976  0.41452384  0.25011268  1
  Zr  Zr77  1  0.70698767  0.89547746  0.62829692  1
  Zr  Zr78  1  0.59440471  0.00866020  0.75503858  1
  Zr  Zr79  1  0.89451871  0.29256199  0.86838562  1
  Ta  Ta80  1  0.11269609  0.48873550  0.10858646  1
  Ta  Ta81  1  0.28832672  0.50563526  0.39274319  1
  Ta  Ta82  1  0.69296394  0.49879016  0.12975737  1
  Ta  Ta83  1  0.27729523  0.11212464  0.12169519  1
  Ta  Ta84  1  0.48828094  0.29508863  0.36949352  1
  Ta  Ta85  1  0.69188961  0.09289871  0.35946158  1
  Ta  Ta86  1  0.40177560  0.19404639  0.72962206  1
  Ta  Ta87  1  0.60190147  0.21964466  -0.00038659  1
  Ta  Ta88  1  0.49918056  0.09458013  0.61295921  1
  Ta  Ta89  1  0.69736908  0.90828319  0.12552574  1
  Ta  Ta90  1  0.50221155  0.51132341  0.12522154  1
  Ta  Ta91  1  0.29320288  0.30388479  0.63957825  1
  Ta  Ta92  1  0.80933777  0.18807102  0.24051412  1
  Ta  Ta93  1  -0.00095407  0.80758510  0.75326315  1
  Ta  Ta94  1  0.10015509  0.90344970  0.36812900  1
  Ta  Ta95  1  0.18872380  -0.00326662  0.50027160  1
  Ta  Ta96  1  0.20588201  -0.01425283  0.01246814  1
  Ta  Ta97  1  0.80270962  0.60312083  0.23583360  1
  Ta  Ta98  1  0.80961303  0.79268032  0.49126967  1
  Ta  Ta99  1  0.28489413  0.89999082  0.62926716  1
  Ta  Ta100  1  0.80257022  0.80828030  0.01508961  1
  Ta  Ta101  1  0.09510394  0.09156401  0.89476207  1
  Ta  Ta102  1  0.79055553  0.41346262  0.74177951  1
  Ta  Ta103  1  0.19028240  -0.00275393  0.23210868  1
  Ta  Ta104  1  0.19215901  0.39831167  0.51752263  1
  Ta  Ta105  1  0.80529687  0.01598630  0.01911265  1
  Ta  Ta106  1  0.08894629  0.09403462  0.11433280  1
  Ta  Ta107  1  0.39621518  0.00116266  0.01507696  1
  Ta  Ta108  1  0.88844215  0.10013663  0.37468424  1
  Ta  Ta109  1  0.39324746  0.19915357  0.51134954  1
  Ta  Ta110  1  0.30050624  0.88044174  0.86820282  1
  Ta  Ta111  1  0.09736000  0.50425644  0.87273229  1
  Ta  Ta112  1  0.69527889  0.28648045  0.13219868  1
  Ta  Ta113  1  -0.00075951  0.80136483  0.25064703  1
  Ta  Ta114  1  0.71375750  0.51459008  0.36663804  1
  Ta  Ta115  1  0.19090475  0.39630478  0.75794859  1
  Ta  Ta116  1  0.49005756  0.91102507  0.88417738  1
  Ta  Ta117  1  0.08841984  0.88999399  0.11492225  1
  Ta  Ta118  1  0.38838346  -0.00073962  0.50612756  1
  Ta  Ta119  1  -0.00748460  0.59997267  0.50505639  1
  Ti  Ti120  1  0.60600941  0.40660576  0.00874875  1
  Ti  Ti121  1  0.09720352  0.28699023  0.87142542  1
  Ti  Ti122  1  0.40415447  0.59251708  0.75174771  1
  Ti  Ti123  1  -0.00946923  0.38549822  0.51096417  1
  Ti  Ti124  1  0.90441814  0.89188522  0.62356066  1
  Ti  Ti125  1  0.00618395  0.19959168  0.50870714  1
  Ti  Ti126  1  0.18005484  -0.00360942  0.75123503  1
  Ti  Ti127  1  0.80650518  0.21179264  0.73266955  1
  Ti  Ti128  1  0.50503189  0.70078088  0.63907841  1
  Ti  Ti129  1  0.41251397  0.39079911  0.74308053  1
  Ti  Ti130  1  0.50980681  0.90130367  0.12115513  1
  Ti  Ti131  1  0.40337002  0.80338595  0.23197853  1
  Ti  Ti132  1  0.50358113  0.31508816  0.13506003  1
  Ti  Ti133  1  0.08968142  0.90902842  0.62457560  1
  Ti  Ti134  1  0.29018061  0.09277661  0.62644329  1
  Ti  Ti135  1  0.89563535  0.49998139  0.63031103  1
  Ti  Ti136  1  0.59746175  0.81183976  0.24587688  1
  Ti  Ti137  1  0.79636479  -0.00189574  0.23802216  1
  Ti  Ti138  1  0.71596721  0.71259757  0.88266714  1
  Ti  Ti139  1  0.50695137  0.48051926  0.86693818  1
  Ti  Ti140  1  0.90700814  0.70710857  0.12241617  1
  Ti  Ti141  1  0.80878370  0.81096272  0.23877902  1
  Ti  Ti142  1  0.29722383  0.69428443  0.38528238  1
  Ti  Ti143  1  0.28939282  0.50347792  0.63797202  1
  Ti  Ti144  1  0.00708503  0.59687905  0.75545638  1
  Ti  Ti145  1  0.71303485  0.90334877  0.36464313  1
  Ti  Ti146  1  0.60101076  0.80448178  -0.00453502  1
  Ti  Ti147  1  0.30065547  0.50448460  0.85947577  1
  Ti  Ti148  1  0.29554903  0.49420943  0.11620641  1
  Ti  Ti149  1  0.59701260  0.60616610  0.24993413  1
  Ti  Ti150  1  -0.00054808  0.80913812  0.48967896  1
  Ti  Ti151  1  -0.00101515  -0.00236421  0.48505182  1
  Ti  Ti152  1  0.61185833  0.81172879  0.49796853  1
  Ti  Ti153  1  0.19927370  0.18865130  0.74680290  1
  Ti  Ti154  1  0.80291548  0.42243538  0.50574421  1
  Ti  Ti155  1  -0.01624205  0.19277705  0.00830695  1
  Ti  Ti156  1  0.79700083  0.38528529  0.01835345  1
  Ti  Ti157  1  0.92264522  0.28721644  0.36882893  1
  Ti  Ti158  1  0.09188643  0.29795106  0.63900727  1
  Ti  Ti159  1  0.49999170  0.70014274  0.12121561  1
  Mo  Mo160  1  0.60123755  0.00335274  0.49774698  1
  Mo  Mo161  1  0.90801596  0.31264446  0.63441705  1
  Mo  Mo162  1  -0.00041946  -0.00342868  0.01156035  1
  Mo  Mo163  1  0.19154002  0.81456538  0.74936180  1
  Mo  Mo164  1  0.11214838  0.69461474  0.86173315  1
  Mo  Mo165  1  -0.00963928  0.20231870  0.23780922  1
  Mo  Mo166  1  0.29504695  0.90179231  0.12651309  1
  Mo  Mo167  1  0.40281513  0.80534252  0.75385576  1
  Mo  Mo168  1  0.19269495  0.19009052  -0.01281463  1
  Mo  Mo169  1  0.01071909  -0.01159595  0.75317164  1
  Mo  Mo170  1  0.81507155  0.80508348  0.76005752  1
  Mo  Mo171  1  0.69923167  0.10261008  0.13412417  1
  Mo  Mo172  1  0.90638387  0.29400628  0.12245200  1
  Mo  Mo173  1  0.09048085  0.30440269  0.38589724  1
  Mo  Mo174  1  0.90256650  0.89658376  0.37159773  1
  Mo  Mo175  1  0.89672816  0.10256983  0.12107798  1
  Mo  Mo176  1  0.20938329  0.39007259  0.24776259  1
  Mo  Mo177  1  0.59736997  0.40763548  0.74916989  1
  Mo  Mo178  1  0.49241014  0.29584207  0.61654448  1
  Mo  Mo179  1  0.89719004  0.89425169  0.12203606  1
  Mo  Mo180  1  0.29035757  0.69321815  0.85376941  1
  Mo  Mo181  1  0.01595187  0.59393620  -0.00609832  1
  Mo  Mo182  1  0.80960797  0.60003581  0.49759196  1
  Mo  Mo183  1  0.20195683  0.58201081  -0.01063656  1
  Mo  Mo184  1  0.00136326  0.79314801  0.00732698  1
  Mo  Mo185  1  0.79231461  0.20720703  0.00933201  1
  Mo  Mo186  1  0.19933354  0.59680879  0.75556921  1
  Mo  Mo187  1  -0.00601553  0.39563597  0.75296175  1
  Mo  Mo188  1  0.19954558  0.59138846  0.50987692  1
  Mo  Mo189  1  0.70197794  0.50236979  0.88807616  1
  Mo  Mo190  1  0.30230264  0.68720793  0.12527505  1
  Mo  Mo191  1  -0.00593055  0.59553788  0.24620050  1
  Mo  Mo192  1  0.60800707  -0.00587393  0.24444758  1
  Mo  Mo193  1  0.18233301  0.20316223  0.24612492  1
  Mo  Mo194  1  0.71080892  0.50778985  0.62152264  1
  Mo  Mo195  1  0.30129176  0.30771011  0.11834498  1
  Mo  Mo196  1  0.10723525  0.08716111  0.62314860  1
  Mo  Mo197  1  0.39701315  0.80393365  0.50552729  1
  Mo  Mo198  1  0.60166483  0.20712706  0.25972249  1
  Mo  Mo199  1  0.49963452  0.30299187  0.87446301  1
