# generated using pymatgen
data_HfZrTaTiMo
_symmetry_space_group_name_H-M   'P 1'
_cell_length_a   15.18954937
_cell_length_b   15.17407836
_cell_length_c   16.81250357
_cell_angle_alpha   89.96462836
_cell_angle_beta   90.00436108
_cell_angle_gamma   89.81031884
_symmetry_Int_Tables_number   1
_chemical_formula_structural   HfZrTaTiMo
_chemical_formula_sum   'Hf40 Zr40 Ta40 Ti40 Mo40'
_cell_volume   3875.04845576
_cell_formula_units_Z   40
loop_
 _symmetry_equiv_pos_site_id
 _symmetry_equiv_pos_as_xyz
  1  'x, y, z'
loop_
 _atom_site_type_symbol
 _atom_site_label
 _atom_site_symmetry_multiplicity
 _atom_site_fract_x
 _atom_site_fract_y
 _atom_site_fract_z
 _atom_site_occupancy
  Hf  Hf0  1  0.88203583  0.29871648  0.86847763  1
  Hf  Hf1  1  0.69949596  0.89210727  0.89023758  1
  Hf  Hf2  1  0.19163044  -0.01446476  0.76032853  1
  Hf  Hf3  1  0.30149899  0.71886365  0.62329086  1
  Hf  Hf4  1  -0.01093879  0.79921135  0.50240161  1
  Hf  Hf5  1  0.19954141  0.60814037  0.24729636  1
  Hf  Hf6  1  0.58639285  -0.00854518  0.75450192  1
  Hf  Hf7  1  0.61038610  0.80181627  0.49367113  1
  Hf  Hf8  1  -0.00177050  0.41075555  0.00403031  1
  Hf  Hf9  1  0.67826655  0.10185548  0.12742100  1
  Hf  Hf10  1  0.22218230  0.39103411  0.75263227  1
  Hf  Hf11  1  0.89439483  0.06614486  0.38106471  1
  Hf  Hf12  1  0.60297156  0.60123913  0.50531143  1
  Hf  Hf13  1  -0.00329677  0.19677974  0.00063852  1
  Hf  Hf14  1  0.38479347  0.21704067  0.75060160  1
  Hf  Hf15  1  0.78643005  0.20021504  0.48588336  1
  Hf  Hf16  1  0.59458332  0.41002507  0.26068984  1
  Hf  Hf17  1  0.79957905  0.40658901  0.25630868  1
  Hf  Hf18  1  0.10443324  0.68970504  0.38695693  1
  Hf  Hf19  1  0.60728746  0.40156366  0.50420742  1
  Hf  Hf20  1  0.49186570  0.10253022  0.62405225  1
  Hf  Hf21  1  0.28566589  0.10205104  0.62383745  1
  Hf  Hf22  1  0.08089468  0.08752346  0.62870578  1
  Hf  Hf23  1  0.30903223  0.90345648  0.36075167  1
  Hf  Hf24  1  0.79955586  0.61823384  0.25042661  1
  Hf  Hf25  1  0.70027645  0.51269384  0.12521024  1
  Hf  Hf26  1  0.09445773  0.50610121  0.85711606  1
  Hf  Hf27  1  0.10932166  0.48494577  0.38384889  1
  Hf  Hf28  1  0.29425712  0.10234666  0.88223939  1
  Hf  Hf29  1  0.91377970  0.89484716  0.89099392  1
  Hf  Hf30  1  0.00241536  0.78268164  0.25492581  1
  Hf  Hf31  1  0.09106606  0.29328579  0.87435664  1
  Hf  Hf32  1  0.68282366  0.30426459  0.13299318  1
  Hf  Hf33  1  0.08994940  0.90451052  0.37794704  1
  Hf  Hf34  1  0.40191300  0.41413712  0.50509881  1
  Hf  Hf35  1  0.79489979  0.18991109  0.26297713  1
  Hf  Hf36  1  0.88329849  0.07872874  0.11131109  1
  Hf  Hf37  1  0.56717399  0.20959175  -0.00750956  1
  Hf  Hf38  1  0.90544982  0.49363300  0.85245553  1
  Hf  Hf39  1  0.28664270  0.11820565  0.36030714  1
  Zr  Zr40  1  0.11861086  0.89285292  0.61646086  1
  Zr  Zr41  1  0.20633091  0.39389643  -0.00598458  1
  Zr  Zr42  1  0.28793948  0.10998545  0.13067225  1
  Zr  Zr43  1  0.41426164  0.60851378  0.75302730  1
  Zr  Zr44  1  0.48794730  0.30758671  0.37227766  1
  Zr  Zr45  1  -0.02431920  -0.02089537  0.23740058  1
  Zr  Zr46  1  0.11438648  0.28990289  0.12672248  1
  Zr  Zr47  1  0.30567439  0.51527980  0.37719279  1
  Zr  Zr48  1  0.50165456  0.71530402  0.62357034  1
  Zr  Zr49  1  0.01193780  0.39528638  0.24763220  1
  Zr  Zr50  1  0.90426804  0.50972345  0.38548139  1
  Zr  Zr51  1  0.00507371  0.39153999  0.51476648  1
  Zr  Zr52  1  0.60585487  0.79284075  0.23363135  1
  Zr  Zr53  1  0.61933433  0.61205569  -0.00490270  1
  Zr  Zr54  1  0.20991274  0.60693899  0.75667041  1
  Zr  Zr55  1  0.80520400  -0.00230065  0.75659353  1
  Zr  Zr56  1  0.18486310  0.19334828  0.75740468  1
  Zr  Zr57  1  0.58503288  0.41284575  0.73484817  1
  Zr  Zr58  1  0.48586206  0.09703026  0.36713457  1
  Zr  Zr59  1  0.89824631  0.29225982  0.13426593  1
  Zr  Zr60  1  0.79833311  0.40504808  0.00496001  1
  Zr  Zr61  1  0.71393485  0.91019893  0.11713456  1
  Zr  Zr62  1  0.69065224  0.09890513  0.88349268  1
  Zr  Zr63  1  0.71436705  0.89169622  0.36543926  1
  Zr  Zr64  1  0.71182072  0.49762597  0.86401882  1
  Zr  Zr65  1  0.59162488  0.20806518  0.76156528  1
  Zr  Zr66  1  0.91648462  0.68792497  0.86261292  1
  Zr  Zr67  1  0.00669991  0.18252561  0.49114449  1
  Zr  Zr68  1  0.19662535  0.00882677  0.48901110  1
  Zr  Zr69  1  0.58903915  0.19874435  0.49244059  1
  Zr  Zr70  1  0.10549051  0.88811398  0.11376910  1
  Zr  Zr71  1  0.50356476  0.51248416  0.88641569  1
  Zr  Zr72  1  0.00094632  0.37937007  0.72718588  1
  Zr  Zr73  1  0.40753268  0.60609576  0.24321020  1
  Zr  Zr74  1  0.77925421  0.20660759  -0.00282702  1
  Zr  Zr75  1  0.90345946  0.30179686  0.37719826  1
  Zr  Zr76  1  0.69742548  0.09259719  0.62324917  1
  Zr  Zr77  1  0.30781268  0.51132944  0.10795267  1
  Zr  Zr78  1  0.18527597  0.61025019  -0.01347243  1
  Zr  Zr79  1  0.59843727  0.79877067  0.76040563  1
  Ta  Ta80  1  0.79321456  0.20072297  0.75080713  1
  Ta  Ta81  1  0.31377752  0.90347999  0.89232143  1
  Ta  Ta82  1  -0.01922787  0.17382638  0.75397504  1
  Ta  Ta83  1  0.59369550  -0.00994173  0.49920028  1
  Ta  Ta84  1  0.01727775  0.80604287  0.75024144  1
  Ta  Ta85  1  0.40243441  0.81711078  0.75871150  1
  Ta  Ta86  1  0.40242095  0.80207885  0.23162482  1
  Ta  Ta87  1  0.59777229  0.80424065  0.01394077  1
  Ta  Ta88  1  0.29489413  0.31339408  0.37710716  1
  Ta  Ta89  1  0.31747402  0.49509542  0.88591243  1
  Ta  Ta90  1  0.80416130  0.79546410  0.75516482  1
  Ta  Ta91  1  0.11611187  0.28484849  0.37226323  1
  Ta  Ta92  1  0.89032642  0.08879170  0.61637336  1
  Ta  Ta93  1  0.31363148  0.70797866  0.89280201  1
  Ta  Ta94  1  0.21495369  0.80078266  0.76437966  1
  Ta  Ta95  1  0.50539757  0.51657781  0.37859712  1
  Ta  Ta96  1  0.18240157  0.00687928  0.24950219  1
  Ta  Ta97  1  0.08867079  0.69262282  0.11966904  1
  Ta  Ta98  1  0.40008873  -0.00117248  0.49991132  1
  Ta  Ta99  1  0.81535333  0.80800327  0.23662292  1
  Ta  Ta100  1  -0.00053179  0.59637712  0.25342187  1
  Ta  Ta101  1  0.82292759  0.60109044  0.00094866  1
  Ta  Ta102  1  0.10624846  0.69950789  0.62440685  1
  Ta  Ta103  1  0.39055695  -0.00201519  0.74831607  1
  Ta  Ta104  1  0.89648846  0.09079651  0.88892591  1
  Ta  Ta105  1  0.70897138  0.70454954  0.63207013  1
  Ta  Ta106  1  0.22188666  0.39779281  0.24253008  1
  Ta  Ta107  1  0.20613182  0.59789880  0.50872455  1
  Ta  Ta108  1  0.00025030  0.59668461  0.52016195  1
  Ta  Ta109  1  0.50137667  0.48474023  0.11199260  1
  Ta  Ta110  1  0.80273179  0.60424016  0.51616876  1
  Ta  Ta111  1  0.40927915  0.81404723  0.02108682  1
  Ta  Ta112  1  0.79173783  0.39320743  0.72352117  1
  Ta  Ta113  1  0.32953360  0.30469258  0.12067920  1
  Ta  Ta114  1  0.00913855  0.17823733  0.25574048  1
  Ta  Ta115  1  0.79858035  0.40516765  0.51919623  1
  Ta  Ta116  1  0.11232435  0.49770288  0.62897034  1
  Ta  Ta117  1  0.90706530  0.90103805  0.63365075  1
  Ta  Ta118  1  0.50606206  0.90455828  0.35807879  1
  Ta  Ta119  1  0.31087086  0.50402136  0.62491407  1
  Ti  Ti120  1  0.29770280  0.90546803  0.12785494  1
  Ti  Ti121  1  0.91114131  0.87862479  0.09265463  1
  Ti  Ti122  1  0.58251733  -0.00265753  0.00332813  1
  Ti  Ti123  1  0.60574476  0.39396332  -0.00901404  1
  Ti  Ti124  1  0.40126057  0.00215374  0.23733352  1
  Ti  Ti125  1  0.20109042  0.19712817  -0.00326583  1
  Ti  Ti126  1  0.40204723  0.01115142  0.01589656  1
  Ti  Ti127  1  0.50386931  0.71930278  0.89027629  1
  Ti  Ti128  1  0.29073593  0.71116344  0.11055127  1
  Ti  Ti129  1  0.68536959  0.08408684  0.36834960  1
  Ti  Ti130  1  0.69211343  0.28975798  0.62394123  1
  Ti  Ti131  1  0.61207385  0.60785922  0.74796044  1
  Ti  Ti132  1  0.47582271  0.31662339  0.87269286  1
  Ti  Ti133  1  0.48226996  0.09035330  0.87705646  1
  Ti  Ti134  1  0.91036664  0.51262077  0.13051051  1
  Ti  Ti135  1  0.19914095  -0.00240029  0.00174262  1
  Ti  Ti136  1  0.40134713  0.62009193  0.49817538  1
  Ti  Ti137  1  0.49800255  0.70975199  0.37033862  1
  Ti  Ti138  1  0.08437165  0.07917290  0.88306225  1
  Ti  Ti139  1  0.10776258  0.88276498  0.89472334  1
  Ti  Ti140  1  0.40971727  0.81590348  0.49329779  1
  Ti  Ti141  1  0.90643053  0.70375074  0.63575234  1
  Ti  Ti142  1  0.59271982  0.20260452  0.26196996  1
  Ti  Ti143  1  0.48568947  0.12095000  0.13684008  1
  Ti  Ti144  1  0.10352391  0.50191815  0.12702831  1
  Ti  Ti145  1  0.79658284  0.77935810  -0.00215654  1
  Ti  Ti146  1  0.20630150  0.79883232  0.25222405  1
  Ti  Ti147  1  0.21823264  0.79847703  0.48804447  1
  Ti  Ti148  1  0.11992018  0.28553499  0.61647631  1
  Ti  Ti149  1  0.48318784  0.30924493  0.62510482  1
  Ti  Ti150  1  0.79992346  -0.02950034  0.50478436  1
  Ti  Ti151  1  0.89543124  0.27741883  0.62058850  1
  Ti  Ti152  1  0.50204802  0.68781170  0.11574572  1
  Ti  Ti153  1  0.87985659  0.70829842  0.38653089  1
  Ti  Ti154  1  0.70643819  0.50727168  0.38224908  1
  Ti  Ti155  1  0.70009831  0.89499320  0.62859056  1
  Ti  Ti156  1  0.60376435  0.60525183  0.25313622  1
  Ti  Ti157  1  0.09124781  0.09143200  0.11976653  1
  Ti  Ti158  1  0.80514293  0.59442094  0.73149380  1
  Ti  Ti159  1  0.38090007  0.20563180  0.50388323  1
  Mo  Mo160  1  0.70808463  0.70402758  0.12171582  1
  Mo  Mo161  1  0.39225091  0.22068894  0.25017761  1
  Mo  Mo162  1  0.49227220  0.90667350  0.89041001  1
  Mo  Mo163  1  0.89533758  0.88237783  0.37574019  1
  Mo  Mo164  1  0.50031485  0.91624294  0.13434951  1
  Mo  Mo165  1  0.70030457  0.30658543  0.37458616  1
  Mo  Mo166  1  0.79550037  -0.00668558  -0.00640565  1
  Mo  Mo167  1  0.21170399  0.80321518  -0.00147495  1
  Mo  Mo168  1  0.00895420  0.77390252  -0.00562006  1
  Mo  Mo169  1  0.68748816  0.30650998  0.86310650  1
  Mo  Mo170  1  0.49702913  0.51199949  0.62054238  1
  Mo  Mo171  1  0.20626382  0.39892174  0.50906893  1
  Mo  Mo172  1  0.00001550  -0.00828625  0.75896461  1
  Mo  Mo173  1  0.29931269  0.30322529  0.61583453  1
  Mo  Mo174  1  0.50497730  0.29769506  0.13460276  1
  Mo  Mo175  1  0.78848590  -0.00261277  0.24917825  1
  Mo  Mo176  1  0.39281005  0.20047013  -0.00431809  1
  Mo  Mo177  1  0.30062349  0.30152423  0.88600231  1
  Mo  Mo178  1  0.59347726  0.00545296  0.24644830  1
  Mo  Mo179  1  0.31590711  0.90317371  0.62342024  1
  Mo  Mo180  1  0.40239848  0.41231660  0.24967436  1
  Mo  Mo181  1  0.79906748  0.79232034  0.51543945  1
  Mo  Mo182  1  0.90358355  0.69730443  0.12126673  1
  Mo  Mo183  1  0.71200258  0.69823318  0.86751288  1
  Mo  Mo184  1  0.69797911  0.68834227  0.37667578  1
  Mo  Mo185  1  0.10356281  0.70670985  0.86674490  1
  Mo  Mo186  1  0.90340003  0.49949758  0.62874070  1
  Mo  Mo187  1  0.30889261  0.71392835  0.37753084  1
  Mo  Mo188  1  0.70027200  0.50590285  0.62830900  1
  Mo  Mo189  1  -0.01127079  -0.00985543  0.50291066  1
  Mo  Mo190  1  0.00571381  -0.00583484  0.00228099  1
  Mo  Mo191  1  0.19969520  0.20598480  0.49803982  1
  Mo  Mo192  1  0.00472864  0.60136072  0.72437949  1
  Mo  Mo193  1  0.19565154  0.20801587  0.24343211  1
  Mo  Mo194  1  0.49810424  0.90893999  0.62096422  1
  Mo  Mo195  1  0.39748561  0.41003319  0.74563071  1
  Mo  Mo196  1  -0.00001577  0.59018060  -0.00093187  1
  Mo  Mo197  1  0.09483805  0.09503756  0.36584426  1
  Mo  Mo198  1  0.41690392  0.39388340  -0.00061970  1
  Mo  Mo199  1  0.40603109  0.61140420  0.00392377  1
