# generated using pymatgen
data_HfZrTaTiMo
_symmetry_space_group_name_H-M   'P 1'
_cell_length_a   15.21776643
_cell_length_b   15.20709613
_cell_length_c   16.87219488
_cell_angle_alpha   89.93990863
_cell_angle_beta   90.04080171
_cell_angle_gamma   90.06402713
_symmetry_Int_Tables_number   1
_chemical_formula_structural   HfZrTaTiMo
_chemical_formula_sum   'Hf40 Zr40 Ta40 Ti40 Mo40'
_cell_volume   3904.52464831
_cell_formula_units_Z   40
loop_
 _symmetry_equiv_pos_site_id
 _symmetry_equiv_pos_as_xyz
  1  'x, y, z'
loop_
 _atom_site_type_symbol
 _atom_site_label
 _atom_site_symmetry_multiplicity
 _atom_site_fract_x
 _atom_site_fract_y
 _atom_site_fract_z
 _atom_site_occupancy
  Hf  Hf0  1  0.89324773  0.89834610  0.13517966  1
  Hf  Hf1  1  0.88582574  0.49872241  0.62969481  1
  Hf  Hf2  1  0.88669400  0.48598074  0.37927253  1
  Hf  Hf3  1  0.90638186  0.29056971  0.86723087  1
  Hf  Hf4  1  0.20890748  0.59866668  0.24043701  1
  Hf  Hf5  1  0.30588498  0.29981756  0.38651294  1
  Hf  Hf6  1  0.59433683  0.61106592  0.23557308  1
  Hf  Hf7  1  0.20189364  0.18942853  0.00586256  1
  Hf  Hf8  1  0.09985675  0.28919075  0.12567852  1
  Hf  Hf9  1  0.11178032  0.69103756  0.89391025  1
  Hf  Hf10  1  -0.00699372  0.58495270  0.00196384  1
  Hf  Hf11  1  0.31196793  0.89789475  0.37305929  1
  Hf  Hf12  1  -0.01237753  0.38357076  0.51313495  1
  Hf  Hf13  1  0.70782041  0.70443422  0.61274251  1
  Hf  Hf14  1  0.00645299  0.40422779  0.74373030  1
  Hf  Hf15  1  0.09484545  0.49284352  0.37295553  1
  Hf  Hf16  1  -0.00371297  0.61150045  0.74825157  1
  Hf  Hf17  1  0.00019135  0.18536485  0.24866922  1
  Hf  Hf18  1  0.69567054  0.29879966  0.12356931  1
  Hf  Hf19  1  0.29413483  0.50038363  0.89232346  1
  Hf  Hf20  1  0.88868601  0.08565771  0.87038815  1
  Hf  Hf21  1  0.49740607  0.50759440  0.87406723  1
  Hf  Hf22  1  0.70991644  0.89813306  0.87050920  1
  Hf  Hf23  1  0.38513114  0.61449904  0.51365301  1
  Hf  Hf24  1  0.61499018  0.78988414  0.74922302  1
  Hf  Hf25  1  0.88940215  0.49976209  0.86596874  1
  Hf  Hf26  1  -0.00618740  0.79576604  0.47981787  1
  Hf  Hf27  1  0.49429129  0.51293818  0.37478229  1
  Hf  Hf28  1  0.60811411  0.19375232  0.26119988  1
  Hf  Hf29  1  0.89911406  0.30299082  0.12392893  1
  Hf  Hf30  1  0.69219090  0.10062116  0.86405531  1
  Hf  Hf31  1  0.30674102  0.89301366  0.61877835  1
  Hf  Hf32  1  0.11242380  0.69110373  0.60921679  1
  Hf  Hf33  1  0.69558288  0.70599670  0.37655441  1
  Hf  Hf34  1  0.68423918  0.08664172  0.12286903  1
  Hf  Hf35  1  0.51327312  0.71135870  0.88716177  1
  Hf  Hf36  1  0.10228485  0.10188372  0.61571192  1
  Hf  Hf37  1  -0.02083806  -0.00731381  0.73276453  1
  Hf  Hf38  1  0.60190879  0.40385722  0.74870363  1
  Hf  Hf39  1  0.59054341  -0.00035883  0.50381195  1
  Zr  Zr40  1  0.89088259  0.10269927  0.38871845  1
  Zr  Zr41  1  0.90155310  0.72005147  0.88671589  1
  Zr  Zr42  1  0.38550744  0.40189545  0.74259362  1
  Zr  Zr43  1  0.09480159  0.10462138  0.86315244  1
  Zr  Zr44  1  0.60260748  0.61251908  0.01886973  1
  Zr  Zr45  1  0.08291976  0.89208080  0.87303803  1
  Zr  Zr46  1  0.00134671  0.61970748  0.25934338  1
  Zr  Zr47  1  0.31648637  0.28961713  0.12247949  1
  Zr  Zr48  1  0.18414249  -0.00911579  0.25753365  1
  Zr  Zr49  1  0.30228451  0.28847441  0.61729008  1
  Zr  Zr50  1  0.91456316  0.70658776  0.12343610  1
  Zr  Zr51  1  0.17989937  0.79274632  0.24945196  1
  Zr  Zr52  1  0.08992998  0.09701057  0.39036372  1
  Zr  Zr53  1  0.20474709  0.19018882  0.25505016  1
  Zr  Zr54  1  0.28704490  0.89288764  0.11959714  1
  Zr  Zr55  1  0.40956055  0.40323357  0.25097310  1
  Zr  Zr56  1  0.71085019  0.30707573  0.86505751  1
  Zr  Zr57  1  0.18513046  -0.00484569  0.00144186  1
  Zr  Zr58  1  0.20569166  0.78645874  0.74997658  1
  Zr  Zr59  1  0.20066093  -0.00385345  0.74280359  1
  Zr  Zr60  1  0.72259043  0.30360830  0.37845659  1
  Zr  Zr61  1  0.79522348  0.59611478  0.49357494  1
  Zr  Zr62  1  0.19379702  0.58102191  0.75125605  1
  Zr  Zr63  1  0.59583688  0.20754092  -0.00642234  1
  Zr  Zr64  1  0.78576213  0.00405234  0.26304626  1
  Zr  Zr65  1  0.39226278  0.61746856  0.74377679  1
  Zr  Zr66  1  0.30709209  0.89830882  0.88585042  1
  Zr  Zr67  1  0.41277040  0.81606946  0.75501120  1
  Zr  Zr68  1  0.41394145  0.19220447  0.25909351  1
  Zr  Zr69  1  0.40397014  0.40677381  0.50649250  1
  Zr  Zr70  1  0.88675570  0.90333343  0.60048030  1
  Zr  Zr71  1  0.50290311  0.51060165  0.63167995  1
  Zr  Zr72  1  0.29360361  0.29350495  0.87018360  1
  Zr  Zr73  1  0.31098875  0.69280853  0.36823054  1
  Zr  Zr74  1  0.19933158  0.39172665  0.25630402  1
  Zr  Zr75  1  0.08602245  0.49703257  0.12857988  1
  Zr  Zr76  1  0.79931511  0.60161340  0.25029982  1
  Zr  Zr77  1  0.70485082  0.09583422  0.63254247  1
  Zr  Zr78  1  0.41065976  0.79856991  0.23420560  1
  Zr  Zr79  1  0.30205817  0.49527170  0.10759161  1
  Ta  Ta80  1  0.68457497  0.49664453  0.37074375  1
  Ta  Ta81  1  0.80585533  0.19336106  0.00113305  1
  Ta  Ta82  1  0.18836437  0.40402051  0.49691151  1
  Ta  Ta83  1  0.09918273  0.89427254  0.60436865  1
  Ta  Ta84  1  0.57471993  0.00565274  -0.01168442  1
  Ta  Ta85  1  0.30910154  0.69290646  0.09789260  1
  Ta  Ta86  1  -0.01960655  -0.00731419  0.00183145  1
  Ta  Ta87  1  0.61806294  0.82204994  0.01749841  1
  Ta  Ta88  1  0.81269148  0.21551471  0.51799888  1
  Ta  Ta89  1  0.69697837  0.51529051  0.87261458  1
  Ta  Ta90  1  0.41577312  0.38273953  -0.00282588  1
  Ta  Ta91  1  0.89290057  0.09615014  0.12444321  1
  Ta  Ta92  1  0.90245270  0.70294535  0.61661771  1
  Ta  Ta93  1  0.51675435  0.30563289  0.38777740  1
  Ta  Ta94  1  0.31187469  0.69544551  0.90600582  1
  Ta  Ta95  1  0.31632121  0.08279375  0.12885525  1
  Ta  Ta96  1  0.81863036  0.81004137  0.74522740  1
  Ta  Ta97  1  -0.00381544  0.38536372  -0.00616052  1
  Ta  Ta98  1  0.70718405  0.49702720  0.12554025  1
  Ta  Ta99  1  0.78357326  -0.01178028  0.00421740  1
  Ta  Ta100  1  0.59064905  0.19893842  0.74389077  1
  Ta  Ta101  1  0.50570958  0.71671660  0.62175029  1
  Ta  Ta102  1  0.49740641  0.29456626  0.86587930  1
  Ta  Ta103  1  0.60488921  0.40738709  -0.00573623  1
  Ta  Ta104  1  0.61263417  0.40613482  0.50705383  1
  Ta  Ta105  1  0.50066521  0.93529815  0.13189272  1
  Ta  Ta106  1  0.30406494  0.09902480  0.87000187  1
  Ta  Ta107  1  0.78773465  0.61587743  0.75020241  1
  Ta  Ta108  1  0.40982823  0.18062575  -0.00413603  1
  Ta  Ta109  1  0.00184045  0.59183761  0.49713929  1
  Ta  Ta110  1  0.80300753  0.40671166  0.00071539  1
  Ta  Ta111  1  -0.00024579  0.18749430  0.00323247  1
  Ta  Ta112  1  0.58920192  0.60549757  0.49807251  1
  Ta  Ta113  1  0.42454257  0.81400534  0.01106929  1
  Ta  Ta114  1  0.11100105  0.30449922  0.63307042  1
  Ta  Ta115  1  0.58582316  -0.00805938  0.74910548  1
  Ta  Ta116  1  0.20349449  -0.00650307  0.49649179  1
  Ta  Ta117  1  0.18980674  0.39127351  0.00002528  1
  Ta  Ta118  1  0.61187396  0.81884653  0.24048754  1
  Ta  Ta119  1  0.60989735  0.20271053  0.50182944  1
  Ti  Ti120  1  0.10432911  0.29409314  0.86485777  1
  Ti  Ti121  1  0.60025895  0.39942500  0.24757948  1
  Ti  Ti122  1  0.50265739  0.71557505  0.37409779  1
  Ti  Ti123  1  0.71060043  0.31176851  0.63129369  1
  Ti  Ti124  1  0.50337240  0.08576733  0.37805274  1
  Ti  Ti125  1  -0.00772802  0.39564429  0.25123423  1
  Ti  Ti126  1  0.40372547  0.00715435  0.74569519  1
  Ti  Ti127  1  0.69562938  0.50767188  0.63276315  1
  Ti  Ti128  1  0.29664689  0.50376268  0.37978394  1
  Ti  Ti129  1  0.30469014  0.09494265  0.38128367  1
  Ti  Ti130  1  0.50441975  0.49082204  0.11840127  1
  Ti  Ti131  1  0.81454947  0.80429474  0.27312129  1
  Ti  Ti132  1  0.11310448  0.70730341  0.10290785  1
  Ti  Ti133  1  0.29956978  0.10067343  0.61762223  1
  Ti  Ti134  1  0.41444671  0.19096464  0.49464441  1
  Ti  Ti135  1  0.68801704  0.90953317  0.37804182  1
  Ti  Ti136  1  0.80288031  0.20148728  0.24868042  1
  Ti  Ti137  1  0.09849500  0.48541060  0.88116293  1
  Ti  Ti138  1  0.00565098  0.80048413  0.73633491  1
  Ti  Ti139  1  0.91976389  0.29228320  0.37742515  1
  Ti  Ti140  1  0.26996817  0.50037589  0.61848176  1
  Ti  Ti141  1  0.71717085  0.72076570  0.12801115  1
  Ti  Ti142  1  0.59986617  0.80742630  0.49971899  1
  Ti  Ti143  1  0.80818472  0.19703340  0.73606404  1
  Ti  Ti144  1  0.50791651  0.29559937  0.61925264  1
  Ti  Ti145  1  0.00151586  0.19665154  0.73403595  1
  Ti  Ti146  1  0.41483209  0.80805763  0.50155236  1
  Ti  Ti147  1  0.40590018  0.60207867  0.23023351  1
  Ti  Ti148  1  0.10856972  0.69658241  0.38363203  1
  Ti  Ti149  1  0.08850061  0.07486370  0.12941322  1
  Ti  Ti150  1  0.79766933  0.60038843  0.00913185  1
  Ti  Ti151  1  0.79859382  0.40086483  0.24401014  1
  Ti  Ti152  1  0.21512828  0.79014296  0.49457446  1
  Ti  Ti153  1  0.39743733  0.19305344  0.74488762  1
  Ti  Ti154  1  0.40166779  -0.00247407  0.50186640  1
  Ti  Ti155  1  0.69489269  0.89817750  0.62496686  1
  Ti  Ti156  1  0.19135470  0.20730598  0.49196673  1
  Ti  Ti157  1  0.71020542  0.70289374  0.88716939  1
  Ti  Ti158  1  0.49455802  0.10045721  0.62383461  1
  Ti  Ti159  1  0.78703357  0.00552696  0.49184310  1
  Mo  Mo160  1  0.58512679  0.00382264  0.26190580  1
  Mo  Mo161  1  -0.00414841  0.82086929  0.27991062  1
  Mo  Mo162  1  -0.00709787  -0.01200679  0.25553135  1
  Mo  Mo163  1  0.09359904  0.49765294  0.61496003  1
  Mo  Mo164  1  0.50926028  0.30517008  0.12161446  1
  Mo  Mo165  1  0.78989734  -0.00455822  0.74225173  1
  Mo  Mo166  1  0.89975863  0.69487486  0.37905567  1
  Mo  Mo167  1  0.39690366  0.00457207  -0.00266286  1
  Mo  Mo168  1  0.10401169  0.89883648  0.39696134  1
  Mo  Mo169  1  0.50528444  0.89307267  0.37099995  1
  Mo  Mo170  1  0.09351763  0.30011872  0.37769258  1
  Mo  Mo171  1  0.20521556  0.79769687  0.00015899  1
  Mo  Mo172  1  0.19480894  0.59609310  0.49309294  1
  Mo  Mo173  1  0.50971182  0.90577891  0.87787240  1
  Mo  Mo174  1  0.00709468  0.80933114  0.00501321  1
  Mo  Mo175  1  0.41272974  0.59549921  0.00623403  1
  Mo  Mo176  1  0.80160523  0.80344022  0.00488767  1
  Mo  Mo177  1  0.89762063  0.90212211  0.87374882  1
  Mo  Mo178  1  0.20324101  0.19601830  0.74454539  1
  Mo  Mo179  1  0.79014486  0.39754800  0.50653013  1
  Mo  Mo180  1  0.50719035  0.71563626  0.12106905  1
  Mo  Mo181  1  0.79555562  0.40772083  0.75061625  1
  Mo  Mo182  1  0.07854843  0.88903666  0.12364163  1
  Mo  Mo183  1  0.30385539  0.70369397  0.62383771  1
  Mo  Mo184  1  0.69308248  0.10811230  0.39079711  1
  Mo  Mo185  1  0.49025786  0.10237823  0.85902606  1
  Mo  Mo186  1  0.39706756  0.00352664  0.25695524  1
  Mo  Mo187  1  0.78915060  0.80745428  0.48377010  1
  Mo  Mo188  1  0.60599300  0.60954384  0.75375896  1
  Mo  Mo189  1  0.19674415  0.58805875  0.00213464  1
  Mo  Mo190  1  0.50628193  0.90656124  0.62435084  1
  Mo  Mo191  1  0.89792001  0.29645943  0.64255371  1
  Mo  Mo192  1  0.49530245  0.11275541  0.12675772  1
  Mo  Mo193  1  0.19542518  0.39654831  0.74971172  1
  Mo  Mo194  1  -0.00185572  0.00081227  0.50917633  1
  Mo  Mo195  1  0.89212632  0.90484210  0.38736733  1
  Mo  Mo196  1  0.90029875  0.10322087  0.61221575  1
  Mo  Mo197  1  0.89250591  0.49285107  0.12401845  1
  Mo  Mo198  1  0.69890414  0.90588640  0.13205369  1
  Mo  Mo199  1  0.00354686  0.20439329  0.51417003  1
