# generated using pymatgen
data_HfZrTaTiMo
_symmetry_space_group_name_H-M   'P 1'
_cell_length_a   15.21497334
_cell_length_b   15.21138710
_cell_length_c   16.82723776
_cell_angle_alpha   90.06691468
_cell_angle_beta   89.90688421
_cell_angle_gamma   90.03688278
_symmetry_Int_Tables_number   1
_chemical_formula_structural   HfZrTaTiMo
_chemical_formula_sum   'Hf40 Zr40 Ta40 Ti40 Mo40'
_cell_volume   3894.50159596
_cell_formula_units_Z   40
loop_
 _symmetry_equiv_pos_site_id
 _symmetry_equiv_pos_as_xyz
  1  'x, y, z'
loop_
 _atom_site_type_symbol
 _atom_site_label
 _atom_site_symmetry_multiplicity
 _atom_site_fract_x
 _atom_site_fract_y
 _atom_site_fract_z
 _atom_site_occupancy
  Hf  Hf0  1  0.08179978  0.49723955  0.86989149  1
  Hf  Hf1  1  0.09910677  0.50181592  0.61038188  1
  Hf  Hf2  1  0.60338088  0.19859793  0.50403678  1
  Hf  Hf3  1  0.49394394  0.29886266  0.89025267  1
  Hf  Hf4  1  0.89742878  0.09029876  0.36290683  1
  Hf  Hf5  1  0.08690500  0.09643860  0.12924155  1
  Hf  Hf6  1  0.69998613  0.29158877  0.88758850  1
  Hf  Hf7  1  0.90013388  0.30716509  0.12774529  1
  Hf  Hf8  1  0.48776859  0.09223728  0.87703700  1
  Hf  Hf9  1  0.50260005  0.10418885  0.37327426  1
  Hf  Hf10  1  0.20544971  0.18138634  0.74567208  1
  Hf  Hf11  1  0.41797711  0.41326493  0.50421416  1
  Hf  Hf12  1  0.09948808  0.49940447  0.40623997  1
  Hf  Hf13  1  -0.02824096  0.38683406  0.51179227  1
  Hf  Hf14  1  0.29767658  0.10609675  0.36726171  1
  Hf  Hf15  1  0.40045196  0.61017403  0.23939810  1
  Hf  Hf16  1  0.60943001  0.80731400  0.25269190  1
  Hf  Hf17  1  0.29132458  0.90151132  0.37483712  1
  Hf  Hf18  1  0.69651532  0.09048473  0.12056324  1
  Hf  Hf19  1  0.10960829  0.29386009  0.39145417  1
  Hf  Hf20  1  0.48825435  0.89401627  0.61536699  1
  Hf  Hf21  1  0.20847298  0.59735156  0.74011506  1
  Hf  Hf22  1  0.19953581  0.78873287  0.24760503  1
  Hf  Hf23  1  0.79720887  0.00058672  -0.01360695  1
  Hf  Hf24  1  0.91579339  0.69902712  0.11863955  1
  Hf  Hf25  1  0.79486673  -0.00770633  0.50378495  1
  Hf  Hf26  1  0.88950182  0.11000372  0.12903160  1
  Hf  Hf27  1  0.80523885  0.40187395  -0.00485296  1
  Hf  Hf28  1  0.30975627  0.29577574  0.61092297  1
  Hf  Hf29  1  0.10264126  0.29179039  0.61380740  1
  Hf  Hf30  1  0.80470222  0.80120150  -0.02177750  1
  Hf  Hf31  1  0.30695128  0.30393307  0.38652891  1
  Hf  Hf32  1  0.90597601  0.08814942  0.64272842  1
  Hf  Hf33  1  0.59460999  0.40019818  0.23670762  1
  Hf  Hf34  1  0.29280539  0.49940764  0.11291131  1
  Hf  Hf35  1  0.41273667  0.62277714  0.50559580  1
  Hf  Hf36  1  0.41193317  0.60645113  0.00832630  1
  Hf  Hf37  1  0.39925004  0.00099526  0.23654018  1
  Hf  Hf38  1  -0.00143716  0.42690048  0.25756734  1
  Hf  Hf39  1  0.19526729  0.39238898  0.74500110  1
  Zr  Zr40  1  0.08873952  0.88933590  0.36982566  1
  Zr  Zr41  1  0.59790341  0.59855058  0.75516089  1
  Zr  Zr42  1  0.61099591  0.60950941  0.24222778  1
  Zr  Zr43  1  0.00801301  0.17368539  0.50508210  1
  Zr  Zr44  1  0.69944461  0.87337982  0.64079276  1
  Zr  Zr45  1  0.39975526  0.41553167  0.73907466  1
  Zr  Zr46  1  0.88866978  0.51305553  0.38773768  1
  Zr  Zr47  1  0.70969137  0.50460694  0.11677966  1
  Zr  Zr48  1  0.69168041  0.09850670  0.86661310  1
  Zr  Zr49  1  0.21144670  0.81074492  0.75850178  1
  Zr  Zr50  1  0.60717879  0.78076798  0.49002663  1
  Zr  Zr51  1  0.61026795  0.60815951  -0.00084079  1
  Zr  Zr52  1  0.80987599  0.20210963  0.50552591  1
  Zr  Zr53  1  0.71398283  0.30845076  0.62684058  1
  Zr  Zr54  1  0.31161242  0.90792999  0.88634255  1
  Zr  Zr55  1  0.18574499  -0.01035848  0.00517370  1
  Zr  Zr56  1  0.00568633  0.81131305  -0.02397512  1
  Zr  Zr57  1  0.49336713  0.89261429  0.38199898  1
  Zr  Zr58  1  0.30059800  0.30130847  0.88374500  1
  Zr  Zr59  1  0.00576070  0.21007535  0.25290658  1
  Zr  Zr60  1  0.50029702  0.51201416  0.37080813  1
  Zr  Zr61  1  0.29807585  0.29766336  0.11079944  1
  Zr  Zr62  1  0.19282815  0.59083822  0.25435656  1
  Zr  Zr63  1  -0.01102098  -0.02593818  0.50398279  1
  Zr  Zr64  1  0.38936370  0.01487805  0.50384253  1
  Zr  Zr65  1  0.10163368  0.69444239  0.39434507  1
  Zr  Zr66  1  0.59902848  0.39793593  0.75713336  1
  Zr  Zr67  1  0.69843304  0.08903621  0.64226772  1
  Zr  Zr68  1  0.08997546  0.50467710  0.11268371  1
  Zr  Zr69  1  0.89012867  0.30100328  0.36681128  1
  Zr  Zr70  1  0.18618135  0.19400353  0.00398100  1
  Zr  Zr71  1  0.39130732  0.40437188  0.24989282  1
  Zr  Zr72  1  0.29378949  0.50859015  0.88406594  1
  Zr  Zr73  1  0.80587026  0.58762634  0.75674387  1
  Zr  Zr74  1  0.11007360  0.69234689  0.87484569  1
  Zr  Zr75  1  0.78375161  -0.01248573  0.25027539  1
  Zr  Zr76  1  0.89651484  0.90227907  0.12115018  1
  Zr  Zr77  1  0.29842433  0.89035762  0.11845357  1
  Zr  Zr78  1  0.00593628  0.20339061  0.74932810  1
  Zr  Zr79  1  0.09848273  0.71342859  0.63024805  1
  Ta  Ta80  1  0.80596723  0.78849402  0.25103784  1
  Ta  Ta81  1  0.49915033  0.30178327  0.11113361  1
  Ta  Ta82  1  0.82135334  0.60301296  -0.02226543  1
  Ta  Ta83  1  0.60309271  0.20098228  0.24147303  1
  Ta  Ta84  1  0.51002614  0.30592163  0.61951189  1
  Ta  Ta85  1  0.69996990  0.70246758  0.86796168  1
  Ta  Ta86  1  0.49376707  0.50493724  0.88262312  1
  Ta  Ta87  1  0.40861723  0.20336955  0.23825349  1
  Ta  Ta88  1  0.19269215  0.39365178  0.25485660  1
  Ta  Ta89  1  0.40385844  0.61568280  0.74634781  1
  Ta  Ta90  1  0.40439531  0.20430978  0.74714224  1
  Ta  Ta91  1  0.28437569  0.91298839  0.62512389  1
  Ta  Ta92  1  0.20760563  0.20204326  0.24327720  1
  Ta  Ta93  1  -0.02085563  0.61684309  0.52201418  1
  Ta  Ta94  1  0.60262633  -0.00171681  0.50387187  1
  Ta  Ta95  1  0.81550742  0.59886959  0.24916880  1
  Ta  Ta96  1  0.81969556  0.78890360  0.50765963  1
  Ta  Ta97  1  0.58934067  -0.01551278  0.00502304  1
  Ta  Ta98  1  0.50817170  0.30053498  0.37705090  1
  Ta  Ta99  1  0.49253165  0.10703713  0.62636026  1
  Ta  Ta100  1  0.70461114  0.28908149  0.11337604  1
  Ta  Ta101  1  0.69633071  0.30272925  0.37391320  1
  Ta  Ta102  1  0.31276040  0.70590976  0.38295048  1
  Ta  Ta103  1  0.29614555  0.10299179  0.88115039  1
  Ta  Ta104  1  0.57861665  -0.01157927  0.74641074  1
  Ta  Ta105  1  0.59240926  0.18709270  0.00797946  1
  Ta  Ta106  1  0.19480605  -0.00076547  0.23816092  1
  Ta  Ta107  1  0.90313807  0.30299194  0.87343120  1
  Ta  Ta108  1  0.42087820  0.81071079  -0.00112345  1
  Ta  Ta109  1  0.69772701  0.10269403  0.36944756  1
  Ta  Ta110  1  0.10472779  0.09010162  0.36402711  1
  Ta  Ta111  1  0.79172119  0.40042648  0.24496760  1
  Ta  Ta112  1  0.69128265  0.89977121  0.85629617  1
  Ta  Ta113  1  0.38413395  0.00683188  0.74324355  1
  Ta  Ta114  1  0.10842003  0.69899962  0.10511817  1
  Ta  Ta115  1  0.18487727  0.00278173  0.50206235  1
  Ta  Ta116  1  0.01626241  -0.00325213  0.77014828  1
  Ta  Ta117  1  0.51726540  0.70226917  0.63018014  1
  Ta  Ta118  1  0.90157774  0.88853265  0.65637122  1
  Ta  Ta119  1  0.60633926  0.80282864  -0.00721885  1
  Ti  Ti120  1  0.80213898  0.20471341  0.74976238  1
  Ti  Ti121  1  0.30044714  0.51108933  0.61007351  1
  Ti  Ti122  1  0.29648098  0.70224065  0.11047212  1
  Ti  Ti123  1  -0.01173478  0.40474114  0.73834374  1
  Ti  Ti124  1  0.90302601  0.50840541  0.12071393  1
  Ti  Ti125  1  0.40255666  0.01618996  0.02174887  1
  Ti  Ti126  1  0.40809645  0.79901467  0.24511481  1
  Ti  Ti127  1  0.69876130  0.49581038  0.88199796  1
  Ti  Ti128  1  -0.00311207  0.40014098  -0.00547110  1
  Ti  Ti129  1  0.89621870  0.10601009  0.86608608  1
  Ti  Ti130  1  0.71452618  0.69125014  0.37456398  1
  Ti  Ti131  1  0.60301616  0.58753698  0.50319100  1
  Ti  Ti132  1  0.41684791  0.80806308  0.75935793  1
  Ti  Ti133  1  0.68598162  0.50111000  0.62249533  1
  Ti  Ti134  1  0.88259801  0.49476391  0.62378405  1
  Ti  Ti135  1  0.70408100  0.89746446  0.38233577  1
  Ti  Ti136  1  0.59210534  0.40780347  0.00754684  1
  Ti  Ti137  1  0.20130494  0.80453032  0.50587322  1
  Ti  Ti138  1  -0.00338591  -0.01621739  0.24883696  1
  Ti  Ti139  1  0.31432137  0.70214873  0.88498267  1
  Ti  Ti140  1  0.31209676  0.72002517  0.62203985  1
  Ti  Ti141  1  0.69972102  0.49508581  0.37595601  1
  Ti  Ti142  1  0.19030823  0.40159451  -0.00674395  1
  Ti  Ti143  1  0.09025435  0.88380413  0.12807075  1
  Ti  Ti144  1  0.89504391  0.88396576  0.36948794  1
  Ti  Ti145  1  0.09706073  0.30742629  0.12457183  1
  Ti  Ti146  1  0.09636489  0.29385690  0.87497864  1
  Ti  Ti147  1  0.90976930  0.70308033  0.37568383  1
  Ti  Ti148  1  0.71856343  0.71166770  0.11746306  1
  Ti  Ti149  1  0.21354695  0.18147686  0.50795361  1
  Ti  Ti150  1  0.51140520  0.71415247  0.12404183  1
  Ti  Ti151  1  0.59104894  -0.00122282  0.23940715  1
  Ti  Ti152  1  0.09237675  0.90350285  0.63694377  1
  Ti  Ti153  1  0.28952200  0.50890560  0.39273461  1
  Ti  Ti154  1  -0.00385842  0.00798276  -0.02406481  1
  Ti  Ti155  1  0.78781127  0.60485076  0.51296741  1
  Ti  Ti156  1  0.59355804  0.20041587  0.74751057  1
  Ti  Ti157  1  0.89520704  0.70528813  0.64868420  1
  Ti  Ti158  1  -0.01466325  0.20104998  -0.00714365  1
  Ti  Ti159  1  0.80245992  0.39474894  0.76066628  1
  Mo  Mo160  1  0.78121443  0.41240874  0.50034561  1
  Mo  Mo161  1  0.78535927  0.20625668  0.25061780  1
  Mo  Mo162  1  0.20523051  0.40191655  0.50482681  1
  Mo  Mo163  1  0.91053441  0.69254429  0.85517709  1
  Mo  Mo164  1  0.50714984  0.89712865  0.12613169  1
  Mo  Mo165  1  0.89576407  0.90473275  0.85518611  1
  Mo  Mo166  1  0.50222633  0.90549888  0.87412828  1
  Mo  Mo167  1  0.49952018  0.10409043  0.12551130  1
  Mo  Mo168  1  0.60806467  0.40355923  0.49649127  1
  Mo  Mo169  1  0.39938564  0.19168760  0.00755243  1
  Mo  Mo170  1  -0.00900704  0.79796143  0.51207968  1
  Mo  Mo171  1  0.29488739  0.10072519  0.13459274  1
  Mo  Mo172  1  0.90278843  0.49011817  0.86905195  1
  Mo  Mo173  1  0.69661440  0.88531369  0.11755319  1
  Mo  Mo174  1  0.20141603  0.00269821  0.75675331  1
  Mo  Mo175  1  0.49806704  0.70587974  0.87331337  1
  Mo  Mo176  1  0.80075169  -0.00013781  0.75939745  1
  Mo  Mo177  1  0.49891190  0.50759197  0.62588524  1
  Mo  Mo178  1  0.41229294  0.20692017  0.50026758  1
  Mo  Mo179  1  0.00083392  0.79785982  0.76668958  1
  Mo  Mo180  1  0.09726246  0.10540849  0.88292197  1
  Mo  Mo181  1  0.21142946  0.79274489  -0.00276732  1
  Mo  Mo182  1  0.10668715  0.90509544  0.87346542  1
  Mo  Mo183  1  0.80383113  0.19756768  -0.00697730  1
  Mo  Mo184  1  0.59010612  0.79295497  0.75416628  1
  Mo  Mo185  1  -0.00163545  0.78840033  0.24640257  1
  Mo  Mo186  1  0.21203258  0.61304622  0.51182615  1
  Mo  Mo187  1  -0.00487064  0.59667330  -0.00806288  1
  Mo  Mo188  1  0.79868249  0.79239495  0.76672398  1
  Mo  Mo189  1  0.40725534  0.40562870  0.00357049  1
  Mo  Mo190  1  0.30281496  0.10103015  0.62391661  1
  Mo  Mo191  1  0.70789075  0.69090067  0.62671710  1
  Mo  Mo192  1  0.89840723  0.30382405  0.63634464  1
  Mo  Mo193  1  0.11215297  0.07722910  0.62734761  1
  Mo  Mo194  1  -0.00046648  0.61630710  0.25219673  1
  Mo  Mo195  1  0.49821421  0.50050527  0.11864147  1
  Mo  Mo196  1  0.39127836  0.80388746  0.50566486  1
  Mo  Mo197  1  0.00003801  0.59133919  0.72936513  1
  Mo  Mo198  1  0.50138841  0.70232948  0.36641915  1
  Mo  Mo199  1  0.20141253  0.60140344  -0.00395143  1
