# generated using pymatgen
data_HfZrTaTiMo
_symmetry_space_group_name_H-M   'P 1'
_cell_length_a   15.20883162
_cell_length_b   15.20555119
_cell_length_c   16.84665147
_cell_angle_alpha   89.93637872
_cell_angle_beta   89.98417662
_cell_angle_gamma   89.97278948
_symmetry_Int_Tables_number   1
_chemical_formula_structural   HfZrTaTiMo
_chemical_formula_sum   'Hf40 Zr40 Ta40 Ti40 Mo40'
_cell_volume   3895.93118680
_cell_formula_units_Z   40
loop_
 _symmetry_equiv_pos_site_id
 _symmetry_equiv_pos_as_xyz
  1  'x, y, z'
loop_
 _atom_site_type_symbol
 _atom_site_label
 _atom_site_symmetry_multiplicity
 _atom_site_fract_x
 _atom_site_fract_y
 _atom_site_fract_z
 _atom_site_occupancy
  Hf  Hf0  1  0.31770035  0.30451170  0.12521680  1
  Hf  Hf1  1  0.11004700  0.49674039  0.86892452  1
  Hf  Hf2  1  0.11580974  0.49105536  0.62587890  1
  Hf  Hf3  1  0.69820705  0.89201927  0.12435809  1
  Hf  Hf4  1  0.19356044  0.80892934  0.50707944  1
  Hf  Hf5  1  0.58453171  0.80019907  0.25904739  1
  Hf  Hf6  1  0.39875017  0.00766468  0.24346803  1
  Hf  Hf7  1  0.60298638  0.19802826  0.25319904  1
  Hf  Hf8  1  0.39254320  0.41762514  0.50648876  1
  Hf  Hf9  1  0.79829597  0.79784753  0.49127080  1
  Hf  Hf10  1  0.39144145  0.81086896  0.49375911  1
  Hf  Hf11  1  0.78987754  0.39909429  -0.01725366  1
  Hf  Hf12  1  0.19298903  0.60821696  0.01203810  1
  Hf  Hf13  1  0.39555440  0.80137142  0.76517824  1
  Hf  Hf14  1  0.42200069  0.20771547  -0.00293570  1
  Hf  Hf15  1  0.58885588  0.38909089  0.51171574  1
  Hf  Hf16  1  0.07486821  0.50113443  0.13318578  1
  Hf  Hf17  1  0.59701636  0.79768827  0.48263454  1
  Hf  Hf18  1  0.42279062  0.01876328  0.75705323  1
  Hf  Hf19  1  0.59077835  0.79899683  0.75798802  1
  Hf  Hf20  1  0.00035979  0.18519673  0.26282429  1
  Hf  Hf21  1  0.48976820  0.70098367  0.62376061  1
  Hf  Hf22  1  0.70276575  0.49253360  0.37630644  1
  Hf  Hf23  1  -0.00692714  0.79432579  -0.00884736  1
  Hf  Hf24  1  0.71055020  0.69471271  0.12989180  1
  Hf  Hf25  1  0.01635289  0.37815753  0.74741055  1
  Hf  Hf26  1  -0.00950615  0.40321309  -0.00823747  1
  Hf  Hf27  1  0.20697063  0.40628630  0.00807404  1
  Hf  Hf28  1  0.19481642  0.00241325  0.00545219  1
  Hf  Hf29  1  0.59766446  0.59560396  0.00215003  1
  Hf  Hf30  1  0.20253704  0.59844785  0.49156379  1
  Hf  Hf31  1  0.29416444  0.71485894  0.35877603  1
  Hf  Hf32  1  0.17897420  0.61153926  0.24559769  1
  Hf  Hf33  1  0.09622478  0.29677998  0.12034817  1
  Hf  Hf34  1  0.29129386  0.90918194  0.86757162  1
  Hf  Hf35  1  0.39448748  0.60768452  -0.00708475  1
  Hf  Hf36  1  0.50390153  0.50675189  0.63981278  1
  Hf  Hf37  1  0.29247044  0.11071389  0.38007597  1
  Hf  Hf38  1  0.90059545  0.50482935  0.85349170  1
  Hf  Hf39  1  0.79306790  0.82092358  0.74791215  1
  Zr  Zr40  1  0.80523201  0.17748952  0.74433186  1
  Zr  Zr41  1  0.80648331  0.00094462  0.25022992  1
  Zr  Zr42  1  0.69778766  0.29123279  0.39450443  1
  Zr  Zr43  1  -0.03384338  0.60434976  0.26092553  1
  Zr  Zr44  1  0.70203352  0.09286674  0.38411400  1
  Zr  Zr45  1  -0.00540968  0.80190306  0.74938174  1
  Zr  Zr46  1  0.80693713  0.59892981  -0.00283121  1
  Zr  Zr47  1  0.11554506  0.28065023  0.38560746  1
  Zr  Zr48  1  0.09790331  0.09883131  0.62552564  1
  Zr  Zr49  1  0.30847962  0.31380474  0.86935814  1
  Zr  Zr50  1  0.89647915  0.69524122  0.62522174  1
  Zr  Zr51  1  0.41278174  0.21027929  0.25306900  1
  Zr  Zr52  1  0.29147780  0.11498372  0.86078354  1
  Zr  Zr53  1  0.80457568  0.21289676  0.25715325  1
  Zr  Zr54  1  0.19763397  0.80240798  0.00403987  1
  Zr  Zr55  1  0.50804191  0.90658360  0.62062159  1
  Zr  Zr56  1  0.89102827  0.31323479  0.12088346  1
  Zr  Zr57  1  -0.01550560  -0.00208164  0.75170774  1
  Zr  Zr58  1  0.59957214  0.38464202  -0.00863857  1
  Zr  Zr59  1  -0.00745435  0.39091744  0.27061401  1
  Zr  Zr60  1  0.59388600  0.59476443  0.25355212  1
  Zr  Zr61  1  0.29324973  0.91978684  0.64089284  1
  Zr  Zr62  1  0.10854005  0.28421700  0.88771062  1
  Zr  Zr63  1  0.59605730  0.00255757  0.00854456  1
  Zr  Zr64  1  0.70381992  0.28060150  0.61148353  1
  Zr  Zr65  1  0.39955425  0.21566618  0.51226910  1
  Zr  Zr66  1  0.90957223  0.49381963  0.63160057  1
  Zr  Zr67  1  0.69300211  0.69563547  0.63166424  1
  Zr  Zr68  1  0.59614908  0.59580581  0.49371449  1
  Zr  Zr69  1  0.18835733  0.80379795  0.74529054  1
  Zr  Zr70  1  0.59655233  0.18446912  0.74185274  1
  Zr  Zr71  1  0.69559382  0.69405377  0.87085050  1
  Zr  Zr72  1  0.82252987  0.78906191  0.26379175  1
  Zr  Zr73  1  0.09191421  0.09201721  0.12388874  1
  Zr  Zr74  1  0.39566692  0.00682838  0.00119544  1
  Zr  Zr75  1  0.20851259  0.19581046  0.24087236  1
  Zr  Zr76  1  0.30166058  0.50830285  0.14080351  1
  Zr  Zr77  1  0.89408116  0.10076024  0.11696389  1
  Zr  Zr78  1  0.20326234  0.00951065  0.50019532  1
  Zr  Zr79  1  0.50747771  0.49664827  0.85982430  1
  Ta  Ta80  1  0.80787704  -0.01034147  0.49157141  1
  Ta  Ta81  1  0.41143581  0.40855955  0.25480732  1
  Ta  Ta82  1  -0.00182327  0.60199975  -0.00032880  1
  Ta  Ta83  1  0.39985691  0.61211920  0.76557231  1
  Ta  Ta84  1  0.70881635  0.49828183  0.63843406  1
  Ta  Ta85  1  0.59892116  0.38922875  0.25207025  1
  Ta  Ta86  1  0.09988863  0.90196351  0.37019105  1
  Ta  Ta87  1  0.70957614  0.89888688  0.89238388  1
  Ta  Ta88  1  0.00161671  -0.00847277  0.49822556  1
  Ta  Ta89  1  0.30667658  0.89899077  0.13035395  1
  Ta  Ta90  1  0.80185423  0.59144006  0.49716014  1
  Ta  Ta91  1  0.40908067  0.41043186  -0.00019475  1
  Ta  Ta92  1  0.81111382  0.39551090  0.50561440  1
  Ta  Ta93  1  -0.00167395  -0.00976745  -0.00711072  1
  Ta  Ta94  1  0.50284211  0.10777952  0.38825547  1
  Ta  Ta95  1  0.91181927  0.88122638  0.12373644  1
  Ta  Ta96  1  0.30433517  0.71161174  0.13652683  1
  Ta  Ta97  1  0.01314238  0.60360404  0.74805024  1
  Ta  Ta98  1  0.39605005  0.60997208  0.48714131  1
  Ta  Ta99  1  0.89366245  0.08893321  0.88516170  1
  Ta  Ta100  1  0.62470130  -0.00777885  0.75236797  1
  Ta  Ta101  1  0.29869373  0.69860194  0.62516607  1
  Ta  Ta102  1  0.40472070  0.80371779  -0.00822532  1
  Ta  Ta103  1  0.70706368  0.48751517  0.13309887  1
  Ta  Ta104  1  0.10057045  0.69314561  0.61890812  1
  Ta  Ta105  1  -0.00296936  0.80359176  0.50442352  1
  Ta  Ta106  1  0.49261867  0.91200152  0.37359986  1
  Ta  Ta107  1  0.10228986  0.69566310  0.87269636  1
  Ta  Ta108  1  0.80271823  0.38246827  0.74513286  1
  Ta  Ta109  1  0.00341266  0.39501983  0.49326567  1
  Ta  Ta110  1  0.49734833  0.71491625  0.12032246  1
  Ta  Ta111  1  0.08703300  0.71015424  0.37759103  1
  Ta  Ta112  1  0.19066244  0.22011243  0.73866789  1
  Ta  Ta113  1  0.31222930  0.31482929  0.37514777  1
  Ta  Ta114  1  0.00291620  0.18856120  0.75581765  1
  Ta  Ta115  1  0.69527731  0.10010681  0.88293589  1
  Ta  Ta116  1  0.59365410  0.00231317  0.24410999  1
  Ta  Ta117  1  0.50507670  0.11166570  0.12507281  1
  Ta  Ta118  1  0.29715838  0.50547175  0.36125283  1
  Ta  Ta119  1  0.50260573  0.49796821  0.12712984  1
  Ti  Ti120  1  0.18600905  0.81150342  0.23691016  1
  Ti  Ti121  1  -0.00411780  0.18931297  -0.00887233  1
  Ti  Ti122  1  0.70345314  0.49403186  0.84553961  1
  Ti  Ti123  1  0.71101445  0.07584865  0.61129540  1
  Ti  Ti124  1  0.29569232  0.90898370  0.36196798  1
  Ti  Ti125  1  0.69105044  0.29465723  0.12327558  1
  Ti  Ti126  1  0.90929092  0.09180422  0.38376314  1
  Ti  Ti127  1  0.70623469  0.69109687  0.36769842  1
  Ti  Ti128  1  0.09836776  0.50096857  0.37376000  1
  Ti  Ti129  1  0.21446837  0.19320954  0.01153804  1
  Ti  Ti130  1  0.91362995  0.28153035  0.61764816  1
  Ti  Ti131  1  0.30186930  0.11518656  0.63899542  1
  Ti  Ti132  1  0.00016155  -0.01984468  0.25388556  1
  Ti  Ti133  1  0.49384123  0.49529457  0.37518785  1
  Ti  Ti134  1  0.89581438  0.70288699  0.86640719  1
  Ti  Ti135  1  0.89267450  0.28809320  0.87089514  1
  Ti  Ti136  1  0.19395308  0.00225327  0.24186225  1
  Ti  Ti137  1  0.19973360  0.39846953  0.25326060  1
  Ti  Ti138  1  0.70033272  0.10416920  0.12046037  1
  Ti  Ti139  1  0.51293508  0.90498753  0.88206174  1
  Ti  Ti140  1  0.30627848  0.51538136  0.63357504  1
  Ti  Ti141  1  0.00607457  0.19057471  0.49477829  1
  Ti  Ti142  1  0.50711669  0.10490907  0.61307760  1
  Ti  Ti143  1  0.39667652  0.39643108  0.74248776  1
  Ti  Ti144  1  0.60498214  0.38476673  0.74174304  1
  Ti  Ti145  1  0.70042560  0.90130099  0.36424220  1
  Ti  Ti146  1  -0.00243605  0.59624566  0.49214029  1
  Ti  Ti147  1  0.09436791  0.91027965  0.87099722  1
  Ti  Ti148  1  0.40759102  0.61501129  0.25588555  1
  Ti  Ti149  1  0.20760461  0.60527338  0.75171626  1
  Ti  Ti150  1  0.89050605  0.91269776  0.62134788  1
  Ti  Ti151  1  0.60326181  -0.00694368  0.49620256  1
  Ti  Ti152  1  0.80577750  -0.00858519  0.00666378  1
  Ti  Ti153  1  0.20135508  0.39775061  0.49358479  1
  Ti  Ti154  1  0.80582853  0.41005130  0.25971307  1
  Ti  Ti155  1  0.28569048  0.31618698  0.62943444  1
  Ti  Ti156  1  0.50956641  0.28414046  0.85996176  1
  Ti  Ti157  1  0.40057441  0.00724443  0.50063607  1
  Ti  Ti158  1  0.78722649  0.20317122  -0.00782790  1
  Ti  Ti159  1  0.30040489  0.50598072  0.86929591  1
  Mo  Mo160  1  0.51045548  0.31121723  0.12382115  1
  Mo  Mo161  1  0.61001546  0.19922918  -0.00306022  1
  Mo  Mo162  1  0.59865273  0.59567480  0.75016200  1
  Mo  Mo163  1  0.59795148  0.18563524  0.50935260  1
  Mo  Mo164  1  0.00918764  0.79601197  0.25212205  1
  Mo  Mo165  1  0.50699866  0.09832200  0.87381782  1
  Mo  Mo166  1  0.09901826  0.29790061  0.61073170  1
  Mo  Mo167  1  0.09950127  0.08498140  0.37297455  1
  Mo  Mo168  1  0.49186789  0.30050168  0.63747509  1
  Mo  Mo169  1  0.79481154  0.00006053  0.75265138  1
  Mo  Mo170  1  0.29199981  0.69700198  0.87648710  1
  Mo  Mo171  1  0.18407121  0.01880996  0.75389158  1
  Mo  Mo172  1  0.80466341  0.59905456  0.75079504  1
  Mo  Mo173  1  0.88422141  0.50246098  0.12388688  1
  Mo  Mo174  1  0.59522407  0.79618870  -0.00023708  1
  Mo  Mo175  1  0.40034023  0.20999307  0.73371814  1
  Mo  Mo176  1  0.49837422  0.70655333  0.88508091  1
  Mo  Mo177  1  0.39485304  0.80787204  0.25086758  1
  Mo  Mo178  1  0.89822779  0.49351186  0.39097309  1
  Mo  Mo179  1  0.09646457  0.89828565  0.12741487  1
  Mo  Mo180  1  0.79991445  0.80211842  0.00220813  1
  Mo  Mo181  1  0.20797691  0.40861123  0.74511757  1
  Mo  Mo182  1  0.79181281  0.59202426  0.25507455  1
  Mo  Mo183  1  0.20266893  0.21026315  0.51219948  1
  Mo  Mo184  1  0.49650469  0.89699217  0.12570427  1
  Mo  Mo185  1  0.89916057  0.29220484  0.39452426  1
  Mo  Mo186  1  0.89009982  0.89817674  0.88449527  1
  Mo  Mo187  1  0.30499824  0.10113873  0.12012990  1
  Mo  Mo188  1  0.08308311  0.71218264  0.12756417  1
  Mo  Mo189  1  0.90510973  0.69291949  0.12123975  1
  Mo  Mo190  1  0.89796552  0.09778407  0.61059000  1
  Mo  Mo191  1  0.81581426  0.18762699  0.50288627  1
  Mo  Mo192  1  0.90073718  0.69545381  0.39343181  1
  Mo  Mo193  1  0.50016753  0.30630120  0.38070320  1
  Mo  Mo194  1  0.70072456  0.90217988  0.61609883  1
  Mo  Mo195  1  0.49069605  0.70159874  0.37691272  1
  Mo  Mo196  1  0.70393879  0.29653890  0.86129692  1
  Mo  Mo197  1  0.91146793  0.89787706  0.37914948  1
  Mo  Mo198  1  0.08732530  0.89545043  0.62159744  1
  Mo  Mo199  1  0.09644638  0.09805254  0.87413997  1
