# generated using pymatgen
data_HfZrTaTiMo
_symmetry_space_group_name_H-M   'P 1'
_cell_length_a   15.22186063
_cell_length_b   15.20697121
_cell_length_c   16.83259649
_cell_angle_alpha   90.00524867
_cell_angle_beta   90.02582134
_cell_angle_gamma   89.89945879
_symmetry_Int_Tables_number   1
_chemical_formula_structural   HfZrTaTiMo
_chemical_formula_sum   'Hf40 Zr40 Ta40 Ti40 Mo40'
_cell_volume   3896.37603452
_cell_formula_units_Z   40
loop_
 _symmetry_equiv_pos_site_id
 _symmetry_equiv_pos_as_xyz
  1  'x, y, z'
loop_
 _atom_site_type_symbol
 _atom_site_label
 _atom_site_symmetry_multiplicity
 _atom_site_fract_x
 _atom_site_fract_y
 _atom_site_fract_z
 _atom_site_occupancy
  Hf  Hf0  1  0.28122915  0.69225283  0.11919042  1
  Hf  Hf1  1  0.41023368  -0.01302783  0.23467089  1
  Hf  Hf2  1  0.89380942  0.71339684  0.86811607  1
  Hf  Hf3  1  0.49785108  0.50162327  0.89408947  1
  Hf  Hf4  1  0.49937909  0.10309794  0.37707342  1
  Hf  Hf5  1  0.70910075  0.50551768  0.88996594  1
  Hf  Hf6  1  -0.00872136  0.40401274  0.75518100  1
  Hf  Hf7  1  0.01182384  0.00958919  0.76044041  1
  Hf  Hf8  1  0.79629363  0.41464677  0.24191334  1
  Hf  Hf9  1  0.08787153  0.69003089  0.36150683  1
  Hf  Hf10  1  0.20810699  0.79384209  0.25968353  1
  Hf  Hf11  1  0.69909955  0.52481011  0.37150213  1
  Hf  Hf12  1  0.09858189  0.09078173  0.36245356  1
  Hf  Hf13  1  0.19869748  0.39927538  0.48845297  1
  Hf  Hf14  1  0.71131850  0.90794346  0.12475792  1
  Hf  Hf15  1  0.38925503  0.61734479  0.75727836  1
  Hf  Hf16  1  0.68664242  0.10659995  0.12479901  1
  Hf  Hf17  1  0.67724017  0.31551192  0.36741205  1
  Hf  Hf18  1  0.89061458  0.07714201  0.12269625  1
  Hf  Hf19  1  0.48410203  0.71554539  0.88549557  1
  Hf  Hf20  1  0.79957899  0.20974961  0.23255877  1
  Hf  Hf21  1  0.30560695  0.87857844  0.87918738  1
  Hf  Hf22  1  0.80093809  0.60420555  0.75343935  1
  Hf  Hf23  1  0.80891130  0.81059506  0.25246784  1
  Hf  Hf24  1  0.19757949  0.18409002  0.74852578  1
  Hf  Hf25  1  0.31088576  0.89863390  0.38111316  1
  Hf  Hf26  1  0.88708799  0.29430648  0.37691467  1
  Hf  Hf27  1  0.80674845  -0.00398204  -0.02113121  1
  Hf  Hf28  1  0.49049101  0.29786129  0.09424866  1
  Hf  Hf29  1  0.50731195  0.69668246  0.37578248  1
  Hf  Hf30  1  0.40535395  0.17429768  0.75087047  1
  Hf  Hf31  1  0.20093717  0.19460050  0.50505997  1
  Hf  Hf32  1  -0.00760792  0.18968522  0.49312455  1
  Hf  Hf33  1  0.38542487  0.59896389  0.25794784  1
  Hf  Hf34  1  0.19925456  0.78635717  0.49121551  1
  Hf  Hf35  1  0.79501464  0.41287250  0.49310785  1
  Hf  Hf36  1  0.09999248  0.28883993  0.88008325  1
  Hf  Hf37  1  0.59509048  0.59890952  0.75215047  1
  Hf  Hf38  1  0.09222795  0.28782703  0.62963385  1
  Hf  Hf39  1  0.90667916  0.10639181  0.63829988  1
  Zr  Zr40  1  0.00179173  0.40876795  0.25213898  1
  Zr  Zr41  1  0.31191561  0.89010828  0.61733448  1
  Zr  Zr42  1  -0.01044488  -0.02134527  0.24898393  1
  Zr  Zr43  1  0.11024648  0.29260484  0.35969985  1
  Zr  Zr44  1  0.58723101  0.80291026  0.73598465  1
  Zr  Zr45  1  0.40377926  0.39930669  0.76191385  1
  Zr  Zr46  1  -0.00549826  0.60289846  -0.00726806  1
  Zr  Zr47  1  0.29777296  0.09756988  0.36853564  1
  Zr  Zr48  1  -0.00209264  0.79684854  0.51504705  1
  Zr  Zr49  1  0.68793750  0.31598168  0.11081273  1
  Zr  Zr50  1  0.49844859  0.50247231  0.10304698  1
  Zr  Zr51  1  0.30228367  0.50078708  0.62414458  1
  Zr  Zr52  1  0.79882036  0.02561997  0.50682755  1
  Zr  Zr53  1  0.20685280  0.39565433  0.76214047  1
  Zr  Zr54  1  0.59574813  0.01618650  0.75338534  1
  Zr  Zr55  1  0.22274279  -0.00771187  0.75567751  1
  Zr  Zr56  1  0.90234632  0.31447569  0.88630078  1
  Zr  Zr57  1  0.07070041  0.69692301  0.14237729  1
  Zr  Zr58  1  0.69785549  0.52042086  0.11604165  1
  Zr  Zr59  1  0.59514680  0.00362672  -0.00328485  1
  Zr  Zr60  1  0.29677305  0.48356565  0.11646408  1
  Zr  Zr61  1  0.10676532  0.89012381  0.11994325  1
  Zr  Zr62  1  0.21620546  0.18303623  0.01269051  1
  Zr  Zr63  1  -0.00097887  0.79892331  0.74191829  1
  Zr  Zr64  1  -0.00311626  0.19572874  0.23455895  1
  Zr  Zr65  1  0.12365002  0.31233213  0.13585809  1
  Zr  Zr66  1  0.10657712  0.90206504  0.62993833  1
  Zr  Zr67  1  0.70228159  0.11008493  0.36213629  1
  Zr  Zr68  1  0.10510291  0.49660097  0.62733885  1
  Zr  Zr69  1  0.41810387  0.38995943  0.24879578  1
  Zr  Zr70  1  0.50287203  0.30069948  0.63210097  1
  Zr  Zr71  1  0.00234030  0.59434419  0.49840570  1
  Zr  Zr72  1  0.89276660  0.51510204  0.62009895  1
  Zr  Zr73  1  0.39726468  0.00596621  0.02012218  1
  Zr  Zr74  1  0.00020250  0.20339369  0.02116437  1
  Zr  Zr75  1  0.80548068  0.80808337  0.52013675  1
  Zr  Zr76  1  0.89464004  0.30656109  0.61919688  1
  Zr  Zr77  1  0.59747895  0.80254302  0.24695844  1
  Zr  Zr78  1  0.40111115  0.39904653  0.49539401  1
  Zr  Zr79  1  0.79621500  0.20428914  0.76088636  1
  Ta  Ta80  1  0.79437086  0.80063459  -0.00528290  1
  Ta  Ta81  1  0.80460794  -0.00114238  0.76235773  1
  Ta  Ta82  1  0.31117603  0.27728405  0.88410645  1
  Ta  Ta83  1  0.69879259  0.30606113  0.89230112  1
  Ta  Ta84  1  0.30032907  0.29153815  0.62709271  1
  Ta  Ta85  1  0.09743865  0.89819590  0.37660299  1
  Ta  Ta86  1  0.79907246  0.20134092  0.00337224  1
  Ta  Ta87  1  0.88748331  0.69919733  0.37880809  1
  Ta  Ta88  1  0.59580912  0.40368877  0.50275930  1
  Ta  Ta89  1  0.00722456  -0.00515523  -0.01040771  1
  Ta  Ta90  1  0.91350407  0.10966618  0.87664528  1
  Ta  Ta91  1  0.50672395  0.28891073  0.88863193  1
  Ta  Ta92  1  0.10366345  0.88880068  0.87901341  1
  Ta  Ta93  1  0.40565496  0.78781221  0.49331454  1
  Ta  Ta94  1  0.49796033  0.90784985  0.60605881  1
  Ta  Ta95  1  0.70176625  0.90871467  0.38146879  1
  Ta  Ta96  1  0.69540347  0.92456387  0.62549934  1
  Ta  Ta97  1  0.60640928  0.39911655  0.76253056  1
  Ta  Ta98  1  0.39166236  0.19222173  0.23048753  1
  Ta  Ta99  1  0.79039569  0.40670061  0.75380723  1
  Ta  Ta100  1  0.50972746  0.48868057  0.37193788  1
  Ta  Ta101  1  0.70081560  0.30165759  0.62346803  1
  Ta  Ta102  1  0.61204275  0.19914848  0.50494489  1
  Ta  Ta103  1  0.21434471  0.77781754  0.75002644  1
  Ta  Ta104  1  0.79531201  0.80997357  0.73341304  1
  Ta  Ta105  1  0.57932351  0.21703923  0.24379273  1
  Ta  Ta106  1  0.60585708  0.80034848  0.50954947  1
  Ta  Ta107  1  0.51018299  0.90379956  0.39132464  1
  Ta  Ta108  1  0.69739296  0.89301567  0.86779876  1
  Ta  Ta109  1  0.90833628  0.51848042  0.13055174  1
  Ta  Ta110  1  0.19504765  -0.00130198  0.50093983  1
  Ta  Ta111  1  0.29856063  0.69012842  0.61504564  1
  Ta  Ta112  1  0.69034095  0.49623197  0.62607247  1
  Ta  Ta113  1  0.49218700  0.91087009  0.87337070  1
  Ta  Ta114  1  0.31159410  0.29157628  0.36680384  1
  Ta  Ta115  1  0.81830384  0.41199742  0.01116862  1
  Ta  Ta116  1  0.39353565  0.80612703  0.01979863  1
  Ta  Ta117  1  0.09474285  0.49743841  0.87711918  1
  Ta  Ta118  1  0.40374258  0.19791678  0.50407420  1
  Ta  Ta119  1  0.00072839  -0.00264349  0.50461154  1
  Ti  Ti120  1  0.59849708  0.60019080  0.50552460  1
  Ti  Ti121  1  0.70527934  0.68988858  0.62069272  1
  Ti  Ti122  1  0.59454989  0.81093265  0.00371517  1
  Ti  Ti123  1  0.60102598  0.61960958  -0.00258887  1
  Ti  Ti124  1  0.49948931  0.50534182  0.62681203  1
  Ti  Ti125  1  0.90222408  0.51263469  0.37199204  1
  Ti  Ti126  1  0.00959735  0.41135180  0.01347273  1
  Ti  Ti127  1  0.90776816  0.88047859  0.11765225  1
  Ti  Ti128  1  0.10808864  0.51191568  0.13901643  1
  Ti  Ti129  1  0.00372863  0.39820298  0.48433075  1
  Ti  Ti130  1  0.00342215  0.60140444  0.75699506  1
  Ti  Ti131  1  0.20815870  -0.01981561  0.00397985  1
  Ti  Ti132  1  0.19115738  0.59701155  -0.00331762  1
  Ti  Ti133  1  0.69054696  0.71028066  0.87280033  1
  Ti  Ti134  1  0.60324425  0.20803136  0.75344183  1
  Ti  Ti135  1  0.11105542  0.70102546  0.87522313  1
  Ti  Ti136  1  0.60142153  0.00016158  0.24781408  1
  Ti  Ti137  1  0.19793777  0.59558323  0.76049792  1
  Ti  Ti138  1  0.20973591  0.59199415  0.47485679  1
  Ti  Ti139  1  0.90034414  0.89960980  0.38180982  1
  Ti  Ti140  1  0.10474382  0.08697881  0.12806339  1
  Ti  Ti141  1  0.49452611  0.69861216  0.11795746  1
  Ti  Ti142  1  0.80536916  0.61458090  0.00034309  1
  Ti  Ti143  1  0.69156866  0.11013578  0.88176737  1
  Ti  Ti144  1  0.50996670  0.09123481  0.61111320  1
  Ti  Ti145  1  0.89419637  0.09194371  0.36584581  1
  Ti  Ti146  1  0.39800479  0.59486823  0.48572082  1
  Ti  Ti147  1  0.20881460  -0.00359541  0.24155136  1
  Ti  Ti148  1  0.31038339  0.08805856  0.61617717  1
  Ti  Ti149  1  0.40405087  0.79675096  0.24102159  1
  Ti  Ti150  1  0.11669014  0.09174653  0.88698093  1
  Ti  Ti151  1  0.20271026  0.39452488  -0.00822281  1
  Ti  Ti152  1  0.10664682  0.68655057  0.62826451  1
  Ti  Ti153  1  0.59207936  0.59753950  0.24206035  1
  Ti  Ti154  1  -0.00499445  0.80133984  -0.00966090  1
  Ti  Ti155  1  0.48968654  0.70151494  0.61845683  1
  Ti  Ti156  1  0.69707448  0.71106994  0.12092236  1
  Ti  Ti157  1  0.79832375  0.61791007  0.24358988  1
  Ti  Ti158  1  0.29822497  0.50514886  0.88917816  1
  Ti  Ti159  1  0.70221751  0.71371206  0.38378525  1
  Mo  Mo160  1  0.29218889  0.69277824  0.89109295  1
  Mo  Mo161  1  -0.00858182  0.79834483  0.25987491  1
  Mo  Mo162  1  0.30342341  0.29840337  0.11655397  1
  Mo  Mo163  1  0.60399500  0.00285369  0.49976745  1
  Mo  Mo164  1  0.30592462  0.69630313  0.37560844  1
  Mo  Mo165  1  0.40479273  0.18579059  0.00110142  1
  Mo  Mo166  1  0.49788802  0.28926597  0.37881821  1
  Mo  Mo167  1  0.60443760  0.40654478  -0.01415832  1
  Mo  Mo168  1  0.88019902  0.70663389  0.11971131  1
  Mo  Mo169  1  0.78753534  0.61131043  0.50210570  1
  Mo  Mo170  1  0.00645634  0.19666548  0.76132523  1
  Mo  Mo171  1  0.69602067  0.11467864  0.63105008  1
  Mo  Mo172  1  0.79442460  0.21098355  0.49855026  1
  Mo  Mo173  1  0.31066914  0.08372865  0.87766643  1
  Mo  Mo174  1  0.90035938  0.70064756  0.63910949  1
  Mo  Mo175  1  0.30181090  0.49347686  0.37114313  1
  Mo  Mo176  1  0.41286496  -0.01575944  0.74599166  1
  Mo  Mo177  1  0.38848950  0.60943378  -0.00171410  1
  Mo  Mo178  1  0.90341353  0.50655666  0.87783840  1
  Mo  Mo179  1  0.38688346  0.39315137  -0.01836096  1
  Mo  Mo180  1  0.21737664  0.40601893  0.26118235  1
  Mo  Mo181  1  0.39721117  0.80224402  0.74331689  1
  Mo  Mo182  1  0.90031015  0.30834734  0.11367737  1
  Mo  Mo183  1  0.29834916  0.88736083  0.12878277  1
  Mo  Mo184  1  0.40172750  0.00314394  0.49773805  1
  Mo  Mo185  1  0.18781999  0.79006394  -0.00333890  1
  Mo  Mo186  1  0.89380364  0.91276663  0.63531387  1
  Mo  Mo187  1  0.51160578  0.88955480  0.12699047  1
  Mo  Mo188  1  0.59604343  0.40959893  0.24633796  1
  Mo  Mo189  1  0.48933949  0.10432285  0.87568128  1
  Mo  Mo190  1  0.20766454  0.19423239  0.23598254  1
  Mo  Mo191  1  0.79255703  -0.00063541  0.25711867  1
  Mo  Mo192  1  0.50555603  0.10142049  0.13442423  1
  Mo  Mo193  1  0.10781737  0.09538544  0.61958921  1
  Mo  Mo194  1  0.29247189  0.09191966  0.13494115  1
  Mo  Mo195  1  0.19203071  0.58306745  0.26102338  1
  Mo  Mo196  1  0.60283018  0.19436901  -0.00755023  1
  Mo  Mo197  1  0.09876858  0.49573938  0.36742586  1
  Mo  Mo198  1  0.90135079  0.90311249  0.87262844  1
  Mo  Mo199  1  -0.02231030  0.59945487  0.25581537  1
