# generated using pymatgen
data_HfZrTaTiMo
_symmetry_space_group_name_H-M   'P 1'
_cell_length_a   15.21567546
_cell_length_b   15.20059608
_cell_length_c   16.82964134
_cell_angle_alpha   89.98753880
_cell_angle_beta   90.02900473
_cell_angle_gamma   90.01110763
_symmetry_Int_Tables_number   1
_chemical_formula_structural   HfZrTaTiMo
_chemical_formula_sum   'Hf40 Zr40 Ta40 Ti40 Mo40'
_cell_volume   3892.48225818
_cell_formula_units_Z   40
loop_
 _symmetry_equiv_pos_site_id
 _symmetry_equiv_pos_as_xyz
  1  'x, y, z'
loop_
 _atom_site_type_symbol
 _atom_site_label
 _atom_site_symmetry_multiplicity
 _atom_site_fract_x
 _atom_site_fract_y
 _atom_site_fract_z
 _atom_site_occupancy
  Hf  Hf0  1  0.59269367  0.39981371  0.74895792  1
  Hf  Hf1  1  0.38652668  0.62084457  0.49372763  1
  Hf  Hf2  1  0.50971530  0.11877367  0.61012951  1
  Hf  Hf3  1  0.00386750  -0.01130577  0.74559343  1
  Hf  Hf4  1  0.52215058  0.89924251  0.62845637  1
  Hf  Hf5  1  0.40976289  0.00787961  0.73328158  1
  Hf  Hf6  1  -0.01434126  0.39216913  0.25450561  1
  Hf  Hf7  1  0.28662932  0.49829283  0.61482554  1
  Hf  Hf8  1  0.89889725  0.30288984  0.85973559  1
  Hf  Hf9  1  0.19863145  0.60590036  0.25022902  1
  Hf  Hf10  1  0.79032023  0.19201913  0.50250128  1
  Hf  Hf11  1  0.70636968  0.29953397  0.86703290  1
  Hf  Hf12  1  0.80532993  0.60104093  0.73085210  1
  Hf  Hf13  1  0.50177338  0.49600725  0.39147023  1
  Hf  Hf14  1  0.18882690  0.19789623  0.00067191  1
  Hf  Hf15  1  0.48993811  0.51471529  0.87221664  1
  Hf  Hf16  1  0.69818237  0.91180065  0.87190284  1
  Hf  Hf17  1  0.90098198  0.51812224  0.87840298  1
  Hf  Hf18  1  0.69776727  0.30443706  0.12785481  1
  Hf  Hf19  1  0.19102169  0.57763354  0.75155777  1
  Hf  Hf20  1  0.39891609  0.59606505  0.25432128  1
  Hf  Hf21  1  0.09985681  0.30084918  0.61807321  1
  Hf  Hf22  1  0.89417079  0.09851806  0.86539190  1
  Hf  Hf23  1  0.61107381  0.79666438  0.25540424  1
  Hf  Hf24  1  0.59845300  0.40187506  -0.00287345  1
  Hf  Hf25  1  0.60413283  0.60030644  0.24283269  1
  Hf  Hf26  1  0.08960678  0.50492096  0.11230249  1
  Hf  Hf27  1  0.61078136  0.81130977  0.48466940  1
  Hf  Hf28  1  0.79290881  0.40639120  0.51398299  1
  Hf  Hf29  1  0.30099226  0.30768397  0.12722682  1
  Hf  Hf30  1  0.08126068  0.29384721  0.39177743  1
  Hf  Hf31  1  0.49292220  0.90138799  0.12948921  1
  Hf  Hf32  1  0.61016621  0.18828547  -0.00669007  1
  Hf  Hf33  1  0.39986985  0.79806090  0.26304270  1
  Hf  Hf34  1  0.81669491  -0.00512111  0.25649442  1
  Hf  Hf35  1  0.79788697  0.00615242  0.00167288  1
  Hf  Hf36  1  0.19714085  0.20110963  0.26291694  1
  Hf  Hf37  1  0.29422674  0.10671031  0.86894332  1
  Hf  Hf38  1  0.08791809  0.68842120  0.88967822  1
  Hf  Hf39  1  0.00717979  0.41005129  0.74417666  1
  Zr  Zr40  1  0.67248681  0.29521313  0.61946249  1
  Zr  Zr41  1  0.19602173  0.00546409  0.73137935  1
  Zr  Zr42  1  0.70376700  0.10354300  0.13586235  1
  Zr  Zr43  1  -0.00329480  0.60224683  0.24863915  1
  Zr  Zr44  1  0.29862295  0.09724444  0.13398695  1
  Zr  Zr45  1  0.81362960  0.21388577  0.26774221  1
  Zr  Zr46  1  0.00053346  0.60676578  0.73928053  1
  Zr  Zr47  1  0.60141355  -0.00472950  0.25724658  1
  Zr  Zr48  1  0.48866563  0.30024517  0.87653743  1
  Zr  Zr49  1  0.49816363  0.07406755  0.88055511  1
  Zr  Zr50  1  0.59537817  0.60771685  0.74309579  1
  Zr  Zr51  1  0.39599232  0.19476347  -0.00029576  1
  Zr  Zr52  1  0.22786197  0.78746219  0.49601411  1
  Zr  Zr53  1  0.00621326  -0.00961313  -0.00601812  1
  Zr  Zr54  1  0.89761297  0.49506415  0.38191165  1
  Zr  Zr55  1  0.49176369  0.48975529  0.61268212  1
  Zr  Zr56  1  0.49110368  0.71057227  0.62317104  1
  Zr  Zr57  1  0.19403785  0.80480306  0.25314059  1
  Zr  Zr58  1  0.89603529  0.30464669  0.12453263  1
  Zr  Zr59  1  0.31112132  0.87974311  0.63242211  1
  Zr  Zr60  1  0.29800319  0.10475896  0.38422151  1
  Zr  Zr61  1  0.30483505  0.69251308  0.86290727  1
  Zr  Zr62  1  0.19774966  0.80462810  -0.00146188  1
  Zr  Zr63  1  0.60686937  0.60410436  0.00160249  1
  Zr  Zr64  1  0.30666767  0.90635855  0.86053094  1
  Zr  Zr65  1  0.90387404  0.09194640  0.61495235  1
  Zr  Zr66  1  0.09403824  0.28674074  0.13131986  1
  Zr  Zr67  1  0.59234634  0.40185915  0.24874932  1
  Zr  Zr68  1  0.40726351  0.81306678  -0.01063561  1
  Zr  Zr69  1  0.90417226  0.89094169  0.60467094  1
  Zr  Zr70  1  0.71614764  0.70656013  0.86376381  1
  Zr  Zr71  1  0.80565823  0.60776678  0.51318437  1
  Zr  Zr72  1  0.19129006  0.40626412  0.25993133  1
  Zr  Zr73  1  -0.00505802  0.39394945  -0.00505548  1
  Zr  Zr74  1  0.39309606  0.39276877  0.26231118  1
  Zr  Zr75  1  0.50147746  0.10713851  0.38193065  1
  Zr  Zr76  1  0.09803633  0.90040622  0.39241491  1
  Zr  Zr77  1  0.60563237  0.79762911  -0.00020818  1
  Zr  Zr78  1  0.30052063  0.29340860  0.61181596  1
  Zr  Zr79  1  0.68592798  0.30988053  0.38315219  1
  Ta  Ta80  1  0.49760307  0.29527518  0.12055914  1
  Ta  Ta81  1  0.79555297  0.41047846  -0.00095112  1
  Ta  Ta82  1  0.89748001  0.88293597  0.87085101  1
  Ta  Ta83  1  0.30256176  0.70132196  0.11989240  1
  Ta  Ta84  1  0.09859513  0.70597943  0.11322381  1
  Ta  Ta85  1  0.11010414  0.69659269  0.61529408  1
  Ta  Ta86  1  0.69577607  0.51426001  0.37965294  1
  Ta  Ta87  1  0.39318554  0.40571861  0.00050640  1
  Ta  Ta88  1  0.80364310  -0.00730126  0.74673907  1
  Ta  Ta89  1  0.89771763  0.70250130  0.12470071  1
  Ta  Ta90  1  0.10078064  0.69173561  0.38907657  1
  Ta  Ta91  1  0.21040261  0.00228849  0.51606451  1
  Ta  Ta92  1  0.48972776  0.49720786  0.11913847  1
  Ta  Ta93  1  0.29295442  0.49531401  0.88232008  1
  Ta  Ta94  1  0.49792631  0.10117378  0.12834374  1
  Ta  Ta95  1  0.91001941  0.10269501  0.12610445  1
  Ta  Ta96  1  0.39839736  0.60659702  0.00213673  1
  Ta  Ta97  1  0.40827231  -0.00967878  0.50597471  1
  Ta  Ta98  1  0.79885361  0.60897057  0.24637129  1
  Ta  Ta99  1  0.71142415  0.89242363  0.12664529  1
  Ta  Ta100  1  0.61691774  0.01345489  0.74319590  1
  Ta  Ta101  1  0.78566908  0.18856015  0.73653917  1
  Ta  Ta102  1  0.61745108  0.00767929  0.49225689  1
  Ta  Ta103  1  0.29021164  0.30610898  0.86757000  1
  Ta  Ta104  1  0.10377753  0.29270291  0.86315325  1
  Ta  Ta105  1  0.80804965  0.20674537  -0.00256745  1
  Ta  Ta106  1  -0.00313475  0.19003902  -0.00743646  1
  Ta  Ta107  1  0.61044517  0.60411303  0.50961624  1
  Ta  Ta108  1  0.89990348  0.89110759  0.39360671  1
  Ta  Ta109  1  0.91370739  0.09375419  0.39425621  1
  Ta  Ta110  1  0.39615868  -0.00014421  0.25541026  1
  Ta  Ta111  1  0.70766654  0.09952420  0.37031390  1
  Ta  Ta112  1  0.39470007  0.20694428  0.74144945  1
  Ta  Ta113  1  0.20582081  -0.00167362  0.00054366  1
  Ta  Ta114  1  0.90020661  0.29704297  0.62569580  1
  Ta  Ta115  1  0.09547229  0.08142992  0.12953982  1
  Ta  Ta116  1  0.70257549  0.72461311  0.62859382  1
  Ta  Ta117  1  0.50931402  0.69749521  0.37936910  1
  Ta  Ta118  1  0.59082344  0.19468168  0.75711860  1
  Ta  Ta119  1  0.29005343  0.50483927  0.38811916  1
  Ti  Ti120  1  0.40412575  0.20389184  0.25365456  1
  Ti  Ti121  1  0.80914882  0.79974395  0.25163553  1
  Ti  Ti122  1  0.70575305  0.50084473  0.87068488  1
  Ti  Ti123  1  0.29387513  0.50870711  0.11557417  1
  Ti  Ti124  1  -0.00511008  0.79435092  0.75147367  1
  Ti  Ti125  1  0.48331236  0.29790907  0.40522083  1
  Ti  Ti126  1  -0.00831099  0.79643132  0.00149692  1
  Ti  Ti127  1  0.30151418  0.69079367  0.64862672  1
  Ti  Ti128  1  0.90888394  0.70868462  0.61593424  1
  Ti  Ti129  1  0.19005486  0.40248776  0.49189123  1
  Ti  Ti130  1  0.00776205  -0.00849618  0.25631541  1
  Ti  Ti131  1  0.80392722  0.80203253  0.00594692  1
  Ti  Ti132  1  0.09840827  0.88723664  0.61044490  1
  Ti  Ti133  1  0.70773381  0.50841932  0.12208293  1
  Ti  Ti134  1  0.59130872  -0.00830011  0.00701987  1
  Ti  Ti135  1  -0.00100431  0.79934819  0.25097801  1
  Ti  Ti136  1  0.80770803  0.60970811  0.00716397  1
  Ti  Ti137  1  0.18562005  0.79424310  0.75036913  1
  Ti  Ti138  1  0.19970297  0.39655579  0.00061742  1
  Ti  Ti139  1  0.79610580  0.40542394  0.72993607  1
  Ti  Ti140  1  0.10465537  0.49326876  0.88974208  1
  Ti  Ti141  1  0.19520898  -0.00174379  0.25497019  1
  Ti  Ti142  1  0.00391427  0.19470484  0.74350879  1
  Ti  Ti143  1  0.90851149  0.70079342  0.38351327  1
  Ti  Ti144  1  0.71542601  0.70406992  0.37765594  1
  Ti  Ti145  1  0.10571010  0.10819010  0.61172468  1
  Ti  Ti146  1  0.79292149  0.41642371  0.25326135  1
  Ti  Ti147  1  0.49886695  0.69836579  0.12622604  1
  Ti  Ti148  1  0.29179267  0.90262982  0.12878175  1
  Ti  Ti149  1  0.10131162  0.09868582  0.86713794  1
  Ti  Ti150  1  0.91516286  0.90109601  0.12737560  1
  Ti  Ti151  1  0.71527448  0.90931744  0.62116774  1
  Ti  Ti152  1  0.59278174  0.20487817  0.25327202  1
  Ti  Ti153  1  0.10086436  0.89626898  0.87018871  1
  Ti  Ti154  1  0.00655413  0.58653035  0.51383170  1
  Ti  Ti155  1  0.38606179  0.40736567  0.74868735  1
  Ti  Ti156  1  0.09205470  0.50121054  0.38503330  1
  Ti  Ti157  1  -0.00009213  0.18297483  0.26011044  1
  Ti  Ti158  1  0.30735049  0.90442403  0.37963062  1
  Ti  Ti159  1  0.09851219  0.09455614  0.39464042  1
  Mo  Mo160  1  -0.00767302  0.40201913  0.51055725  1
  Mo  Mo161  1  -0.00501588  0.19937470  0.50573229  1
  Mo  Mo162  1  0.70483155  0.10496012  0.87213135  1
  Mo  Mo163  1  0.19393673  0.59716559  0.49868963  1
  Mo  Mo164  1  0.49964747  0.90603223  0.37526337  1
  Mo  Mo165  1  0.30196721  0.09933893  0.61547041  1
  Mo  Mo166  1  0.50053412  0.70874219  0.86211094  1
  Mo  Mo167  1  0.71085824  0.90054145  0.36873764  1
  Mo  Mo168  1  0.01192018  -0.00499502  0.50325680  1
  Mo  Mo169  1  0.81294507  0.80493183  0.74280601  1
  Mo  Mo170  1  0.69433048  0.50869182  0.62672453  1
  Mo  Mo171  1  0.41537702  0.81067198  0.47917290  1
  Mo  Mo172  1  0.69986369  0.09118017  0.62204531  1
  Mo  Mo173  1  0.90415571  0.49250103  0.62202381  1
  Mo  Mo174  1  0.79638196  -0.00824545  0.48609122  1
  Mo  Mo175  1  0.30024377  0.69877014  0.36902370  1
  Mo  Mo176  1  0.89883787  0.70625235  0.87994309  1
  Mo  Mo177  1  0.41210826  0.79288945  0.75676754  1
  Mo  Mo178  1  0.88513667  0.50629801  0.12408278  1
  Mo  Mo179  1  0.48920306  0.30419921  0.62142176  1
  Mo  Mo180  1  -0.00594991  0.60643183  0.00877372  1
  Mo  Mo181  1  0.61479079  0.81239520  0.74589095  1
  Mo  Mo182  1  0.39342328  0.19497398  0.50600292  1
  Mo  Mo183  1  0.09784390  0.90038883  0.13061054  1
  Mo  Mo184  1  0.19567096  0.19553988  0.49302009  1
  Mo  Mo185  1  0.19990363  0.39227960  0.75332583  1
  Mo  Mo186  1  0.20562365  0.59422108  0.00456749  1
  Mo  Mo187  1  0.10053518  0.49586931  0.61504018  1
  Mo  Mo188  1  0.59606012  0.40888131  0.50122020  1
  Mo  Mo189  1  0.50978347  0.88810437  0.85084958  1
  Mo  Mo190  1  0.59821449  0.20110617  0.49142879  1
  Mo  Mo191  1  0.00553811  0.77991095  0.49796086  1
  Mo  Mo192  1  0.79893808  0.79430642  0.49359271  1
  Mo  Mo193  1  0.39541380  -0.00278796  0.01016610  1
  Mo  Mo194  1  0.38762863  0.40243652  0.49146072  1
  Mo  Mo195  1  0.29532515  0.30347783  0.39405320  1
  Mo  Mo196  1  0.89444445  0.29139996  0.39047852  1
  Mo  Mo197  1  0.19601695  0.20023240  0.74833533  1
  Mo  Mo198  1  0.39424972  0.59247628  0.74913846  1
  Mo  Mo199  1  0.70994286  0.70475514  0.12733073  1
