# generated using pymatgen
data_HfZrTaTiMo
_symmetry_space_group_name_H-M   'P 1'
_cell_length_a   15.20796459
_cell_length_b   15.22645143
_cell_length_c   16.83200820
_cell_angle_alpha   90.01742301
_cell_angle_beta   89.98555408
_cell_angle_gamma   89.92550198
_symmetry_Int_Tables_number   1
_chemical_formula_structural   HfZrTaTiMo
_chemical_formula_sum   'Hf40 Zr40 Ta40 Ti40 Mo40'
_cell_volume   3897.67234029
_cell_formula_units_Z   40
loop_
 _symmetry_equiv_pos_site_id
 _symmetry_equiv_pos_as_xyz
  1  'x, y, z'
loop_
 _atom_site_type_symbol
 _atom_site_label
 _atom_site_symmetry_multiplicity
 _atom_site_fract_x
 _atom_site_fract_y
 _atom_site_fract_z
 _atom_site_occupancy
  Hf  Hf0  1  0.10665379  0.91261094  0.88012944  1
  Hf  Hf1  1  0.91700129  0.30771013  0.86747720  1
  Hf  Hf2  1  0.29568727  0.30158725  0.38110667  1
  Hf  Hf3  1  0.69793024  0.49468393  0.12809681  1
  Hf  Hf4  1  0.68787922  0.30323942  0.65203653  1
  Hf  Hf5  1  0.30624406  0.69959060  0.13961817  1
  Hf  Hf6  1  0.50067584  0.69333198  0.36339930  1
  Hf  Hf7  1  0.70581179  0.09929441  0.86552688  1
  Hf  Hf8  1  0.91539852  0.09647193  0.87973956  1
  Hf  Hf9  1  0.39440738  0.39787419  -0.00137232  1
  Hf  Hf10  1  0.39917545  0.61067406  0.00194574  1
  Hf  Hf11  1  0.19051225  0.59848987  0.00106841  1
  Hf  Hf12  1  0.40546153  0.39777018  0.25408881  1
  Hf  Hf13  1  0.60670928  0.01010271  0.49207708  1
  Hf  Hf14  1  0.71694865  0.89880148  0.62618282  1
  Hf  Hf15  1  0.41004333  0.19693460  -0.01497659  1
  Hf  Hf16  1  0.31026103  0.88246310  0.61637206  1
  Hf  Hf17  1  0.07440210  0.48556918  0.87933028  1
  Hf  Hf18  1  0.68941546  0.49260270  0.87299334  1
  Hf  Hf19  1  0.89604496  0.69176847  0.11776841  1
  Hf  Hf20  1  0.40209133  0.01079132  0.49888024  1
  Hf  Hf21  1  0.90066859  0.29274260  0.64287305  1
  Hf  Hf22  1  0.80529344  0.00768854  0.23339431  1
  Hf  Hf23  1  0.89326075  0.49765795  0.61418517  1
  Hf  Hf24  1  0.90109335  0.49250954  0.12317364  1
  Hf  Hf25  1  0.30164208  0.29382718  0.12621029  1
  Hf  Hf26  1  0.00804865  -0.00210841  0.22767338  1
  Hf  Hf27  1  0.49639907  0.50415677  0.12669555  1
  Hf  Hf28  1  -0.00398244  0.39317205  0.25650977  1
  Hf  Hf29  1  0.50008057  0.90368969  0.88258370  1
  Hf  Hf30  1  0.90069564  0.89919789  0.89362472  1
  Hf  Hf31  1  0.00580269  0.19314546  0.23589796  1
  Hf  Hf32  1  0.78836191  0.60935899  0.48579024  1
  Hf  Hf33  1  0.80400738  0.00142082  0.49418869  1
  Hf  Hf34  1  0.10294653  0.09848438  0.38422431  1
  Hf  Hf35  1  0.60437976  0.21077357  0.50512901  1
  Hf  Hf36  1  0.20861043  0.19541252  0.51400240  1
  Hf  Hf37  1  0.80303961  0.60567855  0.25895800  1
  Hf  Hf38  1  0.79216131  0.60238193  0.75994712  1
  Hf  Hf39  1  0.40790379  0.60488387  0.50000345  1
  Zr  Zr40  1  0.68062018  0.50132959  0.37391023  1
  Zr  Zr41  1  0.20219197  0.61206768  0.50082305  1
  Zr  Zr42  1  0.70792302  0.12373135  0.35925403  1
  Zr  Zr43  1  0.39023913  -0.00239644  0.74596518  1
  Zr  Zr44  1  0.08969160  0.49765050  0.60991874  1
  Zr  Zr45  1  0.49275563  0.51196365  0.86905170  1
  Zr  Zr46  1  -0.01123120  0.59894824  0.75194657  1
  Zr  Zr47  1  0.19362950  0.39887208  0.24686086  1
  Zr  Zr48  1  0.00883890  0.79430173  0.00870707  1
  Zr  Zr49  1  0.20371590  0.00609558  0.24776270  1
  Zr  Zr50  1  0.48512500  0.71203145  0.62460216  1
  Zr  Zr51  1  0.49378870  0.49027446  0.64070760  1
  Zr  Zr52  1  0.78551457  0.38621485  0.49599091  1
  Zr  Zr53  1  0.90345869  0.49515441  0.38194165  1
  Zr  Zr54  1  0.10851334  0.49050404  0.39035028  1
  Zr  Zr55  1  0.60047454  0.00947019  0.24514924  1
  Zr  Zr56  1  0.10435927  0.89553328  0.37586852  1
  Zr  Zr57  1  0.02529913  0.20606626  0.01093781  1
  Zr  Zr58  1  0.80819039  0.80093050  0.48272158  1
  Zr  Zr59  1  0.01900029  0.17670588  0.74478103  1
  Zr  Zr60  1  0.78760277  0.59346974  -0.00222794  1
  Zr  Zr61  1  0.50337126  0.89284178  0.13068885  1
  Zr  Zr62  1  0.60076128  0.80843319  0.75176731  1
  Zr  Zr63  1  0.38881267  0.21263106  0.75319820  1
  Zr  Zr64  1  0.39697335  0.00109978  0.26158293  1
  Zr  Zr65  1  0.18441501  0.60335850  0.74448934  1
  Zr  Zr66  1  0.60427531  0.00313753  0.01097834  1
  Zr  Zr67  1  0.27956147  0.10063362  0.87721620  1
  Zr  Zr68  1  0.51430751  0.31203020  0.85653999  1
  Zr  Zr69  1  0.20116872  0.80276984  0.74486339  1
  Zr  Zr70  1  0.80385720  0.19499582  0.50967799  1
  Zr  Zr71  1  0.90309857  0.70923670  0.62245503  1
  Zr  Zr72  1  0.12682774  0.28272696  0.86620987  1
  Zr  Zr73  1  0.90369099  0.89720306  0.35808976  1
  Zr  Zr74  1  0.88963958  0.29514726  0.12151218  1
  Zr  Zr75  1  0.80666233  0.79551346  0.76396115  1
  Zr  Zr76  1  0.51087891  0.91126172  0.62182029  1
  Zr  Zr77  1  0.31375664  0.09625769  0.11618783  1
  Zr  Zr78  1  0.28684249  0.49313102  0.86971948  1
  Zr  Zr79  1  0.60358051  0.79005518  0.48945944  1
  Ta  Ta80  1  0.10424271  0.69038597  0.13201702  1
  Ta  Ta81  1  0.60225559  0.39978821  0.00030019  1
  Ta  Ta82  1  0.90455590  0.07825911  0.63415640  1
  Ta  Ta83  1  0.61261102  0.21077789  -0.00702229  1
  Ta  Ta84  1  0.41350083  0.20917070  0.50661243  1
  Ta  Ta85  1  0.70252445  0.09779062  0.64757317  1
  Ta  Ta86  1  0.20972470  0.79863193  0.00475660  1
  Ta  Ta87  1  0.18394470  0.00839920  0.72826032  1
  Ta  Ta88  1  0.18731156  0.38622364  0.00905225  1
  Ta  Ta89  1  0.29707610  0.50114644  0.62482001  1
  Ta  Ta90  1  0.79632289  0.38704253  -0.01099136  1
  Ta  Ta91  1  0.38446160  0.61789545  0.74628052  1
  Ta  Ta92  1  0.39803044  0.40178123  0.49339102  1
  Ta  Ta93  1  0.20026635  0.80435583  0.24633962  1
  Ta  Ta94  1  0.09994761  0.30284134  0.61817909  1
  Ta  Ta95  1  0.78557158  0.38328282  0.26185864  1
  Ta  Ta96  1  0.49668932  0.89483019  0.37107172  1
  Ta  Ta97  1  0.00525079  0.00594658  0.02209176  1
  Ta  Ta98  1  0.19938681  0.39038157  0.73921174  1
  Ta  Ta99  1  0.30621609  0.89676556  0.11991374  1
  Ta  Ta100  1  0.59666117  0.60864817  0.74892565  1
  Ta  Ta101  1  0.81285490  -0.00703588  0.75487727  1
  Ta  Ta102  1  0.19853192  -0.00359189  0.51709191  1
  Ta  Ta103  1  0.91096743  0.09997670  0.36987603  1
  Ta  Ta104  1  0.89372164  0.89369961  0.11987051  1
  Ta  Ta105  1  0.49159076  0.70813131  0.87200796  1
  Ta  Ta106  1  0.59954506  0.60205499  0.24550974  1
  Ta  Ta107  1  0.69432225  0.50424524  0.62589630  1
  Ta  Ta108  1  0.90116096  0.69060628  0.89373414  1
  Ta  Ta109  1  0.31038483  0.31160809  0.61796122  1
  Ta  Ta110  1  0.78123439  0.80688644  0.00589708  1
  Ta  Ta111  1  -0.00037966  0.79049334  0.23798205  1
  Ta  Ta112  1  0.29829810  0.70869260  0.87712936  1
  Ta  Ta113  1  0.41014599  0.20145426  0.25626675  1
  Ta  Ta114  1  0.58424238  0.40123579  0.50460369  1
  Ta  Ta115  1  0.30078930  0.70739421  0.36195798  1
  Ta  Ta116  1  0.50869103  0.11496178  0.64006090  1
  Ta  Ta117  1  0.50817332  0.09795009  0.86459463  1
  Ta  Ta118  1  0.68251348  0.70276220  0.88937960  1
  Ta  Ta119  1  0.69404628  0.69369812  0.62257354  1
  Ti  Ti120  1  0.19824302  0.79677390  0.50436073  1
  Ti  Ti121  1  0.09205286  0.49732754  0.11995599  1
  Ti  Ti122  1  0.19929610  0.00685659  0.00906207  1
  Ti  Ti123  1  0.30161957  0.10416134  0.38136877  1
  Ti  Ti124  1  0.40346356  0.80548879  0.00351466  1
  Ti  Ti125  1  0.49612184  0.49588823  0.36908939  1
  Ti  Ti126  1  0.09720969  0.70153636  0.88120420  1
  Ti  Ti127  1  -0.00241494  -0.00698956  0.50089693  1
  Ti  Ti128  1  0.30043263  0.89608241  0.38591389  1
  Ti  Ti129  1  0.69385718  0.30068387  0.12736727  1
  Ti  Ti130  1  0.50356598  0.11590099  0.37271394  1
  Ti  Ti131  1  0.00136163  0.80142454  0.75558487  1
  Ti  Ti132  1  -0.00286668  0.18662527  0.50946781  1
  Ti  Ti133  1  0.71112928  0.29442229  0.85616050  1
  Ti  Ti134  1  0.29250291  0.50238408  0.12782650  1
  Ti  Ti135  1  0.08149454  0.89568391  0.62308133  1
  Ti  Ti136  1  0.50836587  0.29880075  0.12346651  1
  Ti  Ti137  1  -0.00273180  0.61614693  0.49108910  1
  Ti  Ti138  1  0.20222867  0.19973052  0.25056526  1
  Ti  Ti139  1  0.19790442  0.59825603  0.25298013  1
  Ti  Ti140  1  0.30383197  0.90122031  0.88444054  1
  Ti  Ti141  1  0.68294904  0.70826640  0.12231827  1
  Ti  Ti142  1  0.80079288  0.19719953  -0.00391695  1
  Ti  Ti143  1  0.79913574  0.00570884  0.01614731  1
  Ti  Ti144  1  0.81279816  0.41001180  0.75679931  1
  Ti  Ti145  1  0.69624005  0.90470467  0.87959300  1
  Ti  Ti146  1  0.49677921  0.70325356  0.14306680  1
  Ti  Ti147  1  0.00478999  0.79824965  0.49560694  1
  Ti  Ti148  1  0.11223274  0.89299398  0.12166584  1
  Ti  Ti149  1  0.00490610  0.59750515  0.25582924  1
  Ti  Ti150  1  0.50698488  0.11346201  0.12413061  1
  Ti  Ti151  1  0.09356316  0.29035866  0.38586455  1
  Ti  Ti152  1  0.69414821  0.89789219  0.36072545  1
  Ti  Ti153  1  -0.00737970  0.37936669  0.49556824  1
  Ti  Ti154  1  0.70413909  0.12023387  0.12902430  1
  Ti  Ti155  1  0.89187430  0.28127457  0.37232163  1
  Ti  Ti156  1  0.79032493  0.79842585  0.24299516  1
  Ti  Ti157  1  0.09900619  0.70271970  0.36489664  1
  Ti  Ti158  1  0.20727264  0.19029448  0.72127382  1
  Ti  Ti159  1  0.30523744  0.50988669  0.37271991  1
  Mo  Mo160  1  0.00288730  -0.02071456  0.74981160  1
  Mo  Mo161  1  0.59947631  0.59324049  0.50642857  1
  Mo  Mo162  1  -0.00216892  0.40269133  0.00584197  1
  Mo  Mo163  1  0.20462721  0.39789411  0.50398575  1
  Mo  Mo164  1  0.39352584  0.59382041  0.25199019  1
  Mo  Mo165  1  0.09443786  0.09228228  0.60948762  1
  Mo  Mo166  1  0.30157025  0.30610395  0.87423595  1
  Mo  Mo167  1  0.60036412  0.19815545  0.75536201  1
  Mo  Mo168  1  0.21102450  0.20252510  0.00434557  1
  Mo  Mo169  1  0.69875596  0.70595042  0.36090227  1
  Mo  Mo170  1  0.89180541  0.49477581  0.88114175  1
  Mo  Mo171  1  0.39909031  -0.00315579  -0.00299704  1
  Mo  Mo172  1  0.10588511  0.30816143  0.13123177  1
  Mo  Mo173  1  0.59207283  0.78760058  0.00290592  1
  Mo  Mo174  1  0.09458067  0.71151756  0.61702516  1
  Mo  Mo175  1  0.58988057  0.60810856  0.00800893  1
  Mo  Mo176  1  0.29372345  0.69666777  0.62217014  1
  Mo  Mo177  1  0.69095829  0.30379304  0.37359375  1
  Mo  Mo178  1  0.80457749  0.20277250  0.24591140  1
  Mo  Mo179  1  0.39293091  0.80034676  0.76104337  1
  Mo  Mo180  1  0.70315677  0.89540091  0.12731751  1
  Mo  Mo181  1  0.60805462  0.41215138  0.75166174  1
  Mo  Mo182  1  0.00034422  0.59601409  0.00097420  1
  Mo  Mo183  1  0.50369436  0.30329132  0.37671734  1
  Mo  Mo184  1  0.39537191  0.80466845  0.25890635  1
  Mo  Mo185  1  0.00494805  0.39781866  0.74027723  1
  Mo  Mo186  1  0.60523296  0.00216764  0.75417044  1
  Mo  Mo187  1  0.59591094  0.39684448  0.24591772  1
  Mo  Mo188  1  0.10365506  0.08673763  0.87786792  1
  Mo  Mo189  1  0.11509979  0.10453620  0.12453284  1
  Mo  Mo190  1  0.38673759  0.40970578  0.74863827  1
  Mo  Mo191  1  0.90817856  0.89809697  0.62435115  1
  Mo  Mo192  1  0.59697053  0.21959675  0.24377396  1
  Mo  Mo193  1  0.30684396  0.09741189  0.62026256  1
  Mo  Mo194  1  0.49691848  0.30431667  0.63334193  1
  Mo  Mo195  1  0.80956690  0.19229125  0.75105917  1
  Mo  Mo196  1  0.91420870  0.70182251  0.36463018  1
  Mo  Mo197  1  0.39053669  0.80001893  0.48275022  1
  Mo  Mo198  1  0.89723440  0.09950528  0.11155039  1
  Mo  Mo199  1  0.60612933  0.79746461  0.25606867  1
