# generated using pymatgen
data_HfZrTaTiMo
_symmetry_space_group_name_H-M   'P 1'
_cell_length_a   15.22460544
_cell_length_b   15.20516831
_cell_length_c   16.83850921
_cell_angle_alpha   89.99168369
_cell_angle_beta   90.03401380
_cell_angle_gamma   89.94112922
_symmetry_Int_Tables_number   1
_chemical_formula_structural   HfZrTaTiMo
_chemical_formula_sum   'Hf40 Zr40 Ta40 Ti40 Mo40'
_cell_volume   3897.98897355
_cell_formula_units_Z   40
loop_
 _symmetry_equiv_pos_site_id
 _symmetry_equiv_pos_as_xyz
  1  'x, y, z'
loop_
 _atom_site_type_symbol
 _atom_site_label
 _atom_site_symmetry_multiplicity
 _atom_site_fract_x
 _atom_site_fract_y
 _atom_site_fract_z
 _atom_site_occupancy
  Hf  Hf0  1  0.00209508  0.17521920  -0.00412069  1
  Hf  Hf1  1  0.80583072  -0.01339561  0.49550885  1
  Hf  Hf2  1  0.00332063  0.39765146  0.26326658  1
  Hf  Hf3  1  0.30659467  0.69856944  0.38585220  1
  Hf  Hf4  1  0.59716363  0.80793715  0.74440728  1
  Hf  Hf5  1  0.91240403  0.08834573  0.13341092  1
  Hf  Hf6  1  0.31171400  0.49132540  0.13275878  1
  Hf  Hf7  1  0.19831587  0.60652421  0.00525993  1
  Hf  Hf8  1  0.77975838  0.79664243  0.24807284  1
  Hf  Hf9  1  0.29640486  0.89610658  0.38864219  1
  Hf  Hf10  1  0.20455784  0.80918155  0.01495957  1
  Hf  Hf11  1  0.89231396  0.71679470  0.38276032  1
  Hf  Hf12  1  0.19608904  0.39353538  -0.01203595  1
  Hf  Hf13  1  0.19465238  0.19488303  0.26125446  1
  Hf  Hf14  1  0.09476879  0.10729806  0.38870851  1
  Hf  Hf15  1  0.60221803  0.20301660  0.00249428  1
  Hf  Hf16  1  0.31237359  0.50383835  0.61835239  1
  Hf  Hf17  1  0.40571774  0.40218828  0.76049776  1
  Hf  Hf18  1  0.80655782  0.80247027  0.73809955  1
  Hf  Hf19  1  0.09305217  0.29424930  0.12217098  1
  Hf  Hf20  1  -0.00421590  0.38651145  -0.00886550  1
  Hf  Hf21  1  0.19602402  0.39743177  0.75438798  1
  Hf  Hf22  1  0.89844805  0.27067685  0.87053844  1
  Hf  Hf23  1  0.42270576  0.00347763  0.49182211  1
  Hf  Hf24  1  0.49213423  0.69785385  0.60832777  1
  Hf  Hf25  1  0.41302519  0.79945749  0.26192156  1
  Hf  Hf26  1  0.30504208  0.30355663  0.62328887  1
  Hf  Hf27  1  0.10027304  0.50426938  0.12804981  1
  Hf  Hf28  1  0.50857660  0.90254622  0.12686805  1
  Hf  Hf29  1  0.69772052  0.70994187  0.61171043  1
  Hf  Hf30  1  0.90045306  0.27795977  0.37277926  1
  Hf  Hf31  1  0.18883284  0.01335344  -0.00687984  1
  Hf  Hf32  1  0.59185494  0.59639297  0.48731075  1
  Hf  Hf33  1  0.19570703  0.80201454  0.72344310  1
  Hf  Hf34  1  0.50767046  0.30277449  0.62725916  1
  Hf  Hf35  1  0.18945227  0.59235753  0.49126172  1
  Hf  Hf36  1  0.29325734  0.28785481  0.11557823  1
  Hf  Hf37  1  0.29885543  0.71851727  0.87281212  1
  Hf  Hf38  1  0.80207505  0.38489028  0.73976561  1
  Hf  Hf39  1  0.59446175  0.42264536  0.25165232  1
  Zr  Zr40  1  0.48808208  0.31062404  0.13049128  1
  Zr  Zr41  1  0.59912792  0.39377471  0.48837917  1
  Zr  Zr42  1  0.11098736  0.90161683  0.86566161  1
  Zr  Zr43  1  0.31836596  0.10440028  0.62534244  1
  Zr  Zr44  1  0.80138713  0.59538728  0.49626182  1
  Zr  Zr45  1  0.89154023  0.49095275  0.87709057  1
  Zr  Zr46  1  0.30186131  0.50849552  0.87605574  1
  Zr  Zr47  1  0.70031056  0.52146312  0.12399196  1
  Zr  Zr48  1  0.60838099  0.00301692  -0.00662149  1
  Zr  Zr49  1  0.80113734  0.59729871  0.73770680  1
  Zr  Zr50  1  0.69534885  0.30319933  0.87788005  1
  Zr  Zr51  1  0.70106675  0.29777299  0.35927795  1
  Zr  Zr52  1  -0.00515553  0.81243605  0.01389332  1
  Zr  Zr53  1  0.29827434  0.29938887  0.38976924  1
  Zr  Zr54  1  0.40896426  0.79498710  0.00439731  1
  Zr  Zr55  1  0.09106009  0.90259574  0.38592857  1
  Zr  Zr56  1  -0.01553272  0.80579843  0.51731702  1
  Zr  Zr57  1  0.20485549  -0.00163973  0.72805715  1
  Zr  Zr58  1  0.09268264  0.70192668  0.87130255  1
  Zr  Zr59  1  0.80192456  0.38617107  0.50325055  1
  Zr  Zr60  1  0.39536717  0.80560996  0.74085496  1
  Zr  Zr61  1  0.89979146  0.49162135  0.12371429  1
  Zr  Zr62  1  0.88572043  0.68770186  0.12054423  1
  Zr  Zr63  1  0.29024740  0.09943265  0.86024222  1
  Zr  Zr64  1  0.30381043  0.91419060  0.13872856  1
  Zr  Zr65  1  0.18195507  0.20516530  0.51734432  1
  Zr  Zr66  1  0.20122719  0.39833258  0.26034123  1
  Zr  Zr67  1  0.39304270  0.19334618  0.25687909  1
  Zr  Zr68  1  0.70919444  0.10110033  0.36233141  1
  Zr  Zr69  1  0.39861953  -0.00012499  -0.01579057  1
  Zr  Zr70  1  -0.01124079  0.80457822  0.24477050  1
  Zr  Zr71  1  0.89430964  0.69414405  0.88174287  1
  Zr  Zr72  1  0.19839284  0.60372540  0.74202573  1
  Zr  Zr73  1  0.81641086  0.00799888  0.00035997  1
  Zr  Zr74  1  0.90606587  0.90406800  0.86833158  1
  Zr  Zr75  1  0.40834555  0.59201670  0.00843677  1
  Zr  Zr76  1  0.69900147  0.29941463  0.13320242  1
  Zr  Zr77  1  0.60709845  0.62258525  -0.00392002  1
  Zr  Zr78  1  0.68405888  0.48733683  0.62659119  1
  Zr  Zr79  1  0.01148079  0.39400211  0.48966917  1
  Ta  Ta80  1  0.40315718  0.19787998  -0.01625585  1
  Ta  Ta81  1  0.60305053  -0.01209328  0.25842383  1
  Ta  Ta82  1  0.00260923  0.39177882  0.74924649  1
  Ta  Ta83  1  0.59929451  0.19003905  0.49182181  1
  Ta  Ta84  1  0.29927048  0.70131770  0.59932351  1
  Ta  Ta85  1  0.19344744  -0.00204876  0.51942661  1
  Ta  Ta86  1  0.19773773  0.60557401  0.25954047  1
  Ta  Ta87  1  0.51890370  0.10277670  0.63102105  1
  Ta  Ta88  1  0.81105231  -0.01287744  0.24983709  1
  Ta  Ta89  1  0.41657189  -0.00076210  0.75491818  1
  Ta  Ta90  1  0.87157248  0.09577154  0.63976844  1
  Ta  Ta91  1  0.90712024  0.08704596  0.37345368  1
  Ta  Ta92  1  0.29766387  0.09444723  0.39347706  1
  Ta  Ta93  1  0.51449958  0.69898504  0.13477387  1
  Ta  Ta94  1  0.49738599  0.30020142  0.36466618  1
  Ta  Ta95  1  0.91451736  0.49260073  0.62265487  1
  Ta  Ta96  1  -0.00497998  -0.00761782  0.72741204  1
  Ta  Ta97  1  0.40613368  0.60435664  0.74584096  1
  Ta  Ta98  1  0.77879930  0.79564915  0.00360686  1
  Ta  Ta99  1  0.41850806  0.20052068  0.76578651  1
  Ta  Ta100  1  0.19633495  0.80211329  0.24916450  1
  Ta  Ta101  1  0.41523581  0.20308785  0.49455756  1
  Ta  Ta102  1  0.59299554  0.59961524  0.74867929  1
  Ta  Ta103  1  0.69859191  0.50737516  0.87612685  1
  Ta  Ta104  1  0.60165031  0.62388410  0.26857505  1
  Ta  Ta105  1  0.49865897  0.09824537  0.12798086  1
  Ta  Ta106  1  0.08308628  0.10790704  0.85228539  1
  Ta  Ta107  1  0.80326778  0.40406935  0.25464056  1
  Ta  Ta108  1  0.89115145  0.28711571  0.12767861  1
  Ta  Ta109  1  0.58888482  0.41409904  0.00257303  1
  Ta  Ta110  1  0.11510360  0.09969885  0.12976889  1
  Ta  Ta111  1  0.69974484  0.92065937  0.62801993  1
  Ta  Ta112  1  0.09409140  0.91457982  0.13236694  1
  Ta  Ta113  1  -0.00347376  0.01136800  0.52530891  1
  Ta  Ta114  1  0.09175518  0.49921591  0.87218475  1
  Ta  Ta115  1  0.30224906  0.69812367  0.14174042  1
  Ta  Ta116  1  0.50411054  0.89774652  0.87212764  1
  Ta  Ta117  1  0.69621713  0.70538360  0.86676888  1
  Ta  Ta118  1  0.30596112  0.50041033  0.37374406  1
  Ta  Ta119  1  0.79389941  0.59922296  0.26847233  1
  Ti  Ti120  1  0.30564510  0.10049723  0.11922699  1
  Ti  Ti121  1  -0.01554256  0.20023646  0.52365552  1
  Ti  Ti122  1  0.10040825  0.70074483  0.13443846  1
  Ti  Ti123  1  0.00969157  -0.00114397  0.25605189  1
  Ti  Ti124  1  0.50837155  0.90807804  0.61998002  1
  Ti  Ti125  1  0.18753965  0.20757385  0.73539166  1
  Ti  Ti126  1  0.60912446  0.01896437  0.76141388  1
  Ti  Ti127  1  0.49058215  0.50620419  0.37104883  1
  Ti  Ti128  1  0.00087512  0.19523497  0.25091445  1
  Ti  Ti129  1  0.89812460  0.49994664  0.37508373  1
  Ti  Ti130  1  0.50271054  0.70239926  0.86992404  1
  Ti  Ti131  1  0.70135180  0.89785203  0.12247704  1
  Ti  Ti132  1  0.72166597  0.11025014  0.87374623  1
  Ti  Ti133  1  -0.01014747  0.20237014  0.72911719  1
  Ti  Ti134  1  0.59360447  0.18999454  0.24553971  1
  Ti  Ti135  1  0.68546535  0.72449052  0.39274766  1
  Ti  Ti136  1  0.40369760  0.39328272  -0.01261557  1
  Ti  Ti137  1  0.20647913  0.00255954  0.25936011  1
  Ti  Ti138  1  0.10194259  0.49384979  0.62569072  1
  Ti  Ti139  1  0.79705114  0.18688933  0.50554300  1
  Ti  Ti140  1  0.41001027  0.00531778  0.27125609  1
  Ti  Ti141  1  -0.00072091  0.79247798  0.72777580  1
  Ti  Ti142  1  0.70561192  0.09858939  0.13652826  1
  Ti  Ti143  1  0.19667742  0.40221153  0.49374561  1
  Ti  Ti144  1  0.41031238  0.40750223  0.49881619  1
  Ti  Ti145  1  0.59519192  0.39588998  0.75878635  1
  Ti  Ti146  1  0.40796752  0.59465248  0.24968521  1
  Ti  Ti147  1  0.29121079  0.29030953  0.87424786  1
  Ti  Ti148  1  0.60947115  -0.00155117  0.48464577  1
  Ti  Ti149  1  0.31371185  0.89349091  0.60189124  1
  Ti  Ti150  1  0.79063520  0.39171248  0.00248362  1
  Ti  Ti151  1  -0.00250119  0.59538070  0.49454083  1
  Ti  Ti152  1  0.50805583  0.50451432  0.87394765  1
  Ti  Ti153  1  -0.00210967  0.59517620  0.74408574  1
  Ti  Ti154  1  -0.00071320  0.59531786  0.00000712  1
  Ti  Ti155  1  0.70172399  0.89999352  0.87276036  1
  Ti  Ti156  1  -0.00038172  0.60125295  0.26134157  1
  Ti  Ti157  1  0.09286779  0.68903871  0.61483340  1
  Ti  Ti158  1  0.09981726  0.70595498  0.37856432  1
  Ti  Ti159  1  0.69926482  0.26876804  0.63175932  1
  Mo  Mo160  1  0.89419979  0.89988402  0.12540035  1
  Mo  Mo161  1  0.49794620  0.30747555  0.88433683  1
  Mo  Mo162  1  0.79930028  0.60191546  -0.00938867  1
  Mo  Mo163  1  0.30619385  0.90124834  0.86702021  1
  Mo  Mo164  1  0.70230841  0.50704434  0.36854745  1
  Mo  Mo165  1  0.80840182  0.19152208  0.24443652  1
  Mo  Mo166  1  0.09940864  0.51157498  0.37054355  1
  Mo  Mo167  1  0.09083154  0.31160136  0.63044843  1
  Mo  Mo168  1  0.59957782  0.20208293  0.75877480  1
  Mo  Mo169  1  0.19521270  0.79896808  0.51060047  1
  Mo  Mo170  1  0.40047558  0.40515424  0.25781302  1
  Mo  Mo171  1  0.90474194  0.68491355  0.62110468  1
  Mo  Mo172  1  0.39985958  0.59076724  0.49357215  1
  Mo  Mo173  1  0.78943218  0.19061684  0.74625791  1
  Mo  Mo174  1  0.69390829  0.70832356  0.12901969  1
  Mo  Mo175  1  0.68756346  0.09478501  0.61834408  1
  Mo  Mo176  1  0.08937226  0.10513421  0.63577253  1
  Mo  Mo177  1  0.60129034  0.81011033  -0.00788900  1
  Mo  Mo178  1  0.51348589  0.89556901  0.37661338  1
  Mo  Mo179  1  0.90328858  0.09239496  0.85317274  1
  Mo  Mo180  1  0.89387918  0.29483449  0.62460843  1
  Mo  Mo181  1  0.20211977  0.19843584  -0.00628637  1
  Mo  Mo182  1  0.59875991  0.80550486  0.25517277  1
  Mo  Mo183  1  0.00952985  -0.00314908  -0.00135898  1
  Mo  Mo184  1  0.59676776  0.82161262  0.50524115  1
  Mo  Mo185  1  0.49960496  0.49736675  0.63195546  1
  Mo  Mo186  1  0.50153992  0.50964915  0.12955607  1
  Mo  Mo187  1  0.10113628  0.89547300  0.61680780  1
  Mo  Mo188  1  0.10070996  0.28783001  0.86507989  1
  Mo  Mo189  1  0.50453313  0.10286981  0.36932971  1
  Mo  Mo190  1  0.79063642  0.80444953  0.51008101  1
  Mo  Mo191  1  0.09387687  0.29607291  0.37890478  1
  Mo  Mo192  1  0.89226349  0.89836185  0.63249778  1
  Mo  Mo193  1  0.79122528  -0.00239676  0.75707712  1
  Mo  Mo194  1  0.70871563  0.89758560  0.37551645  1
  Mo  Mo195  1  0.49797020  0.70293446  0.38763455  1
  Mo  Mo196  1  0.51284188  0.10446159  0.86922302  1
  Mo  Mo197  1  0.80230151  0.19998166  0.00694090  1
  Mo  Mo198  1  0.40899669  0.80385040  0.49578462  1
  Mo  Mo199  1  0.89938976  0.90666610  0.37460055  1
