# generated using pymatgen
data_HfZrTaTiMo
_symmetry_space_group_name_H-M   'P 1'
_cell_length_a   15.20102335
_cell_length_b   15.21154662
_cell_length_c   16.85587449
_cell_angle_alpha   90.10277386
_cell_angle_beta   90.00928268
_cell_angle_gamma   90.00285230
_symmetry_Int_Tables_number   1
_chemical_formula_structural   HfZrTaTiMo
_chemical_formula_sum   'Hf40 Zr40 Ta40 Ti40 Mo40'
_cell_volume   3897.59565832
_cell_formula_units_Z   40
loop_
 _symmetry_equiv_pos_site_id
 _symmetry_equiv_pos_as_xyz
  1  'x, y, z'
loop_
 _atom_site_type_symbol
 _atom_site_label
 _atom_site_symmetry_multiplicity
 _atom_site_fract_x
 _atom_site_fract_y
 _atom_site_fract_z
 _atom_site_occupancy
  Hf  Hf0  1  0.61158559  0.39154357  0.25471797  1
  Hf  Hf1  1  0.90408137  0.91065013  0.86349787  1
  Hf  Hf2  1  0.19705927  0.60135091  0.74005838  1
  Hf  Hf3  1  0.60478114  0.37680908  -0.01313510  1
  Hf  Hf4  1  0.47899719  0.48301729  0.89031520  1
  Hf  Hf5  1  -0.00349020  0.60154145  0.25590914  1
  Hf  Hf6  1  0.30668696  0.52401698  0.36905154  1
  Hf  Hf7  1  0.68958333  0.51218552  0.88469039  1
  Hf  Hf8  1  0.30331568  0.31156640  0.63366986  1
  Hf  Hf9  1  0.90985748  0.29949515  0.63390204  1
  Hf  Hf10  1  0.79824038  0.40746983  0.76293570  1
  Hf  Hf11  1  0.40296395  0.19622636  0.51038553  1
  Hf  Hf12  1  0.57918205  0.79789310  0.49453292  1
  Hf  Hf13  1  0.20384764  0.18399630  0.50796605  1
  Hf  Hf14  1  0.11253700  0.10544704  0.35975803  1
  Hf  Hf15  1  0.70647603  0.09060164  0.39128972  1
  Hf  Hf16  1  0.70706002  0.29684582  0.63428867  1
  Hf  Hf17  1  0.49267249  0.71659283  0.12511213  1
  Hf  Hf18  1  0.30527939  0.28762860  0.36596994  1
  Hf  Hf19  1  0.79384247  0.80783686  0.26891939  1
  Hf  Hf20  1  0.49725090  0.09507085  0.86916201  1
  Hf  Hf21  1  0.22763114  0.60769005  0.51909575  1
  Hf  Hf22  1  0.59770263  0.39695504  0.50381121  1
  Hf  Hf23  1  0.80116337  0.00998164  -0.00468397  1
  Hf  Hf24  1  0.50323042  0.68319672  0.87852536  1
  Hf  Hf25  1  0.29160926  0.09928078  0.87331179  1
  Hf  Hf26  1  0.78019736  0.19157720  0.24520697  1
  Hf  Hf27  1  0.10242152  0.91271596  0.63010729  1
  Hf  Hf28  1  0.51745522  0.28197031  0.12608525  1
  Hf  Hf29  1  0.59160087  0.60177336  0.24930756  1
  Hf  Hf30  1  0.71438648  0.09056590  0.62366143  1
  Hf  Hf31  1  0.00182731  0.40360143  0.49466010  1
  Hf  Hf32  1  0.50680897  0.09311624  0.63056235  1
  Hf  Hf33  1  0.10062331  0.09283512  0.13208632  1
  Hf  Hf34  1  0.29441676  0.49145920  0.11436315  1
  Hf  Hf35  1  0.80585269  0.80933772  0.00054319  1
  Hf  Hf36  1  0.48133973  0.49400802  0.62449454  1
  Hf  Hf37  1  0.60171456  0.79935216  -0.00722616  1
  Hf  Hf38  1  -0.00236342  0.80551512  0.49265127  1
  Hf  Hf39  1  0.89092805  0.70790078  0.86625379  1
  Zr  Zr40  1  0.17890011  0.81088605  0.00097410  1
  Zr  Zr41  1  0.60319408  0.59389706  0.73821375  1
  Zr  Zr42  1  0.30387323  0.08046636  0.36550455  1
  Zr  Zr43  1  0.19784023  0.40006836  0.76513507  1
  Zr  Zr44  1  0.79804529  0.40436761  0.50138574  1
  Zr  Zr45  1  0.89778595  0.10560342  0.38709713  1
  Zr  Zr46  1  0.61357952  -0.02047224  0.75937945  1
  Zr  Zr47  1  0.20410605  0.19627429  0.00442332  1
  Zr  Zr48  1  0.10142430  0.29593615  0.36607506  1
  Zr  Zr49  1  0.79242431  0.60605911  0.00408369  1
  Zr  Zr50  1  0.59953790  -0.00776829  -0.00587402  1
  Zr  Zr51  1  0.80882797  0.39889272  0.26164132  1
  Zr  Zr52  1  0.13185499  0.89840610  0.36784939  1
  Zr  Zr53  1  0.11287974  0.69186578  0.38433635  1
  Zr  Zr54  1  0.28378269  0.69944312  0.87689414  1
  Zr  Zr55  1  0.01732816  0.00594100  0.49432821  1
  Zr  Zr56  1  0.70692567  0.48511827  0.11551869  1
  Zr  Zr57  1  0.39166608  -0.02100692  0.50761188  1
  Zr  Zr58  1  0.88901281  0.09595161  0.12689141  1
  Zr  Zr59  1  -0.00852439  -0.00719723  0.25962006  1
  Zr  Zr60  1  0.58548048  0.39083914  0.76057852  1
  Zr  Zr61  1  0.50331564  0.09122117  0.38096054  1
  Zr  Zr62  1  0.80207580  0.59866497  0.24967247  1
  Zr  Zr63  1  0.39406464  0.81481906  -0.01471510  1
  Zr  Zr64  1  0.89489229  0.30823775  0.11705283  1
  Zr  Zr65  1  0.09473116  0.50336837  0.10915496  1
  Zr  Zr66  1  -0.00099776  0.40998654  0.25930713  1
  Zr  Zr67  1  0.08610121  0.71373731  0.86649962  1
  Zr  Zr68  1  0.39506193  -0.00153105  0.75021119  1
  Zr  Zr69  1  0.50441655  0.50054948  0.10835350  1
  Zr  Zr70  1  0.10192745  0.30251524  0.12503016  1
  Zr  Zr71  1  0.01223844  -0.01392688  0.00078103  1
  Zr  Zr72  1  0.20207159  0.39838214  0.49692927  1
  Zr  Zr73  1  0.88828673  0.50857034  0.62292970  1
  Zr  Zr74  1  0.40582486  0.39960621  0.24903148  1
  Zr  Zr75  1  0.60898549  0.01193279  0.24277046  1
  Zr  Zr76  1  -0.00851805  0.59766098  0.74354558  1
  Zr  Zr77  1  0.70338955  0.90515998  0.13322283  1
  Zr  Zr78  1  0.68638353  0.69463883  0.37965387  1
  Zr  Zr79  1  0.39708685  0.40673474  0.48974617  1
  Ta  Ta80  1  0.40482279  0.21078282  0.74900244  1
  Ta  Ta81  1  0.40759940  0.20455663  0.00266107  1
  Ta  Ta82  1  0.09937247  0.50954236  0.88989760  1
  Ta  Ta83  1  0.69248394  0.70297709  0.13104852  1
  Ta  Ta84  1  0.80684294  0.39365635  -0.02161055  1
  Ta  Ta85  1  0.47168645  0.70377443  0.36910183  1
  Ta  Ta86  1  0.08788222  0.70543891  0.12821749  1
  Ta  Ta87  1  0.21841637  0.81181283  0.50631068  1
  Ta  Ta88  1  0.69747114  0.49943057  0.38347236  1
  Ta  Ta89  1  0.60574259  0.19814858  0.50725358  1
  Ta  Ta90  1  0.20504374  0.40723815  0.25082017  1
  Ta  Ta91  1  0.10113179  0.49560941  0.62243273  1
  Ta  Ta92  1  0.40041185  0.00368686  0.00201608  1
  Ta  Ta93  1  0.39078083  0.60322790  0.00492897  1
  Ta  Ta94  1  0.10153031  0.70976848  0.62322133  1
  Ta  Ta95  1  0.88979147  0.91177535  0.62171516  1
  Ta  Ta96  1  0.48542764  0.69835899  0.62832223  1
  Ta  Ta97  1  0.29668494  0.89410214  0.64056709  1
  Ta  Ta98  1  0.50834949  0.29044873  0.37285530  1
  Ta  Ta99  1  0.28506544  0.70130644  0.11671947  1
  Ta  Ta100  1  0.20408245  0.39043679  -0.01252799  1
  Ta  Ta101  1  0.39094382  0.58851802  0.75303362  1
  Ta  Ta102  1  0.19869182  0.60545679  0.24268979  1
  Ta  Ta103  1  0.11350298  0.91173286  0.85059060  1
  Ta  Ta104  1  -0.00651869  0.79290312  0.26958520  1
  Ta  Ta105  1  0.70095861  0.28797469  0.38566616  1
  Ta  Ta106  1  0.49912278  0.88500407  0.63302572  1
  Ta  Ta107  1  0.88911879  0.71499658  0.61613617  1
  Ta  Ta108  1  -0.00485734  0.19686460  -0.00989019  1
  Ta  Ta109  1  0.79535512  0.20659946  -0.01474967  1
  Ta  Ta110  1  -0.00376709  0.61912711  -0.00105776  1
  Ta  Ta111  1  0.39895717  0.79591229  0.76362569  1
  Ta  Ta112  1  0.60910083  0.18786584  -0.01840741  1
  Ta  Ta113  1  0.79126429  0.81193473  0.48656484  1
  Ta  Ta114  1  0.61002488  0.19436673  0.76261618  1
  Ta  Ta115  1  -0.00830597  0.01934128  0.74484170  1
  Ta  Ta116  1  0.90658593  0.10546832  0.61346129  1
  Ta  Ta117  1  -0.00817665  0.80957096  0.73361945  1
  Ta  Ta118  1  -0.00857767  0.20429634  0.24883328  1
  Ta  Ta119  1  0.89887648  0.70989012  0.12910670  1
  Ti  Ti120  1  0.90220602  0.50996683  0.87927758  1
  Ti  Ti121  1  0.69903312  0.89165034  0.62045633  1
  Ti  Ti122  1  0.81788401  0.18440776  0.75820852  1
  Ti  Ti123  1  0.00750444  0.40327657  0.76381504  1
  Ti  Ti124  1  0.21907230  -0.01186464  0.23867993  1
  Ti  Ti125  1  0.90395186  0.50459861  0.11159862  1
  Ti  Ti126  1  0.89395628  0.52366542  0.39205114  1
  Ti  Ti127  1  0.31622891  0.30396456  0.87408550  1
  Ti  Ti128  1  0.50478719  0.29376342  0.63034793  1
  Ti  Ti129  1  0.89536949  0.29446055  0.38109384  1
  Ti  Ti130  1  0.60387641  -0.01407874  0.50173217  1
  Ti  Ti131  1  0.10710594  0.50351816  0.37974062  1
  Ti  Ti132  1  0.71901235  0.08827618  0.86259173  1
  Ti  Ti133  1  0.50506388  0.50813070  0.37914071  1
  Ti  Ti134  1  0.10151696  0.30266400  0.62865714  1
  Ti  Ti135  1  0.09361545  0.10253847  0.87199203  1
  Ti  Ti136  1  0.38790115  0.80336614  0.24649617  1
  Ti  Ti137  1  0.29394954  0.50268230  0.88998954  1
  Ti  Ti138  1  0.90727849  0.29429800  0.86873331  1
  Ti  Ti139  1  0.21265265  0.20442277  0.23256107  1
  Ti  Ti140  1  0.79100749  0.61005483  0.74151760  1
  Ti  Ti141  1  0.78922276  0.80986156  0.74488469  1
  Ti  Ti142  1  0.10618276  0.10876923  0.63301695  1
  Ti  Ti143  1  0.00182226  0.39392821  -0.01721595  1
  Ti  Ti144  1  0.20171628  0.20093343  0.75263620  1
  Ti  Ti145  1  0.69951204  0.70529103  0.87170011  1
  Ti  Ti146  1  0.31364332  0.09811528  0.12459241  1
  Ti  Ti147  1  -0.00063940  0.60527484  0.50824545  1
  Ti  Ti148  1  0.09990231  0.88861163  0.14217805  1
  Ti  Ti149  1  0.01116830  0.20806653  0.75716857  1
  Ti  Ti150  1  0.41478163  -0.01302446  0.23891346  1
  Ti  Ti151  1  0.39092283  0.60548739  0.23588488  1
  Ti  Ti152  1  0.00572037  0.20856854  0.50215550  1
  Ti  Ti153  1  0.41262674  0.18820519  0.24051745  1
  Ti  Ti154  1  0.59745035  0.79157873  0.75352846  1
  Ti  Ti155  1  0.20933745  -0.00489514  0.00053729  1
  Ti  Ti156  1  0.90656409  0.89472071  0.13393716  1
  Ti  Ti157  1  0.30475396  0.89659389  0.12299429  1
  Ti  Ti158  1  0.59750374  0.59455912  0.50942293  1
  Ti  Ti159  1  0.69737810  0.69990895  0.61465375  1
  Mo  Mo160  1  0.58023614  0.80796635  0.25811561  1
  Mo  Mo161  1  0.49106364  0.90353835  0.12559498  1
  Mo  Mo162  1  0.39139138  0.40027929  0.75447242  1
  Mo  Mo163  1  0.90012741  0.69938261  0.39156940  1
  Mo  Mo164  1  0.19385769  0.01570563  0.74650251  1
  Mo  Mo165  1  0.49721010  0.09363830  0.11679513  1
  Mo  Mo166  1  0.29857770  0.50506472  0.63119747  1
  Mo  Mo167  1  0.41233307  0.61164037  0.49892968  1
  Mo  Mo168  1  0.49615422  0.28570216  0.87538850  1
  Mo  Mo169  1  0.59690493  0.20221721  0.25704060  1
  Mo  Mo170  1  0.90746086  0.10607972  0.87382660  1
  Mo  Mo171  1  0.49739237  0.89340413  0.36672298  1
  Mo  Mo172  1  0.80142847  -0.00802320  0.50653599  1
  Mo  Mo173  1  0.30625749  0.29264928  0.13258285  1
  Mo  Mo174  1  0.80551498  -0.00598004  0.25745239  1
  Mo  Mo175  1  0.70882370  0.29001631  0.86077440  1
  Mo  Mo176  1  0.19932742  0.79637112  0.23651096  1
  Mo  Mo177  1  0.69266569  0.50740684  0.62428870  1
  Mo  Mo178  1  0.19312673  0.60184090  0.00217012  1
  Mo  Mo179  1  0.29225965  0.09946212  0.63775482  1
  Mo  Mo180  1  0.39029275  0.78542190  0.50516485  1
  Mo  Mo181  1  0.39031210  0.38510094  0.00593973  1
  Mo  Mo182  1  0.32016429  0.88286583  0.36755932  1
  Mo  Mo183  1  0.19841782  0.80517612  0.74299854  1
  Mo  Mo184  1  0.79086230  0.61253543  0.50695778  1
  Mo  Mo185  1  0.29531443  0.90797093  0.86716120  1
  Mo  Mo186  1  -0.00769367  0.80547505  0.00484206  1
  Mo  Mo187  1  0.80573299  0.20523550  0.50923053  1
  Mo  Mo188  1  0.30650552  0.70761905  0.63886944  1
  Mo  Mo189  1  0.68631494  0.12280153  0.11345917  1
  Mo  Mo190  1  0.10195894  0.29451209  0.87873472  1
  Mo  Mo191  1  0.68708771  0.90389499  0.37702820  1
  Mo  Mo192  1  0.89285777  0.90290586  0.37944646  1
  Mo  Mo193  1  0.21235368  -0.00318860  0.50564132  1
  Mo  Mo194  1  0.49901994  0.89114071  0.86553650  1
  Mo  Mo195  1  0.80950199  -0.00386556  0.74234599  1
  Mo  Mo196  1  0.29323794  0.71044191  0.36626127  1
  Mo  Mo197  1  0.70751515  0.29101851  0.11505363  1
  Mo  Mo198  1  0.59327344  0.60471154  0.00961387  1
  Mo  Mo199  1  0.70775269  0.88712558  0.86807413  1
