# generated using pymatgen
data_HfZrTaTiMo
_symmetry_space_group_name_H-M   'P 1'
_cell_length_a   15.17851479
_cell_length_b   15.18842628
_cell_length_c   16.79165088
_cell_angle_alpha   90.02291746
_cell_angle_beta   90.01381184
_cell_angle_gamma   90.00695062
_symmetry_Int_Tables_number   1
_chemical_formula_structural   HfZrTaTiMo
_chemical_formula_sum   'Hf40 Zr40 Ta40 Ti40 Mo40'
_cell_volume   3871.10901336
_cell_formula_units_Z   40
loop_
 _symmetry_equiv_pos_site_id
 _symmetry_equiv_pos_as_xyz
  1  'x, y, z'
loop_
 _atom_site_type_symbol
 _atom_site_label
 _atom_site_symmetry_multiplicity
 _atom_site_fract_x
 _atom_site_fract_y
 _atom_site_fract_z
 _atom_site_occupancy
  Hf  Hf0  1  0.80484714  0.39989349  -0.00044099  1
  Hf  Hf1  1  0.88626940  0.91723916  0.38191703  1
  Hf  Hf2  1  0.68256054  0.30362804  0.61009669  1
  Hf  Hf3  1  0.70094197  0.70078079  0.12203216  1
  Hf  Hf4  1  0.90286411  0.71213697  0.12471060  1
  Hf  Hf5  1  0.10349196  0.30558514  0.86812016  1
  Hf  Hf6  1  0.39800253  0.79514162  0.24205694  1
  Hf  Hf7  1  0.80615521  0.79924218  -0.02536097  1
  Hf  Hf8  1  0.79970712  0.60779716  0.49590795  1
  Hf  Hf9  1  0.69159888  0.10795365  0.87181444  1
  Hf  Hf10  1  0.00605760  0.39718557  -0.00072103  1
  Hf  Hf11  1  0.40568828  -0.00232614  0.02949576  1
  Hf  Hf12  1  0.47160939  0.28896158  0.59937838  1
  Hf  Hf13  1  0.90100841  0.70702522  0.64866598  1
  Hf  Hf14  1  0.31335723  0.09103942  0.88210235  1
  Hf  Hf15  1  0.68238589  0.90620138  0.87474880  1
  Hf  Hf16  1  0.09907453  0.71170790  0.11409742  1
  Hf  Hf17  1  -0.00261223  0.60469899  -0.01046174  1
  Hf  Hf18  1  0.79247234  0.60231074  -0.01884910  1
  Hf  Hf19  1  0.50439663  0.49388320  0.87237338  1
  Hf  Hf20  1  0.30372559  0.91093506  0.36881602  1
  Hf  Hf21  1  0.30232047  0.30482253  0.13880853  1
  Hf  Hf22  1  0.39215621  0.38215473  0.74675284  1
  Hf  Hf23  1  -0.00696979  0.81560292  0.51971741  1
  Hf  Hf24  1  0.19405625  0.58942129  0.74274233  1
  Hf  Hf25  1  0.30680214  0.91380261  0.62209203  1
  Hf  Hf26  1  0.10259359  0.90330393  0.86503669  1
  Hf  Hf27  1  0.90102453  0.30150970  0.86569330  1
  Hf  Hf28  1  0.68429069  0.50383187  0.12908695  1
  Hf  Hf29  1  0.41620408  0.19401934  0.02255187  1
  Hf  Hf30  1  0.18232348  0.80802258  0.25846021  1
  Hf  Hf31  1  0.10485199  0.30443323  0.60476007  1
  Hf  Hf32  1  0.91196225  0.09642536  0.85460981  1
  Hf  Hf33  1  0.09814377  0.49874357  0.39571054  1
  Hf  Hf34  1  0.79472751  0.20089247  0.72987873  1
  Hf  Hf35  1  0.39385082  0.60252912  0.75021795  1
  Hf  Hf36  1  0.90334858  0.71398992  0.37305212  1
  Hf  Hf37  1  0.19870021  0.80655571  0.50430881  1
  Hf  Hf38  1  0.90155370  0.91167717  0.10981819  1
  Hf  Hf39  1  0.28256334  0.10164833  0.14375050  1
  Zr  Zr40  1  0.60662042  0.60820395  0.48715570  1
  Zr  Zr41  1  0.29048643  0.49102185  0.87591614  1
  Zr  Zr42  1  0.28865797  0.71442016  0.88012417  1
  Zr  Zr43  1  0.50490745  0.08769616  0.37246338  1
  Zr  Zr44  1  0.80301454  0.40118813  0.73469024  1
  Zr  Zr45  1  0.20501546  0.39786259  0.27120168  1
  Zr  Zr46  1  0.50365240  0.67921121  0.12818770  1
  Zr  Zr47  1  0.89482037  0.50233275  0.12806880  1
  Zr  Zr48  1  0.79992089  0.39383279  0.26571911  1
  Zr  Zr49  1  0.50400337  0.28319000  0.87051506  1
  Zr  Zr50  1  0.79119371  0.81146021  0.50569926  1
  Zr  Zr51  1  0.40810209  0.59556396  0.49290272  1
  Zr  Zr52  1  0.21175989  0.59960827  0.26272660  1
  Zr  Zr53  1  0.50468393  0.71487520  0.63146816  1
  Zr  Zr54  1  0.90970830  0.10495087  0.38476370  1
  Zr  Zr55  1  0.21957325  0.20641264  0.74726888  1
  Zr  Zr56  1  0.60820682  0.59789107  0.75923152  1
  Zr  Zr57  1  0.09117600  0.90382760  0.11251082  1
  Zr  Zr58  1  0.50588129  0.49347540  0.62635674  1
  Zr  Zr59  1  0.11458344  0.09975482  0.62978362  1
  Zr  Zr60  1  0.09715950  0.70939993  0.38583308  1
  Zr  Zr61  1  0.78826111  0.59822997  0.26657413  1
  Zr  Zr62  1  0.70128556  0.28297255  0.38779216  1
  Zr  Zr63  1  0.70208355  0.69596345  0.63859496  1
  Zr  Zr64  1  0.20137318  0.01196635  0.49344704  1
  Zr  Zr65  1  0.10586334  0.29367037  0.12950885  1
  Zr  Zr66  1  0.80034528  0.20001332  -0.00239211  1
  Zr  Zr67  1  0.69408423  0.89083300  0.64184564  1
  Zr  Zr68  1  0.11302026  0.50382912  0.12416772  1
  Zr  Zr69  1  -0.00196461  0.39332106  0.25945289  1
  Zr  Zr70  1  0.40030382  0.39280723  0.00475222  1
  Zr  Zr71  1  0.08745034  0.09938236  0.13025409  1
  Zr  Zr72  1  0.00363714  0.60426012  0.25257210  1
  Zr  Zr73  1  0.29010670  0.69198794  0.11818242  1
  Zr  Zr74  1  0.69419246  0.91526972  0.10240589  1
  Zr  Zr75  1  0.60034298  0.39246705  0.00521015  1
  Zr  Zr76  1  0.47836143  0.90743131  0.88677775  1
  Zr  Zr77  1  0.57179434  -0.00008416  0.73756992  1
  Zr  Zr78  1  0.79594126  0.81992795  0.24716508  1
  Zr  Zr79  1  0.80542946  0.17790638  0.52538578  1
  Ta  Ta80  1  0.40433562  0.40235868  0.26937334  1
  Ta  Ta81  1  0.40309914  0.19792152  0.25568782  1
  Ta  Ta82  1  0.30288447  0.70297107  0.62273833  1
  Ta  Ta83  1  0.91883986  0.50263682  0.86159899  1
  Ta  Ta84  1  0.30538208  0.70439650  0.38159422  1
  Ta  Ta85  1  0.00592279  0.18884691  -0.00699832  1
  Ta  Ta86  1  0.40766415  -0.00578646  0.23509075  1
  Ta  Ta87  1  0.09632661  0.28527164  0.39462499  1
  Ta  Ta88  1  0.49824853  0.70493408  0.87683538  1
  Ta  Ta89  1  0.22118621  0.39138488  0.48840783  1
  Ta  Ta90  1  0.90386822  0.50050511  0.39358817  1
  Ta  Ta91  1  0.00227369  0.61163668  0.51441813  1
  Ta  Ta92  1  0.40495085  0.80603641  0.49516076  1
  Ta  Ta93  1  0.59384797  0.40790353  0.48433591  1
  Ta  Ta94  1  0.70561210  0.48889471  0.87225196  1
  Ta  Ta95  1  0.39235998  0.79904961  0.01322546  1
  Ta  Ta96  1  -0.00753311  -0.00580097  0.25179629  1
  Ta  Ta97  1  0.90309597  0.28806238  0.12622399  1
  Ta  Ta98  1  0.20295280  0.20050494  -0.00345783  1
  Ta  Ta99  1  0.30426865  0.48641312  0.61419390  1
  Ta  Ta100  1  0.69550364  0.29917943  0.86662189  1
  Ta  Ta101  1  0.40760018  0.59777893  -0.00490480  1
  Ta  Ta102  1  0.79331331  0.01541552  0.24337012  1
  Ta  Ta103  1  0.50674520  0.89462403  0.37066691  1
  Ta  Ta104  1  0.80621393  0.19756975  0.25214657  1
  Ta  Ta105  1  0.59167664  0.79179351  -0.00146322  1
  Ta  Ta106  1  0.90792849  0.29799801  0.40170368  1
  Ta  Ta107  1  0.19552913  0.00175946  -0.00595164  1
  Ta  Ta108  1  0.70339212  0.29899439  0.13657697  1
  Ta  Ta109  1  0.79707973  0.40257889  0.50365895  1
  Ta  Ta110  1  0.20710566  0.60216151  0.50644786  1
  Ta  Ta111  1  0.40056871  0.81839330  0.75028678  1
  Ta  Ta112  1  0.51470020  0.29604876  0.14904268  1
  Ta  Ta113  1  0.70877177  0.08157353  0.38279017  1
  Ta  Ta114  1  0.50586800  0.09820210  0.88340928  1
  Ta  Ta115  1  0.28378290  0.89845422  0.12987467  1
  Ta  Ta116  1  0.31021432  0.50151831  0.12389349  1
  Ta  Ta117  1  0.90418914  0.49975520  0.61642249  1
  Ta  Ta118  1  0.10386306  0.70306144  0.63360429  1
  Ta  Ta119  1  0.49693580  0.29286659  0.38113764  1
  Ti  Ti120  1  0.59300156  0.19504315  0.72925501  1
  Ti  Ti121  1  0.10566424  0.10453817  0.86470603  1
  Ti  Ti122  1  0.20567855  0.80028418  0.74507584  1
  Ti  Ti123  1  -0.01811196  0.00764089  0.52712849  1
  Ti  Ti124  1  0.69522868  0.11154381  0.11711436  1
  Ti  Ti125  1  0.10355503  0.09858037  0.37214257  1
  Ti  Ti126  1  0.30579114  0.28972778  0.88257609  1
  Ti  Ti127  1  0.59076899  0.17971539  0.50423059  1
  Ti  Ti128  1  0.10509899  0.50022535  0.60904228  1
  Ti  Ti129  1  0.89599046  0.10081124  0.12012487  1
  Ti  Ti130  1  0.68973811  0.90536314  0.37405300  1
  Ti  Ti131  1  0.00811496  0.40826848  0.73643115  1
  Ti  Ti132  1  0.60270164  -0.00417532  0.24009620  1
  Ti  Ti133  1  0.80738009  0.59744736  0.76479838  1
  Ti  Ti134  1  0.08573374  0.68915816  0.85334589  1
  Ti  Ti135  1  0.59588402  0.80555043  0.23975626  1
  Ti  Ti136  1  0.09494540  0.90196666  0.64467858  1
  Ti  Ti137  1  0.40449868  0.58987452  0.26327162  1
  Ti  Ti138  1  0.40916826  0.00531744  0.49772707  1
  Ti  Ti139  1  0.08207755  0.90985403  0.37794865  1
  Ti  Ti140  1  0.50253205  0.70502754  0.36434307  1
  Ti  Ti141  1  0.70070955  0.50290101  0.62250946  1
  Ti  Ti142  1  0.40660468  0.17745105  0.73989645  1
  Ti  Ti143  1  0.59331464  0.80483840  0.49606445  1
  Ti  Ti144  1  -0.00062648  0.20930220  0.72978268  1
  Ti  Ti145  1  0.61174426  0.19055468  0.25663081  1
  Ti  Ti146  1  0.60091670  0.39032369  0.74571221  1
  Ti  Ti147  1  -0.00108875  0.80539245  -0.02867892  1
  Ti  Ti148  1  0.21966028  0.00028458  0.75405261  1
  Ti  Ti149  1  0.60208879  0.40610645  0.26980359  1
  Ti  Ti150  1  0.19911064  0.39794656  0.73931732  1
  Ti  Ti151  1  0.49578349  0.49054156  0.13761406  1
  Ti  Ti152  1  0.69062986  0.71530923  0.36504644  1
  Ti  Ti153  1  0.79794560  0.00135730  0.74511696  1
  Ti  Ti154  1  0.60758907  -0.00777881  0.51313405  1
  Ti  Ti155  1  0.19482963  0.59923502  -0.01301991  1
  Ti  Ti156  1  0.79851313  0.80034994  0.77400432  1
  Ti  Ti157  1  0.20212292  0.39989516  -0.00062249  1
  Ti  Ti158  1  0.81147681  0.00359691  -0.02020854  1
  Ti  Ti159  1  -0.00360330  0.19941807  0.25663736  1
  Mo  Mo160  1  0.60297678  0.20057425  0.01080813  1
  Mo  Mo161  1  0.49163462  0.09320907  0.60829659  1
  Mo  Mo162  1  0.79617137  -0.00785975  0.51685078  1
  Mo  Mo163  1  -0.00740745  0.81411802  0.25069335  1
  Mo  Mo164  1  0.39165239  0.00536284  0.74706844  1
  Mo  Mo165  1  0.49309209  0.89437707  0.61575653  1
  Mo  Mo166  1  0.59446478  0.59951851  0.26232073  1
  Mo  Mo167  1  0.51147448  0.10114356  0.14574464  1
  Mo  Mo168  1  0.00887889  0.00451002  0.74350653  1
  Mo  Mo169  1  0.59774908  0.01153766  0.00450406  1
  Mo  Mo170  1  0.50679352  0.50180496  0.36571991  1
  Mo  Mo171  1  0.30202628  0.28951621  0.36623523  1
  Mo  Mo172  1  0.38172553  0.19047015  0.47920843  1
  Mo  Mo173  1  0.29449883  0.90198770  0.88242948  1
  Mo  Mo174  1  -0.00307777  0.00887191  -0.01519628  1
  Mo  Mo175  1  0.09971930  0.49496274  0.87022701  1
  Mo  Mo176  1  0.90649860  0.09346709  0.64358860  1
  Mo  Mo177  1  0.50039291  0.89122313  0.12403994  1
  Mo  Mo178  1  0.20749083  0.19534474  0.48715276  1
  Mo  Mo179  1  0.90013358  0.90422078  0.85706255  1
  Mo  Mo180  1  0.29818961  0.09674808  0.35322153  1
  Mo  Mo181  1  0.90397506  0.69799901  0.85602876  1
  Mo  Mo182  1  0.70594084  0.49915701  0.38128115  1
  Mo  Mo183  1  0.00586137  0.79973231  0.75450418  1
  Mo  Mo184  1  0.59574885  0.59870551  -0.00949260  1
  Mo  Mo185  1  0.00265552  0.58771144  0.73195280  1
  Mo  Mo186  1  0.58984759  0.79887185  0.76698036  1
  Mo  Mo187  1  0.90645899  0.30367645  0.60941870  1
  Mo  Mo188  1  0.19210521  0.19836111  0.26892084  1
  Mo  Mo189  1  0.31721370  0.11412666  0.61532066  1
  Mo  Mo190  1  0.40203182  0.39812867  0.47781535  1
  Mo  Mo191  1  0.00186071  0.40421947  0.50332118  1
  Mo  Mo192  1  0.19190189  -0.00061737  0.26022330  1
  Mo  Mo193  1  0.30567954  0.50436917  0.38638553  1
  Mo  Mo194  1  0.00743302  0.19161502  0.51141441  1
  Mo  Mo195  1  0.90245449  0.90356139  0.65462861  1
  Mo  Mo196  1  0.29609338  0.29968374  0.61574905  1
  Mo  Mo197  1  0.69120857  0.69681407  0.87483183  1
  Mo  Mo198  1  0.69197795  0.09408528  0.62765008  1
  Mo  Mo199  1  0.19759738  0.80529204  -0.00623972  1
