# generated using pymatgen
data_HfZrTaTiMo
_symmetry_space_group_name_H-M   'P 1'
_cell_length_a   15.19842201
_cell_length_b   15.21787045
_cell_length_c   16.84436663
_cell_angle_alpha   89.95202344
_cell_angle_beta   89.97186898
_cell_angle_gamma   90.07863337
_symmetry_Int_Tables_number   1
_chemical_formula_structural   HfZrTaTiMo
_chemical_formula_sum   'Hf40 Zr40 Ta40 Ti40 Mo40'
_cell_volume   3895.88791400
_cell_formula_units_Z   40
loop_
 _symmetry_equiv_pos_site_id
 _symmetry_equiv_pos_as_xyz
  1  'x, y, z'
loop_
 _atom_site_type_symbol
 _atom_site_label
 _atom_site_symmetry_multiplicity
 _atom_site_fract_x
 _atom_site_fract_y
 _atom_site_fract_z
 _atom_site_occupancy
  Hf  Hf0  1  0.91645416  0.88599380  0.36781723  1
  Hf  Hf1  1  0.28728840  0.27714805  0.36965236  1
  Hf  Hf2  1  0.59681735  -0.01206783  0.23937719  1
  Hf  Hf3  1  0.71179267  0.50392668  0.37457135  1
  Hf  Hf4  1  0.20180138  0.79719582  -0.00248738  1
  Hf  Hf5  1  0.89589119  0.30338542  0.37681221  1
  Hf  Hf6  1  0.61497889  0.79193004  0.74933068  1
  Hf  Hf7  1  0.30169464  0.29391805  0.86331417  1
  Hf  Hf8  1  0.18337985  0.39458065  0.25755274  1
  Hf  Hf9  1  0.50737299  0.49183552  0.13545552  1
  Hf  Hf10  1  0.31411269  0.88937554  0.61132182  1
  Hf  Hf11  1  0.38694676  0.60691298  0.48327989  1
  Hf  Hf12  1  0.81138964  0.40304808  0.24701596  1
  Hf  Hf13  1  0.08935062  0.50368141  0.37791967  1
  Hf  Hf14  1  0.79092629  0.39633974  0.50982161  1
  Hf  Hf15  1  0.78549267  0.39251746  0.74977923  1
  Hf  Hf16  1  0.39165375  0.60205514  0.00157206  1
  Hf  Hf17  1  0.48679479  0.28731820  0.13324521  1
  Hf  Hf18  1  0.09398154  0.69150724  0.86834955  1
  Hf  Hf19  1  0.09049258  0.09992548  0.12524307  1
  Hf  Hf20  1  0.20981952  0.39896977  -0.00686157  1
  Hf  Hf21  1  0.69627464  0.31920970  0.10349828  1
  Hf  Hf22  1  0.78652557  0.61282117  0.00632860  1
  Hf  Hf23  1  0.29357340  0.09032019  0.85750150  1
  Hf  Hf24  1  0.40161060  0.39779704  0.26952987  1
  Hf  Hf25  1  0.08999746  0.09845650  0.87031575  1
  Hf  Hf26  1  0.72352795  0.10427110  0.63955594  1
  Hf  Hf27  1  0.71399541  0.90819532  0.37899648  1
  Hf  Hf28  1  0.51388581  0.89060618  0.38990624  1
  Hf  Hf29  1  -0.01629749  0.19213854  0.50590465  1
  Hf  Hf30  1  0.10711049  0.10532249  0.36933669  1
  Hf  Hf31  1  -0.00444739  0.62394992  0.01087583  1
  Hf  Hf32  1  0.29250129  0.09086941  0.63766993  1
  Hf  Hf33  1  0.29451323  0.70873071  0.14016147  1
  Hf  Hf34  1  0.40510980  0.81374001  0.25400183  1
  Hf  Hf35  1  0.00626945  -0.00594761  0.50133828  1
  Hf  Hf36  1  0.89434254  0.29453424  0.88755524  1
  Hf  Hf37  1  0.41012466  0.39934664  -0.00622087  1
  Hf  Hf38  1  0.88184896  0.71492826  0.14590560  1
  Hf  Hf39  1  0.41492711  0.80258964  0.75345878  1
  Zr  Zr40  1  0.40394292  0.41127516  0.75431758  1
  Zr  Zr41  1  0.30120774  0.49721982  0.13934642  1
  Zr  Zr42  1  0.30112602  0.29403731  0.63099415  1
  Zr  Zr43  1  0.89392333  0.09685349  0.88679447  1
  Zr  Zr44  1  0.09519476  0.30337815  0.62408899  1
  Zr  Zr45  1  0.69928967  0.10889083  0.36442065  1
  Zr  Zr46  1  0.58776591  0.59524895  0.00819834  1
  Zr  Zr47  1  0.10688408  0.89769560  0.63160801  1
  Zr  Zr48  1  0.89083831  0.49766639  0.11837910  1
  Zr  Zr49  1  0.40175199  0.19970096  0.49695444  1
  Zr  Zr50  1  0.71275706  0.89307156  0.89376617  1
  Zr  Zr51  1  0.07874244  0.70799569  0.36857571  1
  Zr  Zr52  1  0.41153588  0.79884191  0.00027430  1
  Zr  Zr53  1  0.69388270  0.89691372  0.61260259  1
  Zr  Zr54  1  0.90236797  0.51711567  0.87274662  1
  Zr  Zr55  1  0.92030602  0.90896904  0.10938596  1
  Zr  Zr56  1  0.90234066  0.28916138  0.10337548  1
  Zr  Zr57  1  0.19051247  0.41108192  0.75867470  1
  Zr  Zr58  1  0.29777212  0.49939592  0.61524321  1
  Zr  Zr59  1  0.21919340  0.01013383  0.25639698  1
  Zr  Zr60  1  0.79676189  0.61851468  0.74604017  1
  Zr  Zr61  1  0.60774602  0.38820296  0.26152778  1
  Zr  Zr62  1  0.89758086  0.09856264  0.36242641  1
  Zr  Zr63  1  0.50065570  0.30853751  0.62037897  1
  Zr  Zr64  1  0.19153065  0.59566109  0.00665753  1
  Zr  Zr65  1  -0.00425707  0.40156073  0.75160124  1
  Zr  Zr66  1  0.09813435  0.90089892  0.87105881  1
  Zr  Zr67  1  0.68913288  0.49511056  0.87903866  1
  Zr  Zr68  1  0.88773406  0.50232681  0.62802243  1
  Zr  Zr69  1  0.60469129  0.59809091  0.49174635  1
  Zr  Zr70  1  0.20399062  0.40349047  0.49178399  1
  Zr  Zr71  1  0.69686170  0.09936629  0.87547195  1
  Zr  Zr72  1  0.58486682  0.18555663  0.00721898  1
  Zr  Zr73  1  0.38924424  0.19501718  -0.00794075  1
  Zr  Zr74  1  0.20872067  0.80000033  0.75166565  1
  Zr  Zr75  1  0.59716683  -0.00748350  0.75163885  1
  Zr  Zr76  1  0.51090099  0.10332355  0.63135822  1
  Zr  Zr77  1  0.50090364  0.72349132  0.60396533  1
  Zr  Zr78  1  0.01462272  0.41530726  -0.01227801  1
  Zr  Zr79  1  0.71237526  0.88240757  0.11655962  1
  Ta  Ta80  1  0.20077116  0.60156797  0.74247558  1
  Ta  Ta81  1  0.70737140  0.10017318  0.12156795  1
  Ta  Ta82  1  0.29172144  0.29171998  0.13496656  1
  Ta  Ta83  1  0.20114900  0.78692535  0.48704781  1
  Ta  Ta84  1  0.30632022  0.90270252  0.38636882  1
  Ta  Ta85  1  0.70151198  0.29671880  0.89358280  1
  Ta  Ta86  1  0.50034567  0.50689496  0.61397697  1
  Ta  Ta87  1  0.19309639  0.81528942  0.26274802  1
  Ta  Ta88  1  0.29780509  0.10400010  0.12216142  1
  Ta  Ta89  1  0.70281438  0.70955577  0.36848346  1
  Ta  Ta90  1  0.89580501  0.72200646  0.87582914  1
  Ta  Ta91  1  0.69242337  0.29581905  0.62636759  1
  Ta  Ta92  1  -0.00631072  0.40405210  0.51150586  1
  Ta  Ta93  1  0.11546708  0.89752854  0.12099232  1
  Ta  Ta94  1  0.31347758  0.91251096  0.12418600  1
  Ta  Ta95  1  0.59433767  0.59554731  0.73585647  1
  Ta  Ta96  1  0.40149770  0.60961323  0.74261678  1
  Ta  Ta97  1  0.08689530  0.29910271  0.38452326  1
  Ta  Ta98  1  0.90612203  0.90549649  0.89626902  1
  Ta  Ta99  1  0.09000623  0.09882238  0.63917827  1
  Ta  Ta100  1  0.71025174  0.69704743  0.61536029  1
  Ta  Ta101  1  0.20720055  0.00353385  0.00083014  1
  Ta  Ta102  1  0.40541974  -0.00023562  -0.00430654  1
  Ta  Ta103  1  0.80971078  0.79539184  0.49539063  1
  Ta  Ta104  1  0.00914679  0.60872675  0.72916418  1
  Ta  Ta105  1  0.49525151  0.09228942  0.36994888  1
  Ta  Ta106  1  0.88706886  0.27663253  0.63393744  1
  Ta  Ta107  1  0.60386245  0.01083327  0.50222468  1
  Ta  Ta108  1  0.00485160  0.60635074  0.51627697  1
  Ta  Ta109  1  0.89135637  0.90384484  0.62633835  1
  Ta  Ta110  1  0.59757218  0.59567574  0.25770724  1
  Ta  Ta111  1  0.10140575  0.30377132  0.12051567  1
  Ta  Ta112  1  0.51515218  0.29765800  0.86838600  1
  Ta  Ta113  1  0.29325361  0.69795350  0.61614852  1
  Ta  Ta114  1  0.00355404  0.21515870  0.24680866  1
  Ta  Ta115  1  0.80983371  -0.00149189  0.23567389  1
  Ta  Ta116  1  0.19091257  0.18752734  0.50685422  1
  Ta  Ta117  1  0.19042876  0.19945854  -0.00318225  1
  Ta  Ta118  1  0.19278537  0.60798218  0.25277106  1
  Ta  Ta119  1  0.40554843  0.00163558  0.50199667  1
  Ti  Ti120  1  0.49750101  0.69813345  0.13987832  1
  Ti  Ti121  1  0.40181248  -0.01013646  0.74748806  1
  Ti  Ti122  1  0.90442716  0.50343643  0.38166976  1
  Ti  Ti123  1  0.20213576  -0.00129558  0.49522113  1
  Ti  Ti124  1  0.69950196  0.69971061  0.87556157  1
  Ti  Ti125  1  0.50666093  0.69431997  0.87167053  1
  Ti  Ti126  1  0.88886786  0.69030867  0.36063132  1
  Ti  Ti127  1  0.49699797  0.69586576  0.36985228  1
  Ti  Ti128  1  0.48451528  0.07954105  0.13302362  1
  Ti  Ti129  1  0.49816436  0.09389974  0.86829881  1
  Ti  Ti130  1  0.49857125  0.50488847  0.86968195  1
  Ti  Ti131  1  0.80937416  0.60527736  0.50276367  1
  Ti  Ti132  1  0.00100411  0.79506026  0.51293105  1
  Ti  Ti133  1  0.51033060  0.89537346  0.88358490  1
  Ti  Ti134  1  0.30681454  0.90155484  0.87555623  1
  Ti  Ti135  1  -0.01508993  0.79889830  0.74125598  1
  Ti  Ti136  1  0.09535024  0.50010147  0.13574155  1
  Ti  Ti137  1  0.61102126  0.20042268  0.49745833  1
  Ti  Ti138  1  0.59425488  -0.01269316  0.01352259  1
  Ti  Ti139  1  0.80986318  0.01459904  0.50102661  1
  Ti  Ti140  1  0.60666377  0.78220412  0.01079496  1
  Ti  Ti141  1  0.60885222  0.79294087  0.24501119  1
  Ti  Ti142  1  0.29677618  0.51335130  0.86988566  1
  Ti  Ti143  1  0.29564853  0.51455283  0.36538329  1
  Ti  Ti144  1  0.79761110  0.20352954  0.23522019  1
  Ti  Ti145  1  0.38861397  0.17866448  0.25562590  1
  Ti  Ti146  1  0.08882958  0.71278913  0.14099271  1
  Ti  Ti147  1  0.50699390  0.28509028  0.37329009  1
  Ti  Ti148  1  -0.01423052  0.00045609  0.74791892  1
  Ti  Ti149  1  0.41688628  0.19784109  0.75164810  1
  Ti  Ti150  1  0.40760075  0.40549170  0.47666355  1
  Ti  Ti151  1  0.01502306  -0.01153519  0.25187545  1
  Ti  Ti152  1  -0.01177357  0.58987377  0.24517079  1
  Ti  Ti153  1  0.59493731  0.39817732  0.49176475  1
  Ti  Ti154  1  0.09295174  0.29441384  0.87383215  1
  Ti  Ti155  1  0.18424213  0.19903717  0.74925379  1
  Ti  Ti156  1  0.59609057  0.40207797  0.74405886  1
  Ti  Ti157  1  0.30616024  0.69972260  0.87033309  1
  Ti  Ti158  1  0.59684106  0.19181182  0.24155995  1
  Ti  Ti159  1  0.70464177  0.29389720  0.37905119  1
  Mo  Mo160  1  0.68918283  0.68876486  0.14207699  1
  Mo  Mo161  1  -0.00018384  0.39999427  0.25028643  1
  Mo  Mo162  1  0.00817065  0.79839920  0.00151334  1
  Mo  Mo163  1  0.79764311  0.80793665  0.25887632  1
  Mo  Mo164  1  0.10556503  0.70246036  0.62378741  1
  Mo  Mo165  1  0.61475329  0.79808552  0.49164678  1
  Mo  Mo166  1  0.10423637  0.50939626  0.86972567  1
  Mo  Mo167  1  0.79401861  0.40789864  -0.00796014  1
  Mo  Mo168  1  0.29443538  0.70317662  0.35740649  1
  Mo  Mo169  1  0.90333858  0.09010903  0.63326194  1
  Mo  Mo170  1  0.00574258  0.80368988  0.24760817  1
  Mo  Mo171  1  0.68449661  0.49779139  0.62266108  1
  Mo  Mo172  1  0.19323583  0.60690289  0.49144447  1
  Mo  Mo173  1  0.90024470  0.10039906  0.13324559  1
  Mo  Mo174  1  0.69730811  0.50786220  0.13269930  1
  Mo  Mo175  1  -0.00606401  0.19904413  0.74884224  1
  Mo  Mo176  1  0.80647893  0.81331838  0.75150745  1
  Mo  Mo177  1  0.10678509  0.90291720  0.38350278  1
  Mo  Mo178  1  0.80138203  0.20018179  0.75777321  1
  Mo  Mo179  1  0.58862146  0.39788239  -0.00258415  1
  Mo  Mo180  1  0.10107242  0.50867305  0.61467076  1
  Mo  Mo181  1  0.90025743  0.71304853  0.62084602  1
  Mo  Mo182  1  0.79947035  0.00641376  0.01538095  1
  Mo  Mo183  1  0.50124081  0.90650542  0.60935300  1
  Mo  Mo184  1  0.00951572  0.20074115  0.00201644  1
  Mo  Mo185  1  0.49898803  0.49750548  0.37557065  1
  Mo  Mo186  1  0.79220774  0.20004779  0.50281426  1
  Mo  Mo187  1  0.20191658  -0.00101215  0.74821864  1
  Mo  Mo188  1  0.79242169  0.60113712  0.25499640  1
  Mo  Mo189  1  0.19396100  0.20244867  0.24514718  1
  Mo  Mo190  1  0.40020554  0.60519487  0.26324757  1
  Mo  Mo191  1  0.40718241  -0.00058224  0.25374946  1
  Mo  Mo192  1  0.30482321  0.09462766  0.38567004  1
  Mo  Mo193  1  0.50219350  0.89266550  0.11799722  1
  Mo  Mo194  1  0.79633038  0.19396856  0.00870897  1
  Mo  Mo195  1  0.80475707  0.79101577  0.00019692  1
  Mo  Mo196  1  0.80762181  -0.01723531  0.75484277  1
  Mo  Mo197  1  0.60993695  0.21499604  0.75656813  1
  Mo  Mo198  1  0.39778781  0.79789812  0.48250802  1
  Mo  Mo199  1  0.01555877  0.00431794  0.00268496  1
