# generated using pymatgen
data_HfZrTaTiMo
_symmetry_space_group_name_H-M   'P 1'
_cell_length_a   15.18836764
_cell_length_b   15.18518681
_cell_length_c   16.80935891
_cell_angle_alpha   89.97055581
_cell_angle_beta   89.98317284
_cell_angle_gamma   89.88107102
_symmetry_Int_Tables_number   1
_chemical_formula_structural   HfZrTaTiMo
_chemical_formula_sum   'Hf40 Zr40 Ta40 Ti40 Mo40'
_cell_volume   3876.87125309
_cell_formula_units_Z   40
loop_
 _symmetry_equiv_pos_site_id
 _symmetry_equiv_pos_as_xyz
  1  'x, y, z'
loop_
 _atom_site_type_symbol
 _atom_site_label
 _atom_site_symmetry_multiplicity
 _atom_site_fract_x
 _atom_site_fract_y
 _atom_site_fract_z
 _atom_site_occupancy
  Hf  Hf0  1  0.32843096  0.89197599  0.12491226  1
  Hf  Hf1  1  0.49816659  0.49243252  0.61758458  1
  Hf  Hf2  1  0.60285229  0.59934012  0.48310694  1
  Hf  Hf3  1  0.51082677  0.11405835  0.87017408  1
  Hf  Hf4  1  0.77969375  0.61175996  0.74878640  1
  Hf  Hf5  1  0.51242917  0.70310622  0.60981736  1
  Hf  Hf6  1  0.21800954  0.79149715  0.26930177  1
  Hf  Hf7  1  0.69410713  0.29434114  0.37428757  1
  Hf  Hf8  1  0.68201941  0.50625568  0.12179265  1
  Hf  Hf9  1  0.79375810  0.40109174  0.23825416  1
  Hf  Hf10  1  -0.00194590  0.59570444  0.22655169  1
  Hf  Hf11  1  0.50238977  0.90968093  0.88263392  1
  Hf  Hf12  1  0.19305815  0.59956435  0.50869116  1
  Hf  Hf13  1  0.30096783  0.10426589  0.36911392  1
  Hf  Hf14  1  0.30717186  0.70515254  0.61200601  1
  Hf  Hf15  1  0.62526849  0.00955983  0.00217506  1
  Hf  Hf16  1  0.78716949  0.38909321  -0.00275411  1
  Hf  Hf17  1  0.50339728  0.90272348  0.61241972  1
  Hf  Hf18  1  0.19235116  0.59793617  0.00411752  1
  Hf  Hf19  1  0.67576600  0.51259177  0.88943825  1
  Hf  Hf20  1  0.19394449  0.19262069  -0.00371267  1
  Hf  Hf21  1  0.39809840  0.40222605  0.74744149  1
  Hf  Hf22  1  0.08617799  0.48212667  0.38445016  1
  Hf  Hf23  1  0.11916944  0.88718354  0.11468158  1
  Hf  Hf24  1  0.09474960  0.68473549  0.37535265  1
  Hf  Hf25  1  0.89264694  0.70606700  0.63622677  1
  Hf  Hf26  1  -0.00068339  0.78266428  0.01378988  1
  Hf  Hf27  1  0.21074879  0.59555797  0.73968999  1
  Hf  Hf28  1  0.58179793  0.81113641  0.27294435  1
  Hf  Hf29  1  0.90017706  0.30784251  0.38195658  1
  Hf  Hf30  1  0.77575521  0.40040775  0.75639590  1
  Hf  Hf31  1  0.29933344  0.68813182  0.87637096  1
  Hf  Hf32  1  0.07941616  0.28382074  0.11536255  1
  Hf  Hf33  1  -0.01911295  0.39886144  0.52604819  1
  Hf  Hf34  1  0.09921069  0.49189137  0.63255745  1
  Hf  Hf35  1  0.20148614  0.58311631  0.24405000  1
  Hf  Hf36  1  0.57638239  0.40055635  0.01052083  1
  Hf  Hf37  1  0.59611462  0.20276552  0.50542881  1
  Hf  Hf38  1  0.80031733  0.59675805  0.50880332  1
  Hf  Hf39  1  0.09795227  0.50131474  0.86122068  1
  Zr  Zr40  1  0.21778831  0.19250187  0.75527217  1
  Zr  Zr41  1  -0.00791145  0.38942685  -0.01251589  1
  Zr  Zr42  1  0.50582339  0.11999325  0.36212882  1
  Zr  Zr43  1  0.19589576  0.39450630  -0.01565796  1
  Zr  Zr44  1  0.89735269  0.69956131  0.36874370  1
  Zr  Zr45  1  0.68874785  0.71544291  0.13515224  1
  Zr  Zr46  1  0.61328252  0.78906380  0.76197839  1
  Zr  Zr47  1  0.30925950  0.29679490  0.36774588  1
  Zr  Zr48  1  0.91043281  0.12244907  0.11038018  1
  Zr  Zr49  1  -0.00112055  0.80124422  0.24034129  1
  Zr  Zr50  1  0.51660898  0.10955709  0.13638538  1
  Zr  Zr51  1  0.89969618  0.70794504  0.86640080  1
  Zr  Zr52  1  0.40611484  0.79486755  -0.00974611  1
  Zr  Zr53  1  0.39814648  0.00950418  0.74530181  1
  Zr  Zr54  1  0.00943428  0.19563978  0.51795260  1
  Zr  Zr55  1  0.30296727  0.30943884  0.12845647  1
  Zr  Zr56  1  0.29734788  0.69606529  0.12251611  1
  Zr  Zr57  1  0.00926996  0.00112555  0.74818119  1
  Zr  Zr58  1  0.60425925  0.00633961  0.74167897  1
  Zr  Zr59  1  -0.00091083  -0.00180482  0.50279936  1
  Zr  Zr60  1  0.22414909  -0.00151660  0.00164412  1
  Zr  Zr61  1  0.89258844  0.50468525  0.87555762  1
  Zr  Zr62  1  0.80125976  0.00940614  0.74292075  1
  Zr  Zr63  1  0.90426614  0.89418385  0.63270058  1
  Zr  Zr64  1  0.10597267  0.88577678  0.88455559  1
  Zr  Zr65  1  0.28789348  0.49375976  0.38924296  1
  Zr  Zr66  1  0.40737348  0.20360525  0.00438228  1
  Zr  Zr67  1  0.20446756  -0.00949175  0.25204908  1
  Zr  Zr68  1  0.40594604  0.79677845  0.75476245  1
  Zr  Zr69  1  0.79328840  0.00096601  0.51439565  1
  Zr  Zr70  1  0.30507151  0.90392623  0.61046027  1
  Zr  Zr71  1  0.10708789  0.28310820  0.38171072  1
  Zr  Zr72  1  0.19581779  0.18798968  0.23432381  1
  Zr  Zr73  1  0.58949395  0.59320497  0.26496364  1
  Zr  Zr74  1  0.88677748  0.91228810  0.11630004  1
  Zr  Zr75  1  0.89466925  0.50421116  0.37099716  1
  Zr  Zr76  1  0.69021570  0.27716082  0.12725665  1
  Zr  Zr77  1  0.80418592  0.19268406  0.25049390  1
  Zr  Zr78  1  0.00482570  0.00840347  0.24711184  1
  Zr  Zr79  1  0.11076319  0.89390624  0.62204495  1
  Ta  Ta80  1  0.47510067  0.51061781  0.13002173  1
  Ta  Ta81  1  0.41690738  -0.01816706  0.26128152  1
  Ta  Ta82  1  0.90448213  0.10328598  0.87364411  1
  Ta  Ta83  1  0.79236832  0.18784594  -0.01227182  1
  Ta  Ta84  1  0.70827426  0.09375070  0.38169367  1
  Ta  Ta85  1  0.58025039  0.38635531  0.24932062  1
  Ta  Ta86  1  0.60693188  0.79217623  -0.00853574  1
  Ta  Ta87  1  0.20169656  0.79659741  0.75052831  1
  Ta  Ta88  1  0.01140438  0.01161008  -0.00177357  1
  Ta  Ta89  1  0.10356815  0.29198815  0.64361013  1
  Ta  Ta90  1  0.89270043  0.49451615  0.11434719  1
  Ta  Ta91  1  0.21048157  -0.00846430  0.75747544  1
  Ta  Ta92  1  0.61106232  0.80840064  0.48128474  1
  Ta  Ta93  1  0.90581335  0.90364011  0.87793551  1
  Ta  Ta94  1  -0.00742747  0.59850030  0.51813412  1
  Ta  Ta95  1  0.40571940  0.80386607  0.47215618  1
  Ta  Ta96  1  0.39398438  0.41745408  0.25396153  1
  Ta  Ta97  1  0.79340462  0.61498248  0.00910948  1
  Ta  Ta98  1  0.62221624  -0.00047044  0.25083901  1
  Ta  Ta99  1  0.38740194  0.41090910  -0.00613100  1
  Ta  Ta100  1  0.58873746  0.59563128  0.74949253  1
  Ta  Ta101  1  0.70141649  0.49203679  0.36968851  1
  Ta  Ta102  1  0.20018353  0.80506178  0.48104670  1
  Ta  Ta103  1  0.00134188  0.20036049  0.25530041  1
  Ta  Ta104  1  0.78870278  0.81711443  0.25352760  1
  Ta  Ta105  1  0.39534907  0.61606438  0.27051408  1
  Ta  Ta106  1  0.39749563  0.20456659  0.50538094  1
  Ta  Ta107  1  0.79894821  0.79780181  0.49438720  1
  Ta  Ta108  1  0.19840160  0.01429698  0.48870659  1
  Ta  Ta109  1  -0.00528981  0.39212284  0.23842280  1
  Ta  Ta110  1  0.90576496  0.10451773  0.38171115  1
  Ta  Ta111  1  0.71346256  0.90475558  0.87350754  1
  Ta  Ta112  1  0.50428030  0.31478796  0.86802060  1
  Ta  Ta113  1  0.68319255  0.31134802  0.62519282  1
  Ta  Ta114  1  -0.00067687  0.79175640  0.49508378  1
  Ta  Ta115  1  0.79428317  0.80933750  0.00005113  1
  Ta  Ta116  1  0.80338426  0.20514719  0.50904790  1
  Ta  Ta117  1  0.49172032  0.70827823  0.13287308  1
  Ta  Ta118  1  0.69075719  0.50626499  0.62526621  1
  Ta  Ta119  1  0.10414871  0.09699907  0.86954144  1
  Ti  Ti120  1  0.51740722  0.90109410  0.11970203  1
  Ti  Ti121  1  0.88616381  0.28798143  0.85969876  1
  Ti  Ti122  1  0.89443819  0.90424621  0.37715686  1
  Ti  Ti123  1  -0.00251966  0.59950200  0.73907254  1
  Ti  Ti124  1  0.70846571  0.69869071  0.36556727  1
  Ti  Ti125  1  0.88426284  0.28904827  0.64350714  1
  Ti  Ti126  1  0.18783354  0.39319208  0.24609684  1
  Ti  Ti127  1  0.40675693  0.01020910  0.49144975  1
  Ti  Ti128  1  0.40176184  0.59470636  -0.00031392  1
  Ti  Ti129  1  0.11062978  0.09933942  0.63541918  1
  Ti  Ti130  1  0.31911618  0.09118513  0.13351319  1
  Ti  Ti131  1  0.30139694  0.10115999  0.61871931  1
  Ti  Ti132  1  0.70244139  0.87632795  0.62889024  1
  Ti  Ti133  1  -0.00523833  0.59589415  0.01262708  1
  Ti  Ti134  1  0.60204906  0.00519299  0.50198603  1
  Ti  Ti135  1  0.70458614  0.11773294  0.62933983  1
  Ti  Ti136  1  0.48246670  0.50976869  0.87485665  1
  Ti  Ti137  1  0.20497187  0.39618469  0.75392515  1
  Ti  Ti138  1  0.40313110  0.60237543  0.74628265  1
  Ti  Ti139  1  0.19933426  0.37528122  0.51397157  1
  Ti  Ti140  1  0.30956749  0.29297972  0.62912899  1
  Ti  Ti141  1  0.10185986  0.48652701  0.11865778  1
  Ti  Ti142  1  0.60683982  0.22199176  0.75158617  1
  Ti  Ti143  1  0.08590672  0.28797696  0.85374693  1
  Ti  Ti144  1  0.09458664  0.90414224  0.37757165  1
  Ti  Ti145  1  0.79976409  0.60589841  0.23569120  1
  Ti  Ti146  1  0.30228552  0.89655138  0.87874399  1
  Ti  Ti147  1  0.31572348  0.09341631  0.87955958  1
  Ti  Ti148  1  0.78805478  0.40148413  0.51255787  1
  Ti  Ti149  1  0.60785224  0.20796635  -0.00953165  1
  Ti  Ti150  1  0.30986236  0.29639532  0.87102361  1
  Ti  Ti151  1  -0.01409040  0.39661274  0.74432025  1
  Ti  Ti152  1  0.09667594  0.69627304  0.86784576  1
  Ti  Ti153  1  0.30216019  0.49243316  0.61303729  1
  Ti  Ti154  1  0.49718964  0.11976442  0.63266096  1
  Ti  Ti155  1  0.80576677  0.00252345  0.25354785  1
  Ti  Ti156  1  0.40289253  0.59850483  0.48266006  1
  Ti  Ti157  1  0.40621730  0.39030220  0.49987101  1
  Ti  Ti158  1  0.09743140  0.70720432  0.62701207  1
  Ti  Ti159  1  0.59439201  0.40022373  0.49048557  1
  Mo  Mo160  1  0.60764141  0.19772650  0.25360616  1
  Mo  Mo161  1  0.30112206  0.49479216  0.86901759  1
  Mo  Mo162  1  -0.00221374  0.20122105  -0.02390323  1
  Mo  Mo163  1  0.89981409  0.11045506  0.62846655  1
  Mo  Mo164  1  0.58010748  0.61026655  0.00914542  1
  Mo  Mo165  1  0.69437664  0.90582448  0.12652150  1
  Mo  Mo166  1  0.89559393  0.30444588  0.11860539  1
  Mo  Mo167  1  0.09830041  0.69235189  0.12717520  1
  Mo  Mo168  1  0.88755136  0.69811349  0.12499946  1
  Mo  Mo169  1  0.49929306  0.29950407  0.62774620  1
  Mo  Mo170  1  0.49600658  0.48741240  0.37939738  1
  Mo  Mo171  1  0.20992808  0.19660702  0.51573315  1
  Mo  Mo172  1  0.80128126  0.80841750  0.75949702  1
  Mo  Mo173  1  0.41129358  0.21351181  0.23809658  1
  Mo  Mo174  1  0.10472508  0.09316489  0.11391237  1
  Mo  Mo175  1  0.41039451  0.20472883  0.74942630  1
  Mo  Mo176  1  0.01091447  0.79187532  0.75377289  1
  Mo  Mo177  1  0.50917778  0.68354055  0.87851974  1
  Mo  Mo178  1  0.71465758  0.08378387  0.12614884  1
  Mo  Mo179  1  0.49461723  0.30982602  0.12781077  1
  Mo  Mo180  1  0.89000878  0.49470940  0.63794491  1
  Mo  Mo181  1  0.30305725  0.90962109  0.38513959  1
  Mo  Mo182  1  -0.00202368  0.19924708  0.74701412  1
  Mo  Mo183  1  0.50265312  0.69884209  0.38604170  1
  Mo  Mo184  1  0.81033021  0.00046667  -0.01198936  1
  Mo  Mo185  1  0.20161791  0.79030297  -0.00867888  1
  Mo  Mo186  1  0.59217468  0.41348420  0.75282875  1
  Mo  Mo187  1  0.40415516  0.80149746  0.26909964  1
  Mo  Mo188  1  0.50792127  0.92080641  0.38931862  1
  Mo  Mo189  1  0.70117064  0.70122320  0.88683028  1
  Mo  Mo190  1  0.09655769  0.09788012  0.37767435  1
  Mo  Mo191  1  0.79301648  0.20320223  0.75155695  1
  Mo  Mo192  1  0.49690010  0.30796248  0.37564749  1
  Mo  Mo193  1  0.71006833  0.90658176  0.37907359  1
  Mo  Mo194  1  0.70719685  0.11179023  0.86563533  1
  Mo  Mo195  1  0.29640366  0.49949309  0.12931544  1
  Mo  Mo196  1  0.41548146  0.00384307  0.00408554  1
  Mo  Mo197  1  0.68879995  0.29842384  0.87843392  1
  Mo  Mo198  1  0.69435405  0.70521381  0.61758673  1
  Mo  Mo199  1  0.29506556  0.69529550  0.38534689  1
