# generated using pymatgen
data_HfZrTaTiMo
_symmetry_space_group_name_H-M   'P 1'
_cell_length_a   15.20607581
_cell_length_b   15.21959878
_cell_length_c   16.85147217
_cell_angle_alpha   89.98464594
_cell_angle_beta   89.99135630
_cell_angle_gamma   89.94561559
_symmetry_Int_Tables_number   1
_chemical_formula_structural   HfZrTaTiMo
_chemical_formula_sum   'Hf40 Zr40 Ta40 Ti40 Mo40'
_cell_volume   3899.94054720
_cell_formula_units_Z   40
loop_
 _symmetry_equiv_pos_site_id
 _symmetry_equiv_pos_as_xyz
  1  'x, y, z'
loop_
 _atom_site_type_symbol
 _atom_site_label
 _atom_site_symmetry_multiplicity
 _atom_site_fract_x
 _atom_site_fract_y
 _atom_site_fract_z
 _atom_site_occupancy
  Hf  Hf0  1  0.81822662  0.79306614  0.49754755  1
  Hf  Hf1  1  0.49940982  0.09833668  0.87623985  1
  Hf  Hf2  1  0.90643683  0.50778465  0.62363227  1
  Hf  Hf3  1  -0.00747631  0.20619115  0.49862703  1
  Hf  Hf4  1  0.69279017  0.08712316  0.12247205  1
  Hf  Hf5  1  0.00198478  0.18652260  -0.01223007  1
  Hf  Hf6  1  0.29453782  0.10092542  0.87358967  1
  Hf  Hf7  1  0.00301408  -0.00425095  0.73996130  1
  Hf  Hf8  1  -0.01154247  0.61872846  0.49237173  1
  Hf  Hf9  1  0.29950721  0.70819113  0.62373123  1
  Hf  Hf10  1  0.10435347  0.10362365  0.12521249  1
  Hf  Hf11  1  0.68802476  0.08137875  0.38489292  1
  Hf  Hf12  1  0.37913890  0.39326130  0.51147238  1
  Hf  Hf13  1  0.70646952  0.28935969  0.39127580  1
  Hf  Hf14  1  0.60829839  0.80506459  0.25319363  1
  Hf  Hf15  1  0.39675856  0.41566841  0.01353837  1
  Hf  Hf16  1  0.70860110  0.88706544  0.11879360  1
  Hf  Hf17  1  0.40559921  0.81917008  0.50272442  1
  Hf  Hf18  1  0.40660602  0.80490759  -0.00520113  1
  Hf  Hf19  1  0.20269787  0.80964196  0.75225414  1
  Hf  Hf20  1  0.11371319  0.49928078  0.62396927  1
  Hf  Hf21  1  0.09826659  0.09216583  0.61325016  1
  Hf  Hf22  1  0.09326439  0.70576951  0.62899954  1
  Hf  Hf23  1  0.59816949  0.57913288  0.00675841  1
  Hf  Hf24  1  0.50103127  0.70909177  0.38322592  1
  Hf  Hf25  1  0.60446448  0.80038305  0.76579708  1
  Hf  Hf26  1  0.49206178  0.09488991  0.11469708  1
  Hf  Hf27  1  0.90195177  0.08082053  0.87279275  1
  Hf  Hf28  1  0.10656556  0.70911115  0.88377477  1
  Hf  Hf29  1  0.38639469  0.39935041  0.73468752  1
  Hf  Hf30  1  0.00611522  0.21095667  0.26146002  1
  Hf  Hf31  1  0.59418694  0.38435229  0.72377434  1
  Hf  Hf32  1  0.80016810  0.19338029  0.25133379  1
  Hf  Hf33  1  0.60082157  0.39346081  0.24921205  1
  Hf  Hf34  1  0.39823660  0.00768957  0.24608280  1
  Hf  Hf35  1  0.80119471  0.40177843  0.24418122  1
  Hf  Hf36  1  0.79927380  -0.01062592  0.25118707  1
  Hf  Hf37  1  0.60018863  0.20841867  -0.00293780  1
  Hf  Hf38  1  0.00666016  0.40106080  0.75650317  1
  Hf  Hf39  1  0.76962452  0.40253353  0.00670276  1
  Zr  Zr40  1  0.17805495  0.38968454  0.25962200  1
  Zr  Zr41  1  0.19130594  0.21715405  -0.01746626  1
  Zr  Zr42  1  0.20325498  0.59512645  0.75546595  1
  Zr  Zr43  1  0.39186561  0.41190335  0.24377374  1
  Zr  Zr44  1  -0.00241236  0.60982709  0.00028086  1
  Zr  Zr45  1  0.49242294  0.50845604  0.61308786  1
  Zr  Zr46  1  0.60206381  0.59355103  0.75063637  1
  Zr  Zr47  1  0.20877023  0.18207512  0.26222583  1
  Zr  Zr48  1  0.59738576  0.19135657  0.73248009  1
  Zr  Zr49  1  0.70737605  0.10574727  0.87135934  1
  Zr  Zr50  1  0.49848952  0.29312273  0.37989521  1
  Zr  Zr51  1  0.60469811  -0.01336804  0.74577705  1
  Zr  Zr52  1  0.70908055  0.68770145  0.38869584  1
  Zr  Zr53  1  0.30370614  0.90449429  0.37533834  1
  Zr  Zr54  1  0.49913443  0.29808777  0.12862605  1
  Zr  Zr55  1  0.89139133  0.50334591  0.88181338  1
  Zr  Zr56  1  0.88374006  0.50921570  0.38161279  1
  Zr  Zr57  1  0.79829350  0.38867093  0.74152156  1
  Zr  Zr58  1  -0.00347599  0.60974506  0.24951432  1
  Zr  Zr59  1  0.40941445  0.80593439  0.75761055  1
  Zr  Zr60  1  0.28166148  0.29737618  0.12649623  1
  Zr  Zr61  1  0.59681073  0.59398906  0.24444779  1
  Zr  Zr62  1  0.89568062  0.50601076  0.11753424  1
  Zr  Zr63  1  0.19046316  0.20733627  0.75560590  1
  Zr  Zr64  1  0.91538961  0.30055534  0.11574706  1
  Zr  Zr65  1  0.09385605  0.50429850  0.37256204  1
  Zr  Zr66  1  0.50967482  0.48851215  0.87215607  1
  Zr  Zr67  1  0.70849442  0.70445401  0.62741666  1
  Zr  Zr68  1  0.70701652  0.50175314  0.60272233  1
  Zr  Zr69  1  0.58383029  0.17478652  0.50951304  1
  Zr  Zr70  1  0.20092880  0.20685157  0.49533719  1
  Zr  Zr71  1  0.69185603  0.49052712  0.39948702  1
  Zr  Zr72  1  0.88294115  0.29415181  0.88284584  1
  Zr  Zr73  1  0.21846473  0.59744930  0.01294917  1
  Zr  Zr74  1  0.70634372  0.68683799  0.87725391  1
  Zr  Zr75  1  0.09866267  0.71923487  0.12272961  1
  Zr  Zr76  1  0.09803571  0.47628723  0.11851930  1
  Zr  Zr77  1  0.49493908  0.50212086  0.39196440  1
  Zr  Zr78  1  0.19918813  0.61058013  0.49543060  1
  Zr  Zr79  1  -0.01874687  0.20121517  0.74426028  1
  Ta  Ta80  1  0.67999278  0.31226896  0.86888208  1
  Ta  Ta81  1  0.20906990  0.60209686  0.24198878  1
  Ta  Ta82  1  0.59373179  0.38013802  0.52035694  1
  Ta  Ta83  1  0.29850171  0.50739927  0.37178159  1
  Ta  Ta84  1  0.31056864  0.69759717  0.88224667  1
  Ta  Ta85  1  0.90008379  0.09087333  0.12139791  1
  Ta  Ta86  1  0.30976289  0.91997623  0.62211800  1
  Ta  Ta87  1  0.89477084  0.09708052  0.38565799  1
  Ta  Ta88  1  0.10687565  0.49163055  0.88819759  1
  Ta  Ta89  1  0.39772193  -0.00167429  0.75620698  1
  Ta  Ta90  1  0.09615500  0.91155181  0.87513064  1
  Ta  Ta91  1  0.39124132  0.20504849  -0.00499713  1
  Ta  Ta92  1  0.70535006  0.89573144  0.38395369  1
  Ta  Ta93  1  0.90695417  0.71173271  0.86722840  1
  Ta  Ta94  1  0.80619853  -0.00845481  -0.00106844  1
  Ta  Ta95  1  0.79297934  0.60722934  0.24187074  1
  Ta  Ta96  1  0.19244196  -0.01026068  0.24795752  1
  Ta  Ta97  1  0.01512547  0.80907235  0.49520534  1
  Ta  Ta98  1  0.91055239  0.90954418  0.38308072  1
  Ta  Ta99  1  0.00121824  0.40108457  0.50135573  1
  Ta  Ta100  1  0.90293890  0.90817590  0.61357097  1
  Ta  Ta101  1  0.31103373  0.71086930  0.12680736  1
  Ta  Ta102  1  0.59398978  0.17761973  0.25524874  1
  Ta  Ta103  1  0.81354244  0.80254097  -0.00929535  1
  Ta  Ta104  1  0.50449387  0.70646678  0.12018456  1
  Ta  Ta105  1  0.30099333  0.70409745  0.36841074  1
  Ta  Ta106  1  0.70293794  0.69762044  0.11751096  1
  Ta  Ta107  1  0.20234661  0.00173529  0.74741947  1
  Ta  Ta108  1  0.72296461  0.27591230  0.60862172  1
  Ta  Ta109  1  0.09595002  0.08584600  0.38404455  1
  Ta  Ta110  1  0.39988558  0.60382209  0.75096212  1
  Ta  Ta111  1  0.89180051  0.71794191  0.12630591  1
  Ta  Ta112  1  0.29440367  0.90278032  0.88064408  1
  Ta  Ta113  1  0.39933713  0.61205197  0.24651801  1
  Ta  Ta114  1  0.29752042  0.30416411  0.37312935  1
  Ta  Ta115  1  0.00754145  0.81968910  0.25810997  1
  Ta  Ta116  1  0.00438708  -0.01691441  0.00397807  1
  Ta  Ta117  1  0.50841983  0.90019657  0.12159215  1
  Ta  Ta118  1  0.30681654  0.49738405  0.87812159  1
  Ta  Ta119  1  0.50392644  0.70661188  0.61970082  1
  Ti  Ti120  1  0.10828976  0.90330544  0.38413450  1
  Ti  Ti121  1  0.80182942  -0.00064149  0.74187359  1
  Ti  Ti122  1  0.79632927  0.19256826  0.00669982  1
  Ti  Ti123  1  0.81309166  0.79435865  0.26144910  1
  Ti  Ti124  1  0.47255839  0.27592499  0.61890414  1
  Ti  Ti125  1  0.29773823  0.91172701  0.12107999  1
  Ti  Ti126  1  0.60446845  0.79492202  -0.01709705  1
  Ti  Ti127  1  0.48621547  0.30170083  0.87487621  1
  Ti  Ti128  1  0.51372839  0.92154442  0.37669679  1
  Ti  Ti129  1  0.10939268  0.71501114  0.36821206  1
  Ti  Ti130  1  0.69681412  0.29212838  0.12945479  1
  Ti  Ti131  1  0.70675108  0.07654588  0.60929435  1
  Ti  Ti132  1  0.48199487  0.07339281  0.62613707  1
  Ti  Ti133  1  0.20263356  0.39594139  0.75672272  1
  Ti  Ti134  1  0.60178253  -0.01701741  -0.01429093  1
  Ti  Ti135  1  0.39246423  0.60652284  0.50156067  1
  Ti  Ti136  1  0.39987691  0.19809343  0.25680634  1
  Ti  Ti137  1  0.88560528  0.10888247  0.61230549  1
  Ti  Ti138  1  0.39083450  0.20355586  0.75450609  1
  Ti  Ti139  1  0.38677892  0.18540556  0.49147129  1
  Ti  Ti140  1  0.30137841  0.11239613  0.63110076  1
  Ti  Ti141  1  0.91384504  0.89839575  0.12727566  1
  Ti  Ti142  1  0.00010842  0.80779205  0.74922262  1
  Ti  Ti143  1  0.19422639  0.40034416  0.49372746  1
  Ti  Ti144  1  0.80497304  0.81657518  0.75646098  1
  Ti  Ti145  1  0.00057313  0.00625040  0.25046001  1
  Ti  Ti146  1  0.90197711  0.30934000  0.37710994  1
  Ti  Ti147  1  0.39525577  0.00013404  -0.00260055  1
  Ti  Ti148  1  0.09758387  0.30286799  0.62452054  1
  Ti  Ti149  1  0.90215802  0.70698343  0.63794148  1
  Ti  Ti150  1  0.79554398  0.60453468  0.00382879  1
  Ti  Ti151  1  0.11318158  0.89844960  0.61152209  1
  Ti  Ti152  1  0.60790755  0.80853852  0.50789084  1
  Ti  Ti153  1  0.19757163  0.00889709  0.00069317  1
  Ti  Ti154  1  0.21685075  0.00203421  0.49921312  1
  Ti  Ti155  1  0.20668540  0.80425669  0.24345306  1
  Ti  Ti156  1  0.19523859  0.81848832  0.00541227  1
  Ti  Ti157  1  0.00354008  0.60315173  0.76114490  1
  Ti  Ti158  1  0.80636416  0.59891107  0.75360684  1
  Ti  Ti159  1  0.40531189  0.80705742  0.24530125  1
  Mo  Mo160  1  0.71158907  0.90087493  0.88305024  1
  Mo  Mo161  1  0.09255553  0.29492298  0.12292714  1
  Mo  Mo162  1  0.69503906  0.50072222  0.13189593  1
  Mo  Mo163  1  0.40633639  0.01347952  0.50069740  1
  Mo  Mo164  1  0.91224501  0.71309495  0.36436565  1
  Mo  Mo165  1  0.29895098  0.51055510  0.13562012  1
  Mo  Mo166  1  0.70408728  0.48897040  0.86756227  1
  Mo  Mo167  1  -0.01156020  0.39677477  0.25734591  1
  Mo  Mo168  1  0.80140784  0.19030521  0.48969897  1
  Mo  Mo169  1  0.59294525  0.38896924  0.00518781  1
  Mo  Mo170  1  0.81370916  0.38710535  0.50821496  1
  Mo  Mo171  1  0.49942645  0.90408130  0.88363242  1
  Mo  Mo172  1  0.20272341  0.80713130  0.50020903  1
  Mo  Mo173  1  0.09990402  0.08918219  0.87085268  1
  Mo  Mo174  1  0.90116536  0.89591835  0.86767915  1
  Mo  Mo175  1  0.30875506  0.31250386  0.87524050  1
  Mo  Mo176  1  0.50459331  0.89502058  0.62624928  1
  Mo  Mo177  1  0.29456141  0.50728966  0.62472988  1
  Mo  Mo178  1  0.01435294  0.38529533  -0.01532034  1
  Mo  Mo179  1  0.49344934  0.69241028  0.88250859  1
  Mo  Mo180  1  0.09268220  0.30097851  0.38350732  1
  Mo  Mo181  1  0.58984482  0.61189295  0.50639893  1
  Mo  Mo182  1  0.59190423  -0.01998785  0.51277387  1
  Mo  Mo183  1  -0.00126589  0.80829798  -0.00250419  1
  Mo  Mo184  1  0.78931717  0.18815021  0.74142898  1
  Mo  Mo185  1  0.71346326  0.89616806  0.62336829  1
  Mo  Mo186  1  0.49394439  0.51168819  0.12880537  1
  Mo  Mo187  1  0.00501043  -0.00043549  0.50299065  1
  Mo  Mo188  1  0.40659853  0.60979580  0.00666382  1
  Mo  Mo189  1  0.49189661  0.09361696  0.37339068  1
  Mo  Mo190  1  0.80026186  -0.00768590  0.50048316  1
  Mo  Mo191  1  0.90469415  0.30243590  0.61918784  1
  Mo  Mo192  1  0.10298467  0.90815710  0.12980599  1
  Mo  Mo193  1  0.20355426  0.40098369  -0.00699567  1
  Mo  Mo194  1  0.28628841  0.29921662  0.62359097  1
  Mo  Mo195  1  0.09487140  0.30426570  0.86759184  1
  Mo  Mo196  1  0.59848387  -0.00788477  0.24751658  1
  Mo  Mo197  1  0.30194201  0.09484542  0.11178226  1
  Mo  Mo198  1  0.80646219  0.60431672  0.50716616  1
  Mo  Mo199  1  0.30100527  0.09810742  0.37607913  1
