# generated using pymatgen
data_HfZrTaTiMo
_symmetry_space_group_name_H-M   'P 1'
_cell_length_a   15.17579585
_cell_length_b   15.17739471
_cell_length_c   16.81437121
_cell_angle_alpha   90.03377834
_cell_angle_beta   89.96522777
_cell_angle_gamma   89.99395127
_symmetry_Int_Tables_number   1
_chemical_formula_structural   HfZrTaTiMo
_chemical_formula_sum   'Hf40 Zr40 Ta40 Ti40 Mo40'
_cell_volume   3872.83663209
_cell_formula_units_Z   40
loop_
 _symmetry_equiv_pos_site_id
 _symmetry_equiv_pos_as_xyz
  1  'x, y, z'
loop_
 _atom_site_type_symbol
 _atom_site_label
 _atom_site_symmetry_multiplicity
 _atom_site_fract_x
 _atom_site_fract_y
 _atom_site_fract_z
 _atom_site_occupancy
  Hf  Hf0  1  0.11554530  0.69839821  0.64216117  1
  Hf  Hf1  1  0.41511741  0.59367820  0.77783361  1
  Hf  Hf2  1  0.29028165  0.31213033  0.62758141  1
  Hf  Hf3  1  0.60921879  0.77176925  0.49799537  1
  Hf  Hf4  1  0.41440627  0.80494710  0.50301268  1
  Hf  Hf5  1  0.78650850  0.59877827  0.76134080  1
  Hf  Hf6  1  0.18218204  0.19386719  0.01669758  1
  Hf  Hf7  1  0.89072078  0.50008462  0.62134856  1
  Hf  Hf8  1  0.00418453  0.19377760  0.74361446  1
  Hf  Hf9  1  0.20752421  0.80878615  -0.00541602  1
  Hf  Hf10  1  0.09699558  0.90159195  0.62660087  1
  Hf  Hf11  1  0.90267194  0.09247341  0.39462731  1
  Hf  Hf12  1  0.50839762  0.68271431  0.63000361  1
  Hf  Hf13  1  0.51348455  0.49665764  0.36679255  1
  Hf  Hf14  1  0.90539873  0.30616274  0.36965800  1
  Hf  Hf15  1  0.49643946  0.10708221  0.88590139  1
  Hf  Hf16  1  0.10230212  0.90677734  0.85629697  1
  Hf  Hf17  1  0.89835811  0.91136819  0.12312297  1
  Hf  Hf18  1  0.70738597  0.09105865  0.62067015  1
  Hf  Hf19  1  0.50138336  0.30413043  0.62809146  1
  Hf  Hf20  1  0.10534775  0.91319501  0.12878642  1
  Hf  Hf21  1  0.49843577  0.09314671  0.36494530  1
  Hf  Hf22  1  0.38141438  0.19484012  0.74919748  1
  Hf  Hf23  1  0.40377923  0.80640383  0.24590699  1
  Hf  Hf24  1  0.70798617  0.88595462  0.36389453  1
  Hf  Hf25  1  0.60152406  0.77890146  0.75933434  1
  Hf  Hf26  1  0.80266477  0.00774490  0.75827804  1
  Hf  Hf27  1  0.68077383  0.51474701  0.62825809  1
  Hf  Hf28  1  0.11119585  0.70381581  0.85659218  1
  Hf  Hf29  1  0.40002805  -0.00656590  0.76368347  1
  Hf  Hf30  1  -0.01289855  0.81940365  0.25552002  1
  Hf  Hf31  1  0.89359494  0.91030982  0.60605937  1
  Hf  Hf32  1  0.28499596  0.49024828  0.36155493  1
  Hf  Hf33  1  0.70818335  0.10223513  0.12780803  1
  Hf  Hf34  1  0.60963130  0.38641159  0.23038579  1
  Hf  Hf35  1  0.19629217  0.60731715  0.00557169  1
  Hf  Hf36  1  0.40408196  0.39022432  0.24103209  1
  Hf  Hf37  1  -0.01087692  0.39972163  0.75659835  1
  Hf  Hf38  1  0.19968739  0.40952632  0.76483800  1
  Hf  Hf39  1  0.88732360  0.70435045  0.37519504  1
  Zr  Zr40  1  0.68777688  0.88973523  0.62278100  1
  Zr  Zr41  1  0.81132253  -0.00609656  -0.01028018  1
  Zr  Zr42  1  0.40678525  0.60382597  0.24659256  1
  Zr  Zr43  1  0.59671026  0.19617528  0.75117692  1
  Zr  Zr44  1  0.69215045  0.30089446  0.37011283  1
  Zr  Zr45  1  0.19312900  0.59193391  0.49487394  1
  Zr  Zr46  1  0.07142434  0.29737992  0.14005631  1
  Zr  Zr47  1  0.70729677  0.29024466  0.87026159  1
  Zr  Zr48  1  0.49803537  0.07527679  0.62692945  1
  Zr  Zr49  1  0.49905548  0.09525489  0.12116040  1
  Zr  Zr50  1  -0.01188931  0.61289085  0.23380998  1
  Zr  Zr51  1  0.00371561  0.81760351  -0.00355460  1
  Zr  Zr52  1  0.19994534  0.02840324  0.73785286  1
  Zr  Zr53  1  0.20149128  0.22455877  0.49317701  1
  Zr  Zr54  1  0.20212508  0.80284745  0.25362781  1
  Zr  Zr55  1  0.79289798  0.20857424  0.49744373  1
  Zr  Zr56  1  0.81369737  -0.00267791  0.25843687  1
  Zr  Zr57  1  0.10412848  0.31311671  0.35357838  1
  Zr  Zr58  1  -0.00599563  0.59914695  0.75195412  1
  Zr  Zr59  1  0.71318702  0.69989680  0.12591545  1
  Zr  Zr60  1  0.09432048  0.49413866  0.13097554  1
  Zr  Zr61  1  0.09453763  0.29624142  0.87887683  1
  Zr  Zr62  1  0.70338213  0.31289969  0.63624196  1
  Zr  Zr63  1  0.59122549  0.19341350  0.50166957  1
  Zr  Zr64  1  0.30680827  0.49657660  0.11831605  1
  Zr  Zr65  1  0.38839117  0.78622103  0.76540402  1
  Zr  Zr66  1  0.19048508  0.18848199  0.23798119  1
  Zr  Zr67  1  0.09570153  0.91678132  0.38725844  1
  Zr  Zr68  1  0.19990803  0.60984228  0.24202818  1
  Zr  Zr69  1  0.21293716  0.79511676  0.49755218  1
  Zr  Zr70  1  0.69407310  0.68211197  0.34750275  1
  Zr  Zr71  1  0.81187282  0.80776730  0.75762013  1
  Zr  Zr72  1  0.39901553  0.60573711  0.48876395  1
  Zr  Zr73  1  0.40175093  0.40090841  0.76331975  1
  Zr  Zr74  1  0.39006308  0.39618530  0.49213121  1
  Zr  Zr75  1  0.50847392  0.89259091  0.88670014  1
  Zr  Zr76  1  0.70483120  0.69901564  0.89437301  1
  Zr  Zr77  1  0.30199391  0.10051177  0.36628158  1
  Zr  Zr78  1  0.09389097  0.69894861  0.37820548  1
  Zr  Zr79  1  0.30896061  0.89916888  0.62846248  1
  Ta  Ta80  1  0.08821568  0.09995450  0.87876047  1
  Ta  Ta81  1  0.60517376  -0.01379153  0.76219842  1
  Ta  Ta82  1  0.60629610  -0.00260975  0.00099155  1
  Ta  Ta83  1  0.61173003  0.80509544  0.00953159  1
  Ta  Ta84  1  0.08208178  0.49767448  0.35987903  1
  Ta  Ta85  1  0.09902186  0.50529827  0.88484126  1
  Ta  Ta86  1  0.09436241  0.11299320  0.38830053  1
  Ta  Ta87  1  -0.00989481  0.00149579  0.74238173  1
  Ta  Ta88  1  0.28489866  0.10344630  0.88300800  1
  Ta  Ta89  1  0.69892609  0.09463037  0.87979013  1
  Ta  Ta90  1  0.71602863  0.48183397  0.11235404  1
  Ta  Ta91  1  0.90760402  0.10343285  0.60609656  1
  Ta  Ta92  1  0.49402265  0.30253605  0.89103717  1
  Ta  Ta93  1  0.19521589  0.00030804  -0.00205221  1
  Ta  Ta94  1  0.31359301  0.90256522  0.37703061  1
  Ta  Ta95  1  0.29814388  0.29403261  0.88813114  1
  Ta  Ta96  1  0.01021504  0.40479004  0.49938747  1
  Ta  Ta97  1  0.90486827  0.30181858  0.61613186  1
  Ta  Ta98  1  0.21286312  0.01259267  0.50606100  1
  Ta  Ta99  1  0.09708745  0.30750911  0.62827466  1
  Ta  Ta100  1  0.60372361  0.59281404  0.00572302  1
  Ta  Ta101  1  0.60020506  0.40572420  0.49743528  1
  Ta  Ta102  1  0.89383397  0.50468707  0.37852705  1
  Ta  Ta103  1  0.19767789  0.39574020  0.00026917  1
  Ta  Ta104  1  0.49739218  0.69945982  0.10750132  1
  Ta  Ta105  1  0.30525625  0.70806268  0.11371645  1
  Ta  Ta106  1  0.59851446  0.42288938  0.77524863  1
  Ta  Ta107  1  0.10429690  0.49594156  0.62858077  1
  Ta  Ta108  1  0.38767209  -0.00641610  -0.00777699  1
  Ta  Ta109  1  0.89659448  0.70417073  0.62146871  1
  Ta  Ta110  1  0.50188773  0.70319195  0.36546979  1
  Ta  Ta111  1  0.90801466  0.70860473  0.88364336  1
  Ta  Ta112  1  0.39461747  0.19169106  0.50404242  1
  Ta  Ta113  1  0.60799459  0.39367583  -0.00062958  1
  Ta  Ta114  1  0.81086320  0.37844721  -0.00512179  1
  Ta  Ta115  1  0.29663215  0.08636018  0.12595235  1
  Ta  Ta116  1  -0.02637065  0.20938847  0.00143357  1
  Ta  Ta117  1  0.00103194  0.60812832  0.00412007  1
  Ta  Ta118  1  0.78220160  0.60588207  0.50084980  1
  Ta  Ta119  1  0.29934496  0.51963120  0.63401228  1
  Ti  Ti120  1  0.81226090  0.20309854  0.74357560  1
  Ti  Ti121  1  0.10184405  0.11307508  0.60742442  1
  Ti  Ti122  1  0.81045309  0.59173481  0.00324006  1
  Ti  Ti123  1  0.70485105  0.49646262  0.36842084  1
  Ti  Ti124  1  0.29683649  0.29833648  0.12438526  1
  Ti  Ti125  1  0.80528967  0.57924177  0.23397514  1
  Ti  Ti126  1  0.89934584  0.11233873  0.87726039  1
  Ti  Ti127  1  0.30342940  0.49914051  0.89526413  1
  Ti  Ti128  1  0.59874270  0.58833936  0.22338604  1
  Ti  Ti129  1  0.38952957  0.19793778  0.00757902  1
  Ti  Ti130  1  0.59484395  -0.00389579  0.24281469  1
  Ti  Ti131  1  0.59751270  0.79612506  0.23316228  1
  Ti  Ti132  1  0.30342053  0.29563900  0.35956591  1
  Ti  Ti133  1  0.39864022  0.79530561  -0.01063069  1
  Ti  Ti134  1  0.61162565  0.19957510  0.00117619  1
  Ti  Ti135  1  0.90857423  0.11229542  0.12733737  1
  Ti  Ti136  1  0.31014781  0.90334441  0.12382980  1
  Ti  Ti137  1  0.00051123  0.79602898  0.50084596  1
  Ti  Ti138  1  0.79195235  0.20287323  0.25567270  1
  Ti  Ti139  1  0.49902667  0.89955609  0.11470389  1
  Ti  Ti140  1  0.40728639  0.19378292  0.23731570  1
  Ti  Ti141  1  0.49279249  0.49412464  0.62521674  1
  Ti  Ti142  1  0.49764876  0.29015827  0.37002623  1
  Ti  Ti143  1  0.89833763  0.50029352  0.88517971  1
  Ti  Ti144  1  -0.00825128  0.59929800  0.50533181  1
  Ti  Ti145  1  0.59959596  -0.01829915  0.49459310  1
  Ti  Ti146  1  0.70518579  0.89752163  0.13049731  1
  Ti  Ti147  1  -0.00440470  0.40495267  -0.00116389  1
  Ti  Ti148  1  0.79863459  0.79822586  0.49978563  1
  Ti  Ti149  1  0.40689528  -0.00147792  0.50052400  1
  Ti  Ti150  1  0.49905957  0.49298791  0.10557317  1
  Ti  Ti151  1  0.01183674  0.02292103  0.25431641  1
  Ti  Ti152  1  0.79880917  0.40362104  0.76226604  1
  Ti  Ti153  1  0.90230256  0.71065658  0.11361292  1
  Ti  Ti154  1  0.20729017  -0.00302332  0.25349210  1
  Ti  Ti155  1  0.50426117  0.29348483  0.11173498  1
  Ti  Ti156  1  0.79685146  0.40928349  0.49875974  1
  Ti  Ti157  1  0.87522819  0.30912797  0.13939200  1
  Ti  Ti158  1  0.69213938  0.09302357  0.37158037  1
  Ti  Ti159  1  0.50781214  0.89850627  0.36645845  1
  Mo  Mo160  1  -0.02228923  0.41146580  0.24865345  1
  Mo  Mo161  1  -0.00718082  0.80612519  0.74464921  1
  Mo  Mo162  1  0.00734476  0.02068463  -0.00205653  1
  Mo  Mo163  1  0.20620096  0.80412023  0.74911761  1
  Mo  Mo164  1  0.59787864  0.19201255  0.24922411  1
  Mo  Mo165  1  0.50419090  0.69433244  0.90403263  1
  Mo  Mo166  1  0.59741177  0.58891152  0.49241196  1
  Mo  Mo167  1  0.80774777  0.79373785  0.24405543  1
  Mo  Mo168  1  0.80741287  0.79902277  -0.00472582  1
  Mo  Mo169  1  0.91225278  0.91068066  0.87044159  1
  Mo  Mo170  1  0.31066778  0.70531861  0.37183029  1
  Mo  Mo171  1  0.90008906  0.29932600  0.87173346  1
  Mo  Mo172  1  0.78923087  -0.00468442  0.48852565  1
  Mo  Mo173  1  0.40011362  -0.00775676  0.24412780  1
  Mo  Mo174  1  0.70442982  0.90226103  0.87992871  1
  Mo  Mo175  1  0.29469972  0.90560295  0.87454446  1
  Mo  Mo176  1  0.70947342  0.49477565  0.89721828  1
  Mo  Mo177  1  0.09705205  0.71176609  0.12014473  1
  Mo  Mo178  1  0.69900324  0.29056043  0.12264179  1
  Mo  Mo179  1  0.00334939  0.21198752  0.50439068  1
  Mo  Mo180  1  0.59730679  0.59426197  0.76853894  1
  Mo  Mo181  1  0.19340530  0.41406879  0.50148515  1
  Mo  Mo182  1  0.79829169  0.19518751  0.00354062  1
  Mo  Mo183  1  0.50861825  0.89427333  0.63081085  1
  Mo  Mo184  1  0.50432890  0.49338740  0.90145737  1
  Mo  Mo185  1  0.80075119  0.40522056  0.24999017  1
  Mo  Mo186  1  0.20117612  0.39747823  0.24090943  1
  Mo  Mo187  1  0.30131593  0.69643112  0.88910976  1
  Mo  Mo188  1  0.71186463  0.69222735  0.62766233  1
  Mo  Mo189  1  0.19612376  0.20738643  0.75068821  1
  Mo  Mo190  1  0.89794987  0.49693035  0.10845786  1
  Mo  Mo191  1  0.08797975  0.09421687  0.12149415  1
  Mo  Mo192  1  0.30571179  0.69150590  0.63363090  1
  Mo  Mo193  1  0.39796983  0.38810238  0.00443684  1
  Mo  Mo194  1  0.01016850  0.00371421  0.50732242  1
  Mo  Mo195  1  0.30009544  0.10711001  0.61406614  1
  Mo  Mo196  1  0.40113022  0.59953965  -0.00626108  1
  Mo  Mo197  1  -0.02094120  0.19234488  0.25179542  1
  Mo  Mo198  1  0.21714152  0.59978570  0.76115207  1
  Mo  Mo199  1  0.89926015  0.89736314  0.39779486  1
