# generated using pymatgen
data_HfZrTaTiMo
_symmetry_space_group_name_H-M   'P 1'
_cell_length_a   15.18955686
_cell_length_b   15.16619538
_cell_length_c   16.79385204
_cell_angle_alpha   90.01817793
_cell_angle_beta   89.97717281
_cell_angle_gamma   89.93594441
_symmetry_Int_Tables_number   1
_chemical_formula_structural   HfZrTaTiMo
_chemical_formula_sum   'Hf40 Zr40 Ta40 Ti40 Mo40'
_cell_volume   3868.75960981
_cell_formula_units_Z   40
loop_
 _symmetry_equiv_pos_site_id
 _symmetry_equiv_pos_as_xyz
  1  'x, y, z'
loop_
 _atom_site_type_symbol
 _atom_site_label
 _atom_site_symmetry_multiplicity
 _atom_site_fract_x
 _atom_site_fract_y
 _atom_site_fract_z
 _atom_site_occupancy
  Hf  Hf0  1  0.69612876  0.09973125  0.37064463  1
  Hf  Hf1  1  0.10357631  0.50718913  0.13382290  1
  Hf  Hf2  1  0.10693586  0.50315255  0.36010881  1
  Hf  Hf3  1  0.60573797  0.60230378  0.51373754  1
  Hf  Hf4  1  0.09944602  0.10504380  0.38027305  1
  Hf  Hf5  1  0.42509598  0.59585665  -0.00028035  1
  Hf  Hf6  1  0.49565657  0.09993132  0.37275917  1
  Hf  Hf7  1  -0.00792389  0.61778403  0.01499746  1
  Hf  Hf8  1  0.30632574  0.49851658  0.37322040  1
  Hf  Hf9  1  0.17650406  0.79984142  0.50324619  1
  Hf  Hf10  1  0.69539535  0.49753200  0.86992588  1
  Hf  Hf11  1  0.89023910  0.50941338  0.87533239  1
  Hf  Hf12  1  0.51202486  0.68383800  0.37382033  1
  Hf  Hf13  1  0.49982198  0.09698719  0.87879072  1
  Hf  Hf14  1  0.71484463  0.28799252  0.61325529  1
  Hf  Hf15  1  0.61118894  0.78395497  -0.00147490  1
  Hf  Hf16  1  0.69959550  0.29238819  0.87436062  1
  Hf  Hf17  1  0.68812386  0.51135761  0.13728536  1
  Hf  Hf18  1  0.52516994  0.68545745  0.13587700  1
  Hf  Hf19  1  0.48722589  0.30309213  0.37501696  1
  Hf  Hf20  1  0.59764327  -0.00489660  0.00435145  1
  Hf  Hf21  1  0.27871221  0.29794053  0.37897955  1
  Hf  Hf22  1  0.49624803  0.88468640  0.38524411  1
  Hf  Hf23  1  -0.00524444  0.40719108  0.74142239  1
  Hf  Hf24  1  0.49774136  0.29359392  0.86404232  1
  Hf  Hf25  1  0.09007380  0.51771975  0.88042215  1
  Hf  Hf26  1  0.49609855  0.29041287  0.62986921  1
  Hf  Hf27  1  0.39864391  -0.00785874  0.74056472  1
  Hf  Hf28  1  0.18046937  0.19089240  0.51883103  1
  Hf  Hf29  1  0.89568145  0.30088378  0.87890187  1
  Hf  Hf30  1  0.39246126  0.19381704  0.24355212  1
  Hf  Hf31  1  0.39687556  0.19504560  0.00704004  1
  Hf  Hf32  1  0.89996114  0.71654033  0.62892839  1
  Hf  Hf33  1  0.21623456  0.62205594  0.24396091  1
  Hf  Hf34  1  0.18758478  0.58788650  0.50631190  1
  Hf  Hf35  1  -0.00053806  0.39524621  0.24675369  1
  Hf  Hf36  1  0.30679258  0.70509365  0.39132573  1
  Hf  Hf37  1  0.80147708  -0.00036314  0.00030507  1
  Hf  Hf38  1  0.69009002  0.51320036  0.36741586  1
  Hf  Hf39  1  0.09049294  0.10563987  0.87596270  1
  Zr  Zr40  1  0.29101253  0.28890234  0.86674475  1
  Zr  Zr41  1  0.30609703  0.50128683  0.12091501  1
  Zr  Zr42  1  0.60678312  0.39456015  0.73988761  1
  Zr  Zr43  1  0.71797912  0.69369472  0.86100533  1
  Zr  Zr44  1  -0.01842961  0.20051855  0.72586583  1
  Zr  Zr45  1  0.70325701  0.89468358  0.13483027  1
  Zr  Zr46  1  0.29272071  0.30141785  0.63491710  1
  Zr  Zr47  1  0.51074512  0.68976907  0.86101522  1
  Zr  Zr48  1  0.18987263  0.40767049  0.75317677  1
  Zr  Zr49  1  0.71033072  0.87739923  0.63195767  1
  Zr  Zr50  1  0.91739891  0.88873115  0.13287768  1
  Zr  Zr51  1  0.69039170  0.29691939  0.36888147  1
  Zr  Zr52  1  0.83264171  0.79495392  -0.01647595  1
  Zr  Zr53  1  0.19585052  0.40203343  -0.00690046  1
  Zr  Zr54  1  0.79706551  0.19781730  0.01278396  1
  Zr  Zr55  1  0.59386549  -0.01045211  0.25248124  1
  Zr  Zr56  1  0.29285187  0.09105478  0.87658282  1
  Zr  Zr57  1  0.39063127  0.19514777  0.50669783  1
  Zr  Zr58  1  0.90755271  0.91351361  0.62611312  1
  Zr  Zr59  1  0.50122179  0.71781895  0.62987029  1
  Zr  Zr60  1  0.00515053  0.80294005  0.77346101  1
  Zr  Zr61  1  0.38465031  -0.01335580  0.25316465  1
  Zr  Zr62  1  0.03656927  0.80507377  -0.01783481  1
  Zr  Zr63  1  0.80481808  0.62035058  0.49164463  1
  Zr  Zr64  1  0.60278213  0.00227131  0.74342690  1
  Zr  Zr65  1  0.73164786  0.70688933  0.14063938  1
  Zr  Zr66  1  -0.00644496  0.18701478  0.24428073  1
  Zr  Zr67  1  0.18268483  -0.00741186  0.25281818  1
  Zr  Zr68  1  -0.00945373  0.40258237  0.01079829  1
  Zr  Zr69  1  0.48524867  0.50156281  0.63542738  1
  Zr  Zr70  1  0.49319834  0.88671381  0.87193067  1
  Zr  Zr71  1  0.01264069  -0.00701125  0.49853951  1
  Zr  Zr72  1  0.59098781  0.40131057  0.50354899  1
  Zr  Zr73  1  0.68441904  0.30295523  0.14202299  1
  Zr  Zr74  1  0.30364670  0.88834195  0.61427394  1
  Zr  Zr75  1  0.28059455  0.09153226  0.11609830  1
  Zr  Zr76  1  0.80298338  0.40959976  0.49321874  1
  Zr  Zr77  1  0.58813201  0.40601858  0.00125286  1
  Zr  Zr78  1  0.81031142  0.01022713  0.75306058  1
  Zr  Zr79  1  0.29893670  0.51547047  0.87764283  1
  Ta  Ta80  1  0.28986896  0.30143962  0.12329511  1
  Ta  Ta81  1  0.08804175  0.29608408  0.87355100  1
  Ta  Ta82  1  0.19168180  0.20749484  0.24711863  1
  Ta  Ta83  1  0.00974624  0.41812832  0.49951806  1
  Ta  Ta84  1  0.42044715  0.58332545  0.24873537  1
  Ta  Ta85  1  0.69868986  0.09996444  0.14047282  1
  Ta  Ta86  1  0.21148425  0.79333284  0.75266870  1
  Ta  Ta87  1  0.62069549  0.79707692  0.49395281  1
  Ta  Ta88  1  0.08976515  0.30301424  0.38553439  1
  Ta  Ta89  1  0.89801274  0.10692964  0.39129903  1
  Ta  Ta90  1  0.61033752  0.60343950  0.73166879  1
  Ta  Ta91  1  0.39928321  0.39285858  -0.00427080  1
  Ta  Ta92  1  0.89199598  0.30095908  0.12984850  1
  Ta  Ta93  1  0.38465329  0.40432268  0.50464661  1
  Ta  Ta94  1  0.38879003  -0.02314125  0.00495664  1
  Ta  Ta95  1  0.91074989  0.50749633  0.36959198  1
  Ta  Ta96  1  0.50702493  0.90245088  0.61166549  1
  Ta  Ta97  1  0.40050449  -0.00045941  0.50198835  1
  Ta  Ta98  1  0.70495648  0.89642119  0.86546698  1
  Ta  Ta99  1  0.59536593  0.19575639  0.01074681  1
  Ta  Ta100  1  0.18072950  0.18936145  0.73523877  1
  Ta  Ta101  1  0.80133369  0.40354586  0.25792659  1
  Ta  Ta102  1  0.90165284  0.29931134  0.38407043  1
  Ta  Ta103  1  0.31029809  0.71710672  0.88231931  1
  Ta  Ta104  1  0.79376413  0.40748459  0.01234997  1
  Ta  Ta105  1  0.59607085  0.18662234  0.50644514  1
  Ta  Ta106  1  0.80729860  0.39668793  0.73654796  1
  Ta  Ta107  1  0.19778656  0.62685209  0.00779611  1
  Ta  Ta108  1  0.39637341  0.78596774  0.25168082  1
  Ta  Ta109  1  0.81018498  -0.00018835  0.26090484  1
  Ta  Ta110  1  0.10002539  0.29463735  0.12273842  1
  Ta  Ta111  1  0.29853834  0.69527619  0.61599933  1
  Ta  Ta112  1  0.38471202  0.61105267  0.74646365  1
  Ta  Ta113  1  0.57203867  0.41565493  0.25424580  1
  Ta  Ta114  1  0.80318775  0.19857448  0.25108910  1
  Ta  Ta115  1  -0.00562207  -0.00115059  -0.00700926  1
  Ta  Ta116  1  0.48985411  0.88313234  0.12614068  1
  Ta  Ta117  1  0.49890555  0.09230821  0.12647070  1
  Ta  Ta118  1  0.19488988  -0.00712748  0.74930710  1
  Ta  Ta119  1  0.28698818  0.88362241  0.12588577  1
  Ti  Ti120  1  0.89169373  0.50842028  0.13614009  1
  Ti  Ti121  1  0.50030770  0.49867502  0.85872588  1
  Ti  Ti122  1  -0.00680801  -0.00767637  0.26312296  1
  Ti  Ti123  1  0.81560264  0.80881618  0.47887188  1
  Ti  Ti124  1  0.90815052  0.50604735  0.61689257  1
  Ti  Ti125  1  0.60475808  -0.00669864  0.49779062  1
  Ti  Ti126  1  0.70420592  0.09038504  0.61230805  1
  Ti  Ti127  1  0.09003296  0.31495515  0.61522936  1
  Ti  Ti128  1  0.79750516  -0.00467968  0.48895775  1
  Ti  Ti129  1  0.00149393  0.62052892  0.49811153  1
  Ti  Ti130  1  0.48980419  0.30063323  0.13000610  1
  Ti  Ti131  1  0.40310654  0.59643627  0.50678168  1
  Ti  Ti132  1  0.28916091  0.90017481  0.39070644  1
  Ti  Ti133  1  0.39555295  0.18552711  0.74154802  1
  Ti  Ti134  1  0.18592886  0.19928779  0.00175000  1
  Ti  Ti135  1  0.00239476  0.62020844  0.24382567  1
  Ti  Ti136  1  0.38212626  0.39435037  0.24626211  1
  Ti  Ti137  1  0.81463959  0.60711346  0.26017153  1
  Ti  Ti138  1  0.32069814  0.70648925  0.11571893  1
  Ti  Ti139  1  0.79699773  0.60068300  0.00654497  1
  Ti  Ti140  1  0.00726280  0.60685582  0.74216773  1
  Ti  Ti141  1  0.10055302  0.89398699  0.63422776  1
  Ti  Ti142  1  -0.00922009  0.19519474  0.01138435  1
  Ti  Ti143  1  0.29235725  0.09695085  0.38178918  1
  Ti  Ti144  1  0.71313864  0.50369620  0.62545375  1
  Ti  Ti145  1  0.00562566  0.00654868  0.75366006  1
  Ti  Ti146  1  0.60272186  0.18753626  0.73780871  1
  Ti  Ti147  1  0.19195887  0.60918342  0.74060885  1
  Ti  Ti148  1  0.11511039  0.73765614  0.13488666  1
  Ti  Ti149  1  0.79517950  0.20003025  0.74253831  1
  Ti  Ti150  1  0.89491502  0.10619761  0.87636241  1
  Ti  Ti151  1  0.18758955  -0.01581424  -0.00721415  1
  Ti  Ti152  1  0.29045451  0.08825300  0.62466926  1
  Ti  Ti153  1  0.08325897  0.08834891  0.11898609  1
  Ti  Ti154  1  0.70762285  0.71969675  0.35478527  1
  Ti  Ti155  1  0.81280920  0.60030221  0.73995339  1
  Ti  Ti156  1  0.09665861  0.71284857  0.36671955  1
  Ti  Ti157  1  0.28653891  0.49779786  0.62617847  1
  Ti  Ti158  1  0.39084160  0.40340478  0.75373538  1
  Ti  Ti159  1  0.69692463  0.10094813  0.87693014  1
  Mo  Mo160  1  0.61664326  0.59350381  -0.00248615  1
  Mo  Mo161  1  0.49734987  0.48782820  0.12587109  1
  Mo  Mo162  1  0.90551047  0.91392227  0.87424645  1
  Mo  Mo163  1  0.11590135  0.91034188  0.86558365  1
  Mo  Mo164  1  0.91496487  0.68652828  0.86748321  1
  Mo  Mo165  1  0.10790446  0.91380151  0.12206447  1
  Mo  Mo166  1  0.88407850  0.11228704  0.60027380  1
  Mo  Mo167  1  0.90550880  0.90211588  0.37334084  1
  Mo  Mo168  1  0.59015413  0.19999745  0.23896395  1
  Mo  Mo169  1  0.22250063  0.81094696  -0.00444061  1
  Mo  Mo170  1  0.12194023  0.69211229  0.87246506  1
  Mo  Mo171  1  0.89943737  0.31296258  0.60584357  1
  Mo  Mo172  1  -0.00985722  0.20881879  0.51237646  1
  Mo  Mo173  1  0.91196841  0.70214061  0.36573929  1
  Mo  Mo174  1  0.80848358  0.79876772  0.76474970  1
  Mo  Mo175  1  0.10098057  0.89674745  0.37707254  1
  Mo  Mo176  1  0.40557739  0.79488907  0.49640078  1
  Mo  Mo177  1  0.59982918  0.80120663  0.25662100  1
  Mo  Mo178  1  0.60425763  0.80287817  0.75048682  1
  Mo  Mo179  1  0.70884205  0.69864521  0.63156963  1
  Mo  Mo180  1  0.41139429  0.79519911  0.00777923  1
  Mo  Mo181  1  0.19485993  0.39859930  0.50428179  1
  Mo  Mo182  1  0.89511280  0.09315740  0.12974671  1
  Mo  Mo183  1  0.30066442  0.89892062  0.87166045  1
  Mo  Mo184  1  0.91676387  0.69934282  0.13688686  1
  Mo  Mo185  1  0.19671912  0.39365036  0.24481940  1
  Mo  Mo186  1  0.09341104  0.51042938  0.62439992  1
  Mo  Mo187  1  0.50178465  0.09231914  0.61801364  1
  Mo  Mo188  1  0.09935153  0.70479013  0.63016162  1
  Mo  Mo189  1  0.02277931  0.81018129  0.25497605  1
  Mo  Mo190  1  0.79405900  0.19455835  0.49103416  1
  Mo  Mo191  1  0.20645521  0.00125713  0.50095619  1
  Mo  Mo192  1  0.60870754  0.60182261  0.25682442  1
  Mo  Mo193  1  0.82100839  0.80756305  0.26796749  1
  Mo  Mo194  1  0.49149084  0.49538270  0.38372124  1
  Mo  Mo195  1  0.70237329  0.90067969  0.37539648  1
  Mo  Mo196  1  -0.00617838  0.79283003  0.49679858  1
  Mo  Mo197  1  0.09148655  0.08416244  0.63042904  1
  Mo  Mo198  1  0.39770159  0.79793275  0.74459356  1
  Mo  Mo199  1  0.21536329  0.80524488  0.25961590  1
