# generated using pymatgen
data_HfZrTaTiMo
_symmetry_space_group_name_H-M   'P 1'
_cell_length_a   15.21320753
_cell_length_b   15.20208073
_cell_length_c   16.86147394
_cell_angle_alpha   89.97865951
_cell_angle_beta   90.07500981
_cell_angle_gamma   90.01657948
_symmetry_Int_Tables_number   1
_chemical_formula_structural   HfZrTaTiMo
_chemical_formula_sum   'Hf40 Zr40 Ta40 Ti40 Mo40'
_cell_volume   3899.58992317
_cell_formula_units_Z   40
loop_
 _symmetry_equiv_pos_site_id
 _symmetry_equiv_pos_as_xyz
  1  'x, y, z'
loop_
 _atom_site_type_symbol
 _atom_site_label
 _atom_site_symmetry_multiplicity
 _atom_site_fract_x
 _atom_site_fract_y
 _atom_site_fract_z
 _atom_site_occupancy
  Hf  Hf0  1  0.30730888  0.90971401  0.61559197  1
  Hf  Hf1  1  0.19738598  0.60881135  0.75143944  1
  Hf  Hf2  1  0.38736227  0.58365671  0.25454930  1
  Hf  Hf3  1  0.79875854  0.81934919  0.48633886  1
  Hf  Hf4  1  0.00487723  0.80262195  0.24512588  1
  Hf  Hf5  1  0.20160596  0.42062920  0.25658976  1
  Hf  Hf6  1  0.09757475  0.52211186  0.12166755  1
  Hf  Hf7  1  0.19843942  0.61182695  -0.00656138  1
  Hf  Hf8  1  0.89303944  0.29968631  0.13528410  1
  Hf  Hf9  1  0.20191814  0.39823171  0.75281078  1
  Hf  Hf10  1  0.08940410  0.70923467  0.63067428  1
  Hf  Hf11  1  0.70573318  0.09858924  0.86669187  1
  Hf  Hf12  1  0.39012245  0.40052323  0.00069240  1
  Hf  Hf13  1  0.71259031  0.49647227  0.87653944  1
  Hf  Hf14  1  0.50299699  0.49208024  0.38677266  1
  Hf  Hf15  1  0.30055336  0.29822506  0.87109380  1
  Hf  Hf16  1  0.52449842  0.90714091  0.36200928  1
  Hf  Hf17  1  0.09733805  0.31535845  0.12629532  1
  Hf  Hf18  1  0.58711308  0.20395195  0.75732307  1
  Hf  Hf19  1  0.20193791  0.80508606  0.23522553  1
  Hf  Hf20  1  0.70166468  0.90237488  0.12563095  1
  Hf  Hf21  1  0.20182663  0.01252845  0.73998363  1
  Hf  Hf22  1  0.69302339  0.70229803  0.37007881  1
  Hf  Hf23  1  -0.00587972  0.19390822  0.49962345  1
  Hf  Hf24  1  0.30456914  0.72440492  0.87407046  1
  Hf  Hf25  1  0.29584284  0.30848770  0.38128583  1
  Hf  Hf26  1  0.38189377  -0.01307424  0.00067657  1
  Hf  Hf27  1  0.49912062  0.70248522  0.36489200  1
  Hf  Hf28  1  -0.00692791  -0.00094335  0.24325081  1
  Hf  Hf29  1  -0.01495683  0.39350213  0.76452211  1
  Hf  Hf30  1  0.40875341  0.01926159  0.25726825  1
  Hf  Hf31  1  0.60502972  0.38398937  -0.00886069  1
  Hf  Hf32  1  0.88376214  0.07619884  0.37717882  1
  Hf  Hf33  1  0.29911584  0.11883415  0.12562337  1
  Hf  Hf34  1  0.61727549  0.61002872  0.75080780  1
  Hf  Hf35  1  0.00072634  0.20833741  -0.00686981  1
  Hf  Hf36  1  0.41146628  0.58779907  0.74084920  1
  Hf  Hf37  1  0.81814164  -0.02077038  0.76403086  1
  Hf  Hf38  1  0.49251080  0.49600269  0.11914019  1
  Hf  Hf39  1  0.11262121  0.69003445  0.36743165  1
  Zr  Zr40  1  0.30120313  0.67643877  0.12757341  1
  Zr  Zr41  1  0.79671652  0.21538409  -0.00758861  1
  Zr  Zr42  1  0.50094530  0.09875322  0.11209497  1
  Zr  Zr43  1  0.28440306  0.09419270  0.88168038  1
  Zr  Zr44  1  0.60995322  0.57881635  0.25045917  1
  Zr  Zr45  1  0.61375894  0.79957245  -0.00478057  1
  Zr  Zr46  1  0.50694552  0.68607690  0.87909073  1
  Zr  Zr47  1  0.78489582  0.39536787  0.26336074  1
  Zr  Zr48  1  0.38732802  0.20833976  0.73710997  1
  Zr  Zr49  1  0.11842538  0.91987214  0.88383930  1
  Zr  Zr50  1  0.70533021  0.09345739  0.64324032  1
  Zr  Zr51  1  0.30494687  0.11123727  0.38541150  1
  Zr  Zr52  1  0.89344260  0.28593678  0.37239737  1
  Zr  Zr53  1  0.69426483  0.10191211  0.11600241  1
  Zr  Zr54  1  0.30597922  0.51010135  0.87410005  1
  Zr  Zr55  1  0.50279102  0.09481417  0.61219353  1
  Zr  Zr56  1  0.08887975  0.49837952  0.63380025  1
  Zr  Zr57  1  0.19582801  0.00508931  0.24911618  1
  Zr  Zr58  1  0.90282000  0.69628647  0.37418680  1
  Zr  Zr59  1  0.20495523  0.79757755  0.50039850  1
  Zr  Zr60  1  0.49763322  0.28860194  0.12613307  1
  Zr  Zr61  1  0.21023044  0.83319955  0.02531327  1
  Zr  Zr62  1  0.09627463  0.72125750  0.87127925  1
  Zr  Zr63  1  -0.00170544  0.41763471  0.26991872  1
  Zr  Zr64  1  0.51925945  0.69952986  0.13806182  1
  Zr  Zr65  1  0.41657391  0.80575272  0.74220872  1
  Zr  Zr66  1  0.89139923  0.71035156  0.61639221  1
  Zr  Zr67  1  0.00537059  0.82587996  0.48362494  1
  Zr  Zr68  1  0.51460912  0.50120369  0.61301385  1
  Zr  Zr69  1  -0.00012836  0.58875422  0.49537272  1
  Zr  Zr70  1  0.70724073  0.87962645  0.63587923  1
  Zr  Zr71  1  0.40768812  0.79245267  0.01444514  1
  Zr  Zr72  1  -0.01948213  0.40602953  -0.01600800  1
  Zr  Zr73  1  0.39753997  0.60469600  0.50146225  1
  Zr  Zr74  1  0.18205752  0.00015487  0.49121040  1
  Zr  Zr75  1  0.81284205  0.58879864  0.25834087  1
  Zr  Zr76  1  0.59691050  -0.02332899  0.76437646  1
  Zr  Zr77  1  0.78179093  0.18749723  0.50649358  1
  Zr  Zr78  1  0.30547293  0.69912160  0.62604279  1
  Zr  Zr79  1  0.82211147  0.58978747  0.74274215  1
  Ta  Ta80  1  0.19728658  0.81857343  0.74173555  1
  Ta  Ta81  1  0.39996041  0.39097670  0.25257327  1
  Ta  Ta82  1  0.80307432  0.81271312  0.25243353  1
  Ta  Ta83  1  0.00115792  0.00632502  0.00364708  1
  Ta  Ta84  1  0.18942976  0.40333448  0.50250408  1
  Ta  Ta85  1  0.70528749  0.48880536  0.11596667  1
  Ta  Ta86  1  0.90938344  0.68121264  0.88145726  1
  Ta  Ta87  1  0.08103065  0.91127636  0.63022615  1
  Ta  Ta88  1  0.68054105  0.27802046  0.37534199  1
  Ta  Ta89  1  0.61416546  0.39054360  0.49776537  1
  Ta  Ta90  1  0.18350457  0.20684390  0.73786183  1
  Ta  Ta91  1  -0.01740536  0.80913746  0.75348011  1
  Ta  Ta92  1  0.91152191  0.88847128  0.89245055  1
  Ta  Ta93  1  0.09194328  0.11684278  0.12686318  1
  Ta  Ta94  1  0.48671549  0.09818009  0.87710952  1
  Ta  Ta95  1  0.19084087  0.21225190  0.50811396  1
  Ta  Ta96  1  0.89858572  0.49813891  0.12373780  1
  Ta  Ta97  1  0.89281476  0.28831047  0.63585996  1
  Ta  Ta98  1  0.41069496  0.80779652  0.49269549  1
  Ta  Ta99  1  0.19426177  0.21301687  0.25507342  1
  Ta  Ta100  1  0.49302798  0.29406087  0.38346428  1
  Ta  Ta101  1  0.00870531  0.79581093  0.01503047  1
  Ta  Ta102  1  0.51395626  0.11150270  0.39176019  1
  Ta  Ta103  1  0.51731716  0.70975749  0.61752980  1
  Ta  Ta104  1  0.50807879  0.90763936  0.13697378  1
  Ta  Ta105  1  0.80857025  0.78472220  -0.00336042  1
  Ta  Ta106  1  0.78859471  0.58251853  0.49147222  1
  Ta  Ta107  1  0.59565763  -0.00540072  -0.01751279  1
  Ta  Ta108  1  0.40070714  0.80921248  0.24315385  1
  Ta  Ta109  1  0.60125095  0.80246871  0.49373132  1
  Ta  Ta110  1  0.89368433  0.09714187  0.12041713  1
  Ta  Ta111  1  0.60973364  0.59436406  0.00316610  1
  Ta  Ta112  1  0.91027436  0.69073910  0.12861539  1
  Ta  Ta113  1  0.30523616  0.89661963  0.37167350  1
  Ta  Ta114  1  0.30344852  0.70398185  0.36754480  1
  Ta  Ta115  1  0.69748597  0.30309748  0.63722912  1
  Ta  Ta116  1  0.29416441  0.10691219  0.61158577  1
  Ta  Ta117  1  0.08006321  0.51812809  0.87144860  1
  Ta  Ta118  1  0.89673356  0.89861614  0.11190724  1
  Ta  Ta119  1  0.39852519  0.00396911  0.75013781  1
  Ti  Ti120  1  0.81055331  0.58917118  0.00353936  1
  Ti  Ti121  1  0.90599634  0.10555631  0.87023199  1
  Ti  Ti122  1  0.62828613  -0.00427375  0.50009279  1
  Ti  Ti123  1  0.49079047  0.89178622  0.87641710  1
  Ti  Ti124  1  0.58330167  0.19089586  0.25353982  1
  Ti  Ti125  1  0.69190504  0.08401734  0.36814858  1
  Ti  Ti126  1  0.69469567  0.29658788  0.12958322  1
  Ti  Ti127  1  0.59486386  0.19659272  -0.02290291  1
  Ti  Ti128  1  -0.00075411  0.38964681  0.49095541  1
  Ti  Ti129  1  0.00717204  0.00355657  0.76001005  1
  Ti  Ti130  1  0.40816678  -0.00224104  0.48989688  1
  Ti  Ti131  1  -0.00016635  0.20061391  0.25543741  1
  Ti  Ti132  1  0.59424398  0.38797530  0.25585256  1
  Ti  Ti133  1  0.39855104  0.20794360  0.51207336  1
  Ti  Ti134  1  0.79902894  -0.00753361  -0.01364816  1
  Ti  Ti135  1  0.90506641  0.08489634  0.63179321  1
  Ti  Ti136  1  0.09819549  0.11991321  0.87450842  1
  Ti  Ti137  1  0.08713711  0.30121721  0.62683080  1
  Ti  Ti138  1  0.28963006  0.51064142  0.38609551  1
  Ti  Ti139  1  0.80307868  0.38758684  0.49557462  1
  Ti  Ti140  1  0.19921405  0.59628331  0.50873554  1
  Ti  Ti141  1  0.29548177  0.31181006  0.12921440  1
  Ti  Ti142  1  0.89548384  0.48355591  0.61625433  1
  Ti  Ti143  1  0.69812752  0.68925016  0.60934806  1
  Ti  Ti144  1  0.50114743  0.48860296  0.87843954  1
  Ti  Ti145  1  0.71206358  0.30331015  0.85328412  1
  Ti  Ti146  1  0.49926532  0.30745902  0.62004459  1
  Ti  Ti147  1  0.09239422  0.10419749  0.37446245  1
  Ti  Ti148  1  0.19742528  0.21569332  0.00135731  1
  Ti  Ti149  1  0.71534133  0.69389584  0.13174589  1
  Ti  Ti150  1  0.78797929  0.18388343  0.24844681  1
  Ti  Ti151  1  0.08985304  0.10379933  0.62273055  1
  Ti  Ti152  1  0.51114918  0.90131375  0.61714597  1
  Ti  Ti153  1  0.70556404  0.49164048  0.62199371  1
  Ti  Ti154  1  0.78784612  0.78424342  0.77593372  1
  Ti  Ti155  1  0.30215157  0.48576721  0.62748871  1
  Ti  Ti156  1  0.58977882  0.40304869  0.75231587  1
  Ti  Ti157  1  0.18686912  0.40476913  -0.01169773  1
  Ti  Ti158  1  0.39214957  0.39741156  0.50622715  1
  Ti  Ti159  1  0.40169429  0.20438518  -0.00912631  1
  Mo  Mo160  1  0.71314352  0.91167298  0.36488328  1
  Mo  Mo161  1  0.90409382  0.90194534  0.63255591  1
  Mo  Mo162  1  0.80690332  -0.00455651  0.50916512  1
  Mo  Mo163  1  0.80834338  0.19567275  0.74834337  1
  Mo  Mo164  1  0.10574162  0.49494495  0.38837258  1
  Mo  Mo165  1  0.00586516  0.59643894  0.25563552  1
  Mo  Mo166  1  0.69698345  0.48279280  0.38386218  1
  Mo  Mo167  1  0.00209207  0.19182625  0.74772568  1
  Mo  Mo168  1  0.59576828  0.20286385  0.50795946  1
  Mo  Mo169  1  0.19544465  0.59991673  0.25496359  1
  Mo  Mo170  1  0.09520288  0.91653764  0.11862561  1
  Mo  Mo171  1  0.89736816  0.49078447  0.39360493  1
  Mo  Mo172  1  0.39617498  0.21146643  0.25649511  1
  Mo  Mo173  1  0.29053320  0.30529113  0.61767573  1
  Mo  Mo174  1  -0.00513225  0.60743300  0.00160662  1
  Mo  Mo175  1  -0.00912430  0.00450062  0.50214872  1
  Mo  Mo176  1  0.60946433  0.79942043  0.24178704  1
  Mo  Mo177  1  0.18511080  0.02916664  0.02024337  1
  Mo  Mo178  1  0.31116878  0.91636371  0.13948447  1
  Mo  Mo179  1  0.79092992  0.39617743  0.73944882  1
  Mo  Mo180  1  0.10662707  0.90713466  0.36891296  1
  Mo  Mo181  1  0.49972166  0.29924843  0.87092921  1
  Mo  Mo182  1  -0.00079481  0.60359484  0.74736138  1
  Mo  Mo183  1  0.29187253  0.48472444  0.11671404  1
  Mo  Mo184  1  0.90128250  0.90215594  0.36478056  1
  Mo  Mo185  1  0.89095965  0.29089893  0.86015750  1
  Mo  Mo186  1  0.10300608  0.29168600  0.37874439  1
  Mo  Mo187  1  0.30698212  0.90080816  0.86165818  1
  Mo  Mo188  1  0.09563624  0.70501157  0.12897757  1
  Mo  Mo189  1  0.80052497  0.00223456  0.23827941  1
  Mo  Mo190  1  0.89240240  0.49801874  0.87711236  1
  Mo  Mo191  1  0.41159628  0.39607531  0.74429898  1
  Mo  Mo192  1  0.71451561  0.68848647  0.88575025  1
  Mo  Mo193  1  0.41179306  0.59354423  -0.00101769  1
  Mo  Mo194  1  0.79448628  0.39642214  0.00516856  1
  Mo  Mo195  1  0.60673075  0.60168473  0.49829144  1
  Mo  Mo196  1  0.60713566  0.78964295  0.75498202  1
  Mo  Mo197  1  0.70906583  0.89094458  0.88282851  1
  Mo  Mo198  1  0.10399040  0.30060238  0.87368184  1
  Mo  Mo199  1  0.60801799  0.00732062  0.24980381  1
