# generated using pymatgen
data_HfZrTaTiMo
_symmetry_space_group_name_H-M   'P 1'
_cell_length_a   15.21255593
_cell_length_b   15.20396791
_cell_length_c   16.85678693
_cell_angle_alpha   89.99472835
_cell_angle_beta   89.99381107
_cell_angle_gamma   89.97120190
_symmetry_Int_Tables_number   1
_chemical_formula_structural   HfZrTaTiMo
_chemical_formula_sum   'Hf40 Zr40 Ta40 Ti40 Mo40'
_cell_volume   3898.82615222
_cell_formula_units_Z   40
loop_
 _symmetry_equiv_pos_site_id
 _symmetry_equiv_pos_as_xyz
  1  'x, y, z'
loop_
 _atom_site_type_symbol
 _atom_site_label
 _atom_site_symmetry_multiplicity
 _atom_site_fract_x
 _atom_site_fract_y
 _atom_site_fract_z
 _atom_site_occupancy
  Hf  Hf0  1  0.28940347  0.90978183  0.39274337  1
  Hf  Hf1  1  0.89352933  0.69700244  0.62449794  1
  Hf  Hf2  1  0.69784582  0.30789685  0.37118168  1
  Hf  Hf3  1  0.69541543  0.09636391  0.37474043  1
  Hf  Hf4  1  0.52130224  0.89663725  0.87236621  1
  Hf  Hf5  1  0.20104483  0.59985724  0.74979116  1
  Hf  Hf6  1  0.48830187  0.30561730  0.36485925  1
  Hf  Hf7  1  0.89789768  0.49247573  0.37567389  1
  Hf  Hf8  1  0.29187204  0.28555071  0.36630941  1
  Hf  Hf9  1  0.00351873  0.19533752  0.23380013  1
  Hf  Hf10  1  0.40844872  0.58247581  0.49371570  1
  Hf  Hf11  1  0.00301149  0.58614764  0.50429482  1
  Hf  Hf12  1  0.11157778  0.91080986  0.86377983  1
  Hf  Hf13  1  0.79183168  0.00783310  -0.01139826  1
  Hf  Hf14  1  0.79162608  0.40626554  0.24296638  1
  Hf  Hf15  1  0.31218356  0.70737515  0.13436442  1
  Hf  Hf16  1  0.09582125  0.69900998  0.87959130  1
  Hf  Hf17  1  0.30603517  0.70721490  0.62876444  1
  Hf  Hf18  1  0.49645431  0.89265345  0.62206827  1
  Hf  Hf19  1  0.29719268  0.69156615  0.35849218  1
  Hf  Hf20  1  0.51991653  0.68948252  0.11973307  1
  Hf  Hf21  1  0.49826252  0.88996069  0.12382631  1
  Hf  Hf22  1  0.39730935  -0.00802550  0.25358766  1
  Hf  Hf23  1  0.78690511  0.60559103  0.49977934  1
  Hf  Hf24  1  0.30408793  0.69629537  0.88050733  1
  Hf  Hf25  1  0.58585752  0.40127669  0.75801972  1
  Hf  Hf26  1  0.00477988  0.39827860  0.01409899  1
  Hf  Hf27  1  0.89638119  0.29212244  0.37579965  1
  Hf  Hf28  1  0.60305868  0.00792953  0.51401259  1
  Hf  Hf29  1  0.01153114  0.00551727  0.00696774  1
  Hf  Hf30  1  0.19616165  0.40693453  0.22589256  1
  Hf  Hf31  1  0.41406443  0.58213162  0.23852040  1
  Hf  Hf32  1  0.29606361  0.91371007  0.61379935  1
  Hf  Hf33  1  0.89992263  0.09498736  0.37798998  1
  Hf  Hf34  1  0.61754154  0.37974794  0.00972538  1
  Hf  Hf35  1  0.88034734  0.29533995  0.11161017  1
  Hf  Hf36  1  0.80413008  0.60911676  0.76132780  1
  Hf  Hf37  1  -0.00279583  -0.00387225  0.24189586  1
  Hf  Hf38  1  0.39367564  0.38735198  0.22516831  1
  Hf  Hf39  1  0.29321454  0.09581894  0.86060241  1
  Zr  Zr40  1  0.40363858  0.58929821  0.75837990  1
  Zr  Zr41  1  -0.00447186  0.79055496  0.75042295  1
  Zr  Zr42  1  0.50163818  0.91132175  0.38368575  1
  Zr  Zr43  1  0.89341783  0.29934960  0.88382409  1
  Zr  Zr44  1  0.61618894  -0.01083060  0.73536423  1
  Zr  Zr45  1  0.10501726  0.49517187  0.87863721  1
  Zr  Zr46  1  0.40024811  -0.00782602  -0.01162044  1
  Zr  Zr47  1  0.90061520  0.89031443  0.87896896  1
  Zr  Zr48  1  0.50120656  0.49843930  0.89790581  1
  Zr  Zr49  1  0.58958553  0.41628098  0.23184510  1
  Zr  Zr50  1  0.50510259  0.26979711  0.11663373  1
  Zr  Zr51  1  0.11515061  0.51677072  0.36881331  1
  Zr  Zr52  1  0.49574547  0.11640634  0.64429915  1
  Zr  Zr53  1  0.61185295  0.80942449  0.25671185  1
  Zr  Zr54  1  0.19747337  0.80888372  0.24964999  1
  Zr  Zr55  1  0.09609562  0.29104393  0.88077319  1
  Zr  Zr56  1  0.22003884  0.19135977  0.51220371  1
  Zr  Zr57  1  0.71515352  0.72058773  0.11260492  1
  Zr  Zr58  1  0.40236798  0.78487592  0.49272498  1
  Zr  Zr59  1  -0.00285754  0.39856188  0.22984405  1
  Zr  Zr60  1  0.09329010  0.30980252  0.37822460  1
  Zr  Zr61  1  0.58130792  0.20827448  0.49836563  1
  Zr  Zr62  1  0.01050262  0.60138434  0.24205620  1
  Zr  Zr63  1  0.20587804  0.80963121  0.00090762  1
  Zr  Zr64  1  0.70127399  0.51738883  0.10636509  1
  Zr  Zr65  1  0.21258495  0.39455734  0.74896644  1
  Zr  Zr66  1  0.20529149  0.61263411  0.50638116  1
  Zr  Zr67  1  0.61259468  0.79473896  0.49090238  1
  Zr  Zr68  1  0.00792860  0.79822651  0.50564860  1
  Zr  Zr69  1  0.91138532  0.70174227  0.37640497  1
  Zr  Zr70  1  0.68582864  0.29627317  0.63733737  1
  Zr  Zr71  1  0.90108523  0.10571489  0.62257764  1
  Zr  Zr72  1  0.79907195  0.40333382  0.50746683  1
  Zr  Zr73  1  0.49196024  0.29014273  0.88811878  1
  Zr  Zr74  1  0.81245703  0.01238908  0.75883191  1
  Zr  Zr75  1  0.70147299  0.72610822  0.88864256  1
  Zr  Zr76  1  0.10481409  0.08604315  0.62744134  1
  Zr  Zr77  1  0.19725969  0.40372369  0.50869222  1
  Zr  Zr78  1  0.59376356  0.41575959  0.50160452  1
  Zr  Zr79  1  0.11293230  0.10009195  0.37910596  1
  Ta  Ta80  1  0.40855323  0.80184579  0.75603113  1
  Ta  Ta81  1  0.10380339  0.89766970  0.63513393  1
  Ta  Ta82  1  -0.00172227  0.20674694  0.50537137  1
  Ta  Ta83  1  0.78981189  -0.00579432  0.24384235  1
  Ta  Ta84  1  0.70681304  0.49994650  0.88612049  1
  Ta  Ta85  1  0.10277466  0.70266966  0.12232403  1
  Ta  Ta86  1  0.88980221  0.89538976  0.11887845  1
  Ta  Ta87  1  -0.00599139  0.19744090  0.74797511  1
  Ta  Ta88  1  0.69547160  0.29786066  0.86578864  1
  Ta  Ta89  1  0.39691603  0.38088283  0.50517362  1
  Ta  Ta90  1  0.19684226  0.20127628  0.74333946  1
  Ta  Ta91  1  0.30175139  0.48901148  0.89557886  1
  Ta  Ta92  1  0.08982215  0.89398950  0.37646371  1
  Ta  Ta93  1  0.88584917  0.89790404  0.37296504  1
  Ta  Ta94  1  0.88799701  0.09667537  0.11757403  1
  Ta  Ta95  1  0.29388880  0.28215281  0.11045539  1
  Ta  Ta96  1  0.90640020  0.90528494  0.63168442  1
  Ta  Ta97  1  0.50063936  0.49654121  0.63289118  1
  Ta  Ta98  1  0.78988686  0.19444323  0.50623807  1
  Ta  Ta99  1  0.09224595  0.29762713  0.62749983  1
  Ta  Ta100  1  0.79802810  -0.00584664  0.50715838  1
  Ta  Ta101  1  0.69367404  0.91607174  0.11289443  1
  Ta  Ta102  1  0.60459035  0.60563342  0.76279950  1
  Ta  Ta103  1  0.31367099  0.48518149  0.36758240  1
  Ta  Ta104  1  0.68993070  0.11221477  0.12126838  1
  Ta  Ta105  1  0.29171563  0.29816866  0.89589670  1
  Ta  Ta106  1  0.78387406  0.81291505  0.74486381  1
  Ta  Ta107  1  0.79877175  0.40711639  0.75359756  1
  Ta  Ta108  1  0.29962013  0.09215825  0.12159857  1
  Ta  Ta109  1  -0.00384374  0.79550362  0.00536353  1
  Ta  Ta110  1  0.09419565  0.49672644  0.63253495  1
  Ta  Ta111  1  0.68956847  0.70495035  0.63301578  1
  Ta  Ta112  1  -0.00619831  0.39641659  0.74746702  1
  Ta  Ta113  1  0.59813297  0.01177687  0.24933345  1
  Ta  Ta114  1  0.68451806  0.52028607  0.36610793  1
  Ta  Ta115  1  0.90404781  0.50151293  0.88185434  1
  Ta  Ta116  1  0.79915429  0.61020002  0.24881387  1
  Ta  Ta117  1  0.18049543  0.18511820  0.00799842  1
  Ta  Ta118  1  -0.00526410  0.80327627  0.24456468  1
  Ta  Ta119  1  0.20216490  0.59598288  0.01482771  1
  Ti  Ti120  1  0.49993616  0.08399638  0.11758892  1
  Ti  Ti121  1  0.89845197  0.49451195  0.62949026  1
  Ti  Ti122  1  0.39635802  0.18200143  0.24573536  1
  Ti  Ti123  1  0.30312944  0.90085915  0.12860454  1
  Ti  Ti124  1  0.30889299  0.10022240  0.64297898  1
  Ti  Ti125  1  0.71609568  0.71545273  0.36520720  1
  Ti  Ti126  1  0.59479601  0.19815544  0.25348823  1
  Ti  Ti127  1  0.19944460  0.19779013  0.23315947  1
  Ti  Ti128  1  0.50277510  0.69056226  0.63258466  1
  Ti  Ti129  1  0.79219387  0.20332677  0.75077908  1
  Ti  Ti130  1  0.89443976  0.50977161  0.11405260  1
  Ti  Ti131  1  0.10338980  0.90091965  0.12465474  1
  Ti  Ti132  1  0.39826399  0.39607579  0.02081666  1
  Ti  Ti133  1  0.30953800  0.49002727  0.62778292  1
  Ti  Ti134  1  0.00421593  0.60177899  0.00500408  1
  Ti  Ti135  1  0.89662978  0.30319876  0.62700144  1
  Ti  Ti136  1  0.90882431  0.10904350  0.88229087  1
  Ti  Ti137  1  0.10419107  0.70123288  0.63226340  1
  Ti  Ti138  1  0.40162273  0.59734531  0.01121275  1
  Ti  Ti139  1  0.51297282  0.68200154  0.35737109  1
  Ti  Ti140  1  0.79226859  0.19377332  0.24533222  1
  Ti  Ti141  1  0.39295569  0.22868270  0.75465079  1
  Ti  Ti142  1  0.50784130  0.69959602  0.88562279  1
  Ti  Ti143  1  0.59568992  0.60526746  0.50128146  1
  Ti  Ti144  1  0.19946639  0.39826631  0.01903208  1
  Ti  Ti145  1  0.09552812  0.10033971  0.86365845  1
  Ti  Ti146  1  0.20687499  0.00002779  0.00046273  1
  Ti  Ti147  1  0.81598272  0.61457603  -0.01244368  1
  Ti  Ti148  1  0.19960637  0.00969485  0.24914461  1
  Ti  Ti149  1  0.77880604  0.20777818  -0.00473691  1
  Ti  Ti150  1  0.90302014  0.70267208  0.12435643  1
  Ti  Ti151  1  0.40504187  0.79856964  -0.00736736  1
  Ti  Ti152  1  0.69668738  0.51080162  0.63593954  1
  Ti  Ti153  1  0.79905593  0.80918778  0.50817076  1
  Ti  Ti154  1  0.21245877  0.80708651  0.75425622  1
  Ti  Ti155  1  -0.00199776  0.59105538  0.75157636  1
  Ti  Ti156  1  0.49786322  0.09870067  0.85446972  1
  Ti  Ti157  1  0.39298991  0.18377971  -0.00455011  1
  Ti  Ti158  1  -0.00016246  -0.00461625  0.49839483  1
  Ti  Ti159  1  0.68455244  0.10286510  0.87244429  1
  Mo  Mo160  1  0.80948517  0.80940153  0.00292767  1
  Mo  Mo161  1  0.30983926  0.89597652  0.86589519  1
  Mo  Mo162  1  0.09615675  0.50748285  0.11712025  1
  Mo  Mo163  1  0.30320257  0.49880159  0.10959680  1
  Mo  Mo164  1  0.20287754  -0.00016297  0.74929017  1
  Mo  Mo165  1  0.59770347  0.78865841  0.74624946  1
  Mo  Mo166  1  -0.01102715  0.18646829  0.00689826  1
  Mo  Mo167  1  0.00299845  0.00486222  0.75455347  1
  Mo  Mo168  1  0.70177248  0.90998522  0.87917132  1
  Mo  Mo169  1  0.90662520  0.69278433  0.87852874  1
  Mo  Mo170  1  0.59718838  0.81350475  0.00397211  1
  Mo  Mo171  1  0.80332472  0.40756713  -0.00698721  1
  Mo  Mo172  1  -0.00328614  0.39378771  0.51736314  1
  Mo  Mo173  1  0.39673984  -0.01113429  0.75577047  1
  Mo  Mo174  1  0.70984565  0.90829722  0.37639495  1
  Mo  Mo175  1  0.19042165  0.79972838  0.50132937  1
  Mo  Mo176  1  0.61298835  0.60519190  0.24886720  1
  Mo  Mo177  1  0.39101522  0.40406387  0.76153633  1
  Mo  Mo178  1  0.09888870  0.29049333  0.11597116  1
  Mo  Mo179  1  0.48235505  0.31266267  0.63458866  1
  Mo  Mo180  1  0.60421605  0.60357642  -0.01406169  1
  Mo  Mo181  1  0.50382919  0.49991202  0.10332316  1
  Mo  Mo182  1  0.70597406  0.10560717  0.62343563  1
  Mo  Mo183  1  0.48983599  0.10596155  0.37090542  1
  Mo  Mo184  1  0.59806386  0.17926984  -0.01064807  1
  Mo  Mo185  1  0.60019930  0.20043023  0.75861256  1
  Mo  Mo186  1  0.59694257  0.00916900  -0.00448780  1
  Mo  Mo187  1  0.70145983  0.28873261  0.13075308  1
  Mo  Mo188  1  0.40615705  0.79699778  0.25791293  1
  Mo  Mo189  1  0.71032405  0.89535198  0.62186144  1
  Mo  Mo190  1  0.30533441  0.29512863  0.63043465  1
  Mo  Mo191  1  0.30810331  0.09908134  0.37077380  1
  Mo  Mo192  1  0.18821790  -0.00828500  0.49860150  1
  Mo  Mo193  1  0.10586706  0.09085519  0.12811091  1
  Mo  Mo194  1  0.10668714  0.71008443  0.37014229  1
  Mo  Mo195  1  0.39979608  0.19714662  0.50245447  1
  Mo  Mo196  1  0.49505508  0.49904217  0.37278915  1
  Mo  Mo197  1  0.20731919  0.59683133  0.23082969  1
  Mo  Mo198  1  0.81108919  0.81006123  0.24519276  1
  Mo  Mo199  1  0.39269836  0.03000363  0.50021226  1
