# generated using pymatgen
data_HfZrTaTiMo
_symmetry_space_group_name_H-M   'P 1'
_cell_length_a   15.21493984
_cell_length_b   15.20052337
_cell_length_c   16.86197471
_cell_angle_alpha   90.01459253
_cell_angle_beta   90.00032948
_cell_angle_gamma   89.97641959
_symmetry_Int_Tables_number   1
_chemical_formula_structural   HfZrTaTiMo
_chemical_formula_sum   'Hf40 Zr40 Ta40 Ti40 Mo40'
_cell_volume   3899.75356240
_cell_formula_units_Z   40
loop_
 _symmetry_equiv_pos_site_id
 _symmetry_equiv_pos_as_xyz
  1  'x, y, z'
loop_
 _atom_site_type_symbol
 _atom_site_label
 _atom_site_symmetry_multiplicity
 _atom_site_fract_x
 _atom_site_fract_y
 _atom_site_fract_z
 _atom_site_occupancy
  Hf  Hf0  1  0.59097997  0.00522434  0.26850890  1
  Hf  Hf1  1  0.18860939  0.39949982  0.75469655  1
  Hf  Hf2  1  0.69279803  0.10602325  0.12341096  1
  Hf  Hf3  1  0.02601125  0.19108219  0.49390961  1
  Hf  Hf4  1  0.91827473  0.89574299  0.63209365  1
  Hf  Hf5  1  0.48574135  0.89983840  0.39111963  1
  Hf  Hf6  1  0.19820071  0.20005430  -0.01099798  1
  Hf  Hf7  1  0.38484248  0.79007901  0.73374859  1
  Hf  Hf8  1  0.80911641  0.40637568  0.73962772  1
  Hf  Hf9  1  0.49857851  0.11477459  0.62767043  1
  Hf  Hf10  1  0.50157332  0.29487376  0.13999125  1
  Hf  Hf11  1  0.70704564  0.10442488  0.61818930  1
  Hf  Hf12  1  0.39128397  0.00458940  0.73729249  1
  Hf  Hf13  1  0.19158143  0.39314551  0.24821350  1
  Hf  Hf14  1  0.60095801  0.01262276  0.49012674  1
  Hf  Hf15  1  0.48494822  0.70136896  0.13127390  1
  Hf  Hf16  1  0.80932676  0.79441330  0.00058540  1
  Hf  Hf17  1  0.29509689  0.88731031  0.88195841  1
  Hf  Hf18  1  0.58437542  0.59888175  0.00249972  1
  Hf  Hf19  1  0.81536249  0.20347701  0.50481678  1
  Hf  Hf20  1  0.71361204  0.30681769  0.37398844  1
  Hf  Hf21  1  0.49655681  0.90668233  0.12386736  1
  Hf  Hf22  1  0.30636416  0.28026483  0.35227777  1
  Hf  Hf23  1  0.19703789  0.80333627  0.24986420  1
  Hf  Hf24  1  0.60877312  0.19592680  0.26048669  1
  Hf  Hf25  1  0.59990667  0.39866052  0.49638696  1
  Hf  Hf26  1  0.00052337  0.60921442  0.49127592  1
  Hf  Hf27  1  0.90702918  0.69885594  0.13022341  1
  Hf  Hf28  1  0.68891564  0.51235551  0.63553631  1
  Hf  Hf29  1  0.92418499  0.09795789  0.63332458  1
  Hf  Hf30  1  -0.00020314  0.21455788  -0.00286669  1
  Hf  Hf31  1  0.29122270  0.51162551  0.12663947  1
  Hf  Hf32  1  0.80183644  0.00237724  0.24631896  1
  Hf  Hf33  1  0.91761050  0.29573620  0.36536552  1
  Hf  Hf34  1  0.18161044  0.81207877  0.49514282  1
  Hf  Hf35  1  0.50137799  0.31450306  0.63784086  1
  Hf  Hf36  1  0.79979333  0.01046780  0.00372192  1
  Hf  Hf37  1  0.59776443  0.80636938  0.26400499  1
  Hf  Hf38  1  0.09265931  0.89232297  0.89535104  1
  Hf  Hf39  1  -0.00449147  0.60142895  0.74760448  1
  Zr  Zr40  1  0.69788562  0.50851253  0.86828410  1
  Zr  Zr41  1  0.37488928  0.00839567  0.51333166  1
  Zr  Zr42  1  0.29963717  0.28031511  0.13359252  1
  Zr  Zr43  1  0.71054414  0.90552243  0.61595427  1
  Zr  Zr44  1  0.92056611  0.09261411  0.36492944  1
  Zr  Zr45  1  0.40144510  0.78621015  -0.00744091  1
  Zr  Zr46  1  0.47434205  0.69265986  0.37461174  1
  Zr  Zr47  1  0.69782206  0.70361639  0.12579219  1
  Zr  Zr48  1  0.69809817  0.49480638  0.12734330  1
  Zr  Zr49  1  0.70079044  0.90207192  0.87378436  1
  Zr  Zr50  1  0.58276425  0.60402146  0.49929464  1
  Zr  Zr51  1  0.30673252  0.50299305  0.37697221  1
  Zr  Zr52  1  0.18534910  -0.00779819  0.76384354  1
  Zr  Zr53  1  0.22107856  0.00857956  0.23066783  1
  Zr  Zr54  1  0.18984111  0.61022768  0.26730735  1
  Zr  Zr55  1  0.41530155  0.58577515  0.73956705  1
  Zr  Zr56  1  0.59714748  0.20455614  -0.00398005  1
  Zr  Zr57  1  0.50962227  0.89296207  0.61429382  1
  Zr  Zr58  1  0.10732417  0.28429767  0.62902783  1
  Zr  Zr59  1  0.20042482  0.18547482  0.77470846  1
  Zr  Zr60  1  0.59393378  0.59969185  0.25401699  1
  Zr  Zr61  1  0.20322917  0.61236593  0.49695176  1
  Zr  Zr62  1  0.30330722  0.48514067  0.61574083  1
  Zr  Zr63  1  0.29919303  0.30659701  0.87738465  1
  Zr  Zr64  1  0.49428458  0.90474640  0.86701076  1
  Zr  Zr65  1  0.89242686  0.49513912  0.37222900  1
  Zr  Zr66  1  0.70073457  0.69760532  0.87586121  1
  Zr  Zr67  1  0.39930070  0.39991822  0.00634219  1
  Zr  Zr68  1  0.80594918  0.78617021  0.74722620  1
  Zr  Zr69  1  0.80528918  0.20208721  0.74762208  1
  Zr  Zr70  1  0.90804000  0.47970685  0.87652063  1
  Zr  Zr71  1  -0.00053202  0.39872123  0.50160681  1
  Zr  Zr72  1  0.19859825  0.37807574  0.48585538  1
  Zr  Zr73  1  0.31080280  0.27439191  0.63803397  1
  Zr  Zr74  1  0.90877434  0.89880514  0.87330677  1
  Zr  Zr75  1  0.70996442  0.30938527  0.87660070  1
  Zr  Zr76  1  0.20106434  0.60687420  0.73730417  1
  Zr  Zr77  1  0.38447000  0.77609595  0.51787205  1
  Zr  Zr78  1  0.01270855  0.59942442  0.00537650  1
  Zr  Zr79  1  0.69813899  0.90206363  0.12373806  1
  Ta  Ta80  1  0.89448808  0.70572539  0.36947689  1
  Ta  Ta81  1  0.20460666  0.00261757  0.00476287  1
  Ta  Ta82  1  0.00088794  0.80290680  0.25218458  1
  Ta  Ta83  1  0.90762322  0.69137125  0.87914332  1
  Ta  Ta84  1  0.59992740  0.20414800  0.75761841  1
  Ta  Ta85  1  0.70065082  0.70547938  0.38254863  1
  Ta  Ta86  1  0.59626802  0.40299160  -0.00123111  1
  Ta  Ta87  1  0.79809080  0.40493610  0.51341194  1
  Ta  Ta88  1  0.80594801  0.80073638  0.49770777  1
  Ta  Ta89  1  0.17955254  0.40467751  0.00605007  1
  Ta  Ta90  1  0.80495940  0.00414626  0.75271819  1
  Ta  Ta91  1  0.59208383  0.79298049  0.74604810  1
  Ta  Ta92  1  0.58563193  0.00783658  -0.00738398  1
  Ta  Ta93  1  0.40748127  0.39194945  0.49285100  1
  Ta  Ta94  1  0.30436441  0.89290712  0.11100824  1
  Ta  Ta95  1  0.59622348  0.80276795  -0.00448687  1
  Ta  Ta96  1  -0.00225518  0.60114589  0.25516092  1
  Ta  Ta97  1  0.69921542  0.50475113  0.37472687  1
  Ta  Ta98  1  0.10785491  0.50492517  0.87806283  1
  Ta  Ta99  1  0.21998088  0.17603398  0.49297898  1
  Ta  Ta100  1  0.79883502  0.60406402  0.25468136  1
  Ta  Ta101  1  0.70021053  0.10092101  0.87426845  1
  Ta  Ta102  1  0.80822381  0.58429048  0.00646796  1
  Ta  Ta103  1  0.69127930  0.70924429  0.61675624  1
  Ta  Ta104  1  0.01181180  0.00321208  0.22884587  1
  Ta  Ta105  1  0.79557844  0.60201729  0.49968680  1
  Ta  Ta106  1  0.09119066  0.91792910  0.36388565  1
  Ta  Ta107  1  0.90682834  0.90041852  0.12397382  1
  Ta  Ta108  1  0.60478812  0.00705443  0.74831307  1
  Ta  Ta109  1  0.10061368  0.89284715  0.11201114  1
  Ta  Ta110  1  0.49608037  0.48736923  0.36548930  1
  Ta  Ta111  1  0.00282839  0.01053663  0.01436087  1
  Ta  Ta112  1  0.49743346  0.30818323  0.86620929  1
  Ta  Ta113  1  -0.00448827  0.39352532  0.23222651  1
  Ta  Ta114  1  0.40992557  0.20214171  0.49075585  1
  Ta  Ta115  1  0.71864021  0.10122043  0.38453616  1
  Ta  Ta116  1  0.00778056  0.21161533  0.77403832  1
  Ta  Ta117  1  0.91178611  0.30460173  0.62846752  1
  Ta  Ta118  1  0.90248085  0.10206442  0.87676945  1
  Ta  Ta119  1  0.29016821  0.90557122  0.37744847  1
  Ti  Ti120  1  0.58133881  0.42145131  0.75840538  1
  Ti  Ti121  1  0.69869328  0.30278399  0.62818847  1
  Ti  Ti122  1  0.70512538  0.30261606  0.12264605  1
  Ti  Ti123  1  0.38679725  0.80767616  0.25168890  1
  Ti  Ti124  1  0.11712179  0.08322675  0.62817510  1
  Ti  Ti125  1  0.90116878  0.50653430  0.62346207  1
  Ti  Ti126  1  0.19972526  0.77733269  0.00525655  1
  Ti  Ti127  1  0.08978226  0.48664482  0.37053476  1
  Ti  Ti128  1  0.09383402  0.49719813  0.62110651  1
  Ti  Ti129  1  0.48510822  0.09725621  0.12854909  1
  Ti  Ti130  1  0.12139656  0.11045431  0.35517599  1
  Ti  Ti131  1  0.49740658  0.68915388  0.86779164  1
  Ti  Ti132  1  0.49136297  0.49336060  0.13785501  1
  Ti  Ti133  1  0.18444210  0.79820814  0.74555515  1
  Ti  Ti134  1  0.31701844  0.08748179  0.88383733  1
  Ti  Ti135  1  -0.00552294  0.80364743  0.48785454  1
  Ti  Ti136  1  0.11109770  0.11596413  0.12431743  1
  Ti  Ti137  1  0.80150565  0.40312931  0.24233261  1
  Ti  Ti138  1  0.49649453  0.29663058  0.35926494  1
  Ti  Ti139  1  0.30504618  0.50067836  0.87633340  1
  Ti  Ti140  1  0.09955059  0.70126911  0.87720464  1
  Ti  Ti141  1  0.26701093  0.90621197  0.62261495  1
  Ti  Ti142  1  0.60205069  0.20866250  0.48947256  1
  Ti  Ti143  1  0.80637355  0.21426820  0.00087976  1
  Ti  Ti144  1  0.60282837  0.39893732  0.25420325  1
  Ti  Ti145  1  0.29112205  0.68828441  0.87072656  1
  Ti  Ti146  1  0.11026454  0.69683531  0.12432791  1
  Ti  Ti147  1  0.08722403  0.71797691  0.62526659  1
  Ti  Ti148  1  0.81152754  0.20588421  0.24458354  1
  Ti  Ti149  1  0.09242341  0.50372985  0.13074597  1
  Ti  Ti150  1  0.80073886  0.80320714  0.25451623  1
  Ti  Ti151  1  0.71135481  0.90235159  0.38869525  1
  Ti  Ti152  1  0.89944654  0.90390229  0.37114571  1
  Ti  Ti153  1  0.40840638  0.18824707  -0.00709309  1
  Ti  Ti154  1  0.38834137  0.59774192  -0.00162350  1
  Ti  Ti155  1  -0.02098676  0.40201101  0.02395668  1
  Ti  Ti156  1  0.38489427  0.60488814  0.24869190  1
  Ti  Ti157  1  0.89416448  0.69664042  0.62016151  1
  Ti  Ti158  1  0.01070741  -0.00673910  0.49765936  1
  Ti  Ti159  1  0.90437423  0.11105085  0.12781776  1
  Mo  Mo160  1  0.60681945  0.80091315  0.48888275  1
  Mo  Mo161  1  0.09161873  0.09339543  0.89019084  1
  Mo  Mo162  1  0.39620946  0.39695729  0.75981868  1
  Mo  Mo163  1  0.50414455  0.10406698  0.86440816  1
  Mo  Mo164  1  0.09773439  0.30523168  0.12079014  1
  Mo  Mo165  1  0.29713739  0.71220064  0.37521759  1
  Mo  Mo166  1  0.50651813  0.69282168  0.62702440  1
  Mo  Mo167  1  0.90041411  0.30224520  0.87765392  1
  Mo  Mo168  1  0.19902089  0.19413347  0.23982115  1
  Mo  Mo169  1  0.81794528  -0.00196820  0.49387456  1
  Mo  Mo170  1  0.00025095  0.01203116  0.75864065  1
  Mo  Mo171  1  0.40935518  0.19300441  0.76535433  1
  Mo  Mo172  1  0.40555102  0.40577803  0.24618920  1
  Mo  Mo173  1  0.49449818  0.49984957  0.88143406  1
  Mo  Mo174  1  0.00383575  0.79708963  0.00902179  1
  Mo  Mo175  1  0.18202525  0.00625250  0.49166472  1
  Mo  Mo176  1  0.89094497  0.29725463  0.13259387  1
  Mo  Mo177  1  0.49799330  0.10833735  0.38152614  1
  Mo  Mo178  1  0.31255829  0.09167620  0.10810234  1
  Mo  Mo179  1  0.39774943  0.58299266  0.51135051  1
  Mo  Mo180  1  0.40164223  0.00137410  -0.00344228  1
  Mo  Mo181  1  0.30956011  0.08946050  0.36937102  1
  Mo  Mo182  1  0.08449253  0.32338443  0.88394555  1
  Mo  Mo183  1  0.01116265  0.79512062  0.75353718  1
  Mo  Mo184  1  0.09051034  0.90386653  0.62622368  1
  Mo  Mo185  1  0.20809210  0.59531194  -0.00483512  1
  Mo  Mo186  1  0.00364949  0.40163672  0.74193831  1
  Mo  Mo187  1  0.01415986  0.20170136  0.23667183  1
  Mo  Mo188  1  0.10388485  0.29287942  0.36679991  1
  Mo  Mo189  1  0.08513650  0.71532960  0.37351133  1
  Mo  Mo190  1  0.80443521  0.60590527  0.74134951  1
  Mo  Mo191  1  0.29455179  0.10031664  0.63021642  1
  Mo  Mo192  1  0.40509933  0.16563712  0.25369489  1
  Mo  Mo193  1  0.28596525  0.70126615  0.62927629  1
  Mo  Mo194  1  0.49790297  0.49245181  0.61948731  1
  Mo  Mo195  1  0.29511282  0.70455089  0.12588979  1
  Mo  Mo196  1  0.60151593  0.61128405  0.74564691  1
  Mo  Mo197  1  0.89704191  0.50468483  0.13623979  1
  Mo  Mo198  1  0.40376442  -0.01251875  0.25276626  1
  Mo  Mo199  1  0.79558265  0.39727918  0.00974074  1
