# generated using pymatgen
data_HfZrTaTiMo
_symmetry_space_group_name_H-M   'P 1'
_cell_length_a   15.22714058
_cell_length_b   15.20706022
_cell_length_c   16.83340738
_cell_angle_alpha   90.00618378
_cell_angle_beta   90.00324557
_cell_angle_gamma   90.06855190
_symmetry_Int_Tables_number   1
_chemical_formula_structural   HfZrTaTiMo
_chemical_formula_sum   'Hf40 Zr40 Ta40 Ti40 Mo40'
_cell_volume   3897.94173008
_cell_formula_units_Z   40
loop_
 _symmetry_equiv_pos_site_id
 _symmetry_equiv_pos_as_xyz
  1  'x, y, z'
loop_
 _atom_site_type_symbol
 _atom_site_label
 _atom_site_symmetry_multiplicity
 _atom_site_fract_x
 _atom_site_fract_y
 _atom_site_fract_z
 _atom_site_occupancy
  Hf  Hf0  1  0.49269819  0.50492967  0.38897652  1
  Hf  Hf1  1  0.41511913  0.77914168  -0.01180079  1
  Hf  Hf2  1  0.70114131  0.10521284  0.37981971  1
  Hf  Hf3  1  0.20543542  -0.00053033  0.24587629  1
  Hf  Hf4  1  0.90490592  0.88786273  0.62349878  1
  Hf  Hf5  1  0.90808946  0.10206005  0.36558495  1
  Hf  Hf6  1  0.51170168  0.29557562  0.38370126  1
  Hf  Hf7  1  0.81425094  0.20426310  -0.00403055  1
  Hf  Hf8  1  0.61161034  0.19551998  0.23425763  1
  Hf  Hf9  1  0.08836928  0.31563989  0.64658709  1
  Hf  Hf10  1  0.68685970  0.70631587  0.89547594  1
  Hf  Hf11  1  0.79111104  -0.01391370  0.75382847  1
  Hf  Hf12  1  0.48617189  0.29182129  0.11961620  1
  Hf  Hf13  1  0.81997248  0.78912472  0.75703047  1
  Hf  Hf14  1  0.40638640  0.78384591  0.75856803  1
  Hf  Hf15  1  0.19962444  0.60845682  0.73846478  1
  Hf  Hf16  1  0.21967557  0.20624270  -0.00732018  1
  Hf  Hf17  1  0.59641779  -0.00304706  0.03029719  1
  Hf  Hf18  1  0.48153665  0.50772071  0.89620103  1
  Hf  Hf19  1  0.89300487  0.08976187  0.62618615  1
  Hf  Hf20  1  0.39668043  0.60276635  0.25492852  1
  Hf  Hf21  1  0.19998639  0.60775865  0.00407163  1
  Hf  Hf22  1  0.68167622  0.49920864  0.89032100  1
  Hf  Hf23  1  0.31792769  0.09506968  0.12804833  1
  Hf  Hf24  1  -0.01032579  0.39088372  -0.01794941  1
  Hf  Hf25  1  0.30840583  0.69401424  0.61047505  1
  Hf  Hf26  1  0.50456665  0.30123725  0.60621949  1
  Hf  Hf27  1  0.30369563  0.31234633  0.62912128  1
  Hf  Hf28  1  0.88100993  0.47993236  0.13217271  1
  Hf  Hf29  1  0.71439424  0.71244142  0.61416227  1
  Hf  Hf30  1  0.79239732  0.18651975  0.76199256  1
  Hf  Hf31  1  0.30342835  0.09465504  0.37893302  1
  Hf  Hf32  1  0.48244881  0.50205929  0.60650742  1
  Hf  Hf33  1  0.10182135  0.92849904  0.89086361  1
  Hf  Hf34  1  0.81635416  0.22593098  0.24322997  1
  Hf  Hf35  1  0.51325344  0.89588110  0.87730503  1
  Hf  Hf36  1  0.61761888  0.81497891  0.74618662  1
  Hf  Hf37  1  0.38057734  -0.01403996  -0.00571608  1
  Hf  Hf38  1  0.10378978  0.90403201  0.37878289  1
  Hf  Hf39  1  0.90797793  0.89992444  0.11547713  1
  Zr  Zr40  1  0.71114968  0.90094796  0.89857413  1
  Zr  Zr41  1  0.50289487  0.91710823  0.62775265  1
  Zr  Zr42  1  0.61133642  0.79312540  0.24207237  1
  Zr  Zr43  1  0.38955136  0.39905476  0.25842677  1
  Zr  Zr44  1  -0.00083999  0.78957790  0.49346368  1
  Zr  Zr45  1  0.60451457  0.40333273  0.24564334  1
  Zr  Zr46  1  0.69957041  0.29821171  0.61793061  1
  Zr  Zr47  1  0.47024831  0.89093143  0.14091681  1
  Zr  Zr48  1  0.09627825  0.51072061  0.86601174  1
  Zr  Zr49  1  0.29303907  0.09318570  0.86849637  1
  Zr  Zr50  1  0.17407737  0.40758513  0.50643161  1
  Zr  Zr51  1  0.10928386  0.11338639  0.37827982  1
  Zr  Zr52  1  0.00203470  0.59095824  0.24539561  1
  Zr  Zr53  1  0.20100139  0.59509409  0.24485843  1
  Zr  Zr54  1  0.49619852  0.30152113  0.89100340  1
  Zr  Zr55  1  0.89901493  0.29859109  0.64320112  1
  Zr  Zr56  1  0.11378221  0.68142147  0.38311221  1
  Zr  Zr57  1  0.31351366  0.09087795  0.62375325  1
  Zr  Zr58  1  0.41376683  0.19531174  0.74163996  1
  Zr  Zr59  1  0.58556360  0.60996366  0.74808957  1
  Zr  Zr60  1  0.81053686  0.20326060  0.49499915  1
  Zr  Zr61  1  0.10175666  0.71621965  0.87554734  1
  Zr  Zr62  1  0.01009219  0.80613313  0.25212686  1
  Zr  Zr63  1  0.01647332  0.19284278  -0.01788433  1
  Zr  Zr64  1  0.09265721  0.09941185  0.61809765  1
  Zr  Zr65  1  0.77731799  0.60496276  0.24569787  1
  Zr  Zr66  1  0.78685037  0.59561286  0.75363241  1
  Zr  Zr67  1  0.00703125  0.57568569  0.51157625  1
  Zr  Zr68  1  0.89595768  0.69594934  0.36600223  1
  Zr  Zr69  1  0.08955629  0.48426424  0.11902193  1
  Zr  Zr70  1  0.79288587  0.00843812  0.23184815  1
  Zr  Zr71  1  0.50414984  0.10183427  0.88451102  1
  Zr  Zr72  1  0.17926939  0.38421138  0.25187409  1
  Zr  Zr73  1  0.18463908  -0.00371912  0.74054168  1
  Zr  Zr74  1  0.58506381  0.40514596  0.74759090  1
  Zr  Zr75  1  0.50640293  0.70755024  0.61258239  1
  Zr  Zr76  1  0.50645347  0.08788654  0.37061870  1
  Zr  Zr77  1  0.68879221  0.29394000  0.88269403  1
  Zr  Zr78  1  0.69635410  0.50241988  0.38974299  1
  Zr  Zr79  1  0.89587706  0.69927426  0.12492545  1
  Ta  Ta80  1  0.30390023  0.30945306  0.86011628  1
  Ta  Ta81  1  0.80471082  0.81341018  0.48407186  1
  Ta  Ta82  1  -0.00671046  0.59613751  0.00420595  1
  Ta  Ta83  1  0.90200767  0.69618660  0.88804671  1
  Ta  Ta84  1  0.38263114  0.39831289  0.48763001  1
  Ta  Ta85  1  0.91885581  0.11486023  0.12651817  1
  Ta  Ta86  1  0.80427770  0.00805060  0.01715133  1
  Ta  Ta87  1  0.28574279  0.29227207  0.37877681  1
  Ta  Ta88  1  0.00064938  0.18507029  0.76598384  1
  Ta  Ta89  1  0.69552995  0.50009600  0.61205656  1
  Ta  Ta90  1  0.40914279  0.80849632  0.49036948  1
  Ta  Ta91  1  0.10823195  0.30623306  0.85543199  1
  Ta  Ta92  1  -0.01101119  0.61684201  0.74089798  1
  Ta  Ta93  1  0.90499072  0.07661183  0.87702362  1
  Ta  Ta94  1  0.29877520  0.49687098  0.11949413  1
  Ta  Ta95  1  0.89032252  0.48878035  0.36631797  1
  Ta  Ta96  1  0.31054466  0.70892526  0.12500496  1
  Ta  Ta97  1  0.30668467  0.69872987  0.38908554  1
  Ta  Ta98  1  0.00714751  0.21496670  0.50155858  1
  Ta  Ta99  1  0.21888555  0.81637813  -0.00074544  1
  Ta  Ta100  1  0.71169373  0.31462634  0.11347195  1
  Ta  Ta101  1  0.80009328  0.40137408  -0.01141228  1
  Ta  Ta102  1  0.69570137  0.09168512  0.88909200  1
  Ta  Ta103  1  0.90972554  0.89095893  0.89480735  1
  Ta  Ta104  1  0.20861182  0.80646813  0.74688863  1
  Ta  Ta105  1  -0.01268335  -0.00287551  0.49085886  1
  Ta  Ta106  1  0.89952536  0.49495273  0.63976642  1
  Ta  Ta107  1  0.68300061  0.51003786  0.10872381  1
  Ta  Ta108  1  0.50501649  0.68480337  0.12515238  1
  Ta  Ta109  1  0.69953277  0.91002839  0.37387150  1
  Ta  Ta110  1  0.79914445  0.59694839  0.00030172  1
  Ta  Ta111  1  0.30873611  0.89721704  0.37515955  1
  Ta  Ta112  1  0.49064666  0.49683730  0.11118820  1
  Ta  Ta113  1  0.00415777  0.00671218  0.24177359  1
  Ta  Ta114  1  0.20130353  0.20267497  0.74733623  1
  Ta  Ta115  1  0.21558873  0.79693422  0.25028784  1
  Ta  Ta116  1  0.11065245  0.90795454  0.11516632  1
  Ta  Ta117  1  0.39955227  0.19735788  0.49841821  1
  Ta  Ta118  1  0.81176549  0.60556452  0.50609890  1
  Ta  Ta119  1  0.37670685  0.38626260  0.00627276  1
  Ti  Ti120  1  0.60255495  0.19689296  0.74507731  1
  Ti  Ti121  1  0.29386287  0.49483601  0.88095871  1
  Ti  Ti122  1  0.10747956  0.70957323  0.12236943  1
  Ti  Ti123  1  0.59728458  0.01764062  0.74752344  1
  Ti  Ti124  1  0.30593951  0.68873498  0.87458131  1
  Ti  Ti125  1  0.07789505  0.47419839  0.37137641  1
  Ti  Ti126  1  0.27795930  0.50746604  0.38860780  1
  Ti  Ti127  1  0.50346075  0.70552081  0.37941135  1
  Ti  Ti128  1  0.60305904  0.60941818  0.50043044  1
  Ti  Ti129  1  0.70690050  0.91376091  0.60652366  1
  Ti  Ti130  1  0.30394603  0.89376141  0.61958609  1
  Ti  Ti131  1  0.60484063  0.19253534  0.02082181  1
  Ti  Ti132  1  0.81341754  0.40752086  0.50559959  1
  Ti  Ti133  1  0.68822005  0.09628509  0.60565414  1
  Ti  Ti134  1  0.20942676  0.41649376  0.74350002  1
  Ti  Ti135  1  0.41193512  -0.00262912  0.49912304  1
  Ti  Ti136  1  0.28405668  0.29466211  0.13409947  1
  Ti  Ti137  1  0.89384599  0.50208553  0.86619450  1
  Ti  Ti138  1  0.20608913  0.80136238  0.50171054  1
  Ti  Ti139  1  0.59182819  0.59761811  0.25262028  1
  Ti  Ti140  1  0.50286789  0.89851477  0.36066264  1
  Ti  Ti141  1  0.79204157  0.39670400  0.75919707  1
  Ti  Ti142  1  0.71011368  0.31063826  0.38447551  1
  Ti  Ti143  1  0.39420553  -0.01536588  0.75915495  1
  Ti  Ti144  1  0.60191338  -0.00134175  0.22756913  1
  Ti  Ti145  1  0.02489954  0.21597768  0.24320231  1
  Ti  Ti146  1  0.20606318  -0.00297554  0.50449067  1
  Ti  Ti147  1  0.01052079  0.79584720  0.00397916  1
  Ti  Ti148  1  0.10036121  0.90040366  0.61549582  1
  Ti  Ti149  1  0.19014529  0.39538375  -0.00234388  1
  Ti  Ti150  1  0.39808280  0.19406905  0.25702578  1
  Ti  Ti151  1  0.80036283  0.81199380  0.25374622  1
  Ti  Ti152  1  0.09712854  0.70779159  0.62374115  1
  Ti  Ti153  1  0.11253973  0.10991566  0.12487330  1
  Ti  Ti154  1  0.69818427  0.70626572  0.38325003  1
  Ti  Ti155  1  0.39112811  0.57806235  0.74834475  1
  Ti  Ti156  1  0.60373298  0.81584023  0.49211667  1
  Ti  Ti157  1  0.01341769  0.81433958  0.75339254  1
  Ti  Ti158  1  0.91676819  0.30992273  0.37437381  1
  Ti  Ti159  1  0.20338448  0.20615583  0.51215907  1
  Mo  Mo160  1  0.39508929  0.40771319  0.75053094  1
  Mo  Mo161  1  0.19532153  0.00907038  0.00832822  1
  Mo  Mo162  1  -0.01038913  0.40659901  0.76921594  1
  Mo  Mo163  1  0.09680097  0.28964422  0.11574600  1
  Mo  Mo164  1  0.40151424  0.19794030  0.00014619  1
  Mo  Mo165  1  0.29616820  0.88460311  0.86865626  1
  Mo  Mo166  1  0.59493714  0.39673132  0.01284819  1
  Mo  Mo167  1  0.51725778  0.10723800  0.60913489  1
  Mo  Mo168  1  0.19937637  0.60213552  0.51520790  1
  Mo  Mo169  1  0.70677757  0.89114006  0.11878056  1
  Mo  Mo170  1  0.60257117  0.79929448  0.02354970  1
  Mo  Mo171  1  0.29377942  0.89088184  0.12957717  1
  Mo  Mo172  1  -0.01810221  0.38361119  0.24872677  1
  Mo  Mo173  1  -0.01407357  -0.00860973  0.75239348  1
  Mo  Mo174  1  0.80241596  -0.00420728  0.49461801  1
  Mo  Mo175  1  0.09105633  0.50579433  0.64733720  1
  Mo  Mo176  1  0.58482790  0.60890825  0.00271874  1
  Mo  Mo177  1  0.40049969  0.79044881  0.26530997  1
  Mo  Mo178  1  0.70946491  0.10954328  0.11945618  1
  Mo  Mo179  1  0.40229536  -0.00512572  0.25844623  1
  Mo  Mo180  1  0.10262520  0.10684949  0.86872662  1
  Mo  Mo181  1  0.60296202  -0.00885622  0.49281668  1
  Mo  Mo182  1  0.89655740  0.29821551  0.85794421  1
  Mo  Mo183  1  0.80996075  0.79435715  0.00253845  1
  Mo  Mo184  1  -0.00090732  0.00807376  0.01514844  1
  Mo  Mo185  1  0.39762051  0.60187566  0.48687452  1
  Mo  Mo186  1  0.38581475  0.59457735  0.00663700  1
  Mo  Mo187  1  0.20987588  0.19955913  0.24686955  1
  Mo  Mo188  1  -0.01684212  0.39697595  0.50591970  1
  Mo  Mo189  1  0.91327286  0.30234769  0.11892422  1
  Mo  Mo190  1  0.49770608  0.10050785  0.13385079  1
  Mo  Mo191  1  0.60372055  0.40560275  0.49866515  1
  Mo  Mo192  1  0.60147500  0.19927490  0.49417611  1
  Mo  Mo193  1  0.09743572  0.29293125  0.38223374  1
  Mo  Mo194  1  0.29412714  0.50107579  0.61406017  1
  Mo  Mo195  1  0.89675258  0.90992065  0.36519756  1
  Mo  Mo196  1  0.50026165  0.69562712  0.87141078  1
  Mo  Mo197  1  0.90388328  0.69760000  0.62186519  1
  Mo  Mo198  1  0.78734492  0.39929336  0.25087524  1
  Mo  Mo199  1  0.69725422  0.69941371  0.11088881  1
