# generated using pymatgen
data_HfZrTaTiMo
_symmetry_space_group_name_H-M   'P 1'
_cell_length_a   15.21637980
_cell_length_b   15.21016246
_cell_length_c   16.83373543
_cell_angle_alpha   90.02793486
_cell_angle_beta   89.96786268
_cell_angle_gamma   89.93371063
_symmetry_Int_Tables_number   1
_chemical_formula_structural   HfZrTaTiMo
_chemical_formula_sum   'Hf40 Zr40 Ta40 Ti40 Mo40'
_cell_volume   3896.05679389
_cell_formula_units_Z   40
loop_
 _symmetry_equiv_pos_site_id
 _symmetry_equiv_pos_as_xyz
  1  'x, y, z'
loop_
 _atom_site_type_symbol
 _atom_site_label
 _atom_site_symmetry_multiplicity
 _atom_site_fract_x
 _atom_site_fract_y
 _atom_site_fract_z
 _atom_site_occupancy
  Hf  Hf0  1  0.20091226  0.59477579  0.48462606  1
  Hf  Hf1  1  0.81257938  0.01446051  0.25765553  1
  Hf  Hf2  1  0.68458731  0.30777816  0.37039230  1
  Hf  Hf3  1  0.29552441  0.91941653  0.12155714  1
  Hf  Hf4  1  0.89685467  0.11468607  0.61843177  1
  Hf  Hf5  1  0.78692660  0.80989002  0.74442284  1
  Hf  Hf6  1  0.09644427  0.29204446  0.11929606  1
  Hf  Hf7  1  0.49944099  0.88401226  0.86700628  1
  Hf  Hf8  1  0.69394562  0.90974887  0.87586324  1
  Hf  Hf9  1  0.09391927  0.09165599  0.61939471  1
  Hf  Hf10  1  0.70346648  0.49827219  0.63504618  1
  Hf  Hf11  1  0.20432486  0.80286321  0.00228894  1
  Hf  Hf12  1  0.47365868  0.69775383  0.38834613  1
  Hf  Hf13  1  0.31381980  0.50491449  0.13117919  1
  Hf  Hf14  1  0.70574604  0.68886729  0.12821458  1
  Hf  Hf15  1  0.89757300  0.50756743  0.62370677  1
  Hf  Hf16  1  0.58743087  0.20223105  0.24485852  1
  Hf  Hf17  1  0.90756431  0.90592993  0.12275721  1
  Hf  Hf18  1  0.59393640  0.58664877  0.00212101  1
  Hf  Hf19  1  0.00509538  0.79659144  -0.00423887  1
  Hf  Hf20  1  0.80972953  0.80401853  0.49960917  1
  Hf  Hf21  1  0.29657108  0.30348758  0.88390721  1
  Hf  Hf22  1  0.78660455  0.40904186  0.24426046  1
  Hf  Hf23  1  0.59353999  -0.00306058  0.01004758  1
  Hf  Hf24  1  0.59189955  0.19966191  -0.00281936  1
  Hf  Hf25  1  0.70015335  0.10337844  0.37340609  1
  Hf  Hf26  1  0.09494228  0.69745715  0.35648381  1
  Hf  Hf27  1  0.47573784  0.10128158  0.12712888  1
  Hf  Hf28  1  0.69987907  0.09878624  0.13017808  1
  Hf  Hf29  1  0.39517884  0.40855467  0.49771941  1
  Hf  Hf30  1  0.69571116  0.30751459  0.12162998  1
  Hf  Hf31  1  0.00960471  0.80248927  0.50672954  1
  Hf  Hf32  1  0.80180487  0.20598847  0.76690508  1
  Hf  Hf33  1  0.49599681  0.09914047  0.61845366  1
  Hf  Hf34  1  0.58785758  0.60584199  0.75394296  1
  Hf  Hf35  1  -0.00247764  0.18909303  0.76498159  1
  Hf  Hf36  1  0.10829088  0.07981776  0.10926919  1
  Hf  Hf37  1  0.61555598  0.00134839  0.51520971  1
  Hf  Hf38  1  -0.00042835  0.58236912  0.76559960  1
  Hf  Hf39  1  0.79196884  0.19818091  -0.01537392  1
  Zr  Zr40  1  0.60743280  0.80138166  0.49135327  1
  Zr  Zr41  1  0.39613734  -0.00188212  0.74800549  1
  Zr  Zr42  1  0.39655197  0.20001344  0.75765649  1
  Zr  Zr43  1  0.10492553  0.28722204  0.36514941  1
  Zr  Zr44  1  0.90939964  0.70143949  0.13557317  1
  Zr  Zr45  1  0.70324408  0.69991735  0.62798513  1
  Zr  Zr46  1  0.60918659  0.18644356  0.75476755  1
  Zr  Zr47  1  0.90194056  0.10075797  0.11412084  1
  Zr  Zr48  1  0.07925544  0.08884792  0.39400558  1
  Zr  Zr49  1  -0.00528397  0.38680560  0.48606059  1
  Zr  Zr50  1  0.48609776  0.70093499  0.60933303  1
  Zr  Zr51  1  0.80909361  0.41160547  0.76676582  1
  Zr  Zr52  1  0.59009703  0.78845047  0.25804151  1
  Zr  Zr53  1  0.10761827  0.89433316  0.64080164  1
  Zr  Zr54  1  -0.00626575  0.79133179  0.74676339  1
  Zr  Zr55  1  0.29490922  0.09358821  0.39288871  1
  Zr  Zr56  1  0.48722355  0.90800138  0.38645254  1
  Zr  Zr57  1  0.89594281  0.50517739  0.12759950  1
  Zr  Zr58  1  0.38339988  0.00364834  0.25513883  1
  Zr  Zr59  1  0.79374654  0.41198373  0.49309682  1
  Zr  Zr60  1  0.19325184  0.41116188  0.76104529  1
  Zr  Zr61  1  0.09551481  0.49110961  0.62175580  1
  Zr  Zr62  1  0.20365956  0.39127065  0.49040150  1
  Zr  Zr63  1  0.11147614  0.90566686  0.85427609  1
  Zr  Zr64  1  0.50725763  0.49332746  0.36388004  1
  Zr  Zr65  1  0.11430675  0.89833484  0.36694452  1
  Zr  Zr66  1  0.40048915  0.41933775  0.76280084  1
  Zr  Zr67  1  0.10385403  0.29287562  0.88896920  1
  Zr  Zr68  1  0.30322596  0.29312071  0.11334710  1
  Zr  Zr69  1  0.11575023  0.69045571  0.86903576  1
  Zr  Zr70  1  0.49804749  0.10988303  0.38558674  1
  Zr  Zr71  1  0.90431302  0.91026278  0.87343043  1
  Zr  Zr72  1  0.49489414  0.50468584  0.62413056  1
  Zr  Zr73  1  0.60925002  0.59105574  0.49596045  1
  Zr  Zr74  1  0.59611342  0.79515175  0.01029640  1
  Zr  Zr75  1  0.41135791  0.42107506  -0.00946609  1
  Zr  Zr76  1  0.50302649  0.30411532  0.63179982  1
  Zr  Zr77  1  0.79585923  0.81050474  0.25397605  1
  Zr  Zr78  1  0.21003527  0.17394025  0.24443538  1
  Zr  Zr79  1  0.89779897  0.51344230  0.36039551  1
  Ta  Ta80  1  -0.00070729  0.39113244  0.76244712  1
  Ta  Ta81  1  0.80970079  0.21176459  0.48848641  1
  Ta  Ta82  1  0.69271039  0.70640182  0.87119927  1
  Ta  Ta83  1  0.10008696  0.49549653  0.35185184  1
  Ta  Ta84  1  -0.00868120  0.18540950  0.24744269  1
  Ta  Ta85  1  -0.00669012  0.38474160  0.24750839  1
  Ta  Ta86  1  0.61119716  -0.01368058  0.73138255  1
  Ta  Ta87  1  0.10607575  0.68360737  0.62941624  1
  Ta  Ta88  1  0.79960188  0.01688027  0.74902848  1
  Ta  Ta89  1  0.29141983  0.30384951  0.63215807  1
  Ta  Ta90  1  0.09446055  0.28981421  0.63050579  1
  Ta  Ta91  1  0.71229349  0.29322943  0.62543235  1
  Ta  Ta92  1  0.60030297  -0.00837837  0.24694607  1
  Ta  Ta93  1  -0.00557752  0.60490727  0.49354440  1
  Ta  Ta94  1  -0.00394805  0.18950035  -0.00892297  1
  Ta  Ta95  1  0.39008542  0.21347060  0.50632474  1
  Ta  Ta96  1  0.19979578  0.18937626  0.74941404  1
  Ta  Ta97  1  0.28619358  0.09402979  0.88642625  1
  Ta  Ta98  1  0.29546020  0.51377213  0.62806673  1
  Ta  Ta99  1  0.20794988  -0.01953407  0.50767138  1
  Ta  Ta100  1  0.19417764  0.41724103  0.00263575  1
  Ta  Ta101  1  0.79783824  0.79985412  -0.00158947  1
  Ta  Ta102  1  0.48934449  0.68395709  0.88087352  1
  Ta  Ta103  1  0.50391825  0.08578394  0.87442360  1
  Ta  Ta104  1  0.80336857  0.60385958  -0.01135934  1
  Ta  Ta105  1  0.10553319  0.69730155  0.13771946  1
  Ta  Ta106  1  0.81250932  0.00573776  0.49441002  1
  Ta  Ta107  1  0.90368813  0.70993503  0.36266282  1
  Ta  Ta108  1  0.22330697  0.80368194  0.24981998  1
  Ta  Ta109  1  0.30653995  0.49758745  0.35837631  1
  Ta  Ta110  1  0.49012388  0.68675764  0.12639402  1
  Ta  Ta111  1  0.40138483  0.19504323  -0.01372660  1
  Ta  Ta112  1  0.60454379  0.39717726  0.75995896  1
  Ta  Ta113  1  0.79538492  0.41025951  -0.00569086  1
  Ta  Ta114  1  0.30865696  0.89466930  0.62615642  1
  Ta  Ta115  1  0.91786128  0.91328880  0.37278984  1
  Ta  Ta116  1  0.01186659  0.59316611  -0.00243411  1
  Ta  Ta117  1  0.89795515  0.29979235  0.11431937  1
  Ta  Ta118  1  0.10145054  0.49843734  0.14033526  1
  Ta  Ta119  1  0.20847460  0.59991895  0.24829248  1
  Ti  Ti120  1  0.40249414  0.79914119  0.00302370  1
  Ti  Ti121  1  0.49290917  0.89009045  0.13642041  1
  Ti  Ti122  1  0.80810181  0.21314960  0.25545565  1
  Ti  Ti123  1  0.80126661  0.00094153  -0.00554677  1
  Ti  Ti124  1  0.30569571  0.70933880  0.12666269  1
  Ti  Ti125  1  0.48194410  0.30231083  0.36696838  1
  Ti  Ti126  1  0.30838714  0.70920698  0.87755081  1
  Ti  Ti127  1  0.70010731  0.50536030  0.37063138  1
  Ti  Ti128  1  0.69394986  0.30568092  0.87840996  1
  Ti  Ti129  1  0.90219327  0.30767379  0.88917515  1
  Ti  Ti130  1  0.50269926  0.89106749  0.61944004  1
  Ti  Ti131  1  0.20852586  0.78759543  0.49693758  1
  Ti  Ti132  1  0.90407773  0.91584242  0.62971023  1
  Ti  Ti133  1  0.20479268  0.60229599  0.01177811  1
  Ti  Ti134  1  0.70518963  0.90483764  0.37394112  1
  Ti  Ti135  1  0.39504454  -0.00527081  -0.00790450  1
  Ti  Ti136  1  0.21070028  0.38847496  0.24993397  1
  Ti  Ti137  1  0.70318887  0.89994519  0.12597155  1
  Ti  Ti138  1  0.50293626  0.30211210  0.87218792  1
  Ti  Ti139  1  0.19557313  0.20215677  0.50728812  1
  Ti  Ti140  1  0.49119047  0.31193503  0.12808017  1
  Ti  Ti141  1  0.60843226  0.58219928  0.23930751  1
  Ti  Ti142  1  0.89211091  0.69602763  0.87342202  1
  Ti  Ti143  1  0.59764030  0.39265963  0.50395686  1
  Ti  Ti144  1  -0.00036048  0.40632173  0.00173783  1
  Ti  Ti145  1  0.09593348  0.08598266  0.88398803  1
  Ti  Ti146  1  0.29917409  0.52801011  0.88054303  1
  Ti  Ti147  1  0.60544075  0.20626264  0.50644624  1
  Ti  Ti148  1  0.40318944  0.60957467  0.25050214  1
  Ti  Ti149  1  0.40990438  0.78634445  0.74600718  1
  Ti  Ti150  1  0.60045955  0.40072203  -0.00445792  1
  Ti  Ti151  1  0.90193759  0.69400812  0.62812507  1
  Ti  Ti152  1  0.29393899  0.09941585  0.61923678  1
  Ti  Ti153  1  0.30003312  0.90200564  0.86925798  1
  Ti  Ti154  1  0.69858911  0.50964923  0.87102177  1
  Ti  Ti155  1  0.29772941  0.69692722  0.62129553  1
  Ti  Ti156  1  0.21849850  0.79055808  0.74619811  1
  Ti  Ti157  1  0.90455429  0.30852543  0.62871355  1
  Ti  Ti158  1  0.09920648  0.89236156  0.13952300  1
  Ti  Ti159  1  0.71081334  0.68787351  0.37057003  1
  Mo  Mo160  1  0.19451970  -0.00403384  0.25125581  1
  Mo  Mo161  1  0.00517257  -0.01184760  -0.00265948  1
  Mo  Mo162  1  0.59298587  0.39857468  0.24238709  1
  Mo  Mo163  1  0.19890182  0.19757100  -0.00221616  1
  Mo  Mo164  1  0.38144878  0.80799188  0.50517583  1
  Mo  Mo165  1  0.79187294  0.60748932  0.25226496  1
  Mo  Mo166  1  0.30512676  0.88913157  0.38504393  1
  Mo  Mo167  1  0.50390429  0.50020807  0.87242657  1
  Mo  Mo168  1  -0.00549067  -0.00990454  0.50665270  1
  Mo  Mo169  1  0.00428851  0.59574842  0.24695040  1
  Mo  Mo170  1  0.90109513  0.09597042  0.88397377  1
  Mo  Mo171  1  0.69467040  0.09122442  0.87672009  1
  Mo  Mo172  1  0.20707490  0.60431019  0.74837691  1
  Mo  Mo173  1  0.00718069  0.80539388  0.24718484  1
  Mo  Mo174  1  0.39695715  0.00332338  0.51832635  1
  Mo  Mo175  1  0.29440784  0.70104394  0.36782639  1
  Mo  Mo176  1  0.40128409  0.79766534  0.24407779  1
  Mo  Mo177  1  0.00602304  0.00262684  0.24855212  1
  Mo  Mo178  1  0.89973076  0.10854096  0.38068492  1
  Mo  Mo179  1  0.38316801  0.61287395  0.75284150  1
  Mo  Mo180  1  0.39319622  0.21034305  0.25122252  1
  Mo  Mo181  1  0.71398001  0.90854888  0.62377750  1
  Mo  Mo182  1  0.37918016  0.59922436  0.49299378  1
  Mo  Mo183  1  0.39828780  0.39536460  0.24816618  1
  Mo  Mo184  1  0.70829331  0.10779746  0.61751168  1
  Mo  Mo185  1  0.20566936  0.00959435  0.74757104  1
  Mo  Mo186  1  0.19894157  -0.01130623  -0.00858248  1
  Mo  Mo187  1  0.39417383  0.61441703  0.00565552  1
  Mo  Mo188  1  0.30855812  0.29356703  0.36971098  1
  Mo  Mo189  1  0.81281932  0.61380178  0.49565600  1
  Mo  Mo190  1  0.80092489  0.60923380  0.76869292  1
  Mo  Mo191  1  0.29913199  0.10224954  0.10017065  1
  Mo  Mo192  1  0.89723448  0.29590454  0.36286803  1
  Mo  Mo193  1  -0.00637894  0.00815993  0.74824082  1
  Mo  Mo194  1  0.69888501  0.49924270  0.11328270  1
  Mo  Mo195  1  0.10768193  0.49753647  0.88857024  1
  Mo  Mo196  1  0.50713847  0.49644113  0.13706872  1
  Mo  Mo197  1  -0.00277413  0.20760508  0.50480086  1
  Mo  Mo198  1  0.90532506  0.50098404  0.89163499  1
  Mo  Mo199  1  0.59155137  0.80355204  0.74817829  1
