# generated using pymatgen
data_HfZrTaTiMo
_symmetry_space_group_name_H-M   'P 1'
_cell_length_a   15.18944023
_cell_length_b   15.19925718
_cell_length_c   16.78923502
_cell_angle_alpha   90.00626329
_cell_angle_beta   89.95706356
_cell_angle_gamma   89.98790214
_symmetry_Int_Tables_number   1
_chemical_formula_structural   HfZrTaTiMo
_chemical_formula_sum   'Hf40 Zr40 Ta40 Ti40 Mo40'
_cell_volume   3876.09941484
_cell_formula_units_Z   40
loop_
 _symmetry_equiv_pos_site_id
 _symmetry_equiv_pos_as_xyz
  1  'x, y, z'
loop_
 _atom_site_type_symbol
 _atom_site_label
 _atom_site_symmetry_multiplicity
 _atom_site_fract_x
 _atom_site_fract_y
 _atom_site_fract_z
 _atom_site_occupancy
  Hf  Hf0  1  0.60294127  0.80389427  -0.01002726  1
  Hf  Hf1  1  0.18795679  0.79978342  -0.00040821  1
  Hf  Hf2  1  0.10098725  0.30691793  0.87338094  1
  Hf  Hf3  1  0.20067189  0.00904186  0.51641916  1
  Hf  Hf4  1  -0.01427764  0.39549983  0.26661461  1
  Hf  Hf5  1  0.19097625  0.59394614  -0.00101813  1
  Hf  Hf6  1  0.40369545  0.40038996  0.73725756  1
  Hf  Hf7  1  -0.00696080  0.19718075  -0.00762422  1
  Hf  Hf8  1  0.90188438  0.68912578  0.11172951  1
  Hf  Hf9  1  0.18872186  0.80277001  0.73150899  1
  Hf  Hf10  1  0.81032507  0.01746273  0.76067960  1
  Hf  Hf11  1  0.72544425  0.30927353  0.61892605  1
  Hf  Hf12  1  0.39892873  0.20145206  0.75499397  1
  Hf  Hf13  1  0.19659673  0.79784035  0.24964684  1
  Hf  Hf14  1  0.19983043  0.20048316  -0.00583734  1
  Hf  Hf15  1  -0.00304744  0.19749567  0.25210129  1
  Hf  Hf16  1  0.19326927  0.59637060  0.50860569  1
  Hf  Hf17  1  0.39834635  0.59284377  0.73484352  1
  Hf  Hf18  1  0.40656724  -0.00866379  0.50787255  1
  Hf  Hf19  1  0.69428634  0.90905431  0.63969559  1
  Hf  Hf20  1  -0.01374117  0.58660169  0.49975772  1
  Hf  Hf21  1  0.30063982  0.71267858  0.39262503  1
  Hf  Hf22  1  0.20037206  -0.00038542  0.73758155  1
  Hf  Hf23  1  0.89319601  0.32038055  0.88621946  1
  Hf  Hf24  1  0.60672410  -0.00661196  0.24471233  1
  Hf  Hf25  1  0.30117793  0.50516248  0.37154164  1
  Hf  Hf26  1  -0.00710339  0.38515854  0.48900168  1
  Hf  Hf27  1  0.51173533  0.69786181  0.38155940  1
  Hf  Hf28  1  0.19195790  0.39895600  0.25704668  1
  Hf  Hf29  1  0.49706763  0.69872627  0.87227876  1
  Hf  Hf30  1  0.30337144  0.09792272  0.37679971  1
  Hf  Hf31  1  0.20565154  -0.01238406  -0.00030488  1
  Hf  Hf32  1  0.41342518  0.59566352  0.51428688  1
  Hf  Hf33  1  0.10275326  0.09631790  0.12011437  1
  Hf  Hf34  1  0.70158910  0.70992532  0.63754254  1
  Hf  Hf35  1  0.50509236  0.49669783  0.36235027  1
  Hf  Hf36  1  0.29389645  0.49718096  0.86889736  1
  Hf  Hf37  1  0.50734920  0.71708504  0.62961955  1
  Hf  Hf38  1  0.87479466  0.70107905  0.39609278  1
  Hf  Hf39  1  0.70566254  0.88582189  0.37663521  1
  Zr  Zr40  1  0.51164348  0.09533527  0.61981738  1
  Zr  Zr41  1  0.39316404  0.40432976  0.51585958  1
  Zr  Zr42  1  0.20101196  -0.00769463  0.24372368  1
  Zr  Zr43  1  0.40156552  0.61478708  0.24964040  1
  Zr  Zr44  1  0.89134117  0.48035648  0.64311150  1
  Zr  Zr45  1  0.72137493  0.49924840  0.88137452  1
  Zr  Zr46  1  0.10396893  0.89849802  0.38363176  1
  Zr  Zr47  1  0.30890831  0.08569661  0.88112660  1
  Zr  Zr48  1  0.09475650  0.50816260  0.13710946  1
  Zr  Zr49  1  0.39562353  0.80764566  0.75475341  1
  Zr  Zr50  1  0.61016536  0.19912598  0.24415543  1
  Zr  Zr51  1  0.61339898  -0.00719013  0.49297994  1
  Zr  Zr52  1  0.60846668  0.41797110  0.50194379  1
  Zr  Zr53  1  0.51133042  0.29538528  0.61476656  1
  Zr  Zr54  1  0.70024973  0.70152657  0.11326425  1
  Zr  Zr55  1  0.80321969  0.20807698  0.24113728  1
  Zr  Zr56  1  0.50427356  0.09959076  0.37754923  1
  Zr  Zr57  1  0.89369519  0.68690473  0.87047640  1
  Zr  Zr58  1  0.79109628  0.40724696  0.25302591  1
  Zr  Zr59  1  -0.00935192  0.18853366  0.76137437  1
  Zr  Zr60  1  0.08830943  0.69158301  0.85795404  1
  Zr  Zr61  1  0.80353809  0.79663122  0.24245474  1
  Zr  Zr62  1  0.52064679  0.10532203  0.88640291  1
  Zr  Zr63  1  0.28931685  0.69816712  0.86812445  1
  Zr  Zr64  1  0.49986809  0.89514892  0.11866989  1
  Zr  Zr65  1  0.41038935  0.21450983  0.00158338  1
  Zr  Zr66  1  0.29856295  0.30653015  0.12830468  1
  Zr  Zr67  1  0.89095289  0.69543980  0.62765795  1
  Zr  Zr68  1  0.30601666  0.30033684  0.37782239  1
  Zr  Zr69  1  0.19638632  0.19689191  0.25160791  1
  Zr  Zr70  1  0.59374049  0.59145298  -0.00350638  1
  Zr  Zr71  1  0.50092936  0.29881292  0.38045139  1
  Zr  Zr72  1  0.30059838  0.70227126  0.12232534  1
  Zr  Zr73  1  0.89899208  0.10157085  0.61863176  1
  Zr  Zr74  1  0.69271442  0.29717228  0.89392750  1
  Zr  Zr75  1  0.80172251  0.00294220  0.24611518  1
  Zr  Zr76  1  0.40953999  0.00122734  0.73814206  1
  Zr  Zr77  1  0.90960220  0.89619139  0.38787678  1
  Zr  Zr78  1  0.61360366  0.19672733  0.75039756  1
  Zr  Zr79  1  0.28874462  0.28404918  0.61899714  1
  Ta  Ta80  1  0.40323438  0.00090458  0.24774048  1
  Ta  Ta81  1  0.09507337  0.50463246  0.37358216  1
  Ta  Ta82  1  0.49183475  0.49939722  0.13215993  1
  Ta  Ta83  1  0.90228221  0.89520564  0.11576689  1
  Ta  Ta84  1  0.19650145  0.40452942  0.00195509  1
  Ta  Ta85  1  0.00553006  -0.01233638  0.00154942  1
  Ta  Ta86  1  0.89926628  0.09783338  0.38014975  1
  Ta  Ta87  1  0.38861394  0.81231192  -0.01318612  1
  Ta  Ta88  1  0.62066496  0.19667330  0.49279086  1
  Ta  Ta89  1  0.70416244  0.09791201  0.10758481  1
  Ta  Ta90  1  0.59831210  0.79147281  0.24544434  1
  Ta  Ta91  1  0.59930478  0.39734609  0.23382922  1
  Ta  Ta92  1  0.29807568  0.70106509  0.61656235  1
  Ta  Ta93  1  0.09099705  0.08221470  0.87237108  1
  Ta  Ta94  1  0.09020720  0.70244582  0.12764975  1
  Ta  Ta95  1  0.18866607  0.20347293  0.49418687  1
  Ta  Ta96  1  0.80365695  0.80993330  0.76121758  1
  Ta  Ta97  1  0.49693092  0.91153755  0.87876764  1
  Ta  Ta98  1  0.08366087  0.30798959  0.11730442  1
  Ta  Ta99  1  -0.01243053  0.60593575  0.26448562  1
  Ta  Ta100  1  0.09171427  0.49156292  0.63244995  1
  Ta  Ta101  1  0.19844631  0.19672420  0.75756221  1
  Ta  Ta102  1  0.00388426  0.19454471  0.49228597  1
  Ta  Ta103  1  0.31179969  0.09450477  0.11861799  1
  Ta  Ta104  1  0.29961043  0.50302427  0.13385175  1
  Ta  Ta105  1  0.19872671  0.39556247  0.74157317  1
  Ta  Ta106  1  0.19141518  0.80499428  0.51650146  1
  Ta  Ta107  1  0.50267576  0.09960727  0.11705045  1
  Ta  Ta108  1  0.49572770  0.89036620  0.37105870  1
  Ta  Ta109  1  0.60146644  0.59942433  0.75802162  1
  Ta  Ta110  1  0.59083599  0.38996836  0.01883716  1
  Ta  Ta111  1  0.91282782  0.90466929  0.87325343  1
  Ta  Ta112  1  0.39808088  0.41494214  0.00161176  1
  Ta  Ta113  1  0.40718441  0.20035802  0.23880523  1
  Ta  Ta114  1  0.89974785  0.49266956  0.12122786  1
  Ta  Ta115  1  -0.00170987  -0.00696457  0.24134284  1
  Ta  Ta116  1  0.18497546  0.39936919  0.49969859  1
  Ta  Ta117  1  0.60785470  0.40442680  0.74742296  1
  Ta  Ta118  1  0.70115999  0.51365135  0.63278227  1
  Ta  Ta119  1  0.90122756  0.09760675  0.11394887  1
  Ti  Ti120  1  0.39458959  0.60046676  0.00054493  1
  Ti  Ti121  1  0.60554052  0.79587400  0.50029950  1
  Ti  Ti122  1  0.00462326  -0.00297923  0.50805839  1
  Ti  Ti123  1  0.70129050  0.70256269  0.86818570  1
  Ti  Ti124  1  0.19636110  0.59398729  0.73060086  1
  Ti  Ti125  1  0.08711642  0.49543965  0.85661790  1
  Ti  Ti126  1  0.81136620  0.21066711  0.49038825  1
  Ti  Ti127  1  0.90288308  0.89355818  0.62366719  1
  Ti  Ti128  1  0.80853768  -0.00322417  -0.00407916  1
  Ti  Ti129  1  0.09884824  0.10604726  0.63049651  1
  Ti  Ti130  1  -0.00076801  0.79788933  0.24777301  1
  Ti  Ti131  1  0.80646508  0.41478204  0.48354208  1
  Ti  Ti132  1  0.80138373  0.80572151  -0.01075080  1
  Ti  Ti133  1  0.31142787  0.89324279  0.61730612  1
  Ti  Ti134  1  0.18901292  0.60923505  0.25976271  1
  Ti  Ti135  1  0.49609566  0.69924795  0.11737241  1
  Ti  Ti136  1  0.30185510  0.30635652  0.87549083  1
  Ti  Ti137  1  0.69865053  0.90927985  0.86799299  1
  Ti  Ti138  1  0.10124036  0.89423919  0.86465027  1
  Ti  Ti139  1  0.70587487  0.50103404  0.11432948  1
  Ti  Ti140  1  0.50196073  0.49305003  0.87455553  1
  Ti  Ti141  1  0.50039443  0.31004988  0.87580727  1
  Ti  Ti142  1  0.70191162  0.30394989  0.37715245  1
  Ti  Ti143  1  0.60982802  0.59914242  0.23961766  1
  Ti  Ti144  1  0.30338745  0.90071814  0.12498157  1
  Ti  Ti145  1  0.71517574  0.10514770  0.89453976  1
  Ti  Ti146  1  0.08215069  0.70224758  0.62639862  1
  Ti  Ti147  1  -0.00704712  0.58010736  -0.00854214  1
  Ti  Ti148  1  0.79962837  0.60093349  0.25002438  1
  Ti  Ti149  1  0.70043904  0.52458914  0.37595249  1
  Ti  Ti150  1  0.09523928  0.09343924  0.37418742  1
  Ti  Ti151  1  0.08707553  0.70595034  0.38719467  1
  Ti  Ti152  1  0.80051436  0.00488636  0.49890104  1
  Ti  Ti153  1  0.40106787  0.80806761  0.25072884  1
  Ti  Ti154  1  -0.00071579  0.79625337  -0.00306610  1
  Ti  Ti155  1  0.70773461  0.10772951  0.62508739  1
  Ti  Ti156  1  0.30461371  0.90046907  0.38256960  1
  Ti  Ti157  1  0.60804420  -0.00338646  0.00436009  1
  Ti  Ti158  1  0.80446380  0.21599954  0.75503638  1
  Ti  Ti159  1  0.08301226  0.29604138  0.63208916  1
  Mo  Mo160  1  0.61125562  0.00023679  0.76161043  1
  Mo  Mo161  1  0.28834012  0.49731659  0.62626552  1
  Mo  Mo162  1  0.00308756  0.59618593  0.74145336  1
  Mo  Mo163  1  0.60373721  0.19900390  0.01260693  1
  Mo  Mo164  1  0.51011734  0.89304307  0.62574848  1
  Mo  Mo165  1  0.89767008  0.09593947  0.88965830  1
  Mo  Mo166  1  0.80606379  0.40906333  0.01292528  1
  Mo  Mo167  1  0.69131725  0.69832247  0.37010389  1
  Mo  Mo168  1  0.09939073  0.29444351  0.37856459  1
  Mo  Mo169  1  0.89145390  0.50613597  0.37611171  1
  Mo  Mo170  1  0.60717737  0.60424449  0.50537845  1
  Mo  Mo171  1  0.80484712  0.60070000  0.00063241  1
  Mo  Mo172  1  -0.00772842  0.80848441  0.74552189  1
  Mo  Mo173  1  0.40588088  -0.00437242  0.00428951  1
  Mo  Mo174  1  0.29343674  0.89844562  0.87135052  1
  Mo  Mo175  1  0.70380728  0.30502843  0.11177288  1
  Mo  Mo176  1  0.49853846  0.30387692  0.13109789  1
  Mo  Mo177  1  0.08826192  0.90220241  0.61959699  1
  Mo  Mo178  1  0.91245647  0.49880139  0.86015978  1
  Mo  Mo179  1  0.60377990  0.81009995  0.77063238  1
  Mo  Mo180  1  0.09062496  0.88932140  0.12577981  1
  Mo  Mo181  1  0.00127401  -0.01341326  0.74801182  1
  Mo  Mo182  1  0.90594803  0.28980313  0.62240810  1
  Mo  Mo183  1  0.89142027  0.29124111  0.37709682  1
  Mo  Mo184  1  0.29604441  0.10482554  0.62227385  1
  Mo  Mo185  1  0.79209916  0.59799434  0.75396111  1
  Mo  Mo186  1  0.40299670  0.40087056  0.24483362  1
  Mo  Mo187  1  0.90093613  0.30583164  0.11318737  1
  Mo  Mo188  1  0.00994567  0.40862027  -0.00027163  1
  Mo  Mo189  1  0.51208917  0.50602336  0.63595443  1
  Mo  Mo190  1  0.40236469  0.80281135  0.50181133  1
  Mo  Mo191  1  0.71493303  0.10754644  0.37916843  1
  Mo  Mo192  1  0.39087553  0.18606488  0.50422518  1
  Mo  Mo193  1  0.77853950  0.59672563  0.50363419  1
  Mo  Mo194  1  0.00153059  0.38902996  0.74764799  1
  Mo  Mo195  1  0.80152449  0.20216515  0.01329076  1
  Mo  Mo196  1  0.79402589  0.39222679  0.75244921  1
  Mo  Mo197  1  0.70902106  0.90258577  0.11207530  1
  Mo  Mo198  1  0.78972811  0.81361365  0.50980424  1
  Mo  Mo199  1  0.00088420  0.79609046  0.50905433  1
