# generated using pymatgen
data_HfZrTaTiMo
_symmetry_space_group_name_H-M   'P 1'
_cell_length_a   15.21051249
_cell_length_b   15.21566149
_cell_length_c   16.84337018
_cell_angle_alpha   90.07350638
_cell_angle_beta   90.05841784
_cell_angle_gamma   90.06028393
_symmetry_Int_Tables_number   1
_chemical_formula_structural   HfZrTaTiMo
_chemical_formula_sum   'Hf40 Zr40 Ta40 Ti40 Mo40'
_cell_volume   3898.18866650
_cell_formula_units_Z   40
loop_
 _symmetry_equiv_pos_site_id
 _symmetry_equiv_pos_as_xyz
  1  'x, y, z'
loop_
 _atom_site_type_symbol
 _atom_site_label
 _atom_site_symmetry_multiplicity
 _atom_site_fract_x
 _atom_site_fract_y
 _atom_site_fract_z
 _atom_site_occupancy
  Hf  Hf0  1  0.31122106  0.49598128  0.11402653  1
  Hf  Hf1  1  0.58893261  0.59155033  0.48915278  1
  Hf  Hf2  1  0.90437417  0.29610519  0.64171909  1
  Hf  Hf3  1  0.51379623  0.09487948  0.36793307  1
  Hf  Hf4  1  0.09251344  0.70081830  0.11877614  1
  Hf  Hf5  1  0.61086881  0.39455929  0.49014900  1
  Hf  Hf6  1  0.20729691  0.00390221  0.50540568  1
  Hf  Hf7  1  0.09845213  0.10708131  0.11794418  1
  Hf  Hf8  1  0.21522812  0.39757875  0.24870204  1
  Hf  Hf9  1  0.60702288  0.19791788  0.76025418  1
  Hf  Hf10  1  0.40850579  0.41234529  0.50196655  1
  Hf  Hf11  1  -0.00779895  0.61045841  0.76380467  1
  Hf  Hf12  1  0.19956984  0.39482635  -0.01603270  1
  Hf  Hf13  1  -0.00212057  0.80252089  0.49057744  1
  Hf  Hf14  1  0.19673194  0.59308703  0.25408961  1
  Hf  Hf15  1  0.01290667  0.40484559  0.77413412  1
  Hf  Hf16  1  -0.01402759  0.21088830  0.49838197  1
  Hf  Hf17  1  0.40822217  0.18052201  0.49776898  1
  Hf  Hf18  1  0.50728669  0.28401809  0.62215799  1
  Hf  Hf19  1  0.08820251  0.70594641  0.62501380  1
  Hf  Hf20  1  0.61201749  0.78122694  0.00065841  1
  Hf  Hf21  1  0.81524446  0.40698456  0.01361311  1
  Hf  Hf22  1  0.91069608  0.09108524  0.87345533  1
  Hf  Hf23  1  0.29450284  0.69984681  0.86794136  1
  Hf  Hf24  1  0.30298207  0.90108575  0.11808098  1
  Hf  Hf25  1  -0.01397393  0.59239036  0.24946984  1
  Hf  Hf26  1  0.59256467  0.20485856  0.00230427  1
  Hf  Hf27  1  0.51266040  0.90910902  0.10955321  1
  Hf  Hf28  1  0.61144819  0.19303584  0.24384776  1
  Hf  Hf29  1  0.09597738  0.69696925  0.37802925  1
  Hf  Hf30  1  0.19481957  0.59875637  -0.01384275  1
  Hf  Hf31  1  0.29749854  0.28898710  0.61544134  1
  Hf  Hf32  1  0.90276740  0.89651898  0.62294470  1
  Hf  Hf33  1  0.87633786  0.70504164  0.88752487  1
  Hf  Hf34  1  0.48733417  0.69678903  0.12525840  1
  Hf  Hf35  1  0.88765363  0.12012038  0.36125009  1
  Hf  Hf36  1  0.31921120  0.90233832  0.63156094  1
  Hf  Hf37  1  0.71555176  0.88877250  0.88491698  1
  Hf  Hf38  1  0.81545309  0.39560902  0.49356582  1
  Hf  Hf39  1  0.39578696  0.20367755  0.25208011  1
  Zr  Zr40  1  0.29326519  0.69815949  0.11851083  1
  Zr  Zr41  1  0.20133789  -0.00169583  0.25929890  1
  Zr  Zr42  1  -0.01491086  0.59101190  -0.00838820  1
  Zr  Zr43  1  0.30437173  0.29602126  0.38565222  1
  Zr  Zr44  1  0.48927483  0.10562204  0.87013794  1
  Zr  Zr45  1  0.10134892  0.30331545  0.11991533  1
  Zr  Zr46  1  0.40177640  0.39519781  0.74723113  1
  Zr  Zr47  1  0.89570805  0.28895675  0.86964460  1
  Zr  Zr48  1  0.68464391  0.70039291  0.61744925  1
  Zr  Zr49  1  0.69340988  0.08987368  0.10811271  1
  Zr  Zr50  1  0.19976377  0.21275768  0.75515698  1
  Zr  Zr51  1  0.20579802  0.01646209  0.73640121  1
  Zr  Zr52  1  0.88377085  0.69610077  0.62024148  1
  Zr  Zr53  1  0.60487117  0.00373775  0.49478447  1
  Zr  Zr54  1  -0.00131077  0.00740338  0.25259933  1
  Zr  Zr55  1  0.09966295  0.29436140  0.36990433  1
  Zr  Zr56  1  0.09155671  0.89952466  0.11353502  1
  Zr  Zr57  1  0.29601409  0.69422252  0.62947009  1
  Zr  Zr58  1  0.71199068  0.29615307  0.62302319  1
  Zr  Zr59  1  0.88924836  0.90783298  0.37196031  1
  Zr  Zr60  1  0.10274518  0.31565981  0.62262034  1
  Zr  Zr61  1  0.30298672  0.91181124  0.86696306  1
  Zr  Zr62  1  0.90160409  0.49732207  0.63485493  1
  Zr  Zr63  1  0.59374860  0.81461231  0.25643212  1
  Zr  Zr64  1  0.69426034  0.89852032  0.62806678  1
  Zr  Zr65  1  0.59914646  0.58955835  0.24493376  1
  Zr  Zr66  1  0.60398048  0.41135615  0.74748944  1
  Zr  Zr67  1  0.80168114  -0.00078456  0.75582220  1
  Zr  Zr68  1  0.88956298  0.70831304  0.12140143  1
  Zr  Zr69  1  0.41657678  0.79747619  0.75645240  1
  Zr  Zr70  1  0.82337123  -0.00449446  0.00408999  1
  Zr  Zr71  1  0.19778727  0.80422433  0.25881004  1
  Zr  Zr72  1  0.40411515  -0.00965815  0.25498147  1
  Zr  Zr73  1  0.19353894  0.58964641  0.50023915  1
  Zr  Zr74  1  0.48463677  0.68849850  0.37400783  1
  Zr  Zr75  1  0.00439916  0.00597414  0.50010441  1
  Zr  Zr76  1  0.39545231  0.01603578  0.00190213  1
  Zr  Zr77  1  0.69725604  0.10597279  0.62558343  1
  Zr  Zr78  1  0.70210174  0.30942736  0.88742561  1
  Zr  Zr79  1  0.87963125  0.68733496  0.37301665  1
  Ta  Ta80  1  0.19800084  0.80791673  -0.01021312  1
  Ta  Ta81  1  0.39900347  0.79458292  -0.00933919  1
  Ta  Ta82  1  0.49680281  0.30767606  0.87867885  1
  Ta  Ta83  1  0.00772699  0.41210196  0.48722836  1
  Ta  Ta84  1  0.41692309  0.40512010  0.25135012  1
  Ta  Ta85  1  0.30872300  0.28640980  0.11295644  1
  Ta  Ta86  1  0.50972073  0.89839662  0.89014591  1
  Ta  Ta87  1  0.48751780  0.10863698  0.12567413  1
  Ta  Ta88  1  0.60590272  0.79324567  0.76282259  1
  Ta  Ta89  1  0.59342977  -0.01319471  0.76203010  1
  Ta  Ta90  1  0.08383644  0.72393027  0.87816414  1
  Ta  Ta91  1  0.79125272  0.79814041  0.25135986  1
  Ta  Ta92  1  -0.00893619  0.58904202  0.49323414  1
  Ta  Ta93  1  0.20503821  0.41073745  0.77190829  1
  Ta  Ta94  1  0.58021884  0.81049114  0.48710589  1
  Ta  Ta95  1  -0.00346803  0.80352267  0.25946578  1
  Ta  Ta96  1  0.71074265  0.29934835  0.12446278  1
  Ta  Ta97  1  0.77307891  0.59795981  0.01971780  1
  Ta  Ta98  1  0.31557718  0.50705402  0.37699686  1
  Ta  Ta99  1  0.70602192  0.10137658  0.88925626  1
  Ta  Ta100  1  0.40889536  -0.02407172  0.49135193  1
  Ta  Ta101  1  0.09842287  0.91852049  0.88315349  1
  Ta  Ta102  1  0.92062541  0.88924715  0.87326847  1
  Ta  Ta103  1  0.09537550  0.49779368  0.11933608  1
  Ta  Ta104  1  0.29978353  0.70180671  0.38742640  1
  Ta  Ta105  1  0.89714905  0.10421008  0.63154109  1
  Ta  Ta106  1  0.31145153  0.29128849  0.88334285  1
  Ta  Ta107  1  0.58521229  0.60582826  0.74759806  1
  Ta  Ta108  1  0.77673458  0.00262093  0.24668177  1
  Ta  Ta109  1  0.78090115  0.80901335  0.48785632  1
  Ta  Ta110  1  0.29064871  0.49382678  0.63094233  1
  Ta  Ta111  1  0.89549760  0.31082468  0.35275606  1
  Ta  Ta112  1  0.20057334  0.19322106  0.24612713  1
  Ta  Ta113  1  0.01558837  -0.00856917  0.73849670  1
  Ta  Ta114  1  0.51310286  0.50508349  0.88164485  1
  Ta  Ta115  1  0.48885806  0.07846513  0.63682974  1
  Ta  Ta116  1  0.71664817  0.49681704  0.36227992  1
  Ta  Ta117  1  0.71043514  0.88708010  0.11672016  1
  Ta  Ta118  1  0.69913460  0.50273422  0.62137387  1
  Ta  Ta119  1  0.17681718  0.81227173  0.74912091  1
  Ti  Ti120  1  0.49561117  0.68861525  0.88500355  1
  Ti  Ti121  1  0.19035690  0.59671262  0.76121313  1
  Ti  Ti122  1  0.49060454  0.70804463  0.61565389  1
  Ti  Ti123  1  0.20082123  0.01235799  0.00167640  1
  Ti  Ti124  1  0.50440415  0.30847487  0.12597793  1
  Ti  Ti125  1  0.69265330  0.70069322  0.37467619  1
  Ti  Ti126  1  0.71121528  0.27985714  0.37185606  1
  Ti  Ti127  1  -0.00727196  0.20264893  -0.00067064  1
  Ti  Ti128  1  0.91129476  0.30211089  0.13615849  1
  Ti  Ti129  1  0.39047865  0.79766498  0.25639636  1
  Ti  Ti130  1  0.20112082  0.81222113  0.49877441  1
  Ti  Ti131  1  0.79257017  0.59191630  0.49645957  1
  Ti  Ti132  1  0.10004849  0.10441496  0.37737851  1
  Ti  Ti133  1  0.77758763  0.59550943  0.75093914  1
  Ti  Ti134  1  0.80007785  0.01205830  0.49443867  1
  Ti  Ti135  1  0.39551171  0.59191198  0.24858327  1
  Ti  Ti136  1  0.00648946  0.40295378  -0.01788761  1
  Ti  Ti137  1  0.89587868  0.11361396  0.13379080  1
  Ti  Ti138  1  0.61042552  0.41109027  0.01084431  1
  Ti  Ti139  1  0.80995313  0.41543727  0.23706799  1
  Ti  Ti140  1  0.49583819  0.51171541  0.62464942  1
  Ti  Ti141  1  0.41711115  0.40185918  0.00127809  1
  Ti  Ti142  1  0.79407042  0.40167799  0.75489017  1
  Ti  Ti143  1  0.29889546  0.10988493  0.87376971  1
  Ti  Ti144  1  0.39739546  0.59063821  0.75137834  1
  Ti  Ti145  1  0.51034931  0.29956845  0.37525289  1
  Ti  Ti146  1  0.09988147  0.50390088  0.63221733  1
  Ti  Ti147  1  0.80215390  0.79198172  0.75067353  1
  Ti  Ti148  1  0.19916846  0.40188028  0.49200136  1
  Ti  Ti149  1  0.87486682  0.50286842  0.87267273  1
  Ti  Ti150  1  0.10433559  0.10969713  0.88588755  1
  Ti  Ti151  1  0.29700741  0.09678562  0.37992826  1
  Ti  Ti152  1  0.00925417  0.40669091  0.25310064  1
  Ti  Ti153  1  0.58883320  0.58711379  0.02130506  1
  Ti  Ti154  1  0.60982090  0.39387426  0.25279193  1
  Ti  Ti155  1  0.68771246  0.67603718  0.87816468  1
  Ti  Ti156  1  0.10255181  0.11433042  0.61683576  1
  Ti  Ti157  1  0.00714105  0.19038427  0.75337550  1
  Ti  Ti158  1  0.31884419  0.50008177  0.88224703  1
  Ti  Ti159  1  0.90116191  0.90342582  0.13221230  1
  Mo  Mo160  1  0.39496961  0.59575983  0.50728221  1
  Mo  Mo161  1  0.40407794  0.59656126  -0.00695859  1
  Mo  Mo162  1  0.49389816  0.89352050  0.37207124  1
  Mo  Mo163  1  0.60458153  0.20060308  0.49065489  1
  Mo  Mo164  1  0.49964570  0.48936801  0.12572826  1
  Mo  Mo165  1  0.80154983  0.21048434  0.23271729  1
  Mo  Mo166  1  0.10469566  0.51240259  0.87383669  1
  Mo  Mo167  1  0.60177590  -0.00139170  0.24495152  1
  Mo  Mo168  1  0.00429078  0.20760231  0.24754130  1
  Mo  Mo169  1  0.70687561  0.09936713  0.37072450  1
  Mo  Mo170  1  0.10221394  0.29349987  0.88287699  1
  Mo  Mo171  1  0.50450384  0.48777930  0.36882517  1
  Mo  Mo172  1  0.79129824  0.59753452  0.23660023  1
  Mo  Mo173  1  0.00676821  0.00772440  0.00065410  1
  Mo  Mo174  1  0.20534171  0.19500760  -0.00635902  1
  Mo  Mo175  1  0.79845267  0.19927433  0.49485786  1
  Mo  Mo176  1  0.10447282  0.89927340  0.62321642  1
  Mo  Mo177  1  0.31034427  0.10295871  0.61920474  1
  Mo  Mo178  1  0.69858459  0.50775977  0.88162537  1
  Mo  Mo179  1  0.91081377  0.49307681  0.12270496  1
  Mo  Mo180  1  0.70182563  0.49291093  0.13706968  1
  Mo  Mo181  1  0.10003407  0.89942623  0.37630976  1
  Mo  Mo182  1  0.80925052  0.20443201  0.01743635  1
  Mo  Mo183  1  -0.00561633  0.80468879  0.75050923  1
  Mo  Mo184  1  0.19490625  0.19102463  0.49894269  1
  Mo  Mo185  1  0.80337776  0.79382556  0.00489148  1
  Mo  Mo186  1  0.40736488  0.00110525  0.75584912  1
  Mo  Mo187  1  -0.00234652  0.81107731  0.00102392  1
  Mo  Mo188  1  0.30109066  0.89084432  0.38468741  1
  Mo  Mo189  1  0.39376044  0.79454806  0.50261499  1
  Mo  Mo190  1  0.89932327  0.49468597  0.37012187  1
  Mo  Mo191  1  0.80411898  0.19430408  0.75712672  1
  Mo  Mo192  1  0.69323750  0.70111330  0.13246364  1
  Mo  Mo193  1  0.29573207  0.10532830  0.12776390  1
  Mo  Mo194  1  0.51150899  0.88977793  0.63009676  1
  Mo  Mo195  1  0.10359681  0.49622594  0.37211342  1
  Mo  Mo196  1  0.69658498  0.90262880  0.37378241  1
  Mo  Mo197  1  0.40144023  0.21196476  0.00451540  1
  Mo  Mo198  1  0.60415951  -0.00213245  -0.01326372  1
  Mo  Mo199  1  0.39840831  0.19558842  0.74595456  1
