# generated using pymatgen
data_HfZrTaTiMo
_symmetry_space_group_name_H-M   'P 1'
_cell_length_a   15.22370594
_cell_length_b   15.21638291
_cell_length_c   16.83996502
_cell_angle_alpha   89.97269105
_cell_angle_beta   90.01048303
_cell_angle_gamma   90.04763708
_symmetry_Int_Tables_number   1
_chemical_formula_structural   HfZrTaTiMo
_chemical_formula_sum   'Hf40 Zr40 Ta40 Ti40 Mo40'
_cell_volume   3900.97164527
_cell_formula_units_Z   40
loop_
 _symmetry_equiv_pos_site_id
 _symmetry_equiv_pos_as_xyz
  1  'x, y, z'
loop_
 _atom_site_type_symbol
 _atom_site_label
 _atom_site_symmetry_multiplicity
 _atom_site_fract_x
 _atom_site_fract_y
 _atom_site_fract_z
 _atom_site_occupancy
  Hf  Hf0  1  0.90576906  0.31447761  0.86489365  1
  Hf  Hf1  1  0.80679377  -0.01228684  0.00021858  1
  Hf  Hf2  1  0.09498170  0.49719735  0.38290783  1
  Hf  Hf3  1  0.00594056  0.21975069  0.73265233  1
  Hf  Hf4  1  0.08989392  0.09975475  0.38234214  1
  Hf  Hf5  1  0.11184649  0.10228460  0.61544120  1
  Hf  Hf6  1  0.78644312  0.78919061  0.73485007  1
  Hf  Hf7  1  0.78624282  0.39412396  0.25506090  1
  Hf  Hf8  1  -0.00082419  0.01065075  0.73916683  1
  Hf  Hf9  1  0.89385676  0.50305939  0.38925500  1
  Hf  Hf10  1  -0.00122320  0.81523636  0.51301152  1
  Hf  Hf11  1  0.40122551  0.00622414  0.48630989  1
  Hf  Hf12  1  0.38939169  0.18983158  0.24450400  1
  Hf  Hf13  1  0.20437448  0.79343502  0.49582032  1
  Hf  Hf14  1  0.29292880  0.09702790  0.88128599  1
  Hf  Hf15  1  -0.00121252  0.39502691  0.53005817  1
  Hf  Hf16  1  0.89928485  0.10923862  0.87335793  1
  Hf  Hf17  1  0.19455866  0.59023834  -0.01153026  1
  Hf  Hf18  1  0.90416939  0.09963410  0.12423303  1
  Hf  Hf19  1  0.79803971  0.61951668  -0.00456183  1
  Hf  Hf20  1  0.20659534  0.59702116  0.51585109  1
  Hf  Hf21  1  0.10020477  0.69564756  0.37496980  1
  Hf  Hf22  1  0.39318223  0.79583264  0.48477292  1
  Hf  Hf23  1  0.10809636  0.90518620  0.13863213  1
  Hf  Hf24  1  0.50524822  0.68443220  0.12931336  1
  Hf  Hf25  1  0.39751150  0.58462213  0.49785822  1
  Hf  Hf26  1  0.89336535  0.70883652  0.13420186  1
  Hf  Hf27  1  0.29700152  0.48222581  0.37510715  1
  Hf  Hf28  1  0.60772055  0.79200180  0.25756797  1
  Hf  Hf29  1  0.51032156  0.10234209  0.36713445  1
  Hf  Hf30  1  0.00310833  0.60417367  0.52164368  1
  Hf  Hf31  1  0.49485595  0.09885973  0.63138057  1
  Hf  Hf32  1  0.61766000  -0.00736696  0.49091682  1
  Hf  Hf33  1  0.90331181  0.89967613  0.86751805  1
  Hf  Hf34  1  0.50713117  0.68432180  0.37739965  1
  Hf  Hf35  1  -0.00805509  0.80122446  0.00010204  1
  Hf  Hf36  1  0.69907186  0.09656378  0.86987132  1
  Hf  Hf37  1  0.51392553  0.70860681  0.87633723  1
  Hf  Hf38  1  -0.01795255  0.18990166  0.51853977  1
  Hf  Hf39  1  0.11449399  0.30370544  0.87637997  1
  Zr  Zr40  1  0.68752698  0.50931067  0.14174667  1
  Zr  Zr41  1  0.60572137  0.39670616  0.51057307  1
  Zr  Zr42  1  0.10188930  0.89924735  0.36314602  1
  Zr  Zr43  1  0.29902800  0.69561607  0.11916781  1
  Zr  Zr44  1  0.60686841  0.61751754  0.74975181  1
  Zr  Zr45  1  0.40269757  -0.01641235  0.76339646  1
  Zr  Zr46  1  0.00266254  0.40931101  0.00477762  1
  Zr  Zr47  1  0.50314380  0.48313200  0.36991996  1
  Zr  Zr48  1  0.59431545  -0.00537887  0.00107850  1
  Zr  Zr49  1  0.30121796  0.49426733  0.11774280  1
  Zr  Zr50  1  0.11538372  0.10930314  0.12367545  1
  Zr  Zr51  1  0.90125713  0.92628279  0.37404560  1
  Zr  Zr52  1  0.60352511  0.19950964  0.74478922  1
  Zr  Zr53  1  0.09718023  0.50093860  0.85690341  1
  Zr  Zr54  1  0.20883953  -0.00707384  0.48807741  1
  Zr  Zr55  1  0.09901987  0.10139050  0.88072699  1
  Zr  Zr56  1  0.79358588  0.20849540  0.00304857  1
  Zr  Zr57  1  -0.00666320  0.79808104  0.73444325  1
  Zr  Zr58  1  0.69462550  0.88480113  0.87288434  1
  Zr  Zr59  1  0.89535764  0.70711159  0.38833320  1
  Zr  Zr60  1  0.60143909  0.58897338  -0.01108430  1
  Zr  Zr61  1  0.88871797  0.29226136  0.38202289  1
  Zr  Zr62  1  0.19779869  0.81022990  0.00512604  1
  Zr  Zr63  1  0.19768817  0.39070698  0.24486042  1
  Zr  Zr64  1  0.81724292  0.02505217  0.50621849  1
  Zr  Zr65  1  0.50480114  0.89434234  0.61397391  1
  Zr  Zr66  1  0.89324060  0.51034634  0.13255451  1
  Zr  Zr67  1  0.79017745  0.41306497  0.00062695  1
  Zr  Zr68  1  0.12042935  0.90018366  0.86126604  1
  Zr  Zr69  1  0.39340486  0.78135388  0.75208106  1
  Zr  Zr70  1  0.10322013  0.29640725  0.38983002  1
  Zr  Zr71  1  0.20868998  0.39330902  0.52364107  1
  Zr  Zr72  1  -0.00302690  0.39597920  0.24741569  1
  Zr  Zr73  1  0.49133900  0.48246489  0.12610808  1
  Zr  Zr74  1  0.69519139  0.10154386  0.12766784  1
  Zr  Zr75  1  0.70308764  0.30517624  0.86574992  1
  Zr  Zr76  1  -0.01653710  0.60030618  0.73147077  1
  Zr  Zr77  1  0.39317781  0.80168422  0.25822663  1
  Zr  Zr78  1  0.57942164  0.39010005  -0.01583076  1
  Zr  Zr79  1  0.41102536  0.80078215  -0.00000869  1
  Ta  Ta80  1  0.89602376  0.29845347  0.12771911  1
  Ta  Ta81  1  0.22884818  0.00818509  0.26128349  1
  Ta  Ta82  1  0.67671713  0.71364051  0.60121042  1
  Ta  Ta83  1  0.39802286  -0.00513824  -0.00813943  1
  Ta  Ta84  1  0.00474484  0.20898892  0.00665559  1
  Ta  Ta85  1  0.20004603  0.20046674  0.25611996  1
  Ta  Ta86  1  0.39420354  0.59280940  0.25763060  1
  Ta  Ta87  1  -0.00097141  0.60849178  -0.00491074  1
  Ta  Ta88  1  0.79799737  0.81382185  0.26486763  1
  Ta  Ta89  1  0.20873722  0.19331455  0.74726489  1
  Ta  Ta90  1  0.71078833  0.89512361  0.13244985  1
  Ta  Ta91  1  0.50005190  0.50080204  0.63549510  1
  Ta  Ta92  1  0.77987659  0.82318439  0.49881364  1
  Ta  Ta93  1  -0.00134429  0.60116245  0.25440675  1
  Ta  Ta94  1  0.39982245  0.58528302  -0.02779177  1
  Ta  Ta95  1  0.79044364  -0.00125942  0.74165042  1
  Ta  Ta96  1  0.59316471  0.19946796  0.50939697  1
  Ta  Ta97  1  0.40133171  0.38039574  0.51007257  1
  Ta  Ta98  1  0.49960169  0.10007249  0.87000090  1
  Ta  Ta99  1  0.90253566  0.90439137  0.13723037  1
  Ta  Ta100  1  0.50761092  0.90132406  0.13565566  1
  Ta  Ta101  1  0.80818856  0.41366271  0.73021095  1
  Ta  Ta102  1  0.21705919  0.60840933  0.74779035  1
  Ta  Ta103  1  0.48860489  0.69089318  0.61741009  1
  Ta  Ta104  1  0.49419139  0.30214348  0.63854620  1
  Ta  Ta105  1  0.69389737  0.50907349  0.37844534  1
  Ta  Ta106  1  -0.00231917  0.79908549  0.25104976  1
  Ta  Ta107  1  0.09473864  0.69571200  0.13209328  1
  Ta  Ta108  1  0.09959253  0.50664550  0.12479011  1
  Ta  Ta109  1  0.28976292  0.70179350  0.87789762  1
  Ta  Ta110  1  0.60372267  0.40918787  0.74584495  1
  Ta  Ta111  1  0.49225928  0.09148989  0.12796026  1
  Ta  Ta112  1  0.01162724  -0.00282620  0.00361818  1
  Ta  Ta113  1  0.78132044  0.21593191  0.51927256  1
  Ta  Ta114  1  0.61914062  0.79332195  0.01159197  1
  Ta  Ta115  1  0.19898107  0.59905395  0.25107756  1
  Ta  Ta116  1  0.48761154  0.28969691  0.37868902  1
  Ta  Ta117  1  0.28887435  0.28906860  0.10963663  1
  Ta  Ta118  1  0.30435001  0.08564792  0.63193186  1
  Ta  Ta119  1  0.11438956  0.90588908  0.63276098  1
  Ti  Ti120  1  0.30320332  0.09568362  0.11040806  1
  Ti  Ti121  1  0.69652901  0.70332776  0.39489943  1
  Ti  Ti122  1  0.40203136  0.20189468  -0.00684255  1
  Ti  Ti123  1  0.31129416  0.28152894  0.63689830  1
  Ti  Ti124  1  0.70874926  0.51168016  0.85980019  1
  Ti  Ti125  1  0.68471334  0.29543332  0.37786170  1
  Ti  Ti126  1  0.61515901  -0.00230082  0.25443034  1
  Ti  Ti127  1  0.20475869  0.79471586  0.25409532  1
  Ti  Ti128  1  0.86854029  0.69530004  0.60609621  1
  Ti  Ti129  1  0.00015309  0.01247144  0.24887223  1
  Ti  Ti130  1  0.09239040  0.70168069  0.86174345  1
  Ti  Ti131  1  0.10662918  0.49448156  0.64588727  1
  Ti  Ti132  1  0.71765850  0.10597333  0.37189967  1
  Ti  Ti133  1  0.89776449  0.50907290  0.86611609  1
  Ti  Ti134  1  0.21051464  0.38967148  0.74445900  1
  Ti  Ti135  1  0.31143843  0.91262973  0.12995815  1
  Ti  Ti136  1  0.58903560  0.19776422  -0.00305319  1
  Ti  Ti137  1  0.80045906  0.19570865  0.24807489  1
  Ti  Ti138  1  0.79214142  0.61356410  0.26613612  1
  Ti  Ti139  1  0.11983225  0.70953887  0.63616459  1
  Ti  Ti140  1  0.37919778  0.39427964  -0.02466792  1
  Ti  Ti141  1  0.68532731  0.30431220  0.12306898  1
  Ti  Ti142  1  0.70369755  0.70150700  0.13546351  1
  Ti  Ti143  1  0.59209231  0.81910965  0.74332664  1
  Ti  Ti144  1  0.89022413  0.70021795  0.86813963  1
  Ti  Ti145  1  0.80344535  0.20454270  0.72922445  1
  Ti  Ti146  1  0.00249372  0.20633752  0.24631769  1
  Ti  Ti147  1  0.29930790  0.88681402  0.62850241  1
  Ti  Ti148  1  0.70354119  0.52094950  0.62237838  1
  Ti  Ti149  1  0.60070775  0.20389291  0.24520180  1
  Ti  Ti150  1  0.31718896  0.49982933  0.64383460  1
  Ti  Ti151  1  0.48303139  0.29989518  0.85315619  1
  Ti  Ti152  1  0.89283773  0.91080648  0.62269079  1
  Ti  Ti153  1  0.59028827  0.38768989  0.25184038  1
  Ti  Ti154  1  0.79717166  0.40650880  0.51737869  1
  Ti  Ti155  1  0.39213745  0.38197322  0.24703463  1
  Ti  Ti156  1  0.49258411  0.28744501  0.12116498  1
  Ti  Ti157  1  0.69617197  0.09281313  0.62981646  1
  Ti  Ti158  1  0.22858720  0.19758486  0.49859042  1
  Ti  Ti159  1  0.50757168  0.89993815  0.36765078  1
  Mo  Mo160  1  0.20830234  -0.00239996  0.74218876  1
  Mo  Mo161  1  0.30693100  0.89878502  0.36497298  1
  Mo  Mo162  1  0.80178568  0.80305496  0.00685526  1
  Mo  Mo163  1  0.89283314  0.30526712  0.62905624  1
  Mo  Mo164  1  0.69348599  0.30828415  0.63041501  1
  Mo  Mo165  1  0.79536711  0.60367908  0.74397354  1
  Mo  Mo166  1  0.60270267  -0.00321581  0.75151722  1
  Mo  Mo167  1  0.00199605  0.40326399  0.73396078  1
  Mo  Mo168  1  0.78786876  0.60315985  0.49595955  1
  Mo  Mo169  1  0.40383255  0.19933539  0.50558885  1
  Mo  Mo170  1  0.30625772  0.29146191  0.37814040  1
  Mo  Mo171  1  0.30488484  0.89425204  0.88009950  1
  Mo  Mo172  1  0.49911519  0.49367360  0.85721488  1
  Mo  Mo173  1  0.40364398  0.59037470  0.76682151  1
  Mo  Mo174  1  0.20649045  0.20654301  -0.00093565  1
  Mo  Mo175  1  0.30477277  0.11013861  0.37317032  1
  Mo  Mo176  1  0.41426882  -0.00097918  0.25020308  1
  Mo  Mo177  1  0.69919149  0.90379532  0.62545346  1
  Mo  Mo178  1  0.80350594  0.00793426  0.24821533  1
  Mo  Mo179  1  0.20363416  0.79820211  0.74888899  1
  Mo  Mo180  1  0.69949209  0.91036478  0.36771785  1
  Mo  Mo181  1  0.29490304  0.68647379  0.36656758  1
  Mo  Mo182  1  0.60445794  0.59650501  0.25538623  1
  Mo  Mo183  1  0.39462338  0.19551703  0.75576510  1
  Mo  Mo184  1  0.59158425  0.80246600  0.48699655  1
  Mo  Mo185  1  0.29866733  0.29472862  0.87091530  1
  Mo  Mo186  1  0.89158266  0.50775545  0.61318888  1
  Mo  Mo187  1  0.00624728  -0.00304142  0.51445085  1
  Mo  Mo188  1  0.89384720  0.10144659  0.63737463  1
  Mo  Mo189  1  0.39906319  0.39527715  0.74794396  1
  Mo  Mo190  1  0.09759028  0.30088729  0.12119046  1
  Mo  Mo191  1  0.29761582  0.49186189  0.86217778  1
  Mo  Mo192  1  0.30716011  0.69285896  0.62641425  1
  Mo  Mo193  1  0.50271706  0.90202992  0.87898956  1
  Mo  Mo194  1  0.90036753  0.11818949  0.36818313  1
  Mo  Mo195  1  0.20736016  -0.00200077  0.00857613  1
  Mo  Mo196  1  0.70866174  0.70292430  0.87485014  1
  Mo  Mo197  1  0.59519010  0.59559703  0.50806044  1
  Mo  Mo198  1  0.19792302  0.39772709  0.00112837  1
  Mo  Mo199  1  0.11823661  0.29683960  0.62572425  1
