# generated using pymatgen
data_HfZrTaTiMo
_symmetry_space_group_name_H-M   'P 1'
_cell_length_a   15.21672167
_cell_length_b   15.21387667
_cell_length_c   16.85763230
_cell_angle_alpha   89.99918382
_cell_angle_beta   89.92363497
_cell_angle_gamma   89.76602029
_symmetry_Int_Tables_number   1
_chemical_formula_structural   HfZrTaTiMo
_chemical_formula_sum   'Hf40 Zr40 Ta40 Ti40 Mo40'
_cell_volume   3902.59566887
_cell_formula_units_Z   40
loop_
 _symmetry_equiv_pos_site_id
 _symmetry_equiv_pos_as_xyz
  1  'x, y, z'
loop_
 _atom_site_type_symbol
 _atom_site_label
 _atom_site_symmetry_multiplicity
 _atom_site_fract_x
 _atom_site_fract_y
 _atom_site_fract_z
 _atom_site_occupancy
  Hf  Hf0  1  0.71809799  0.08945129  0.36438090  1
  Hf  Hf1  1  0.19945835  0.00091433  0.74843958  1
  Hf  Hf2  1  0.89596458  0.49677069  0.63421523  1
  Hf  Hf3  1  0.29665836  0.31421450  0.12338601  1
  Hf  Hf4  1  0.08658433  0.71076299  0.61216942  1
  Hf  Hf5  1  0.39689161  0.39275796  -0.00931622  1
  Hf  Hf6  1  0.39071191  0.60325150  -0.00273727  1
  Hf  Hf7  1  0.18432478  0.79460275  0.74539483  1
  Hf  Hf8  1  0.70995788  0.30735942  0.36983348  1
  Hf  Hf9  1  0.80708913  -0.01409123  0.75933839  1
  Hf  Hf10  1  0.00105443  0.58252830  0.26343364  1
  Hf  Hf11  1  0.59795066  0.61149308  0.23891627  1
  Hf  Hf12  1  -0.01183569  0.39176602  0.50035654  1
  Hf  Hf13  1  0.30160600  0.68566194  0.38916603  1
  Hf  Hf14  1  0.89523189  0.69610571  0.63095634  1
  Hf  Hf15  1  0.30726326  0.09724035  0.13278214  1
  Hf  Hf16  1  0.20274463  0.21074929  0.00636982  1
  Hf  Hf17  1  0.68913731  0.71138595  0.36535076  1
  Hf  Hf18  1  0.30749528  0.69107754  0.60488218  1
  Hf  Hf19  1  0.60294150  0.60735532  0.49893246  1
  Hf  Hf20  1  0.51150340  0.09087921  0.13777892  1
  Hf  Hf21  1  0.70381837  0.31220694  0.12491120  1
  Hf  Hf22  1  0.61310130  0.59393394  -0.00896760  1
  Hf  Hf23  1  0.59743796  0.40546215  0.25238029  1
  Hf  Hf24  1  0.61199858  0.00116335  0.50148664  1
  Hf  Hf25  1  0.50487192  0.09027981  0.87601126  1
  Hf  Hf26  1  0.78739001  0.81693638  0.23831987  1
  Hf  Hf27  1  0.70108859  0.89656815  0.63231799  1
  Hf  Hf28  1  0.91071186  0.50156058  0.11931375  1
  Hf  Hf29  1  0.70427155  0.69911331  0.63958927  1
  Hf  Hf30  1  0.89964692  0.88672458  0.62426300  1
  Hf  Hf31  1  0.40041695  0.21005860  0.25625125  1
  Hf  Hf32  1  0.09779005  0.89050104  0.12575368  1
  Hf  Hf33  1  0.08319287  0.91999204  0.61895841  1
  Hf  Hf34  1  0.39460006  0.39844215  0.73866328  1
  Hf  Hf35  1  0.59475663  0.81460269  -0.00161592  1
  Hf  Hf36  1  0.27993760  0.70624072  0.88560694  1
  Hf  Hf37  1  0.20455599  -0.00850824  0.01596551  1
  Hf  Hf38  1  0.60684892  0.20119327  0.50463341  1
  Hf  Hf39  1  0.49284131  0.91342420  0.62888388  1
  Zr  Zr40  1  0.92680569  0.08721150  0.63719166  1
  Zr  Zr41  1  0.39958534  0.60153236  0.75973597  1
  Zr  Zr42  1  0.49820425  0.50976113  0.38416617  1
  Zr  Zr43  1  0.39582197  0.80739360  0.75178345  1
  Zr  Zr44  1  0.30245571  0.90874648  0.37246080  1
  Zr  Zr45  1  0.28307602  0.49578257  0.87309858  1
  Zr  Zr46  1  0.30953276  0.09995937  0.87625664  1
  Zr  Zr47  1  0.10673701  0.10003644  0.87802258  1
  Zr  Zr48  1  0.17843579  0.00988170  0.49436944  1
  Zr  Zr49  1  0.19722265  0.59382512  0.73198385  1
  Zr  Zr50  1  0.80295606  0.19730917  0.75295840  1
  Zr  Zr51  1  0.50352237  0.08591500  0.36214074  1
  Zr  Zr52  1  0.31293343  0.09009266  0.61975282  1
  Zr  Zr53  1  0.29471718  0.29567002  0.85960994  1
  Zr  Zr54  1  0.50130470  0.49308672  0.11346354  1
  Zr  Zr55  1  0.50982266  0.71067200  0.63221063  1
  Zr  Zr56  1  0.70414470  0.10128389  0.88348103  1
  Zr  Zr57  1  0.80898613  0.20578390  0.50567119  1
  Zr  Zr58  1  0.29172827  0.89145487  0.60872706  1
  Zr  Zr59  1  -0.01245030  0.78829416  0.24728949  1
  Zr  Zr60  1  0.41339823  0.79785220  0.25742345  1
  Zr  Zr61  1  0.10009033  0.48498361  0.38348151  1
  Zr  Zr62  1  0.39270972  0.60279635  0.24042574  1
  Zr  Zr63  1  0.29578349  0.10912734  0.37544580  1
  Zr  Zr64  1  0.59825056  0.20718713  0.00126433  1
  Zr  Zr65  1  0.00940891  0.18364645  0.50130445  1
  Zr  Zr66  1  0.60926561  0.20146747  0.25148474  1
  Zr  Zr67  1  0.41895109  -0.01708628  0.01073989  1
  Zr  Zr68  1  0.30918662  0.89893744  0.88199369  1
  Zr  Zr69  1  0.71782073  0.70935399  0.88117859  1
  Zr  Zr70  1  0.18962727  0.20992939  0.24435278  1
  Zr  Zr71  1  -0.00493906  0.77739091  0.01306908  1
  Zr  Zr72  1  0.39737244  0.39660156  0.51758054  1
  Zr  Zr73  1  0.00499169  0.20887284  0.00151167  1
  Zr  Zr74  1  0.09456584  0.88933038  0.89012454  1
  Zr  Zr75  1  0.19988509  0.78608761  0.25374584  1
  Zr  Zr76  1  0.71699602  0.09006023  0.11893493  1
  Zr  Zr77  1  0.79637586  0.80042806  0.48958370  1
  Zr  Zr78  1  0.38802791  0.40905429  0.25423095  1
  Zr  Zr79  1  0.50428529  0.50761880  0.62719358  1
  Ta  Ta80  1  0.18004211  0.40990820  -0.00016617  1
  Ta  Ta81  1  0.49657147  0.70533383  0.10896907  1
  Ta  Ta82  1  0.89569568  0.30606967  0.13122493  1
  Ta  Ta83  1  0.60436747  0.59942514  0.77001030  1
  Ta  Ta84  1  0.17244647  0.39854782  0.72649776  1
  Ta  Ta85  1  0.28908108  0.31020448  0.38618737  1
  Ta  Ta86  1  0.49655836  0.30134584  0.38562242  1
  Ta  Ta87  1  0.49785423  0.29801430  0.12305292  1
  Ta  Ta88  1  0.60378433  0.40086577  0.75679966  1
  Ta  Ta89  1  0.09509157  0.31651045  0.86897180  1
  Ta  Ta90  1  -0.00988017  0.59937266  0.49006803  1
  Ta  Ta91  1  0.41348287  0.79961241  0.48521419  1
  Ta  Ta92  1  0.79665258  0.40790211  -0.01079807  1
  Ta  Ta93  1  0.49512189  0.71294985  0.88422693  1
  Ta  Ta94  1  0.71335554  0.50602841  0.36729295  1
  Ta  Ta95  1  0.00441640  0.60002888  0.75138265  1
  Ta  Ta96  1  0.81122897  0.21390750  -0.00730780  1
  Ta  Ta97  1  0.27740826  0.51255947  0.11625832  1
  Ta  Ta98  1  0.90298662  0.30269815  0.63773025  1
  Ta  Ta99  1  0.70454687  0.31138638  0.63095891  1
  Ta  Ta100  1  -0.01159172  -0.00017662  0.24076189  1
  Ta  Ta101  1  0.70143880  0.50024397  0.63494765  1
  Ta  Ta102  1  0.80967503  0.00659120  0.50526555  1
  Ta  Ta103  1  0.80324650  0.60597894  0.24322026  1
  Ta  Ta104  1  0.91292738  0.69528082  0.87659066  1
  Ta  Ta105  1  0.91244511  0.09002513  0.88102097  1
  Ta  Ta106  1  0.18659554  0.79788836  0.48361188  1
  Ta  Ta107  1  0.29471995  0.49584305  0.39504612  1
  Ta  Ta108  1  0.20022007  0.59198466  0.25610857  1
  Ta  Ta109  1  0.18890783  0.39437834  0.52406543  1
  Ta  Ta110  1  0.28785857  0.28483251  0.63433830  1
  Ta  Ta111  1  0.19790889  -0.00409293  0.24266538  1
  Ta  Ta112  1  0.79856202  0.59267832  0.49779058  1
  Ta  Ta113  1  0.09890900  0.67232282  0.12909336  1
  Ta  Ta114  1  0.09091630  0.09142196  0.35848886  1
  Ta  Ta115  1  0.01116850  0.20921477  0.75716727  1
  Ta  Ta116  1  0.59848873  0.01448684  0.74144490  1
  Ta  Ta117  1  0.41367105  -0.00136691  0.49176313  1
  Ta  Ta118  1  0.41555524  0.18601933  0.73817182  1
  Ta  Ta119  1  0.89811504  0.50172926  0.87765598  1
  Ti  Ti120  1  -0.01179964  0.80808638  0.76184551  1
  Ti  Ti121  1  0.19075537  0.40714179  0.25163975  1
  Ti  Ti122  1  0.18860029  0.59094647  0.50955718  1
  Ti  Ti123  1  0.90609620  0.09981162  0.11179124  1
  Ti  Ti124  1  0.61967407  -0.02980368  0.25255464  1
  Ti  Ti125  1  0.40397357  0.19836751  0.50244133  1
  Ti  Ti126  1  0.40365504  0.19762369  0.00415048  1
  Ti  Ti127  1  0.50664406  0.29658960  0.62597254  1
  Ti  Ti128  1  0.90380291  0.31002781  0.35696821  1
  Ti  Ti129  1  0.90607399  0.10455902  0.36742635  1
  Ti  Ti130  1  0.88517031  0.90814288  0.11106583  1
  Ti  Ti131  1  0.19722085  0.20512531  0.50380499  1
  Ti  Ti132  1  0.08806414  0.31800902  0.12934197  1
  Ti  Ti133  1  0.81236886  0.19925154  0.24236360  1
  Ti  Ti134  1  0.50057506  0.29289252  0.86534806  1
  Ti  Ti135  1  0.08779955  0.89873652  0.36293475  1
  Ti  Ti136  1  0.17674582  0.60550817  -0.00157515  1
  Ti  Ti137  1  0.71367731  0.50573679  0.12299739  1
  Ti  Ti138  1  0.50227878  0.49569524  0.87336208  1
  Ti  Ti139  1  0.80062941  0.40017735  0.76413851  1
  Ti  Ti140  1  0.88587108  0.91353761  0.36692088  1
  Ti  Ti141  1  0.60727688  0.20318415  0.74017086  1
  Ti  Ti142  1  0.79647724  0.40466670  0.50198224  1
  Ti  Ti143  1  0.50760309  0.89577054  0.13625737  1
  Ti  Ti144  1  0.09484693  0.09802596  0.12594233  1
  Ti  Ti145  1  0.09715397  0.28910412  0.37312065  1
  Ti  Ti146  1  0.69860489  0.91096355  0.88660360  1
  Ti  Ti147  1  0.80093162  0.59742658  0.76131979  1
  Ti  Ti148  1  0.60645385  0.81110765  0.76776431  1
  Ti  Ti149  1  0.89358598  0.69036134  0.37315177  1
  Ti  Ti150  1  -0.00500858  0.80193332  0.47927527  1
  Ti  Ti151  1  0.70088876  0.30595523  0.87223668  1
  Ti  Ti152  1  -0.00181263  0.19974909  0.24141278  1
  Ti  Ti153  1  0.59669304  0.80970900  0.49343195  1
  Ti  Ti154  1  0.89343646  0.89388163  0.89323908  1
  Ti  Ti155  1  0.60916434  0.40180070  0.49994306  1
  Ti  Ti156  1  0.09029062  0.51037809  0.87047639  1
  Ti  Ti157  1  -0.00759575  0.39987380  -0.00702912  1
  Ti  Ti158  1  0.70807912  0.70766512  0.11222166  1
  Ti  Ti159  1  0.60182222  0.39815910  -0.01225870  1
  Mo  Mo160  1  0.09530104  0.69508881  0.38715263  1
  Mo  Mo161  1  0.81005839  0.00105776  -0.01024004  1
  Mo  Mo162  1  -0.00846317  0.40560203  0.75706695  1
  Mo  Mo163  1  0.60556603  0.00036521  0.00591019  1
  Mo  Mo164  1  0.70173664  0.90460372  0.37571727  1
  Mo  Mo165  1  0.12011696  0.12266479  0.64357685  1
  Mo  Mo166  1  0.51078279  0.10667061  0.62055687  1
  Mo  Mo167  1  0.00377088  0.58323648  -0.00479528  1
  Mo  Mo168  1  0.08543762  0.29533881  0.62798620  1
  Mo  Mo169  1  0.81415383  0.60486974  0.00447901  1
  Mo  Mo170  1  0.50239017  0.70281443  0.37760648  1
  Mo  Mo171  1  -0.01432237  -0.01370925  0.47488808  1
  Mo  Mo172  1  0.80524620  0.40950537  0.24696940  1
  Mo  Mo173  1  0.00139523  0.38616285  0.25360624  1
  Mo  Mo174  1  0.20413804  0.20546866  0.75059399  1
  Mo  Mo175  1  0.51069259  0.90154900  0.86601114  1
  Mo  Mo176  1  0.08168759  0.50513136  0.61528288  1
  Mo  Mo177  1  0.29118626  0.70280906  0.11690193  1
  Mo  Mo178  1  0.10156140  0.49111680  0.12781164  1
  Mo  Mo179  1  0.30748937  0.89663270  0.13956476  1
  Mo  Mo180  1  0.39958638  0.60034998  0.50071455  1
  Mo  Mo181  1  0.00167119  -0.00275030  0.76009403  1
  Mo  Mo182  1  0.70104853  0.49742805  0.87152734  1
  Mo  Mo183  1  0.39696524  0.79845137  0.00892346  1
  Mo  Mo184  1  0.69653599  0.90561550  0.11109283  1
  Mo  Mo185  1  0.20407874  0.78826728  0.01888823  1
  Mo  Mo186  1  0.09280997  0.69582203  0.87301126  1
  Mo  Mo187  1  0.80021298  0.80178232  0.01124556  1
  Mo  Mo188  1  0.81129726  0.00624130  0.24298955  1
  Mo  Mo189  1  -0.00306619  -0.00073146  0.01247714  1
  Mo  Mo190  1  0.40854202  0.00115566  0.74968568  1
  Mo  Mo191  1  0.89493514  0.69248199  0.12734838  1
  Mo  Mo192  1  0.70734099  0.10044912  0.62930493  1
  Mo  Mo193  1  0.60295333  0.79359972  0.23154615  1
  Mo  Mo194  1  0.88780876  0.49519696  0.37596386  1
  Mo  Mo195  1  0.40077085  -0.00567814  0.24389329  1
  Mo  Mo196  1  0.29215124  0.49327831  0.61511997  1
  Mo  Mo197  1  0.51683335  0.89197590  0.37186529  1
  Mo  Mo198  1  0.89931532  0.30013607  0.87343073  1
  Mo  Mo199  1  0.80325875  0.79665045  0.76230422  1
