# generated using pymatgen
data_HfZrTaTiMo
_symmetry_space_group_name_H-M   'P 1'
_cell_length_a   15.21316502
_cell_length_b   15.21534680
_cell_length_c   16.84952501
_cell_angle_alpha   90.00069926
_cell_angle_beta   90.02847177
_cell_angle_gamma   89.85956562
_symmetry_Int_Tables_number   1
_chemical_formula_structural   HfZrTaTiMo
_chemical_formula_sum   'Hf40 Zr40 Ta40 Ti40 Mo40'
_cell_volume   3900.20770488
_cell_formula_units_Z   40
loop_
 _symmetry_equiv_pos_site_id
 _symmetry_equiv_pos_as_xyz
  1  'x, y, z'
loop_
 _atom_site_type_symbol
 _atom_site_label
 _atom_site_symmetry_multiplicity
 _atom_site_fract_x
 _atom_site_fract_y
 _atom_site_fract_z
 _atom_site_occupancy
  Hf  Hf0  1  0.59383152  0.40000443  0.27043831  1
  Hf  Hf1  1  0.88884308  0.90548591  0.36240390  1
  Hf  Hf2  1  0.70601769  0.89581813  0.87838719  1
  Hf  Hf3  1  0.71320432  0.90407375  0.12697964  1
  Hf  Hf4  1  0.61631867  0.58426859  0.74746594  1
  Hf  Hf5  1  0.78741012  0.20385039  0.25173371  1
  Hf  Hf6  1  0.09138540  0.89921868  0.10525888  1
  Hf  Hf7  1  0.69712028  0.30341108  0.11912816  1
  Hf  Hf8  1  0.18919747  0.41917623  0.75564767  1
  Hf  Hf9  1  0.41870020  0.79822070  0.00890997  1
  Hf  Hf10  1  0.92119149  0.69352952  0.85925518  1
  Hf  Hf11  1  0.39830742  0.59103290  0.48939083  1
  Hf  Hf12  1  0.89080815  0.30747237  0.88606745  1
  Hf  Hf13  1  0.71494435  0.48572495  0.60544949  1
  Hf  Hf14  1  0.59527932  0.60094679  0.48538044  1
  Hf  Hf15  1  0.79416560  0.60831961  0.26753836  1
  Hf  Hf16  1  0.29151773  0.30653895  0.63055584  1
  Hf  Hf17  1  0.90364240  0.09565996  0.63955247  1
  Hf  Hf18  1  -0.00439763  0.41987451  0.49847171  1
  Hf  Hf19  1  0.61234223  0.79325043  0.26224009  1
  Hf  Hf20  1  0.22052175  0.79606217  0.76017771  1
  Hf  Hf21  1  0.21476953  0.20527837  0.23677861  1
  Hf  Hf22  1  0.39895964  0.60045265  0.75529449  1
  Hf  Hf23  1  0.69287139  0.32184270  0.88475279  1
  Hf  Hf24  1  0.09116069  0.51185003  0.89410549  1
  Hf  Hf25  1  0.60803545  0.80489404  0.74013816  1
  Hf  Hf26  1  0.90242299  0.09887272  0.36034232  1
  Hf  Hf27  1  0.20109694  0.01288884  0.50290189  1
  Hf  Hf28  1  0.58501719  0.20997163  0.73035114  1
  Hf  Hf29  1  -0.02562363  0.42547410  0.75013574  1
  Hf  Hf30  1  0.12928960  0.70879334  0.63243698  1
  Hf  Hf31  1  0.89192592  0.09916302  0.86514734  1
  Hf  Hf32  1  0.20305413  0.61406539  0.49685397  1
  Hf  Hf33  1  0.00601844  0.20186638  0.50095625  1
  Hf  Hf34  1  0.39656282  0.79356078  0.24280380  1
  Hf  Hf35  1  0.19415869  0.41025162  0.23222426  1
  Hf  Hf36  1  0.29885934  0.30780086  0.87194943  1
  Hf  Hf37  1  0.09627025  0.31032437  0.62595597  1
  Hf  Hf38  1  0.68551813  0.10224583  0.86090980  1
  Hf  Hf39  1  0.00163209  0.20971270  0.75666121  1
  Zr  Zr40  1  0.92346164  0.68034218  0.63854205  1
  Zr  Zr41  1  0.19411697  -0.00178987  0.76209590  1
  Zr  Zr42  1  0.40463592  0.59598346  -0.00736961  1
  Zr  Zr43  1  0.60412056  0.58739758  -0.01073800  1
  Zr  Zr44  1  0.10113778  0.32046209  0.37649800  1
  Zr  Zr45  1  0.19989618  0.20813686  -0.00685509  1
  Zr  Zr46  1  0.78213732  -0.01283565  0.73712834  1
  Zr  Zr47  1  0.39177507  0.38633808  0.24961877  1
  Zr  Zr48  1  0.82976458  0.79575169  0.00817685  1
  Zr  Zr49  1  0.50978150  0.67897137  0.13570267  1
  Zr  Zr50  1  0.88009518  0.32238185  0.61562434  1
  Zr  Zr51  1  0.79431837  0.19173971  0.50821847  1
  Zr  Zr52  1  0.29416586  0.89926378  0.37692485  1
  Zr  Zr53  1  0.09691666  0.89274093  0.36979523  1
  Zr  Zr54  1  0.72025930  0.68977146  0.87128723  1
  Zr  Zr55  1  0.71159808  0.69688598  0.61786961  1
  Zr  Zr56  1  -0.00934376  -0.00034771  0.50263986  1
  Zr  Zr57  1  0.60540232  -0.00207769  0.00326225  1
  Zr  Zr58  1  0.67572864  0.50201820  0.13728970  1
  Zr  Zr59  1  0.58551098  0.19661811  -0.00129912  1
  Zr  Zr60  1  0.30849391  0.90057234  0.89191689  1
  Zr  Zr61  1  0.91599654  0.90139461  0.86165492  1
  Zr  Zr62  1  0.89191826  0.08088657  0.13279257  1
  Zr  Zr63  1  0.48664795  0.29101798  0.38902836  1
  Zr  Zr64  1  0.10051755  0.09549131  0.11165867  1
  Zr  Zr65  1  0.69690207  0.08950407  0.37881845  1
  Zr  Zr66  1  0.82001834  0.60296767  0.48307989  1
  Zr  Zr67  1  0.49388330  0.29176272  0.86951604  1
  Zr  Zr68  1  0.39893243  0.00484576  0.24413794  1
  Zr  Zr69  1  0.37937188  0.18721779  0.51672262  1
  Zr  Zr70  1  0.00594943  0.20890414  0.23628115  1
  Zr  Zr71  1  0.87612077  0.50522777  0.89716432  1
  Zr  Zr72  1  0.88206205  0.51355526  0.12441135  1
  Zr  Zr73  1  0.00784603  0.79316120  0.50031796  1
  Zr  Zr74  1  0.78453502  0.22439085  0.73820484  1
  Zr  Zr75  1  0.50125248  0.89917949  0.37350368  1
  Zr  Zr76  1  0.10882119  0.10692846  0.36698266  1
  Zr  Zr77  1  0.48724379  0.07898318  0.63345871  1
  Zr  Zr78  1  0.40821855  0.40009154  0.00397219  1
  Zr  Zr79  1  -0.00108055  0.40391678  0.22956364  1
  Ta  Ta80  1  0.79554801  0.39864718  0.26357745  1
  Ta  Ta81  1  0.02079129  0.61006714  0.24581237  1
  Ta  Ta82  1  0.09514339  0.51809653  0.62901083  1
  Ta  Ta83  1  0.39689013  0.58896076  0.26338764  1
  Ta  Ta84  1  0.89458801  0.30241947  0.37722393  1
  Ta  Ta85  1  0.50216818  0.30465137  0.12772052  1
  Ta  Ta86  1  0.29472932  0.89942804  0.11141136  1
  Ta  Ta87  1  0.10188624  0.10734160  0.63282432  1
  Ta  Ta88  1  -0.01052208  0.19840961  0.00176999  1
  Ta  Ta89  1  0.28444397  0.49274512  0.37137753  1
  Ta  Ta90  1  0.50964031  0.89877853  0.87200949  1
  Ta  Ta91  1  0.10437614  0.90873740  0.62692551  1
  Ta  Ta92  1  0.50741655  0.48312871  0.62077316  1
  Ta  Ta93  1  0.28724490  0.69979250  0.36479955  1
  Ta  Ta94  1  0.91557324  0.49929347  0.35961425  1
  Ta  Ta95  1  0.49514650  0.10799602  0.13018156  1
  Ta  Ta96  1  0.60124417  -0.00629783  0.50370646  1
  Ta  Ta97  1  0.49597048  0.09809261  0.38090012  1
  Ta  Ta98  1  0.38266488  0.19229341  0.74377921  1
  Ta  Ta99  1  0.71583204  0.69570056  0.12507660  1
  Ta  Ta100  1  0.50766133  0.90236579  0.13069456  1
  Ta  Ta101  1  -0.00067160  0.39711148  0.01699313  1
  Ta  Ta102  1  0.11312930  0.70585638  0.89225873  1
  Ta  Ta103  1  0.29297581  0.69312988  0.12245143  1
  Ta  Ta104  1  0.58560300  0.19799357  0.25329864  1
  Ta  Ta105  1  0.30221510  0.88899647  0.61908131  1
  Ta  Ta106  1  0.19607091  -0.00566391  0.24040190  1
  Ta  Ta107  1  0.48725134  0.08824645  0.85963028  1
  Ta  Ta108  1  0.10660690  0.51845512  0.10918121  1
  Ta  Ta109  1  0.30569578  0.10553046  0.37159486  1
  Ta  Ta110  1  0.90487752  0.88873305  0.63393298  1
  Ta  Ta111  1  0.39734603  0.78503295  0.49930609  1
  Ta  Ta112  1  0.41104889  0.00798347  0.00388925  1
  Ta  Ta113  1  0.19337047  0.20335436  0.76450776  1
  Ta  Ta114  1  0.58947557  0.19741930  0.51665381  1
  Ta  Ta115  1  0.30279364  0.09504980  0.11232445  1
  Ta  Ta116  1  0.08943845  0.09284698  0.88678903  1
  Ta  Ta117  1  0.28603148  0.29434258  0.38652617  1
  Ta  Ta118  1  0.60177379  0.79735485  0.49220084  1
  Ta  Ta119  1  0.61158516  0.79249398  0.00446310  1
  Ti  Ti120  1  0.20119490  0.40690688  0.00913454  1
  Ti  Ti121  1  -0.01592887  0.61906025  0.01297172  1
  Ti  Ti122  1  0.30790053  0.50797748  0.12406270  1
  Ti  Ti123  1  0.00195144  0.80433244  0.23845535  1
  Ti  Ti124  1  0.28411247  0.09136130  0.63766502  1
  Ti  Ti125  1  0.20050163  0.41522100  0.50551306  1
  Ti  Ti126  1  0.79359150  -0.01255500  0.51465138  1
  Ti  Ti127  1  0.79344148  0.19389850  0.00125864  1
  Ti  Ti128  1  0.29703971  0.51499674  0.63233544  1
  Ti  Ti129  1  0.39530395  -0.01600727  0.75146040  1
  Ti  Ti130  1  0.02465984  0.80817358  0.75204255  1
  Ti  Ti131  1  0.69259875  0.10101036  0.13141757  1
  Ti  Ti132  1  0.60667468  -0.00024107  0.25254455  1
  Ti  Ti133  1  0.39435933  0.40069446  0.50350067  1
  Ti  Ti134  1  0.41140622  0.79644271  0.74742631  1
  Ti  Ti135  1  0.30418497  0.69789784  0.88597578  1
  Ti  Ti136  1  0.01517612  0.60437534  0.48252660  1
  Ti  Ti137  1  0.49784245  0.69049349  0.62331185  1
  Ti  Ti138  1  0.50299477  0.88713612  0.61966904  1
  Ti  Ti139  1  0.80620665  0.78951694  0.74106850  1
  Ti  Ti140  1  0.09171479  0.30804749  0.88424430  1
  Ti  Ti141  1  0.68921633  0.09093802  0.62822567  1
  Ti  Ti142  1  0.10375127  0.89917924  0.89870047  1
  Ti  Ti143  1  0.51127489  0.70525539  0.87077751  1
  Ti  Ti144  1  0.91668286  0.70788787  0.36365906  1
  Ti  Ti145  1  0.70361510  0.49228060  0.38565732  1
  Ti  Ti146  1  0.10377890  0.70476270  0.10703996  1
  Ti  Ti147  1  0.69469906  0.29502999  0.39244371  1
  Ti  Ti148  1  0.80983191  0.00121796  -0.00292165  1
  Ti  Ti149  1  0.30892010  0.29112425  0.11272228  1
  Ti  Ti150  1  0.40865227  0.39644176  0.74255219  1
  Ti  Ti151  1  0.19277996  0.79157954  0.23845067  1
  Ti  Ti152  1  0.59145462  0.60069532  0.28344855  1
  Ti  Ti153  1  0.80319076  0.80144925  0.24929884  1
  Ti  Ti154  1  0.89083237  0.29837213  0.11640316  1
  Ti  Ti155  1  0.51213029  0.48263557  0.86475514  1
  Ti  Ti156  1  0.80220554  0.80321116  0.49594438  1
  Ti  Ti157  1  0.30053180  0.10179278  0.88225907  1
  Ti  Ti158  1  0.29497298  0.50474069  0.87726984  1
  Ti  Ti159  1  0.40038514  -0.01141881  0.50009128  1
  Mo  Mo160  1  0.00453085  0.79867400  -0.00099205  1
  Mo  Mo161  1  0.69667323  0.49708672  0.87526216  1
  Mo  Mo162  1  0.32022051  0.70159963  0.62803432  1
  Mo  Mo163  1  0.90434892  0.89900290  0.13928635  1
  Mo  Mo164  1  0.19711850  0.20600126  0.50748357  1
  Mo  Mo165  1  0.39966890  0.19749518  0.25021508  1
  Mo  Mo166  1  0.10452086  0.30638154  0.10759226  1
  Mo  Mo167  1  0.00665285  -0.00299755  0.74549764  1
  Mo  Mo168  1  0.48608899  0.30262228  0.61813478  1
  Mo  Mo169  1  0.49523400  0.49744424  0.13839494  1
  Mo  Mo170  1  0.77800143  0.41975869  0.74835292  1
  Mo  Mo171  1  0.21000048  0.79548282  0.00188836  1
  Mo  Mo172  1  0.59036380  0.39868921  0.48786626  1
  Mo  Mo173  1  0.79198913  0.39774819  0.01226349  1
  Mo  Mo174  1  0.21064214  0.80631659  0.50242610  1
  Mo  Mo175  1  0.90985934  0.70484653  0.14185599  1
  Mo  Mo176  1  0.00626312  -0.00675697  0.24752782  1
  Mo  Mo177  1  0.58687636  -0.00933709  0.74600291  1
  Mo  Mo178  1  0.20891951  0.60384700  0.76080180  1
  Mo  Mo179  1  0.48956125  0.69923855  0.37128047  1
  Mo  Mo180  1  0.78995210  -0.00564309  0.25043642  1
  Mo  Mo181  1  0.69793247  0.89394035  0.61031583  1
  Mo  Mo182  1  0.10660512  0.51275591  0.36827882  1
  Mo  Mo183  1  0.70258795  0.89746182  0.38637455  1
  Mo  Mo184  1  0.81770651  0.58116282  0.74388464  1
  Mo  Mo185  1  0.20493719  0.00167630  -0.00922980  1
  Mo  Mo186  1  0.70639129  0.70825105  0.38236931  1
  Mo  Mo187  1  0.79519921  0.60757874  0.01058178  1
  Mo  Mo188  1  0.90634293  0.50740339  0.61769447  1
  Mo  Mo189  1  0.10591532  0.70183749  0.36503615  1
  Mo  Mo190  1  0.20665981  0.60478828  0.23976559  1
  Mo  Mo191  1  0.39977692  0.19138580  -0.00148210  1
  Mo  Mo192  1  -0.01216295  0.00102015  -0.00637449  1
  Mo  Mo193  1  0.20634849  0.59782037  0.00157088  1
  Mo  Mo194  1  0.59929398  0.39774352  0.74096079  1
  Mo  Mo195  1  0.59058955  0.40294178  0.00550245  1
  Mo  Mo196  1  0.48876684  0.49338908  0.38347915  1
  Mo  Mo197  1  0.02818071  0.60004967  0.75770458  1
  Mo  Mo198  1  0.67689714  0.31059858  0.60432850  1
  Mo  Mo199  1  0.80217597  0.40086283  0.47482079  1
