# generated using pymatgen
data_HfZrTaTiMo
_symmetry_space_group_name_H-M   'P 1'
_cell_length_a   15.21638960
_cell_length_b   15.20880067
_cell_length_c   16.83330467
_cell_angle_alpha   89.97727568
_cell_angle_beta   89.98195207
_cell_angle_gamma   89.96886472
_symmetry_Int_Tables_number   1
_chemical_formula_structural   HfZrTaTiMo
_chemical_formula_sum   'Hf40 Zr40 Ta40 Ti40 Mo40'
_cell_volume   3895.61340375
_cell_formula_units_Z   40
loop_
 _symmetry_equiv_pos_site_id
 _symmetry_equiv_pos_as_xyz
  1  'x, y, z'
loop_
 _atom_site_type_symbol
 _atom_site_label
 _atom_site_symmetry_multiplicity
 _atom_site_fract_x
 _atom_site_fract_y
 _atom_site_fract_z
 _atom_site_occupancy
  Hf  Hf0  1  0.61177308  0.81607790  0.25368954  1
  Hf  Hf1  1  0.87598273  0.29005904  0.88892965  1
  Hf  Hf2  1  0.09638414  0.89383905  0.12802374  1
  Hf  Hf3  1  0.18825555  0.59476279  0.75448365  1
  Hf  Hf4  1  0.39537315  0.00342642  0.00494492  1
  Hf  Hf5  1  0.60680111  0.20522317  0.01853405  1
  Hf  Hf6  1  0.40588408  0.40175435  0.74669743  1
  Hf  Hf7  1  0.60946422  0.59544730  0.74481805  1
  Hf  Hf8  1  0.29423173  0.11291800  0.13176377  1
  Hf  Hf9  1  0.61072104  0.59471458  0.49513900  1
  Hf  Hf10  1  0.61838778  0.38202185  0.48921809  1
  Hf  Hf11  1  0.79189124  0.38168576  0.74876378  1
  Hf  Hf12  1  0.91675011  0.49168612  0.37291410  1
  Hf  Hf13  1  0.77934511  0.00586432  0.25711123  1
  Hf  Hf14  1  0.90941041  0.49431667  0.62543312  1
  Hf  Hf15  1  0.11243709  0.48482656  0.12616160  1
  Hf  Hf16  1  0.08861597  0.29205469  0.36912155  1
  Hf  Hf17  1  0.51062531  0.30460766  0.87799461  1
  Hf  Hf18  1  -0.00387656  0.79125563  0.25391705  1
  Hf  Hf19  1  0.30896774  0.70269266  0.39516428  1
  Hf  Hf20  1  0.08934561  0.70421139  0.87629218  1
  Hf  Hf21  1  0.90598655  0.69842590  0.61781119  1
  Hf  Hf22  1  0.50715544  0.50252875  0.37135744  1
  Hf  Hf23  1  0.28663602  0.10001750  0.62172271  1
  Hf  Hf24  1  0.71742455  0.91053433  0.10986895  1
  Hf  Hf25  1  0.81548547  0.61244850  0.24515696  1
  Hf  Hf26  1  0.08932469  0.29337759  0.62613507  1
  Hf  Hf27  1  0.17517273  0.19766183  0.00575679  1
  Hf  Hf28  1  0.39993253  0.60273176  -0.00568377  1
  Hf  Hf29  1  0.29374177  0.90133641  0.86913168  1
  Hf  Hf30  1  0.60689171  0.61490023  0.25116674  1
  Hf  Hf31  1  0.50778059  0.50297421  0.87587154  1
  Hf  Hf32  1  0.29601949  0.69841726  0.61382735  1
  Hf  Hf33  1  0.39024873  0.20958777  0.00127061  1
  Hf  Hf34  1  0.50951540  0.70193991  0.61222979  1
  Hf  Hf35  1  0.60597091  0.60574171  0.00750868  1
  Hf  Hf36  1  0.88577126  0.90258032  0.61539752  1
  Hf  Hf37  1  0.80815402  0.80846070  0.25603808  1
  Hf  Hf38  1  0.20329803  0.79171647  0.25520743  1
  Hf  Hf39  1  0.20517246  0.58669506  -0.01720706  1
  Zr  Zr40  1  0.40522787  0.80187568  -0.00077901  1
  Zr  Zr41  1  0.60191098  0.00803100  -0.00182447  1
  Zr  Zr42  1  0.40295136  0.59804864  0.74459576  1
  Zr  Zr43  1  0.89287199  0.09752787  0.37035708  1
  Zr  Zr44  1  0.00604861  0.80656430  0.74702674  1
  Zr  Zr45  1  0.18792314  -0.00636726  0.74344651  1
  Zr  Zr46  1  0.21535168  0.59259448  0.26985148  1
  Zr  Zr47  1  0.19744454  0.39717097  0.75919317  1
  Zr  Zr48  1  0.39823633  0.20292492  0.74092052  1
  Zr  Zr49  1  0.30680123  0.90947001  0.37504233  1
  Zr  Zr50  1  0.20054491  0.79986806  -0.00092426  1
  Zr  Zr51  1  0.19873213  0.00188701  0.24379413  1
  Zr  Zr52  1  0.88881669  0.70395693  0.88462536  1
  Zr  Zr53  1  0.40076326  0.80505947  0.73720970  1
  Zr  Zr54  1  0.71736550  0.48866023  0.36216748  1
  Zr  Zr55  1  0.60225931  0.40216833  0.02078132  1
  Zr  Zr56  1  0.20029049  0.39183624  -0.01507414  1
  Zr  Zr57  1  0.40954477  0.80846627  0.25101297  1
  Zr  Zr58  1  0.47545038  0.29972030  0.13968514  1
  Zr  Zr59  1  0.60596394  0.80213681  0.75834703  1
  Zr  Zr60  1  0.79627932  0.81219108  0.75919586  1
  Zr  Zr61  1  0.90172254  0.09632424  0.62250635  1
  Zr  Zr62  1  0.91483094  0.49711809  0.87531978  1
  Zr  Zr63  1  0.01457597  0.59331101  0.25497592  1
  Zr  Zr64  1  0.50080430  0.10411996  0.86656793  1
  Zr  Zr65  1  0.71043405  0.71138895  0.61062223  1
  Zr  Zr66  1  0.40666001  -0.00000208  0.51116610  1
  Zr  Zr67  1  -0.00747368  -0.00133907  0.01571846  1
  Zr  Zr68  1  0.80128995  0.59681515  0.74976897  1
  Zr  Zr69  1  0.29110079  0.10313550  0.86873247  1
  Zr  Zr70  1  0.20229868  0.82242142  0.50859721  1
  Zr  Zr71  1  0.29608330  0.11164196  0.37749705  1
  Zr  Zr72  1  0.10301075  0.68866604  0.11874329  1
  Zr  Zr73  1  0.62116135  0.21321478  0.74261477  1
  Zr  Zr74  1  -0.00160726  0.38716002  0.00949623  1
  Zr  Zr75  1  0.20398548  0.39479470  0.27136872  1
  Zr  Zr76  1  0.48926523  0.51032528  0.14055326  1
  Zr  Zr77  1  0.29526229  0.30248642  0.61033905  1
  Zr  Zr78  1  0.30010287  0.49737877  0.60408551  1
  Zr  Zr79  1  0.78173567  0.19855576  0.49103349  1
  Ta  Ta80  1  0.71122573  0.49396709  0.13841721  1
  Ta  Ta81  1  -0.00022407  0.80742129  0.49820706  1
  Ta  Ta82  1  0.07931787  0.28810923  0.86963411  1
  Ta  Ta83  1  0.50226325  0.90457391  0.87211612  1
  Ta  Ta84  1  0.50932486  0.48939397  0.61078547  1
  Ta  Ta85  1  0.09194257  0.09761961  0.36051991  1
  Ta  Ta86  1  0.61198099  0.00052856  0.75507708  1
  Ta  Ta87  1  0.39034485  0.40755162  -0.00434543  1
  Ta  Ta88  1  -0.00310297  0.38894648  0.49956115  1
  Ta  Ta89  1  0.60732043  0.80043728  -0.00893031  1
  Ta  Ta90  1  0.80856955  0.58852749  0.49657315  1
  Ta  Ta91  1  0.10520505  0.49664952  0.60898586  1
  Ta  Ta92  1  0.61063301  0.01255074  0.49851314  1
  Ta  Ta93  1  0.90159617  0.49836127  0.12482864  1
  Ta  Ta94  1  0.70829725  0.48762311  0.88393322  1
  Ta  Ta95  1  0.19407506  0.00200615  0.00576975  1
  Ta  Ta96  1  0.00031497  0.00150911  0.49354391  1
  Ta  Ta97  1  0.90271478  0.70172519  0.39057160  1
  Ta  Ta98  1  0.08882606  0.90505578  0.37119428  1
  Ta  Ta99  1  0.30098937  0.69859728  0.86418638  1
  Ta  Ta100  1  0.50107662  0.28323732  0.36415852  1
  Ta  Ta101  1  0.51542045  0.09793257  0.62974437  1
  Ta  Ta102  1  0.10234784  0.70008605  0.39237476  1
  Ta  Ta103  1  0.80052236  0.59393631  0.00872636  1
  Ta  Ta104  1  0.31051919  0.69101789  0.12898671  1
  Ta  Ta105  1  0.50629459  0.71227088  0.12548286  1
  Ta  Ta106  1  0.87471022  0.29341118  0.12906428  1
  Ta  Ta107  1  0.08557346  0.09119240  0.87793192  1
  Ta  Ta108  1  0.09778049  0.69302041  0.61613091  1
  Ta  Ta109  1  0.40961066  0.39053475  0.48353990  1
  Ta  Ta110  1  0.88992565  0.30001293  0.36520320  1
  Ta  Ta111  1  0.70812325  0.70753887  0.38576601  1
  Ta  Ta112  1  0.71368237  0.11872676  0.87894507  1
  Ta  Ta113  1  0.59909467  0.38972102  0.24707413  1
  Ta  Ta114  1  -0.00363833  0.19479993  0.49703325  1
  Ta  Ta115  1  0.41870456  0.01798730  0.24462812  1
  Ta  Ta116  1  0.40856888  -0.00569532  0.73295280  1
  Ta  Ta117  1  0.50910682  0.71552173  0.38756896  1
  Ta  Ta118  1  0.59234221  0.17351359  0.23843752  1
  Ta  Ta119  1  0.88396211  0.29559666  0.62014432  1
  Ti  Ti120  1  0.29807300  0.29781015  0.86994062  1
  Ti  Ti121  1  0.38054917  0.21122194  0.25804235  1
  Ti  Ti122  1  0.59086880  0.19448192  0.49675705  1
  Ti  Ti123  1  0.80206532  0.00895826  0.76089831  1
  Ti  Ti124  1  0.19781387  0.80099068  0.73992138  1
  Ti  Ti125  1  0.50702070  0.90768117  0.12306921  1
  Ti  Ti126  1  0.18583206  0.20165529  0.49669413  1
  Ti  Ti127  1  0.30448716  0.49962716  0.13040403  1
  Ti  Ti128  1  0.41225955  0.81454965  0.51092588  1
  Ti  Ti129  1  0.27760274  0.31256307  0.13019688  1
  Ti  Ti130  1  0.18140672  0.19501540  0.75115950  1
  Ti  Ti131  1  0.40385660  0.61139099  0.26320546  1
  Ti  Ti132  1  0.50754251  0.29953058  0.61640446  1
  Ti  Ti133  1  0.71333083  0.90579104  0.88864221  1
  Ti  Ti134  1  0.71076104  0.10269538  0.62816979  1
  Ti  Ti135  1  0.60680843  0.82066173  0.49388015  1
  Ti  Ti136  1  0.91231714  0.90319646  0.88800301  1
  Ti  Ti137  1  0.09102287  0.91125056  0.62031974  1
  Ti  Ti138  1  -0.00254012  0.38753449  0.23822832  1
  Ti  Ti139  1  0.70963396  0.48327063  0.61484559  1
  Ti  Ti140  1  -0.00822232  0.18889297  0.23225154  1
  Ti  Ti141  1  0.71274262  0.70980204  0.11832136  1
  Ti  Ti142  1  0.39064905  0.40674169  0.27372529  1
  Ti  Ti143  1  0.70101738  0.28458453  0.34922049  1
  Ti  Ti144  1  0.89919046  0.09979645  0.88124397  1
  Ti  Ti145  1  0.40937883  0.59618283  0.49611232  1
  Ti  Ti146  1  0.00103479  0.59778548  0.00468534  1
  Ti  Ti147  1  0.18373242  0.01214225  0.50063274  1
  Ti  Ti148  1  0.50379851  0.70513614  0.87220285  1
  Ti  Ti149  1  0.51526470  0.92110799  0.37213156  1
  Ti  Ti150  1  0.30540680  0.89725371  0.12794680  1
  Ti  Ti151  1  -0.01377883  0.19688545  0.75053522  1
  Ti  Ti152  1  0.00772487  0.59517909  0.49674547  1
  Ti  Ti153  1  0.69527288  0.91355450  0.62037198  1
  Ti  Ti154  1  0.60403780  0.40361128  0.74101263  1
  Ti  Ti155  1  -0.01887967  -0.00937420  0.23916050  1
  Ti  Ti156  1  0.00327449  0.40210011  0.75003723  1
  Ti  Ti157  1  -0.00310233  0.00184366  0.75455614  1
  Ti  Ti158  1  -0.01477817  0.19048494  0.02210497  1
  Ti  Ti159  1  0.40522600  0.19751906  0.49917085  1
  Mo  Mo160  1  -0.00592397  0.79499601  0.00637862  1
  Mo  Mo161  1  0.18805646  0.20280130  0.24811198  1
  Mo  Mo162  1  0.70065254  0.90393157  0.38405790  1
  Mo  Mo163  1  0.79141705  -0.00489078  0.49019184  1
  Mo  Mo164  1  0.88395022  0.08898708  0.13258294  1
  Mo  Mo165  1  0.29899076  0.90230295  0.62603763  1
  Mo  Mo166  1  0.90073354  0.89911769  0.38460166  1
  Mo  Mo167  1  0.19599804  0.39346296  0.48552074  1
  Mo  Mo168  1  0.80934507  0.39412948  0.49817131  1
  Mo  Mo169  1  0.69542692  0.29545427  0.61854707  1
  Mo  Mo170  1  0.09151556  0.09826470  0.13767526  1
  Mo  Mo171  1  0.49676915  0.10229587  0.37467191  1
  Mo  Mo172  1  0.79864011  0.19637691  0.01045810  1
  Mo  Mo173  1  0.09443066  0.90608259  0.88012922  1
  Mo  Mo174  1  0.49178121  0.10034450  0.12198338  1
  Mo  Mo175  1  0.80793224  0.40039778  0.24658789  1
  Mo  Mo176  1  0.79975862  0.80130143  -0.00600983  1
  Mo  Mo177  1  0.19873567  0.60154235  0.49585184  1
  Mo  Mo178  1  0.89649314  0.88726470  0.12029855  1
  Mo  Mo179  1  0.30740531  0.49574628  0.86976712  1
  Mo  Mo180  1  0.70981017  0.11006205  0.12131449  1
  Mo  Mo181  1  0.51774368  0.90768711  0.62486770  1
  Mo  Mo182  1  0.69550614  0.30666547  0.88262887  1
  Mo  Mo183  1  0.67425353  0.10160545  0.37239782  1
  Mo  Mo184  1  0.09180074  0.29042283  0.13841295  1
  Mo  Mo185  1  0.80791513  0.19108775  0.75075277  1
  Mo  Mo186  1  0.30951724  0.49987357  0.39515929  1
  Mo  Mo187  1  0.10548675  0.49831645  0.39926224  1
  Mo  Mo188  1  0.59515685  -0.00394872  0.23948860  1
  Mo  Mo189  1  0.00937013  0.59360186  0.74087519  1
  Mo  Mo190  1  0.69268238  0.69021309  0.88757792  1
  Mo  Mo191  1  0.30122324  0.29633406  0.39066867  1
  Mo  Mo192  1  0.90014179  0.70239830  0.10980934  1
  Mo  Mo193  1  0.79670842  0.19979597  0.25154618  1
  Mo  Mo194  1  0.09092980  0.49527119  0.87340381  1
  Mo  Mo195  1  0.69500550  0.30018272  0.14714395  1
  Mo  Mo196  1  0.09104946  0.10206551  0.62245197  1
  Mo  Mo197  1  0.79221581  0.40278208  0.01048366  1
  Mo  Mo198  1  0.80067251  0.80257522  0.49170015  1
  Mo  Mo199  1  0.80318230  0.00964358  -0.01051493  1
