# generated using pymatgen
data_HfZrTaTiMo
_symmetry_space_group_name_H-M   'P 1'
_cell_length_a   15.22013924
_cell_length_b   15.20751863
_cell_length_c   16.83252704
_cell_angle_alpha   90.01747871
_cell_angle_beta   90.00360149
_cell_angle_gamma   90.01146989
_symmetry_Int_Tables_number   1
_chemical_formula_structural   HfZrTaTiMo
_chemical_formula_sum   'Hf40 Zr40 Ta40 Ti40 Mo40'
_cell_volume   3896.06571782
_cell_formula_units_Z   40
loop_
 _symmetry_equiv_pos_site_id
 _symmetry_equiv_pos_as_xyz
  1  'x, y, z'
loop_
 _atom_site_type_symbol
 _atom_site_label
 _atom_site_symmetry_multiplicity
 _atom_site_fract_x
 _atom_site_fract_y
 _atom_site_fract_z
 _atom_site_occupancy
  Hf  Hf0  1  0.20512782  0.41438157  0.49484008  1
  Hf  Hf1  1  0.39155573  0.00064105  0.76179206  1
  Hf  Hf2  1  0.68794314  0.10540888  0.63695655  1
  Hf  Hf3  1  0.59611137  0.19453888  0.48858387  1
  Hf  Hf4  1  0.69864643  0.49440400  0.61983487  1
  Hf  Hf5  1  0.20745675  0.00312424  0.49940514  1
  Hf  Hf6  1  0.88092813  0.70581443  0.13824873  1
  Hf  Hf7  1  0.09088858  0.72829175  0.62606326  1
  Hf  Hf8  1  0.18571454  0.41620780  0.27684807  1
  Hf  Hf9  1  0.50412340  0.89596115  0.89765768  1
  Hf  Hf10  1  0.50817997  0.69316353  0.62872434  1
  Hf  Hf11  1  0.60347182  -0.00522269  0.23511002  1
  Hf  Hf12  1  0.20723294  0.59767281  -0.00489980  1
  Hf  Hf13  1  0.70384614  0.89680167  0.36141438  1
  Hf  Hf14  1  0.59444057  0.59683474  0.76398503  1
  Hf  Hf15  1  0.09640639  0.91008247  0.89288984  1
  Hf  Hf16  1  0.61557915  0.41021932  0.24523517  1
  Hf  Hf17  1  -0.00313565  0.40126879  0.74294824  1
  Hf  Hf18  1  0.49965238  0.69730679  0.89405789  1
  Hf  Hf19  1  0.89187917  0.50349992  0.61342636  1
  Hf  Hf20  1  0.49080356  0.08760461  0.35626849  1
  Hf  Hf21  1  0.00849812  -0.00591609  0.74346719  1
  Hf  Hf22  1  0.49423611  0.28797225  0.87314903  1
  Hf  Hf23  1  0.49122083  0.70517059  0.10255661  1
  Hf  Hf24  1  0.59868758  -0.00233138  0.49669387  1
  Hf  Hf25  1  0.60830501  0.58933329  0.00791398  1
  Hf  Hf26  1  0.60087747  0.79362906  0.49081167  1
  Hf  Hf27  1  0.72981998  0.88998178  0.13028129  1
  Hf  Hf28  1  0.90600361  0.91255125  0.36246148  1
  Hf  Hf29  1  0.60344480  0.20247985  0.25109491  1
  Hf  Hf30  1  0.48936731  0.68721233  0.36969004  1
  Hf  Hf31  1  0.09338257  0.11220085  0.88047388  1
  Hf  Hf32  1  -0.01303523  0.41206062  0.26616175  1
  Hf  Hf33  1  0.49582119  0.89669079  0.62623105  1
  Hf  Hf34  1  0.21678731  0.20848699  0.74707723  1
  Hf  Hf35  1  0.60525316  0.39382906  0.75700786  1
  Hf  Hf36  1  0.11014972  0.31548771  0.88189603  1
  Hf  Hf37  1  0.29937030  0.70931666  0.63847770  1
  Hf  Hf38  1  0.38509405  0.79948166  0.49473286  1
  Hf  Hf39  1  0.19332310  0.81912854  0.76241788  1
  Zr  Zr40  1  0.40043395  0.38722096  0.50299121  1
  Zr  Zr41  1  0.59608700  -0.00942079  0.75285065  1
  Zr  Zr42  1  0.89656648  0.48597079  0.87805477  1
  Zr  Zr43  1  0.40506831  0.79779797  0.76483962  1
  Zr  Zr44  1  0.29325444  0.10040433  0.35640409  1
  Zr  Zr45  1  0.79343547  0.60090316  0.00276122  1
  Zr  Zr46  1  0.91034877  0.89071568  0.61805316  1
  Zr  Zr47  1  0.40337326  0.58896409  0.51483678  1
  Zr  Zr48  1  0.70783215  0.69587134  0.61792131  1
  Zr  Zr49  1  0.01141474  0.81236854  0.24228215  1
  Zr  Zr50  1  0.80142214  0.00238377  0.50156569  1
  Zr  Zr51  1  0.09566743  0.70620789  0.88334128  1
  Zr  Zr52  1  0.30138097  0.88661480  0.12528661  1
  Zr  Zr53  1  0.00811419  0.60090911  0.25746675  1
  Zr  Zr54  1  -0.00657351  0.61214232  0.74858114  1
  Zr  Zr55  1  -0.01610006  0.01664201  0.02030218  1
  Zr  Zr56  1  0.49695817  0.30603863  0.12573699  1
  Zr  Zr57  1  0.48362049  0.49136153  0.88416109  1
  Zr  Zr58  1  0.28458552  0.47915083  0.87063532  1
  Zr  Zr59  1  0.19708169  0.40342448  0.72428354  1
  Zr  Zr60  1  0.59212543  0.59701019  0.23043800  1
  Zr  Zr61  1  0.80429093  0.18586649  0.00581238  1
  Zr  Zr62  1  0.11427724  0.70638635  0.11971932  1
  Zr  Zr63  1  0.09985244  0.31438760  0.12930354  1
  Zr  Zr64  1  0.28593415  0.49679406  0.13203533  1
  Zr  Zr65  1  0.11314147  0.90541457  0.37288188  1
  Zr  Zr66  1  0.40805177  0.41268369  0.26008163  1
  Zr  Zr67  1  0.89381303  0.71373844  0.88577395  1
  Zr  Zr68  1  0.60987925  0.39568435  0.00048901  1
  Zr  Zr69  1  0.71252378  0.89374613  0.88534643  1
  Zr  Zr70  1  0.20247870  0.62398850  0.50238023  1
  Zr  Zr71  1  0.61915016  0.00910991  0.01359258  1
  Zr  Zr72  1  0.20732561  0.20401912  0.00610585  1
  Zr  Zr73  1  0.79709584  0.20108847  0.49918943  1
  Zr  Zr74  1  0.20113294  0.20746268  0.49672219  1
  Zr  Zr75  1  0.30130806  0.29132601  0.14600237  1
  Zr  Zr76  1  0.89760789  0.29808515  0.62139725  1
  Zr  Zr77  1  0.78902895  0.59167873  0.76294705  1
  Zr  Zr78  1  -0.00304501  0.40287904  0.48386858  1
  Zr  Zr79  1  0.50354502  0.89365427  0.10900048  1
  Ta  Ta80  1  0.20359489  0.00094593  0.01123512  1
  Ta  Ta81  1  0.70937621  0.29347060  0.13091995  1
  Ta  Ta82  1  0.70257451  0.10294126  0.86599608  1
  Ta  Ta83  1  -0.00452975  0.59914662  0.01140850  1
  Ta  Ta84  1  0.80354610  -0.00371128  0.74441700  1
  Ta  Ta85  1  0.19054643  -0.00719609  0.23340693  1
  Ta  Ta86  1  0.31637325  0.10617079  0.62669046  1
  Ta  Ta87  1  0.89313873  0.31263266  0.13649546  1
  Ta  Ta88  1  0.31245435  0.90322760  0.35841243  1
  Ta  Ta89  1  0.40215185  0.18845536  0.49510827  1
  Ta  Ta90  1  0.70375109  0.89025999  0.62408099  1
  Ta  Ta91  1  0.00774754  0.80152009  0.48589152  1
  Ta  Ta92  1  0.88941028  0.29630872  0.37076355  1
  Ta  Ta93  1  0.60267633  0.39131269  0.49852296  1
  Ta  Ta94  1  0.39121417  0.37719068  0.73524967  1
  Ta  Ta95  1  0.90380041  0.90778158  0.87736643  1
  Ta  Ta96  1  0.28885415  0.90661658  0.62601521  1
  Ta  Ta97  1  -0.01017889  0.81220276  0.02179823  1
  Ta  Ta98  1  0.80901956  0.79857470  0.74794409  1
  Ta  Ta99  1  0.00611474  0.00798798  0.50356262  1
  Ta  Ta100  1  0.89857347  0.69940146  0.61069867  1
  Ta  Ta101  1  0.90889760  0.28652178  0.87372505  1
  Ta  Ta102  1  0.89610032  0.09760781  0.86608898  1
  Ta  Ta103  1  0.39177982  0.57951605  0.74048537  1
  Ta  Ta104  1  0.19371996  0.60094459  0.74275679  1
  Ta  Ta105  1  -0.00799831  0.20194245  0.24647747  1
  Ta  Ta106  1  0.69648727  0.30243800  0.62936250  1
  Ta  Ta107  1  0.39304068  0.00809152  -0.00226757  1
  Ta  Ta108  1  0.71397850  0.29771902  0.87150834  1
  Ta  Ta109  1  0.48940955  0.10351107  0.13274311  1
  Ta  Ta110  1  0.50559971  0.09947408  0.88122612  1
  Ta  Ta111  1  0.79624280  0.57855651  0.25573016  1
  Ta  Ta112  1  0.30492528  0.53215544  0.36691384  1
  Ta  Ta113  1  0.09336207  0.51674256  0.61128584  1
  Ta  Ta114  1  0.50164068  0.26986330  0.63287236  1
  Ta  Ta115  1  0.60368047  0.19781993  0.00597965  1
  Ta  Ta116  1  0.80627737  0.79278946  0.48318500  1
  Ta  Ta117  1  0.10458725  0.10163642  0.62527507  1
  Ta  Ta118  1  0.40350168  0.19493673  0.00341123  1
  Ta  Ta119  1  0.40243602  -0.00116490  0.49878278  1
  Ti  Ti120  1  0.90145903  0.10406829  0.36392258  1
  Ti  Ti121  1  0.50714751  0.49561345  0.37870358  1
  Ti  Ti122  1  0.11691790  0.70166173  0.37230498  1
  Ti  Ti123  1  0.09186396  0.50755704  0.87809632  1
  Ti  Ti124  1  0.79818202  0.59459557  0.48209656  1
  Ti  Ti125  1  0.36410480  0.79643948  -0.01558790  1
  Ti  Ti126  1  0.30597797  0.29874702  0.36492752  1
  Ti  Ti127  1  0.20120246  0.01118477  0.75153417  1
  Ti  Ti128  1  0.30573722  0.68753250  0.12493153  1
  Ti  Ti129  1  0.89774260  0.70212742  0.36518268  1
  Ti  Ti130  1  0.30301777  0.10809224  0.87828541  1
  Ti  Ti131  1  -0.00298139  0.60817831  0.48288337  1
  Ti  Ti132  1  0.09829001  0.10454969  0.13100006  1
  Ti  Ti133  1  0.60286538  0.58931897  0.49509523  1
  Ti  Ti134  1  0.61306619  0.79287472  0.75655005  1
  Ti  Ti135  1  0.08803873  0.09662903  0.36470724  1
  Ti  Ti136  1  -0.00484566  0.21114633  0.01441599  1
  Ti  Ti137  1  -0.00358740  0.40479244  0.00583365  1
  Ti  Ti138  1  0.80224448  0.20480506  0.74894898  1
  Ti  Ti139  1  0.09365648  0.50485371  0.12506722  1
  Ti  Ti140  1  0.60649270  0.78903390  0.24280766  1
  Ti  Ti141  1  0.40867158  0.79268707  0.24681366  1
  Ti  Ti142  1  0.18867302  0.19984430  0.25326738  1
  Ti  Ti143  1  0.50273863  0.48105245  0.62804498  1
  Ti  Ti144  1  -0.00041488  0.19211746  0.49586769  1
  Ti  Ti145  1  0.37230508  0.38956124  0.00016078  1
  Ti  Ti146  1  0.29733498  0.68773970  0.86497756  1
  Ti  Ti147  1  0.80374197  0.39577175  0.00315456  1
  Ti  Ti148  1  0.49906619  0.89312238  0.36526584  1
  Ti  Ti149  1  0.47421275  0.50507600  0.10819071  1
  Ti  Ti150  1  0.30457424  0.09558368  0.13914718  1
  Ti  Ti151  1  0.71122558  0.10016006  0.36257359  1
  Ti  Ti152  1  0.90404386  0.10173366  0.63016667  1
  Ti  Ti153  1  0.21190620  0.79086178  0.25022366  1
  Ti  Ti154  1  0.70332596  0.31008780  0.37211354  1
  Ti  Ti155  1  0.69724142  0.68912450  0.36667354  1
  Ti  Ti156  1  0.09243888  0.28936276  0.37575693  1
  Ti  Ti157  1  0.49895639  0.29603021  0.36909730  1
  Ti  Ti158  1  0.09664028  0.29874168  0.61300089  1
  Ti  Ti159  1  0.00813975  0.20126113  0.74591482  1
  Mo  Mo160  1  0.70032516  0.48822438  0.87770089  1
  Mo  Mo161  1  0.90540050  0.49755807  0.12167241  1
  Mo  Mo162  1  0.39667359  0.60825855  0.24325027  1
  Mo  Mo163  1  0.79923819  0.39979262  0.25534210  1
  Mo  Mo164  1  0.39838251  0.19856130  0.25286047  1
  Mo  Mo165  1  0.30721784  0.29309002  0.61465150  1
  Mo  Mo166  1  0.30175244  0.71525125  0.36636480  1
  Mo  Mo167  1  0.69202470  0.50088004  0.38306954  1
  Mo  Mo168  1  0.10656329  0.91145454  0.61947671  1
  Mo  Mo169  1  0.00437923  0.01418176  0.23711352  1
  Mo  Mo170  1  0.60477678  0.19474317  0.75673868  1
  Mo  Mo171  1  0.69492304  0.70273620  0.87759695  1
  Mo  Mo172  1  0.69884306  0.10384444  0.13239162  1
  Mo  Mo173  1  0.88905140  0.50535727  0.38347400  1
  Mo  Mo174  1  -0.01004449  0.80967847  0.75245127  1
  Mo  Mo175  1  0.63236929  0.78096816  0.00555366  1
  Mo  Mo176  1  0.39883412  -0.01163969  0.24024444  1
  Mo  Mo177  1  0.88726785  0.10942718  0.14411566  1
  Mo  Mo178  1  0.20023997  0.81235974  0.49693258  1
  Mo  Mo179  1  0.20214560  0.60836367  0.25346271  1
  Mo  Mo180  1  0.81058149  0.00262411  0.00012428  1
  Mo  Mo181  1  0.10034703  0.51333816  0.38950990  1
  Mo  Mo182  1  0.69794587  0.69712328  0.13684471  1
  Mo  Mo183  1  0.81005615  0.80813947  0.00583960  1
  Mo  Mo184  1  0.80515096  0.00955506  0.25124606  1
  Mo  Mo185  1  0.18411252  0.40367058  0.00317367  1
  Mo  Mo186  1  0.29844016  0.50076655  0.62774610  1
  Mo  Mo187  1  0.19596305  0.80367505  -0.00921381  1
  Mo  Mo188  1  0.79778967  0.78930929  0.26909953  1
  Mo  Mo189  1  0.72923572  0.48772073  0.12616877  1
  Mo  Mo190  1  0.80125524  0.38786680  0.75303951  1
  Mo  Mo191  1  0.39213758  0.59465663  -0.00466239  1
  Mo  Mo192  1  0.90607573  0.90924198  0.14675435  1
  Mo  Mo193  1  0.78780671  0.40031257  0.49194018  1
  Mo  Mo194  1  0.10581846  0.90758911  0.11498872  1
  Mo  Mo195  1  0.29231702  0.91231779  0.88448337  1
  Mo  Mo196  1  0.79785216  0.20621197  0.25519883  1
  Mo  Mo197  1  0.49719432  0.09189395  0.62138298  1
  Mo  Mo198  1  0.40700806  0.18962860  0.75346209  1
  Mo  Mo199  1  0.30630667  0.29575666  0.87733581  1
