# generated using pymatgen
data_HfZrTaTiMo
_symmetry_space_group_name_H-M   'P 1'
_cell_length_a   15.18686465
_cell_length_b   15.20246806
_cell_length_c   16.79883109
_cell_angle_alpha   89.99137170
_cell_angle_beta   89.99792370
_cell_angle_gamma   89.85648667
_symmetry_Int_Tables_number   1
_chemical_formula_structural   HfZrTaTiMo
_chemical_formula_sum   'Hf40 Zr40 Ta40 Ti40 Mo40'
_cell_volume   3878.46536749
_cell_formula_units_Z   40
loop_
 _symmetry_equiv_pos_site_id
 _symmetry_equiv_pos_as_xyz
  1  'x, y, z'
loop_
 _atom_site_type_symbol
 _atom_site_label
 _atom_site_symmetry_multiplicity
 _atom_site_fract_x
 _atom_site_fract_y
 _atom_site_fract_z
 _atom_site_occupancy
  Hf  Hf0  1  0.20564820  0.59913879  0.51089879  1
  Hf  Hf1  1  0.80193996  0.60477105  0.24026848  1
  Hf  Hf2  1  0.79473976  0.79172218  0.50223008  1
  Hf  Hf3  1  0.20771934  0.81296941  0.51642111  1
  Hf  Hf4  1  0.11763659  0.89140240  0.13663071  1
  Hf  Hf5  1  0.00645174  -0.00991961  -0.00270468  1
  Hf  Hf6  1  0.02287905  0.59573520  -0.01361865  1
  Hf  Hf7  1  0.59725133  0.78600638  0.49891182  1
  Hf  Hf8  1  0.90268580  0.50191659  0.61354238  1
  Hf  Hf9  1  0.01219729  0.00450472  0.74957497  1
  Hf  Hf10  1  0.48470893  0.29426156  0.87354890  1
  Hf  Hf11  1  0.80531544  0.58217259  0.77292457  1
  Hf  Hf12  1  0.29747186  0.49958642  0.87125403  1
  Hf  Hf13  1  0.88862533  0.51882945  0.38865846  1
  Hf  Hf14  1  0.49903610  0.70394605  0.11609789  1
  Hf  Hf15  1  0.70803464  0.52097514  0.10426417  1
  Hf  Hf16  1  0.48874699  0.28508980  0.37504082  1
  Hf  Hf17  1  0.59200397  0.39872735  -0.00467026  1
  Hf  Hf18  1  0.19181280  0.19598468  0.73424418  1
  Hf  Hf19  1  0.59414095  0.40886359  0.23004077  1
  Hf  Hf20  1  0.29677990  0.71609437  0.37425314  1
  Hf  Hf21  1  0.70134964  0.30053391  0.12658527  1
  Hf  Hf22  1  0.80832296  0.19307876  0.01972798  1
  Hf  Hf23  1  0.60211451  0.60501489  -0.02211733  1
  Hf  Hf24  1  0.80064415  0.78401565  0.01415750  1
  Hf  Hf25  1  0.69975723  0.10852384  0.61221716  1
  Hf  Hf26  1  0.40382448  0.40344861  0.50886252  1
  Hf  Hf27  1  0.41415294  0.60998054  0.50455994  1
  Hf  Hf28  1  0.29714291  0.69864934  0.86422858  1
  Hf  Hf29  1  0.91847458  0.71138618  0.87131068  1
  Hf  Hf30  1  0.91281051  0.90511751  0.62283194  1
  Hf  Hf31  1  0.70922611  0.28523274  0.88519420  1
  Hf  Hf32  1  0.51140538  0.69903226  0.64851873  1
  Hf  Hf33  1  0.70120226  0.88659519  0.63934011  1
  Hf  Hf34  1  0.91860439  0.30957430  0.14589722  1
  Hf  Hf35  1  0.60261511  0.40424269  0.77532901  1
  Hf  Hf36  1  0.52236349  0.50000410  0.37830347  1
  Hf  Hf37  1  0.79876145  0.79218635  0.24011484  1
  Hf  Hf38  1  0.58160591  -0.00680820  0.49494490  1
  Hf  Hf39  1  0.89214834  0.30637895  0.37365183  1
  Zr  Zr40  1  0.20235202  -0.00388460  0.73514360  1
  Zr  Zr41  1  0.21522328  0.00070992  0.25023566  1
  Zr  Zr42  1  0.70053027  0.89944147  0.86925215  1
  Zr  Zr43  1  0.89078015  0.30261401  0.60039341  1
  Zr  Zr44  1  0.69659243  0.09932469  0.88468412  1
  Zr  Zr45  1  0.68634588  0.10008991  0.37043854  1
  Zr  Zr46  1  0.90727376  0.09907649  0.14554357  1
  Zr  Zr47  1  0.29397930  0.29476930  0.37921521  1
  Zr  Zr48  1  0.51387626  0.30599435  0.63185731  1
  Zr  Zr49  1  0.18124576  0.79396536  -0.01505358  1
  Zr  Zr50  1  0.19089298  0.60341892  0.25724086  1
  Zr  Zr51  1  0.81805612  0.37639338  0.76094721  1
  Zr  Zr52  1  0.20737179  -0.00062503  -0.00804764  1
  Zr  Zr53  1  0.81360864  0.40069881  -0.00317151  1
  Zr  Zr54  1  0.58286749  0.18955709  0.23610884  1
  Zr  Zr55  1  0.91554010  0.89038018  0.13638093  1
  Zr  Zr56  1  0.38114097  -0.00004984  0.52251448  1
  Zr  Zr57  1  0.79827990  -0.00644500  0.48944027  1
  Zr  Zr58  1  0.90164102  0.70262171  0.63469353  1
  Zr  Zr59  1  0.10266838  0.11271103  0.87873772  1
  Zr  Zr60  1  0.40628616  0.60651284  0.24624252  1
  Zr  Zr61  1  0.69734522  0.49217722  0.63724175  1
  Zr  Zr62  1  0.40186344  0.00242760  0.00685224  1
  Zr  Zr63  1  0.49372494  0.89145745  0.64381262  1
  Zr  Zr64  1  0.59874895  -0.00169402  0.00973650  1
  Zr  Zr65  1  0.09038457  0.29536219  0.61017701  1
  Zr  Zr66  1  0.28577064  0.29438528  0.86719162  1
  Zr  Zr67  1  0.10340017  0.11178901  0.12649290  1
  Zr  Zr68  1  0.90412331  0.70835538  0.38321501  1
  Zr  Zr69  1  0.59292967  0.79798386  0.24896857  1
  Zr  Zr70  1  0.90003330  0.90210295  0.87220462  1
  Zr  Zr71  1  0.39254060  0.39755136  0.23710961  1
  Zr  Zr72  1  0.68573091  0.31295916  0.36397414  1
  Zr  Zr73  1  0.38956144  0.39925852  0.00985940  1
  Zr  Zr74  1  0.01879834  0.59172908  0.75596753  1
  Zr  Zr75  1  -0.02077360  0.20708346  0.74498613  1
  Zr  Zr76  1  0.80786387  0.02047133  0.74193064  1
  Zr  Zr77  1  0.09925081  0.48865163  0.13551541  1
  Zr  Zr78  1  0.59238222  0.01465445  0.74636586  1
  Zr  Zr79  1  0.30508422  0.50397675  0.37467739  1
  Ta  Ta80  1  0.31414883  0.10190164  0.37914690  1
  Ta  Ta81  1  0.11017934  0.89056539  0.37346472  1
  Ta  Ta82  1  0.49814131  0.50659929  0.63678661  1
  Ta  Ta83  1  0.38890206  0.81623575  0.24077677  1
  Ta  Ta84  1  0.79216645  -0.00530208  0.25527830  1
  Ta  Ta85  1  0.01639149  0.20707489  0.27334576  1
  Ta  Ta86  1  0.30940629  0.91026337  0.37768009  1
  Ta  Ta87  1  0.40628434  0.80506317  0.50234860  1
  Ta  Ta88  1  0.69795001  0.68046319  0.37748431  1
  Ta  Ta89  1  0.90920839  0.10584117  0.59921681  1
  Ta  Ta90  1  0.59704821  0.59309223  0.77556089  1
  Ta  Ta91  1  0.80409905  -0.00536018  0.01398130  1
  Ta  Ta92  1  0.69571762  0.88716244  0.36955041  1
  Ta  Ta93  1  0.00979344  0.38763466  0.00165179  1
  Ta  Ta94  1  0.49162053  0.10560659  0.87444439  1
  Ta  Ta95  1  0.90582406  0.90194574  0.36565754  1
  Ta  Ta96  1  0.19847045  0.40064993  0.49894802  1
  Ta  Ta97  1  0.70332425  0.69310497  0.65203743  1
  Ta  Ta98  1  0.31516983  0.70549868  0.63788711  1
  Ta  Ta99  1  0.27517463  0.30092674  0.12892098  1
  Ta  Ta100  1  0.28566514  0.71084659  0.12295328  1
  Ta  Ta101  1  0.41347339  0.00336577  0.24133679  1
  Ta  Ta102  1  0.38915277  0.19247677  0.23482166  1
  Ta  Ta103  1  0.40275641  0.19391190  0.51805844  1
  Ta  Ta104  1  0.89418673  0.10960107  0.88352414  1
  Ta  Ta105  1  0.08735390  0.69669077  0.12479548  1
  Ta  Ta106  1  0.18546572  0.79608532  0.74294400  1
  Ta  Ta107  1  0.49168360  0.71001512  0.86645787  1
  Ta  Ta108  1  0.39289799  0.80692238  -0.00146397  1
  Ta  Ta109  1  0.70889490  0.70736767  0.86545097  1
  Ta  Ta110  1  0.40067424  0.19441787  0.73365937  1
  Ta  Ta111  1  0.21052208  0.59272293  0.73091082  1
  Ta  Ta112  1  0.48893386  0.90438140  0.86489224  1
  Ta  Ta113  1  0.90198692  0.09847422  0.36950631  1
  Ta  Ta114  1  0.77445789  0.41365566  0.49139896  1
  Ta  Ta115  1  0.79368561  0.20275000  0.48331639  1
  Ta  Ta116  1  0.18982364  0.40679484  -0.00091520  1
  Ta  Ta117  1  0.80126129  0.41605685  0.24574724  1
  Ta  Ta118  1  0.59185828  0.80284042  -0.00685750  1
  Ta  Ta119  1  0.00658173  0.40983261  0.48039369  1
  Ti  Ti120  1  0.09426485  0.70289948  0.62030495  1
  Ti  Ti121  1  0.20564360  0.18846478  0.50701774  1
  Ti  Ti122  1  0.29687123  0.30665165  0.62419098  1
  Ti  Ti123  1  0.00495069  0.80918302  0.49786023  1
  Ti  Ti124  1  0.39508329  0.20148346  0.01420139  1
  Ti  Ti125  1  0.29794084  0.90065502  0.86209741  1
  Ti  Ti126  1  0.70326145  0.29935329  0.62116546  1
  Ti  Ti127  1  0.29740385  0.09972704  0.12247649  1
  Ti  Ti128  1  0.61950021  0.58596648  0.50871174  1
  Ti  Ti129  1  0.11442149  0.09100806  0.38562660  1
  Ti  Ti130  1  0.00350497  0.20555315  0.00252395  1
  Ti  Ti131  1  0.18808382  0.40443779  0.73839003  1
  Ti  Ti132  1  0.69281659  0.89313310  0.12685425  1
  Ti  Ti133  1  0.29217817  0.51242721  0.12187448  1
  Ti  Ti134  1  0.60576969  0.20182682  0.74975967  1
  Ti  Ti135  1  0.60750908  0.60367086  0.24109438  1
  Ti  Ti136  1  0.90801470  0.51333823  0.11407209  1
  Ti  Ti137  1  0.59316975  0.20448784  0.49889507  1
  Ti  Ti138  1  0.19783659  0.20031718  0.25830553  1
  Ti  Ti139  1  0.49587984  0.50721144  0.11524413  1
  Ti  Ti140  1  0.09644940  0.69245645  0.38936711  1
  Ti  Ti141  1  0.01143857  0.78742353  0.25689163  1
  Ti  Ti142  1  0.39208135  0.01082199  0.73880067  1
  Ti  Ti143  1  0.30774567  0.10454096  0.87126625  1
  Ti  Ti144  1  0.79948510  0.20112226  0.25293236  1
  Ti  Ti145  1  0.19588784  0.21387661  0.00136463  1
  Ti  Ti146  1  0.59169913  -0.00997578  0.24932032  1
  Ti  Ti147  1  0.00475609  0.40832493  0.27552078  1
  Ti  Ti148  1  0.01012083  0.00218192  0.26408893  1
  Ti  Ti149  1  0.39408804  0.60572590  -0.00294693  1
  Ti  Ti150  1  0.92434852  0.47864165  0.87702465  1
  Ti  Ti151  1  0.58432670  0.19605103  0.01609246  1
  Ti  Ti152  1  0.49825391  0.70803399  0.37002245  1
  Ti  Ti153  1  0.08680585  0.31660299  0.86433407  1
  Ti  Ti154  1  0.39292012  0.40876251  0.74306652  1
  Ti  Ti155  1  0.69988193  0.09064823  0.13316820  1
  Ti  Ti156  1  0.00422991  0.19484031  0.47892351  1
  Ti  Ti157  1  0.18527812  0.39100757  0.26522497  1
  Ti  Ti158  1  0.09774948  0.49730793  0.61629589  1
  Ti  Ti159  1  -0.00495793  0.59864202  0.25243729  1
  Mo  Mo160  1  0.69832213  0.50482324  0.36746725  1
  Mo  Mo161  1  0.09439457  0.88510101  0.86670241  1
  Mo  Mo162  1  0.30430014  0.89432698  0.12232804  1
  Mo  Mo163  1  0.48450989  0.09107248  0.37599560  1
  Mo  Mo164  1  0.79409243  0.19507670  0.74279633  1
  Mo  Mo165  1  0.79033130  0.60626279  0.51076653  1
  Mo  Mo166  1  0.49005563  0.89778539  0.37510002  1
  Mo  Mo167  1  0.10311604  0.29431272  0.38860655  1
  Mo  Mo168  1  0.90966947  0.68487755  0.11813474  1
  Mo  Mo169  1  0.29246615  0.11036435  0.62421907  1
  Mo  Mo170  1  0.09367245  0.89581188  0.61659438  1
  Mo  Mo171  1  0.11528113  0.49096474  0.86996768  1
  Mo  Mo172  1  0.19162733  0.00280716  0.50314971  1
  Mo  Mo173  1  0.70926231  0.49892462  0.88813100  1
  Mo  Mo174  1  0.08845120  0.09215302  0.60231890  1
  Mo  Mo175  1  0.11145391  0.69068248  0.86302216  1
  Mo  Mo176  1  0.81271687  0.59553584  -0.02406171  1
  Mo  Mo177  1  0.00342725  0.79720926  0.00423715  1
  Mo  Mo178  1  0.59639569  0.39822513  0.50481405  1
  Mo  Mo179  1  0.80510619  0.79895915  0.74826039  1
  Mo  Mo180  1  0.60092221  0.79917224  0.76830115  1
  Mo  Mo181  1  0.09874983  0.50420879  0.37902575  1
  Mo  Mo182  1  0.30144736  0.49610967  0.62692004  1
  Mo  Mo183  1  0.19868814  0.79684893  0.25593469  1
  Mo  Mo184  1  0.48812281  0.50418415  0.87417779  1
  Mo  Mo185  1  0.00882717  0.40027336  0.74401814  1
  Mo  Mo186  1  0.00550142  -0.00215048  0.48010263  1
  Mo  Mo187  1  0.09989986  0.29756574  0.13374873  1
  Mo  Mo188  1  0.49958199  0.89554225  0.12225974  1
  Mo  Mo189  1  0.29725937  0.89457329  0.63561156  1
  Mo  Mo190  1  0.38856308  0.80801345  0.75805984  1
  Mo  Mo191  1  0.00816786  0.60558985  0.50632160  1
  Mo  Mo192  1  0.50341653  0.10721154  0.62770263  1
  Mo  Mo193  1  0.48548872  0.29920449  0.11638476  1
  Mo  Mo194  1  0.01107753  0.80649096  0.74493680  1
  Mo  Mo195  1  0.49830779  0.10040209  0.12342714  1
  Mo  Mo196  1  0.91197806  0.28635373  0.88310620  1
  Mo  Mo197  1  0.40273679  0.59482095  0.75157544  1
  Mo  Mo198  1  0.69590001  0.70003000  0.11435339  1
  Mo  Mo199  1  0.21201343  0.59634451  0.00597335  1
