# generated using pymatgen
data_HfZrTaTiMo
_symmetry_space_group_name_H-M   'P 1'
_cell_length_a   15.20272989
_cell_length_b   15.20878340
_cell_length_c   16.87321131
_cell_angle_alpha   89.98961915
_cell_angle_beta   90.02176562
_cell_angle_gamma   89.73779462
_symmetry_Int_Tables_number   1
_chemical_formula_structural   HfZrTaTiMo
_chemical_formula_sum   'Hf40 Zr40 Ta40 Ti40 Mo40'
_cell_volume   3901.29879240
_cell_formula_units_Z   40
loop_
 _symmetry_equiv_pos_site_id
 _symmetry_equiv_pos_as_xyz
  1  'x, y, z'
loop_
 _atom_site_type_symbol
 _atom_site_label
 _atom_site_symmetry_multiplicity
 _atom_site_fract_x
 _atom_site_fract_y
 _atom_site_fract_z
 _atom_site_occupancy
  Hf  Hf0  1  0.47726251  0.70952186  0.38897210  1
  Hf  Hf1  1  0.00521554  0.21641254  0.00520566  1
  Hf  Hf2  1  0.91478195  0.11408385  0.63990775  1
  Hf  Hf3  1  -0.01868770  0.42043257  0.02173547  1
  Hf  Hf4  1  0.41896821  0.00566842  -0.00707303  1
  Hf  Hf5  1  0.11610072  0.09147180  0.12187700  1
  Hf  Hf6  1  0.78738003  0.39458660  0.02906185  1
  Hf  Hf7  1  0.28023428  0.50484451  0.87319303  1
  Hf  Hf8  1  0.70348275  0.68009071  0.61547570  1
  Hf  Hf9  1  0.91524356  0.89920157  0.37041054  1
  Hf  Hf10  1  0.08439251  0.28187181  0.61615429  1
  Hf  Hf11  1  0.80740185  0.59609598  0.00491606  1
  Hf  Hf12  1  0.21443485  -0.01596267  0.74932785  1
  Hf  Hf13  1  -0.02549370  0.38403539  0.49091528  1
  Hf  Hf14  1  0.91060650  0.90772248  0.62696877  1
  Hf  Hf15  1  0.18482088  0.39786796  0.50433731  1
  Hf  Hf16  1  0.59717436  0.80298092  0.73700212  1
  Hf  Hf17  1  -0.00018439  0.58564733  0.48848439  1
  Hf  Hf18  1  0.69939176  0.90811916  0.37631094  1
  Hf  Hf19  1  0.20871682  -0.01339955  -0.00305715  1
  Hf  Hf20  1  0.79863725  0.78992843  0.24993825  1
  Hf  Hf21  1  0.90137529  0.11119557  0.87217720  1
  Hf  Hf22  1  0.57573265  0.80413129  0.25858266  1
  Hf  Hf23  1  0.39120166  0.61067445  0.76063986  1
  Hf  Hf24  1  0.51584623  0.10708085  0.37591952  1
  Hf  Hf25  1  0.61830954  -0.00453038  -0.01212002  1
  Hf  Hf26  1  0.59449079  0.39156449  0.24041037  1
  Hf  Hf27  1  0.79028939  0.19330741  0.01700366  1
  Hf  Hf28  1  0.30151680  0.50091830  0.10793125  1
  Hf  Hf29  1  0.39662125  0.41396876  0.24880835  1
  Hf  Hf30  1  0.29831292  0.30974101  0.37881288  1
  Hf  Hf31  1  0.19306361  0.00795355  0.50099988  1
  Hf  Hf32  1  0.39997487  0.79636930  0.00704539  1
  Hf  Hf33  1  0.58612327  0.81768152  0.51089227  1
  Hf  Hf34  1  0.39940373  0.39930100  -0.01776542  1
  Hf  Hf35  1  0.20355514  0.19316997  0.24611561  1
  Hf  Hf36  1  0.12032441  0.88766442  0.62166081  1
  Hf  Hf37  1  0.18542152  0.19126020  0.75093955  1
  Hf  Hf38  1  0.32041615  0.09880754  0.12393596  1
  Hf  Hf39  1  0.81104193  -0.00720611  -0.00298936  1
  Zr  Zr40  1  0.01152427  0.78658221  0.74593862  1
  Zr  Zr41  1  0.80309185  0.80706322  0.50660158  1
  Zr  Zr42  1  0.49827222  0.89792474  0.12234807  1
  Zr  Zr43  1  0.30247139  0.09530627  0.87706169  1
  Zr  Zr44  1  0.80030204  0.79553698  0.00109943  1
  Zr  Zr45  1  0.29204070  0.50648134  0.64169840  1
  Zr  Zr46  1  0.18086715  0.39281625  0.75064918  1
  Zr  Zr47  1  0.31519408  0.88279317  0.87388538  1
  Zr  Zr48  1  0.01835764  0.01050683  0.76135924  1
  Zr  Zr49  1  0.89452310  0.32223766  0.87848660  1
  Zr  Zr50  1  0.00349144  0.60677296  0.26199455  1
  Zr  Zr51  1  0.00296872  0.16408199  0.48759134  1
  Zr  Zr52  1  0.69955890  0.89674512  0.13138326  1
  Zr  Zr53  1  0.40057130  0.20608232  0.49940736  1
  Zr  Zr54  1  0.41212818  -0.00926404  0.49575717  1
  Zr  Zr55  1  0.29683274  0.10308209  0.62470969  1
  Zr  Zr56  1  0.39282770  0.42303945  0.49973108  1
  Zr  Zr57  1  0.79720134  0.79258615  0.74374564  1
  Zr  Zr58  1  0.49642237  0.30345761  0.63082752  1
  Zr  Zr59  1  0.91118668  0.09549310  0.13749641  1
  Zr  Zr60  1  0.81786445  0.02256957  0.49466018  1
  Zr  Zr61  1  0.48715988  0.69480884  0.61813651  1
  Zr  Zr62  1  0.39844990  0.21010776  0.76188010  1
  Zr  Zr63  1  0.50245811  0.50281634  0.63632549  1
  Zr  Zr64  1  0.69572445  0.30615702  0.87867608  1
  Zr  Zr65  1  0.41180276  -0.00699282  0.25983411  1
  Zr  Zr66  1  0.20824088  0.59904737  0.49174789  1
  Zr  Zr67  1  0.52755019  0.11071160  0.13316055  1
  Zr  Zr68  1  0.09234091  0.28251041  0.36983023  1
  Zr  Zr69  1  0.67958628  0.52068337  0.12539159  1
  Zr  Zr70  1  0.59200922  0.60058927  0.26168527  1
  Zr  Zr71  1  0.30348302  0.88777824  0.36558176  1
  Zr  Zr72  1  0.49943859  0.70408440  0.87459411  1
  Zr  Zr73  1  0.20801190  0.60302345  0.25485405  1
  Zr  Zr74  1  0.00461858  -0.00731437  -0.00631198  1
  Zr  Zr75  1  0.51393679  0.09920863  0.62725148  1
  Zr  Zr76  1  0.71129319  0.30233753  0.37020246  1
  Zr  Zr77  1  0.07278903  0.50914707  0.87851714  1
  Zr  Zr78  1  0.69596236  0.69672472  0.39025247  1
  Zr  Zr79  1  0.19718095  0.40341103  0.24181932  1
  Ta  Ta80  1  0.70473109  0.10107395  0.86718464  1
  Ta  Ta81  1  0.40803015  0.20468563  -0.01312578  1
  Ta  Ta82  1  0.28106258  0.71208046  0.62788658  1
  Ta  Ta83  1  0.80351039  -0.00096778  0.75718608  1
  Ta  Ta84  1  0.42099491  -0.00397093  0.75232903  1
  Ta  Ta85  1  0.90925074  0.69400261  0.12909201  1
  Ta  Ta86  1  0.89983432  0.69702456  0.38170452  1
  Ta  Ta87  1  0.28877578  0.89646597  0.13489673  1
  Ta  Ta88  1  0.61234919  -0.00290577  0.75761101  1
  Ta  Ta89  1  0.50851485  0.30825241  0.37908550  1
  Ta  Ta90  1  0.28839302  0.69878619  0.11517103  1
  Ta  Ta91  1  0.00968787  0.79602108  0.50353319  1
  Ta  Ta92  1  0.18075934  0.39374074  0.00112128  1
  Ta  Ta93  1  0.61826128  0.59447046  0.75553555  1
  Ta  Ta94  1  0.90752795  0.68679931  0.61596755  1
  Ta  Ta95  1  0.59223897  0.20051248  -0.01101462  1
  Ta  Ta96  1  0.09955531  0.48857698  0.37156476  1
  Ta  Ta97  1  0.09628631  0.52645808  0.11644974  1
  Ta  Ta98  1  0.60896348  0.39720857  0.74808884  1
  Ta  Ta99  1  0.61980405  0.20642192  0.50404573  1
  Ta  Ta100  1  0.49017376  0.30401581  0.12036069  1
  Ta  Ta101  1  0.79931689  0.59570156  0.25283822  1
  Ta  Ta102  1  0.29104190  0.10325913  0.37462035  1
  Ta  Ta103  1  -0.00512360  0.40213400  0.23772243  1
  Ta  Ta104  1  0.60181230  0.39914770  0.50386350  1
  Ta  Ta105  1  0.71294557  0.10997047  0.63564401  1
  Ta  Ta106  1  -0.02505777  0.41389936  0.74663078  1
  Ta  Ta107  1  0.90424484  0.88763968  0.86775899  1
  Ta  Ta108  1  0.29886825  0.29401768  0.11194472  1
  Ta  Ta109  1  0.27936104  0.29669276  0.88525672  1
  Ta  Ta110  1  0.61595264  0.01264996  0.50074447  1
  Ta  Ta111  1  0.81206402  0.58524057  0.75170677  1
  Ta  Ta112  1  0.79696598  0.39894509  0.22815980  1
  Ta  Ta113  1  0.91053625  0.68506420  0.87364031  1
  Ta  Ta114  1  0.11083867  0.88277476  0.87526721  1
  Ta  Ta115  1  0.80666884  -0.00073085  0.24812933  1
  Ta  Ta116  1  0.40932153  0.21231935  0.25610422  1
  Ta  Ta117  1  0.58748305  0.40264042  0.00447128  1
  Ta  Ta118  1  0.17896398  0.80416810  0.24392224  1
  Ta  Ta119  1  0.50680472  0.68644328  0.11635661  1
  Ti  Ti120  1  0.00170220  0.22039059  0.76355052  1
  Ti  Ti121  1  0.91764709  0.09977254  0.34579466  1
  Ti  Ti122  1  0.89634318  0.28784437  0.34717417  1
  Ti  Ti123  1  0.70153353  0.91688560  0.62291503  1
  Ti  Ti124  1  0.10655313  0.90334123  0.38119187  1
  Ti  Ti125  1  0.88868873  0.48443798  0.36514371  1
  Ti  Ti126  1  0.10415957  0.69535161  0.87761477  1
  Ti  Ti127  1  0.70665921  0.49944201  0.88036581  1
  Ti  Ti128  1  0.40082150  0.60878304  0.24317359  1
  Ti  Ti129  1  0.61472247  0.01074591  0.25683693  1
  Ti  Ti130  1  0.59945288  0.19723523  0.75945048  1
  Ti  Ti131  1  0.02865030  -0.01471034  0.24577828  1
  Ti  Ti132  1  0.00733674  0.79391753  -0.00045230  1
  Ti  Ti133  1  0.09891325  0.30100409  0.12996461  1
  Ti  Ti134  1  0.79975991  0.58444948  0.49061054  1
  Ti  Ti135  1  0.80809704  0.21474997  0.50348112  1
  Ti  Ti136  1  0.48938782  0.50501941  0.38039424  1
  Ti  Ti137  1  0.09760730  0.71323700  0.37945703  1
  Ti  Ti138  1  0.88237654  0.30946793  0.63370852  1
  Ti  Ti139  1  0.40318613  0.59653575  -0.00871990  1
  Ti  Ti140  1  0.59345353  0.58631128  0.49752458  1
  Ti  Ti141  1  0.91959247  0.88861364  0.13629963  1
  Ti  Ti142  1  0.39419617  0.81222328  0.73594611  1
  Ti  Ti143  1  0.29280947  0.70145944  0.37458092  1
  Ti  Ti144  1  0.28319591  0.69942855  0.88359568  1
  Ti  Ti145  1  0.52032116  0.89331352  0.87682116  1
  Ti  Ti146  1  0.88875252  0.50188410  0.61900698  1
  Ti  Ti147  1  0.10921485  0.11537292  0.89155256  1
  Ti  Ti148  1  0.10026680  0.68539389  0.62217609  1
  Ti  Ti149  1  0.50711311  0.49445887  0.86301635  1
  Ti  Ti150  1  0.59986710  0.60571357  -0.01014774  1
  Ti  Ti151  1  0.08312812  0.49922302  0.63029856  1
  Ti  Ti152  1  0.69510821  0.49190527  0.37156293  1
  Ti  Ti153  1  0.78253133  0.40001582  0.50801745  1
  Ti  Ti154  1  0.29162249  0.30341803  0.62446600  1
  Ti  Ti155  1  0.79350333  0.21696248  0.75006955  1
  Ti  Ti156  1  0.70361223  0.70490452  0.87287962  1
  Ti  Ti157  1  0.71862375  0.11258576  0.37028358  1
  Ti  Ti158  1  0.78272328  0.19893832  0.22697370  1
  Ti  Ti159  1  0.37918171  0.80388238  0.51266709  1
  Mo  Mo160  1  0.09574626  0.09518190  0.62924482  1
  Mo  Mo161  1  0.39729104  0.60938411  0.49958477  1
  Mo  Mo162  1  0.00115784  0.19838354  0.24049592  1
  Mo  Mo163  1  0.10434662  0.08304516  0.35962701  1
  Mo  Mo164  1  0.48840181  0.50386840  0.11418049  1
  Mo  Mo165  1  0.60601560  0.78635669  -0.00061844  1
  Mo  Mo166  1  0.88397325  0.50338304  0.87977602  1
  Mo  Mo167  1  0.20688157  -0.00336179  0.25168195  1
  Mo  Mo168  1  0.30306665  0.51285256  0.37226071  1
  Mo  Mo169  1  0.78610089  0.40995178  0.74407158  1
  Mo  Mo170  1  0.49776035  0.30551959  0.86768677  1
  Mo  Mo171  1  0.20411420  0.20049670  0.49643890  1
  Mo  Mo172  1  0.70934080  0.89445065  0.86848894  1
  Mo  Mo173  1  0.00202260  -0.01299479  0.49860914  1
  Mo  Mo174  1  0.51150291  0.09996913  0.86800928  1
  Mo  Mo175  1  0.39868240  0.40132825  0.77370395  1
  Mo  Mo176  1  0.19421237  0.79622597  0.00356263  1
  Mo  Mo177  1  0.18438978  0.61029880  0.74759355  1
  Mo  Mo178  1  0.20756170  0.78535486  0.75428357  1
  Mo  Mo179  1  0.50696695  0.90595798  0.38081067  1
  Mo  Mo180  1  0.89971008  0.29752698  0.13909329  1
  Mo  Mo181  1  0.89754424  0.50868801  0.14000852  1
  Mo  Mo182  1  -0.00402528  0.61578573  0.00427925  1
  Mo  Mo183  1  0.20406073  0.20384424  0.00792504  1
  Mo  Mo184  1  0.67783094  0.28756090  0.12125272  1
  Mo  Mo185  1  0.69710947  0.29402875  0.62746690  1
  Mo  Mo186  1  0.19684712  0.79792951  0.49466379  1
  Mo  Mo187  1  0.59948226  0.20232727  0.25681077  1
  Mo  Mo188  1  0.19455291  0.60384877  0.00006876  1
  Mo  Mo189  1  0.31020554  0.89912475  0.62581819  1
  Mo  Mo190  1  -0.00260288  0.79903576  0.25523829  1
  Mo  Mo191  1  0.09276454  0.30546650  0.88164889  1
  Mo  Mo192  1  0.50610977  0.90687697  0.63076471  1
  Mo  Mo193  1  0.09904106  0.89258061  0.12026665  1
  Mo  Mo194  1  0.38332538  0.77916847  0.23533179  1
  Mo  Mo195  1  0.69457615  0.70418682  0.12505487  1
  Mo  Mo196  1  0.09771232  0.71319552  0.12245969  1
  Mo  Mo197  1  0.70339185  0.09167010  0.12738919  1
  Mo  Mo198  1  0.70102226  0.49611495  0.62139235  1
  Mo  Mo199  1  -0.00496145  0.59573770  0.74016803  1
