# generated using pymatgen
data_HfZrTaTiMo
_symmetry_space_group_name_H-M   'P 1'
_cell_length_a   15.20996000
_cell_length_b   15.21850695
_cell_length_c   16.87442634
_cell_angle_alpha   90.02730326
_cell_angle_beta   89.95266639
_cell_angle_gamma   89.90295646
_symmetry_Int_Tables_number   1
_chemical_formula_structural   HfZrTaTiMo
_chemical_formula_sum   'Hf40 Zr40 Ta40 Ti40 Mo40'
_cell_volume   3905.96471408
_cell_formula_units_Z   40
loop_
 _symmetry_equiv_pos_site_id
 _symmetry_equiv_pos_as_xyz
  1  'x, y, z'
loop_
 _atom_site_type_symbol
 _atom_site_label
 _atom_site_symmetry_multiplicity
 _atom_site_fract_x
 _atom_site_fract_y
 _atom_site_fract_z
 _atom_site_occupancy
  Hf  Hf0  1  -0.00259951  0.80719590  0.76259044  1
  Hf  Hf1  1  0.30050573  0.48555388  0.61979997  1
  Hf  Hf2  1  0.89194656  0.51609127  0.63204867  1
  Hf  Hf3  1  0.57573144  0.41378717  0.75032675  1
  Hf  Hf4  1  0.00618450  0.82940739  -0.00742966  1
  Hf  Hf5  1  0.50178754  0.69026297  0.13698803  1
  Hf  Hf6  1  0.09611045  0.10639841  0.13081777  1
  Hf  Hf7  1  0.19966857  0.80577303  0.73708489  1
  Hf  Hf8  1  0.70930004  0.10873844  0.11922008  1
  Hf  Hf9  1  0.59863797  0.79940125  0.74409254  1
  Hf  Hf10  1  0.20082354  0.59241548  0.49031998  1
  Hf  Hf11  1  0.60243218  0.01219955  0.75249408  1
  Hf  Hf12  1  0.38711283  0.00049673  0.00185676  1
  Hf  Hf13  1  0.70733580  0.90053636  0.37227117  1
  Hf  Hf14  1  0.21602429  0.20205452  0.73547509  1
  Hf  Hf15  1  -0.01917152  0.19147565  0.25894577  1
  Hf  Hf16  1  0.49920964  0.10851422  0.12691283  1
  Hf  Hf17  1  0.40351056  0.79854535  -0.00161187  1
  Hf  Hf18  1  0.11336634  0.90358081  0.38572057  1
  Hf  Hf19  1  0.60333922  0.80450292  0.49343184  1
  Hf  Hf20  1  0.19084854  0.39267760  0.49307484  1
  Hf  Hf21  1  0.81008569  0.78868250  0.50025556  1
  Hf  Hf22  1  0.31059414  0.70485354  0.13310957  1
  Hf  Hf23  1  0.09455764  0.70444434  0.37464738  1
  Hf  Hf24  1  -0.00981278  0.18303674  -0.01626468  1
  Hf  Hf25  1  0.70204405  0.10299076  0.37413545  1
  Hf  Hf26  1  0.81833192  0.79578477  0.24112451  1
  Hf  Hf27  1  0.89749423  0.69107799  0.89355668  1
  Hf  Hf28  1  0.20688344  0.60213286  0.25804772  1
  Hf  Hf29  1  0.87895608  0.51377448  0.37087798  1
  Hf  Hf30  1  0.31072100  0.10123185  0.38442018  1
  Hf  Hf31  1  0.30867372  0.68731035  0.62024936  1
  Hf  Hf32  1  0.59154433  0.59298327  0.00532762  1
  Hf  Hf33  1  0.29527037  0.30163245  0.87935773  1
  Hf  Hf34  1  0.57918213  0.39769704  0.49496264  1
  Hf  Hf35  1  0.21295549  0.81152383  0.25270731  1
  Hf  Hf36  1  0.40469263  0.80609067  0.48436240  1
  Hf  Hf37  1  0.49106981  0.30379036  0.87453209  1
  Hf  Hf38  1  0.69856659  0.91229509  0.62220789  1
  Hf  Hf39  1  -0.00599311  -0.00767696  0.25842779  1
  Zr  Zr40  1  0.40553137  -0.00988670  0.25865918  1
  Zr  Zr41  1  0.22176626  0.60423856  -0.00466217  1
  Zr  Zr42  1  -0.01433864  0.61062566  0.49776884  1
  Zr  Zr43  1  0.10233967  0.50885345  0.13363708  1
  Zr  Zr44  1  0.09136044  0.30691817  0.12552997  1
  Zr  Zr45  1  0.78459397  0.40370875  0.51337314  1
  Zr  Zr46  1  0.10686695  0.10750255  0.38205070  1
  Zr  Zr47  1  0.69705714  0.50237658  0.87444712  1
  Zr  Zr48  1  0.20608443  0.00768354  0.25118427  1
  Zr  Zr49  1  0.69607486  0.89835755  0.88252238  1
  Zr  Zr50  1  0.09499817  0.50139288  0.63653987  1
  Zr  Zr51  1  0.11037956  0.70850380  0.88154274  1
  Zr  Zr52  1  0.41839324  0.59181326  0.75857611  1
  Zr  Zr53  1  0.88366441  0.28567155  0.86579492  1
  Zr  Zr54  1  0.09353507  0.29811866  0.36778039  1
  Zr  Zr55  1  0.20286320  0.79693624  0.51366986  1
  Zr  Zr56  1  0.51219478  0.69345742  0.61324836  1
  Zr  Zr57  1  -0.00088960  0.20602222  0.51117977  1
  Zr  Zr58  1  0.00619409  0.18102524  0.74660665  1
  Zr  Zr59  1  -0.01534687  0.40115804  0.50189843  1
  Zr  Zr60  1  0.90673148  0.08640169  0.62486475  1
  Zr  Zr61  1  0.70066914  0.70192697  0.88659295  1
  Zr  Zr62  1  0.20705062  0.59143540  0.76319366  1
  Zr  Zr63  1  0.19705389  0.19688400  -0.00713304  1
  Zr  Zr64  1  0.79419290  0.39975877  0.73833358  1
  Zr  Zr65  1  0.49303289  0.48380408  0.13547726  1
  Zr  Zr66  1  0.89764777  0.49553972  0.10798217  1
  Zr  Zr67  1  -0.02020720  0.40088421  0.25422796  1
  Zr  Zr68  1  0.09029290  0.31354451  0.86181737  1
  Zr  Zr69  1  0.88142210  0.28774812  0.11502958  1
  Zr  Zr70  1  0.70163252  0.49204018  0.12520421  1
  Zr  Zr71  1  0.71096532  0.10690649  0.88528655  1
  Zr  Zr72  1  0.60675474  0.80143077  0.24941135  1
  Zr  Zr73  1  0.66110005  0.29066588  0.63384532  1
  Zr  Zr74  1  0.59484286  -0.00400284  0.00634851  1
  Zr  Zr75  1  0.40250667  0.80707701  0.74873225  1
  Zr  Zr76  1  0.91684262  0.69565502  0.10525837  1
  Zr  Zr77  1  0.30324813  0.30961402  0.12049054  1
  Zr  Zr78  1  0.90572378  0.89207280  0.62336848  1
  Zr  Zr79  1  0.79188176  0.20314405  0.51465530  1
  Ta  Ta80  1  0.71596270  0.68724924  0.36824472  1
  Ta  Ta81  1  0.20720039  0.20036614  0.52001676  1
  Ta  Ta82  1  0.49207728  0.49494830  0.61522922  1
  Ta  Ta83  1  0.00948498  0.80219306  0.24437928  1
  Ta  Ta84  1  0.68407242  0.30399496  0.37453796  1
  Ta  Ta85  1  0.10231818  0.90269235  0.12602315  1
  Ta  Ta86  1  0.20772266  0.39999299  0.25852687  1
  Ta  Ta87  1  0.37917958  0.39475671  0.74949661  1
  Ta  Ta88  1  0.21985304  0.00108978  0.51209403  1
  Ta  Ta89  1  0.78598435  0.18611915  0.73451803  1
  Ta  Ta90  1  0.71212163  0.90640670  0.12595202  1
  Ta  Ta91  1  0.71230420  0.69209939  0.11866485  1
  Ta  Ta92  1  0.49733951  0.10622874  0.87725793  1
  Ta  Ta93  1  -0.01372573  0.61324909  0.25201827  1
  Ta  Ta94  1  0.40313300  0.38975666  0.26288566  1
  Ta  Ta95  1  0.43263215  0.00379745  0.49255658  1
  Ta  Ta96  1  0.28764234  0.90799547  0.86852694  1
  Ta  Ta97  1  0.50864289  0.69902356  0.87899551  1
  Ta  Ta98  1  0.80207728  0.80812922  0.01194200  1
  Ta  Ta99  1  0.29710738  0.10138982  0.12657845  1
  Ta  Ta100  1  0.60130618  0.21258301  0.00113183  1
  Ta  Ta101  1  0.09278328  0.50185332  0.36485802  1
  Ta  Ta102  1  0.40686735  0.79596858  0.27327541  1
  Ta  Ta103  1  0.58383013  0.18771090  0.49136961  1
  Ta  Ta104  1  0.00205054  0.80236610  0.50387406  1
  Ta  Ta105  1  0.60540200  0.00640808  0.24547991  1
  Ta  Ta106  1  0.82786435  -0.00079757  -0.00533085  1
  Ta  Ta107  1  0.81661044  -0.00554491  0.76072884  1
  Ta  Ta108  1  0.68562042  0.29504688  0.86263260  1
  Ta  Ta109  1  0.29513231  0.29128168  0.37283347  1
  Ta  Ta110  1  0.18523748  0.41534396  -0.00688468  1
  Ta  Ta111  1  0.58677298  0.21203732  0.25356287  1
  Ta  Ta112  1  0.40465345  0.20382950  0.00303729  1
  Ta  Ta113  1  0.78806361  0.20076251  0.25433778  1
  Ta  Ta114  1  0.78409495  0.38342114  -0.01025836  1
  Ta  Ta115  1  0.19034611  -0.00270621  0.00032925  1
  Ta  Ta116  1  0.90870490  0.48603246  0.88103995  1
  Ta  Ta117  1  0.19979721  0.00626777  0.73551880  1
  Ta  Ta118  1  0.80207219  0.79727353  0.75223074  1
  Ta  Ta119  1  0.68653946  0.50113487  0.37162042  1
  Ti  Ti120  1  0.08326916  0.69993251  0.62998944  1
  Ti  Ti121  1  0.40432014  0.20659623  0.50411750  1
  Ti  Ti122  1  0.00428721  0.00321800  0.49319946  1
  Ti  Ti123  1  -0.00644886  0.60031754  0.76240047  1
  Ti  Ti124  1  0.09749358  0.30590246  0.63751669  1
  Ti  Ti125  1  0.49177519  0.90365183  0.87602344  1
  Ti  Ti126  1  0.70975299  0.69978873  0.62837890  1
  Ti  Ti127  1  0.80200775  0.00202499  0.49535666  1
  Ti  Ti128  1  0.41498811  0.20083749  0.73902346  1
  Ti  Ti129  1  0.09824843  0.91370684  0.61999945  1
  Ti  Ti130  1  0.10858457  0.70540604  0.12066791  1
  Ti  Ti131  1  0.39092559  0.42041291  -0.00637477  1
  Ti  Ti132  1  0.58677497  0.39532394  -0.00516394  1
  Ti  Ti133  1  0.78325586  0.60129116  0.50430861  1
  Ti  Ti134  1  0.30364514  0.09908865  0.86940177  1
  Ti  Ti135  1  0.38832096  0.39305516  0.48619230  1
  Ti  Ti136  1  0.21060179  0.81438520  0.00491138  1
  Ti  Ti137  1  0.51826749  0.10144503  0.62423817  1
  Ti  Ti138  1  0.60033714  0.80050118  0.01575111  1
  Ti  Ti139  1  0.90693695  0.89516512  0.38101926  1
  Ti  Ti140  1  0.30691673  0.50705606  0.13359877  1
  Ti  Ti141  1  0.79485790  0.60753366  0.75368035  1
  Ti  Ti142  1  0.02111443  0.57614193  -0.01173652  1
  Ti  Ti143  1  0.32099067  0.90566717  0.62163046  1
  Ti  Ti144  1  0.39264459  0.19940259  0.24947399  1
  Ti  Ti145  1  0.31326174  0.70459525  0.87537640  1
  Ti  Ti146  1  0.40236945  0.00478459  0.74935192  1
  Ti  Ti147  1  0.32180208  0.09749579  0.61931128  1
  Ti  Ti148  1  0.80646393  0.00444562  0.25210987  1
  Ti  Ti149  1  0.49207614  0.89472452  0.13206732  1
  Ti  Ti150  1  0.67972055  0.30272720  0.12888497  1
  Ti  Ti151  1  0.78366522  0.39545704  0.25303560  1
  Ti  Ti152  1  0.51774465  0.68570152  0.37358111  1
  Ti  Ti153  1  0.41054283  0.58767759  0.48564018  1
  Ti  Ti154  1  0.49506076  0.49643768  0.36366251  1
  Ti  Ti155  1  0.87783496  0.29122120  0.37840113  1
  Ti  Ti156  1  0.67708510  0.51860857  0.62848495  1
  Ti  Ti157  1  0.31051091  0.69003133  0.37587816  1
  Ti  Ti158  1  0.89925158  0.08813210  0.12271347  1
  Ti  Ti159  1  0.60884546  0.59128191  0.24824865  1
  Mo  Mo160  1  0.60785587  0.00439289  0.49806373  1
  Mo  Mo161  1  0.90382502  0.90850865  0.12788401  1
  Mo  Mo162  1  0.09658132  0.50023109  0.86645136  1
  Mo  Mo163  1  0.90698516  0.08867548  0.86632819  1
  Mo  Mo164  1  0.49569744  0.91520487  0.62343048  1
  Mo  Mo165  1  0.89737669  0.89933194  0.87325912  1
  Mo  Mo166  1  0.79212697  0.19839459  -0.00085386  1
  Mo  Mo167  1  0.89980299  0.70939252  0.37047568  1
  Mo  Mo168  1  0.49177950  0.50347132  0.88149938  1
  Mo  Mo169  1  0.11182489  0.09368245  0.61355912  1
  Mo  Mo170  1  0.89183751  0.09110205  0.38252850  1
  Mo  Mo171  1  0.30315905  0.90046535  0.12342367  1
  Mo  Mo172  1  0.30275041  0.29705658  0.61978401  1
  Mo  Mo173  1  0.49620575  0.29973108  0.11926624  1
  Mo  Mo174  1  0.51281661  0.90186825  0.36933132  1
  Mo  Mo175  1  0.19848119  0.39635188  0.74831917  1
  Mo  Mo176  1  0.01521335  -0.00773271  0.75203632  1
  Mo  Mo177  1  0.48692093  0.28986429  0.37601317  1
  Mo  Mo178  1  0.11811396  0.08751170  0.86853160  1
  Mo  Mo179  1  0.89816277  0.69762127  0.63846271  1
  Mo  Mo180  1  -0.00199728  0.39429259  -0.00443444  1
  Mo  Mo181  1  0.40503446  0.59834595  0.26581983  1
  Mo  Mo182  1  0.90227480  0.30327727  0.64570168  1
  Mo  Mo183  1  0.29999749  0.49339771  0.87607205  1
  Mo  Mo184  1  0.01004799  0.00578981  0.00050091  1
  Mo  Mo185  1  0.21135450  0.20866346  0.24613355  1
  Mo  Mo186  1  0.40486073  0.60135223  -0.00631635  1
  Mo  Mo187  1  0.10943865  0.91425275  0.86795343  1
  Mo  Mo188  1  0.60226690  0.59406355  0.48923484  1
  Mo  Mo189  1  0.59721002  0.39374238  0.25875146  1
  Mo  Mo190  1  0.30049375  0.49397184  0.37414170  1
  Mo  Mo191  1  -0.00799535  0.40349760  0.74249539  1
  Mo  Mo192  1  0.70043445  0.09400483  0.62351379  1
  Mo  Mo193  1  0.80338311  0.59294650  -0.00416876  1
  Mo  Mo194  1  0.50752985  0.10395207  0.36500771  1
  Mo  Mo195  1  0.60554923  0.60503986  0.74826114  1
  Mo  Mo196  1  0.47605155  0.30083740  0.62215130  1
  Mo  Mo197  1  0.59031869  0.19964907  0.75455164  1
  Mo  Mo198  1  0.79819434  0.60069523  0.24536973  1
  Mo  Mo199  1  0.30642175  0.89990326  0.38847137  1
