# generated using pymatgen
data_HfZrTaTiMo
_symmetry_space_group_name_H-M   'P 1'
_cell_length_a   15.21752556
_cell_length_b   15.20520088
_cell_length_c   16.81875899
_cell_angle_alpha   89.97767828
_cell_angle_beta   89.97699730
_cell_angle_gamma   90.08770680
_symmetry_Int_Tables_number   1
_chemical_formula_structural   HfZrTaTiMo
_chemical_formula_sum   'Hf40 Zr40 Ta40 Ti40 Mo40'
_cell_volume   3891.61234507
_cell_formula_units_Z   40
loop_
 _symmetry_equiv_pos_site_id
 _symmetry_equiv_pos_as_xyz
  1  'x, y, z'
loop_
 _atom_site_type_symbol
 _atom_site_label
 _atom_site_symmetry_multiplicity
 _atom_site_fract_x
 _atom_site_fract_y
 _atom_site_fract_z
 _atom_site_occupancy
  Hf  Hf0  1  0.60202030  0.80292260  -0.01888513  1
  Hf  Hf1  1  0.88504971  0.30900959  0.87286473  1
  Hf  Hf2  1  0.78157043  0.19700151  0.75193674  1
  Hf  Hf3  1  0.39829334  0.38746125  0.74732509  1
  Hf  Hf4  1  0.19743399  0.59500560  0.01918890  1
  Hf  Hf5  1  0.61078442  0.79142837  0.25997818  1
  Hf  Hf6  1  0.10385145  0.31496542  0.61621383  1
  Hf  Hf7  1  0.49124064  0.09858822  0.35545893  1
  Hf  Hf8  1  0.30631342  0.09829191  0.87656188  1
  Hf  Hf9  1  0.00098355  -0.02406576  0.00642971  1
  Hf  Hf10  1  0.31060524  0.10146063  0.62065642  1
  Hf  Hf11  1  0.28892005  0.68839400  0.61847121  1
  Hf  Hf12  1  0.00894725  0.20650610  0.75140656  1
  Hf  Hf13  1  0.48039492  0.89825599  0.36448354  1
  Hf  Hf14  1  0.39014652  0.39847005  0.48926877  1
  Hf  Hf15  1  0.60046107  0.80578026  0.49261631  1
  Hf  Hf16  1  0.60099267  0.59776679  0.49823036  1
  Hf  Hf17  1  0.01645824  0.61179787  0.48333556  1
  Hf  Hf18  1  0.09885395  0.50347468  0.88468105  1
  Hf  Hf19  1  0.59540130  0.00631691  -0.00080081  1
  Hf  Hf20  1  0.80347724  0.59667344  0.50793391  1
  Hf  Hf21  1  0.80829675  0.80812385  0.00007195  1
  Hf  Hf22  1  0.59959500  0.19849067  0.49047174  1
  Hf  Hf23  1  0.36936013  0.79019271  0.24131483  1
  Hf  Hf24  1  -0.00757731  0.41162938  0.75101765  1
  Hf  Hf25  1  -0.00224742  0.20269467  -0.00774482  1
  Hf  Hf26  1  0.60572218  0.61237192  0.75762744  1
  Hf  Hf27  1  0.71578925  0.31323669  0.37968942  1
  Hf  Hf28  1  0.31158530  0.49372330  0.13031504  1
  Hf  Hf29  1  0.48898609  0.31690501  0.13284714  1
  Hf  Hf30  1  0.89331194  0.09093254  0.86538597  1
  Hf  Hf31  1  0.02270387  -0.00718614  0.73923852  1
  Hf  Hf32  1  0.70180573  0.09318094  0.62160144  1
  Hf  Hf33  1  0.29311876  0.49716028  0.88083215  1
  Hf  Hf34  1  0.49448893  0.29896354  0.37214310  1
  Hf  Hf35  1  0.47904283  0.70015625  0.38515532  1
  Hf  Hf36  1  0.81966839  -0.00630072  0.49747379  1
  Hf  Hf37  1  0.09188166  0.89990588  0.38785309  1
  Hf  Hf38  1  0.20212192  0.80355369  0.02386910  1
  Hf  Hf39  1  0.11144838  0.09286935  0.87706133  1
  Zr  Zr40  1  0.49770476  0.90255549  0.13716879  1
  Zr  Zr41  1  0.72658756  0.10237147  0.37089551  1
  Zr  Zr42  1  0.78788199  0.78493385  0.73698379  1
  Zr  Zr43  1  0.70696083  0.91754174  0.85639670  1
  Zr  Zr44  1  0.29188808  0.90123047  0.61037505  1
  Zr  Zr45  1  0.18892194  0.18773713  0.25671055  1
  Zr  Zr46  1  0.59461649  0.60548680  -0.02398164  1
  Zr  Zr47  1  0.19503575  0.39973095  0.75024986  1
  Zr  Zr48  1  0.69213907  0.30648305  0.62212982  1
  Zr  Zr49  1  0.67497787  0.50959390  0.11920229  1
  Zr  Zr50  1  0.61161681  0.21175557  0.24323054  1
  Zr  Zr51  1  0.90817160  0.70504216  0.88164767  1
  Zr  Zr52  1  0.49802126  0.49735439  0.62777833  1
  Zr  Zr53  1  0.90530703  0.72326000  0.37551557  1
  Zr  Zr54  1  0.39552083  0.60066537  0.75123717  1
  Zr  Zr55  1  0.81256956  0.58871272  0.74668430  1
  Zr  Zr56  1  0.79151840  0.60776466  0.00410960  1
  Zr  Zr57  1  0.79699761  0.00164991  -0.00073072  1
  Zr  Zr58  1  0.59296943  0.41256326  0.26092103  1
  Zr  Zr59  1  -0.00444453  0.59907558  0.25627001  1
  Zr  Zr60  1  -0.00613227  0.19710065  0.50307544  1
  Zr  Zr61  1  0.61737172  -0.01014537  0.26102593  1
  Zr  Zr62  1  0.60757959  -0.00414330  0.48466826  1
  Zr  Zr63  1  0.90583514  0.50437507  0.89392717  1
  Zr  Zr64  1  0.00159459  0.78603516  0.73406175  1
  Zr  Zr65  1  0.30403585  0.29467110  0.88771340  1
  Zr  Zr66  1  0.11769843  0.09677222  0.61449093  1
  Zr  Zr67  1  0.00043451  0.41012059  0.48828223  1
  Zr  Zr68  1  0.51175856  0.11863012  0.87453082  1
  Zr  Zr69  1  0.50404558  0.68872713  0.12580061  1
  Zr  Zr70  1  0.91163730  0.10257739  0.12074148  1
  Zr  Zr71  1  0.79809376  0.40316559  0.23276680  1
  Zr  Zr72  1  0.82848976  0.20500777  0.24306092  1
  Zr  Zr73  1  0.91341415  0.50429387  0.11854758  1
  Zr  Zr74  1  0.59287760  0.59666972  0.26891841  1
  Zr  Zr75  1  0.28591522  0.70391296  0.87477526  1
  Zr  Zr76  1  0.70343835  0.09066707  0.13610290  1
  Zr  Zr77  1  0.39656701  0.80408968  0.75055568  1
  Zr  Zr78  1  0.01184310  0.01729395  0.25302424  1
  Zr  Zr79  1  0.10015434  0.88538248  0.88049242  1
  Ta  Ta80  1  0.40107196  -0.00234806  0.00214948  1
  Ta  Ta81  1  0.40134034  -0.00292540  0.49389975  1
  Ta  Ta82  1  0.38272597  0.20571470  0.24921065  1
  Ta  Ta83  1  0.28834875  0.88513857  0.38667959  1
  Ta  Ta84  1  0.49051069  0.10185678  0.13991529  1
  Ta  Ta85  1  0.59843541  0.40792470  0.49065476  1
  Ta  Ta86  1  0.29824439  0.29539796  0.61698418  1
  Ta  Ta87  1  -0.00032670  0.82040260  0.23568640  1
  Ta  Ta88  1  0.71241926  0.69706989  0.38149663  1
  Ta  Ta89  1  0.49954279  0.71190338  0.61558113  1
  Ta  Ta90  1  0.58440483  0.80619969  0.76098473  1
  Ta  Ta91  1  0.50278054  0.09692288  0.62226330  1
  Ta  Ta92  1  0.10405006  0.69639328  0.14338422  1
  Ta  Ta93  1  0.10080173  0.52529668  0.62488386  1
  Ta  Ta94  1  0.28652966  0.49227793  0.62168091  1
  Ta  Ta95  1  0.49824512  0.48929164  0.86780842  1
  Ta  Ta96  1  0.40367657  0.80237729  -0.00484705  1
  Ta  Ta97  1  0.40540749  -0.00070359  0.75083455  1
  Ta  Ta98  1  0.00090982  0.38583497  0.25445387  1
  Ta  Ta99  1  0.88464149  0.49847524  0.36804250  1
  Ta  Ta100  1  0.79537958  0.79747676  0.51942870  1
  Ta  Ta101  1  0.40192583  0.60210339  -0.00640503  1
  Ta  Ta102  1  0.68743427  0.89782207  0.63521988  1
  Ta  Ta103  1  0.20978841  0.19702289  0.74835286  1
  Ta  Ta104  1  0.90580480  0.49206167  0.62129882  1
  Ta  Ta105  1  0.10997884  0.10248715  0.11726419  1
  Ta  Ta106  1  0.20760294  -0.00051190  0.01217794  1
  Ta  Ta107  1  0.70483353  0.48202463  0.86971134  1
  Ta  Ta108  1  0.59147649  0.39855732  -0.00512921  1
  Ta  Ta109  1  0.78951837  0.61096937  0.24342934  1
  Ta  Ta110  1  0.78883981  0.39002248  0.01237064  1
  Ta  Ta111  1  0.79055228  0.20322553  0.00060900  1
  Ta  Ta112  1  0.29520207  0.90705810  0.87543472  1
  Ta  Ta113  1  0.89248360  0.30382229  0.63101418  1
  Ta  Ta114  1  0.60100423  0.20898618  0.01761288  1
  Ta  Ta115  1  0.28804742  0.29713097  0.12224418  1
  Ta  Ta116  1  0.49199930  0.29030089  0.61308622  1
  Ta  Ta117  1  0.09580225  0.69273668  0.88338867  1
  Ta  Ta118  1  0.67917298  0.28972446  0.87519714  1
  Ta  Ta119  1  0.19061142  0.80689406  0.73928676  1
  Ti  Ti120  1  0.20954059  -0.02126386  0.24135866  1
  Ti  Ti121  1  0.80374630  0.80242648  0.24516940  1
  Ti  Ti122  1  0.91228216  0.68448071  0.62060724  1
  Ti  Ti123  1  0.09338268  0.29676388  0.12833438  1
  Ti  Ti124  1  0.20662722  0.39135581  0.25886929  1
  Ti  Ti125  1  0.39629775  0.19298417  0.48925227  1
  Ti  Ti126  1  0.49676997  0.90547168  0.61934443  1
  Ti  Ti127  1  0.28629023  0.68863184  0.38106614  1
  Ti  Ti128  1  0.90410227  0.10086607  0.63537249  1
  Ti  Ti129  1  0.40081043  0.40214685  0.00008427  1
  Ti  Ti130  1  0.30468277  0.09553026  0.12825130  1
  Ti  Ti131  1  0.10372503  0.30085082  0.37653975  1
  Ti  Ti132  1  0.70244547  0.49752226  0.63273649  1
  Ti  Ti133  1  0.20107603  0.20212040  0.00548307  1
  Ti  Ti134  1  0.39182379  0.40399643  0.26763612  1
  Ti  Ti135  1  0.59834412  0.01271215  0.75231238  1
  Ti  Ti136  1  0.21062497  0.20750083  0.48730346  1
  Ti  Ti137  1  0.20024805  0.41263613  0.48565354  1
  Ti  Ti138  1  0.09691637  0.09741773  0.39314034  1
  Ti  Ti139  1  0.80001909  0.40316320  0.50262870  1
  Ti  Ti140  1  0.39428998  0.59033199  0.25824048  1
  Ti  Ti141  1  0.90691451  0.29284680  0.37723048  1
  Ti  Ti142  1  0.40687966  0.19908879  0.01235888  1
  Ti  Ti143  1  0.38698866  0.59289852  0.49846812  1
  Ti  Ti144  1  0.80586233  0.20156340  0.50557096  1
  Ti  Ti145  1  -0.01097683  0.81416224  0.51643052  1
  Ti  Ti146  1  0.11325710  0.70887455  0.35046064  1
  Ti  Ti147  1  0.00958273  0.39784288  0.00878344  1
  Ti  Ti148  1  0.10698518  0.30352601  0.88116452  1
  Ti  Ti149  1  0.59720439  0.38534779  0.75261418  1
  Ti  Ti150  1  0.11025257  0.48876879  0.13988200  1
  Ti  Ti151  1  0.89997612  0.70848230  0.12555699  1
  Ti  Ti152  1  0.89508120  0.90784444  0.63518271  1
  Ti  Ti153  1  0.82213012  -0.01611631  0.26168188  1
  Ti  Ti154  1  0.29516255  0.08489761  0.37318143  1
  Ti  Ti155  1  0.90385935  0.89884814  0.85690050  1
  Ti  Ti156  1  0.70536430  0.88733957  0.12619406  1
  Ti  Ti157  1  0.11333929  0.50749281  0.35838316  1
  Ti  Ti158  1  0.18519610  0.78297009  0.50205802  1
  Ti  Ti159  1  0.40947929  0.20004373  0.74608426  1
  Mo  Mo160  1  0.10207921  0.90671371  0.12917145  1
  Mo  Mo161  1  0.00801898  0.60784849  0.01930814  1
  Mo  Mo162  1  0.00598229  0.78540673  0.02399056  1
  Mo  Mo163  1  0.79135393  0.39925060  0.74801096  1
  Mo  Mo164  1  0.71010135  0.50512843  0.38040645  1
  Mo  Mo165  1  0.19266356  0.80259241  0.24317259  1
  Mo  Mo166  1  0.21201843  0.60227411  0.24249842  1
  Mo  Mo167  1  0.91612520  0.10097695  0.37930512  1
  Mo  Mo168  1  0.10063285  0.89959232  0.60704064  1
  Mo  Mo169  1  0.68999506  0.70210478  0.62031566  1
  Mo  Mo170  1  0.58539602  0.20211716  0.74002337  1
  Mo  Mo171  1  0.29276063  0.29183572  0.37555880  1
  Mo  Mo172  1  0.48777757  0.50397092  0.12115371  1
  Mo  Mo173  1  0.49073362  0.50300835  0.38747950  1
  Mo  Mo174  1  0.70050813  0.11006217  0.87482861  1
  Mo  Mo175  1  0.49172147  0.70338904  0.87495358  1
  Mo  Mo176  1  0.80447310  -0.00082374  0.73844030  1
  Mo  Mo177  1  0.70475101  0.70964899  0.12835111  1
  Mo  Mo178  1  0.29614254  0.50140979  0.36717736  1
  Mo  Mo179  1  0.69790622  0.30186291  0.11799757  1
  Mo  Mo180  1  0.18423299  0.61051701  0.75024550  1
  Mo  Mo181  1  0.01162769  0.20948728  0.25679110  1
  Mo  Mo182  1  0.00266414  -0.00255257  0.51512710  1
  Mo  Mo183  1  0.19423221  0.38953572  0.01207929  1
  Mo  Mo184  1  0.30870233  0.69508871  0.11952287  1
  Mo  Mo185  1  0.49728026  0.30627230  0.88218159  1
  Mo  Mo186  1  0.90916793  0.30414081  0.11320357  1
  Mo  Mo187  1  0.21434242  -0.00632558  0.75137566  1
  Mo  Mo188  1  0.89568668  0.89913003  0.13072125  1
  Mo  Mo189  1  0.10113128  0.70619083  0.61787264  1
  Mo  Mo190  1  0.19944831  0.59134947  0.49029224  1
  Mo  Mo191  1  0.38296088  0.00307304  0.25069282  1
  Mo  Mo192  1  0.69930565  0.70138270  0.86782199  1
  Mo  Mo193  1  0.39455619  0.79703893  0.50168999  1
  Mo  Mo194  1  0.20730995  0.00431493  0.48678658  1
  Mo  Mo195  1  0.72871311  0.88034267  0.37647410  1
  Mo  Mo196  1  0.90275018  0.90244704  0.37919419  1
  Mo  Mo197  1  0.48791325  0.91117231  0.87271469  1
  Mo  Mo198  1  0.30645030  0.90587860  0.11939638  1
  Mo  Mo199  1  0.00966395  0.59954022  0.74878476  1
