# generated using pymatgen
data_HfZrTaTiMo
_symmetry_space_group_name_H-M   'P 1'
_cell_length_a   15.17481365
_cell_length_b   15.17783166
_cell_length_c   16.84341203
_cell_angle_alpha   89.89810878
_cell_angle_beta   90.01347178
_cell_angle_gamma   89.94728583
_symmetry_Int_Tables_number   1
_chemical_formula_structural   HfZrTaTiMo
_chemical_formula_sum   'Hf40 Zr40 Ta40 Ti40 Mo40'
_cell_volume   3879.37969403
_cell_formula_units_Z   40
loop_
 _symmetry_equiv_pos_site_id
 _symmetry_equiv_pos_as_xyz
  1  'x, y, z'
loop_
 _atom_site_type_symbol
 _atom_site_label
 _atom_site_symmetry_multiplicity
 _atom_site_fract_x
 _atom_site_fract_y
 _atom_site_fract_z
 _atom_site_occupancy
  Hf  Hf0  1  0.40177146  0.01396625  0.50758666  1
  Hf  Hf1  1  0.09172152  0.50474746  0.12794368  1
  Hf  Hf2  1  0.32159169  0.31353288  0.37559788  1
  Hf  Hf3  1  0.58289451  -0.01642078  0.23992029  1
  Hf  Hf4  1  0.49852382  0.50999109  0.86722598  1
  Hf  Hf5  1  0.80312632  0.59933611  0.74069268  1
  Hf  Hf6  1  0.69296447  0.87747273  0.36893116  1
  Hf  Hf7  1  0.69232107  0.28206556  0.62063808  1
  Hf  Hf8  1  0.19499225  0.40966525  0.74835450  1
  Hf  Hf9  1  0.38077321  0.00925873  0.25220689  1
  Hf  Hf10  1  0.68997867  0.90903405  0.88990093  1
  Hf  Hf11  1  0.60414183  0.57964015  0.24940011  1
  Hf  Hf12  1  0.79222745  -0.02054926  0.50278606  1
  Hf  Hf13  1  0.39608855  0.61192826  0.50986809  1
  Hf  Hf14  1  0.22030022  0.19009205  0.25796869  1
  Hf  Hf15  1  0.40296039  0.42240017  0.72806447  1
  Hf  Hf16  1  0.79411226  -0.01688823  0.22797388  1
  Hf  Hf17  1  0.69634041  0.69568817  0.88019507  1
  Hf  Hf18  1  0.42028478  0.40644684  0.01141016  1
  Hf  Hf19  1  0.41229057  0.62214077  0.25241939  1
  Hf  Hf20  1  0.80101857  0.18755144  0.50031255  1
  Hf  Hf21  1  0.91155583  0.68880550  0.12621150  1
  Hf  Hf22  1  0.29379746  0.91528290  0.11580139  1
  Hf  Hf23  1  0.70032723  0.08792851  0.36073964  1
  Hf  Hf24  1  0.00329743  0.77293630  0.75490938  1
  Hf  Hf25  1  0.69965348  0.49203749  0.87121775  1
  Hf  Hf26  1  0.20345838  0.40624205  0.25275553  1
  Hf  Hf27  1  -0.00713915  0.79778442  0.49711334  1
  Hf  Hf28  1  0.50360299  0.30848828  0.87446283  1
  Hf  Hf29  1  0.18159968  -0.00573080  0.25262635  1
  Hf  Hf30  1  0.81152420  0.19134474  0.23660685  1
  Hf  Hf31  1  0.52205079  0.10447715  0.87304480  1
  Hf  Hf32  1  0.69916252  0.31754733  0.14121735  1
  Hf  Hf33  1  0.77819194  -0.01973152  0.74521895  1
  Hf  Hf34  1  0.80900099  0.41049039  0.00353922  1
  Hf  Hf35  1  0.11057219  0.29919656  0.62636880  1
  Hf  Hf36  1  0.30762715  0.71593123  0.11637277  1
  Hf  Hf37  1  0.80540856  0.59337744  0.50223074  1
  Hf  Hf38  1  0.28270116  0.52689445  0.62885759  1
  Hf  Hf39  1  0.20482340  0.60322954  0.25261482  1
  Zr  Zr40  1  0.39409229  0.81148854  -0.01768424  1
  Zr  Zr41  1  0.00433891  0.19188547  0.50367470  1
  Zr  Zr42  1  0.80593501  0.80037339  0.01365225  1
  Zr  Zr43  1  -0.00531928  0.40625123  0.49653999  1
  Zr  Zr44  1  0.41100471  0.41981823  0.24035624  1
  Zr  Zr45  1  0.29268647  0.10836727  0.63523699  1
  Zr  Zr46  1  0.29484460  0.90709603  0.63968945  1
  Zr  Zr47  1  0.30562693  0.31385517  0.88049114  1
  Zr  Zr48  1  0.30280445  0.51617533  0.11238494  1
  Zr  Zr49  1  0.31463680  0.70280216  0.37866890  1
  Zr  Zr50  1  0.69838803  0.67975882  0.11694642  1
  Zr  Zr51  1  0.29820524  0.90653746  0.38199612  1
  Zr  Zr52  1  0.89521838  0.28982147  0.87286370  1
  Zr  Zr53  1  0.21205745  0.20147466  0.49312209  1
  Zr  Zr54  1  0.09532902  0.09429270  0.87863770  1
  Zr  Zr55  1  0.00201994  0.80571276  0.25258346  1
  Zr  Zr56  1  -0.01015097  0.00202228  0.25171382  1
  Zr  Zr57  1  -0.00106249  0.58300376  -0.00176543  1
  Zr  Zr58  1  0.78200750  0.17790578  0.75010699  1
  Zr  Zr59  1  0.41060314  0.21903629  0.73568910  1
  Zr  Zr60  1  0.09564700  0.30906158  0.87384272  1
  Zr  Zr61  1  0.79886817  0.39185384  0.74144289  1
  Zr  Zr62  1  -0.00226328  0.20430728  0.00615090  1
  Zr  Zr63  1  0.79368958  0.19980237  0.01712848  1
  Zr  Zr64  1  -0.00011796  0.19009821  0.74832877  1
  Zr  Zr65  1  0.10179469  0.30239081  0.36998116  1
  Zr  Zr66  1  0.89870174  0.89587754  0.87662423  1
  Zr  Zr67  1  0.90020884  0.68566816  0.88069898  1
  Zr  Zr68  1  0.90231880  0.08323034  0.62838778  1
  Zr  Zr69  1  0.88654389  0.87084085  0.63331215  1
  Zr  Zr70  1  0.41476899  0.21678202  0.51532382  1
  Zr  Zr71  1  0.41018190  0.81022190  0.51433547  1
  Zr  Zr72  1  0.89019394  0.70079517  0.37191521  1
  Zr  Zr73  1  0.69814805  0.48264667  0.38766763  1
  Zr  Zr74  1  0.30675535  0.28886744  0.11946731  1
  Zr  Zr75  1  0.20429311  0.00111576  -0.01221578  1
  Zr  Zr76  1  0.89312341  0.30075950  0.36849066  1
  Zr  Zr77  1  0.49275401  0.10922773  0.36612404  1
  Zr  Zr78  1  0.11022311  0.10256446  0.11741873  1
  Zr  Zr79  1  0.20582341  0.80299070  0.24930532  1
  Ta  Ta80  1  0.79054272  0.78868539  0.23735663  1
  Ta  Ta81  1  0.01105743  0.59900101  0.49247506  1
  Ta  Ta82  1  0.70739885  0.70930914  0.62309318  1
  Ta  Ta83  1  0.59654825  0.39503293  0.73620640  1
  Ta  Ta84  1  0.19725885  0.79679596  0.50435606  1
  Ta  Ta85  1  0.90382931  0.30079807  0.62755266  1
  Ta  Ta86  1  0.69650141  0.28739875  0.36282738  1
  Ta  Ta87  1  0.09839076  0.09274897  0.37753111  1
  Ta  Ta88  1  0.51447885  0.31192862  0.36691142  1
  Ta  Ta89  1  -0.00957784  0.41746862  0.25748516  1
  Ta  Ta90  1  0.59045024  0.20788427  0.01165121  1
  Ta  Ta91  1  0.91244025  0.67660142  0.62311070  1
  Ta  Ta92  1  0.60513799  0.19238200  0.49330903  1
  Ta  Ta93  1  0.11004394  0.70419098  0.11241437  1
  Ta  Ta94  1  0.79095284  0.00286578  0.01901320  1
  Ta  Ta95  1  0.01226126  -0.02089912  0.75396930  1
  Ta  Ta96  1  0.29926996  0.91424615  0.85816808  1
  Ta  Ta97  1  0.09749697  0.89565571  0.62499276  1
  Ta  Ta98  1  0.58719782  0.79305488  -0.00277047  1
  Ta  Ta99  1  0.08116776  0.89629534  0.10283227  1
  Ta  Ta100  1  0.50842216  0.29741409  0.14025584  1
  Ta  Ta101  1  0.40094651  0.41323239  0.51734031  1
  Ta  Ta102  1  0.91133169  0.48509789  0.86432683  1
  Ta  Ta103  1  0.81009860  0.57786198  0.25454226  1
  Ta  Ta104  1  0.69054082  0.28845600  0.87937134  1
  Ta  Ta105  1  0.51574241  0.91394823  0.63679108  1
  Ta  Ta106  1  -0.00061867  -0.00789701  0.49538328  1
  Ta  Ta107  1  0.61397039  0.80885913  0.74939445  1
  Ta  Ta108  1  0.19116732  -0.00256228  0.49812360  1
  Ta  Ta109  1  0.69281614  0.49815132  0.61768630  1
  Ta  Ta110  1  0.19182085  0.40976550  0.00020829  1
  Ta  Ta111  1  0.31550470  0.10846043  0.87033481  1
  Ta  Ta112  1  0.49023392  0.50660871  0.38826383  1
  Ta  Ta113  1  0.20521547  0.41936523  0.49928439  1
  Ta  Ta114  1  0.47534805  0.10362360  0.12266353  1
  Ta  Ta115  1  0.10226280  0.30720916  0.12916231  1
  Ta  Ta116  1  0.40962183  0.00966753  0.74980639  1
  Ta  Ta117  1  0.50313922  0.70384511  0.86203932  1
  Ta  Ta118  1  0.18844160  0.61659084  0.76167171  1
  Ta  Ta119  1  0.18612959  0.81361041  0.76512705  1
  Ti  Ti120  1  0.48584280  0.89157506  0.11765631  1
  Ti  Ti121  1  0.40543099  0.80586936  0.75270128  1
  Ti  Ti122  1  0.52435958  0.10998874  0.63477316  1
  Ti  Ti123  1  0.58573608  0.78215136  0.24467331  1
  Ti  Ti124  1  0.10790426  0.69587672  0.62178841  1
  Ti  Ti125  1  0.50155825  0.70675859  0.63996327  1
  Ti  Ti126  1  0.40778085  0.61126742  -0.00901701  1
  Ti  Ti127  1  0.49612090  0.88480194  0.37160194  1
  Ti  Ti128  1  0.59507930  -0.00399749  0.49607353  1
  Ti  Ti129  1  0.09780404  0.50288439  0.87256067  1
  Ti  Ti130  1  0.91094941  0.08649432  0.11775742  1
  Ti  Ti131  1  0.10443703  0.08639361  0.63119796  1
  Ti  Ti132  1  0.30506650  0.70292306  0.86358180  1
  Ti  Ti133  1  0.79768934  0.39003674  0.50792167  1
  Ti  Ti134  1  0.91107563  0.31822593  0.13511719  1
  Ti  Ti135  1  0.89009785  0.89921556  0.37329375  1
  Ti  Ti136  1  0.20445792  0.60754952  -0.01347372  1
  Ti  Ti137  1  0.68210828  0.88691073  0.11824186  1
  Ti  Ti138  1  0.10830329  0.70769017  0.37994421  1
  Ti  Ti139  1  0.30147536  0.51152627  0.87229087  1
  Ti  Ti140  1  0.29330345  0.71587603  0.64182957  1
  Ti  Ti141  1  0.19389559  0.79922164  -0.02186481  1
  Ti  Ti142  1  0.08188598  0.50919200  0.62863663  1
  Ti  Ti143  1  0.89915064  0.09622638  0.37324897  1
  Ti  Ti144  1  0.60402483  0.79874127  0.50648867  1
  Ti  Ti145  1  0.59346552  0.60398345  0.50885154  1
  Ti  Ti146  1  0.60181924  0.57859976  0.00215931  1
  Ti  Ti147  1  0.59063310  0.39452992  0.50889686  1
  Ti  Ti148  1  0.00663441  0.60320437  0.26085079  1
  Ti  Ti149  1  0.49903417  0.90619429  0.86852532  1
  Ti  Ti150  1  0.10890426  0.50963464  0.37757394  1
  Ti  Ti151  1  0.50150676  0.69525341  0.11436647  1
  Ti  Ti152  1  0.21047381  0.20618936  -0.00448029  1
  Ti  Ti153  1  0.00956767  0.20091632  0.24566542  1
  Ti  Ti154  1  0.58663217  0.00147452  0.01236839  1
  Ti  Ti155  1  0.88515407  0.08681248  0.88248455  1
  Ti  Ti156  1  0.69027621  0.69000247  0.37629274  1
  Ti  Ti157  1  0.20459862  0.20106863  0.75642724  1
  Ti  Ti158  1  0.67673079  0.10499712  0.13416321  1
  Ti  Ti159  1  0.59494176  0.59902688  0.73794980  1
  Mo  Mo160  1  0.68792114  0.89101009  0.61741140  1
  Mo  Mo161  1  0.10708387  0.69257143  0.88296459  1
  Mo  Mo162  1  0.19544823  0.00690294  0.76021321  1
  Mo  Mo163  1  0.40593942  0.00746285  -0.01191258  1
  Mo  Mo164  1  0.68669535  0.07974718  0.61425863  1
  Mo  Mo165  1  0.79775923  0.59041298  -0.00493534  1
  Mo  Mo166  1  0.51465785  0.50603467  0.11813387  1
  Mo  Mo167  1  0.40564776  0.20511894  0.25345959  1
  Mo  Mo168  1  0.60120049  0.00566411  0.75421451  1
  Mo  Mo169  1  0.50813829  0.30885666  0.62157320  1
  Mo  Mo170  1  0.19242236  0.60877180  0.50096141  1
  Mo  Mo171  1  0.30311057  0.50441241  0.38435020  1
  Mo  Mo172  1  0.50580848  0.51635559  0.61950682  1
  Mo  Mo173  1  0.40405929  0.19601617  -0.00348801  1
  Mo  Mo174  1  0.29465882  0.31943911  0.62111642  1
  Mo  Mo175  1  0.79432642  0.78734492  0.75315146  1
  Mo  Mo176  1  0.51868190  0.70512040  0.38014506  1
  Mo  Mo177  1  0.80103377  0.40137423  0.25422673  1
  Mo  Mo178  1  0.79080951  0.78623035  0.49474186  1
  Mo  Mo179  1  0.29998579  0.10369663  0.11610880  1
  Mo  Mo180  1  0.90668468  0.50190649  0.37725811  1
  Mo  Mo181  1  0.60730436  0.39476757  0.00011311  1
  Mo  Mo182  1  0.09367230  0.89309167  0.88495451  1
  Mo  Mo183  1  0.60724824  0.20380995  0.75129552  1
  Mo  Mo184  1  0.39660057  0.61738186  0.74937621  1
  Mo  Mo185  1  0.89742353  0.49385382  0.62261683  1
  Mo  Mo186  1  0.00726899  0.39563206  0.00535161  1
  Mo  Mo187  1  0.00570943  0.58240091  0.75090464  1
  Mo  Mo188  1  0.41703634  0.81437258  0.24330133  1
  Mo  Mo189  1  0.60164147  0.40311318  0.25771545  1
  Mo  Mo190  1  0.00752569  0.79286015  -0.00184330  1
  Mo  Mo191  1  0.89605522  0.49836163  0.13203582  1
  Mo  Mo192  1  0.59792778  0.19536692  0.24482122  1
  Mo  Mo193  1  0.89397791  0.89331396  0.12297134  1
  Mo  Mo194  1  -0.01647748  -0.00554355  -0.00095197  1
  Mo  Mo195  1  0.70275565  0.09850497  0.89452626  1
  Mo  Mo196  1  -0.00055893  0.40096511  0.74071598  1
  Mo  Mo197  1  0.09312872  0.89719552  0.38731788  1
  Mo  Mo198  1  0.29401411  0.10409894  0.38457811  1
  Mo  Mo199  1  0.70821605  0.49954996  0.12345322  1
