# generated using pymatgen
data_HfZrTaTiMo
_symmetry_space_group_name_H-M   'P 1'
_cell_length_a   15.19681700
_cell_length_b   15.21124201
_cell_length_c   16.86065686
_cell_angle_alpha   90.05347170
_cell_angle_beta   90.09975163
_cell_angle_gamma   89.88150833
_symmetry_Int_Tables_number   1
_chemical_formula_structural   HfZrTaTiMo
_chemical_formula_sum   'Hf40 Zr40 Ta40 Ti40 Mo40'
_cell_volume   3897.53500876
_cell_formula_units_Z   40
loop_
 _symmetry_equiv_pos_site_id
 _symmetry_equiv_pos_as_xyz
  1  'x, y, z'
loop_
 _atom_site_type_symbol
 _atom_site_label
 _atom_site_symmetry_multiplicity
 _atom_site_fract_x
 _atom_site_fract_y
 _atom_site_fract_z
 _atom_site_occupancy
  Hf  Hf0  1  0.08136555  0.10705023  0.12288647  1
  Hf  Hf1  1  0.11014688  0.70926598  0.12847108  1
  Hf  Hf2  1  0.49852484  0.09203757  0.62090824  1
  Hf  Hf3  1  0.49701528  0.29267463  0.13023935  1
  Hf  Hf4  1  0.28664027  0.50716664  0.88116209  1
  Hf  Hf5  1  0.69228563  0.28978508  0.61165230  1
  Hf  Hf6  1  0.89634525  0.70164526  0.61437506  1
  Hf  Hf7  1  0.40088950  0.39144094  0.74970613  1
  Hf  Hf8  1  0.00059394  0.79287758  0.74987448  1
  Hf  Hf9  1  0.69115565  0.28857168  0.38209380  1
  Hf  Hf10  1  0.09969266  0.31316503  0.86450189  1
  Hf  Hf11  1  0.62423530  -0.01040651  0.75117043  1
  Hf  Hf12  1  0.60857775  0.39644835  -0.00012344  1
  Hf  Hf13  1  0.22122925  0.81928845  0.49653944  1
  Hf  Hf14  1  0.30283448  0.70734265  0.62302240  1
  Hf  Hf15  1  0.58434599  0.79296515  0.49760841  1
  Hf  Hf16  1  0.39823195  0.40237820  0.24918199  1
  Hf  Hf17  1  0.50408043  0.49571853  0.62307120  1
  Hf  Hf18  1  0.29473893  0.11983927  0.12238358  1
  Hf  Hf19  1  -0.00149157  0.39083310  0.26617525  1
  Hf  Hf20  1  0.81692803  0.18375953  0.25091068  1
  Hf  Hf21  1  0.10437354  0.89417726  0.87575478  1
  Hf  Hf22  1  0.78612810  -0.00947953  0.24157956  1
  Hf  Hf23  1  0.19677016  0.41690971  0.48411859  1
  Hf  Hf24  1  0.09461863  0.50886465  0.14415809  1
  Hf  Hf25  1  0.29465193  0.50240570  0.61541150  1
  Hf  Hf26  1  0.09478967  0.70270359  0.60406097  1
  Hf  Hf27  1  0.30342519  0.90927958  0.63464576  1
  Hf  Hf28  1  -0.00931110  0.21276940  0.75435729  1
  Hf  Hf29  1  0.50236743  0.49616640  0.87928300  1
  Hf  Hf30  1  0.60966129  0.59965994  0.49939775  1
  Hf  Hf31  1  0.09809665  0.31855273  0.61764479  1
  Hf  Hf32  1  0.91587534  0.27248835  0.38813553  1
  Hf  Hf33  1  0.89671485  0.90120941  0.11396184  1
  Hf  Hf34  1  0.38566403  0.19731619  0.26001776  1
  Hf  Hf35  1  0.00590494  0.81242525  0.24242400  1
  Hf  Hf36  1  0.30089038  0.70408960  0.11470246  1
  Hf  Hf37  1  0.42299008  0.80433540  0.00291108  1
  Hf  Hf38  1  0.49837134  0.69582065  0.63646145  1
  Hf  Hf39  1  0.20224180  0.01142819  -0.00923196  1
  Zr  Zr40  1  0.89789512  0.30548799  0.61746945  1
  Zr  Zr41  1  0.50167060  0.08705738  0.38191903  1
  Zr  Zr42  1  -0.00557451  0.00428458  -0.01338256  1
  Zr  Zr43  1  0.10166896  0.92634548  0.38677133  1
  Zr  Zr44  1  0.90916054  0.69239999  0.38026958  1
  Zr  Zr45  1  -0.00586260  0.21047258  -0.01718145  1
  Zr  Zr46  1  0.10261537  0.72662583  0.37724207  1
  Zr  Zr47  1  0.60529363  0.18253697  0.01104103  1
  Zr  Zr48  1  0.19122681  0.40889393  -0.00168790  1
  Zr  Zr49  1  0.78850480  0.39288305  0.26532503  1
  Zr  Zr50  1  0.19184378  0.01054523  0.25054761  1
  Zr  Zr51  1  0.51990719  0.91346570  0.12822433  1
  Zr  Zr52  1  0.79399843  0.59928044  0.00301619  1
  Zr  Zr53  1  0.89759281  0.89737002  0.37377888  1
  Zr  Zr54  1  0.48910049  0.29275414  0.60429381  1
  Zr  Zr55  1  0.61067386  0.39080465  0.75566295  1
  Zr  Zr56  1  0.50073496  0.29470846  0.38436932  1
  Zr  Zr57  1  0.90753320  0.29264579  0.12670024  1
  Zr  Zr58  1  0.38970500  0.59749409  0.75576897  1
  Zr  Zr59  1  0.87977207  0.89227153  0.88019987  1
  Zr  Zr60  1  0.29495803  0.70890357  0.89273897  1
  Zr  Zr61  1  0.60403235  0.17481718  0.23660451  1
  Zr  Zr62  1  0.20852670  0.41107275  0.27141750  1
  Zr  Zr63  1  0.51596789  0.69760003  0.87419710  1
  Zr  Zr64  1  0.80004161  0.59342059  0.25407454  1
  Zr  Zr65  1  -0.00064278  0.59735260  0.01004184  1
  Zr  Zr66  1  0.86286222  0.10181584  0.88085593  1
  Zr  Zr67  1  0.80886370  0.59838141  0.75243576  1
  Zr  Zr68  1  0.39715054  0.39404099  0.00914647  1
  Zr  Zr69  1  0.19851430  0.40691153  0.74414248  1
  Zr  Zr70  1  0.50924521  0.50057044  0.36605720  1
  Zr  Zr71  1  0.70964968  0.08737770  0.38427728  1
  Zr  Zr72  1  0.11807194  0.30366555  0.12606509  1
  Zr  Zr73  1  0.10362069  0.10853430  0.62424490  1
  Zr  Zr74  1  0.80342507  0.40413018  0.48581439  1
  Zr  Zr75  1  0.78280102  0.19203004  0.74359225  1
  Zr  Zr76  1  0.30040169  0.90830075  0.11861857  1
  Zr  Zr77  1  0.60300323  -0.01532391  0.50539471  1
  Zr  Zr78  1  0.09605114  0.90796764  0.62000511  1
  Zr  Zr79  1  0.40390366  0.00278807  0.76031314  1
  Ta  Ta80  1  0.50407376  0.10044547  0.87349002  1
  Ta  Ta81  1  0.39366625  -0.02576885  0.49675648  1
  Ta  Ta82  1  0.80266059  0.59161002  0.49399780  1
  Ta  Ta83  1  -0.00887335  0.40750393  -0.00382565  1
  Ta  Ta84  1  0.10310922  0.90392387  0.11550496  1
  Ta  Ta85  1  0.59859939  0.60461747  0.01555564  1
  Ta  Ta86  1  -0.00696460  0.00454980  0.75859631  1
  Ta  Ta87  1  0.89485523  0.49110600  0.13111318  1
  Ta  Ta88  1  0.18849327  0.21148731  0.26824378  1
  Ta  Ta89  1  0.31518703  0.71294769  0.36868900  1
  Ta  Ta90  1  0.29325591  0.50584172  0.12508758  1
  Ta  Ta91  1  0.00077329  0.79555867  0.00183370  1
  Ta  Ta92  1  0.19922945  0.00484053  0.76116138  1
  Ta  Ta93  1  0.78418345  0.80764871  0.74490973  1
  Ta  Ta94  1  0.40267521  0.79958489  0.23849743  1
  Ta  Ta95  1  0.18006553  0.61061575  0.74405814  1
  Ta  Ta96  1  0.10466712  0.69905662  0.88350608  1
  Ta  Ta97  1  0.09073054  0.12677638  0.39397513  1
  Ta  Ta98  1  0.80789648  -0.02001857  0.50711549  1
  Ta  Ta99  1  0.40085850  0.60428900  0.49093980  1
  Ta  Ta100  1  0.71437455  0.49617270  0.62784194  1
  Ta  Ta101  1  0.80455033  0.39092037  -0.00992882  1
  Ta  Ta102  1  0.60347265  0.40647987  0.49974109  1
  Ta  Ta103  1  0.63107485  0.79816047  0.01071454  1
  Ta  Ta104  1  0.50054091  0.28795926  0.87847563  1
  Ta  Ta105  1  0.08460936  0.52653563  0.36462336  1
  Ta  Ta106  1  0.40528843  0.00489285  0.24819520  1
  Ta  Ta107  1  0.81210648  0.39640288  0.76230086  1
  Ta  Ta108  1  0.40229165  0.60559157  0.24099846  1
  Ta  Ta109  1  0.38378407  0.17418904  0.49328408  1
  Ta  Ta110  1  0.29989787  0.29814705  0.39471199  1
  Ta  Ta111  1  0.20286070  0.60879263  0.48263276  1
  Ta  Ta112  1  0.68930817  0.88331559  0.36640260  1
  Ta  Ta113  1  0.40311479  0.80441879  0.76288865  1
  Ta  Ta114  1  0.90804270  0.69164118  0.87465529  1
  Ta  Ta115  1  0.50335044  0.88656547  0.63679291  1
  Ta  Ta116  1  0.39748377  0.20141575  0.74863765  1
  Ta  Ta117  1  0.30477365  0.29590018  0.87409484  1
  Ta  Ta118  1  0.08116228  0.51460822  0.86783952  1
  Ta  Ta119  1  0.78410078  0.79383718  0.50000842  1
  Ti  Ti120  1  0.60451902  0.78769747  0.23610761  1
  Ti  Ti121  1  0.51928480  0.89493200  0.87258125  1
  Ti  Ti122  1  0.87565031  0.09879508  0.10371689  1
  Ti  Ti123  1  0.30425666  0.90422654  0.36122418  1
  Ti  Ti124  1  0.69666225  0.69918130  0.62840482  1
  Ti  Ti125  1  0.89487697  0.90084585  0.63010378  1
  Ti  Ti126  1  0.70936705  0.29318279  0.12633627  1
  Ti  Ti127  1  0.80846312  0.17723432  0.50375613  1
  Ti  Ti128  1  0.59091397  0.19343146  0.75098199  1
  Ti  Ti129  1  0.41202688  0.01152642  -0.00491213  1
  Ti  Ti130  1  0.69948371  0.48858110  0.12642647  1
  Ti  Ti131  1  0.20944007  0.61859386  0.26166667  1
  Ti  Ti132  1  0.70301180  0.50466467  0.87709511  1
  Ti  Ti133  1  0.50285321  0.50082067  0.12947387  1
  Ti  Ti134  1  0.00088351  0.41914704  0.48677444  1
  Ti  Ti135  1  0.70504890  0.28012499  0.87962593  1
  Ti  Ti136  1  0.60573754  -0.00837401  -0.00783772  1
  Ti  Ti137  1  0.29728583  0.10319745  0.62594389  1
  Ti  Ti138  1  0.30444491  0.10946679  0.87423077  1
  Ti  Ti139  1  0.70822003  0.71120182  0.87445647  1
  Ti  Ti140  1  0.60358878  0.59347018  0.23760075  1
  Ti  Ti141  1  0.90088426  0.09476574  0.63176206  1
  Ti  Ti142  1  -0.00906103  0.01436357  0.50319666  1
  Ti  Ti143  1  0.91985258  0.50421868  0.62469761  1
  Ti  Ti144  1  0.29812944  0.29608786  0.60475597  1
  Ti  Ti145  1  0.20566363  0.80256944  0.75199113  1
  Ti  Ti146  1  0.30614144  0.90398863  0.88187097  1
  Ti  Ti147  1  0.10312652  0.10776606  0.86520434  1
  Ti  Ti148  1  0.50254287  0.70014697  0.36322728  1
  Ti  Ti149  1  0.61144539  0.59736411  0.74957121  1
  Ti  Ti150  1  0.39909486  0.19809087  0.00061929  1
  Ti  Ti151  1  -0.01358186  0.02362656  0.25309413  1
  Ti  Ti152  1  0.40576606  0.59596203  0.00985788  1
  Ti  Ti153  1  0.20387110  0.20960074  -0.00789453  1
  Ti  Ti154  1  0.89822786  0.69691186  0.12972737  1
  Ti  Ti155  1  0.69579633  0.69193867  0.36931951  1
  Ti  Ti156  1  0.70509408  0.08459265  0.61691558  1
  Ti  Ti157  1  0.79551374  0.79077254  0.24560256  1
  Ti  Ti158  1  0.49457709  0.88612274  0.36200707  1
  Ti  Ti159  1  0.20845445  0.20379462  0.74889150  1
  Mo  Mo160  1  0.89371883  0.30628374  0.87395337  1
  Mo  Mo161  1  0.60256576  0.79217555  0.75164039  1
  Mo  Mo162  1  0.59523791  -0.01700871  0.25815273  1
  Mo  Mo163  1  0.80724855  -0.00427291  0.73844963  1
  Mo  Mo164  1  0.78799512  0.20284474  0.00695265  1
  Mo  Mo165  1  0.00210636  0.60373855  0.74702525  1
  Mo  Mo166  1  0.00916085  0.19245818  0.25212950  1
  Mo  Mo167  1  0.21159058  0.80965326  0.25259982  1
  Mo  Mo168  1  0.00160556  0.59903054  0.49805769  1
  Mo  Mo169  1  0.77345955  -0.00793022  0.00891421  1
  Mo  Mo170  1  0.29536853  0.30394687  0.12971514  1
  Mo  Mo171  1  0.68641795  0.09393721  0.87359760  1
  Mo  Mo172  1  0.19701390  0.60030364  0.00476951  1
  Mo  Mo173  1  0.80770541  0.78643333  0.00380678  1
  Mo  Mo174  1  -0.00633292  0.41869705  0.74795251  1
  Mo  Mo175  1  0.50490952  0.69571551  0.12532784  1
  Mo  Mo176  1  0.30582959  0.51861576  0.37529829  1
  Mo  Mo177  1  0.39820391  0.40404815  0.49555917  1
  Mo  Mo178  1  0.28980504  0.09120217  0.37625091  1
  Mo  Mo179  1  -0.02473625  0.82236203  0.50734468  1
  Mo  Mo180  1  0.70152818  0.89534166  0.87900450  1
  Mo  Mo181  1  0.10115182  0.30813466  0.38947731  1
  Mo  Mo182  1  0.90012566  0.49851667  0.37522698  1
  Mo  Mo183  1  0.70298283  0.69082101  0.13219532  1
  Mo  Mo184  1  0.68981454  0.07795739  0.12456543  1
  Mo  Mo185  1  0.70772651  0.88624929  0.13066118  1
  Mo  Mo186  1  0.19968405  0.80822407  -0.00317128  1
  Mo  Mo187  1  0.48642600  0.09159073  0.12309438  1
  Mo  Mo188  1  0.19968255  0.20603442  0.50231613  1
  Mo  Mo189  1  0.90626765  0.08520795  0.38262248  1
  Mo  Mo190  1  0.60209873  0.19211691  0.50582694  1
  Mo  Mo191  1  0.60385964  0.39613258  0.23482693  1
  Mo  Mo192  1  0.69252518  0.50269658  0.37373887  1
  Mo  Mo193  1  0.70445176  0.88664009  0.62130164  1
  Mo  Mo194  1  0.09558344  0.51362490  0.61497157  1
  Mo  Mo195  1  0.21763191  0.02080472  0.49688597  1
  Mo  Mo196  1  0.89670979  0.49967322  0.87657789  1
  Mo  Mo197  1  -0.00284027  0.60390147  0.24131928  1
  Mo  Mo198  1  -0.00522026  0.20315958  0.51718698  1
  Mo  Mo199  1  0.40754909  0.79608751  0.49559129  1
