# generated using pymatgen
data_HfZrTaTiMo
_symmetry_space_group_name_H-M   'P 1'
_cell_length_a   15.21313021
_cell_length_b   15.19761493
_cell_length_c   16.85159818
_cell_angle_alpha   89.98505890
_cell_angle_beta   90.05575937
_cell_angle_gamma   89.96836415
_symmetry_Int_Tables_number   1
_chemical_formula_structural   HfZrTaTiMo
_chemical_formula_sum   'Hf40 Zr40 Ta40 Ti40 Mo40'
_cell_volume   3896.14244938
_cell_formula_units_Z   40
loop_
 _symmetry_equiv_pos_site_id
 _symmetry_equiv_pos_as_xyz
  1  'x, y, z'
loop_
 _atom_site_type_symbol
 _atom_site_label
 _atom_site_symmetry_multiplicity
 _atom_site_fract_x
 _atom_site_fract_y
 _atom_site_fract_z
 _atom_site_occupancy
  Hf  Hf0  1  0.69514861  0.12320017  0.12913159  1
  Hf  Hf1  1  0.00497644  -0.00322139  0.24204218  1
  Hf  Hf2  1  0.80895680  0.79598488  -0.00015103  1
  Hf  Hf3  1  0.62018376  0.80148163  0.73572375  1
  Hf  Hf4  1  0.90405117  0.89519933  0.86246402  1
  Hf  Hf5  1  0.49486947  0.70937771  0.88620318  1
  Hf  Hf6  1  0.79029155  -0.00415922  0.51219599  1
  Hf  Hf7  1  0.08728224  0.49626569  0.37528970  1
  Hf  Hf8  1  0.28937937  0.10104147  0.37748977  1
  Hf  Hf9  1  0.38288401  0.40038308  0.77261106  1
  Hf  Hf10  1  0.40067458  -0.00851988  0.25908382  1
  Hf  Hf11  1  0.49121278  0.51853034  0.36928527  1
  Hf  Hf12  1  0.79160167  0.21432853  0.52273434  1
  Hf  Hf13  1  0.90064736  0.50341870  0.86728420  1
  Hf  Hf14  1  0.59945252  0.00913509  0.00766526  1
  Hf  Hf15  1  0.67137955  0.50502046  0.63061190  1
  Hf  Hf16  1  0.80129599  0.00575461  -0.00371526  1
  Hf  Hf17  1  0.59505358  0.39899257  0.49563369  1
  Hf  Hf18  1  0.88377316  0.51456765  0.37171673  1
  Hf  Hf19  1  0.60336969  0.40156457  0.24505621  1
  Hf  Hf20  1  0.62243093  0.40147086  -0.00172669  1
  Hf  Hf21  1  0.81437810  0.78937914  0.49964918  1
  Hf  Hf22  1  0.00902896  0.20591711  0.75302637  1
  Hf  Hf23  1  0.19828809  -0.01268606  0.24464106  1
  Hf  Hf24  1  0.28113577  0.49837370  0.35805578  1
  Hf  Hf25  1  0.90619982  0.30672937  0.38703065  1
  Hf  Hf26  1  0.21509113  -0.01806907  0.75960521  1
  Hf  Hf27  1  0.31234504  0.49403986  0.62748964  1
  Hf  Hf28  1  0.30431788  0.09046492  0.11943928  1
  Hf  Hf29  1  0.10205335  0.08309068  0.64434971  1
  Hf  Hf30  1  0.91920560  0.89317833  0.63333116  1
  Hf  Hf31  1  0.40535400  0.19971639  0.25826001  1
  Hf  Hf32  1  0.21148468  -0.01677581  -0.01366412  1
  Hf  Hf33  1  0.58159933  0.59692910  0.76141686  1
  Hf  Hf34  1  0.90737548  0.10925504  0.11234383  1
  Hf  Hf35  1  0.87637482  0.50451818  0.12914081  1
  Hf  Hf36  1  0.59790187  0.60797899  0.24718099  1
  Hf  Hf37  1  -0.00639355  0.40062928  0.24588687  1
  Hf  Hf38  1  0.89538969  0.10195082  0.85988816  1
  Hf  Hf39  1  0.71329885  0.68972253  0.12837137  1
  Zr  Zr40  1  0.10915871  0.87989721  0.10734334  1
  Zr  Zr41  1  0.59157101  0.00685267  0.25431836  1
  Zr  Zr42  1  0.17926588  0.40838040  0.01282592  1
  Zr  Zr43  1  0.39360100  0.21270791  0.49099226  1
  Zr  Zr44  1  0.10313726  0.49867406  0.61990474  1
  Zr  Zr45  1  0.29148307  0.50998293  0.12261765  1
  Zr  Zr46  1  0.10587933  0.69682719  0.37909474  1
  Zr  Zr47  1  0.18616188  -0.01483203  0.50921436  1
  Zr  Zr48  1  0.80422880  0.00590318  0.25836149  1
  Zr  Zr49  1  0.69454438  0.90010533  0.87221599  1
  Zr  Zr50  1  0.31509550  0.69242337  0.37684722  1
  Zr  Zr51  1  0.01304634  0.20482885  0.51458362  1
  Zr  Zr52  1  0.90817732  0.89633950  0.12061289  1
  Zr  Zr53  1  0.68392574  0.10948000  0.86045918  1
  Zr  Zr54  1  0.20716328  0.19987690  -0.00963603  1
  Zr  Zr55  1  0.09995279  0.70040514  0.62366686  1
  Zr  Zr56  1  0.40246807  0.80394417  0.74795090  1
  Zr  Zr57  1  0.39982039  0.39389706  0.24853151  1
  Zr  Zr58  1  0.48477014  0.70854760  0.11479715  1
  Zr  Zr59  1  0.79831955  0.41228633  0.51732167  1
  Zr  Zr60  1  0.40873786  0.19551266  0.75548409  1
  Zr  Zr61  1  0.79485847  0.61720974  0.73873504  1
  Zr  Zr62  1  0.49330618  0.31295459  0.63102680  1
  Zr  Zr63  1  0.50472542  0.90871077  0.61463831  1
  Zr  Zr64  1  0.70098377  0.90134210  0.13742192  1
  Zr  Zr65  1  0.00761280  0.19924279  0.24959136  1
  Zr  Zr66  1  0.50499148  0.29071992  0.89256694  1
  Zr  Zr67  1  0.49455351  0.50029431  0.10417227  1
  Zr  Zr68  1  0.80542798  0.21730646  0.25267116  1
  Zr  Zr69  1  0.20142323  0.38234414  0.49754920  1
  Zr  Zr70  1  0.79536820  0.22070099  -0.00936913  1
  Zr  Zr71  1  0.91750186  0.90896958  0.38323601  1
  Zr  Zr72  1  0.08973074  0.08888656  0.38151351  1
  Zr  Zr73  1  0.59899188  0.80702263  0.00539874  1
  Zr  Zr74  1  0.49716234  0.68075454  0.62028289  1
  Zr  Zr75  1  0.90340101  0.09807418  0.63328571  1
  Zr  Zr76  1  0.70182041  0.10868294  0.38306473  1
  Zr  Zr77  1  0.39703079  0.40810703  0.48480115  1
  Zr  Zr78  1  0.81305104  0.78521402  0.26433281  1
  Zr  Zr79  1  0.77936176  -0.01294390  0.73388050  1
  Ta  Ta80  1  0.21629736  0.79760715  0.50699766  1
  Ta  Ta81  1  0.21618865  0.20804362  0.76116002  1
  Ta  Ta82  1  0.70223311  0.31125944  0.37536224  1
  Ta  Ta83  1  0.91122661  0.70110564  0.87981321  1
  Ta  Ta84  1  0.59102055  0.80410819  0.26156709  1
  Ta  Ta85  1  0.68786578  0.89756570  0.38096747  1
  Ta  Ta86  1  0.21835273  0.77587755  -0.00641696  1
  Ta  Ta87  1  0.30040532  0.69479916  0.62442421  1
  Ta  Ta88  1  0.10642958  0.31519079  0.86892332  1
  Ta  Ta89  1  0.00837253  0.59339225  0.00699875  1
  Ta  Ta90  1  0.49535106  0.10300261  0.61241941  1
  Ta  Ta91  1  0.10060462  0.09444777  0.10846623  1
  Ta  Ta92  1  0.50059724  0.09215591  0.39376735  1
  Ta  Ta93  1  0.79079027  0.20956714  0.73365360  1
  Ta  Ta94  1  -0.01862692  0.61323551  0.50067394  1
  Ta  Ta95  1  0.70536749  0.30684709  0.85753124  1
  Ta  Ta96  1  -0.00084595  0.40655783  0.50656267  1
  Ta  Ta97  1  0.60929686  0.79970746  0.50011827  1
  Ta  Ta98  1  0.79883582  0.59027758  -0.00791431  1
  Ta  Ta99  1  0.19125829  0.38734576  0.23329986  1
  Ta  Ta100  1  0.00381387  0.20622204  -0.01918192  1
  Ta  Ta101  1  0.00164419  0.60745647  0.75002446  1
  Ta  Ta102  1  0.48607401  0.50266905  0.89760681  1
  Ta  Ta103  1  0.20838182  0.78429185  0.75746181  1
  Ta  Ta104  1  0.01922137  0.79492816  0.25369505  1
  Ta  Ta105  1  0.90166789  0.30812193  0.11620231  1
  Ta  Ta106  1  0.20299989  0.19846940  0.23626766  1
  Ta  Ta107  1  0.50673674  0.29233478  0.10766313  1
  Ta  Ta108  1  0.89945780  0.30897236  0.85704170  1
  Ta  Ta109  1  0.10443694  0.09480589  0.86620816  1
  Ta  Ta110  1  0.40345065  -0.00958425  -0.00292408  1
  Ta  Ta111  1  0.00690126  0.00064286  -0.01608165  1
  Ta  Ta112  1  0.02201628  0.81566180  0.50122428  1
  Ta  Ta113  1  0.70896322  0.69870181  0.87627316  1
  Ta  Ta114  1  0.30436582  0.09558320  0.62728309  1
  Ta  Ta115  1  0.79613914  0.40702472  0.73683535  1
  Ta  Ta116  1  0.49561405  0.10673475  0.12032328  1
  Ta  Ta117  1  0.69681148  0.49958942  0.86665091  1
  Ta  Ta118  1  0.91116479  0.31429558  0.63730173  1
  Ta  Ta119  1  0.10714026  0.68189686  0.87684723  1
  Ti  Ti120  1  0.19852484  0.58479060  0.75315025  1
  Ti  Ti121  1  -0.01371691  0.40031252  -0.00413989  1
  Ti  Ti122  1  0.39341526  0.61094402  0.23896975  1
  Ti  Ti123  1  0.11620022  0.29277243  0.37139453  1
  Ti  Ti124  1  0.40757669  0.79392254  0.49819077  1
  Ti  Ti125  1  0.29545501  0.89268193  0.37856294  1
  Ti  Ti126  1  0.40559338  0.80072488  0.25777659  1
  Ti  Ti127  1  0.11687018  0.30211703  0.63825845  1
  Ti  Ti128  1  0.17813875  0.60067884  0.23312158  1
  Ti  Ti129  1  0.27497247  0.49938574  0.88836014  1
  Ti  Ti130  1  0.40572043  0.00014218  0.74846803  1
  Ti  Ti131  1  0.20616719  0.59421900  0.50051978  1
  Ti  Ti132  1  0.91813416  0.70274363  0.11629544  1
  Ti  Ti133  1  0.67525387  0.09615930  0.62809747  1
  Ti  Ti134  1  0.49896048  0.90925359  0.87111382  1
  Ti  Ti135  1  0.78724967  0.60566750  0.51373569  1
  Ti  Ti136  1  0.59339384  0.20933078  0.25996262  1
  Ti  Ti137  1  0.01114454  0.79590576  0.75230314  1
  Ti  Ti138  1  0.89948272  0.10932249  0.39228070  1
  Ti  Ti139  1  0.38653162  0.59945810  0.76571698  1
  Ti  Ti140  1  0.71373693  0.32184728  0.12793477  1
  Ti  Ti141  1  0.48730970  0.90407554  0.12637106  1
  Ti  Ti142  1  0.59029071  0.60408722  0.49359742  1
  Ti  Ti143  1  0.31288310  0.29606091  0.11166718  1
  Ti  Ti144  1  0.38963657  -0.00851298  0.49911725  1
  Ti  Ti145  1  0.10335121  0.88085213  0.88083095  1
  Ti  Ti146  1  0.01128887  0.41178453  0.74817465  1
  Ti  Ti147  1  0.58867344  0.39574524  0.75842337  1
  Ti  Ti148  1  0.31314802  0.09816517  0.87805465  1
  Ti  Ti149  1  0.90565014  0.51225009  0.62897043  1
  Ti  Ti150  1  0.09096459  0.28923726  0.11749918  1
  Ti  Ti151  1  0.21204393  0.79218343  0.24391995  1
  Ti  Ti152  1  0.70340193  0.69243781  0.37608941  1
  Ti  Ti153  1  0.37055958  0.61722158  -0.00498847  1
  Ti  Ti154  1  0.50217752  0.09668656  0.88075390  1
  Ti  Ti155  1  0.59701967  0.20582099  0.49979941  1
  Ti  Ti156  1  0.69638181  0.50358489  0.37510944  1
  Ti  Ti157  1  0.60752924  0.60339612  -0.00350635  1
  Ti  Ti158  1  0.20499093  0.19456828  0.51224457  1
  Ti  Ti159  1  -0.01322173  0.61043107  0.24596700  1
  Mo  Mo160  1  0.90700889  0.69995648  0.62482993  1
  Mo  Mo161  1  0.49006545  0.49977630  0.63301983  1
  Mo  Mo162  1  0.39163655  0.81158290  -0.00623770  1
  Mo  Mo163  1  0.11368510  0.88885545  0.63914388  1
  Mo  Mo164  1  0.29814384  0.68841853  0.86789418  1
  Mo  Mo165  1  0.11525470  0.88929053  0.37033741  1
  Mo  Mo166  1  0.60565605  0.20107904  0.00459989  1
  Mo  Mo167  1  0.80766072  0.40598121  -0.01143320  1
  Mo  Mo168  1  0.01319660  -0.00892708  0.76953310  1
  Mo  Mo169  1  0.29184301  0.71027300  0.13159210  1
  Mo  Mo170  1  0.09845840  0.69175975  0.12550575  1
  Mo  Mo171  1  0.69220336  0.30251351  0.63932379  1
  Mo  Mo172  1  0.69588670  0.50486327  0.12128563  1
  Mo  Mo173  1  0.39349394  0.60446499  0.49840095  1
  Mo  Mo174  1  0.30379128  0.89257071  0.62203883  1
  Mo  Mo175  1  0.29309466  0.28807335  0.63169654  1
  Mo  Mo176  1  0.31408685  0.88633185  0.12572004  1
  Mo  Mo177  1  0.51154838  0.71062442  0.37924615  1
  Mo  Mo178  1  0.40531325  0.18767121  0.00001521  1
  Mo  Mo179  1  0.08975885  0.50192562  0.87228910  1
  Mo  Mo180  1  0.01092256  0.79057150  -0.01171522  1
  Mo  Mo181  1  0.18902823  0.60108929  0.00721040  1
  Mo  Mo182  1  0.31116076  0.88959528  0.87461836  1
  Mo  Mo183  1  0.59892320  0.19875670  0.74295184  1
  Mo  Mo184  1  0.79308256  0.40383711  0.25556565  1
  Mo  Mo185  1  0.19954108  0.39765793  0.75647651  1
  Mo  Mo186  1  0.28894278  0.29605523  0.35967806  1
  Mo  Mo187  1  0.69718410  0.70190825  0.61243696  1
  Mo  Mo188  1  0.81097783  0.79008933  0.74495433  1
  Mo  Mo189  1  0.49175747  0.89444815  0.38814626  1
  Mo  Mo190  1  0.57876453  0.00638963  0.74512048  1
  Mo  Mo191  1  -0.00351224  -0.00390991  0.50547621  1
  Mo  Mo192  1  0.79440100  0.59730282  0.25457213  1
  Mo  Mo193  1  0.38957160  0.39849797  -0.00959237  1
  Mo  Mo194  1  0.51009021  0.29657273  0.37240228  1
  Mo  Mo195  1  0.07800745  0.49507731  0.13297124  1
  Mo  Mo196  1  0.70135634  0.89831124  0.61413568  1
  Mo  Mo197  1  0.59490459  0.00427941  0.49594863  1
  Mo  Mo198  1  0.90724547  0.70049021  0.37683840  1
  Mo  Mo199  1  0.29980153  0.30273291  0.89135615  1
