# generated using pymatgen
data_HfZrTaTiMo
_symmetry_space_group_name_H-M   'P 1'
_cell_length_a   15.20675887
_cell_length_b   15.21615313
_cell_length_c   16.83879638
_cell_angle_alpha   89.99554743
_cell_angle_beta   89.98932015
_cell_angle_gamma   90.07036533
_symmetry_Int_Tables_number   1
_chemical_formula_structural   HfZrTaTiMo
_chemical_formula_sum   'Hf40 Zr40 Ta40 Ti40 Mo40'
_cell_volume   3896.29865403
_cell_formula_units_Z   40
loop_
 _symmetry_equiv_pos_site_id
 _symmetry_equiv_pos_as_xyz
  1  'x, y, z'
loop_
 _atom_site_type_symbol
 _atom_site_label
 _atom_site_symmetry_multiplicity
 _atom_site_fract_x
 _atom_site_fract_y
 _atom_site_fract_z
 _atom_site_occupancy
  Hf  Hf0  1  0.40241856  0.59571316  0.47905801  1
  Hf  Hf1  1  0.59431600  0.00141554  0.49934395  1
  Hf  Hf2  1  0.90298077  0.30467114  0.62097542  1
  Hf  Hf3  1  0.00713374  0.61375228  0.23978403  1
  Hf  Hf4  1  0.78433290  0.59292407  0.01744335  1
  Hf  Hf5  1  0.80570651  0.61047255  0.50087643  1
  Hf  Hf6  1  0.90087658  0.30142369  0.86118552  1
  Hf  Hf7  1  0.90780092  0.69820741  0.88909287  1
  Hf  Hf8  1  0.59601596  0.19744098  0.25036958  1
  Hf  Hf9  1  0.89308902  0.30086598  0.14021484  1
  Hf  Hf10  1  0.88887608  0.30084056  0.37518131  1
  Hf  Hf11  1  -0.01431774  -0.02210436  0.50159889  1
  Hf  Hf12  1  0.38689479  0.78746575  -0.00991697  1
  Hf  Hf13  1  0.30706167  0.29564995  0.86116641  1
  Hf  Hf14  1  0.70178782  0.11407601  0.39405738  1
  Hf  Hf15  1  0.21772988  0.40002741  0.00184645  1
  Hf  Hf16  1  0.39500830  0.38842332  0.48734946  1
  Hf  Hf17  1  0.19468051  0.79442464  0.50309645  1
  Hf  Hf18  1  0.91576296  0.89354117  0.11447895  1
  Hf  Hf19  1  0.59563431  0.41335867  0.49579630  1
  Hf  Hf20  1  0.69737537  0.50596632  0.62895451  1
  Hf  Hf21  1  0.21027722  0.78075126  0.74675146  1
  Hf  Hf22  1  0.09152052  0.10228563  0.13095414  1
  Hf  Hf23  1  0.58607747  0.79542820  0.76404271  1
  Hf  Hf24  1  0.48083982  0.89568672  0.11998032  1
  Hf  Hf25  1  0.39299631  -0.00451636  0.26005982  1
  Hf  Hf26  1  0.28894534  0.08197115  0.12660265  1
  Hf  Hf27  1  0.28766785  0.89485799  0.38193707  1
  Hf  Hf28  1  0.11194559  0.30345004  0.61602263  1
  Hf  Hf29  1  0.49773365  0.09828450  0.10915567  1
  Hf  Hf30  1  0.78332090  0.19981926  -0.00401078  1
  Hf  Hf31  1  0.31012094  0.28516661  0.63689412  1
  Hf  Hf32  1  -0.01169743  0.21342489  -0.00079697  1
  Hf  Hf33  1  0.39130441  0.61127088  0.76790864  1
  Hf  Hf34  1  0.79874010  -0.00021893  -0.01224366  1
  Hf  Hf35  1  0.00028720  0.19673047  0.26475432  1
  Hf  Hf36  1  0.09484223  0.89552751  0.63355334  1
  Hf  Hf37  1  0.80466425  0.40989933  0.49519239  1
  Hf  Hf38  1  0.09559495  0.09864045  0.86558825  1
  Hf  Hf39  1  0.01377613  -0.00139841  -0.00469804  1
  Zr  Zr40  1  0.61347632  0.39954554  0.00793844  1
  Zr  Zr41  1  0.80005654  0.78455946  0.23026440  1
  Zr  Zr42  1  0.01374419  0.59395059  0.75537057  1
  Zr  Zr43  1  0.90533568  0.70854161  0.37131535  1
  Zr  Zr44  1  0.79927881  -0.00177192  0.24694424  1
  Zr  Zr45  1  0.91172698  0.49116552  0.12215582  1
  Zr  Zr46  1  0.49882396  0.89294933  0.62341963  1
  Zr  Zr47  1  0.59951786  -0.00806557  -0.01900141  1
  Zr  Zr48  1  0.69666701  0.68681625  0.87957389  1
  Zr  Zr49  1  0.41054663  0.00621298  0.75261563  1
  Zr  Zr50  1  0.70036079  0.90823798  0.63137872  1
  Zr  Zr51  1  0.71401353  0.89992716  0.38061102  1
  Zr  Zr52  1  0.69555982  0.70464083  0.62809226  1
  Zr  Zr53  1  0.90209428  0.90261624  0.86463188  1
  Zr  Zr54  1  0.59306948  -0.00183759  0.25777681  1
  Zr  Zr55  1  0.10208153  0.50841179  0.89698384  1
  Zr  Zr56  1  0.70130681  0.30151068  0.62788665  1
  Zr  Zr57  1  0.21631740  0.61982212  0.01467889  1
  Zr  Zr58  1  0.51188936  0.49839906  0.35249886  1
  Zr  Zr59  1  0.00763926  0.19216575  0.73399532  1
  Zr  Zr60  1  0.89410088  0.09843647  0.12929127  1
  Zr  Zr61  1  0.19211955  0.19540685  0.00536544  1
  Zr  Zr62  1  0.89258852  0.08868607  0.38655171  1
  Zr  Zr63  1  0.10154598  0.49486956  0.60933429  1
  Zr  Zr64  1  0.10088557  0.30368981  0.86966952  1
  Zr  Zr65  1  0.10157228  0.89504466  0.85989621  1
  Zr  Zr66  1  0.20167110  0.78701725  0.24033348  1
  Zr  Zr67  1  0.49321235  0.69302162  0.12595610  1
  Zr  Zr68  1  0.30120557  0.49899231  0.62052782  1
  Zr  Zr69  1  0.31475341  0.50022659  0.13753811  1
  Zr  Zr70  1  0.30107097  0.90140073  0.62173861  1
  Zr  Zr71  1  0.11386546  0.09613239  0.60317010  1
  Zr  Zr72  1  0.59131038  0.19017321  0.74860445  1
  Zr  Zr73  1  0.20436907  0.42180814  0.75727417  1
  Zr  Zr74  1  0.39472688  0.20110391  0.24657115  1
  Zr  Zr75  1  0.38572148  0.01002804  0.49598224  1
  Zr  Zr76  1  0.69523600  0.69810659  0.37178836  1
  Zr  Zr77  1  0.70046441  0.29375805  0.86196476  1
  Zr  Zr78  1  0.39069362  0.21492255  0.00865110  1
  Zr  Zr79  1  0.68672699  0.89615922  0.12007301  1
  Ta  Ta80  1  0.50669692  0.49875107  0.13355156  1
  Ta  Ta81  1  0.11088187  0.49992722  0.12949158  1
  Ta  Ta82  1  0.81391031  0.81449218  0.50884594  1
  Ta  Ta83  1  0.69126606  0.30717559  0.37927621  1
  Ta  Ta84  1  0.29727496  0.09706344  0.87360111  1
  Ta  Ta85  1  0.10769134  0.68428015  0.62297968  1
  Ta  Ta86  1  0.49602928  0.51016754  0.62733921  1
  Ta  Ta87  1  -0.00695611  0.78348456  0.73940685  1
  Ta  Ta88  1  0.81086456  0.39189316  0.00038837  1
  Ta  Ta89  1  0.09651525  0.31387170  0.13465138  1
  Ta  Ta90  1  0.49794904  0.31314686  0.63006120  1
  Ta  Ta91  1  0.10271355  0.09661436  0.39069170  1
  Ta  Ta92  1  0.38491072  0.60776052  0.26507224  1
  Ta  Ta93  1  0.50039614  0.30813448  0.88040350  1
  Ta  Ta94  1  0.20283318  0.01155211  0.74379722  1
  Ta  Ta95  1  0.19438923  0.20179896  0.25577248  1
  Ta  Ta96  1  0.00414115  0.40770776  0.26598757  1
  Ta  Ta97  1  0.79633250  0.79913477  0.75681735  1
  Ta  Ta98  1  0.59556738  0.60521238  0.49601357  1
  Ta  Ta99  1  0.49567472  0.11227743  0.88748232  1
  Ta  Ta100  1  0.79725646  0.79693001  0.00468848  1
  Ta  Ta101  1  -0.00232708  0.20429606  0.49769806  1
  Ta  Ta102  1  0.49871690  0.30975993  0.12544387  1
  Ta  Ta103  1  0.50125437  0.89002940  0.38180396  1
  Ta  Ta104  1  0.61740415  0.39396333  0.23923589  1
  Ta  Ta105  1  0.59668530  0.40693774  0.75297871  1
  Ta  Ta106  1  0.69066492  0.10643771  0.11984773  1
  Ta  Ta107  1  0.48488853  0.11567976  0.61946481  1
  Ta  Ta108  1  0.19654788  0.81865455  0.01042472  1
  Ta  Ta109  1  0.90419996  0.50993524  0.62308640  1
  Ta  Ta110  1  0.81074950  0.60417478  0.75003169  1
  Ta  Ta111  1  0.59424612  0.59443340  0.75462449  1
  Ta  Ta112  1  0.88889816  0.09523909  0.62314396  1
  Ta  Ta113  1  0.30931312  0.69294011  0.61971080  1
  Ta  Ta114  1  0.80592161  0.41367430  0.74853716  1
  Ta  Ta115  1  0.69952496  0.10416971  0.61793125  1
  Ta  Ta116  1  0.40076685  0.79586765  0.26257848  1
  Ta  Ta117  1  0.89998273  0.49764000  0.88816976  1
  Ta  Ta118  1  0.18770480  0.00062474  0.26438489  1
  Ta  Ta119  1  0.58490291  0.21280062  0.50352813  1
  Ti  Ti120  1  0.00295014  0.40649532  0.48239112  1
  Ti  Ti121  1  0.59452728  0.79631757  0.25043200  1
  Ti  Ti122  1  0.70659647  0.49422230  0.87185456  1
  Ti  Ti123  1  0.20639181  0.59900621  0.48591751  1
  Ti  Ti124  1  0.10721231  0.70615866  0.88280037  1
  Ti  Ti125  1  0.59706476  0.78372887  -0.00756439  1
  Ti  Ti126  1  0.61126250  -0.00251168  0.77062579  1
  Ti  Ti127  1  0.08506519  0.89259569  0.37796588  1
  Ti  Ti128  1  0.29416107  0.89724593  0.86568197  1
  Ti  Ti129  1  0.29631473  0.30756470  0.13905729  1
  Ti  Ti130  1  0.48991363  0.89279277  0.87681851  1
  Ti  Ti131  1  0.10456894  0.50880575  0.36802556  1
  Ti  Ti132  1  0.29390176  0.10962061  0.37427194  1
  Ti  Ti133  1  0.22066341  0.20471422  0.49210432  1
  Ti  Ti134  1  0.80213901  0.59020165  0.23072550  1
  Ti  Ti135  1  0.40614764  0.59046670  -0.00879850  1
  Ti  Ti136  1  0.00224088  0.59692576  0.49223270  1
  Ti  Ti137  1  0.49373529  0.10627647  0.38376673  1
  Ti  Ti138  1  0.59929330  0.79228240  0.49707807  1
  Ti  Ti139  1  0.20638149  0.40394822  0.26190924  1
  Ti  Ti140  1  0.10657741  0.29761033  0.37923731  1
  Ti  Ti141  1  0.49474534  0.29879108  0.36569676  1
  Ti  Ti142  1  0.00341314  0.80671087  0.24292561  1
  Ti  Ti143  1  0.37949232  -0.00904235  -0.00763717  1
  Ti  Ti144  1  0.11270989  0.91015509  0.12802963  1
  Ti  Ti145  1  0.10694873  0.70058825  0.37420419  1
  Ti  Ti146  1  0.61293290  0.60364816  0.23856949  1
  Ti  Ti147  1  -0.00064412  0.40676464  0.74651572  1
  Ti  Ti148  1  0.88816307  0.10274484  0.84989816  1
  Ti  Ti149  1  0.71825849  0.50079766  0.36126830  1
  Ti  Ti150  1  0.41129193  0.41059751  0.75721048  1
  Ti  Ti151  1  0.89420786  0.90194779  0.64580790  1
  Ti  Ti152  1  0.49413131  0.69765151  0.62570953  1
  Ti  Ti153  1  0.40532093  0.78518521  0.48804636  1
  Ti  Ti154  1  0.50971429  0.50358501  0.88386133  1
  Ti  Ti155  1  0.78396661  0.20804764  0.25007032  1
  Ti  Ti156  1  0.20436906  0.40327750  0.47956080  1
  Ti  Ti157  1  0.00492287  0.61085044  0.01744408  1
  Ti  Ti158  1  -0.00591812  0.78176508  0.51626731  1
  Ti  Ti159  1  -0.00085478  -0.00673416  0.26147523  1
  Mo  Mo160  1  0.20991754  0.19113911  0.74671426  1
  Mo  Mo161  1  0.79572905  0.20292569  0.50693298  1
  Mo  Mo162  1  0.70200294  0.09533022  0.86706139  1
  Mo  Mo163  1  -0.00241615  -0.00442507  0.73715726  1
  Mo  Mo164  1  0.79851133  -0.00136555  0.50998191  1
  Mo  Mo165  1  0.50409877  0.70216441  0.36743312  1
  Mo  Mo166  1  0.30597953  0.70706468  0.13076876  1
  Mo  Mo167  1  0.19255627  -0.00242675  0.48562344  1
  Mo  Mo168  1  0.19457729  0.59596716  0.24798249  1
  Mo  Mo169  1  0.79936424  0.20033099  0.73913896  1
  Mo  Mo170  1  0.90388536  0.70156812  0.62689049  1
  Mo  Mo171  1  0.68973257  0.69483926  0.11860527  1
  Mo  Mo172  1  0.80322175  0.40161694  0.25989900  1
  Mo  Mo173  1  0.70354445  0.49071088  0.13524196  1
  Mo  Mo174  1  0.49836045  0.69267656  0.88483669  1
  Mo  Mo175  1  0.31635360  0.49724516  0.88505497  1
  Mo  Mo176  1  0.40017744  0.80087532  0.76107106  1
  Mo  Mo177  1  0.20582121  -0.00353140  -0.00691118  1
  Mo  Mo178  1  0.30101542  0.89962397  0.12993587  1
  Mo  Mo179  1  0.79258599  0.00734774  0.75454634  1
  Mo  Mo180  1  0.40760261  0.39785124  0.25390933  1
  Mo  Mo181  1  0.29129923  0.70334396  0.87959639  1
  Mo  Mo182  1  0.70183747  0.88852260  0.87596666  1
  Mo  Mo183  1  0.00903837  0.79682565  0.00218399  1
  Mo  Mo184  1  0.69996927  0.29312266  0.12673482  1
  Mo  Mo185  1  0.29348542  0.49664632  0.36510044  1
  Mo  Mo186  1  0.00464356  0.40191008  0.00704850  1
  Mo  Mo187  1  0.90091492  0.70204275  0.11359438  1
  Mo  Mo188  1  0.29984230  0.10327322  0.62384335  1
  Mo  Mo189  1  0.29511036  0.29869689  0.36459870  1
  Mo  Mo190  1  0.20165681  0.60230430  0.75513888  1
  Mo  Mo191  1  0.40273163  0.20597267  0.49252992  1
  Mo  Mo192  1  0.90781179  0.50620075  0.36792908  1
  Mo  Mo193  1  0.59500817  0.19936361  -0.00170161  1
  Mo  Mo194  1  0.40827718  0.40879969  -0.00205719  1
  Mo  Mo195  1  0.40698374  0.20131645  0.75829803  1
  Mo  Mo196  1  0.90642233  0.88813578  0.37414492  1
  Mo  Mo197  1  0.29336122  0.69693670  0.37963789  1
  Mo  Mo198  1  0.59367432  0.59329302  0.00717139  1
  Mo  Mo199  1  0.09317626  0.71293035  0.11895133  1
