# generated using pymatgen
data_HfZrTaTiMo
_symmetry_space_group_name_H-M   'P 1'
_cell_length_a   15.20848812
_cell_length_b   15.21259891
_cell_length_c   16.86973058
_cell_angle_alpha   89.95992900
_cell_angle_beta   90.00217273
_cell_angle_gamma   89.97612030
_symmetry_Int_Tables_number   1
_chemical_formula_structural   HfZrTaTiMo
_chemical_formula_sum   'Hf40 Zr40 Ta40 Ti40 Mo40'
_cell_volume   3902.99019549
_cell_formula_units_Z   40
loop_
 _symmetry_equiv_pos_site_id
 _symmetry_equiv_pos_as_xyz
  1  'x, y, z'
loop_
 _atom_site_type_symbol
 _atom_site_label
 _atom_site_symmetry_multiplicity
 _atom_site_fract_x
 _atom_site_fract_y
 _atom_site_fract_z
 _atom_site_occupancy
  Hf  Hf0  1  0.80986601  0.01317652  0.73872780  1
  Hf  Hf1  1  0.30193012  0.69214002  0.37754503  1
  Hf  Hf2  1  0.69282598  0.50239509  0.88555421  1
  Hf  Hf3  1  0.19282492  0.38691090  0.25130874  1
  Hf  Hf4  1  0.20213887  -0.00094358  0.24389935  1
  Hf  Hf5  1  0.20911923  -0.01053549  0.00011409  1
  Hf  Hf6  1  0.90754530  0.69691111  0.36619088  1
  Hf  Hf7  1  0.29176539  0.29185061  0.12367987  1
  Hf  Hf8  1  0.50023196  0.89846315  0.63022534  1
  Hf  Hf9  1  0.09107000  0.29312675  0.85787169  1
  Hf  Hf10  1  -0.00435677  0.20161564  0.51197541  1
  Hf  Hf11  1  0.60636711  -0.00387332  0.75003974  1
  Hf  Hf12  1  0.00200120  -0.00474910  0.74001967  1
  Hf  Hf13  1  0.90286532  0.92547978  0.89063901  1
  Hf  Hf14  1  0.79390262  0.40163185  0.24317218  1
  Hf  Hf15  1  0.90298772  0.89204459  0.37247523  1
  Hf  Hf16  1  0.49775588  0.29974617  0.13208311  1
  Hf  Hf17  1  0.70098781  0.89590188  0.61919671  1
  Hf  Hf18  1  0.80379325  0.60004489  0.23803290  1
  Hf  Hf19  1  0.09477800  0.08941218  0.87661624  1
  Hf  Hf20  1  0.79697342  0.21307173  0.49551672  1
  Hf  Hf21  1  -0.00544958  0.19269579  0.72834353  1
  Hf  Hf22  1  0.79859824  0.60591958  -0.00876306  1
  Hf  Hf23  1  0.59566278  0.39750193  0.75797222  1
  Hf  Hf24  1  0.69816630  0.70747960  0.12503369  1
  Hf  Hf25  1  0.21213984  0.39780676  0.75292678  1
  Hf  Hf26  1  0.79174045  0.81090944  0.76822129  1
  Hf  Hf27  1  0.09160256  0.50401852  0.85747915  1
  Hf  Hf28  1  0.70749415  0.70478470  0.36086953  1
  Hf  Hf29  1  0.49998968  0.69497128  0.36963462  1
  Hf  Hf30  1  0.41096785  0.21021961  0.74135313  1
  Hf  Hf31  1  0.10455533  0.51241180  0.64229313  1
  Hf  Hf32  1  0.39940454  0.20629708  0.50941277  1
  Hf  Hf33  1  0.09767992  0.70587706  0.37260133  1
  Hf  Hf34  1  0.00028217  0.21756029  -0.00088328  1
  Hf  Hf35  1  0.71414830  0.69527205  0.63262512  1
  Hf  Hf36  1  0.10984261  0.09673261  0.39098288  1
  Hf  Hf37  1  0.88104549  0.51672993  0.63993633  1
  Hf  Hf38  1  0.09589072  0.90075727  0.38104032  1
  Hf  Hf39  1  0.49487690  0.89720029  0.37570640  1
  Zr  Zr40  1  0.90402714  0.91923114  0.10579935  1
  Zr  Zr41  1  0.90142860  0.50586836  0.11154252  1
  Zr  Zr42  1  0.40998455  0.00096301  0.00303368  1
  Zr  Zr43  1  0.30638678  0.09837545  0.86342107  1
  Zr  Zr44  1  0.60671934  0.18008174  -0.00034011  1
  Zr  Zr45  1  0.59828196  0.20184080  0.48901622  1
  Zr  Zr46  1  0.48592653  0.50446553  0.89031447  1
  Zr  Zr47  1  0.50806425  0.89825238  0.87576507  1
  Zr  Zr48  1  0.71415186  0.29324994  0.87937328  1
  Zr  Zr49  1  0.30108089  0.49934953  0.11654088  1
  Zr  Zr50  1  0.10402901  0.89282563  0.62213661  1
  Zr  Zr51  1  0.70765074  0.28862796  0.11940664  1
  Zr  Zr52  1  0.69539680  0.31949838  0.62074113  1
  Zr  Zr53  1  0.19867978  0.59104052  0.25059222  1
  Zr  Zr54  1  0.50533995  0.69943600  0.89270643  1
  Zr  Zr55  1  0.69903156  0.91053158  0.37369897  1
  Zr  Zr56  1  0.29698722  0.90028185  0.38452107  1
  Zr  Zr57  1  0.60759112  0.59023800  0.49488771  1
  Zr  Zr58  1  0.30329059  0.47519923  0.38803678  1
  Zr  Zr59  1  0.29457035  0.68150298  0.63448857  1
  Zr  Zr60  1  0.80210561  0.00523100  0.50464513  1
  Zr  Zr61  1  0.78236349  0.81406436  -0.01157512  1
  Zr  Zr62  1  0.29257628  0.70569844  0.11997452  1
  Zr  Zr63  1  0.19467314  0.78841128  0.51005423  1
  Zr  Zr64  1  0.48423978  0.31316288  0.36783016  1
  Zr  Zr65  1  0.80836240  0.19900467  0.26611781  1
  Zr  Zr66  1  0.09923129  0.88729562  0.11480967  1
  Zr  Zr67  1  0.18569895  0.38926828  -0.01090364  1
  Zr  Zr68  1  0.30371758  0.09055562  0.63215679  1
  Zr  Zr69  1  0.01090573  0.20499249  0.26061372  1
  Zr  Zr70  1  0.51283128  0.09808653  0.13543080  1
  Zr  Zr71  1  0.60335541  0.80002102  0.49646827  1
  Zr  Zr72  1  0.49773036  0.69677613  0.11383995  1
  Zr  Zr73  1  0.50198739  0.68761928  0.62687614  1
  Zr  Zr74  1  0.08956485  0.10259200  0.11897315  1
  Zr  Zr75  1  0.49967359  0.09232149  0.36971032  1
  Zr  Zr76  1  0.80485516  0.21737946  0.73490298  1
  Zr  Zr77  1  -0.01397059  0.41904583  0.51852838  1
  Zr  Zr78  1  0.08172862  0.50571960  0.38262659  1
  Zr  Zr79  1  0.89793201  0.32984014  0.38527910  1
  Ta  Ta80  1  -0.00576880  -0.00161374  0.25006990  1
  Ta  Ta81  1  0.49941097  0.49902141  0.11088678  1
  Ta  Ta82  1  -0.00069270  0.40903965  0.25076531  1
  Ta  Ta83  1  0.70426558  0.49378557  0.37055282  1
  Ta  Ta84  1  0.40454766  0.78704480  0.75444445  1
  Ta  Ta85  1  0.09463682  0.48994767  0.11721992  1
  Ta  Ta86  1  0.30332349  0.09827966  0.12497317  1
  Ta  Ta87  1  0.59542802  0.39082611  -0.00067575  1
  Ta  Ta88  1  0.90838803  0.70246967  0.88053102  1
  Ta  Ta89  1  0.10904403  0.30567451  0.62415823  1
  Ta  Ta90  1  0.68905610  0.10310240  0.61933518  1
  Ta  Ta91  1  0.10768295  0.09413442  0.61318900  1
  Ta  Ta92  1  0.19447386  0.79949586  0.24624792  1
  Ta  Ta93  1  0.80959779  0.59222782  0.49383572  1
  Ta  Ta94  1  -0.02166601  0.39227131  0.73697244  1
  Ta  Ta95  1  0.39431699  0.39123854  -0.00483570  1
  Ta  Ta96  1  0.39992756  0.20080201  -0.00167818  1
  Ta  Ta97  1  0.19597825  0.58611865  0.50485992  1
  Ta  Ta98  1  0.10270535  0.69790092  0.86456488  1
  Ta  Ta99  1  0.61386813  0.20393921  0.26562058  1
  Ta  Ta100  1  0.11168550  0.30732782  0.39410966  1
  Ta  Ta101  1  0.59943190  0.58953922  0.24529980  1
  Ta  Ta102  1  0.69201585  0.91429126  0.12537957  1
  Ta  Ta103  1  0.39722289  -0.00701692  0.24114688  1
  Ta  Ta104  1  0.40663419  0.59127026  0.25038776  1
  Ta  Ta105  1  0.09306838  0.69100456  0.11681414  1
  Ta  Ta106  1  0.70971596  0.08736054  0.87669701  1
  Ta  Ta107  1  0.91764369  0.30154043  0.12793859  1
  Ta  Ta108  1  0.20644513  0.19388641  -0.00416139  1
  Ta  Ta109  1  0.68951301  0.49783149  0.10980131  1
  Ta  Ta110  1  0.20045905  0.79630816  0.75566665  1
  Ta  Ta111  1  0.20823806  0.20688780  0.50881757  1
  Ta  Ta112  1  0.30465870  0.89061535  0.63358532  1
  Ta  Ta113  1  0.30015983  0.88768135  0.86522285  1
  Ta  Ta114  1  0.79595245  0.60655475  0.77132689  1
  Ta  Ta115  1  0.40689487  -0.00140455  0.51034572  1
  Ta  Ta116  1  0.39297549  0.80141807  0.24356536  1
  Ta  Ta117  1  0.80333822  0.00880691  0.24685731  1
  Ta  Ta118  1  0.19952369  0.59645732  -0.01169501  1
  Ta  Ta119  1  0.31374132  0.48339299  0.61834860  1
  Ti  Ti120  1  0.20269835  0.19533477  0.25719921  1
  Ti  Ti121  1  0.89875762  0.49035633  0.87017165  1
  Ti  Ti122  1  0.30483017  0.68104543  0.86891795  1
  Ti  Ti123  1  0.00616621  0.59872035  -0.00775535  1
  Ti  Ti124  1  -0.00744967  0.79877969  0.75892662  1
  Ti  Ti125  1  0.39142529  0.19587290  0.25357656  1
  Ti  Ti126  1  0.60800729  0.00450673  0.25134359  1
  Ti  Ti127  1  0.30332789  0.09752633  0.38337279  1
  Ti  Ti128  1  0.40196765  0.41098185  0.75739129  1
  Ti  Ti129  1  0.19971454  -0.00837780  0.75276097  1
  Ti  Ti130  1  0.59477566  0.80415223  0.24543285  1
  Ti  Ti131  1  0.91141172  0.71698358  0.11054310  1
  Ti  Ti132  1  0.49905567  0.89612812  0.12219654  1
  Ti  Ti133  1  0.90558256  0.09103149  0.38160006  1
  Ti  Ti134  1  0.40908434  0.58083787  0.49838736  1
  Ti  Ti135  1  -0.00007908  0.60551832  0.23749942  1
  Ti  Ti136  1  0.19749213  0.78880441  -0.01283784  1
  Ti  Ti137  1  -0.00240909  0.62510739  0.51294639  1
  Ti  Ti138  1  0.89692796  0.12303617  0.88058419  1
  Ti  Ti139  1  0.38735781  0.80394608  -0.00055751  1
  Ti  Ti140  1  0.81517032  0.78662427  0.50169653  1
  Ti  Ti141  1  0.59522307  0.40548510  0.25007692  1
  Ti  Ti142  1  0.39571550  0.40340220  0.24569457  1
  Ti  Ti143  1  0.08616747  0.69790959  0.64690063  1
  Ti  Ti144  1  0.90258835  0.88184004  0.62192424  1
  Ti  Ti145  1  0.30537188  0.29709680  0.87434814  1
  Ti  Ti146  1  0.50078317  0.29309282  0.87829143  1
  Ti  Ti147  1  0.20151529  0.19472465  0.74015675  1
  Ti  Ti148  1  0.39886817  0.79080767  0.50707528  1
  Ti  Ti149  1  0.81315633  0.81252708  0.23454853  1
  Ti  Ti150  1  0.50765845  0.10033755  0.87348459  1
  Ti  Ti151  1  0.59048149  0.60616056  0.75634633  1
  Ti  Ti152  1  0.81519057  0.38857455  -0.00062232  1
  Ti  Ti153  1  -0.00036819  -0.00734335  0.51026202  1
  Ti  Ti154  1  0.60226401  0.19415206  0.74903544  1
  Ti  Ti155  1  0.58684010  0.40712429  0.48991761  1
  Ti  Ti156  1  0.49097150  0.32333665  0.62081302  1
  Ti  Ti157  1  0.68612513  0.50601759  0.63372560  1
  Ti  Ti158  1  0.09625638  0.89203687  0.88136779  1
  Ti  Ti159  1  0.40392093  -0.00271490  0.75004590  1
  Mo  Mo160  1  0.49933443  0.50311435  0.36537035  1
  Mo  Mo161  1  0.90030725  0.09392868  0.61401704  1
  Mo  Mo162  1  0.59412297  0.81032934  0.01017779  1
  Mo  Mo163  1  0.90420017  0.30965580  0.87048355  1
  Mo  Mo164  1  0.80947663  0.19990506  0.00325740  1
  Mo  Mo165  1  0.89632226  0.51316074  0.36835086  1
  Mo  Mo166  1  0.69144226  0.30996574  0.37300352  1
  Mo  Mo167  1  0.21122911  0.00385516  0.50610375  1
  Mo  Mo168  1  0.38815293  0.59775625  0.00209881  1
  Mo  Mo169  1  0.60175442  0.79105816  0.75265021  1
  Mo  Mo170  1  0.20865098  0.60086258  0.75627620  1
  Mo  Mo171  1  0.71013944  0.09636765  0.13245674  1
  Mo  Mo172  1  0.89313504  0.11139127  0.12378130  1
  Mo  Mo173  1  0.00636506  0.79260029  -0.01390283  1
  Mo  Mo174  1  0.39989180  0.59015679  0.75164113  1
  Mo  Mo175  1  0.90043154  0.70718220  0.63645682  1
  Mo  Mo176  1  0.77596332  0.42073567  0.49989388  1
  Mo  Mo177  1  0.30535686  0.89829122  0.12686108  1
  Mo  Mo178  1  0.40031118  0.39664643  0.50324579  1
  Mo  Mo179  1  0.79435988  0.02616903  0.00570592  1
  Mo  Mo180  1  0.59180318  0.00746416  0.50912364  1
  Mo  Mo181  1  -0.00818956  0.60643105  0.75877489  1
  Mo  Mo182  1  0.19815929  0.39671479  0.51146516  1
  Mo  Mo183  1  0.09915252  0.30339918  0.12863862  1
  Mo  Mo184  1  -0.00827182  0.79648670  0.50646745  1
  Mo  Mo185  1  -0.00388585  0.40885571  -0.00602671  1
  Mo  Mo186  1  0.30006344  0.30129622  0.63303171  1
  Mo  Mo187  1  0.79335052  0.41440053  0.75517843  1
  Mo  Mo188  1  0.50773561  0.10048112  0.62722173  1
  Mo  Mo189  1  0.70501789  0.10012991  0.37419048  1
  Mo  Mo190  1  0.29087149  0.28259240  0.37378651  1
  Mo  Mo191  1  0.89609203  0.31155680  0.61459596  1
  Mo  Mo192  1  0.69867891  0.90757096  0.87720396  1
  Mo  Mo193  1  0.50373176  0.49611763  0.63060542  1
  Mo  Mo194  1  0.69157937  0.70329534  0.87175161  1
  Mo  Mo195  1  0.60364066  0.59945668  0.00813407  1
  Mo  Mo196  1  0.00144565  0.79794379  0.23866132  1
  Mo  Mo197  1  0.61298565  -0.01269019  -0.00051692  1
  Mo  Mo198  1  0.29709814  0.49629988  0.88018062  1
  Mo  Mo199  1  0.00341344  0.01120775  -0.00738966  1
