# generated using pymatgen
data_HfZrTaTiMo
_symmetry_space_group_name_H-M   'P 1'
_cell_length_a   15.21130542
_cell_length_b   15.19142374
_cell_length_c   16.81462735
_cell_angle_alpha   90.00070587
_cell_angle_beta   90.02272556
_cell_angle_gamma   90.02098835
_symmetry_Int_Tables_number   1
_chemical_formula_structural   HfZrTaTiMo
_chemical_formula_sum   'Hf40 Zr40 Ta40 Ti40 Mo40'
_cell_volume   3885.54683052
_cell_formula_units_Z   40
loop_
 _symmetry_equiv_pos_site_id
 _symmetry_equiv_pos_as_xyz
  1  'x, y, z'
loop_
 _atom_site_type_symbol
 _atom_site_label
 _atom_site_symmetry_multiplicity
 _atom_site_fract_x
 _atom_site_fract_y
 _atom_site_fract_z
 _atom_site_occupancy
  Hf  Hf0  1  0.10173119  0.69458973  0.11672877  1
  Hf  Hf1  1  0.50642322  0.51896867  0.60835396  1
  Hf  Hf2  1  0.39223393  0.20135533  -0.00254992  1
  Hf  Hf3  1  0.50796008  0.10908401  0.60427787  1
  Hf  Hf4  1  0.39328969  0.42088219  0.74006173  1
  Hf  Hf5  1  0.47426003  0.90131912  0.14629006  1
  Hf  Hf6  1  0.28853968  0.11059743  0.38366467  1
  Hf  Hf7  1  0.29683041  0.30733901  0.87115429  1
  Hf  Hf8  1  0.18517606  0.80918106  0.48525932  1
  Hf  Hf9  1  0.29370289  0.48934044  0.36939378  1
  Hf  Hf10  1  0.00167638  0.40033596  0.73277457  1
  Hf  Hf11  1  0.71033074  0.48954270  0.13238621  1
  Hf  Hf12  1  0.12167753  0.71090954  0.63964813  1
  Hf  Hf13  1  0.19142693  0.58639822  0.24327518  1
  Hf  Hf14  1  0.59654280  0.59100529  0.00291764  1
  Hf  Hf15  1  0.02222836  0.40002430  0.24269526  1
  Hf  Hf16  1  0.90554193  0.29890396  0.11899018  1
  Hf  Hf17  1  -0.00669569  0.80431848  0.22208591  1
  Hf  Hf18  1  0.29275790  0.10311797  0.12328495  1
  Hf  Hf19  1  0.59630937  0.00203137  0.75241228  1
  Hf  Hf20  1  0.79535814  0.79944497  0.75695514  1
  Hf  Hf21  1  0.59276204  0.78598593  0.00613432  1
  Hf  Hf22  1  0.81707531  0.40253337  0.25671254  1
  Hf  Hf23  1  0.69531967  0.89861565  0.63003030  1
  Hf  Hf24  1  0.40236072  0.60505201  0.02049000  1
  Hf  Hf25  1  0.00033990  0.59022774  0.51727854  1
  Hf  Hf26  1  0.38700998  0.00818445  0.74739493  1
  Hf  Hf27  1  0.91910057  0.30248412  0.38744237  1
  Hf  Hf28  1  0.70013859  0.10162863  0.37334667  1
  Hf  Hf29  1  0.00297797  0.19926099  0.75941532  1
  Hf  Hf30  1  0.59337560  0.20038673  -0.00111742  1
  Hf  Hf31  1  0.79021275  0.21567111  0.00287418  1
  Hf  Hf32  1  0.21057025  0.60295993  0.50346960  1
  Hf  Hf33  1  0.08680934  0.69936388  0.36837611  1
  Hf  Hf34  1  0.49162349  0.31372801  0.59929715  1
  Hf  Hf35  1  0.80278861  0.19057748  0.74265685  1
  Hf  Hf36  1  0.70093884  0.48729093  0.87201669  1
  Hf  Hf37  1  0.28636661  0.30806660  0.61179699  1
  Hf  Hf38  1  0.90597008  0.49767328  0.88175402  1
  Hf  Hf39  1  0.09913413  0.90726521  0.89615260  1
  Zr  Zr40  1  0.22729443  0.59693823  0.74968663  1
  Zr  Zr41  1  0.39766077  0.20564942  0.74057611  1
  Zr  Zr42  1  0.00963606  0.59867406  -0.00516841  1
  Zr  Zr43  1  0.49160509  0.90170214  0.61961354  1
  Zr  Zr44  1  0.10398303  0.09715080  0.63147505  1
  Zr  Zr45  1  0.70014573  0.10136667  0.87381934  1
  Zr  Zr46  1  0.68476982  0.89651961  0.13245175  1
  Zr  Zr47  1  0.50834685  0.49701932  0.14751216  1
  Zr  Zr48  1  0.57949503  -0.00374268  0.00212435  1
  Zr  Zr49  1  0.60414116  0.61097541  0.47465150  1
  Zr  Zr50  1  0.50452452  0.31046966  0.86760620  1
  Zr  Zr51  1  0.11789367  0.29975013  0.37725013  1
  Zr  Zr52  1  0.90619865  0.09852546  0.37145762  1
  Zr  Zr53  1  0.48514387  0.89131300  0.87380671  1
  Zr  Zr54  1  0.01419864  0.59662165  0.75457456  1
  Zr  Zr55  1  0.01632004  -0.01019505  0.50168995  1
  Zr  Zr56  1  0.69504583  0.88913568  0.87958351  1
  Zr  Zr57  1  0.79767537  0.79113759  0.50417749  1
  Zr  Zr58  1  0.80005495  0.39180821  0.73120966  1
  Zr  Zr59  1  0.88968628  0.30373378  0.87959443  1
  Zr  Zr60  1  0.92062287  0.89124192  0.36868925  1
  Zr  Zr61  1  0.68564636  0.28892952  0.61328731  1
  Zr  Zr62  1  0.59386984  0.80529284  0.48197098  1
  Zr  Zr63  1  0.69455719  0.12075328  0.14147321  1
  Zr  Zr64  1  0.49003605  0.10128816  0.13756780  1
  Zr  Zr65  1  -0.00917770  0.59269830  0.23946939  1
  Zr  Zr66  1  0.61525912  0.38870218  0.00384598  1
  Zr  Zr67  1  0.27999554  0.89985304  0.61499495  1
  Zr  Zr68  1  0.68178380  0.68850410  0.63211354  1
  Zr  Zr69  1  0.80237665  -0.01019528  0.50075978  1
  Zr  Zr70  1  0.88419231  0.69064800  0.37498682  1
  Zr  Zr71  1  0.89422257  0.70345048  0.88079039  1
  Zr  Zr72  1  0.90261599  0.69869531  0.64078438  1
  Zr  Zr73  1  0.58727233  0.21320787  0.27404154  1
  Zr  Zr74  1  0.80086110  0.00738249  0.01702437  1
  Zr  Zr75  1  0.80891524  -0.00163868  0.23664175  1
  Zr  Zr76  1  0.37457082  0.79495536  0.74396957  1
  Zr  Zr77  1  0.80334184  0.19889177  0.50517155  1
  Zr  Zr78  1  0.30978803  0.90879201  0.37288247  1
  Zr  Zr79  1  0.19556146  0.00155204  0.24187589  1
  Ta  Ta80  1  -0.00730238  0.00434526  0.76491285  1
  Ta  Ta81  1  0.09167772  0.89869350  0.64036381  1
  Ta  Ta82  1  0.50114431  0.70347160  0.14929625  1
  Ta  Ta83  1  0.39423602  0.79113677  0.49267039  1
  Ta  Ta84  1  0.58118863  0.78109442  0.75173032  1
  Ta  Ta85  1  0.00316960  -0.00008563  0.22447291  1
  Ta  Ta86  1  0.49288703  0.68545865  0.87727745  1
  Ta  Ta87  1  0.18309002  0.19853216  0.50478262  1
  Ta  Ta88  1  0.72108798  0.50695710  0.37408566  1
  Ta  Ta89  1  0.61261897  0.39542048  0.27241376  1
  Ta  Ta90  1  0.49647506  0.30398537  0.13371530  1
  Ta  Ta91  1  0.11502211  0.70509048  0.88190888  1
  Ta  Ta92  1  0.29376766  0.69909776  0.36067707  1
  Ta  Ta93  1  0.30470679  0.70809433  0.88603722  1
  Ta  Ta94  1  0.00924059  0.19670371  0.24347056  1
  Ta  Ta95  1  0.81401684  0.40622198  0.50829935  1
  Ta  Ta96  1  0.19310790  -0.00064958  0.76285715  1
  Ta  Ta97  1  0.19351053  0.80451905  0.24426656  1
  Ta  Ta98  1  0.39340985  0.59615672  0.24903098  1
  Ta  Ta99  1  0.69826313  0.49531779  0.61529674  1
  Ta  Ta100  1  0.21447153  0.59620709  0.00376547  1
  Ta  Ta101  1  0.09582318  0.10894274  0.11189697  1
  Ta  Ta102  1  0.49365187  0.49590124  0.36713417  1
  Ta  Ta103  1  0.48026496  0.09846246  0.38625500  1
  Ta  Ta104  1  0.30246813  0.09771134  0.60495745  1
  Ta  Ta105  1  0.37934284  0.21687674  0.25512834  1
  Ta  Ta106  1  0.60966549  0.40101184  0.47517963  1
  Ta  Ta107  1  0.48731019  0.70800333  0.35344684  1
  Ta  Ta108  1  0.48246436  0.09861644  0.87524757  1
  Ta  Ta109  1  0.09644415  0.09285921  0.37320824  1
  Ta  Ta110  1  0.20742252  0.80270514  0.01264809  1
  Ta  Ta111  1  0.89635669  0.90844628  0.88969114  1
  Ta  Ta112  1  0.19206766  0.19603312  -0.01625058  1
  Ta  Ta113  1  0.70784991  0.89455415  0.36224508  1
  Ta  Ta114  1  0.00540460  0.81039522  0.76698091  1
  Ta  Ta115  1  0.59434782  0.41008391  0.74328219  1
  Ta  Ta116  1  0.90466076  0.90203036  0.63678595  1
  Ta  Ta117  1  0.40978095  0.40606628  0.00253335  1
  Ta  Ta118  1  0.90584467  0.49911994  0.10856422  1
  Ta  Ta119  1  0.39709640  0.80380126  0.01076996  1
  Ti  Ti120  1  0.01159424  0.39297502  -0.00056602  1
  Ti  Ti121  1  0.30658371  0.48290009  0.13132192  1
  Ti  Ti122  1  0.11089820  0.48702341  0.11354955  1
  Ti  Ti123  1  0.30520186  0.70866216  0.14023240  1
  Ti  Ti124  1  0.91408954  0.49863669  0.38422939  1
  Ti  Ti125  1  0.60163754  0.80059773  0.25906827  1
  Ti  Ti126  1  0.69148808  0.68742700  0.86944554  1
  Ti  Ti127  1  -0.00699038  0.80370642  0.01145521  1
  Ti  Ti128  1  0.59956857  0.20506268  0.75223392  1
  Ti  Ti129  1  0.69864563  0.09149463  0.61993553  1
  Ti  Ti130  1  0.11815525  0.29279001  0.11709520  1
  Ti  Ti131  1  0.40166361  0.60717914  0.48814659  1
  Ti  Ti132  1  0.09955236  0.30427048  0.87599371  1
  Ti  Ti133  1  0.90586428  0.09559041  0.62308281  1
  Ti  Ti134  1  0.80186331  0.79479359  0.23360643  1
  Ti  Ti135  1  0.29474245  0.90789667  0.88671897  1
  Ti  Ti136  1  0.22489009  0.37087952  0.24074671  1
  Ti  Ti137  1  0.42297870  0.61157616  0.74123510  1
  Ti  Ti138  1  0.20141868  0.19324714  0.75858970  1
  Ti  Ti139  1  0.11942656  0.48610141  0.61906705  1
  Ti  Ti140  1  0.60953986  0.60094641  0.26394483  1
  Ti  Ti141  1  -0.00437669  0.79349437  0.51022212  1
  Ti  Ti142  1  0.79419297  0.60095908  0.00314623  1
  Ti  Ti143  1  0.59763219  -0.00166079  0.48433866  1
  Ti  Ti144  1  0.32251529  0.51234781  0.88208027  1
  Ti  Ti145  1  -0.00279567  0.00816490  0.01043863  1
  Ti  Ti146  1  0.80406533  0.21226615  0.25326918  1
  Ti  Ti147  1  -0.00454522  0.19274491  -0.01352598  1
  Ti  Ti148  1  0.31443754  0.30388606  0.39883624  1
  Ti  Ti149  1  0.80027536  0.59611814  0.50715488  1
  Ti  Ti150  1  0.79582283  0.58794595  0.74636982  1
  Ti  Ti151  1  0.80547999  -0.00101546  0.75357946  1
  Ti  Ti152  1  0.79792977  0.79614813  0.01116592  1
  Ti  Ti153  1  0.19676333  0.39511949  0.74743042  1
  Ti  Ti154  1  0.58926223  0.00034274  0.26490194  1
  Ti  Ti155  1  0.21550207  0.39803172  0.00103888  1
  Ti  Ti156  1  0.12067053  0.49766718  0.87910191  1
  Ti  Ti157  1  0.80355300  0.60494003  0.24125775  1
  Ti  Ti158  1  0.69537180  0.69280866  0.13178466  1
  Ti  Ti159  1  0.09790523  0.49072865  0.38922674  1
  Mo  Mo160  1  0.91144837  0.29067607  0.61318535  1
  Mo  Mo161  1  0.19797979  0.40615552  0.50123269  1
  Mo  Mo162  1  0.49284645  0.70732885  0.61626293  1
  Mo  Mo163  1  0.70206779  0.70345312  0.35480850  1
  Mo  Mo164  1  0.89726306  0.50179803  0.62321349  1
  Mo  Mo165  1  0.29375046  0.09706746  0.87607219  1
  Mo  Mo166  1  0.40293651  -0.00490708  0.50021498  1
  Mo  Mo167  1  0.71481297  0.30714484  0.38227526  1
  Mo  Mo168  1  0.09667092  0.89991372  0.36159296  1
  Mo  Mo169  1  0.69647648  0.30484215  0.14061711  1
  Mo  Mo170  1  0.38876886  0.80135013  0.25327447  1
  Mo  Mo171  1  0.69547376  0.29810154  0.86015960  1
  Mo  Mo172  1  0.00232355  0.19664528  0.50699170  1
  Mo  Mo173  1  0.88526037  0.69392498  0.11075555  1
  Mo  Mo174  1  0.31465025  0.69693701  0.61458766  1
  Mo  Mo175  1  0.49450282  0.30251371  0.39239312  1
  Mo  Mo176  1  0.10194525  0.29563997  0.62930199  1
  Mo  Mo177  1  0.20112566  0.00436237  0.00313084  1
  Mo  Mo178  1  0.90124193  0.09118709  0.87858137  1
  Mo  Mo179  1  0.30225355  0.30159144  0.11435271  1
  Mo  Mo180  1  0.50223354  0.90616085  0.36405051  1
  Mo  Mo181  1  0.38533058  -0.00507238  -0.00387873  1
  Mo  Mo182  1  0.49536962  0.50431913  0.87526161  1
  Mo  Mo183  1  0.00755751  0.39224680  0.51989594  1
  Mo  Mo184  1  0.10110646  0.90519428  0.10454528  1
  Mo  Mo185  1  0.80617260  0.40694857  0.00285165  1
  Mo  Mo186  1  0.19123336  0.20118744  0.24636248  1
  Mo  Mo187  1  0.59875429  0.19956749  0.47912967  1
  Mo  Mo188  1  0.19650081  0.00055031  0.49667083  1
  Mo  Mo189  1  0.90833463  0.11211438  0.12827529  1
  Mo  Mo190  1  0.39970124  0.01636618  0.25718773  1
  Mo  Mo191  1  0.30942238  0.50416533  0.61761162  1
  Mo  Mo192  1  0.89729256  0.90028027  0.10810430  1
  Mo  Mo193  1  0.39403014  0.20329109  0.50165762  1
  Mo  Mo194  1  0.29299589  0.89904682  0.12660734  1
  Mo  Mo195  1  0.40856516  0.39013709  0.25418998  1
  Mo  Mo196  1  0.60027847  0.59223061  0.75359286  1
  Mo  Mo197  1  0.39747206  0.41969800  0.49859320  1
  Mo  Mo198  1  0.09708618  0.10227230  0.88136566  1
  Mo  Mo199  1  0.19392542  0.80818122  0.76731939  1
