# generated using pymatgen
data_HfZrTaTiMo
_symmetry_space_group_name_H-M   'P 1'
_cell_length_a   15.20736176
_cell_length_b   15.20774080
_cell_length_c   16.85012362
_cell_angle_alpha   89.99769959
_cell_angle_beta   89.90216462
_cell_angle_gamma   90.01079465
_symmetry_Int_Tables_number   1
_chemical_formula_structural   HfZrTaTiMo
_chemical_formula_sum   'Hf40 Zr40 Ta40 Ti40 Mo40'
_cell_volume   3896.91586360
_cell_formula_units_Z   40
loop_
 _symmetry_equiv_pos_site_id
 _symmetry_equiv_pos_as_xyz
  1  'x, y, z'
loop_
 _atom_site_type_symbol
 _atom_site_label
 _atom_site_symmetry_multiplicity
 _atom_site_fract_x
 _atom_site_fract_y
 _atom_site_fract_z
 _atom_site_occupancy
  Hf  Hf0  1  0.68079321  0.50828061  0.12389240  1
  Hf  Hf1  1  0.60691779  0.21987883  0.00849716  1
  Hf  Hf2  1  0.81193788  0.20573285  0.01631743  1
  Hf  Hf3  1  0.20942983  0.80833019  -0.01047735  1
  Hf  Hf4  1  0.11027301  0.70756086  0.14250340  1
  Hf  Hf5  1  0.49259388  0.32130639  0.12515192  1
  Hf  Hf6  1  0.39865226  0.20106363  -0.00659898  1
  Hf  Hf7  1  -0.00295346  -0.00284012  0.49469577  1
  Hf  Hf8  1  0.19685710  0.17736485  0.50632408  1
  Hf  Hf9  1  0.29757635  0.29070746  0.62582268  1
  Hf  Hf10  1  0.67872763  0.31626942  0.86183374  1
  Hf  Hf11  1  0.80847244  0.59913005  -0.00775948  1
  Hf  Hf12  1  0.79034533  0.60065502  0.27273447  1
  Hf  Hf13  1  0.51484540  0.49152968  0.86757485  1
  Hf  Hf14  1  0.10237570  0.89612038  0.62461884  1
  Hf  Hf15  1  0.29785061  0.89223431  0.12340296  1
  Hf  Hf16  1  0.41072131  0.00737180  0.49924672  1
  Hf  Hf17  1  0.06644848  0.50017088  0.88769284  1
  Hf  Hf18  1  0.39574144  0.39402272  -0.01570669  1
  Hf  Hf19  1  -0.00029277  0.00145585  0.26042112  1
  Hf  Hf20  1  0.70140383  0.11285367  0.87339779  1
  Hf  Hf21  1  0.19699874  0.38751104  0.26667593  1
  Hf  Hf22  1  0.28652072  0.08745019  0.37284950  1
  Hf  Hf23  1  0.92372945  0.49732427  0.59063365  1
  Hf  Hf24  1  0.31832215  0.68612941  0.12391956  1
  Hf  Hf25  1  -0.00121628  0.58107562  0.74063765  1
  Hf  Hf26  1  0.61116848  0.00808540  0.24035243  1
  Hf  Hf27  1  0.79502823  0.60315307  0.48750946  1
  Hf  Hf28  1  0.28343399  0.48818993  0.86987330  1
  Hf  Hf29  1  0.89143991  0.50437562  0.13356050  1
  Hf  Hf30  1  0.60827744  0.81941271  0.50943121  1
  Hf  Hf31  1  0.29558766  0.50185261  0.62746984  1
  Hf  Hf32  1  0.31582514  0.88688906  0.36808811  1
  Hf  Hf33  1  0.80925571  0.00420005  -0.00548578  1
  Hf  Hf34  1  0.11630223  0.70289552  0.36728648  1
  Hf  Hf35  1  0.31899125  0.68231017  0.37013008  1
  Hf  Hf36  1  0.68515989  0.28653776  0.38255618  1
  Hf  Hf37  1  0.41415274  0.81157315  0.76362731  1
  Hf  Hf38  1  0.80506356  0.79755074  -0.01202081  1
  Hf  Hf39  1  0.29912340  0.48984534  0.12216154  1
  Zr  Zr40  1  0.49840414  0.12005265  0.36795260  1
  Zr  Zr41  1  0.79502096  0.41151734  0.71934605  1
  Zr  Zr42  1  0.00592428  0.78933746  -0.00245572  1
  Zr  Zr43  1  0.60386955  0.20766179  0.22854395  1
  Zr  Zr44  1  0.88895462  0.30835890  0.86851953  1
  Zr  Zr45  1  0.20096390  0.00634172  0.75632234  1
  Zr  Zr46  1  0.18750729  0.60430585  -0.00513741  1
  Zr  Zr47  1  0.31500399  0.91004589  0.62968057  1
  Zr  Zr48  1  0.00895599  0.78552759  0.75603093  1
  Zr  Zr49  1  0.77410206  0.39620539  0.01035092  1
  Zr  Zr50  1  -0.01608153  0.00537259  0.76722313  1
  Zr  Zr51  1  0.79086509  0.39554883  0.26160389  1
  Zr  Zr52  1  0.39733283  0.38265370  0.75512006  1
  Zr  Zr53  1  0.40932851  0.00095329  0.24220087  1
  Zr  Zr54  1  0.79761478  0.20221280  0.73717608  1
  Zr  Zr55  1  0.61895846  0.81450273  0.23995380  1
  Zr  Zr56  1  0.92454582  0.09577148  0.12607171  1
  Zr  Zr57  1  0.11722761  0.91071120  0.38031160  1
  Zr  Zr58  1  0.59350352  0.60865347  0.50943589  1
  Zr  Zr59  1  0.87180492  0.09053381  0.37895541  1
  Zr  Zr60  1  0.19917633  0.39051857  0.49297673  1
  Zr  Zr61  1  0.30982894  0.69884182  0.63467363  1
  Zr  Zr62  1  0.41109719  0.38758257  0.50408513  1
  Zr  Zr63  1  0.58883330  0.41384469  0.26500679  1
  Zr  Zr64  1  0.09961463  0.29838427  0.87253127  1
  Zr  Zr65  1  0.58816604  0.61576196  0.25546871  1
  Zr  Zr66  1  0.80732826  0.82212553  0.49538538  1
  Zr  Zr67  1  0.31199179  0.69967600  0.87221801  1
  Zr  Zr68  1  -0.00256006  0.59538317  0.26819943  1
  Zr  Zr69  1  0.90404364  0.70580439  0.61508551  1
  Zr  Zr70  1  -0.01823856  0.38504702  0.01557075  1
  Zr  Zr71  1  0.71147529  0.92257836  0.64322090  1
  Zr  Zr72  1  0.29654464  0.09761720  0.12284581  1
  Zr  Zr73  1  0.42091819  0.79309261  0.23823963  1
  Zr  Zr74  1  -0.00604840  0.39054872  0.26445088  1
  Zr  Zr75  1  0.09798695  0.49483650  0.12737549  1
  Zr  Zr76  1  0.18757574  0.60237232  0.75698806  1
  Zr  Zr77  1  0.80482319  0.60709127  0.74833515  1
  Zr  Zr78  1  0.47876948  0.51406644  0.38827414  1
  Zr  Zr79  1  0.21509198  0.79824341  0.50455360  1
  Ta  Ta80  1  0.28919309  0.29874657  0.13003271  1
  Ta  Ta81  1  0.48745944  0.51675721  0.11690284  1
  Ta  Ta82  1  0.90524888  0.90391201  0.63253465  1
  Ta  Ta83  1  -0.00674074  0.39168440  0.73575438  1
  Ta  Ta84  1  0.00298160  -0.00162207  -0.01869236  1
  Ta  Ta85  1  0.79963734  0.19691868  0.23540538  1
  Ta  Ta86  1  0.60486003  0.59847828  0.73874680  1
  Ta  Ta87  1  0.70178867  0.90554985  0.87396533  1
  Ta  Ta88  1  0.90165621  0.70190133  0.13490458  1
  Ta  Ta89  1  0.51102461  0.89560694  0.89259874  1
  Ta  Ta90  1  0.81007351  0.80905901  0.76555889  1
  Ta  Ta91  1  0.19838751  0.20183279  -0.00133189  1
  Ta  Ta92  1  0.78742726  0.39684642  0.50319761  1
  Ta  Ta93  1  0.77368197  0.18911589  0.51367597  1
  Ta  Ta94  1  0.52022306  0.90647705  0.37802373  1
  Ta  Ta95  1  0.70550587  0.50468499  0.86855981  1
  Ta  Ta96  1  0.61868636  0.02117989  0.49815417  1
  Ta  Ta97  1  0.50377249  0.71730456  0.38033887  1
  Ta  Ta98  1  0.50755778  0.09161725  0.10433854  1
  Ta  Ta99  1  0.70254550  0.71067911  0.63268007  1
  Ta  Ta100  1  0.41745237  0.79762053  0.50454150  1
  Ta  Ta101  1  0.89077472  0.29207829  0.39295914  1
  Ta  Ta102  1  0.20523650  0.80301701  0.75906538  1
  Ta  Ta103  1  0.50637599  0.90021950  0.09602841  1
  Ta  Ta104  1  0.88640573  0.08956930  0.62172403  1
  Ta  Ta105  1  0.19763340  0.20430187  0.74511035  1
  Ta  Ta106  1  0.69499939  0.71998275  0.37789239  1
  Ta  Ta107  1  0.00641900  0.79624992  0.49214230  1
  Ta  Ta108  1  0.57400119  0.20593934  0.50732303  1
  Ta  Ta109  1  0.19247351  0.01016876  -0.01167902  1
  Ta  Ta110  1  0.00323694  0.80852089  0.25378389  1
  Ta  Ta111  1  0.09437652  0.27603699  0.13064295  1
  Ta  Ta112  1  0.10405433  0.89727656  0.87322544  1
  Ta  Ta113  1  0.58850324  0.00795132  0.76802593  1
  Ta  Ta114  1  0.17899247  0.39990106  0.73884392  1
  Ta  Ta115  1  0.29591329  0.11055623  0.87428066  1
  Ta  Ta116  1  0.19088393  0.18814465  0.25462685  1
  Ta  Ta117  1  0.10252869  0.68027959  0.60882455  1
  Ta  Ta118  1  -0.00270902  0.19784349  0.26439837  1
  Ta  Ta119  1  0.60590218  0.80105654  0.75397616  1
  Ti  Ti120  1  0.19366312  -0.00934717  0.24266016  1
  Ti  Ti121  1  0.09029791  0.09708646  0.62808525  1
  Ti  Ti122  1  0.09717412  0.28114017  0.38461783  1
  Ti  Ti123  1  0.08679053  0.30165169  0.61617935  1
  Ti  Ti124  1  0.51860965  0.70281195  0.10944884  1
  Ti  Ti125  1  0.50169591  0.70748882  0.63219739  1
  Ti  Ti126  1  0.21483990  0.58488651  0.25739103  1
  Ti  Ti127  1  0.09273456  0.49669626  0.39097121  1
  Ti  Ti128  1  0.41154768  0.59886253  0.75646954  1
  Ti  Ti129  1  0.31338952  0.28500947  0.37731993  1
  Ti  Ti130  1  0.69890417  0.90612298  0.10438922  1
  Ti  Ti131  1  0.91814209  0.68148920  0.87683270  1
  Ti  Ti132  1  0.89779896  0.29038702  0.60702187  1
  Ti  Ti133  1  0.90437516  0.89126949  0.12318102  1
  Ti  Ti134  1  0.90507130  0.70785322  0.37662465  1
  Ti  Ti135  1  0.39591731  0.20822680  0.24090477  1
  Ti  Ti136  1  0.49528128  0.50527798  0.62514378  1
  Ti  Ti137  1  0.60189823  0.60561673  -0.01017328  1
  Ti  Ti138  1  0.40890897  0.59582198  -0.01524442  1
  Ti  Ti139  1  0.69077252  0.70279321  0.86987058  1
  Ti  Ti140  1  0.00948738  0.18475458  -0.00790935  1
  Ti  Ti141  1  0.67482257  0.11141545  0.64226219  1
  Ti  Ti142  1  0.40737011  0.00984474  0.77139344  1
  Ti  Ti143  1  0.19221750  0.38740925  0.00216398  1
  Ti  Ti144  1  0.49588313  0.27249397  0.63889664  1
  Ti  Ti145  1  0.59962139  0.39857190  0.72482417  1
  Ti  Ti146  1  -0.00900667  0.19151611  0.49845237  1
  Ti  Ti147  1  0.20748250  0.59237586  0.49365535  1
  Ti  Ti148  1  0.60366142  0.40303457  0.50913506  1
  Ti  Ti149  1  0.71119654  0.70693429  0.12103629  1
  Ti  Ti150  1  0.39031784  0.40686679  0.26045372  1
  Ti  Ti151  1  0.79853378  -0.00212864  0.23375626  1
  Ti  Ti152  1  -0.00007250  0.19950557  0.74717789  1
  Ti  Ti153  1  0.41321627  0.79014457  -0.01016921  1
  Ti  Ti154  1  0.09556869  0.91037594  0.12016212  1
  Ti  Ti155  1  0.51047105  0.91517051  0.63247901  1
  Ti  Ti156  1  0.31612365  0.10199167  0.63283202  1
  Ti  Ti157  1  0.80957524  0.80769816  0.25437952  1
  Ti  Ti158  1  0.71749670  0.92158328  0.37314824  1
  Ti  Ti159  1  0.39198046  -0.00514847  -0.01410417  1
  Mo  Mo160  1  -0.01116308  0.60273065  0.01194617  1
  Mo  Mo161  1  0.79752581  0.00546778  0.50732797  1
  Mo  Mo162  1  0.00950989  0.60576254  0.47987465  1
  Mo  Mo163  1  0.69406960  0.50210642  0.39079066  1
  Mo  Mo164  1  0.90602507  0.29629810  0.13728911  1
  Mo  Mo165  1  0.70051251  0.30810360  0.13146651  1
  Mo  Mo166  1  0.68561149  0.29850028  0.61683116  1
  Mo  Mo167  1  0.70516211  0.09526222  0.11672211  1
  Mo  Mo168  1  0.09360586  0.10435669  0.37797707  1
  Mo  Mo169  1  0.10684072  0.09395857  0.12332784  1
  Mo  Mo170  1  0.20638199  0.79971985  0.24503018  1
  Mo  Mo171  1  0.09983796  0.10696122  0.87018469  1
  Mo  Mo172  1  0.50184423  0.09626650  0.89427423  1
  Mo  Mo173  1  0.40541483  0.59058162  0.24453930  1
  Mo  Mo174  1  0.39508068  0.19628654  0.50337435  1
  Mo  Mo175  1  0.10422719  0.49345477  0.60940261  1
  Mo  Mo176  1  0.88974557  0.49250683  0.87143000  1
  Mo  Mo177  1  0.49909784  0.28872394  0.86506584  1
  Mo  Mo178  1  -0.00336095  0.38443093  0.48621078  1
  Mo  Mo179  1  0.20316704  0.00212018  0.51514726  1
  Mo  Mo180  1  0.39700841  0.60879584  0.51290159  1
  Mo  Mo181  1  0.49516114  0.08730273  0.63135400  1
  Mo  Mo182  1  0.79549382  0.00284148  0.76254305  1
  Mo  Mo183  1  0.28834928  0.29717742  0.86822847  1
  Mo  Mo184  1  0.90084638  0.89272141  0.36790794  1
  Mo  Mo185  1  0.58211823  0.20104499  0.75415286  1
  Mo  Mo186  1  0.89947611  0.89564763  0.87566866  1
  Mo  Mo187  1  0.10166215  0.69876064  0.87479532  1
  Mo  Mo188  1  0.69298983  0.10280970  0.37338949  1
  Mo  Mo189  1  0.39807776  0.18414367  0.76294749  1
  Mo  Mo190  1  0.48798232  0.30000802  0.37059226  1
  Mo  Mo191  1  0.30536331  0.90685691  0.87881800  1
  Mo  Mo192  1  0.69651193  0.50794808  0.61716426  1
  Mo  Mo193  1  0.60390023  0.00590186  -0.00906609  1
  Mo  Mo194  1  0.89686649  0.49029468  0.39461738  1
  Mo  Mo195  1  0.90389630  0.10938466  0.87768428  1
  Mo  Mo196  1  0.29030394  0.49539275  0.37702423  1
  Mo  Mo197  1  0.58546927  0.41626898  -0.00238985  1
  Mo  Mo198  1  0.61018076  0.79470165  -0.00212603  1
  Mo  Mo199  1  0.51491424  0.69415118  0.87104517  1
