# generated using pymatgen
data_HfZrTaTiMo
_symmetry_space_group_name_H-M   'P 1'
_cell_length_a   15.20706663
_cell_length_b   15.22152362
_cell_length_c   16.84338899
_cell_angle_alpha   89.99977771
_cell_angle_beta   90.06546435
_cell_angle_gamma   89.99835661
_symmetry_Int_Tables_number   1
_chemical_formula_structural   HfZrTaTiMo
_chemical_formula_sum   'Hf40 Zr40 Ta40 Ti40 Mo40'
_cell_volume   3898.81626839
_cell_formula_units_Z   40
loop_
 _symmetry_equiv_pos_site_id
 _symmetry_equiv_pos_as_xyz
  1  'x, y, z'
loop_
 _atom_site_type_symbol
 _atom_site_label
 _atom_site_symmetry_multiplicity
 _atom_site_fract_x
 _atom_site_fract_y
 _atom_site_fract_z
 _atom_site_occupancy
  Hf  Hf0  1  0.31439530  0.09742674  0.37923308  1
  Hf  Hf1  1  0.50260071  0.89480536  0.62001935  1
  Hf  Hf2  1  0.68288406  0.71273281  0.60984369  1
  Hf  Hf3  1  0.69080706  0.69781892  0.87884027  1
  Hf  Hf4  1  0.69330456  0.90756014  0.87763040  1
  Hf  Hf5  1  0.31457848  0.10499863  0.63116465  1
  Hf  Hf6  1  0.10358928  0.10108581  0.37812433  1
  Hf  Hf7  1  0.00318452  0.61431018  -0.01371303  1
  Hf  Hf8  1  -0.00267452  0.00235306  0.73324619  1
  Hf  Hf9  1  0.49171023  0.69768857  0.88980910  1
  Hf  Hf10  1  0.21335804  0.00169976  0.24724388  1
  Hf  Hf11  1  0.80745389  0.40691576  0.25316120  1
  Hf  Hf12  1  0.31562735  0.49019440  0.12740615  1
  Hf  Hf13  1  0.41780002  0.40461063  0.50068714  1
  Hf  Hf14  1  0.39418054  0.79842901  0.50040122  1
  Hf  Hf15  1  0.19752966  0.00562458  0.74619074  1
  Hf  Hf16  1  0.09331267  0.89579058  0.87690827  1
  Hf  Hf17  1  0.30912982  0.89103567  0.11343178  1
  Hf  Hf18  1  0.69148781  0.91543083  0.61492361  1
  Hf  Hf19  1  -0.02426673  0.79515166  0.50686379  1
  Hf  Hf20  1  0.29897731  0.89591060  0.87579142  1
  Hf  Hf21  1  0.71341561  0.28825189  0.37287910  1
  Hf  Hf22  1  0.00411956  0.00269934  0.51807776  1
  Hf  Hf23  1  0.69715165  0.69765108  0.12409080  1
  Hf  Hf24  1  0.60045809  0.39443267  0.24738862  1
  Hf  Hf25  1  0.51188478  0.29603385  0.64152186  1
  Hf  Hf26  1  -0.00999513  0.21351483  0.51454573  1
  Hf  Hf27  1  0.80591138  0.19772117  0.74470576  1
  Hf  Hf28  1  0.20653537  0.41374344  0.75435983  1
  Hf  Hf29  1  0.09475455  0.29321817  0.10314457  1
  Hf  Hf30  1  0.79900289  0.00218032  0.00550026  1
  Hf  Hf31  1  0.40120426  0.79304793  0.74716125  1
  Hf  Hf32  1  0.10622971  0.28561364  0.87741090  1
  Hf  Hf33  1  -0.00144673  0.39220268  0.25186468  1
  Hf  Hf34  1  0.50213022  0.89896843  0.87827079  1
  Hf  Hf35  1  0.31157292  0.30582179  0.64029323  1
  Hf  Hf36  1  0.90537498  0.10196284  0.88093598  1
  Hf  Hf37  1  0.70410906  0.50849079  0.62303814  1
  Hf  Hf38  1  0.89705736  0.90184611  0.86803920  1
  Hf  Hf39  1  0.68769983  0.90579975  0.37131580  1
  Zr  Zr40  1  0.89423357  0.49627915  0.11440637  1
  Zr  Zr41  1  0.20277268  0.19682208  0.51015034  1
  Zr  Zr42  1  0.19784940  0.39455347  0.25238106  1
  Zr  Zr43  1  -0.00664429  0.40369101  -0.02195440  1
  Zr  Zr44  1  0.28653665  0.70117826  0.38352585  1
  Zr  Zr45  1  0.69439875  0.30736299  0.86076722  1
  Zr  Zr46  1  0.09975455  0.90355649  0.38064697  1
  Zr  Zr47  1  -0.00308889  0.58546776  0.75580462  1
  Zr  Zr48  1  0.10830788  0.50809918  0.39034430  1
  Zr  Zr49  1  0.10116236  0.49968667  0.11508415  1
  Zr  Zr50  1  0.88314675  0.68511433  0.63988900  1
  Zr  Zr51  1  0.08696518  0.69819740  0.38402179  1
  Zr  Zr52  1  0.57977441  0.79845135  0.24297238  1
  Zr  Zr53  1  0.89487304  0.10917070  0.37508081  1
  Zr  Zr54  1  0.69201787  0.70777512  0.38819564  1
  Zr  Zr55  1  0.21383546  0.60509020  0.00496364  1
  Zr  Zr56  1  0.28517864  0.69533246  0.62919634  1
  Zr  Zr57  1  0.49594722  0.28427943  0.36715593  1
  Zr  Zr58  1  0.88345456  0.90301793  0.36043077  1
  Zr  Zr59  1  0.49912444  0.49273583  0.88902414  1
  Zr  Zr60  1  0.22125580  0.39645074  -0.01447510  1
  Zr  Zr61  1  0.89292393  0.70056399  0.12802183  1
  Zr  Zr62  1  0.10197255  0.09464941  0.88976770  1
  Zr  Zr63  1  0.11391597  0.09990807  0.11002935  1
  Zr  Zr64  1  0.70114941  0.90760485  0.14254307  1
  Zr  Zr65  1  0.48906731  0.69295969  0.37430167  1
  Zr  Zr66  1  0.19908537  0.80417305  0.24761951  1
  Zr  Zr67  1  0.49880558  0.28844488  0.12617881  1
  Zr  Zr68  1  0.00783391  0.20304387  0.24723667  1
  Zr  Zr69  1  0.31414346  0.50346716  0.36803941  1
  Zr  Zr70  1  -0.00476969  0.59475588  0.24882871  1
  Zr  Zr71  1  0.89570927  0.70581456  0.86334532  1
  Zr  Zr72  1  0.81978811  0.38908754  0.50799067  1
  Zr  Zr73  1  0.89694783  0.90386628  0.13789316  1
  Zr  Zr74  1  0.21604956  0.39916253  0.50208040  1
  Zr  Zr75  1  0.29365586  0.90107243  0.63121419  1
  Zr  Zr76  1  0.70527975  0.50888619  0.37948557  1
  Zr  Zr77  1  0.60913146  0.38714072  0.49923340  1
  Zr  Zr78  1  0.29155180  0.68629588  0.86264506  1
  Zr  Zr79  1  0.40859993  0.19660703  -0.01035613  1
  Ta  Ta80  1  0.70926376  0.30176793  0.12261964  1
  Ta  Ta81  1  0.31732404  0.51094339  0.62716814  1
  Ta  Ta82  1  0.57586622  0.59074369  0.50352764  1
  Ta  Ta83  1  0.57736647  0.00727360  0.24366128  1
  Ta  Ta84  1  0.61369548  0.18703433  0.24442967  1
  Ta  Ta85  1  0.11097276  0.51319057  0.61667980  1
  Ta  Ta86  1  0.69842427  0.09542088  0.37239015  1
  Ta  Ta87  1  0.00220064  0.00389746  0.24278112  1
  Ta  Ta88  1  0.59681993  0.79898247  0.74829608  1
  Ta  Ta89  1  0.09497452  0.31326219  0.62985671  1
  Ta  Ta90  1  0.59013761  0.81358328  0.01508394  1
  Ta  Ta91  1  0.58756988  0.59367627  0.74822439  1
  Ta  Ta92  1  0.69879910  0.49984295  0.12405215  1
  Ta  Ta93  1  0.79333534  0.19668819  0.51314555  1
  Ta  Ta94  1  0.91116561  0.49945261  0.39015930  1
  Ta  Ta95  1  0.79424619  0.79960697  -0.00072525  1
  Ta  Ta96  1  0.90510904  0.11004209  0.11547544  1
  Ta  Ta97  1  0.50308056  0.49843509  0.11825226  1
  Ta  Ta98  1  0.09879706  0.71042918  0.12443019  1
  Ta  Ta99  1  0.89993432  0.29854602  0.86527353  1
  Ta  Ta100  1  0.80682935  0.41271494  0.74437302  1
  Ta  Ta101  1  0.19390230  0.79593070  0.00158864  1
  Ta  Ta102  1  0.00429866  0.39562463  0.75829507  1
  Ta  Ta103  1  0.29727987  0.28458814  0.12004332  1
  Ta  Ta104  1  0.60150583  0.38849371  0.00526520  1
  Ta  Ta105  1  0.78991536  0.40507778  -0.00946615  1
  Ta  Ta106  1  0.59903151  0.59645921  0.24048270  1
  Ta  Ta107  1  0.41490606  0.00467493  0.75513352  1
  Ta  Ta108  1  0.09627010  0.30151622  0.38591507  1
  Ta  Ta109  1  0.41040694  0.20336705  0.50437655  1
  Ta  Ta110  1  0.08957842  0.70812871  0.63639682  1
  Ta  Ta111  1  0.88677806  0.89374236  0.63080992  1
  Ta  Ta112  1  0.80255759  0.21366867  -0.00065674  1
  Ta  Ta113  1  0.31667617  0.30424895  0.86255444  1
  Ta  Ta114  1  0.21591283  0.20580786  0.25539253  1
  Ta  Ta115  1  0.88593653  0.69535890  0.36970264  1
  Ta  Ta116  1  0.20264163  0.60459704  0.23747590  1
  Ta  Ta117  1  0.78474957  0.80431830  0.74729718  1
  Ta  Ta118  1  -0.00181687  0.80222871  0.25017440  1
  Ta  Ta119  1  0.60454886  0.18671993  0.50725855  1
  Ti  Ti120  1  0.51624734  0.09463212  0.87912638  1
  Ti  Ti121  1  0.21298048  0.00022493  -0.00102478  1
  Ti  Ti122  1  -0.00639154  0.80876831  0.00365738  1
  Ti  Ti123  1  0.48851239  0.90651103  0.38212311  1
  Ti  Ti124  1  0.60539229  0.17774444  0.74807658  1
  Ti  Ti125  1  0.50269989  0.50034337  0.36238774  1
  Ti  Ti126  1  0.87982206  0.50293035  0.86925184  1
  Ti  Ti127  1  0.30355125  0.10265347  0.87420673  1
  Ti  Ti128  1  0.70526227  0.29841769  0.63686556  1
  Ti  Ti129  1  0.80892056  0.60777608  0.50162949  1
  Ti  Ti130  1  0.10019443  0.70983555  0.85283626  1
  Ti  Ti131  1  0.91820566  0.48753045  0.61986635  1
  Ti  Ti132  1  0.48061159  0.70416400  0.11084333  1
  Ti  Ti133  1  0.09667247  0.90571944  0.11565899  1
  Ti  Ti134  1  0.69714838  0.10412937  0.88573777  1
  Ti  Ti135  1  0.48699592  0.68148493  0.62254340  1
  Ti  Ti136  1  0.79578553  0.59875999  -0.00645365  1
  Ti  Ti137  1  0.19956709  0.20165143  0.74556454  1
  Ti  Ti138  1  0.88708137  0.09784060  0.62335542  1
  Ti  Ti139  1  0.50913349  0.09197802  0.38035060  1
  Ti  Ti140  1  0.79546270  0.00168834  0.50055261  1
  Ti  Ti141  1  0.51470753  0.08999725  0.62543769  1
  Ti  Ti142  1  0.20318503  -0.00250287  0.51067873  1
  Ti  Ti143  1  0.60155255  0.59547282  0.00724728  1
  Ti  Ti144  1  0.39337902  0.38003660  0.25332130  1
  Ti  Ti145  1  0.40891651  0.19305411  0.76107577  1
  Ti  Ti146  1  0.41704182  -0.00861761  0.00246892  1
  Ti  Ti147  1  0.31729240  0.09711722  0.12120576  1
  Ti  Ti148  1  0.41102999  0.17568901  0.24504376  1
  Ti  Ti149  1  0.39016180  0.81737924  0.25759777  1
  Ti  Ti150  1  0.50891648  0.29496119  0.86852832  1
  Ti  Ti151  1  0.80927981  0.20591219  0.23834865  1
  Ti  Ti152  1  0.41875334  0.41614072  0.75148813  1
  Ti  Ti153  1  0.78311360  0.00593655  0.74766417  1
  Ti  Ti154  1  0.00711096  0.19791504  0.73562603  1
  Ti  Ti155  1  0.18511751  0.80774214  0.50806620  1
  Ti  Ti156  1  0.11715950  0.51227311  0.87404122  1
  Ti  Ti157  1  0.40304555  0.00467829  0.50425123  1
  Ti  Ti158  1  0.40124463  0.61117617  0.23682012  1
  Ti  Ti159  1  0.69345560  0.10861758  0.11516026  1
  Mo  Mo160  1  0.90323870  0.30122867  0.64469591  1
  Mo  Mo161  1  0.49511631  0.89873674  0.12143473  1
  Mo  Mo162  1  0.79759141  0.80826170  0.50261863  1
  Mo  Mo163  1  0.40247957  -0.00711113  0.25046514  1
  Mo  Mo164  1  0.19543092  0.59764380  0.74691817  1
  Mo  Mo165  1  -0.00724496  0.19993580  -0.00251599  1
  Mo  Mo166  1  0.59853048  0.00726143  0.00861668  1
  Mo  Mo167  1  0.21668116  0.19457432  -0.00579222  1
  Mo  Mo168  1  0.69756262  0.10383122  0.62414979  1
  Mo  Mo169  1  0.60990430  0.40427234  0.74770460  1
  Mo  Mo170  1  0.30994718  0.49673579  0.87089628  1
  Mo  Mo171  1  0.77711837  0.59731524  0.75327242  1
  Mo  Mo172  1  0.39482455  0.59221126  0.50034140  1
  Mo  Mo173  1  0.40110969  0.59334277  0.75136307  1
  Mo  Mo174  1  0.59140634  0.00476326  0.49190039  1
  Mo  Mo175  1  -0.00142162  -0.00699488  0.00919597  1
  Mo  Mo176  1  0.29921035  0.69828402  0.12912092  1
  Mo  Mo177  1  0.78492907  0.03564619  0.24167398  1
  Mo  Mo178  1  0.59973098  0.00096391  0.75305056  1
  Mo  Mo179  1  0.30370293  0.28898125  0.37307651  1
  Mo  Mo180  1  0.38972296  0.79380289  -0.00187264  1
  Mo  Mo181  1  0.40428614  0.59571820  0.01191349  1
  Mo  Mo182  1  0.79525115  0.77964488  0.25460505  1
  Mo  Mo183  1  0.69736999  0.50595528  0.87369955  1
  Mo  Mo184  1  0.18572276  0.80511826  0.74781677  1
  Mo  Mo185  1  0.19890678  0.61014393  0.51046541  1
  Mo  Mo186  1  0.58776221  0.80214002  0.49588995  1
  Mo  Mo187  1  0.09412883  0.89627028  0.62275133  1
  Mo  Mo188  1  -0.00703067  0.59648501  0.51008075  1
  Mo  Mo189  1  0.79069663  0.59956416  0.25654969  1
  Mo  Mo190  1  0.40833698  0.39374077  -0.00261198  1
  Mo  Mo191  1  0.90516023  0.30079100  0.37750712  1
  Mo  Mo192  1  0.10435569  0.10758695  0.62678560  1
  Mo  Mo193  1  0.89375864  0.29994990  0.11431378  1
  Mo  Mo194  1  0.50599552  0.49763694  0.62983606  1
  Mo  Mo195  1  0.30002667  0.90732162  0.38848445  1
  Mo  Mo196  1  -0.00788853  0.80535643  0.73942452  1
  Mo  Mo197  1  0.61096899  0.19958157  -0.00473959  1
  Mo  Mo198  1  0.50504531  0.09222113  0.11809632  1
  Mo  Mo199  1  0.01042676  0.39864748  0.50493440  1
