# generated using pymatgen
data_HfZrTaTiMo
_symmetry_space_group_name_H-M   'P 1'
_cell_length_a   15.20732696
_cell_length_b   15.20344037
_cell_length_c   16.81997283
_cell_angle_alpha   90.06202261
_cell_angle_beta   89.98359065
_cell_angle_gamma   89.95577333
_symmetry_Int_Tables_number   1
_chemical_formula_structural   HfZrTaTiMo
_chemical_formula_sum   'Hf40 Zr40 Ta40 Ti40 Mo40'
_cell_volume   3888.83616175
_cell_formula_units_Z   40
loop_
 _symmetry_equiv_pos_site_id
 _symmetry_equiv_pos_as_xyz
  1  'x, y, z'
loop_
 _atom_site_type_symbol
 _atom_site_label
 _atom_site_symmetry_multiplicity
 _atom_site_fract_x
 _atom_site_fract_y
 _atom_site_fract_z
 _atom_site_occupancy
  Hf  Hf0  1  0.31974558  0.30348000  0.37674465  1
  Hf  Hf1  1  0.19148688  0.79863948  0.73152405  1
  Hf  Hf2  1  0.89785980  0.70817307  0.63513353  1
  Hf  Hf3  1  0.69444033  0.11221840  0.12573730  1
  Hf  Hf4  1  -0.00033957  0.60879754  0.50577374  1
  Hf  Hf5  1  0.10772185  0.90845677  0.11532478  1
  Hf  Hf6  1  0.20818052  0.20225768  0.49644138  1
  Hf  Hf7  1  0.40776791  0.40362086  0.72622862  1
  Hf  Hf8  1  0.30386035  0.91705834  0.61918024  1
  Hf  Hf9  1  0.11256705  0.09781013  0.62044163  1
  Hf  Hf10  1  0.80770447  -0.00577108  0.74602377  1
  Hf  Hf11  1  0.30561708  0.28113071  0.11665911  1
  Hf  Hf12  1  0.39392510  0.78172220  -0.00007462  1
  Hf  Hf13  1  0.00764495  0.00937267  0.76341315  1
  Hf  Hf14  1  -0.01408058  -0.00013175  0.48688127  1
  Hf  Hf15  1  0.21250894  0.60492850  0.00140758  1
  Hf  Hf16  1  0.88738324  0.68329270  0.12283305  1
  Hf  Hf17  1  0.20168558  0.39933297  0.74086671  1
  Hf  Hf18  1  0.90326912  0.30427487  0.62314644  1
  Hf  Hf19  1  0.09476735  0.29242711  0.62659290  1
  Hf  Hf20  1  0.30766659  0.50806632  0.87073653  1
  Hf  Hf21  1  0.48875448  0.10286545  0.12554408  1
  Hf  Hf22  1  0.79194584  0.40630980  0.74617569  1
  Hf  Hf23  1  0.59963232  0.58844755  0.74852116  1
  Hf  Hf24  1  0.49278913  0.68767394  0.13328255  1
  Hf  Hf25  1  0.69040398  0.50332456  0.38529750  1
  Hf  Hf26  1  0.90309572  0.10478829  0.10339032  1
  Hf  Hf27  1  0.70346550  0.88315024  0.86756731  1
  Hf  Hf28  1  0.00135601  0.39572753  -0.00861391  1
  Hf  Hf29  1  0.10956987  0.50587997  0.87607362  1
  Hf  Hf30  1  -0.01127615  0.81395244  0.75847096  1
  Hf  Hf31  1  0.89875229  0.70982738  0.36892281  1
  Hf  Hf32  1  0.71094094  0.50231145  0.13058448  1
  Hf  Hf33  1  0.58795824  0.20687196  0.25759069  1
  Hf  Hf34  1  0.89374593  0.10910103  0.89285984  1
  Hf  Hf35  1  0.39860365  -0.00142572  0.75705897  1
  Hf  Hf36  1  0.10557486  0.50185764  0.37755953  1
  Hf  Hf37  1  0.79959919  0.40213463  0.49771815  1
  Hf  Hf38  1  0.90937656  0.10672915  0.62853821  1
  Hf  Hf39  1  0.70018825  0.69720238  0.36802747  1
  Zr  Zr40  1  0.51931984  0.29104145  0.86574479  1
  Zr  Zr41  1  0.80382365  0.80907173  0.50819586  1
  Zr  Zr42  1  -0.00996777  0.80762071  0.23894795  1
  Zr  Zr43  1  0.80580938  0.00015967  0.23950282  1
  Zr  Zr44  1  -0.00414865  0.39929488  0.76323362  1
  Zr  Zr45  1  0.40728064  0.40347740  0.00637779  1
  Zr  Zr46  1  0.70177991  0.90531716  0.36352488  1
  Zr  Zr47  1  -0.00415651  0.58428833  0.24670318  1
  Zr  Zr48  1  0.78292317  0.00246603  0.51238586  1
  Zr  Zr49  1  0.80997802  0.41683150  0.25681091  1
  Zr  Zr50  1  0.10812252  0.12034034  0.11107000  1
  Zr  Zr51  1  0.29104106  0.88501032  0.86751397  1
  Zr  Zr52  1  0.21559248  0.20013903  0.25189399  1
  Zr  Zr53  1  0.19748334  0.79135000  0.25839572  1
  Zr  Zr54  1  -0.00289384  0.00219433  0.25106026  1
  Zr  Zr55  1  0.51495733  0.08348465  0.60899678  1
  Zr  Zr56  1  0.20939216  0.41172731  0.23897218  1
  Zr  Zr57  1  0.59815062  0.00701143  0.75804487  1
  Zr  Zr58  1  0.09947155  0.69156075  0.12050221  1
  Zr  Zr59  1  0.40737112  0.18806193  0.74692607  1
  Zr  Zr60  1  0.39127796  0.58642682  0.26065076  1
  Zr  Zr61  1  0.39160753  0.80106883  0.26821040  1
  Zr  Zr62  1  0.00082707  0.20867129  0.25049616  1
  Zr  Zr63  1  -0.00221910  0.60739948  0.75957761  1
  Zr  Zr64  1  0.60508906  0.79067500  0.00134479  1
  Zr  Zr65  1  0.50007766  0.49310011  0.86940210  1
  Zr  Zr66  1  0.58771968  0.59462061  -0.00609611  1
  Zr  Zr67  1  0.19228324  0.79791263  0.50454390  1
  Zr  Zr68  1  0.20753492  0.60349182  0.52198933  1
  Zr  Zr69  1  0.80499072  0.19756696  0.48316545  1
  Zr  Zr70  1  0.30461114  0.30376041  0.87427267  1
  Zr  Zr71  1  0.50886521  0.10773531  0.39005875  1
  Zr  Zr72  1  0.89548172  0.30654384  0.11696402  1
  Zr  Zr73  1  0.10114185  0.10579109  0.37596423  1
  Zr  Zr74  1  0.48698105  0.89881382  0.12835703  1
  Zr  Zr75  1  0.78456208  0.60442773  -0.01591446  1
  Zr  Zr76  1  0.79552503  0.21261469  0.26236312  1
  Zr  Zr77  1  0.60078141  0.80432147  0.50030123  1
  Zr  Zr78  1  0.20990034  -0.01054046  0.25949127  1
  Zr  Zr79  1  0.58896522  0.00033530  -0.00806727  1
  Ta  Ta80  1  0.40695572  0.18621266  -0.01264952  1
  Ta  Ta81  1  0.31628630  0.09385292  0.38570435  1
  Ta  Ta82  1  0.49113117  0.69815555  0.86068397  1
  Ta  Ta83  1  0.19980767  0.00624400  0.75572037  1
  Ta  Ta84  1  0.29898552  0.69486027  0.86095301  1
  Ta  Ta85  1  0.59284517  0.38837619  0.50287214  1
  Ta  Ta86  1  0.49655038  0.91052790  0.37942808  1
  Ta  Ta87  1  -0.00539815  0.79724644  -0.00141313  1
  Ta  Ta88  1  0.40252393  0.00881564  0.25681210  1
  Ta  Ta89  1  0.39459547  0.60200841  0.72570074  1
  Ta  Ta90  1  0.59660291  0.59330933  0.25526413  1
  Ta  Ta91  1  0.39861819  0.39936550  0.51996393  1
  Ta  Ta92  1  0.30223896  0.49676104  0.39054781  1
  Ta  Ta93  1  0.50724861  0.70168154  0.62218740  1
  Ta  Ta94  1  0.40860848  0.20559186  0.51226864  1
  Ta  Ta95  1  0.39724132  0.79817001  0.49994632  1
  Ta  Ta96  1  0.59291093  0.80121391  0.25557735  1
  Ta  Ta97  1  0.60625591  0.20912964  0.00168846  1
  Ta  Ta98  1  0.91432718  0.31507785  0.37586094  1
  Ta  Ta99  1  0.50973124  0.29893140  0.12251995  1
  Ta  Ta100  1  0.89348129  0.50705656  0.62414548  1
  Ta  Ta101  1  0.38447676  -0.00740161  -0.01250375  1
  Ta  Ta102  1  0.19725201  0.19132787  0.76417296  1
  Ta  Ta103  1  0.78998165  -0.00599272  0.00606359  1
  Ta  Ta104  1  0.20250551  0.39996522  0.51264314  1
  Ta  Ta105  1  0.49586085  0.88630294  0.87229143  1
  Ta  Ta106  1  0.60219899  0.39689963  0.25813287  1
  Ta  Ta107  1  0.70045349  0.28483806  0.62113804  1
  Ta  Ta108  1  0.10660565  0.71007279  0.87997365  1
  Ta  Ta109  1  0.89714744  0.90254319  0.89278828  1
  Ta  Ta110  1  0.20293372  -0.00421125  0.49021316  1
  Ta  Ta111  1  0.00414630  0.20508324  0.77395300  1
  Ta  Ta112  1  0.88668512  0.49726607  0.87981491  1
  Ta  Ta113  1  0.79921381  0.20033740  0.75261539  1
  Ta  Ta114  1  0.69828859  0.70125620  0.63877386  1
  Ta  Ta115  1  0.20076953  0.60424177  0.73116068  1
  Ta  Ta116  1  -0.00281306  0.80554585  0.50307904  1
  Ta  Ta117  1  0.69710979  0.10995865  0.88087447  1
  Ta  Ta118  1  0.10884696  0.31375662  0.37803928  1
  Ta  Ta119  1  0.08843504  0.49920313  0.62761526  1
  Ti  Ti120  1  0.69311597  0.50296083  0.61306364  1
  Ti  Ti121  1  0.79569189  0.80097887  0.01119319  1
  Ti  Ti122  1  0.29623074  0.68844364  0.38261163  1
  Ti  Ti123  1  0.69061304  0.69914482  0.14006908  1
  Ti  Ti124  1  0.79436107  0.60247354  0.76082179  1
  Ti  Ti125  1  0.71356382  0.30237650  0.87442318  1
  Ti  Ti126  1  0.79332002  0.60928227  0.50703069  1
  Ti  Ti127  1  0.29841076  0.07692457  0.11599089  1
  Ti  Ti128  1  0.51485098  0.28671457  0.62568316  1
  Ti  Ti129  1  0.29653056  0.70197714  0.13418486  1
  Ti  Ti130  1  0.20087891  0.19198930  -0.02035373  1
  Ti  Ti131  1  0.40875227  0.59628929  0.51749633  1
  Ti  Ti132  1  0.09957735  0.90198603  0.88463116  1
  Ti  Ti133  1  0.19818486  0.39159544  0.00605604  1
  Ti  Ti134  1  -0.00608906  0.60134062  -0.00988551  1
  Ti  Ti135  1  0.00697942  0.00106251  -0.00567204  1
  Ti  Ti136  1  0.09173154  0.89024973  0.37674393  1
  Ti  Ti137  1  0.89856303  0.51248428  0.38273403  1
  Ti  Ti138  1  0.69661523  0.09646893  0.36912518  1
  Ti  Ti139  1  0.00285243  0.40482567  0.50038443  1
  Ti  Ti140  1  0.01039610  0.39606831  0.23748065  1
  Ti  Ti141  1  0.30734648  0.50797398  0.12202598  1
  Ti  Ti142  1  0.49235932  0.49205879  0.38678036  1
  Ti  Ti143  1  0.69069461  0.90185873  0.13323185  1
  Ti  Ti144  1  0.79448404  0.39733897  -0.00212752  1
  Ti  Ti145  1  0.68467339  0.89884498  0.63892907  1
  Ti  Ti146  1  0.08339540  0.90571554  0.62189559  1
  Ti  Ti147  1  0.00056094  0.20646672  0.48662041  1
  Ti  Ti148  1  0.09730464  0.49667281  0.11600674  1
  Ti  Ti149  1  0.79936169  0.80262384  0.23705798  1
  Ti  Ti150  1  0.40386425  0.79770012  0.73413634  1
  Ti  Ti151  1  0.41225393  0.38613912  0.24738809  1
  Ti  Ti152  1  0.50243729  0.68855793  0.38650533  1
  Ti  Ti153  1  0.29770708  0.28334405  0.62991659  1
  Ti  Ti154  1  0.20236766  0.80651437  0.00394359  1
  Ti  Ti155  1  0.88467490  0.71218503  0.87493328  1
  Ti  Ti156  1  0.61169226  0.39970581  0.00169959  1
  Ti  Ti157  1  0.50512961  0.49335767  0.13007498  1
  Ti  Ti158  1  0.09902707  0.69301715  0.37203177  1
  Ti  Ti159  1  0.60646765  0.39161748  0.73764293  1
  Mo  Mo160  1  0.69373049  0.30406459  0.38160987  1
  Mo  Mo161  1  0.69397730  0.69706407  0.85540706  1
  Mo  Mo162  1  0.39832810  0.19898776  0.24863664  1
  Mo  Mo163  1  0.10890668  0.30552511  0.11339010  1
  Mo  Mo164  1  0.30920993  0.70768750  0.62511953  1
  Mo  Mo165  1  0.89637067  0.89878083  0.10030165  1
  Mo  Mo166  1  0.60582268  -0.00628096  0.50218673  1
  Mo  Mo167  1  0.00814294  0.20819044  -0.01840271  1
  Mo  Mo168  1  0.59299929  -0.00461783  0.24870369  1
  Mo  Mo169  1  0.79535119  0.79900366  0.74953560  1
  Mo  Mo170  1  0.79156103  0.20697422  -0.00093722  1
  Mo  Mo171  1  0.50908592  0.49677259  0.61741449  1
  Mo  Mo172  1  0.50057515  0.31261313  0.38214507  1
  Mo  Mo173  1  0.90471951  0.90695289  0.62915392  1
  Mo  Mo174  1  0.30065477  0.09577161  0.87684069  1
  Mo  Mo175  1  0.61468112  0.20166026  0.75045246  1
  Mo  Mo176  1  0.29988819  0.10370410  0.61787469  1
  Mo  Mo177  1  0.59950767  0.59756302  0.50836146  1
  Mo  Mo178  1  0.30097675  0.89777086  0.12146268  1
  Mo  Mo179  1  0.40133991  -0.00562877  0.49698310  1
  Mo  Mo180  1  0.20563772  0.59628992  0.25251370  1
  Mo  Mo181  1  0.61179451  0.20121025  0.49437798  1
  Mo  Mo182  1  0.59038488  0.79688049  0.74653819  1
  Mo  Mo183  1  0.10297297  0.09649566  0.88480860  1
  Mo  Mo184  1  0.90655361  0.50257123  0.10917704  1
  Mo  Mo185  1  0.39610903  0.60187472  0.00287898  1
  Mo  Mo186  1  0.29900365  0.49580223  0.62040845  1
  Mo  Mo187  1  0.09231903  0.70554556  0.62995976  1
  Mo  Mo188  1  0.50272954  0.09479405  0.88216779  1
  Mo  Mo189  1  0.70388653  0.10727181  0.63206762  1
  Mo  Mo190  1  0.69753764  0.48624027  0.87083836  1
  Mo  Mo191  1  0.69045113  0.30946420  0.12334658  1
  Mo  Mo192  1  0.10453071  0.29933776  0.87680156  1
  Mo  Mo193  1  0.89005516  0.30248059  0.87856264  1
  Mo  Mo194  1  0.49989517  0.88985947  0.62338164  1
  Mo  Mo195  1  0.30295201  0.90046353  0.39017431  1
  Mo  Mo196  1  0.79397796  0.60715545  0.25274668  1
  Mo  Mo197  1  0.90112004  0.90037975  0.37182294  1
  Mo  Mo198  1  0.89489826  0.10377741  0.37343696  1
  Mo  Mo199  1  0.20158872  -0.00243795  -0.00684053  1
