# generated using pymatgen
data_HfZrTaTiMo
_symmetry_space_group_name_H-M   'P 1'
_cell_length_a   15.21864659
_cell_length_b   15.20735274
_cell_length_c   16.85162177
_cell_angle_alpha   90.04257649
_cell_angle_beta   90.03010837
_cell_angle_gamma   89.91963589
_symmetry_Int_Tables_number   1
_chemical_formula_structural   HfZrTaTiMo
_chemical_formula_sum   'Hf40 Zr40 Ta40 Ti40 Mo40'
_cell_volume   3900.05514644
_cell_formula_units_Z   40
loop_
 _symmetry_equiv_pos_site_id
 _symmetry_equiv_pos_as_xyz
  1  'x, y, z'
loop_
 _atom_site_type_symbol
 _atom_site_label
 _atom_site_symmetry_multiplicity
 _atom_site_fract_x
 _atom_site_fract_y
 _atom_site_fract_z
 _atom_site_occupancy
  Hf  Hf0  1  -0.00276692  0.80264886  0.76082510  1
  Hf  Hf1  1  -0.00726195  0.20458263  0.49351456  1
  Hf  Hf2  1  0.70760577  0.71235455  0.63709823  1
  Hf  Hf3  1  0.10786318  0.51883159  0.62272002  1
  Hf  Hf4  1  0.59637015  0.60749796  0.24137702  1
  Hf  Hf5  1  -0.00245817  -0.00481750  0.49430579  1
  Hf  Hf6  1  -0.01488808  0.20934990  0.26299767  1
  Hf  Hf7  1  0.89808469  0.08227937  0.87399119  1
  Hf  Hf8  1  0.39016044  0.61081260  0.00167350  1
  Hf  Hf9  1  0.88256191  0.08603900  0.37414317  1
  Hf  Hf10  1  0.59377940  0.59497160  0.51050617  1
  Hf  Hf11  1  0.09458834  0.10063729  0.87106681  1
  Hf  Hf12  1  0.39912912  0.01148471  0.75004088  1
  Hf  Hf13  1  0.88919717  0.10399006  0.13335481  1
  Hf  Hf14  1  0.41588110  0.39143266  0.50063413  1
  Hf  Hf15  1  0.78984169  0.20365789  0.75063953  1
  Hf  Hf16  1  0.79068319  -0.00405668  0.74385707  1
  Hf  Hf17  1  0.91407525  0.69057195  0.63270359  1
  Hf  Hf18  1  0.78466959  0.20813709  0.49152733  1
  Hf  Hf19  1  0.49249622  0.70841337  0.37763271  1
  Hf  Hf20  1  0.80368203  0.20063920  -0.00931784  1
  Hf  Hf21  1  0.11438225  0.69340533  0.12089804  1
  Hf  Hf22  1  0.58249313  0.60317744  0.74485780  1
  Hf  Hf23  1  0.79868378  0.58427053  0.24221417  1
  Hf  Hf24  1  0.30103216  0.90069231  0.62476956  1
  Hf  Hf25  1  0.19468545  -0.00813148  0.00171537  1
  Hf  Hf26  1  0.20835395  0.39496816  -0.01270498  1
  Hf  Hf27  1  0.31212347  0.89631837  0.88432186  1
  Hf  Hf28  1  0.29866868  0.09442292  0.12774812  1
  Hf  Hf29  1  0.49214984  0.70996642  0.88118524  1
  Hf  Hf30  1  0.00059366  0.38752222  0.00102249  1
  Hf  Hf31  1  0.11306318  0.90143325  0.36267463  1
  Hf  Hf32  1  0.60911157  0.01586025  0.24734783  1
  Hf  Hf33  1  0.68106010  0.11257417  0.61971791  1
  Hf  Hf34  1  0.70856771  0.51220594  0.86857650  1
  Hf  Hf35  1  0.40327720  0.79419499  0.74801987  1
  Hf  Hf36  1  0.59951883  0.81646782  0.00713757  1
  Hf  Hf37  1  0.31278057  0.29114281  0.61514458  1
  Hf  Hf38  1  0.60601910  0.38854216  0.75327154  1
  Hf  Hf39  1  -0.00863358  0.58855713  0.00190273  1
  Zr  Zr40  1  0.20482000  0.20255477  -0.00668438  1
  Zr  Zr41  1  0.00932369  0.58448251  0.23905859  1
  Zr  Zr42  1  0.00082825  0.19388798  0.00079723  1
  Zr  Zr43  1  0.49951929  0.30422568  0.88202486  1
  Zr  Zr44  1  0.88405040  0.88641184  0.61234626  1
  Zr  Zr45  1  0.19212552  0.79799959  0.76169310  1
  Zr  Zr46  1  0.19864064  -0.00357491  0.75250455  1
  Zr  Zr47  1  -0.00289450  0.39761460  0.23893758  1
  Zr  Zr48  1  0.59298821  0.81763783  0.24079959  1
  Zr  Zr49  1  0.39997242  0.39442845  0.25343380  1
  Zr  Zr50  1  0.00351467  0.78043406  0.48957989  1
  Zr  Zr51  1  0.70382880  0.49799980  0.63574397  1
  Zr  Zr52  1  0.00716746  0.79872651  0.24449691  1
  Zr  Zr53  1  0.29955409  0.49772880  0.12007553  1
  Zr  Zr54  1  0.18950646  0.18955701  0.26474624  1
  Zr  Zr55  1  0.21609045  0.40479297  0.74632105  1
  Zr  Zr56  1  -0.00597459  0.00179013  0.73607486  1
  Zr  Zr57  1  0.60361426  0.40994595  0.24408127  1
  Zr  Zr58  1  0.28731495  0.68665423  0.62649315  1
  Zr  Zr59  1  0.89504521  0.70165191  0.12881124  1
  Zr  Zr60  1  0.50199921  0.50096913  0.37880329  1
  Zr  Zr61  1  0.69907257  0.91300661  0.38145623  1
  Zr  Zr62  1  0.80167859  0.80262106  -0.00807685  1
  Zr  Zr63  1  0.60573443  0.79946879  0.50640425  1
  Zr  Zr64  1  0.59066142  0.20989415  0.25892053  1
  Zr  Zr65  1  0.80299964  0.37840772  0.25695939  1
  Zr  Zr66  1  0.21368120  0.19752003  0.75226188  1
  Zr  Zr67  1  0.90604032  0.68662698  0.36472488  1
  Zr  Zr68  1  0.48305357  0.11247443  0.61465303  1
  Zr  Zr69  1  0.28929757  0.51134169  0.38929307  1
  Zr  Zr70  1  0.80573040  0.60917071  0.50203830  1
  Zr  Zr71  1  0.89041532  0.68319754  0.86976349  1
  Zr  Zr72  1  0.20430813  0.79174764  0.49714018  1
  Zr  Zr73  1  0.49405330  0.30640069  0.11512227  1
  Zr  Zr74  1  0.80878454  0.39621014  0.50495753  1
  Zr  Zr75  1  0.00707044  0.00541880  0.25324840  1
  Zr  Zr76  1  0.40808183  -0.00778741  0.25258712  1
  Zr  Zr77  1  0.00384043  0.82097887  0.00954937  1
  Zr  Zr78  1  0.70967698  0.29362384  0.11576337  1
  Zr  Zr79  1  0.39233099  0.60680712  0.24433841  1
  Ta  Ta80  1  0.30982191  0.88340897  0.36872289  1
  Ta  Ta81  1  0.69776978  0.90976131  0.87255856  1
  Ta  Ta82  1  0.29114032  0.10067770  0.61076405  1
  Ta  Ta83  1  0.81249402  0.40526952  0.75593733  1
  Ta  Ta84  1  0.29629157  0.71049221  0.12587045  1
  Ta  Ta85  1  0.58339894  0.21182413  0.48394881  1
  Ta  Ta86  1  0.61355424  0.39290843  0.50185186  1
  Ta  Ta87  1  0.10054323  0.29980770  0.85843902  1
  Ta  Ta88  1  0.19416137  0.40392161  0.25532958  1
  Ta  Ta89  1  0.50176829  0.10057523  0.88917741  1
  Ta  Ta90  1  0.79015866  0.59461454  0.00521023  1
  Ta  Ta91  1  0.19565503  -0.00074594  0.49773543  1
  Ta  Ta92  1  0.10950944  0.49229995  0.11379702  1
  Ta  Ta93  1  0.09684664  0.31356903  0.38390406  1
  Ta  Ta94  1  0.70553328  0.30332935  0.88068627  1
  Ta  Ta95  1  0.49830294  0.10007927  0.11108245  1
  Ta  Ta96  1  0.50561134  0.91409180  0.88234702  1
  Ta  Ta97  1  0.90966897  0.48606630  0.38229031  1
  Ta  Ta98  1  0.81337375  0.40537118  -0.00820924  1
  Ta  Ta99  1  0.09762717  0.09319392  0.12532357  1
  Ta  Ta100  1  0.31078282  0.50316734  0.87453695  1
  Ta  Ta101  1  0.12728304  0.68537420  0.36070639  1
  Ta  Ta102  1  0.29726018  0.29648061  0.38291917  1
  Ta  Ta103  1  0.59215309  0.01036703  0.75120597  1
  Ta  Ta104  1  0.50241045  0.90576240  0.62065514  1
  Ta  Ta105  1  0.69665856  0.70612748  0.12416912  1
  Ta  Ta106  1  0.20089444  0.60229316  0.76717590  1
  Ta  Ta107  1  0.39610072  0.19415137  0.26231971  1
  Ta  Ta108  1  0.09667185  0.89020285  0.61988696  1
  Ta  Ta109  1  0.70736863  0.70921995  0.36799269  1
  Ta  Ta110  1  0.10154036  0.29569498  0.62701994  1
  Ta  Ta111  1  0.88521317  0.88547102  0.36697620  1
  Ta  Ta112  1  0.50508877  0.50999865  0.88462605  1
  Ta  Ta113  1  0.90752846  0.49962853  0.63475698  1
  Ta  Ta114  1  0.09728174  0.10286992  0.62031999  1
  Ta  Ta115  1  0.10546568  0.29348037  0.12921106  1
  Ta  Ta116  1  0.00836706  0.39851693  0.74433095  1
  Ta  Ta117  1  0.70615217  0.50572305  0.37934262  1
  Ta  Ta118  1  0.49071337  0.71586794  0.11655307  1
  Ta  Ta119  1  0.39391656  -0.00637623  0.49373561  1
  Ti  Ti120  1  0.69855312  0.50154990  0.11505548  1
  Ti  Ti121  1  0.28989904  0.08457436  0.37647714  1
  Ti  Ti122  1  0.77794451  0.18580162  0.26835326  1
  Ti  Ti123  1  0.88442325  0.90669070  0.13946553  1
  Ti  Ti124  1  0.59817062  0.81575099  0.75058021  1
  Ti  Ti125  1  0.68974420  0.90745166  0.62198760  1
  Ti  Ti126  1  0.09743241  0.49772855  0.87684715  1
  Ti  Ti127  1  0.40129629  0.79308361  0.50631689  1
  Ti  Ti128  1  0.10168806  0.69683994  0.89018923  1
  Ti  Ti129  1  0.39356375  0.20816151  -0.00138430  1
  Ti  Ti130  1  0.31077534  0.10312971  0.88319001  1
  Ti  Ti131  1  0.60897333  0.41423150  -0.00330455  1
  Ti  Ti132  1  0.12945342  0.89891585  0.13973301  1
  Ti  Ti133  1  0.68962450  0.10150806  0.87774371  1
  Ti  Ti134  1  0.68826119  0.70339358  0.87153154  1
  Ti  Ti135  1  0.41080852  0.41091199  0.74630637  1
  Ti  Ti136  1  0.69840821  0.08752839  0.11478421  1
  Ti  Ti137  1  0.90110439  0.29612273  0.63543484  1
  Ti  Ti138  1  0.78770098  0.00004548  0.50554840  1
  Ti  Ti139  1  0.40410933  0.40338591  -0.00256354  1
  Ti  Ti140  1  0.32223398  0.89300492  0.12168108  1
  Ti  Ti141  1  0.08508436  0.90814653  0.88317044  1
  Ti  Ti142  1  0.00377788  0.40125027  0.51231485  1
  Ti  Ti143  1  0.21284166  0.78834344  -0.00639375  1
  Ti  Ti144  1  0.50190941  0.90381680  0.38703092  1
  Ti  Ti145  1  0.91045120  0.29637769  0.86069586  1
  Ti  Ti146  1  0.80383390  -0.00792574  0.00029745  1
  Ti  Ti147  1  0.51908125  0.29966428  0.63029870  1
  Ti  Ti148  1  0.49527655  0.09665118  0.38545205  1
  Ti  Ti149  1  0.48654863  0.69031851  0.62414121  1
  Ti  Ti150  1  0.79733134  0.80145674  0.76412053  1
  Ti  Ti151  1  0.29501383  0.29500138  0.13401950  1
  Ti  Ti152  1  0.60098035  0.20208642  -0.00030094  1
  Ti  Ti153  1  0.41129102  0.20977608  0.75832831  1
  Ti  Ti154  1  0.09564333  0.50262737  0.38689641  1
  Ti  Ti155  1  0.31693295  0.50462995  0.61656885  1
  Ti  Ti156  1  0.89449917  0.10327033  0.61926793  1
  Ti  Ti157  1  0.00339958  0.59450570  0.76047448  1
  Ti  Ti158  1  0.19277516  0.19696170  0.49125771  1
  Ti  Ti159  1  0.19912333  0.39899994  0.50803347  1
  Mo  Mo160  1  0.20973328  -0.00534414  0.24595142  1
  Mo  Mo161  1  0.40771474  0.79989270  0.24573876  1
  Mo  Mo162  1  0.61193516  0.01104263  -0.00198253  1
  Mo  Mo163  1  0.51006668  0.51227210  0.09884846  1
  Mo  Mo164  1  0.90294441  0.30117961  0.38209104  1
  Mo  Mo165  1  0.19416797  0.59696726  0.50057582  1
  Mo  Mo166  1  0.49409281  0.49488101  0.62560832  1
  Mo  Mo167  1  0.40501294  0.00669452  0.00254986  1
  Mo  Mo168  1  0.89960196  0.29422575  0.11991064  1
  Mo  Mo169  1  0.79266666  -0.00336039  0.24670364  1
  Mo  Mo170  1  0.40074070  0.60503140  0.50384407  1
  Mo  Mo171  1  0.69903063  0.29846680  0.62954005  1
  Mo  Mo172  1  -0.00290391  -0.00522237  0.01694452  1
  Mo  Mo173  1  0.70958764  0.90592144  0.12484680  1
  Mo  Mo174  1  0.60145603  0.60752082  0.00353015  1
  Mo  Mo175  1  0.89473579  0.90329273  0.87546903  1
  Mo  Mo176  1  0.30937542  0.30529678  0.86985101  1
  Mo  Mo177  1  0.19510708  0.59869084  -0.01532911  1
  Mo  Mo178  1  0.00690801  0.58897963  0.49630600  1
  Mo  Mo179  1  0.89073147  0.48915441  0.11590733  1
  Mo  Mo180  1  0.80163773  0.80330429  0.49568483  1
  Mo  Mo181  1  0.90758533  0.48814674  0.86548075  1
  Mo  Mo182  1  0.50279965  0.91747427  0.11314379  1
  Mo  Mo183  1  0.30588925  0.70242256  0.37682866  1
  Mo  Mo184  1  0.59505206  0.19383536  0.76056611  1
  Mo  Mo185  1  0.59072577  0.00597514  0.50403964  1
  Mo  Mo186  1  0.39742098  0.80962762  0.00137267  1
  Mo  Mo187  1  0.39328617  0.58862613  0.75458823  1
  Mo  Mo188  1  0.69265077  0.30992789  0.37531468  1
  Mo  Mo189  1  0.79003769  0.79678141  0.24672096  1
  Mo  Mo190  1  0.49186267  0.29743637  0.37335337  1
  Mo  Mo191  1  0.22286686  0.79403481  0.24900594  1
  Mo  Mo192  1  0.38417615  0.19027299  0.47967116  1
  Mo  Mo193  1  0.10235492  0.10063466  0.38520910  1
  Mo  Mo194  1  0.68698459  0.10125907  0.38828430  1
  Mo  Mo195  1  0.29559501  0.69683480  0.87542818  1
  Mo  Mo196  1  0.09531385  0.70015855  0.63378373  1
  Mo  Mo197  1  -0.00162046  0.20346703  0.73689635  1
  Mo  Mo198  1  0.20062499  0.58959688  0.24613126  1
  Mo  Mo199  1  0.80123350  0.60419548  0.75038048  1
