# generated using pymatgen
data_HfZrTaTiMo
_symmetry_space_group_name_H-M   'P 1'
_cell_length_a   15.20913153
_cell_length_b   15.20644634
_cell_length_c   16.83356840
_cell_angle_alpha   90.08088947
_cell_angle_beta   90.02660163
_cell_angle_gamma   89.93294479
_symmetry_Int_Tables_number   1
_chemical_formula_structural   HfZrTaTiMo
_chemical_formula_sum   'Hf40 Zr40 Ta40 Ti40 Mo40'
_cell_volume   3893.20758570
_cell_formula_units_Z   40
loop_
 _symmetry_equiv_pos_site_id
 _symmetry_equiv_pos_as_xyz
  1  'x, y, z'
loop_
 _atom_site_type_symbol
 _atom_site_label
 _atom_site_symmetry_multiplicity
 _atom_site_fract_x
 _atom_site_fract_y
 _atom_site_fract_z
 _atom_site_occupancy
  Hf  Hf0  1  0.30897965  0.89097705  0.86785246  1
  Hf  Hf1  1  0.58947979  0.40524379  -0.00615225  1
  Hf  Hf2  1  0.38781014  0.42024542  0.49911616  1
  Hf  Hf3  1  0.90031536  0.89753446  0.35368835  1
  Hf  Hf4  1  0.18768948  -0.02406130  0.50864422  1
  Hf  Hf5  1  0.17605493  0.39309131  0.26408510  1
  Hf  Hf6  1  -0.00113333  0.40328596  -0.00731148  1
  Hf  Hf7  1  0.79540184  0.20273564  0.76038148  1
  Hf  Hf8  1  0.39913887  0.00349323  0.25135206  1
  Hf  Hf9  1  0.11714953  0.48975876  0.61163750  1
  Hf  Hf10  1  0.89957893  0.31561589  0.37025116  1
  Hf  Hf11  1  0.60566867  0.59890633  0.48654108  1
  Hf  Hf12  1  0.50020542  0.92111284  0.10708970  1
  Hf  Hf13  1  0.18517537  -0.00970344  0.74288200  1
  Hf  Hf14  1  0.71468765  0.69576131  0.63815250  1
  Hf  Hf15  1  0.01524145  0.80162767  0.49541663  1
  Hf  Hf16  1  -0.00021303  -0.00615368  0.01107432  1
  Hf  Hf17  1  0.78599929  0.41176631  -0.00592063  1
  Hf  Hf18  1  0.68486782  0.10506137  0.11555018  1
  Hf  Hf19  1  0.41908473  0.59903684  0.75876323  1
  Hf  Hf20  1  0.28319619  0.30072739  0.38754443  1
  Hf  Hf21  1  0.90308436  0.50153655  0.12257467  1
  Hf  Hf22  1  0.80088847  -0.00016649  0.49787817  1
  Hf  Hf23  1  0.10005585  0.88807676  0.89002886  1
  Hf  Hf24  1  0.89209096  0.10662222  0.12132789  1
  Hf  Hf25  1  0.70290913  0.70350097  0.34416202  1
  Hf  Hf26  1  0.32173173  0.68346485  0.61703388  1
  Hf  Hf27  1  0.19720904  0.39505313  0.00372705  1
  Hf  Hf28  1  0.28236227  0.28989057  0.86233104  1
  Hf  Hf29  1  -0.03092676  0.39668294  0.52359677  1
  Hf  Hf30  1  0.10189501  0.27809663  0.61809822  1
  Hf  Hf31  1  0.90429359  0.90873514  0.63189836  1
  Hf  Hf32  1  0.12204301  0.69829603  0.60684433  1
  Hf  Hf33  1  0.50009927  0.91444155  0.88646187  1
  Hf  Hf34  1  0.00720061  0.21483216  0.24804864  1
  Hf  Hf35  1  0.71352324  0.70118683  0.87083978  1
  Hf  Hf36  1  0.60673279  0.00649763  0.76020660  1
  Hf  Hf37  1  0.70493348  0.10930915  0.37524894  1
  Hf  Hf38  1  0.69446640  0.30688702  0.12826902  1
  Hf  Hf39  1  0.90068626  0.89248601  0.13217941  1
  Zr  Zr40  1  0.70210066  0.50210782  0.35641450  1
  Zr  Zr41  1  0.59595085  0.20704015  0.26164596  1
  Zr  Zr42  1  0.70417133  0.10153097  0.62462353  1
  Zr  Zr43  1  0.52016836  0.69069977  0.62821636  1
  Zr  Zr44  1  0.30321970  0.69140740  0.13397179  1
  Zr  Zr45  1  0.48056488  0.30589053  0.87054973  1
  Zr  Zr46  1  0.01439641  0.80912375  0.74264587  1
  Zr  Zr47  1  0.89758211  0.09481590  0.88568396  1
  Zr  Zr48  1  0.59045440  0.00573318  0.25279249  1
  Zr  Zr49  1  0.10313493  0.49383461  0.86662001  1
  Zr  Zr50  1  0.29906361  0.89268668  0.37349925  1
  Zr  Zr51  1  0.81253740  0.21354179  0.50606532  1
  Zr  Zr52  1  0.38675734  0.39173653  0.01186469  1
  Zr  Zr53  1  0.10283990  0.10054989  0.37272607  1
  Zr  Zr54  1  0.68587322  0.30951396  0.63520332  1
  Zr  Zr55  1  -0.01158100  0.38993571  0.73749400  1
  Zr  Zr56  1  0.40229958  0.59779909  0.00172512  1
  Zr  Zr57  1  0.40790846  0.21368159  0.50574637  1
  Zr  Zr58  1  0.61014804  0.60521116  0.00365425  1
  Zr  Zr59  1  0.90849011  0.68570851  0.37013801  1
  Zr  Zr60  1  0.11008399  0.10451236  0.12172205  1
  Zr  Zr61  1  0.70104750  0.89492887  0.36017516  1
  Zr  Zr62  1  0.21393816  0.77961059  0.75310383  1
  Zr  Zr63  1  0.40369817  0.20070086  0.26647995  1
  Zr  Zr64  1  0.50755856  0.10783510  0.63070258  1
  Zr  Zr65  1  0.29688227  0.09663706  0.38955995  1
  Zr  Zr66  1  0.40370906  -0.00677018  0.50599268  1
  Zr  Zr67  1  0.79981230  0.79658670  0.49901762  1
  Zr  Zr68  1  0.89914493  0.89590498  0.88032855  1
  Zr  Zr69  1  0.89675520  0.29970110  0.11966174  1
  Zr  Zr70  1  0.28290530  0.10840846  0.62190803  1
  Zr  Zr71  1  0.49610009  0.50221241  0.14033524  1
  Zr  Zr72  1  0.10739907  0.88405577  0.12390707  1
  Zr  Zr73  1  0.07434092  0.49739117  0.39719347  1
  Zr  Zr74  1  0.23265561  -0.00976039  0.00918847  1
  Zr  Zr75  1  0.11537095  0.09808167  0.88308854  1
  Zr  Zr76  1  0.01018190  0.60508876  0.73934434  1
  Zr  Zr77  1  0.59602829  -0.00416198  0.49424591  1
  Zr  Zr78  1  -0.00910532  0.00456925  0.49003209  1
  Zr  Zr79  1  0.88797585  0.51308469  0.86599455  1
  Ta  Ta80  1  0.20338113  0.79297577  0.24739363  1
  Ta  Ta81  1  0.10367478  0.89080514  0.36031252  1
  Ta  Ta82  1  0.57918932  0.42257578  0.76313207  1
  Ta  Ta83  1  0.50138216  0.88845476  0.63327559  1
  Ta  Ta84  1  0.91325635  0.70551947  0.87822873  1
  Ta  Ta85  1  0.87336051  0.50676066  0.63603050  1
  Ta  Ta86  1  0.50109629  0.88390575  0.36849803  1
  Ta  Ta87  1  0.21816930  0.57954075  0.74805920  1
  Ta  Ta88  1  0.18855523  0.60108328  0.26883244  1
  Ta  Ta89  1  0.90180313  0.69726999  0.13395819  1
  Ta  Ta90  1  0.09837624  0.68420234  0.12318749  1
  Ta  Ta91  1  0.67745520  0.50788032  0.63145070  1
  Ta  Ta92  1  0.89847246  0.11125532  0.35786550  1
  Ta  Ta93  1  0.39491050  0.39802517  0.26255813  1
  Ta  Ta94  1  0.09330852  0.29179649  0.86575394  1
  Ta  Ta95  1  0.00196088  0.18458153  0.75356389  1
  Ta  Ta96  1  0.00079610  0.58339642  0.25191132  1
  Ta  Ta97  1  0.00556772  0.00171592  0.24437129  1
  Ta  Ta98  1  0.78444299  0.20199350  -0.01341207  1
  Ta  Ta99  1  0.80813908  0.59185140  0.49919037  1
  Ta  Ta100  1  0.31210464  0.69934641  0.36444691  1
  Ta  Ta101  1  0.30192851  0.88007657  0.62516353  1
  Ta  Ta102  1  0.10370466  0.30417616  0.12351142  1
  Ta  Ta103  1  0.49990893  0.71309709  0.87852001  1
  Ta  Ta104  1  0.70704329  0.91017311  0.88965085  1
  Ta  Ta105  1  0.79842432  0.01136306  0.24093659  1
  Ta  Ta106  1  0.41354948  0.79055594  0.49368436  1
  Ta  Ta107  1  0.39658690  0.80611780  0.00972216  1
  Ta  Ta108  1  0.70008275  0.89907610  0.12146216  1
  Ta  Ta109  1  0.28750517  0.49514359  0.14966480  1
  Ta  Ta110  1  0.69514927  0.89419779  0.63176061  1
  Ta  Ta111  1  0.49440823  0.28842676  0.12275601  1
  Ta  Ta112  1  0.38036284  0.41117598  0.73529950  1
  Ta  Ta113  1  0.30528043  0.49127617  0.87375485  1
  Ta  Ta114  1  0.38969691  0.20840063  0.73522378  1
  Ta  Ta115  1  0.10793785  0.69150336  0.88514816  1
  Ta  Ta116  1  0.89725095  0.30065408  0.87668128  1
  Ta  Ta117  1  0.21823484  0.59141606  0.47934438  1
  Ta  Ta118  1  0.60073208  0.80427533  0.76146820  1
  Ta  Ta119  1  0.77539406  0.40896737  0.50531540  1
  Ti  Ti120  1  0.20318984  0.58796016  0.00213904  1
  Ti  Ti121  1  0.80338949  0.00238068  0.75326786  1
  Ti  Ti122  1  0.01379396  0.78204395  0.25428667  1
  Ti  Ti123  1  0.32100825  0.10223192  0.12442061  1
  Ti  Ti124  1  0.78060793  0.41087458  0.75668841  1
  Ti  Ti125  1  0.80243852  0.60956988  0.00687975  1
  Ti  Ti126  1  0.08895854  0.29047936  0.40699235  1
  Ti  Ti127  1  0.39853999  0.18742167  -0.00567122  1
  Ti  Ti128  1  0.58617622  0.19433445  -0.01636734  1
  Ti  Ti129  1  0.41464786  0.60041369  0.47904388  1
  Ti  Ti130  1  0.90403485  0.11194779  0.63120676  1
  Ti  Ti131  1  0.80478624  0.80478375  0.75217169  1
  Ti  Ti132  1  0.20449172  -0.00582545  0.23966630  1
  Ti  Ti133  1  0.58329671  0.40546675  0.48895367  1
  Ti  Ti134  1  0.20577151  0.78302953  0.00582907  1
  Ti  Ti135  1  0.70127017  0.51545818  0.14231157  1
  Ti  Ti136  1  0.40149013  -0.00448568  0.73906491  1
  Ti  Ti137  1  0.08456016  0.08550239  0.62196362  1
  Ti  Ti138  1  0.30447969  0.69147448  0.88163588  1
  Ti  Ti139  1  0.58756332  0.39980592  0.25779409  1
  Ti  Ti140  1  0.60081885  0.21428844  0.49009988  1
  Ti  Ti141  1  0.20900011  0.20102417  0.00501912  1
  Ti  Ti142  1  0.51640137  0.70859136  0.13321804  1
  Ti  Ti143  1  0.50780357  0.69717281  0.34972009  1
  Ti  Ti144  1  0.60700878  0.80280421  0.00140309  1
  Ti  Ti145  1  0.90804256  0.69803009  0.62071596  1
  Ti  Ti146  1  0.81010009  0.40469540  0.24665455  1
  Ti  Ti147  1  0.00555395  0.20660652  -0.00224291  1
  Ti  Ti148  1  0.60258508  0.79648366  0.49706516  1
  Ti  Ti149  1  0.20553721  0.19194266  0.24829710  1
  Ti  Ti150  1  0.49531692  0.32201896  0.63101312  1
  Ti  Ti151  1  0.80567053  0.79785402  0.00733642  1
  Ti  Ti152  1  0.10073965  0.49877025  0.12815763  1
  Ti  Ti153  1  0.00239732  0.60582649  0.00037664  1
  Ti  Ti154  1  0.31556375  0.09432476  0.86098570  1
  Ti  Ti155  1  0.69235397  0.30692121  0.87230500  1
  Ti  Ti156  1  0.70334181  0.30730682  0.37021883  1
  Ti  Ti157  1  0.29784489  0.29639870  0.13732049  1
  Ti  Ti158  1  0.58992231  0.20595206  0.76394286  1
  Ti  Ti159  1  0.40513379  0.80533155  0.23661325  1
  Mo  Mo160  1  0.50483769  0.09817427  0.38936859  1
  Mo  Mo161  1  0.10903057  0.69982321  0.38366204  1
  Mo  Mo162  1  0.40549860  0.01411780  -0.00498097  1
  Mo  Mo163  1  0.69408903  0.10447100  0.88150494  1
  Mo  Mo164  1  0.19716289  0.39579599  0.49478815  1
  Mo  Mo165  1  0.10648470  0.89531685  0.62471280  1
  Mo  Mo166  1  0.49587379  0.50679997  0.35927808  1
  Mo  Mo167  1  0.50189085  0.50070106  0.62106091  1
  Mo  Mo168  1  0.39727949  0.60168020  0.25568389  1
  Mo  Mo169  1  0.79794993  0.20382609  0.25084286  1
  Mo  Mo170  1  0.80422762  0.80291207  0.23538040  1
  Mo  Mo171  1  0.59397648  0.80750011  0.23400429  1
  Mo  Mo172  1  0.21957774  0.78869810  0.49342117  1
  Mo  Mo173  1  0.69310273  0.50371202  0.87213521  1
  Mo  Mo174  1  0.59850128  0.60258435  0.23871537  1
  Mo  Mo175  1  -0.01045897  0.19330581  0.50173589  1
  Mo  Mo176  1  0.49649696  0.11543328  0.11761771  1
  Mo  Mo177  1  0.70886832  0.70927911  0.13097421  1
  Mo  Mo178  1  0.60660641  0.01247245  -0.01085392  1
  Mo  Mo179  1  0.88894297  0.49710988  0.37861454  1
  Mo  Mo180  1  -0.00661948  0.00488969  0.75017422  1
  Mo  Mo181  1  0.80792253  0.59814362  0.23913549  1
  Mo  Mo182  1  0.19912490  0.39153856  0.74352046  1
  Mo  Mo183  1  0.49023281  0.50836600  0.88138976  1
  Mo  Mo184  1  0.48834133  0.10798391  0.85853611  1
  Mo  Mo185  1  0.30644772  0.89617436  0.13074199  1
  Mo  Mo186  1  0.88587163  0.30081381  0.64001792  1
  Mo  Mo187  1  0.19471571  0.19245863  0.74971272  1
  Mo  Mo188  1  0.61012902  0.60081030  0.76666838  1
  Mo  Mo189  1  -0.00030222  0.78080931  0.00492872  1
  Mo  Mo190  1  -0.00562456  0.60175404  0.51432455  1
  Mo  Mo191  1  0.29509677  0.50239819  0.35904886  1
  Mo  Mo192  1  0.00044132  0.40476471  0.24720535  1
  Mo  Mo193  1  0.79187977  -0.00215797  0.01091446  1
  Mo  Mo194  1  0.30353667  0.50855701  0.61820392  1
  Mo  Mo195  1  0.80555614  0.60730143  0.74870158  1
  Mo  Mo196  1  0.41119300  0.80265955  0.75182097  1
  Mo  Mo197  1  0.28647659  0.31416178  0.62597639  1
  Mo  Mo198  1  0.50344612  0.31095167  0.38258934  1
  Mo  Mo199  1  0.19175900  0.18902748  0.50589252  1
