# generated using pymatgen
data_HfZrTaTiMo
_symmetry_space_group_name_H-M   'P 1'
_cell_length_a   15.21656209
_cell_length_b   15.22263545
_cell_length_c   16.86787334
_cell_angle_alpha   89.95576178
_cell_angle_beta   90.07142310
_cell_angle_gamma   90.22042471
_symmetry_Int_Tables_number   1
_chemical_formula_structural   HfZrTaTiMo
_chemical_formula_sum   'Hf40 Zr40 Ta40 Ti40 Mo40'
_cell_volume   3907.17660340
_cell_formula_units_Z   40
loop_
 _symmetry_equiv_pos_site_id
 _symmetry_equiv_pos_as_xyz
  1  'x, y, z'
loop_
 _atom_site_type_symbol
 _atom_site_label
 _atom_site_symmetry_multiplicity
 _atom_site_fract_x
 _atom_site_fract_y
 _atom_site_fract_z
 _atom_site_occupancy
  Hf  Hf0  1  0.09456234  0.09868245  0.12034700  1
  Hf  Hf1  1  0.40465669  0.19875613  0.49165470  1
  Hf  Hf2  1  0.68984837  0.90753459  0.60840093  1
  Hf  Hf3  1  0.81369337  0.79387452  0.49863808  1
  Hf  Hf4  1  0.09353426  0.49679246  0.11477089  1
  Hf  Hf5  1  0.59121820  -0.00283028  0.00391090  1
  Hf  Hf6  1  0.80256542  0.20348308  -0.00190285  1
  Hf  Hf7  1  0.39468367  0.59759977  0.26909789  1
  Hf  Hf8  1  0.10714758  0.09065654  0.61103453  1
  Hf  Hf9  1  0.69357518  0.09116335  0.87558674  1
  Hf  Hf10  1  0.59325109  0.19185001  0.74538809  1
  Hf  Hf11  1  0.20795291  0.41568874  0.24875194  1
  Hf  Hf12  1  0.20073198  0.61758859  0.00426059  1
  Hf  Hf13  1  -0.00041313  0.79286821  0.75076652  1
  Hf  Hf14  1  0.20408399  0.19053197  0.74779626  1
  Hf  Hf15  1  0.59453159  -0.00158781  0.26353149  1
  Hf  Hf16  1  0.90303081  0.89267415  0.88099889  1
  Hf  Hf17  1  0.48864269  0.11013398  0.13360337  1
  Hf  Hf18  1  0.79314661  0.60479099  0.73639228  1
  Hf  Hf19  1  0.59210918  0.60015597  0.48187385  1
  Hf  Hf20  1  0.90262394  0.69076914  0.13445424  1
  Hf  Hf21  1  0.09941599  0.50174902  0.88678932  1
  Hf  Hf22  1  0.49383090  0.49691153  0.61879504  1
  Hf  Hf23  1  0.49413201  0.70181585  0.61871193  1
  Hf  Hf24  1  0.80250115  0.39997174  0.75972254  1
  Hf  Hf25  1  0.90035638  0.09276269  0.12422710  1
  Hf  Hf26  1  0.90866750  0.30087456  0.12001399  1
  Hf  Hf27  1  0.70022177  0.90026517  0.12658534  1
  Hf  Hf28  1  0.69883412  0.12427914  0.36929634  1
  Hf  Hf29  1  0.69267199  0.51962703  0.87616682  1
  Hf  Hf30  1  0.89648200  0.09092721  0.62222301  1
  Hf  Hf31  1  0.80208165  0.79023073  0.00930428  1
  Hf  Hf32  1  0.49954587  0.67945389  0.87037481  1
  Hf  Hf33  1  0.90525485  0.10685244  0.87677121  1
  Hf  Hf34  1  0.09957102  0.69806827  0.62999146  1
  Hf  Hf35  1  0.59535026  0.39599261  0.75065694  1
  Hf  Hf36  1  0.79495175  0.59205862  0.49100028  1
  Hf  Hf37  1  0.01945100  -0.01107612  0.74771706  1
  Hf  Hf38  1  0.29879349  0.90291224  0.61162580  1
  Hf  Hf39  1  0.40011586  0.00422043  0.47665308  1
  Zr  Zr40  1  0.60651971  0.42023687  0.25042739  1
  Zr  Zr41  1  0.58215760  0.78258828  0.01334299  1
  Zr  Zr42  1  0.31874534  0.49717021  0.11217366  1
  Zr  Zr43  1  0.79397013  -0.00197105  0.74997933  1
  Zr  Zr44  1  0.48505014  0.89551917  0.13921220  1
  Zr  Zr45  1  0.00363890  0.39845247  0.74760365  1
  Zr  Zr46  1  0.10526761  0.29953123  0.11896223  1
  Zr  Zr47  1  0.30473595  0.71754875  0.88192372  1
  Zr  Zr48  1  0.37952199  0.59852718  0.47472942  1
  Zr  Zr49  1  0.20710778  0.39535975  0.76422043  1
  Zr  Zr50  1  0.69815554  0.10790270  0.13307638  1
  Zr  Zr51  1  0.68825800  0.30214582  0.88246259  1
  Zr  Zr52  1  0.30073155  0.09947609  0.12323892  1
  Zr  Zr53  1  0.10304938  0.08745841  0.88594902  1
  Zr  Zr54  1  0.90163337  0.50454548  0.62212635  1
  Zr  Zr55  1  0.10303810  0.89666237  0.12368165  1
  Zr  Zr56  1  0.60856035  0.20467212  0.50866431  1
  Zr  Zr57  1  0.29836618  0.70039119  0.62583397  1
  Zr  Zr58  1  0.30147262  0.50199792  0.62952325  1
  Zr  Zr59  1  0.60106611  0.79902060  0.74411723  1
  Zr  Zr60  1  0.79949080  0.80105801  0.73775925  1
  Zr  Zr61  1  0.19371397  -0.00652371  0.26467916  1
  Zr  Zr62  1  0.91299555  0.69895324  0.36284508  1
  Zr  Zr63  1  0.80374173  -0.00125312  0.26670043  1
  Zr  Zr64  1  -0.00011178  0.61384416  0.50128456  1
  Zr  Zr65  1  0.20947856  0.20004273  0.25665898  1
  Zr  Zr66  1  0.39419861  0.00416320  0.75090044  1
  Zr  Zr67  1  0.79631846  0.79573816  0.24963074  1
  Zr  Zr68  1  0.10568279  0.51236813  0.37750082  1
  Zr  Zr69  1  0.00105895  0.20210439  0.73845219  1
  Zr  Zr70  1  0.88059118  0.29812853  0.60960080  1
  Zr  Zr71  1  0.10343560  0.30694616  0.38007392  1
  Zr  Zr72  1  -0.01771395  0.59242852  -0.00047103  1
  Zr  Zr73  1  0.58728622  0.20898633  0.00371390  1
  Zr  Zr74  1  0.81057415  0.42028247  -0.01123498  1
  Zr  Zr75  1  0.08580449  0.29149531  0.89382706  1
  Zr  Zr76  1  0.30716830  0.30216176  0.62248026  1
  Zr  Zr77  1  0.79580227  0.00800127  0.48406583  1
  Zr  Zr78  1  0.30053135  0.09670005  0.88079036  1
  Zr  Zr79  1  0.32326421  0.70978235  0.12282722  1
  Ta  Ta80  1  0.39320392  0.01596270  0.27585055  1
  Ta  Ta81  1  0.11021074  0.49922033  0.62057683  1
  Ta  Ta82  1  0.69267878  0.89312625  0.88387773  1
  Ta  Ta83  1  0.89288944  0.29425565  0.38509883  1
  Ta  Ta84  1  0.78803486  0.58414290  0.26281170  1
  Ta  Ta85  1  -0.00727533  -0.00893669  0.48393702  1
  Ta  Ta86  1  0.00885774  0.80093143  0.24470376  1
  Ta  Ta87  1  0.89244150  0.68750794  0.87592588  1
  Ta  Ta88  1  -0.00620433  0.39711861  0.25509071  1
  Ta  Ta89  1  0.49813824  0.09183962  0.62288239  1
  Ta  Ta90  1  0.48913295  0.89035813  0.87825743  1
  Ta  Ta91  1  0.19874505  -0.00169678  0.48279835  1
  Ta  Ta92  1  -0.00515944  0.19592383  0.26092114  1
  Ta  Ta93  1  0.80084885  0.39428945  0.25403468  1
  Ta  Ta94  1  0.79539761  0.20584509  0.75384948  1
  Ta  Ta95  1  0.79911788  -0.00499731  -0.00140694  1
  Ta  Ta96  1  0.40934768  0.80042253  0.47713580  1
  Ta  Ta97  1  0.20328637  0.60315065  0.76287686  1
  Ta  Ta98  1  0.32211526  0.51130832  0.88834888  1
  Ta  Ta99  1  0.11718923  0.89368811  0.88516601  1
  Ta  Ta100  1  0.88746993  0.49570101  0.13609522  1
  Ta  Ta101  1  0.20076474  0.81735063  0.75032532  1
  Ta  Ta102  1  0.51181314  0.30129245  0.37278469  1
  Ta  Ta103  1  0.70001795  0.32032290  0.11904847  1
  Ta  Ta104  1  0.00145407  0.40086222  0.50092522  1
  Ta  Ta105  1  0.09469679  0.09962081  0.38120650  1
  Ta  Ta106  1  0.49434799  0.90257467  0.61384546  1
  Ta  Ta107  1  0.40003667  0.80300666  0.74833117  1
  Ta  Ta108  1  0.58011543  0.41827078  0.00069840  1
  Ta  Ta109  1  0.68669207  0.87758561  0.38478328  1
  Ta  Ta110  1  0.01318864  0.78857744  0.00239267  1
  Ta  Ta111  1  -0.00415574  0.19413490  0.49625333  1
  Ta  Ta112  1  0.49225102  0.31848128  0.12921253  1
  Ta  Ta113  1  0.20502968  0.19916449  0.49358088  1
  Ta  Ta114  1  0.38785792  -0.01844676  -0.00196117  1
  Ta  Ta115  1  0.09154911  0.88179664  0.38081720  1
  Ta  Ta116  1  0.70049382  0.70533275  0.87839912  1
  Ta  Ta117  1  0.40138367  0.80266480  0.27462816  1
  Ta  Ta118  1  -0.00531025  -0.00533811  0.26570206  1
  Ta  Ta119  1  0.20838033  0.20092578  0.00169180  1
  Ti  Ti120  1  0.69100003  0.67380243  0.13146151  1
  Ti  Ti121  1  0.21596139  0.39477509  -0.00828245  1
  Ti  Ti122  1  0.30068785  0.90663130  0.13996563  1
  Ti  Ti123  1  0.58817723  0.00168216  0.48324992  1
  Ti  Ti124  1  0.40301710  0.40630166  0.76593540  1
  Ti  Ti125  1  0.70561252  0.31777598  0.38430740  1
  Ti  Ti126  1  0.59773628  0.21840450  0.24520995  1
  Ti  Ti127  1  0.91197467  0.89281205  0.61772245  1
  Ti  Ti128  1  0.01327574  0.59556203  0.24408997  1
  Ti  Ti129  1  0.30303554  0.09821066  0.61959397  1
  Ti  Ti130  1  0.69499012  0.69623556  0.61156569  1
  Ti  Ti131  1  0.10652823  0.30161510  0.61067082  1
  Ti  Ti132  1  0.49578594  0.09972195  0.87943848  1
  Ti  Ti133  1  0.00039462  -0.00972806  -0.00084309  1
  Ti  Ti134  1  0.21088267  0.40787004  0.49557734  1
  Ti  Ti135  1  0.11272324  0.69889770  0.36970078  1
  Ti  Ti136  1  0.31089687  0.29920259  0.12608696  1
  Ti  Ti137  1  0.39867070  0.21752491  -0.00846137  1
  Ti  Ti138  1  0.09748428  0.70314171  0.87195592  1
  Ti  Ti139  1  0.90574502  0.89932633  0.12199568  1
  Ti  Ti140  1  0.59309696  0.59508914  0.73876152  1
  Ti  Ti141  1  0.69453801  0.47883748  0.61104247  1
  Ti  Ti142  1  0.80231037  0.21179092  0.24717722  1
  Ti  Ti143  1  0.59606579  0.78869846  0.25331805  1
  Ti  Ti144  1  0.59757581  0.60641575  0.27601806  1
  Ti  Ti145  1  0.89971890  0.48741271  0.37488305  1
  Ti  Ti146  1  0.10440596  0.89533087  0.60756925  1
  Ti  Ti147  1  0.40900423  0.40113649  0.48488350  1
  Ti  Ti148  1  0.50343019  0.30105965  0.62196215  1
  Ti  Ti149  1  -0.00121357  0.59566390  0.75278761  1
  Ti  Ti150  1  0.40676954  0.40127158  0.26103235  1
  Ti  Ti151  1  0.70173562  0.10840405  0.62416738  1
  Ti  Ti152  1  0.40218996  0.21303243  0.75844239  1
  Ti  Ti153  1  0.59013889  -0.00861539  0.75136613  1
  Ti  Ti154  1  0.20166862  0.78397343  0.49352084  1
  Ti  Ti155  1  0.51205649  0.52436407  0.12761189  1
  Ti  Ti156  1  0.28915180  0.88922599  0.37611648  1
  Ti  Ti157  1  0.21610578  0.81922251  0.00694311  1
  Ti  Ti158  1  0.30858139  0.30225227  0.37282901  1
  Ti  Ti159  1  0.20271385  0.78408377  0.24800778  1
  Mo  Mo160  1  0.42754027  0.59767262  0.00533141  1
  Mo  Mo161  1  0.90132448  0.50737059  0.86287681  1
  Mo  Mo162  1  0.69497019  0.29954091  0.63077068  1
  Mo  Mo163  1  0.50598675  0.70954004  0.37368173  1
  Mo  Mo164  1  0.79146019  0.60798495  0.00243198  1
  Mo  Mo165  1  0.70524564  0.49222500  0.38212672  1
  Mo  Mo166  1  0.28575493  0.70074633  0.37028796  1
  Mo  Mo167  1  0.40199522  0.79898302  0.00349977  1
  Mo  Mo168  1  0.50260770  0.11533990  0.36363560  1
  Mo  Mo169  1  0.90092887  0.89535047  0.37312059  1
  Mo  Mo170  1  0.20206394  -0.00476565  0.00795168  1
  Mo  Mo171  1  0.90230693  0.10792499  0.37154401  1
  Mo  Mo172  1  -0.00201380  0.39719935  -0.00317319  1
  Mo  Mo173  1  0.29950999  0.90127027  0.87330834  1
  Mo  Mo174  1  0.50224080  0.49734247  0.87066031  1
  Mo  Mo175  1  0.19538456  0.60761011  0.23514271  1
  Mo  Mo176  1  0.70204084  0.69738028  0.37317837  1
  Mo  Mo177  1  0.59636273  0.39964829  0.50129693  1
  Mo  Mo178  1  0.40793400  0.21501805  0.25515335  1
  Mo  Mo179  1  0.00869298  0.80498883  0.50262449  1
  Mo  Mo180  1  0.60642858  0.59985755  0.00467348  1
  Mo  Mo181  1  -0.00259866  0.19477993  0.00313862  1
  Mo  Mo182  1  0.89851376  0.70307771  0.62717495  1
  Mo  Mo183  1  0.19904753  -0.00650541  0.73910711  1
  Mo  Mo184  1  0.29303064  0.10996590  0.37630078  1
  Mo  Mo185  1  0.10468185  0.69842550  0.12820193  1
  Mo  Mo186  1  0.40515439  0.39721198  -0.00162241  1
  Mo  Mo187  1  0.49923838  0.49045761  0.37905641  1
  Mo  Mo188  1  0.50127082  0.90351273  0.36902145  1
  Mo  Mo189  1  0.39732160  0.59640410  0.75162875  1
  Mo  Mo190  1  0.29446521  0.48834649  0.37126804  1
  Mo  Mo191  1  0.59827413  0.80349754  0.50337456  1
  Mo  Mo192  1  0.80047290  0.20008404  0.49859297  1
  Mo  Mo193  1  0.50402262  0.69630706  0.14659773  1
  Mo  Mo194  1  0.19422997  0.59689088  0.50173127  1
  Mo  Mo195  1  0.89741451  0.29969979  0.87585549  1
  Mo  Mo196  1  0.70373098  0.50199808  0.12498009  1
  Mo  Mo197  1  0.30038381  0.30372888  0.87878740  1
  Mo  Mo198  1  0.79664972  0.39907894  0.49434272  1
  Mo  Mo199  1  0.48846739  0.29733539  0.87214350  1
