# generated using pymatgen
data_HfZrTaTiMo
_symmetry_space_group_name_H-M   'P 1'
_cell_length_a   15.21268038
_cell_length_b   15.23227577
_cell_length_c   16.84425419
_cell_angle_alpha   90.00415202
_cell_angle_beta   89.97722869
_cell_angle_gamma   89.97425695
_symmetry_Int_Tables_number   1
_chemical_formula_structural   HfZrTaTiMo
_chemical_formula_sum   'Hf40 Zr40 Ta40 Ti40 Mo40'
_cell_volume   3903.21291026
_cell_formula_units_Z   40
loop_
 _symmetry_equiv_pos_site_id
 _symmetry_equiv_pos_as_xyz
  1  'x, y, z'
loop_
 _atom_site_type_symbol
 _atom_site_label
 _atom_site_symmetry_multiplicity
 _atom_site_fract_x
 _atom_site_fract_y
 _atom_site_fract_z
 _atom_site_occupancy
  Hf  Hf0  1  0.70191364  0.09542974  0.12812929  1
  Hf  Hf1  1  0.79395861  0.18451540  0.77027161  1
  Hf  Hf2  1  0.49584445  0.89181263  0.37793664  1
  Hf  Hf3  1  -0.00295994  0.62241497  0.48707954  1
  Hf  Hf4  1  0.00779005  0.20042986  0.49311230  1
  Hf  Hf5  1  0.40301175  0.00251629  0.50494769  1
  Hf  Hf6  1  0.29057010  0.90238890  0.36865679  1
  Hf  Hf7  1  0.01759139  0.21473352  0.25754439  1
  Hf  Hf8  1  0.41030322  0.18866026  0.25531049  1
  Hf  Hf9  1  0.49734123  0.30851083  0.88134365  1
  Hf  Hf10  1  0.79601923  0.60205294  -0.00524132  1
  Hf  Hf11  1  0.60133265  0.01816559  0.74255343  1
  Hf  Hf12  1  0.79608919  0.39473505  0.75241874  1
  Hf  Hf13  1  0.71061938  0.89619020  0.63143144  1
  Hf  Hf14  1  0.60748578  -0.00396991  0.50658639  1
  Hf  Hf15  1  0.58337064  0.59994368  0.75509893  1
  Hf  Hf16  1  0.09946049  0.49904732  0.60588934  1
  Hf  Hf17  1  0.91396190  0.11086021  0.12498280  1
  Hf  Hf18  1  0.20756389  0.18785406  -0.01191958  1
  Hf  Hf19  1  0.90200876  0.70863045  0.12133777  1
  Hf  Hf20  1  0.19200986  0.80612154  0.49886849  1
  Hf  Hf21  1  0.89539020  0.50168904  0.60849286  1
  Hf  Hf22  1  0.09920854  0.30736802  0.88912395  1
  Hf  Hf23  1  0.49336774  0.69817432  0.14256993  1
  Hf  Hf24  1  0.09318074  0.71133547  0.88199761  1
  Hf  Hf25  1  0.00139104  0.40424893  0.75047093  1
  Hf  Hf26  1  0.19688007  0.40778812  0.01235905  1
  Hf  Hf27  1  0.71435055  0.89454304  0.38097028  1
  Hf  Hf28  1  0.40258411  0.19726511  0.75142541  1
  Hf  Hf29  1  0.47530195  0.90911919  0.86531541  1
  Hf  Hf30  1  0.31025692  0.49651951  0.61010124  1
  Hf  Hf31  1  0.68430450  0.29528589  0.36878595  1
  Hf  Hf32  1  0.29301549  0.70035513  0.14414035  1
  Hf  Hf33  1  0.28753205  0.28613856  0.14020453  1
  Hf  Hf34  1  0.69483584  0.49802057  0.87648290  1
  Hf  Hf35  1  0.19710749  0.60098093  0.01341360  1
  Hf  Hf36  1  0.40361594  0.78759338  0.74197388  1
  Hf  Hf37  1  0.29099458  0.29852504  0.35875094  1
  Hf  Hf38  1  0.09635403  0.91487551  0.63645360  1
  Hf  Hf39  1  0.80374138  0.81651786  -0.00024212  1
  Zr  Zr40  1  0.89099031  0.70835315  0.87191610  1
  Zr  Zr41  1  0.50383069  0.29424498  0.13086500  1
  Zr  Zr42  1  0.50027298  0.68431903  0.37512448  1
  Zr  Zr43  1  0.61256974  -0.00730919  -0.00829181  1
  Zr  Zr44  1  0.38646874  0.81037040  0.00799923  1
  Zr  Zr45  1  0.39275600  0.40076664  0.01280327  1
  Zr  Zr46  1  0.79834320  0.20435965  -0.01427158  1
  Zr  Zr47  1  0.67216939  0.49449404  0.60919830  1
  Zr  Zr48  1  0.29715673  0.70432858  0.88145981  1
  Zr  Zr49  1  0.49418164  0.30966618  0.62039614  1
  Zr  Zr50  1  0.00183487  0.19180703  0.76625626  1
  Zr  Zr51  1  0.62425853  0.59451368  0.25746467  1
  Zr  Zr52  1  0.69531823  0.28496129  0.62231096  1
  Zr  Zr53  1  -0.00555297  0.59929100  0.74743654  1
  Zr  Zr54  1  0.30040845  0.70787936  0.35184303  1
  Zr  Zr55  1  0.60909933  0.00700327  0.25809733  1
  Zr  Zr56  1  0.07687007  0.29978518  0.10542514  1
  Zr  Zr57  1  0.90420460  0.28689761  0.62424565  1
  Zr  Zr58  1  0.20321396  0.60278438  0.47921845  1
  Zr  Zr59  1  0.30489290  0.90621940  0.63378089  1
  Zr  Zr60  1  0.72385410  0.90784887  0.85112271  1
  Zr  Zr61  1  0.59664232  0.78567754  -0.02541496  1
  Zr  Zr62  1  0.69527966  0.70609058  0.12205434  1
  Zr  Zr63  1  0.89570113  0.50245169  0.38396817  1
  Zr  Zr64  1  0.60250723  0.78972307  0.75806668  1
  Zr  Zr65  1  0.80593583  0.40343348  0.00081697  1
  Zr  Zr66  1  0.69769435  0.29947033  0.13925078  1
  Zr  Zr67  1  0.80896749  0.19478454  0.26057702  1
  Zr  Zr68  1  0.50095181  0.49573018  0.14196308  1
  Zr  Zr69  1  0.20407438  0.39313657  0.74883596  1
  Zr  Zr70  1  -0.00917527  0.61344932  0.26560854  1
  Zr  Zr71  1  0.21330923  -0.01050096  0.00616020  1
  Zr  Zr72  1  0.39342502  0.58970974  0.75146294  1
  Zr  Zr73  1  0.39918835  -0.01043561  0.23755541  1
  Zr  Zr74  1  0.78716108  0.60319242  0.74649126  1
  Zr  Zr75  1  0.79820879  0.38123733  0.49660705  1
  Zr  Zr76  1  0.52132872  0.89408333  0.12568888  1
  Zr  Zr77  1  0.19328659  0.01152343  0.50188606  1
  Zr  Zr78  1  0.19283490  0.59564339  0.74946407  1
  Zr  Zr79  1  0.81867614  0.00689866  -0.00189625  1
  Ta  Ta80  1  0.49409777  0.67714086  0.60451315  1
  Ta  Ta81  1  0.80228789  0.78575716  0.25776242  1
  Ta  Ta82  1  0.39818869  0.60112736  0.00709251  1
  Ta  Ta83  1  0.89772444  0.50565264  0.13684217  1
  Ta  Ta84  1  -0.01071566  0.82183175  0.25088839  1
  Ta  Ta85  1  0.82626702  -0.00522807  0.50363522  1
  Ta  Ta86  1  0.50522287  0.10319218  0.11532388  1
  Ta  Ta87  1  0.81879008  -0.01666105  0.24669749  1
  Ta  Ta88  1  0.80505571  0.80077726  0.50098355  1
  Ta  Ta89  1  0.49797339  0.47856203  0.35877496  1
  Ta  Ta90  1  0.30396741  0.09922917  0.37344755  1
  Ta  Ta91  1  0.78711005  0.61269616  0.49796433  1
  Ta  Ta92  1  0.60382843  0.39981150  0.00027161  1
  Ta  Ta93  1  0.30768471  0.07580070  0.86154919  1
  Ta  Ta94  1  0.49911749  0.10297216  0.87953832  1
  Ta  Ta95  1  0.11199285  0.10457466  0.12156909  1
  Ta  Ta96  1  0.20854018  0.20481450  0.50012024  1
  Ta  Ta97  1  0.39781862  0.20177794  0.49375834  1
  Ta  Ta98  1  0.09591782  0.70811935  0.62012240  1
  Ta  Ta99  1  0.68858085  0.49968216  0.39124315  1
  Ta  Ta100  1  0.29963284  0.49781642  0.35574237  1
  Ta  Ta101  1  0.39594161  0.79087376  0.50374425  1
  Ta  Ta102  1  0.92465678  0.90857611  0.85649789  1
  Ta  Ta103  1  0.69127043  0.70003521  0.61697015  1
  Ta  Ta104  1  0.60298222  0.20050605  -0.01045498  1
  Ta  Ta105  1  0.79443860  0.41626986  0.25950656  1
  Ta  Ta106  1  0.89410106  0.71186235  0.62449191  1
  Ta  Ta107  1  0.71484370  0.09590957  0.38752700  1
  Ta  Ta108  1  -0.00819791  0.82675463  0.50122951  1
  Ta  Ta109  1  0.19991175  0.79862610  0.74584166  1
  Ta  Ta110  1  0.91691721  0.08566163  0.37579560  1
  Ta  Ta111  1  0.30325283  0.29614537  0.87628899  1
  Ta  Ta112  1  0.18311352  0.80617079  0.01401619  1
  Ta  Ta113  1  0.29968021  0.10905846  0.63419794  1
  Ta  Ta114  1  0.29501649  0.49254065  0.88272829  1
  Ta  Ta115  1  0.90253260  0.90571637  0.64390785  1
  Ta  Ta116  1  0.29371992  0.69558520  0.61677761  1
  Ta  Ta117  1  0.59052817  0.40299918  0.75483999  1
  Ta  Ta118  1  0.01311518  0.00865233  0.24123053  1
  Ta  Ta119  1  0.39708698  0.40099990  0.48405784  1
  Ti  Ti120  1  0.29620285  0.29867267  0.62091705  1
  Ti  Ti121  1  0.08378214  0.50460096  0.13352924  1
  Ti  Ti122  1  -0.00035652  0.17375313  -0.02183287  1
  Ti  Ti123  1  0.39846196  0.19294393  -0.00099759  1
  Ti  Ti124  1  0.60203083  0.21025310  0.76367734  1
  Ti  Ti125  1  0.91113264  0.09231453  0.62611319  1
  Ti  Ti126  1  0.60383661  0.78641710  0.49655315  1
  Ti  Ti127  1  0.60050429  0.19885039  0.49847548  1
  Ti  Ti128  1  0.20521449  0.01218260  0.23544756  1
  Ti  Ti129  1  -0.00364381  0.59984289  0.00117770  1
  Ti  Ti130  1  0.39883317  0.40153125  0.75267174  1
  Ti  Ti131  1  0.08756464  0.92427762  0.37240938  1
  Ti  Ti132  1  0.19767045  0.19272236  0.76518334  1
  Ti  Ti133  1  0.72104495  0.10037836  0.61197353  1
  Ti  Ti134  1  0.60851803  0.80230076  0.25941408  1
  Ti  Ti135  1  0.51081736  0.10393167  0.38160050  1
  Ti  Ti136  1  0.09189097  0.73051949  0.36757775  1
  Ti  Ti137  1  0.10536954  0.29854510  0.62159356  1
  Ti  Ti138  1  0.11593334  0.90762743  0.86373714  1
  Ti  Ti139  1  0.40089907  0.00492278  0.01013630  1
  Ti  Ti140  1  0.18626872  0.82310053  0.23714842  1
  Ti  Ti141  1  0.00413177  0.79859843  0.74563384  1
  Ti  Ti142  1  0.11701133  0.11154163  0.36836739  1
  Ti  Ti143  1  0.08976153  0.70785298  0.12956465  1
  Ti  Ti144  1  0.50125298  0.10591616  0.62118426  1
  Ti  Ti145  1  0.18301512  0.59915021  0.25677248  1
  Ti  Ti146  1  0.50506265  0.88813617  0.62201951  1
  Ti  Ti147  1  0.70245112  0.49798449  0.12575602  1
  Ti  Ti148  1  0.09361623  0.48253230  0.37531734  1
  Ti  Ti149  1  0.19659360  0.39074676  0.48898018  1
  Ti  Ti150  1  0.01350692  -0.01863910  0.00397988  1
  Ti  Ti151  1  0.89634403  0.31631248  0.13387200  1
  Ti  Ti152  1  0.29679134  0.49739994  0.15565892  1
  Ti  Ti153  1  0.90997824  0.30498123  0.37526068  1
  Ti  Ti154  1  0.17107383  0.38983576  0.24765151  1
  Ti  Ti155  1  0.48770005  0.50318995  0.88570890  1
  Ti  Ti156  1  0.10458347  0.10991312  0.63198817  1
  Ti  Ti157  1  0.09250390  0.50374323  0.88406374  1
  Ti  Ti158  1  0.59145543  0.59564704  -0.00188438  1
  Ti  Ti159  1  0.90358330  0.31191975  0.88147620  1
  Mo  Mo160  1  0.59045831  0.59142153  0.49088464  1
  Mo  Mo161  1  0.49423202  0.29023112  0.37984385  1
  Mo  Mo162  1  0.10112375  0.30359712  0.37945034  1
  Mo  Mo163  1  0.89353764  0.71713877  0.38050989  1
  Mo  Mo164  1  0.49052198  0.68864860  0.88382571  1
  Mo  Mo165  1  0.60393539  0.39236716  0.25618489  1
  Mo  Mo166  1  0.40361009  0.80184166  0.24887029  1
  Mo  Mo167  1  0.28948824  0.89513661  0.86196260  1
  Mo  Mo168  1  0.00959964  0.00753627  0.75260772  1
  Mo  Mo169  1  0.00990578  0.39857025  0.50145215  1
  Mo  Mo170  1  0.10134423  0.08448794  0.87874410  1
  Mo  Mo171  1  0.00350372  0.80812987  -0.00080385  1
  Mo  Mo172  1  0.29858275  0.89527893  0.13440024  1
  Mo  Mo173  1  0.90394675  0.90355514  0.12672131  1
  Mo  Mo174  1  0.60137831  0.18460074  0.25727628  1
  Mo  Mo175  1  0.91005007  0.90362508  0.37363077  1
  Mo  Mo176  1  0.70238147  0.69987376  0.38516210  1
  Mo  Mo177  1  0.58322085  0.38798631  0.48995598  1
  Mo  Mo178  1  0.41032060  0.00306273  0.73503466  1
  Mo  Mo179  1  0.69141577  0.30520689  0.87287357  1
  Mo  Mo180  1  0.39459647  0.39285545  0.25356116  1
  Mo  Mo181  1  0.80846947  0.79534858  0.74340919  1
  Mo  Mo182  1  0.71624647  0.89313110  0.13789398  1
  Mo  Mo183  1  -0.00657978  0.42336687  -0.00011480  1
  Mo  Mo184  1  0.69556090  0.69480762  0.87701475  1
  Mo  Mo185  1  0.81007323  0.00771861  0.74184756  1
  Mo  Mo186  1  0.39451303  0.59305669  0.48801252  1
  Mo  Mo187  1  0.20452579  0.00986434  0.74888986  1
  Mo  Mo188  1  0.90156352  0.08654724  0.87709354  1
  Mo  Mo189  1  0.00678488  0.00915514  0.50497295  1
  Mo  Mo190  1  0.09532252  0.90365939  0.12890303  1
  Mo  Mo191  1  0.39547492  0.59159369  0.25127190  1
  Mo  Mo192  1  0.90969881  0.49863807  0.87754983  1
  Mo  Mo193  1  0.49184869  0.49280484  0.61900156  1
  Mo  Mo194  1  0.69061129  0.10067265  0.87455206  1
  Mo  Mo195  1  0.31014404  0.10069480  0.12030908  1
  Mo  Mo196  1  0.80836314  0.18419075  0.48714145  1
  Mo  Mo197  1  0.80022604  0.60083529  0.25522076  1
  Mo  Mo198  1  -0.00750364  0.40659631  0.25110763  1
  Mo  Mo199  1  0.19927687  0.18805379  0.24618653  1
