# generated using pymatgen
data_HfZrTaTiMo
_symmetry_space_group_name_H-M   'P 1'
_cell_length_a   15.18333375
_cell_length_b   15.17344065
_cell_length_c   16.79569694
_cell_angle_alpha   90.00493917
_cell_angle_beta   90.04535546
_cell_angle_gamma   90.00886877
_symmetry_Int_Tables_number   1
_chemical_formula_structural   HfZrTaTiMo
_chemical_formula_sum   'Hf40 Zr40 Ta40 Ti40 Mo40'
_cell_volume   3869.44872035
_cell_formula_units_Z   40
loop_
 _symmetry_equiv_pos_site_id
 _symmetry_equiv_pos_as_xyz
  1  'x, y, z'
loop_
 _atom_site_type_symbol
 _atom_site_label
 _atom_site_symmetry_multiplicity
 _atom_site_fract_x
 _atom_site_fract_y
 _atom_site_fract_z
 _atom_site_occupancy
  Hf  Hf0  1  -0.00799074  0.61514031  0.00367693  1
  Hf  Hf1  1  -0.00549376  0.39801653  0.24834896  1
  Hf  Hf2  1  0.30137176  0.08226538  0.38234130  1
  Hf  Hf3  1  0.89012001  0.30234601  0.38062190  1
  Hf  Hf4  1  0.77687621  0.40987429  0.75039147  1
  Hf  Hf5  1  0.70038779  0.10837806  0.37988114  1
  Hf  Hf6  1  0.21548703  0.59955923  0.50383583  1
  Hf  Hf7  1  -0.00343531  0.40289101  0.00245969  1
  Hf  Hf8  1  0.90508655  0.70017350  0.61141398  1
  Hf  Hf9  1  0.10536727  0.50472450  0.87579520  1
  Hf  Hf10  1  0.00105112  0.60198548  0.25358684  1
  Hf  Hf11  1  0.48106913  0.30831987  0.13361828  1
  Hf  Hf12  1  0.50174789  0.86745355  0.86930552  1
  Hf  Hf13  1  0.88462470  0.50462310  0.88088100  1
  Hf  Hf14  1  0.78880714  0.59584185  0.01616779  1
  Hf  Hf15  1  0.50634346  0.30262864  0.37546613  1
  Hf  Hf16  1  0.39745652  0.19207932  0.26341937  1
  Hf  Hf17  1  0.31489399  0.70779172  0.87383777  1
  Hf  Hf18  1  0.68550191  0.90517368  0.38336826  1
  Hf  Hf19  1  0.39867229  -0.02084855  -0.01748661  1
  Hf  Hf20  1  0.29988867  0.70263029  0.12888541  1
  Hf  Hf21  1  0.10449015  0.10861239  0.86077881  1
  Hf  Hf22  1  0.49127522  0.69812376  0.38295836  1
  Hf  Hf23  1  0.58797714  0.42380960  0.02919857  1
  Hf  Hf24  1  0.30215094  0.09761441  0.12775120  1
  Hf  Hf25  1  0.39384481  0.20031652  0.49825918  1
  Hf  Hf26  1  0.20907064  0.81382504  -0.00744300  1
  Hf  Hf27  1  0.50180041  0.30557269  0.61615736  1
  Hf  Hf28  1  0.80590215  0.00362328  0.50389989  1
  Hf  Hf29  1  0.69148357  0.70071438  0.60604071  1
  Hf  Hf30  1  0.08872857  0.71788769  0.87464454  1
  Hf  Hf31  1  0.60387107  0.20175857  0.24624100  1
  Hf  Hf32  1  0.70237659  0.10617533  0.11219139  1
  Hf  Hf33  1  0.89429524  0.89753595  0.63855138  1
  Hf  Hf34  1  0.30906640  0.48613646  0.13603704  1
  Hf  Hf35  1  0.41803235  0.59035195  0.01367952  1
  Hf  Hf36  1  0.40424848  -0.01646681  0.74730823  1
  Hf  Hf37  1  0.39361068  0.20003679  -0.01377556  1
  Hf  Hf38  1  0.20686078  0.59912322  -0.00153748  1
  Hf  Hf39  1  0.60231064  0.60793147  0.24638163  1
  Zr  Zr40  1  0.41712674  -0.01699642  0.26112696  1
  Zr  Zr41  1  0.19666648  0.21237105  0.49717820  1
  Zr  Zr42  1  0.59130966  0.21580945  0.75717594  1
  Zr  Zr43  1  0.19851526  0.80721049  0.72647614  1
  Zr  Zr44  1  0.69382379  0.89348741  0.12298744  1
  Zr  Zr45  1  0.89380692  0.30807604  0.61892458  1
  Zr  Zr46  1  0.18806382  -0.00034867  0.52308681  1
  Zr  Zr47  1  0.11030901  0.49881736  0.37364700  1
  Zr  Zr48  1  0.60886621  0.78761876  0.74216682  1
  Zr  Zr49  1  0.79747237  0.59098287  0.48555686  1
  Zr  Zr50  1  0.80966142  -0.00278265  -0.00526708  1
  Zr  Zr51  1  0.68542647  0.32680471  0.88597049  1
  Zr  Zr52  1  0.09695504  0.70641893  0.13044077  1
  Zr  Zr53  1  0.90945639  0.09820376  0.63445840  1
  Zr  Zr54  1  0.00749225  0.40597569  0.49236395  1
  Zr  Zr55  1  -0.00730106  0.40668328  0.75727360  1
  Zr  Zr56  1  0.89921260  0.08658443  0.85933738  1
  Zr  Zr57  1  0.60130048  -0.01068413  -0.01971074  1
  Zr  Zr58  1  0.10806553  0.89888036  0.13423924  1
  Zr  Zr59  1  -0.00285656  0.20391675  0.25344078  1
  Zr  Zr60  1  0.09433641  0.29906874  0.11850425  1
  Zr  Zr61  1  0.00722323  -0.02147611  -0.01015118  1
  Zr  Zr62  1  0.00005459  -0.00537029  0.25186907  1
  Zr  Zr63  1  0.00443548  0.82096485  0.49630236  1
  Zr  Zr64  1  0.90718348  0.10026963  0.11831135  1
  Zr  Zr65  1  0.21185309  0.60412655  0.74417809  1
  Zr  Zr66  1  0.60554025  0.00868208  0.75650677  1
  Zr  Zr67  1  0.82904391  0.79988708  -0.00280354  1
  Zr  Zr68  1  0.69713863  0.71636484  0.88819879  1
  Zr  Zr69  1  0.79014455  0.20535498  0.74414817  1
  Zr  Zr70  1  0.09587779  0.09109577  0.37561664  1
  Zr  Zr71  1  0.20454357  0.80024104  0.51769828  1
  Zr  Zr72  1  0.20635946  0.00769778  -0.00494524  1
  Zr  Zr73  1  0.51134319  0.88526021  0.60782844  1
  Zr  Zr74  1  0.78924129  0.61490165  0.74828511  1
  Zr  Zr75  1  0.29718863  0.30460070  0.63605571  1
  Zr  Zr76  1  0.00164422  0.19362777  0.50027401  1
  Zr  Zr77  1  0.49934796  0.08858203  0.11599179  1
  Zr  Zr78  1  0.39793675  0.18838691  0.75605094  1
  Zr  Zr79  1  0.89774466  0.50393881  0.61876023  1
  Ta  Ta80  1  0.50035839  0.09577290  0.61254709  1
  Ta  Ta81  1  0.68052091  0.52048761  0.88572642  1
  Ta  Ta82  1  0.29013709  0.29218654  0.12990173  1
  Ta  Ta83  1  0.31796779  0.89295296  0.12809434  1
  Ta  Ta84  1  0.89100408  0.09801356  0.37494836  1
  Ta  Ta85  1  0.88905253  0.29379484  0.88531104  1
  Ta  Ta86  1  0.21240825  0.01018748  0.73084564  1
  Ta  Ta87  1  0.69576777  0.48871417  0.36172822  1
  Ta  Ta88  1  0.59331868  0.21091794  -0.00579336  1
  Ta  Ta89  1  0.19648044  0.20564148  -0.00671182  1
  Ta  Ta90  1  0.19803180  0.19965231  0.25912197  1
  Ta  Ta91  1  0.10738025  0.50277241  0.12631150  1
  Ta  Ta92  1  0.39797193  0.41217323  0.49011106  1
  Ta  Ta93  1  0.79311246  0.79871012  0.26154287  1
  Ta  Ta94  1  0.90225903  0.50268279  0.13016799  1
  Ta  Ta95  1  0.11005368  0.10401663  0.12728790  1
  Ta  Ta96  1  0.90254169  0.70131218  0.37896133  1
  Ta  Ta97  1  0.21508643  -0.01010568  0.25272556  1
  Ta  Ta98  1  0.21080074  0.39839922  -0.00244545  1
  Ta  Ta99  1  0.79061188  0.39249173  0.23150571  1
  Ta  Ta100  1  0.50955242  0.08694265  0.39520952  1
  Ta  Ta101  1  0.79453578  0.00171765  0.24977123  1
  Ta  Ta102  1  0.79953146  0.20319449  0.24343046  1
  Ta  Ta103  1  0.29435630  0.30687980  0.86630435  1
  Ta  Ta104  1  0.70436991  0.11607771  0.88279545  1
  Ta  Ta105  1  0.50770710  0.67197872  0.87729748  1
  Ta  Ta106  1  0.40248267  0.77456668  0.73217797  1
  Ta  Ta107  1  0.10241350  0.50734967  0.62381275  1
  Ta  Ta108  1  0.60294221  0.00104998  0.25120861  1
  Ta  Ta109  1  0.79179351  0.39593290  0.02308121  1
  Ta  Ta110  1  0.09728254  0.30329375  0.87722612  1
  Ta  Ta111  1  0.79564126  0.80310195  0.48857162  1
  Ta  Ta112  1  0.50101403  0.49578163  0.61822276  1
  Ta  Ta113  1  0.58476304  0.81144479  0.25658407  1
  Ta  Ta114  1  0.10642945  0.70382588  0.37711980  1
  Ta  Ta115  1  0.80235529  0.60078707  0.25358858  1
  Ta  Ta116  1  0.00043104  0.61175070  0.74988414  1
  Ta  Ta117  1  0.69990750  0.30679246  0.37751151  1
  Ta  Ta118  1  0.09876603  0.30985083  0.63557790  1
  Ta  Ta119  1  0.50238569  0.48237271  0.87918926  1
  Ti  Ti120  1  0.31587938  0.49953549  0.87278864  1
  Ti  Ti121  1  0.69761946  0.70708098  0.12758092  1
  Ti  Ti122  1  0.29718062  0.09367341  0.86729168  1
  Ti  Ti123  1  0.90161536  0.89284265  0.13608789  1
  Ti  Ti124  1  0.38458929  0.79922462  0.26710092  1
  Ti  Ti125  1  0.38788217  -0.01139731  0.51409548  1
  Ti  Ti126  1  0.69211126  0.31366965  0.61191677  1
  Ti  Ti127  1  0.69503073  0.70087551  0.37824371  1
  Ti  Ti128  1  0.20530496  0.60753525  0.25483215  1
  Ti  Ti129  1  0.79560377  0.20539998  0.50673757  1
  Ti  Ti130  1  0.19801291  0.39569192  0.25149112  1
  Ti  Ti131  1  0.68899659  0.49616572  0.61124750  1
  Ti  Ti132  1  0.31014741  0.50640531  0.36613243  1
  Ti  Ti133  1  0.69609967  0.09994992  0.62283160  1
  Ti  Ti134  1  0.49616604  0.71724910  0.13233157  1
  Ti  Ti135  1  0.29406474  0.31072008  0.37100743  1
  Ti  Ti136  1  0.40057330  0.60377527  0.24957549  1
  Ti  Ti137  1  0.31508633  0.50213631  0.62943216  1
  Ti  Ti138  1  0.10583842  0.11554142  0.63934157  1
  Ti  Ti139  1  0.49362170  0.89679459  0.40013665  1
  Ti  Ti140  1  -0.00089071  0.79990930  0.26440461  1
  Ti  Ti141  1  0.11794458  0.89816938  0.37094956  1
  Ti  Ti142  1  0.59075842  0.58652572  0.74259852  1
  Ti  Ti143  1  0.89687046  0.70783135  0.13912654  1
  Ti  Ti144  1  -0.00501717  0.19510490  -0.00527113  1
  Ti  Ti145  1  0.70335429  0.90233690  0.62285657  1
  Ti  Ti146  1  0.38743756  0.78169032  0.50458169  1
  Ti  Ti147  1  0.60382702  0.20097097  0.50286672  1
  Ti  Ti148  1  0.20607900  0.40144479  0.50316541  1
  Ti  Ti149  1  0.89706828  0.90529976  0.37253707  1
  Ti  Ti150  1  0.73206919  0.90794712  0.85571185  1
  Ti  Ti151  1  0.01173476  -0.01124469  0.74795911  1
  Ti  Ti152  1  0.11430437  0.90577262  0.85876974  1
  Ti  Ti153  1  0.00067748  0.21235671  0.75305170  1
  Ti  Ti154  1  0.59024274  0.58377178  0.48583161  1
  Ti  Ti155  1  0.49384499  0.67866189  0.60798900  1
  Ti  Ti156  1  0.41370280  0.40009245  0.75355844  1
  Ti  Ti157  1  0.50082690  0.49194699  0.35809271  1
  Ti  Ti158  1  0.19905316  0.40310317  0.75265552  1
  Ti  Ti159  1  0.89349297  0.49798167  0.37118835  1
  Mo  Mo160  1  0.09237635  0.68987554  0.61758061  1
  Mo  Mo161  1  0.59916391  0.40094406  0.23842570  1
  Mo  Mo162  1  0.70188216  0.50699895  0.14473574  1
  Mo  Mo163  1  0.30330460  0.88956874  0.38568760  1
  Mo  Mo164  1  0.09104817  0.91086272  0.63214789  1
  Mo  Mo165  1  0.10687036  0.30353261  0.36890906  1
  Mo  Mo166  1  0.69229027  0.29576582  0.11878479  1
  Mo  Mo167  1  0.40358508  0.79072340  0.00091348  1
  Mo  Mo168  1  0.58097039  0.78516142  0.00907233  1
  Mo  Mo169  1  0.59776011  0.60840183  0.02009941  1
  Mo  Mo170  1  0.78933740  0.39822498  0.49411323  1
  Mo  Mo171  1  0.01035619  0.60879199  0.49031545  1
  Mo  Mo172  1  0.31067621  0.89622826  0.62775199  1
  Mo  Mo173  1  0.60084731  0.00445284  0.50887570  1
  Mo  Mo174  1  -0.00471760  -0.00057942  0.49688820  1
  Mo  Mo175  1  0.40218461  0.58760540  0.49282093  1
  Mo  Mo176  1  0.59396483  0.41346110  0.74617242  1
  Mo  Mo177  1  0.29518786  0.69585070  0.36947437  1
  Mo  Mo178  1  0.39061499  0.39732231  0.26596775  1
  Mo  Mo179  1  0.80371116  0.79856748  0.74713632  1
  Mo  Mo180  1  0.91845216  0.87796756  0.84880728  1
  Mo  Mo181  1  0.00742983  0.80548672  0.00094364  1
  Mo  Mo182  1  0.19515460  0.20836243  0.75518193  1
  Mo  Mo183  1  0.79950386  0.20630152  -0.00558812  1
  Mo  Mo184  1  0.49890926  0.89179457  0.12750058  1
  Mo  Mo185  1  0.31161110  0.68629711  0.62667734  1
  Mo  Mo186  1  0.50527016  0.09672668  0.88240439  1
  Mo  Mo187  1  0.79573498  0.00342993  0.74397149  1
  Mo  Mo188  1  0.89110078  0.29386668  0.11419215  1
  Mo  Mo189  1  0.89995887  0.69956202  0.86893437  1
  Mo  Mo190  1  0.30067483  0.89565483  0.85607958  1
  Mo  Mo191  1  0.41602974  0.58621964  0.75107404  1
  Mo  Mo192  1  0.20328330  0.80019941  0.25913795  1
  Mo  Mo193  1  0.48928108  0.30702341  0.88317956  1
  Mo  Mo194  1  0.30768747  0.10180463  0.62562417  1
  Mo  Mo195  1  0.49425985  0.50772095  0.15166708  1
  Mo  Mo196  1  0.38939268  0.39543593  -0.00115025  1
  Mo  Mo197  1  0.60039448  0.79012058  0.49631148  1
  Mo  Mo198  1  0.59755785  0.40503475  0.49198103  1
  Mo  Mo199  1  0.00378354  0.79425559  0.73922516  1
