# generated using pymatgen
data_HfZrTaTiMo
_symmetry_space_group_name_H-M   'P 1'
_cell_length_a   15.21622286
_cell_length_b   15.21328706
_cell_length_c   16.80888703
_cell_angle_alpha   90.00168813
_cell_angle_beta   90.03414085
_cell_angle_gamma   90.07946800
_symmetry_Int_Tables_number   1
_chemical_formula_structural   HfZrTaTiMo
_chemical_formula_sum   'Hf40 Zr40 Ta40 Ti40 Mo40'
_cell_volume   3891.06408533
_cell_formula_units_Z   40
loop_
 _symmetry_equiv_pos_site_id
 _symmetry_equiv_pos_as_xyz
  1  'x, y, z'
loop_
 _atom_site_type_symbol
 _atom_site_label
 _atom_site_symmetry_multiplicity
 _atom_site_fract_x
 _atom_site_fract_y
 _atom_site_fract_z
 _atom_site_occupancy
  Hf  Hf0  1  0.39004937  0.00056340  0.48099024  1
  Hf  Hf1  1  0.59361485  0.19292854  0.24777288  1
  Hf  Hf2  1  0.89901950  0.29236447  0.10715031  1
  Hf  Hf3  1  0.01070369  0.61005303  0.23846139  1
  Hf  Hf4  1  0.50008317  0.49707124  0.11683217  1
  Hf  Hf5  1  0.09533148  0.10518984  0.88299860  1
  Hf  Hf6  1  0.29929477  0.10122313  0.62545231  1
  Hf  Hf7  1  -0.00984588  -0.01085975  0.50649207  1
  Hf  Hf8  1  0.31222447  0.30478144  0.11478303  1
  Hf  Hf9  1  0.30228505  0.50636484  0.11176212  1
  Hf  Hf10  1  0.31288145  0.29991850  0.89012546  1
  Hf  Hf11  1  0.21219191  0.80045379  0.75236698  1
  Hf  Hf12  1  0.60239892  0.81589542  0.75745197  1
  Hf  Hf13  1  0.01641663  0.59221830  0.50880644  1
  Hf  Hf14  1  0.69479090  0.08489523  0.60992195  1
  Hf  Hf15  1  0.49191050  0.49972225  0.62722332  1
  Hf  Hf16  1  0.09693078  0.08565466  0.37168432  1
  Hf  Hf17  1  0.79269798  0.19286753  0.75321041  1
  Hf  Hf18  1  0.79279281  -0.00082048  0.25884571  1
  Hf  Hf19  1  0.40733074  0.21361053  0.74327918  1
  Hf  Hf20  1  0.19851498  0.20844425  0.75261960  1
  Hf  Hf21  1  0.30368737  0.10301368  0.88816554  1
  Hf  Hf22  1  0.11815821  0.49572854  0.37064978  1
  Hf  Hf23  1  0.70708873  0.49798254  0.62699049  1
  Hf  Hf24  1  0.51335198  0.30220222  0.38703821  1
  Hf  Hf25  1  0.90685307  0.71912875  0.87868430  1
  Hf  Hf26  1  0.69889405  0.89470608  0.61040749  1
  Hf  Hf27  1  0.39782840  0.01123317  0.24574319  1
  Hf  Hf28  1  0.39714011  0.20344582  0.26217556  1
  Hf  Hf29  1  0.68593911  0.28017983  0.88969449  1
  Hf  Hf30  1  0.79597347  0.39766147  0.76550263  1
  Hf  Hf31  1  0.51271558  0.51567804  0.37153530  1
  Hf  Hf32  1  0.89306234  0.09041368  0.63455665  1
  Hf  Hf33  1  -0.00874111  -0.00930334  0.24405680  1
  Hf  Hf34  1  0.08475030  0.90127185  0.88870112  1
  Hf  Hf35  1  0.19097363  0.20702745  0.49152667  1
  Hf  Hf36  1  0.90688479  0.50673542  0.11444609  1
  Hf  Hf37  1  0.89942747  0.30119030  0.63388191  1
  Hf  Hf38  1  0.41402730  0.00622845  0.01357082  1
  Hf  Hf39  1  0.21741172  0.59212238  0.49886299  1
  Zr  Zr40  1  0.60448059  0.39820303  0.24663642  1
  Zr  Zr41  1  0.90766791  0.50652895  0.88703483  1
  Zr  Zr42  1  0.69110230  0.29250930  0.10747711  1
  Zr  Zr43  1  0.20304430  0.79655395  0.51011929  1
  Zr  Zr44  1  0.29854834  0.89372895  0.12204140  1
  Zr  Zr45  1  0.01052643  0.59976292  0.75469488  1
  Zr  Zr46  1  0.40306898  -0.00523805  0.75230160  1
  Zr  Zr47  1  0.58885298  0.39169215  0.75539595  1
  Zr  Zr48  1  0.81523292  0.39104655  0.24425209  1
  Zr  Zr49  1  0.20865800  0.59694946  0.23937473  1
  Zr  Zr50  1  0.79197659  0.61652804  -0.00266562  1
  Zr  Zr51  1  0.49059311  0.90114288  0.62048462  1
  Zr  Zr52  1  0.68118263  0.09377314  0.39493632  1
  Zr  Zr53  1  0.59511089  0.60309903  0.76075144  1
  Zr  Zr54  1  0.90910905  0.28338805  0.88738392  1
  Zr  Zr55  1  0.08721445  0.87070045  0.36692214  1
  Zr  Zr56  1  0.19472530  -0.00877400  0.50824854  1
  Zr  Zr57  1  0.19601702  0.20083272  0.25401401  1
  Zr  Zr58  1  0.70196370  0.70483899  0.37062265  1
  Zr  Zr59  1  0.01445965  0.39142373  0.76349750  1
  Zr  Zr60  1  -0.01157247  0.20700688  0.25083768  1
  Zr  Zr61  1  -0.00695550  0.20209792  0.49654386  1
  Zr  Zr62  1  -0.00354278  0.79026489  0.52189562  1
  Zr  Zr63  1  0.59749679  0.19085026  0.73855015  1
  Zr  Zr64  1  0.79671864  0.60384433  0.75882506  1
  Zr  Zr65  1  0.41281744  0.62172418  0.49732158  1
  Zr  Zr66  1  0.69976813  0.89276490  0.12390047  1
  Zr  Zr67  1  0.69540913  0.50527409  0.11129143  1
  Zr  Zr68  1  0.29699383  0.32226585  0.62429042  1
  Zr  Zr69  1  0.39016791  0.40722240  0.25935727  1
  Zr  Zr70  1  0.81108955  0.60758750  0.50803925  1
  Zr  Zr71  1  0.18625074  -0.00432314  0.74290768  1
  Zr  Zr72  1  0.91623854  0.48325680  0.36738241  1
  Zr  Zr73  1  0.91516385  0.70059906  0.37298244  1
  Zr  Zr74  1  0.30321121  0.71013885  0.36280749  1
  Zr  Zr75  1  0.29911974  0.89968673  0.89404805  1
  Zr  Zr76  1  0.71030819  0.50252867  0.37591433  1
  Zr  Zr77  1  0.38960039  0.20449078  0.48091726  1
  Zr  Zr78  1  0.38243842  0.42014012  0.48914680  1
  Zr  Zr79  1  0.50003935  0.89264359  0.36338497  1
  Ta  Ta80  1  0.28617874  0.90575353  0.35136530  1
  Ta  Ta81  1  0.01033932  0.80763508  0.74321682  1
  Ta  Ta82  1  0.70142763  0.09497437  0.12200671  1
  Ta  Ta83  1  0.41268598  0.60920386  0.24338137  1
  Ta  Ta84  1  0.89454802  0.89760293  0.11909679  1
  Ta  Ta85  1  0.11897148  0.68574684  0.63809179  1
  Ta  Ta86  1  0.79797758  0.20110185  0.50335771  1
  Ta  Ta87  1  0.20075971  0.59705549  -0.01058982  1
  Ta  Ta88  1  0.60477963  0.60488574  0.50948923  1
  Ta  Ta89  1  0.79120884  0.19558251  0.25366011  1
  Ta  Ta90  1  0.29683260  0.11196960  0.11645270  1
  Ta  Ta91  1  0.71108529  0.29831102  0.38399918  1
  Ta  Ta92  1  0.18751350  0.00828984  0.01768868  1
  Ta  Ta93  1  0.19048745  0.00025748  0.22948695  1
  Ta  Ta94  1  0.01091164  0.40563658  0.00217211  1
  Ta  Ta95  1  0.68617158  0.49648761  0.89089749  1
  Ta  Ta96  1  0.81331618  0.79873257  0.24717680  1
  Ta  Ta97  1  0.91095164  0.49598931  0.63147139  1
  Ta  Ta98  1  0.29633472  0.51871031  0.64279127  1
  Ta  Ta99  1  0.31841486  0.70807235  0.63845059  1
  Ta  Ta100  1  0.89722557  0.08288454  0.86389831  1
  Ta  Ta101  1  0.50770080  0.10730323  0.87820174  1
  Ta  Ta102  1  0.40147717  0.61096834  0.76968048  1
  Ta  Ta103  1  0.10301432  0.28640070  0.10765600  1
  Ta  Ta104  1  0.31011482  0.70276723  0.11219936  1
  Ta  Ta105  1  0.11421902  0.48812470  0.63152409  1
  Ta  Ta106  1  -0.01651802  0.00896838  0.00593760  1
  Ta  Ta107  1  0.50421582  0.88939033  0.13719731  1
  Ta  Ta108  1  0.18372919  0.79194636  0.23461115  1
  Ta  Ta109  1  0.59742336  0.00114042  0.24824324  1
  Ta  Ta110  1  0.10381833  0.70569702  0.89049848  1
  Ta  Ta111  1  0.20107767  0.40235219  -0.00112765  1
  Ta  Ta112  1  0.20683531  0.59884578  0.77203150  1
  Ta  Ta113  1  0.81214328  0.39526720  0.50359222  1
  Ta  Ta114  1  0.08617417  0.89026020  0.11189052  1
  Ta  Ta115  1  0.88816182  0.89754579  0.64348020  1
  Ta  Ta116  1  0.42062293  0.79527800  0.00242787  1
  Ta  Ta117  1  0.79732135  0.39716933  -0.00936474  1
  Ta  Ta118  1  0.10058175  0.69933827  0.09799735  1
  Ta  Ta119  1  0.50114747  0.10602363  0.60273502  1
  Ti  Ti120  1  0.60600279  0.40317001  0.50543067  1
  Ti  Ti121  1  0.70406043  0.70673004  0.62635043  1
  Ti  Ti122  1  0.60153715  0.00181136  0.00695839  1
  Ti  Ti123  1  0.57454082  0.38429294  -0.00809672  1
  Ti  Ti124  1  0.89540810  0.09926478  0.12452277  1
  Ti  Ti125  1  0.39296389  0.80771114  0.49720346  1
  Ti  Ti126  1  0.70221922  0.71788718  0.87536612  1
  Ti  Ti127  1  0.30532793  0.50025239  0.88295263  1
  Ti  Ti128  1  0.80044038  0.60250132  0.24038672  1
  Ti  Ti129  1  0.51169506  0.70686345  0.35608474  1
  Ti  Ti130  1  0.88852358  0.10062202  0.38008242  1
  Ti  Ti131  1  0.89700489  0.70091157  0.63960315  1
  Ti  Ti132  1  0.27221929  0.32306536  0.37488410  1
  Ti  Ti133  1  0.20547346  0.40528167  0.76754264  1
  Ti  Ti134  1  0.79513602  -0.01268764  -0.00640777  1
  Ti  Ti135  1  0.50867185  0.90713653  0.87850886  1
  Ti  Ti136  1  0.51191369  0.70265154  0.13250605  1
  Ti  Ti137  1  0.58876139  0.61618089  -0.01227073  1
  Ti  Ti138  1  0.59034932  0.79104897  0.49891456  1
  Ti  Ti139  1  0.69961159  0.89333672  0.38938846  1
  Ti  Ti140  1  0.50533369  0.70503207  0.63378364  1
  Ti  Ti141  1  0.00379214  0.19159536  0.75104296  1
  Ti  Ti142  1  0.00799535  0.39563955  0.50634471  1
  Ti  Ti143  1  0.69545726  0.07700817  0.87232957  1
  Ti  Ti144  1  0.42889613  0.21058729  0.00898471  1
  Ti  Ti145  1  0.88715423  0.89361323  0.38287214  1
  Ti  Ti146  1  0.69897618  0.70496040  0.13099217  1
  Ti  Ti147  1  0.09105144  0.09747300  0.62790413  1
  Ti  Ti148  1  0.69170290  0.29576928  0.61573480  1
  Ti  Ti149  1  0.60724955  0.80469750  -0.00611205  1
  Ti  Ti150  1  0.18584582  0.39883671  0.23086742  1
  Ti  Ti151  1  0.88385778  0.90261359  0.85881518  1
  Ti  Ti152  1  0.40835057  0.59980833  -0.01265484  1
  Ti  Ti153  1  0.10769636  0.29661281  0.89427971  1
  Ti  Ti154  1  0.10084204  0.29859235  0.62675306  1
  Ti  Ti155  1  0.80198372  0.17485478  -0.00718812  1
  Ti  Ti156  1  0.90447224  0.71429148  0.11022179  1
  Ti  Ti157  1  0.30780255  0.70901017  0.88684402  1
  Ti  Ti158  1  0.40134861  0.41146962  0.76143731  1
  Ti  Ti159  1  0.07702469  0.31206595  0.36677896  1
  Mo  Mo160  1  0.20481780  0.79905777  0.00141890  1
  Mo  Mo161  1  0.49578284  0.50055732  0.88454231  1
  Mo  Mo162  1  0.30647208  0.50483146  0.36488235  1
  Mo  Mo163  1  0.60704904  0.60665936  0.24083734  1
  Mo  Mo164  1  -0.00912469  0.81065089  -0.00503199  1
  Mo  Mo165  1  0.40722316  0.79406875  0.76240126  1
  Mo  Mo166  1  0.50237780  0.30246808  0.60482470  1
  Mo  Mo167  1  0.49492518  0.09753386  0.38172902  1
  Mo  Mo168  1  -0.00722585  -0.00006152  0.74942333  1
  Mo  Mo169  1  0.60869869  0.80128450  0.24857729  1
  Mo  Mo170  1  0.49699087  0.29367441  0.87467853  1
  Mo  Mo171  1  0.50116635  0.71233037  0.88099891  1
  Mo  Mo172  1  0.77955401  -0.00885128  0.75478487  1
  Mo  Mo173  1  0.79575682  0.80815898  -0.00269742  1
  Mo  Mo174  1  0.59860610  0.20874945  0.50869265  1
  Mo  Mo175  1  0.18765988  0.40265790  0.50316445  1
  Mo  Mo176  1  0.58701311  -0.00768459  0.49304761  1
  Mo  Mo177  1  0.20556089  0.19710382  0.00376950  1
  Mo  Mo178  1  0.10432105  0.69662025  0.36968653  1
  Mo  Mo179  1  0.01516670  0.39897972  0.22633746  1
  Mo  Mo180  1  0.59596925  0.00674311  0.75103501  1
  Mo  Mo181  1  0.30319362  0.89420663  0.62680945  1
  Mo  Mo182  1  0.50463354  0.09974593  0.12516891  1
  Mo  Mo183  1  0.60036345  0.17979792  0.00289355  1
  Mo  Mo184  1  0.79838721  0.79788951  0.74870177  1
  Mo  Mo185  1  0.00561490  0.60429545  -0.00027725  1
  Mo  Mo186  1  0.80294657  0.80068565  0.50677791  1
  Mo  Mo187  1  0.09146902  0.09733048  0.12304170  1
  Mo  Mo188  1  -0.00435612  0.79630445  0.23557980  1
  Mo  Mo189  1  0.40274800  0.40625199  -0.00559801  1
  Mo  Mo190  1  -0.00138747  0.19147057  0.00122381  1
  Mo  Mo191  1  0.28526224  0.09224113  0.36354195  1
  Mo  Mo192  1  0.11100860  0.49677060  0.88103022  1
  Mo  Mo193  1  0.10202754  0.49567745  0.11700436  1
  Mo  Mo194  1  0.89330101  0.29374710  0.37925029  1
  Mo  Mo195  1  0.69896473  0.90362406  0.88070135  1
  Mo  Mo196  1  0.49949822  0.29925448  0.12753217  1
  Mo  Mo197  1  0.80453019  -0.00876084  0.49257185  1
  Mo  Mo198  1  0.39716535  0.79665453  0.23795928  1
  Mo  Mo199  1  0.09445085  0.89710458  0.63378032  1
