# generated using pymatgen
data_HfZrTaTiMo
_symmetry_space_group_name_H-M   'P 1'
_cell_length_a   15.21334135
_cell_length_b   15.20749933
_cell_length_c   16.85841696
_cell_angle_alpha   90.02501656
_cell_angle_beta   89.99350720
_cell_angle_gamma   89.92612424
_symmetry_Int_Tables_number   1
_chemical_formula_structural   HfZrTaTiMo
_chemical_formula_sum   'Hf40 Zr40 Ta40 Ti40 Mo40'
_cell_volume   3900.30708232
_cell_formula_units_Z   40
loop_
 _symmetry_equiv_pos_site_id
 _symmetry_equiv_pos_as_xyz
  1  'x, y, z'
loop_
 _atom_site_type_symbol
 _atom_site_label
 _atom_site_symmetry_multiplicity
 _atom_site_fract_x
 _atom_site_fract_y
 _atom_site_fract_z
 _atom_site_occupancy
  Hf  Hf0  1  0.71224333  0.50673486  0.87188935  1
  Hf  Hf1  1  0.48484631  0.50880763  0.36118964  1
  Hf  Hf2  1  0.19887377  0.21191389  0.49972007  1
  Hf  Hf3  1  0.19058884  -0.00096589  0.75693931  1
  Hf  Hf4  1  0.79449114  0.59438907  0.51084614  1
  Hf  Hf5  1  0.39709781  0.18970885  0.49682011  1
  Hf  Hf6  1  0.89985042  0.09083458  0.60999612  1
  Hf  Hf7  1  -0.02276947  -0.00259167  0.75338331  1
  Hf  Hf8  1  0.60716452  0.40617766  0.00439125  1
  Hf  Hf9  1  0.50237002  0.08346699  0.36752316  1
  Hf  Hf10  1  0.49427077  0.30229289  0.63144781  1
  Hf  Hf11  1  0.58838920  0.61401081  0.74386852  1
  Hf  Hf12  1  0.59666602  0.19759937  0.50240128  1
  Hf  Hf13  1  0.90194301  0.69343069  0.38523950  1
  Hf  Hf14  1  0.81492838  0.40746684  0.00278912  1
  Hf  Hf15  1  0.19593137  0.59720853  0.24492233  1
  Hf  Hf16  1  0.11078917  0.69957054  0.62488365  1
  Hf  Hf17  1  0.18837944  0.19059453  -0.00828351  1
  Hf  Hf18  1  0.50062366  0.29325910  0.35997335  1
  Hf  Hf19  1  0.90208944  0.51197463  0.13629952  1
  Hf  Hf20  1  0.19334389  0.39097098  0.77749367  1
  Hf  Hf21  1  0.71543812  0.90358300  0.87260289  1
  Hf  Hf22  1  0.69543350  0.50914554  0.37253286  1
  Hf  Hf23  1  0.40362996  0.39634768  0.77594489  1
  Hf  Hf24  1  0.31530991  0.69510437  0.87335666  1
  Hf  Hf25  1  0.29661613  0.30283610  0.36481943  1
  Hf  Hf26  1  0.09951113  0.89867703  0.37254837  1
  Hf  Hf27  1  0.88234933  0.90222113  0.39707990  1
  Hf  Hf28  1  0.31657418  0.68467820  0.63753729  1
  Hf  Hf29  1  0.07582143  0.50528624  0.88197784  1
  Hf  Hf30  1  0.40927201  0.60151744  0.50086768  1
  Hf  Hf31  1  0.43247142  0.79484071  0.25512514  1
  Hf  Hf32  1  0.89792569  0.68936801  0.86993535  1
  Hf  Hf33  1  0.80019532  0.58245155  0.72832247  1
  Hf  Hf34  1  0.80293108  0.81248644  0.25124015  1
  Hf  Hf35  1  0.29261743  0.49714470  0.10555872  1
  Hf  Hf36  1  0.70420088  0.29976494  0.87438370  1
  Hf  Hf37  1  0.09353586  0.88969180  0.13965185  1
  Hf  Hf38  1  0.50725749  0.90378948  0.63125065  1
  Hf  Hf39  1  0.59763298  0.41025429  0.50987692  1
  Zr  Zr40  1  0.60815076  0.79430213  0.00559267  1
  Zr  Zr41  1  0.09523199  0.50019233  0.36477913  1
  Zr  Zr42  1  0.09735079  0.11263351  0.63357201  1
  Zr  Zr43  1  0.30299443  0.91134219  0.14139070  1
  Zr  Zr44  1  0.38022232  0.40291772  0.49832605  1
  Zr  Zr45  1  0.00914356  0.40299263  0.51112335  1
  Zr  Zr46  1  0.29483822  0.29214074  0.64052865  1
  Zr  Zr47  1  0.10468772  0.09952899  0.36663534  1
  Zr  Zr48  1  -0.02453431  -0.00777503  0.25259744  1
  Zr  Zr49  1  0.20019044  -0.00469059  0.00178156  1
  Zr  Zr50  1  0.69970152  0.09752045  0.63178240  1
  Zr  Zr51  1  0.20600151  0.57564656  0.49641679  1
  Zr  Zr52  1  0.19936639  0.79326115  0.00391616  1
  Zr  Zr53  1  0.81054013  0.80733821  0.74452484  1
  Zr  Zr54  1  0.41042356  0.00081281  0.75751307  1
  Zr  Zr55  1  0.38925054  0.39839368  0.23293937  1
  Zr  Zr56  1  0.09268869  0.29500391  0.11775959  1
  Zr  Zr57  1  0.40259496  0.80290122  0.48990609  1
  Zr  Zr58  1  0.21285675  0.00070741  0.50039872  1
  Zr  Zr59  1  0.69576988  0.30554624  0.36969399  1
  Zr  Zr60  1  0.30478092  0.09358710  0.63730815  1
  Zr  Zr61  1  0.50696488  0.27765698  0.11239640  1
  Zr  Zr62  1  0.30619316  0.89415061  0.88073075  1
  Zr  Zr63  1  0.00242474  0.00094764  -0.00142095  1
  Zr  Zr64  1  0.20060766  0.79875891  0.75118788  1
  Zr  Zr65  1  0.90319315  0.30405811  0.13128662  1
  Zr  Zr66  1  0.60581752  0.40302075  0.22972260  1
  Zr  Zr67  1  0.79594208  0.21078906  0.49885621  1
  Zr  Zr68  1  0.59195253  0.20313601  0.75956290  1
  Zr  Zr69  1  0.89613437  0.10278072  0.12450266  1
  Zr  Zr70  1  0.09019510  0.49439498  0.11609601  1
  Zr  Zr71  1  -0.01477483  0.40932414  0.74488796  1
  Zr  Zr72  1  0.20924308  0.79120149  0.49031978  1
  Zr  Zr73  1  0.90551416  0.30913413  0.36956117  1
  Zr  Zr74  1  0.31469859  0.68089651  0.35799498  1
  Zr  Zr75  1  0.58970011  0.62104733  0.23816254  1
  Zr  Zr76  1  0.79721630  0.19231829  0.25548082  1
  Zr  Zr77  1  0.50241945  0.89304977  0.88374783  1
  Zr  Zr78  1  0.59577709  0.80366916  0.50186718  1
  Zr  Zr79  1  0.60493873  0.00897876  -0.00023992  1
  Ta  Ta80  1  0.21116863  0.19829478  0.23827422  1
  Ta  Ta81  1  0.69864906  0.70985358  0.62258726  1
  Ta  Ta82  1  0.28825729  0.48870188  0.64285904  1
  Ta  Ta83  1  0.90109501  0.29348847  0.63046136  1
  Ta  Ta84  1  0.50001527  0.90086393  0.11783992  1
  Ta  Ta85  1  0.89692748  0.50211680  0.36774837  1
  Ta  Ta86  1  0.89845363  0.09607410  0.39017300  1
  Ta  Ta87  1  0.00430190  0.20318567  0.49752965  1
  Ta  Ta88  1  0.09080850  0.90643620  0.61579494  1
  Ta  Ta89  1  0.00254893  0.59596787  0.51249806  1
  Ta  Ta90  1  0.30583633  0.09748143  0.88195271  1
  Ta  Ta91  1  0.30882974  0.70152877  0.12976023  1
  Ta  Ta92  1  0.69697083  0.70087564  0.87243654  1
  Ta  Ta93  1  0.10629917  0.09211332  0.13895800  1
  Ta  Ta94  1  0.48413449  0.50796183  0.63654935  1
  Ta  Ta95  1  0.19342216  0.39283566  -0.01920650  1
  Ta  Ta96  1  0.79898699  0.60869400  0.24987296  1
  Ta  Ta97  1  0.50414506  0.51517052  0.88113681  1
  Ta  Ta98  1  0.68091818  0.90622471  0.37399883  1
  Ta  Ta99  1  0.68633166  0.11144483  0.12613513  1
  Ta  Ta100  1  0.69899258  0.09011557  0.37309665  1
  Ta  Ta101  1  0.69734058  0.70944715  0.37576727  1
  Ta  Ta102  1  0.40380912  0.39664014  -0.01203803  1
  Ta  Ta103  1  0.31087490  0.91281103  0.35498517  1
  Ta  Ta104  1  0.60473366  0.41232825  0.74845954  1
  Ta  Ta105  1  0.29888776  0.29032491  0.10359582  1
  Ta  Ta106  1  0.00379125  0.77920668  0.26096937  1
  Ta  Ta107  1  0.80454903  0.00854738  0.00068055  1
  Ta  Ta108  1  0.10314103  0.30251273  0.36653661  1
  Ta  Ta109  1  0.90292895  0.70681619  0.61493789  1
  Ta  Ta110  1  0.00674157  0.79533795  0.49690178  1
  Ta  Ta111  1  0.19453810  0.60383835  -0.00495569  1
  Ta  Ta112  1  0.40636592  0.61148969  0.00296891  1
  Ta  Ta113  1  -0.00278134  0.79288302  -0.00034587  1
  Ta  Ta114  1  0.89724684  0.90027189  0.60217661  1
  Ta  Ta115  1  0.42283273  0.78136477  0.75024799  1
  Ta  Ta116  1  0.49636019  0.50833656  0.11501946  1
  Ta  Ta117  1  0.50021950  0.09881049  0.62729319  1
  Ta  Ta118  1  0.00007394  0.60513264  0.73366896  1
  Ta  Ta119  1  0.71121075  0.70565599  0.12740374  1
  Ti  Ti120  1  0.70733072  0.91119568  0.12833885  1
  Ti  Ti121  1  0.10441659  0.31024516  0.63273834  1
  Ti  Ti122  1  0.50193904  0.11155786  0.89353928  1
  Ti  Ti123  1  0.59721507  0.60439400  0.51004796  1
  Ti  Ti124  1  0.30141220  0.89280798  0.63045719  1
  Ti  Ti125  1  0.81190603  0.19322381  0.75184288  1
  Ti  Ti126  1  0.30324670  0.09727940  0.36039972  1
  Ti  Ti127  1  0.80244811  0.40630403  0.51385843  1
  Ti  Ti128  1  0.60702402  0.60335905  0.00868125  1
  Ti  Ti129  1  0.19293486  0.39322460  0.23903952  1
  Ti  Ti130  1  0.79565012  0.60812799  0.00587529  1
  Ti  Ti131  1  0.09355416  0.89130294  0.87549421  1
  Ti  Ti132  1  -0.01333486  0.60021210  -0.00001634  1
  Ti  Ti133  1  0.60899472  0.80660733  0.74839742  1
  Ti  Ti134  1  0.19934277  0.20089045  0.77754610  1
  Ti  Ti135  1  -0.02063205  0.20553435  -0.01338416  1
  Ti  Ti136  1  0.20057713  0.79369716  0.25831768  1
  Ti  Ti137  1  0.90432230  0.90201600  0.88230948  1
  Ti  Ti138  1  0.79785244  0.40904264  0.24280709  1
  Ti  Ti139  1  0.89671001  0.89626240  0.11989012  1
  Ti  Ti140  1  0.39840152  0.20245768  0.77297939  1
  Ti  Ti141  1  0.09483501  0.69167209  0.12388708  1
  Ti  Ti142  1  0.08357949  0.09757502  0.87207762  1
  Ti  Ti143  1  0.71510684  0.10365873  0.87482559  1
  Ti  Ti144  1  0.90651512  0.70683895  0.12795065  1
  Ti  Ti145  1  0.41171350  -0.00767240  0.49842403  1
  Ti  Ti146  1  0.89679592  0.30863962  0.87027062  1
  Ti  Ti147  1  0.00110806  0.20597981  0.76073665  1
  Ti  Ti148  1  0.70771931  0.29511166  0.11813035  1
  Ti  Ti149  1  0.80639436  0.80071448  0.00154764  1
  Ti  Ti150  1  0.19701159  0.59129526  0.76031094  1
  Ti  Ti151  1  0.59162659  -0.00204314  0.23799062  1
  Ti  Ti152  1  0.70936969  0.90986198  0.61784360  1
  Ti  Ti153  1  0.29909621  0.50410292  0.88632578  1
  Ti  Ti154  1  0.70423925  0.30684131  0.63745955  1
  Ti  Ti155  1  0.00283690  0.80231409  0.74210198  1
  Ti  Ti156  1  0.40583232  0.18313830  0.23352546  1
  Ti  Ti157  1  0.09580526  0.70150581  0.87208555  1
  Ti  Ti158  1  0.00572178  0.20197482  0.25500311  1
  Ti  Ti159  1  0.60994465  0.00404744  0.75995146  1
  Mo  Mo160  1  0.49393958  0.08894040  0.11584632  1
  Mo  Mo161  1  0.89087729  0.50844048  0.87416696  1
  Mo  Mo162  1  0.19771140  0.39639152  0.50305223  1
  Mo  Mo163  1  0.39772475  0.59675076  0.22710876  1
  Mo  Mo164  1  0.90033423  0.49763401  0.61852682  1
  Mo  Mo165  1  0.79465156  0.38789096  0.74249714  1
  Mo  Mo166  1  0.60028505  0.18852449  0.24650005  1
  Mo  Mo167  1  0.39710337  0.58848364  0.76038913  1
  Mo  Mo168  1  0.50151659  0.70734503  0.11383349  1
  Mo  Mo169  1  0.79849935  0.00134230  0.75005222  1
  Mo  Mo170  1  0.78541903  0.00095032  0.49716853  1
  Mo  Mo171  1  0.19779199  0.00282248  0.25073135  1
  Mo  Mo172  1  0.79249881  0.19731438  -0.00091104  1
  Mo  Mo173  1  0.89146677  0.10579925  0.87561914  1
  Mo  Mo174  1  0.29578484  0.48894671  0.36128559  1
  Mo  Mo175  1  0.30114967  0.10688097  0.12238295  1
  Mo  Mo176  1  0.70462522  0.50972782  0.12458200  1
  Mo  Mo177  1  -0.00532763  0.39967875  -0.00997603  1
  Mo  Mo178  1  0.08483393  0.29289067  0.87963830  1
  Mo  Mo179  1  0.10831101  0.50166126  0.63605611  1
  Mo  Mo180  1  0.00381212  0.00130458  0.49851115  1
  Mo  Mo181  1  0.61611598  0.81385835  0.24033226  1
  Mo  Mo182  1  0.51045473  0.69779655  0.88234890  1
  Mo  Mo183  1  0.40283173  0.79894324  0.01233748  1
  Mo  Mo184  1  0.09901662  0.69957252  0.37896448  1
  Mo  Mo185  1  0.78058691  -0.00222688  0.25009722  1
  Mo  Mo186  1  0.50514721  0.30364716  0.88644118  1
  Mo  Mo187  1  0.60938996  0.20313851  -0.00892585  1
  Mo  Mo188  1  0.30130984  0.29226250  0.89259832  1
  Mo  Mo189  1  0.50386076  0.70173183  0.62791169  1
  Mo  Mo190  1  0.40105199  0.00460243  0.00428349  1
  Mo  Mo191  1  -0.00711108  0.60470097  0.25076721  1
  Mo  Mo192  1  0.68767163  0.49560517  0.62428249  1
  Mo  Mo193  1  0.59313109  0.00411557  0.50235994  1
  Mo  Mo194  1  0.50349668  0.90143436  0.36927421  1
  Mo  Mo195  1  0.40351602  0.00262505  0.24431870  1
  Mo  Mo196  1  0.79367793  0.79551259  0.50456114  1
  Mo  Mo197  1  0.39955733  0.19222307  -0.00469903  1
  Mo  Mo198  1  0.52066355  0.69511753  0.37425005  1
  Mo  Mo199  1  -0.00114220  0.39947367  0.25556116  1
