# generated using pymatgen
data_HfZrTaTiMo
_symmetry_space_group_name_H-M   'P 1'
_cell_length_a   15.21475895
_cell_length_b   15.21261362
_cell_length_c   16.82595093
_cell_angle_alpha   90.00244837
_cell_angle_beta   90.01808265
_cell_angle_gamma   90.10308191
_symmetry_Int_Tables_number   1
_chemical_formula_structural   HfZrTaTiMo
_chemical_formula_sum   'Hf40 Zr40 Ta40 Ti40 Mo40'
_cell_volume   3894.46499229
_cell_formula_units_Z   40
loop_
 _symmetry_equiv_pos_site_id
 _symmetry_equiv_pos_as_xyz
  1  'x, y, z'
loop_
 _atom_site_type_symbol
 _atom_site_label
 _atom_site_symmetry_multiplicity
 _atom_site_fract_x
 _atom_site_fract_y
 _atom_site_fract_z
 _atom_site_occupancy
  Hf  Hf0  1  0.39306625  0.01201689  0.50765006  1
  Hf  Hf1  1  0.01085550  0.80322544  0.51580932  1
  Hf  Hf2  1  0.20008245  0.81024448  0.00871684  1
  Hf  Hf3  1  0.59245852  0.19482302  0.00433949  1
  Hf  Hf4  1  -0.00961808  0.20444896  0.75888192  1
  Hf  Hf5  1  0.20166563  0.39908389  0.23088286  1
  Hf  Hf6  1  0.29022042  0.90414994  0.36409047  1
  Hf  Hf7  1  0.40949312  0.80446847  0.23414351  1
  Hf  Hf8  1  0.59806441  0.39808669  0.76295292  1
  Hf  Hf9  1  0.50879537  0.92084006  0.88641489  1
  Hf  Hf10  1  0.11825941  0.09679586  0.86454977  1
  Hf  Hf11  1  0.62027553  0.80456400  0.24493660  1
  Hf  Hf12  1  0.10684112  0.49291364  0.36349422  1
  Hf  Hf13  1  0.40367165  0.00848000  0.73479208  1
  Hf  Hf14  1  0.79137202  0.39057010  0.49499451  1
  Hf  Hf15  1  0.29871947  0.90546637  0.87019682  1
  Hf  Hf16  1  0.51000861  0.70885955  0.89902594  1
  Hf  Hf17  1  0.41009766  0.79963620  0.75488716  1
  Hf  Hf18  1  0.50442725  0.49960145  0.90294728  1
  Hf  Hf19  1  0.29069608  0.51846465  0.62607455  1
  Hf  Hf20  1  0.69913461  0.49641812  0.62437780  1
  Hf  Hf21  1  0.59619638  0.00926674  0.72936257  1
  Hf  Hf22  1  0.60509736  0.80698249  0.74407024  1
  Hf  Hf23  1  0.69389878  0.89115946  0.39294784  1
  Hf  Hf24  1  0.71204544  0.88577189  0.87161099  1
  Hf  Hf25  1  0.20622464  0.61528607  0.23416060  1
  Hf  Hf26  1  0.51481775  0.49303498  0.10566113  1
  Hf  Hf27  1  0.78372841  0.39772077  -0.01298012  1
  Hf  Hf28  1  0.00584475  0.60306113  0.48642474  1
  Hf  Hf29  1  0.30719357  0.29845310  0.62756909  1
  Hf  Hf30  1  0.49758997  0.49430568  0.62377723  1
  Hf  Hf31  1  0.38833122  0.60124711  0.76260132  1
  Hf  Hf32  1  -0.00397027  0.19231213  -0.00893981  1
  Hf  Hf33  1  0.08287843  0.50638351  0.12631618  1
  Hf  Hf34  1  0.39834948  0.18029924  0.25452470  1
  Hf  Hf35  1  0.73322517  0.70115359  0.12679348  1
  Hf  Hf36  1  0.49330570  0.29066912  0.88383712  1
  Hf  Hf37  1  0.59172874  0.00639763  0.26268251  1
  Hf  Hf38  1  0.70686848  0.49005787  0.13544329  1
  Hf  Hf39  1  0.39526773  0.40778144  0.49031212  1
  Zr  Zr40  1  0.68717660  0.09032272  0.87428573  1
  Zr  Zr41  1  0.19405382  0.60530307  0.01724176  1
  Zr  Zr42  1  0.48404960  0.69556735  0.61419706  1
  Zr  Zr43  1  0.89682398  0.08426171  0.11864216  1
  Zr  Zr44  1  0.80482695  0.79917335  0.51194325  1
  Zr  Zr45  1  -0.01179143  0.78924824  0.73586015  1
  Zr  Zr46  1  0.38512111  0.38333822  0.02154151  1
  Zr  Zr47  1  -0.00569161  0.40761179  0.75303531  1
  Zr  Zr48  1  0.40987081  0.20411800  0.48299026  1
  Zr  Zr49  1  0.59733984  0.60664375  0.76173143  1
  Zr  Zr50  1  0.09322778  0.29892402  0.62071573  1
  Zr  Zr51  1  0.88568130  0.30294454  0.12379243  1
  Zr  Zr52  1  0.21149468  0.20335071  0.00969559  1
  Zr  Zr53  1  0.80226263  0.59509052  0.48159366  1
  Zr  Zr54  1  0.20680429  0.19205451  0.49675807  1
  Zr  Zr55  1  0.09566202  0.29007569  0.37718068  1
  Zr  Zr56  1  0.10592977  0.30500462  0.87858308  1
  Zr  Zr57  1  -0.01213899  0.40543033  -0.00294729  1
  Zr  Zr58  1  0.29543997  0.49627027  0.88837832  1
  Zr  Zr59  1  0.79916027  -0.01330294  0.25751691  1
  Zr  Zr60  1  0.79862791  0.00957939  0.51337961  1
  Zr  Zr61  1  0.40184626  0.59898869  0.22491504  1
  Zr  Zr62  1  0.39981460  0.00848052  0.01328320  1
  Zr  Zr63  1  0.20564417  0.78929701  0.51198563  1
  Zr  Zr64  1  -0.00709886  0.00404323  0.74011579  1
  Zr  Zr65  1  0.09559372  0.69547462  0.86873397  1
  Zr  Zr66  1  0.79167325  0.19230138  0.25608817  1
  Zr  Zr67  1  0.59701160  0.60651349  0.24700122  1
  Zr  Zr68  1  0.20290108  0.59476055  0.48693187  1
  Zr  Zr69  1  -0.00373350  0.61204442  0.26400812  1
  Zr  Zr70  1  0.19523500  -0.00711092  0.50607090  1
  Zr  Zr71  1  0.19980563  0.40869729  0.74591053  1
  Zr  Zr72  1  0.69017298  0.69567096  0.61474673  1
  Zr  Zr73  1  0.31082107  0.70392706  0.36388843  1
  Zr  Zr74  1  -0.00023069  0.18917857  0.24936420  1
  Zr  Zr75  1  0.79973253  0.38643732  0.76088802  1
  Zr  Zr76  1  0.69116164  0.48252681  0.35620657  1
  Zr  Zr77  1  0.10164207  0.89736330  0.86134381  1
  Zr  Zr78  1  0.61452206  0.20188000  0.47577315  1
  Zr  Zr79  1  0.79936397  -0.00487400  0.72947004  1
  Ta  Ta80  1  0.62163551  0.81541439  0.01170510  1
  Ta  Ta81  1  0.31507857  0.10520817  0.86980416  1
  Ta  Ta82  1  0.49082300  0.90194421  0.38183153  1
  Ta  Ta83  1  -0.00483738  0.80081051  -0.00136698  1
  Ta  Ta84  1  0.40139521  0.39560148  0.23372731  1
  Ta  Ta85  1  0.79236086  -0.01754180  0.00484413  1
  Ta  Ta86  1  0.51659875  0.91532999  0.12094892  1
  Ta  Ta87  1  0.89389539  0.29765203  0.37856138  1
  Ta  Ta88  1  0.09235365  0.29478243  0.12389967  1
  Ta  Ta89  1  0.11116593  0.89656410  0.64508791  1
  Ta  Ta90  1  0.08893677  0.72184787  0.13315103  1
  Ta  Ta91  1  0.91589034  0.90221883  0.38814237  1
  Ta  Ta92  1  0.59857436  0.19785308  0.26462563  1
  Ta  Ta93  1  0.88569327  0.69983031  0.86843219  1
  Ta  Ta94  1  0.88811730  0.51450203  0.13500019  1
  Ta  Ta95  1  0.00182368  0.00616312  0.52336141  1
  Ta  Ta96  1  -0.01022485  0.39478042  0.24693835  1
  Ta  Ta97  1  0.29762312  0.30527954  0.36069191  1
  Ta  Ta98  1  0.89520575  0.87844854  0.12592846  1
  Ta  Ta99  1  0.90547213  0.10159454  0.38980084  1
  Ta  Ta100  1  0.70091363  0.12172459  0.62137192  1
  Ta  Ta101  1  0.30236074  0.70452749  0.88906203  1
  Ta  Ta102  1  0.51048577  0.71190415  0.37939500  1
  Ta  Ta103  1  0.30343447  0.89480169  0.63376711  1
  Ta  Ta104  1  0.59418002  0.59382176  0.48457412  1
  Ta  Ta105  1  0.10060742  0.09633851  0.12285153  1
  Ta  Ta106  1  0.09629644  0.50907140  0.88154236  1
  Ta  Ta107  1  0.08904617  0.91074620  0.12810994  1
  Ta  Ta108  1  0.10520408  0.73180997  0.36305189  1
  Ta  Ta109  1  0.30037161  0.29079442  0.86604444  1
  Ta  Ta110  1  0.60114102  0.20442084  0.75002634  1
  Ta  Ta111  1  0.79069192  0.19285919  -0.00601566  1
  Ta  Ta112  1  0.19608335  0.00958999  0.25076498  1
  Ta  Ta113  1  0.41159050  0.20014589  0.74177497  1
  Ta  Ta114  1  0.80284690  0.61722566  0.27138409  1
  Ta  Ta115  1  0.80741747  0.59911797  0.74585602  1
  Ta  Ta116  1  0.59097196  0.39899852  0.49186681  1
  Ta  Ta117  1  0.90687516  0.49462817  0.62085921  1
  Ta  Ta118  1  -0.00292651  0.40003994  0.49874534  1
  Ta  Ta119  1  0.19934755  0.00566641  0.00558348  1
  Ti  Ti120  1  0.50578011  0.89797664  0.60876876  1
  Ti  Ti121  1  0.11029438  0.67001237  0.63841140  1
  Ti  Ti122  1  0.90146134  0.49000894  0.36699096  1
  Ti  Ti123  1  0.90228953  0.50927498  0.87411319  1
  Ti  Ti124  1  0.59348717  0.00819011  0.50205309  1
  Ti  Ti125  1  0.39021997  0.60941139  0.01849116  1
  Ti  Ti126  1  0.19508276  0.39945166  0.01609966  1
  Ti  Ti127  1  0.11263336  0.10354418  0.63900901  1
  Ti  Ti128  1  0.68463329  0.08873458  0.12224619  1
  Ti  Ti129  1  0.50639004  0.28976761  0.13377441  1
  Ti  Ti130  1  0.81031099  0.78499788  -0.00390326  1
  Ti  Ti131  1  0.69766277  0.30166928  0.62376144  1
  Ti  Ti132  1  0.39567431  0.19217515  0.02064980  1
  Ti  Ti133  1  0.79694060  0.19672557  0.75903866  1
  Ti  Ti134  1  0.29257495  0.90834320  0.13719689  1
  Ti  Ti135  1  0.40377904  0.39877933  0.75411534  1
  Ti  Ti136  1  0.40113097  0.80718105  0.01504483  1
  Ti  Ti137  1  0.79788205  0.79739304  0.72900025  1
  Ti  Ti138  1  0.90373268  0.68081732  0.62434983  1
  Ti  Ti139  1  0.19875526  0.19577297  0.24660302  1
  Ti  Ti140  1  0.70691525  0.51330657  0.87430421  1
  Ti  Ti141  1  0.39798540  0.60344712  0.48978314  1
  Ti  Ti142  1  0.39687203  0.80322159  0.49955033  1
  Ti  Ti143  1  -0.01005006  0.81070100  0.25652762  1
  Ti  Ti144  1  0.19823858  0.40157338  0.49913053  1
  Ti  Ti145  1  0.21472745  0.77974278  0.74505172  1
  Ti  Ti146  1  0.51693169  0.70668281  0.10770661  1
  Ti  Ti147  1  0.89032055  0.08812785  0.88109915  1
  Ti  Ti148  1  0.69112595  0.29783819  0.13014066  1
  Ti  Ti149  1  -0.00031411  -0.00208655  0.25523824  1
  Ti  Ti150  1  0.49154272  0.50348998  0.36289126  1
  Ti  Ti151  1  -0.00029988  -0.00931602  -0.00531637  1
  Ti  Ti152  1  0.63430306  0.60698930  -0.00111339  1
  Ti  Ti153  1  0.09797808  0.08618553  0.38136818  1
  Ti  Ti154  1  -0.01617586  0.61296116  0.00397924  1
  Ti  Ti155  1  0.89005636  0.28653284  0.61498818  1
  Ti  Ti156  1  0.51030903  0.29635941  0.62044869  1
  Ti  Ti157  1  0.50366804  0.31478439  0.35911590  1
  Ti  Ti158  1  0.30389172  0.49612096  0.36111372  1
  Ti  Ti159  1  0.90161677  0.89529097  0.87362939  1
  Mo  Mo160  1  0.60781377  0.00299383  0.00511503  1
  Mo  Mo161  1  0.19512404  0.60010705  0.75869974  1
  Mo  Mo162  1  0.80523708  0.39919490  0.25230912  1
  Mo  Mo163  1  0.49103856  0.10444762  0.87295279  1
  Mo  Mo164  1  0.28969795  0.10223076  0.36748275  1
  Mo  Mo165  1  0.90587796  0.11672591  0.62209368  1
  Mo  Mo166  1  0.50651524  0.11718783  0.61702775  1
  Mo  Mo167  1  0.81435773  0.79751816  0.26694494  1
  Mo  Mo168  1  0.58901572  0.80390477  0.49967533  1
  Mo  Mo169  1  0.20904963  -0.00239092  0.74179649  1
  Mo  Mo170  1  0.70135936  0.29935416  0.36438590  1
  Mo  Mo171  1  0.69624480  0.29385955  0.87661154  1
  Mo  Mo172  1  0.90449769  0.89806252  0.61941288  1
  Mo  Mo173  1  0.29934863  0.10533544  0.63305890  1
  Mo  Mo174  1  0.29246285  0.09323353  0.13308946  1
  Mo  Mo175  1  -0.00308571  0.19386249  0.50353910  1
  Mo  Mo176  1  0.29928071  0.70433174  0.62676661  1
  Mo  Mo177  1  0.81231238  0.59506702  -0.00395836  1
  Mo  Mo178  1  0.50452716  0.10229132  0.13275957  1
  Mo  Mo179  1  0.90495022  0.71465662  0.38134381  1
  Mo  Mo180  1  0.80581740  0.20310419  0.49548368  1
  Mo  Mo181  1  0.49538777  0.08745185  0.37678704  1
  Mo  Mo182  1  0.71079312  0.90250956  0.12784690  1
  Mo  Mo183  1  0.59118502  0.38900991  0.24292825  1
  Mo  Mo184  1  0.29702157  0.28989326  0.14197055  1
  Mo  Mo185  1  0.39819448  -0.00620705  0.24490946  1
  Mo  Mo186  1  0.09009953  0.49998260  0.61579708  1
  Mo  Mo187  1  0.09181573  0.90879323  0.37465093  1
  Mo  Mo188  1  0.21234647  0.19494027  0.74636547  1
  Mo  Mo189  1  -0.00551805  0.59168861  0.74913812  1
  Mo  Mo190  1  0.60339034  0.39297689  -0.00316622  1
  Mo  Mo191  1  0.30347267  0.71714059  0.11543870  1
  Mo  Mo192  1  0.69017970  0.90534873  0.61203572  1
  Mo  Mo193  1  0.29953267  0.50020118  0.11853916  1
  Mo  Mo194  1  0.70769361  0.70024939  0.87544926  1
  Mo  Mo195  1  0.91016635  0.69879861  0.12838042  1
  Mo  Mo196  1  0.69633143  0.69968770  0.38276952  1
  Mo  Mo197  1  0.70348693  0.09468917  0.37965614  1
  Mo  Mo198  1  0.88989838  0.28420075  0.88189086  1
  Mo  Mo199  1  0.19118114  0.81375729  0.23766381  1
