# generated using pymatgen
data_HfZrTaTiMo
_symmetry_space_group_name_H-M   'P 1'
_cell_length_a   15.21751179
_cell_length_b   15.21412785
_cell_length_c   16.85398144
_cell_angle_alpha   90.00583174
_cell_angle_beta   89.92627464
_cell_angle_gamma   90.10047898
_symmetry_Int_Tables_number   1
_chemical_formula_structural   HfZrTaTiMo
_chemical_formula_sum   'Hf40 Zr40 Ta40 Ti40 Mo40'
_cell_volume   3902.04425324
_cell_formula_units_Z   40
loop_
 _symmetry_equiv_pos_site_id
 _symmetry_equiv_pos_as_xyz
  1  'x, y, z'
loop_
 _atom_site_type_symbol
 _atom_site_label
 _atom_site_symmetry_multiplicity
 _atom_site_fract_x
 _atom_site_fract_y
 _atom_site_fract_z
 _atom_site_occupancy
  Hf  Hf0  1  0.09830802  0.29531735  0.13002961  1
  Hf  Hf1  1  0.20659977  0.41049481  -0.00272630  1
  Hf  Hf2  1  0.39401582  0.59054886  0.24474202  1
  Hf  Hf3  1  0.69278267  0.91524434  0.36606710  1
  Hf  Hf4  1  0.79828508  0.60628486  0.25572092  1
  Hf  Hf5  1  -0.00896467  0.60406196  0.26091613  1
  Hf  Hf6  1  0.29361666  0.91790761  0.88143352  1
  Hf  Hf7  1  0.42013769  0.18367032  0.50221617  1
  Hf  Hf8  1  0.38737625  0.59149974  -0.00614390  1
  Hf  Hf9  1  0.80099287  0.40742434  0.24063762  1
  Hf  Hf10  1  0.40849947  0.81063399  0.76012771  1
  Hf  Hf11  1  0.00591411  0.40095755  0.24941666  1
  Hf  Hf12  1  0.01887957  0.19274417  0.75565039  1
  Hf  Hf13  1  0.49527702  0.70665280  0.11780451  1
  Hf  Hf14  1  0.22074641  0.42952665  0.51666003  1
  Hf  Hf15  1  0.30362993  0.68803287  0.62653015  1
  Hf  Hf16  1  0.70728750  0.29924168  0.36469016  1
  Hf  Hf17  1  0.80028057  0.38995798  0.01467243  1
  Hf  Hf18  1  0.79655866  -0.02024204  0.75029254  1
  Hf  Hf19  1  0.31720224  0.29942920  0.61992815  1
  Hf  Hf20  1  0.01157126  0.00714456  0.25651040  1
  Hf  Hf21  1  0.50888136  0.08743321  0.13319400  1
  Hf  Hf22  1  0.71248001  0.31725445  0.63784716  1
  Hf  Hf23  1  0.79278476  0.01416695  0.50060294  1
  Hf  Hf24  1  0.28691598  0.70037581  0.11881849  1
  Hf  Hf25  1  0.57779792  0.00616870  0.50791066  1
  Hf  Hf26  1  0.40833884  0.80788710  -0.01622322  1
  Hf  Hf27  1  0.51147317  0.68622282  0.86790908  1
  Hf  Hf28  1  0.69126751  0.50746536  0.88420694  1
  Hf  Hf29  1  -0.01174757  0.59536868  0.75166328  1
  Hf  Hf30  1  0.68540408  0.89347436  0.62396990  1
  Hf  Hf31  1  0.89347656  0.68494384  0.61754397  1
  Hf  Hf32  1  0.50326464  0.08743541  0.35752686  1
  Hf  Hf33  1  0.50732737  0.29266638  0.36969133  1
  Hf  Hf34  1  0.51307490  0.70292269  0.63981367  1
  Hf  Hf35  1  0.29989104  0.09724460  0.11818881  1
  Hf  Hf36  1  0.18602539  0.59879595  0.74181343  1
  Hf  Hf37  1  0.59265183  0.38876165  0.01026971  1
  Hf  Hf38  1  0.09595538  0.89062841  0.13074908  1
  Hf  Hf39  1  0.29623370  0.49487868  0.85675952  1
  Zr  Zr40  1  -0.00223178  0.60883847  -0.00494080  1
  Zr  Zr41  1  0.30892792  0.90506110  0.38643165  1
  Zr  Zr42  1  0.19685125  0.59079186  0.24989583  1
  Zr  Zr43  1  0.09755947  0.92520431  0.61598176  1
  Zr  Zr44  1  0.70197752  0.30778302  0.86102341  1
  Zr  Zr45  1  0.77901275  0.58737428  0.74407494  1
  Zr  Zr46  1  0.79384959  0.20622790  0.50503799  1
  Zr  Zr47  1  0.59543115  0.59611384  0.01102278  1
  Zr  Zr48  1  0.59394336  0.59590681  0.24896734  1
  Zr  Zr49  1  -0.00936263  -0.02559246  -0.00606077  1
  Zr  Zr50  1  0.41368558  0.21371379  0.01029193  1
  Zr  Zr51  1  0.60826661  0.39532028  0.50465146  1
  Zr  Zr52  1  0.71207369  0.10516526  0.14997846  1
  Zr  Zr53  1  0.20411987  0.21617967  0.00375034  1
  Zr  Zr54  1  0.89557544  0.89841923  0.61400349  1
  Zr  Zr55  1  0.59047303  0.80307655  0.24599609  1
  Zr  Zr56  1  0.30180219  0.11110463  0.88921618  1
  Zr  Zr57  1  0.11117297  0.29592148  0.61813442  1
  Zr  Zr58  1  0.79262485  0.79564086  0.48653168  1
  Zr  Zr59  1  0.30447206  0.67645767  0.39188033  1
  Zr  Zr60  1  -0.00367249  0.79486229  0.48841623  1
  Zr  Zr61  1  0.47694194  0.49684363  0.38827265  1
  Zr  Zr62  1  0.91479224  0.31152184  0.62816281  1
  Zr  Zr63  1  0.42084041  0.79200538  0.50485723  1
  Zr  Zr64  1  0.20028639  0.80215202  0.50466317  1
  Zr  Zr65  1  0.69623644  0.09631415  0.86702065  1
  Zr  Zr66  1  0.19318633  0.19422592  0.25431735  1
  Zr  Zr67  1  0.61822468  0.19730969  0.00921836  1
  Zr  Zr68  1  -0.00705602  0.19888276  -0.00656820  1
  Zr  Zr69  1  0.49730412  0.09438887  0.88253492  1
  Zr  Zr70  1  0.10323714  0.50470850  0.11941346  1
  Zr  Zr71  1  0.31212803  0.91124729  0.61717999  1
  Zr  Zr72  1  -0.00666071  0.80607736  0.74559219  1
  Zr  Zr73  1  0.18424844  0.80400144  -0.00975636  1
  Zr  Zr74  1  0.30458985  0.31461481  0.37999602  1
  Zr  Zr75  1  0.89390298  0.49566706  0.88351092  1
  Zr  Zr76  1  0.00460410  0.19340594  0.49452548  1
  Zr  Zr77  1  0.61913293  0.80412997  -0.01079812  1
  Zr  Zr78  1  0.10444128  0.49179169  0.38544727  1
  Zr  Zr79  1  0.81156813  0.19216763  0.74674271  1
  Ta  Ta80  1  0.90852834  0.30867367  0.37182462  1
  Ta  Ta81  1  0.10927865  0.08796536  0.88872325  1
  Ta  Ta82  1  0.68638266  0.69988959  0.37260404  1
  Ta  Ta83  1  0.09251451  0.70747740  0.86867340  1
  Ta  Ta84  1  0.81327278  0.81389833  0.00405071  1
  Ta  Ta85  1  0.10975461  0.30433863  0.86863865  1
  Ta  Ta86  1  0.40067855  -0.01661572  0.23979231  1
  Ta  Ta87  1  0.10056603  0.69765329  0.38290329  1
  Ta  Ta88  1  0.88233559  0.71270492  0.87158245  1
  Ta  Ta89  1  0.89462555  0.10975271  0.35873078  1
  Ta  Ta90  1  0.62347155  0.80235390  0.76893219  1
  Ta  Ta91  1  0.67934916  0.10950210  0.63610018  1
  Ta  Ta92  1  0.91323861  0.09149306  0.62828899  1
  Ta  Ta93  1  0.90666793  0.09779270  0.13653176  1
  Ta  Ta94  1  0.69882133  0.50388596  0.12241089  1
  Ta  Ta95  1  0.39276474  0.00835896  0.74741449  1
  Ta  Ta96  1  0.90425654  0.71339367  0.12805098  1
  Ta  Ta97  1  0.89821870  0.90945822  0.37050538  1
  Ta  Ta98  1  0.39856629  0.39698001  -0.00247190  1
  Ta  Ta99  1  0.19692203  0.80924574  0.74924594  1
  Ta  Ta100  1  0.40886293  0.19556091  0.74376330  1
  Ta  Ta101  1  0.71274865  0.70939123  0.12860451  1
  Ta  Ta102  1  0.19881169  0.79801406  0.25908106  1
  Ta  Ta103  1  0.69721771  0.10797541  0.35699021  1
  Ta  Ta104  1  0.90484848  0.30172284  0.86869213  1
  Ta  Ta105  1  0.38988842  0.79436020  0.25113757  1
  Ta  Ta106  1  0.19277872  0.01007947  0.75035391  1
  Ta  Ta107  1  -0.00244441  0.79871931  0.26748895  1
  Ta  Ta108  1  0.81688840  0.41566608  0.49549629  1
  Ta  Ta109  1  0.59037585  0.60873272  0.49537003  1
  Ta  Ta110  1  0.49093688  0.49879514  0.61655014  1
  Ta  Ta111  1  0.60408946  0.42201678  0.73761356  1
  Ta  Ta112  1  0.79087155  0.00129914  0.00380937  1
  Ta  Ta113  1  0.21278246  0.19701774  0.75098053  1
  Ta  Ta114  1  0.09938586  0.09028621  0.11454301  1
  Ta  Ta115  1  -0.00048893  0.00193207  0.76351685  1
  Ta  Ta116  1  0.39763434  0.19828838  0.24745539  1
  Ta  Ta117  1  0.10732185  0.90820625  0.37609384  1
  Ta  Ta118  1  0.49737328  0.48408524  0.87037287  1
  Ta  Ta119  1  0.20979135  -0.00824777  0.24733962  1
  Ti  Ti120  1  0.89122023  0.90231452  0.14080160  1
  Ti  Ti121  1  0.41038548  0.39286895  0.74161582  1
  Ti  Ti122  1  0.78886747  0.59810272  0.48936983  1
  Ti  Ti123  1  0.19566737  0.39704174  0.73901795  1
  Ti  Ti124  1  0.31045525  0.30541767  0.86373385  1
  Ti  Ti125  1  0.79595957  0.61542430  0.00651572  1
  Ti  Ti126  1  0.40554820  0.59171725  0.75033540  1
  Ti  Ti127  1  0.00363126  0.00982735  0.48408728  1
  Ti  Ti128  1  0.09587859  0.49664144  0.87446684  1
  Ti  Ti129  1  0.30362019  0.89793783  0.11507997  1
  Ti  Ti130  1  0.09096335  0.70330359  0.12761515  1
  Ti  Ti131  1  0.58443248  -0.00352804  0.74973526  1
  Ti  Ti132  1  0.30157495  0.09617750  0.37421863  1
  Ti  Ti133  1  0.59540778  -0.01294516  -0.00187111  1
  Ti  Ti134  1  0.50528403  0.29904475  0.86341148  1
  Ti  Ti135  1  0.20275018  0.19089809  0.49195395  1
  Ti  Ti136  1  0.80251276  0.80039793  0.26034272  1
  Ti  Ti137  1  0.89752758  0.09287416  0.87731739  1
  Ti  Ti138  1  0.00033820  0.40358865  0.75264929  1
  Ti  Ti139  1  0.69863095  0.69502393  0.62305539  1
  Ti  Ti140  1  0.90028666  0.50971197  0.11808746  1
  Ti  Ti141  1  0.00021454  0.39322115  0.00052514  1
  Ti  Ti142  1  0.80502602  0.19686236  0.00115416  1
  Ti  Ti143  1  0.50363434  0.29561346  0.14268091  1
  Ti  Ti144  1  -0.01823472  0.58309467  0.48775255  1
  Ti  Ti145  1  0.69489141  0.49805881  0.37532204  1
  Ti  Ti146  1  0.29234972  0.09984028  0.61629132  1
  Ti  Ti147  1  0.49814517  0.89166039  0.37206484  1
  Ti  Ti148  1  0.69590251  0.90727138  0.13526359  1
  Ti  Ti149  1  0.30492768  0.31947849  0.13953191  1
  Ti  Ti150  1  0.89428921  0.28618276  0.13542158  1
  Ti  Ti151  1  0.59567373  0.40292017  0.24396709  1
  Ti  Ti152  1  0.60215811  0.79877626  0.49390282  1
  Ti  Ti153  1  0.52083994  0.28277861  0.62573411  1
  Ti  Ti154  1  0.10347767  0.29497173  0.37530728  1
  Ti  Ti155  1  0.19516989  0.60510808  -0.01207732  1
  Ti  Ti156  1  0.29205580  0.70000837  0.86270225  1
  Ti  Ti157  1  0.07706934  0.50156768  0.61453872  1
  Ti  Ti158  1  0.48513185  0.48687231  0.12648387  1
  Ti  Ti159  1  0.09347929  0.70073622  0.61810081  1
  Mo  Mo160  1  0.10836235  0.09853327  0.37182569  1
  Mo  Mo161  1  0.89373712  0.90109982  0.87390885  1
  Mo  Mo162  1  0.61542279  0.18971087  0.50175777  1
  Mo  Mo163  1  0.49933241  0.70113288  0.37715514  1
  Mo  Mo164  1  0.10512618  0.10159664  0.62662909  1
  Mo  Mo165  1  0.00006975  0.20275558  0.25169989  1
  Mo  Mo166  1  0.09984386  0.90000274  0.86491347  1
  Mo  Mo167  1  0.39495940  0.00103865  0.49907305  1
  Mo  Mo168  1  -0.00963530  0.79247806  -0.00261435  1
  Mo  Mo169  1  0.89385051  0.49670177  0.61926617  1
  Mo  Mo170  1  0.21086407  0.39975150  0.24997197  1
  Mo  Mo171  1  0.89102506  0.49746185  0.37466105  1
  Mo  Mo172  1  0.59687745  -0.00474508  0.25076724  1
  Mo  Mo173  1  0.00471919  0.39778036  0.49023592  1
  Mo  Mo174  1  0.50600487  0.90802450  0.86658678  1
  Mo  Mo175  1  0.69927137  0.30590199  0.13791216  1
  Mo  Mo176  1  0.48925405  0.09452267  0.63338744  1
  Mo  Mo177  1  0.80945667  0.40568263  0.75061392  1
  Mo  Mo178  1  0.38972638  0.58311534  0.51474579  1
  Mo  Mo179  1  0.19564317  -0.00031750  0.00991671  1
  Mo  Mo180  1  0.70901942  0.69696966  0.87910642  1
  Mo  Mo181  1  0.50542078  0.90195660  0.63883985  1
  Mo  Mo182  1  0.69544386  0.51305585  0.61015149  1
  Mo  Mo183  1  0.89449886  0.69971238  0.37785883  1
  Mo  Mo184  1  0.80751475  -0.00662636  0.25127057  1
  Mo  Mo185  1  0.59182978  0.59853452  0.74704076  1
  Mo  Mo186  1  0.40963111  0.39163934  0.51492742  1
  Mo  Mo187  1  0.59292895  0.20715276  0.74904421  1
  Mo  Mo188  1  0.71130934  0.90030426  0.87916810  1
  Mo  Mo189  1  0.18467918  0.60594190  0.51710626  1
  Mo  Mo190  1  0.29764250  0.49567237  0.37977315  1
  Mo  Mo191  1  0.59936052  0.20813117  0.24571540  1
  Mo  Mo192  1  0.81143531  0.20687928  0.25280904  1
  Mo  Mo193  1  0.79828122  0.79105676  0.74519670  1
  Mo  Mo194  1  0.30194723  0.49732829  0.64951524  1
  Mo  Mo195  1  0.40607806  -0.00710995  0.01252561  1
  Mo  Mo196  1  0.30231982  0.49811017  0.11886838  1
  Mo  Mo197  1  0.49363728  0.89784084  0.12091360  1
  Mo  Mo198  1  0.19614109  0.01890480  0.49130866  1
  Mo  Mo199  1  0.40094195  0.39769316  0.24640457  1
