# generated using pymatgen
data_HfZrTaTiMo
_symmetry_space_group_name_H-M   'P 1'
_cell_length_a   15.21294313
_cell_length_b   15.21369462
_cell_length_c   16.87560224
_cell_angle_alpha   90.02240534
_cell_angle_beta   89.99253320
_cell_angle_gamma   89.96008292
_symmetry_Int_Tables_number   1
_chemical_formula_structural   HfZrTaTiMo
_chemical_formula_sum   'Hf40 Zr40 Ta40 Ti40 Mo40'
_cell_volume   3905.77367643
_cell_formula_units_Z   40
loop_
 _symmetry_equiv_pos_site_id
 _symmetry_equiv_pos_as_xyz
  1  'x, y, z'
loop_
 _atom_site_type_symbol
 _atom_site_label
 _atom_site_symmetry_multiplicity
 _atom_site_fract_x
 _atom_site_fract_y
 _atom_site_fract_z
 _atom_site_occupancy
  Hf  Hf0  1  0.20039329  0.79087018  0.01424654  1
  Hf  Hf1  1  -0.00103446  -0.02752090  0.48668701  1
  Hf  Hf2  1  0.49894202  0.90231602  0.86731762  1
  Hf  Hf3  1  0.11050310  0.29460250  0.37449319  1
  Hf  Hf4  1  0.90049928  0.09020811  0.61114019  1
  Hf  Hf5  1  0.60030845  -0.00805493  0.00871794  1
  Hf  Hf6  1  0.19094363  0.59059055  0.76864296  1
  Hf  Hf7  1  0.10037482  0.87361390  0.86686652  1
  Hf  Hf8  1  0.00837031  0.19867850  0.74188037  1
  Hf  Hf9  1  0.07688561  0.69680285  0.35251468  1
  Hf  Hf10  1  0.40884566  0.81254256  0.25416122  1
  Hf  Hf11  1  0.52881705  0.31069244  0.62923220  1
  Hf  Hf12  1  0.10503711  0.30396255  0.60753519  1
  Hf  Hf13  1  0.49852832  0.70438344  0.38629892  1
  Hf  Hf14  1  0.29923356  0.89539392  0.87809125  1
  Hf  Hf15  1  0.70746572  0.52039808  0.12859439  1
  Hf  Hf16  1  0.70717935  0.89510942  0.87060451  1
  Hf  Hf17  1  0.60074976  0.01394086  0.74368237  1
  Hf  Hf18  1  0.19110306  0.59792425  0.00689189  1
  Hf  Hf19  1  0.28695075  0.50261091  0.62712080  1
  Hf  Hf20  1  0.08565520  0.47651186  0.89083679  1
  Hf  Hf21  1  0.70802024  0.10451101  0.88333702  1
  Hf  Hf22  1  0.60721631  0.60211408  0.26172113  1
  Hf  Hf23  1  0.60801876  0.78452887  -0.00323438  1
  Hf  Hf24  1  0.20382816  0.37433962  0.01161567  1
  Hf  Hf25  1  0.40733748  0.40524355  0.75773785  1
  Hf  Hf26  1  0.40546973  0.19551499  0.75600905  1
  Hf  Hf27  1  0.09124323  0.08508784  0.87372125  1
  Hf  Hf28  1  0.30368826  0.49538693  0.88762480  1
  Hf  Hf29  1  0.79469312  -0.00695262  0.48595832  1
  Hf  Hf30  1  0.79327311  0.19751357  0.48783445  1
  Hf  Hf31  1  0.29336800  0.29259970  0.87231518  1
  Hf  Hf32  1  0.50338400  0.50912963  0.11604671  1
  Hf  Hf33  1  0.31017725  0.48793493  0.12028843  1
  Hf  Hf34  1  -0.00644050  0.61193195  0.49492835  1
  Hf  Hf35  1  0.90738484  0.91467530  0.87911438  1
  Hf  Hf36  1  0.30722616  0.90803039  0.12293452  1
  Hf  Hf37  1  0.79372649  0.41976797  0.50519176  1
  Hf  Hf38  1  0.18681259  0.57403718  0.24189430  1
  Hf  Hf39  1  0.79452045  0.21052810  0.26301949  1
  Zr  Zr40  1  0.60563817  0.79180157  0.74239143  1
  Zr  Zr41  1  0.50057531  0.69610605  0.61546413  1
  Zr  Zr42  1  0.91283917  0.30765217  0.37918452  1
  Zr  Zr43  1  0.38789119  0.20149902  0.23710325  1
  Zr  Zr44  1  0.81350331  0.41166115  0.00973669  1
  Zr  Zr45  1  0.70975639  0.11061070  0.13162215  1
  Zr  Zr46  1  0.90368516  0.90835578  0.14411959  1
  Zr  Zr47  1  0.59744580  0.01793090  0.50810775  1
  Zr  Zr48  1  0.60600420  0.21878743  0.76848621  1
  Zr  Zr49  1  0.19427260  -0.00332164  0.73282997  1
  Zr  Zr50  1  0.29688236  0.70995308  0.62744018  1
  Zr  Zr51  1  0.51501328  0.51267991  0.88442184  1
  Zr  Zr52  1  0.71011555  0.69740008  0.38831860  1
  Zr  Zr53  1  0.49840952  0.91886465  0.38760724  1
  Zr  Zr54  1  0.88019609  0.50496823  0.86312105  1
  Zr  Zr55  1  0.39161041  -0.00119950  0.73808528  1
  Zr  Zr56  1  0.68494239  0.31717840  0.37531516  1
  Zr  Zr57  1  0.90444971  0.28969296  0.12773709  1
  Zr  Zr58  1  0.41343191  0.39404208  0.49514736  1
  Zr  Zr59  1  0.49190345  0.89653668  0.62309678  1
  Zr  Zr60  1  0.49046905  0.10627655  0.11311630  1
  Zr  Zr61  1  0.81666214  0.01602563  0.01219183  1
  Zr  Zr62  1  0.90055097  0.71419783  0.87605421  1
  Zr  Zr63  1  0.31314742  0.29615215  0.62654356  1
  Zr  Zr64  1  0.29115574  0.09730603  0.88287475  1
  Zr  Zr65  1  0.18118204  0.79540289  0.48882547  1
  Zr  Zr66  1  0.91060206  0.29911864  0.60241997  1
  Zr  Zr67  1  0.79551969  0.60956845  0.72725982  1
  Zr  Zr68  1  0.58718783  0.00127038  0.24213942  1
  Zr  Zr69  1  0.91066652  0.30149032  0.88722589  1
  Zr  Zr70  1  0.19878548  0.80289007  0.24205742  1
  Zr  Zr71  1  0.88198883  0.69565799  0.13254413  1
  Zr  Zr72  1  0.50732440  0.70995201  0.13157975  1
  Zr  Zr73  1  -0.01491729  0.58770205  0.00933140  1
  Zr  Zr74  1  0.60629428  0.58336736  0.49916016  1
  Zr  Zr75  1  0.29370350  0.69654255  0.36661785  1
  Zr  Zr76  1  0.09839878  0.67647102  0.63125974  1
  Zr  Zr77  1  0.08662072  0.87752224  0.63445864  1
  Zr  Zr78  1  0.78359213  0.40156709  0.72779955  1
  Zr  Zr79  1  0.80618759  0.20565740  0.74440798  1
  Ta  Ta80  1  0.29451772  0.70510665  0.87425264  1
  Ta  Ta81  1  0.79973568  0.00526567  0.74442535  1
  Ta  Ta82  1  0.41074065  0.39650854  0.25141878  1
  Ta  Ta83  1  0.80746999  0.41646457  0.24845683  1
  Ta  Ta84  1  0.90427694  0.09340839  0.36374384  1
  Ta  Ta85  1  0.29283517  0.91115289  0.37661385  1
  Ta  Ta86  1  0.00273664  0.40265131  0.74307437  1
  Ta  Ta87  1  -0.00116419  0.17588778  0.01100480  1
  Ta  Ta88  1  0.39901978  0.61705995  -0.00206596  1
  Ta  Ta89  1  0.60324714  0.40024230  0.23893993  1
  Ta  Ta90  1  0.11195228  0.27295917  0.13807896  1
  Ta  Ta91  1  0.79861226  0.79891408  0.26210854  1
  Ta  Ta92  1  0.29870331  0.48644896  0.36651106  1
  Ta  Ta93  1  0.77514526  0.61440722  -0.00447796  1
  Ta  Ta94  1  0.29886013  0.09762356  0.38096694  1
  Ta  Ta95  1  0.38728134  0.59348483  0.49041913  1
  Ta  Ta96  1  0.68636500  0.10125406  0.36426320  1
  Ta  Ta97  1  0.90340519  0.10574735  0.87423395  1
  Ta  Ta98  1  0.21219579  0.19040068  0.50342075  1
  Ta  Ta99  1  0.18870312  0.38815480  0.75329656  1
  Ta  Ta100  1  0.50896341  0.48891795  0.37106819  1
  Ta  Ta101  1  0.39629995  0.00103481  0.00168141  1
  Ta  Ta102  1  0.20810917  0.40048004  0.49134975  1
  Ta  Ta103  1  0.70045141  0.89000894  0.13514586  1
  Ta  Ta104  1  0.49808619  0.31263435  0.10765340  1
  Ta  Ta105  1  0.40084489  0.59280557  0.25723308  1
  Ta  Ta106  1  0.31295436  0.28658893  0.37911062  1
  Ta  Ta107  1  0.61458772  0.81251037  0.50239822  1
  Ta  Ta108  1  0.01513924  0.40605020  0.24131010  1
  Ta  Ta109  1  0.20105161  0.00934222  0.25210684  1
  Ta  Ta110  1  0.82489249  0.80309286  0.49234771  1
  Ta  Ta111  1  0.00460713  0.80286888  0.01311888  1
  Ta  Ta112  1  0.39968085  0.61013184  0.75609167  1
  Ta  Ta113  1  0.49243463  0.50185591  0.62849226  1
  Ta  Ta114  1  0.38951835  0.80965035  0.49546805  1
  Ta  Ta115  1  0.48762225  0.12092587  0.37697141  1
  Ta  Ta116  1  0.10352989  0.09452445  0.38025468  1
  Ta  Ta117  1  0.60727549  0.21199317  -0.00349849  1
  Ta  Ta118  1  0.18813824  0.58317004  0.48464088  1
  Ta  Ta119  1  0.27421402  0.11025922  0.11367655  1
  Ti  Ti120  1  0.38663202  0.21064712  0.00290235  1
  Ti  Ti121  1  0.91880785  0.50886105  0.62806297  1
  Ti  Ti122  1  0.58705515  0.21276822  0.24454326  1
  Ti  Ti123  1  0.81125550  0.81119084  0.74206232  1
  Ti  Ti124  1  0.09637278  0.90516149  0.13358676  1
  Ti  Ti125  1  0.30800980  0.69268192  0.13359473  1
  Ti  Ti126  1  0.21408091  0.37939636  0.24319449  1
  Ti  Ti127  1  0.09835943  0.28080180  0.87975921  1
  Ti  Ti128  1  0.69916574  0.30624673  0.12185155  1
  Ti  Ti129  1  0.61302473  0.41504238  0.00116050  1
  Ti  Ti130  1  0.69490724  0.12176818  0.62416269  1
  Ti  Ti131  1  0.09519755  0.10041000  0.60630115  1
  Ti  Ti132  1  0.20100758  0.19243696  0.73404299  1
  Ti  Ti133  1  0.70576165  0.71054932  0.61238527  1
  Ti  Ti134  1  0.90472582  0.51485306  0.36685985  1
  Ti  Ti135  1  0.39395825  0.00756609  0.24785778  1
  Ti  Ti136  1  0.60392529  0.80433195  0.25707861  1
  Ti  Ti137  1  0.49736337  0.10642604  0.88976448  1
  Ti  Ti138  1  0.90817586  0.09848434  0.15974752  1
  Ti  Ti139  1  0.49330414  0.70749690  0.87015755  1
  Ti  Ti140  1  0.20181697  -0.00984678  0.50812306  1
  Ti  Ti141  1  0.91214385  0.72230732  0.62892218  1
  Ti  Ti142  1  0.69362072  0.68567093  0.86313379  1
  Ti  Ti143  1  0.40687786  0.80554556  0.00458336  1
  Ti  Ti144  1  -0.00019220  0.60292451  0.76057984  1
  Ti  Ti145  1  0.60157269  0.58452723  0.74049396  1
  Ti  Ti146  1  0.01522995  0.42314342  0.49329269  1
  Ti  Ti147  1  0.49161704  0.11643593  0.61948231  1
  Ti  Ti148  1  0.58989909  0.21465146  0.49287989  1
  Ti  Ti149  1  0.08649696  0.09020062  0.14092986  1
  Ti  Ti150  1  0.50005533  0.31023989  0.89376726  1
  Ti  Ti151  1  0.80134992  0.80790768  0.00605767  1
  Ti  Ti152  1  0.38543921  0.01090040  0.51296460  1
  Ti  Ti153  1  0.18093964  -0.00420413  0.00556268  1
  Ti  Ti154  1  0.71280851  0.90529498  0.62320835  1
  Ti  Ti155  1  0.70751178  0.31936058  0.88456941  1
  Ti  Ti156  1  0.70241806  0.90398937  0.36900597  1
  Ti  Ti157  1  -0.01095472  -0.00725949  0.74093814  1
  Ti  Ti158  1  0.08636262  0.69264792  0.13753019  1
  Ti  Ti159  1  0.80707794  0.60555594  0.51412115  1
  Mo  Mo160  1  0.50067626  0.90302235  0.12140719  1
  Mo  Mo161  1  0.60199849  0.40270305  0.49737531  1
  Mo  Mo162  1  0.00851778  -0.00756195  0.26765486  1
  Mo  Mo163  1  0.00857484  0.18352737  0.49150481  1
  Mo  Mo164  1  0.00596556  0.19533390  0.25875525  1
  Mo  Mo165  1  0.00039532  0.79677602  0.23582500  1
  Mo  Mo166  1  0.79324087  -0.00046177  0.26671174  1
  Mo  Mo167  1  0.29461612  0.89357894  0.61635765  1
  Mo  Mo168  1  0.20005246  0.19210865  0.25747275  1
  Mo  Mo169  1  0.10448850  0.90170155  0.36426406  1
  Mo  Mo170  1  0.90315996  0.49794816  0.13138646  1
  Mo  Mo171  1  0.71233162  0.50086620  0.36726225  1
  Mo  Mo172  1  -0.01093312  0.58509445  0.23865829  1
  Mo  Mo173  1  0.40775369  0.19445214  0.50252233  1
  Mo  Mo174  1  0.80102696  0.60034300  0.25898560  1
  Mo  Mo175  1  0.90637903  0.88904082  0.35644099  1
  Mo  Mo176  1  0.09680241  0.69125355  0.88348030  1
  Mo  Mo177  1  0.00827913  -0.00643283  0.00732380  1
  Mo  Mo178  1  0.68074036  0.49742720  0.62443046  1
  Mo  Mo179  1  0.30843095  0.29296399  0.12215327  1
  Mo  Mo180  1  0.29528326  0.09931954  0.61624623  1
  Mo  Mo181  1  0.89715272  0.69783866  0.36458557  1
  Mo  Mo182  1  0.60065889  0.40596893  0.76074683  1
  Mo  Mo183  1  0.49846462  0.30050615  0.36512003  1
  Mo  Mo184  1  0.09846288  0.48235642  0.11828035  1
  Mo  Mo185  1  -0.00437717  0.79133411  0.75639335  1
  Mo  Mo186  1  0.70193088  0.29716353  0.61072385  1
  Mo  Mo187  1  0.89122822  0.89786151  0.62710643  1
  Mo  Mo188  1  0.79751294  0.20699075  -0.00081166  1
  Mo  Mo189  1  0.40760980  0.39968229  -0.00386211  1
  Mo  Mo190  1  0.09729418  0.49051961  0.62650716  1
  Mo  Mo191  1  -0.00353795  0.79383351  0.49348443  1
  Mo  Mo192  1  0.01470645  0.37984344  0.02547743  1
  Mo  Mo193  1  0.70177475  0.50634130  0.87295286  1
  Mo  Mo194  1  0.39428016  0.79370196  0.75525008  1
  Mo  Mo195  1  0.18405695  0.18650931  0.00150000  1
  Mo  Mo196  1  0.20780557  0.78839817  0.75419393  1
  Mo  Mo197  1  0.09771154  0.48937773  0.36971866  1
  Mo  Mo198  1  0.59932609  0.61025689  -0.00259588  1
  Mo  Mo199  1  0.70154849  0.71257015  0.13366218  1
