# generated using pymatgen
data_HfZrTaTiMo
_symmetry_space_group_name_H-M   'P 1'
_cell_length_a   15.21052676
_cell_length_b   15.20440524
_cell_length_c   16.84651443
_cell_angle_alpha   90.06276764
_cell_angle_beta   90.03418022
_cell_angle_gamma   90.07072167
_symmetry_Int_Tables_number   1
_chemical_formula_structural   HfZrTaTiMo
_chemical_formula_sum   'Hf40 Zr40 Ta40 Ti40 Mo40'
_cell_volume   3896.03706682
_cell_formula_units_Z   40
loop_
 _symmetry_equiv_pos_site_id
 _symmetry_equiv_pos_as_xyz
  1  'x, y, z'
loop_
 _atom_site_type_symbol
 _atom_site_label
 _atom_site_symmetry_multiplicity
 _atom_site_fract_x
 _atom_site_fract_y
 _atom_site_fract_z
 _atom_site_occupancy
  Hf  Hf0  1  0.29411238  0.90141263  0.64169036  1
  Hf  Hf1  1  0.29050501  0.09468657  0.11245755  1
  Hf  Hf2  1  0.80665248  0.40124977  0.48973867  1
  Hf  Hf3  1  0.69977715  0.70239011  0.63530149  1
  Hf  Hf4  1  -0.00189788  0.00935315  0.25574577  1
  Hf  Hf5  1  0.29409762  0.50601310  0.38212172  1
  Hf  Hf6  1  0.90225377  0.89757681  0.37526864  1
  Hf  Hf7  1  0.19771005  0.40228197  0.50761057  1
  Hf  Hf8  1  0.29728095  0.71036586  0.37403562  1
  Hf  Hf9  1  0.59449322  0.40012560  0.26832937  1
  Hf  Hf10  1  0.40505366  0.41293418  0.51009219  1
  Hf  Hf11  1  0.11733534  0.90837807  0.12028341  1
  Hf  Hf12  1  0.70128943  0.70851034  0.37234702  1
  Hf  Hf13  1  0.79689024  0.59878962  0.49247448  1
  Hf  Hf14  1  0.59606853  0.59681139  0.25793614  1
  Hf  Hf15  1  0.69403225  0.48704366  0.13172944  1
  Hf  Hf16  1  0.81099951  0.39867973  0.26801313  1
  Hf  Hf17  1  0.00728166  0.20467421  0.25885416  1
  Hf  Hf18  1  0.00691846  0.60169878  0.75643361  1
  Hf  Hf19  1  0.41334981  0.80326651  0.50470786  1
  Hf  Hf20  1  0.79712144  0.59055257  -0.02144336  1
  Hf  Hf21  1  0.60634857  -0.00089072  -0.00625729  1
  Hf  Hf22  1  0.09314594  0.88957344  0.64447661  1
  Hf  Hf23  1  0.21035435  0.39375780  -0.00367405  1
  Hf  Hf24  1  0.61047126  0.21413316  -0.00342220  1
  Hf  Hf25  1  0.40675919  0.21874118  0.75037901  1
  Hf  Hf26  1  0.41191074  0.01744899  0.24399759  1
  Hf  Hf27  1  0.70385147  0.28320110  0.37571707  1
  Hf  Hf28  1  0.09118179  0.29222666  0.86392995  1
  Hf  Hf29  1  0.29103128  0.09590855  0.87753386  1
  Hf  Hf30  1  0.19217164  0.60187344  0.24783458  1
  Hf  Hf31  1  0.81415900  0.79276819  0.23919144  1
  Hf  Hf32  1  0.31076236  0.91295031  0.36941407  1
  Hf  Hf33  1  -0.00200537  -0.00198517  0.50514614  1
  Hf  Hf34  1  0.91437799  0.90152255  0.11095648  1
  Hf  Hf35  1  0.02022718  0.79486895  0.24969302  1
  Hf  Hf36  1  0.90103154  0.29530789  0.12921974  1
  Hf  Hf37  1  0.89222835  0.50009198  0.63260008  1
  Hf  Hf38  1  0.70336614  0.69510887  0.12587281  1
  Hf  Hf39  1  0.90222972  0.70145801  0.63371352  1
  Zr  Zr40  1  0.11020710  0.08966976  0.62400941  1
  Zr  Zr41  1  0.81197870  -0.00073467  0.75459920  1
  Zr  Zr42  1  0.59795776  0.40725479  0.48682633  1
  Zr  Zr43  1  0.79631171  -0.00784461  0.51355552  1
  Zr  Zr44  1  0.91308289  0.69701488  0.09900212  1
  Zr  Zr45  1  0.49686037  0.50682027  0.86819595  1
  Zr  Zr46  1  0.79362067  0.80209671  -0.01216830  1
  Zr  Zr47  1  0.50715678  0.88934823  0.64269109  1
  Zr  Zr48  1  0.49564006  0.31066047  0.13392143  1
  Zr  Zr49  1  0.77887499  0.39044445  -0.01053404  1
  Zr  Zr50  1  0.30168190  0.68829191  0.62019554  1
  Zr  Zr51  1  0.58819786  0.19189836  0.50058220  1
  Zr  Zr52  1  0.10982062  0.10990495  0.39341174  1
  Zr  Zr53  1  0.38830509  -0.01454568  -0.00164375  1
  Zr  Zr54  1  0.39829980  0.01277174  0.74797464  1
  Zr  Zr55  1  0.10146163  0.50353309  0.87630568  1
  Zr  Zr56  1  0.58483282  0.60113948  0.49198021  1
  Zr  Zr57  1  0.11250757  0.69710345  0.10726405  1
  Zr  Zr58  1  0.61022557  0.00295470  0.75350005  1
  Zr  Zr59  1  0.50564429  0.11136448  0.87798202  1
  Zr  Zr60  1  0.38702350  0.78236737  0.00315302  1
  Zr  Zr61  1  -0.00448589  0.38926307  -0.00461023  1
  Zr  Zr62  1  -0.00413946  0.59417973  0.25212250  1
  Zr  Zr63  1  0.69740657  0.30380879  0.61605140  1
  Zr  Zr64  1  0.80362710  0.00892729  -0.00717844  1
  Zr  Zr65  1  0.18069531  0.19296166  -0.00876109  1
  Zr  Zr66  1  0.47484108  0.28292793  0.36627155  1
  Zr  Zr67  1  0.90476811  0.49957561  0.11758994  1
  Zr  Zr68  1  0.70461812  0.89857858  0.36920967  1
  Zr  Zr69  1  0.79461397  0.00590264  0.23807638  1
  Zr  Zr70  1  0.19825234  0.81045409  0.50602802  1
  Zr  Zr71  1  0.51216064  0.91415083  0.37233782  1
  Zr  Zr72  1  0.20474034  0.20632104  0.74656877  1
  Zr  Zr73  1  0.50176395  0.10748807  0.10928266  1
  Zr  Zr74  1  0.78856556  0.39763514  0.75278037  1
  Zr  Zr75  1  0.29627409  0.50039482  0.12182957  1
  Zr  Zr76  1  0.11150068  0.89942328  0.37694819  1
  Zr  Zr77  1  0.59496862  0.59949204  0.00157219  1
  Zr  Zr78  1  0.48995678  0.88665675  0.86668412  1
  Zr  Zr79  1  0.39341641  0.41648280  0.72824100  1
  Ta  Ta80  1  0.79290508  0.60660078  0.77098088  1
  Ta  Ta81  1  0.10286575  0.30466954  0.12811586  1
  Ta  Ta82  1  0.91480585  0.69920213  0.88476577  1
  Ta  Ta83  1  -0.01229194  0.19449118  0.72949963  1
  Ta  Ta84  1  0.29870169  0.29497523  0.12735705  1
  Ta  Ta85  1  0.31295675  0.11722011  0.38269816  1
  Ta  Ta86  1  -0.00441744  0.20622006  0.51571476  1
  Ta  Ta87  1  0.30584249  0.49562407  0.87846184  1
  Ta  Ta88  1  0.59144015  0.79477035  -0.00212454  1
  Ta  Ta89  1  0.49055160  0.69878640  0.13357581  1
  Ta  Ta90  1  0.91580659  0.29280887  0.38344984  1
  Ta  Ta91  1  0.21113708  0.20634915  0.25287098  1
  Ta  Ta92  1  0.38954366  0.22733922  -0.01335784  1
  Ta  Ta93  1  0.39822636  0.59827763  0.24813425  1
  Ta  Ta94  1  0.59698152  0.80543052  0.23949751  1
  Ta  Ta95  1  -0.00191649  0.39125838  0.74147203  1
  Ta  Ta96  1  0.09560355  0.10710659  0.12678847  1
  Ta  Ta97  1  0.01815783  0.01057636  -0.00673627  1
  Ta  Ta98  1  0.10472229  0.50526732  0.62740049  1
  Ta  Ta99  1  0.70072171  0.09738532  0.62895222  1
  Ta  Ta100  1  0.70100363  0.28353035  0.14193684  1
  Ta  Ta101  1  0.10122232  0.89942362  0.86130618  1
  Ta  Ta102  1  0.69138601  0.08678282  0.37998101  1
  Ta  Ta103  1  0.80128801  0.59043011  0.26460404  1
  Ta  Ta104  1  0.69379526  0.90189032  0.12120147  1
  Ta  Ta105  1  0.28757342  0.88754812  0.85175859  1
  Ta  Ta106  1  0.49327279  0.70901218  0.36767008  1
  Ta  Ta107  1  0.21132381  0.59544487  0.75281287  1
  Ta  Ta108  1  0.59919661  -0.00608279  0.51832257  1
  Ta  Ta109  1  0.80120855  0.20011389  0.73875047  1
  Ta  Ta110  1  0.59601112  0.17148728  0.25337423  1
  Ta  Ta111  1  -0.00661184  0.79401478  0.50445467  1
  Ta  Ta112  1  0.09065541  0.08970298  0.85379346  1
  Ta  Ta113  1  0.38465882  0.40117853  0.25649225  1
  Ta  Ta114  1  0.20362783  0.01208172  0.25209188  1
  Ta  Ta115  1  0.09979637  0.69292943  0.38869648  1
  Ta  Ta116  1  0.61089547  0.80509782  0.50775737  1
  Ta  Ta117  1  0.89010868  0.28803899  0.86662952  1
  Ta  Ta118  1  0.80651660  0.18968545  0.25965874  1
  Ta  Ta119  1  0.80529728  0.20254666  -0.00109385  1
  Ti  Ti120  1  0.50182910  0.11110339  0.63116430  1
  Ti  Ti121  1  0.20095860  0.40426993  0.74476332  1
  Ti  Ti122  1  -0.00183910  0.40115548  0.50818263  1
  Ti  Ti123  1  0.50313407  0.69016330  0.62846480  1
  Ti  Ti124  1  0.39262291  0.20610594  0.50917262  1
  Ti  Ti125  1  0.60478020  0.21710127  0.74646521  1
  Ti  Ti126  1  0.40793349  0.61067843  0.75028465  1
  Ti  Ti127  1  0.90666451  0.69560607  0.38039210  1
  Ti  Ti128  1  0.91016501  0.10668479  0.87341462  1
  Ti  Ti129  1  0.20104992  0.80812858  -0.01079989  1
  Ti  Ti130  1  0.68214333  0.50737690  0.63726478  1
  Ti  Ti131  1  0.90441661  0.49050188  0.86935737  1
  Ti  Ti132  1  0.10187517  0.69331307  0.62167208  1
  Ti  Ti133  1  0.79756474  0.79864159  0.76567315  1
  Ti  Ti134  1  -0.00048407  0.59526124  0.50411473  1
  Ti  Ti135  1  0.30457382  0.69661286  0.86524217  1
  Ti  Ti136  1  0.80235401  0.80088777  0.50893207  1
  Ti  Ti137  1  0.68225908  0.48891895  0.86274992  1
  Ti  Ti138  1  0.29695252  0.30082891  0.61997061  1
  Ti  Ti139  1  0.50074772  0.31815407  0.87263752  1
  Ti  Ti140  1  0.29997633  0.10297862  0.61759111  1
  Ti  Ti141  1  0.11121347  0.30364312  0.38511398  1
  Ti  Ti142  1  0.08986597  0.49902127  0.38571954  1
  Ti  Ti143  1  0.71119130  0.12026216  0.86680979  1
  Ti  Ti144  1  0.91379141  0.90435331  0.87831869  1
  Ti  Ti145  1  0.80805200  0.18932510  0.50276463  1
  Ti  Ti146  1  0.89534031  0.89534917  0.63604864  1
  Ti  Ti147  1  0.69532726  0.89400245  0.87395056  1
  Ti  Ti148  1  0.00795076  0.40413116  0.25521733  1
  Ti  Ti149  1  0.19219691  0.39937392  0.25258527  1
  Ti  Ti150  1  0.49899445  0.89640971  0.12536843  1
  Ti  Ti151  1  0.30285536  0.88207495  0.14372474  1
  Ti  Ti152  1  0.40143489  0.59185565  0.00651138  1
  Ti  Ti153  1  0.40706536  0.00922064  0.50823855  1
  Ti  Ti154  1  0.90365030  0.10573446  0.11751558  1
  Ti  Ti155  1  0.59704075  0.77661993  0.76566635  1
  Ti  Ti156  1  0.20862990  0.60656453  -0.00760237  1
  Ti  Ti157  1  -0.00427723  0.79560191  0.76294676  1
  Ti  Ti158  1  0.58349101  0.40381422  0.00563377  1
  Ti  Ti159  1  0.09909757  0.30181324  0.62536911  1
  Mo  Mo160  1  0.30026749  0.70099142  0.12985863  1
  Mo  Mo161  1  0.39675747  0.78625166  0.74943852  1
  Mo  Mo162  1  0.40414988  0.40326415  0.00005325  1
  Mo  Mo163  1  0.70441402  0.88801650  0.63783612  1
  Mo  Mo164  1  0.48424304  0.50855285  0.36922186  1
  Mo  Mo165  1  0.01007663  0.59716748  -0.01692653  1
  Mo  Mo166  1  0.49725260  0.29975306  0.62214831  1
  Mo  Mo167  1  0.30261902  0.31241769  0.86861014  1
  Mo  Mo168  1  0.18810537  0.60020412  0.49834556  1
  Mo  Mo169  1  0.70374329  0.50085989  0.37107571  1
  Mo  Mo170  1  0.20463407  0.80369967  0.25191653  1
  Mo  Mo171  1  0.49783433  0.09177380  0.38141550  1
  Mo  Mo172  1  0.91414177  0.49977762  0.38233114  1
  Mo  Mo173  1  0.20494276  0.20700757  0.50949896  1
  Mo  Mo174  1  0.90215662  0.30110382  0.61861256  1
  Mo  Mo175  1  0.39084951  0.20138896  0.24654013  1
  Mo  Mo176  1  0.19626197  -0.01059691  -0.00941279  1
  Mo  Mo177  1  0.60020323  0.59422039  0.74908630  1
  Mo  Mo178  1  0.58689355  0.39426574  0.74019237  1
  Mo  Mo179  1  0.09943453  0.48681404  0.12190134  1
  Mo  Mo180  1  -0.00568372  -0.00221678  0.74924664  1
  Mo  Mo181  1  0.49524854  0.50190681  0.13019406  1
  Mo  Mo182  1  0.69426023  0.69789485  0.87193988  1
  Mo  Mo183  1  0.89806490  0.09954383  0.62416706  1
  Mo  Mo184  1  0.49884263  0.51547901  0.62919164  1
  Mo  Mo185  1  0.19029842  0.77921886  0.75228595  1
  Mo  Mo186  1  0.60327374  -0.00119751  0.23559012  1
  Mo  Mo187  1  0.28614346  0.30189915  0.37871753  1
  Mo  Mo188  1  0.11309488  0.70700739  0.88062280  1
  Mo  Mo189  1  0.68821059  0.29579066  0.86816651  1
  Mo  Mo190  1  0.49417250  0.69763635  0.87649763  1
  Mo  Mo191  1  0.39987918  0.60704678  0.49443582  1
  Mo  Mo192  1  0.70847251  0.10742259  0.12203004  1
  Mo  Mo193  1  -0.00986420  0.19307818  -0.00318725  1
  Mo  Mo194  1  0.22469187  0.01157098  0.49999577  1
  Mo  Mo195  1  0.01144151  0.81051671  -0.01842944  1
  Mo  Mo196  1  0.29104670  0.50824164  0.61962982  1
  Mo  Mo197  1  0.40554723  0.79956577  0.24590086  1
  Mo  Mo198  1  0.89027565  0.11032250  0.38375025  1
  Mo  Mo199  1  0.19827813  -0.00151965  0.75128556  1
