# generated using pymatgen
data_HfZrTaTiMo
_symmetry_space_group_name_H-M   'P 1'
_cell_length_a   15.22222563
_cell_length_b   15.20988080
_cell_length_c   16.83303495
_cell_angle_alpha   90.01030884
_cell_angle_beta   90.04495300
_cell_angle_gamma   90.04538036
_symmetry_Int_Tables_number   1
_chemical_formula_structural   HfZrTaTiMo
_chemical_formula_sum   'Hf40 Zr40 Ta40 Ti40 Mo40'
_cell_volume   3897.32042369
_cell_formula_units_Z   40
loop_
 _symmetry_equiv_pos_site_id
 _symmetry_equiv_pos_as_xyz
  1  'x, y, z'
loop_
 _atom_site_type_symbol
 _atom_site_label
 _atom_site_symmetry_multiplicity
 _atom_site_fract_x
 _atom_site_fract_y
 _atom_site_fract_z
 _atom_site_occupancy
  Hf  Hf0  1  0.51607752  0.09043808  0.37422980  1
  Hf  Hf1  1  0.60227051  0.60067727  -0.00976952  1
  Hf  Hf2  1  -0.00043240  0.40562284  0.00216327  1
  Hf  Hf3  1  0.70595060  0.28899316  0.36950472  1
  Hf  Hf4  1  0.00752667  -0.01322331  0.47953481  1
  Hf  Hf5  1  -0.00955498  0.60471019  0.00224163  1
  Hf  Hf6  1  0.50967390  0.51005601  0.12488741  1
  Hf  Hf7  1  0.49510156  0.30075434  0.87063235  1
  Hf  Hf8  1  0.49530498  0.09632108  0.63429904  1
  Hf  Hf9  1  0.79878756  0.38283559  0.73864757  1
  Hf  Hf10  1  0.41042526  0.60739164  0.24818817  1
  Hf  Hf11  1  0.48536707  0.90343135  0.87124917  1
  Hf  Hf12  1  0.09569160  0.70017490  0.14821407  1
  Hf  Hf13  1  0.79581795  0.01160169  0.24039925  1
  Hf  Hf14  1  0.11442940  0.68841451  0.35889091  1
  Hf  Hf15  1  0.70798863  0.70328312  0.87210873  1
  Hf  Hf16  1  0.30494152  0.69996001  0.12524239  1
  Hf  Hf17  1  0.70518327  0.48833442  0.86797295  1
  Hf  Hf18  1  0.21082009  0.80136607  0.75007889  1
  Hf  Hf19  1  0.00720214  0.19718661  0.26078810  1
  Hf  Hf20  1  0.68448816  0.49229610  0.63424554  1
  Hf  Hf21  1  0.10838852  0.50231000  0.61269526  1
  Hf  Hf22  1  0.80235227  0.20274324  0.01312743  1
  Hf  Hf23  1  0.70890765  0.08826025  0.38430189  1
  Hf  Hf24  1  0.10980985  0.10709829  0.87610072  1
  Hf  Hf25  1  0.60287422  0.39777144  0.00428012  1
  Hf  Hf26  1  0.41436342  -0.01332701  0.49759913  1
  Hf  Hf27  1  0.90958930  0.29972158  0.12994420  1
  Hf  Hf28  1  0.49462036  0.88958494  0.11719222  1
  Hf  Hf29  1  0.69430883  0.90438563  0.87717147  1
  Hf  Hf30  1  0.61266058  0.20513685  0.73708180  1
  Hf  Hf31  1  0.90030071  0.69655764  0.61265530  1
  Hf  Hf32  1  0.11764211  0.10521827  0.60475992  1
  Hf  Hf33  1  0.80849365  0.19044192  0.72937365  1
  Hf  Hf34  1  0.58397956  0.79229868  0.51038504  1
  Hf  Hf35  1  0.91291682  0.10044679  0.59853264  1
  Hf  Hf36  1  0.10048556  0.90770249  0.87265711  1
  Hf  Hf37  1  0.59930795  0.18883651  0.01306747  1
  Hf  Hf38  1  0.08673925  0.30713229  0.59815827  1
  Hf  Hf39  1  0.78481871  0.39641530  0.23842431  1
  Zr  Zr40  1  0.18929631  0.81104271  0.01002699  1
  Zr  Zr41  1  0.28157301  0.91432112  0.13598893  1
  Zr  Zr42  1  0.09252556  0.70302598  0.87593273  1
  Zr  Zr43  1  0.77408602  0.60246776  0.49673973  1
  Zr  Zr44  1  0.90597327  0.09692521  0.88091492  1
  Zr  Zr45  1  0.21786200  0.40773147  -0.00829154  1
  Zr  Zr46  1  -0.00625779  0.40759532  0.75547549  1
  Zr  Zr47  1  0.30096395  0.30328518  0.38618463  1
  Zr  Zr48  1  -0.00266579  0.79751618  0.47975537  1
  Zr  Zr49  1  0.38558612  0.40925269  0.76817060  1
  Zr  Zr50  1  0.00164587  0.60303028  0.48225268  1
  Zr  Zr51  1  0.31061186  0.51520183  0.62043408  1
  Zr  Zr52  1  0.80440047  -0.00454501  0.73610512  1
  Zr  Zr53  1  0.30563763  0.30412554  0.12477845  1
  Zr  Zr54  1  0.19750376  0.39935212  0.25327402  1
  Zr  Zr55  1  0.50818078  0.09822460  0.86368195  1
  Zr  Zr56  1  0.41779018  0.20653456  0.49311553  1
  Zr  Zr57  1  0.21787305  0.00989071  0.74899502  1
  Zr  Zr58  1  0.59360556  0.39497510  0.49849791  1
  Zr  Zr59  1  0.49296519  0.31288062  0.63756310  1
  Zr  Zr60  1  0.30239546  0.70787502  0.36405869  1
  Zr  Zr61  1  -0.02136867  0.79421793  0.27607559  1
  Zr  Zr62  1  0.41573447  0.19829128  0.25067611  1
  Zr  Zr63  1  0.90833428  0.89890552  0.13724763  1
  Zr  Zr64  1  0.70503843  0.28718000  0.87699174  1
  Zr  Zr65  1  0.80378213  -0.00406101  0.01306164  1
  Zr  Zr66  1  -0.00675958  0.79973449  0.74349873  1
  Zr  Zr67  1  0.00217587  0.00248711  0.74018672  1
  Zr  Zr68  1  0.10238408  0.29916021  0.88199068  1
  Zr  Zr69  1  0.28903190  0.30599792  0.60957350  1
  Zr  Zr70  1  0.87922266  0.49829295  0.37539058  1
  Zr  Zr71  1  0.11237575  0.07942174  0.12956245  1
  Zr  Zr72  1  -0.00810369  0.80378860  0.01143491  1
  Zr  Zr73  1  0.90422121  0.48882177  0.60713148  1
  Zr  Zr74  1  0.00198674  0.39945693  0.26115456  1
  Zr  Zr75  1  0.59748149  -0.01275970  0.23366974  1
  Zr  Zr76  1  0.81123758  0.59571048  0.75063577  1
  Zr  Zr77  1  0.79134083  0.80141123  0.73460050  1
  Zr  Zr78  1  0.40579652  0.40752183  0.25835111  1
  Zr  Zr79  1  0.00489271  0.20965111  0.74243747  1
  Ta  Ta80  1  0.20162829  0.59882222  0.75364534  1
  Ta  Ta81  1  0.78185485  0.80569408  0.50128361  1
  Ta  Ta82  1  0.59752744  0.79948084  -0.00116754  1
  Ta  Ta83  1  0.39096157  0.61180071  0.77046703  1
  Ta  Ta84  1  0.86109283  0.90762169  0.37841452  1
  Ta  Ta85  1  0.41355950  0.80953825  0.24899148  1
  Ta  Ta86  1  0.30447017  0.89619768  0.62414156  1
  Ta  Ta87  1  0.10804642  0.70028992  0.62288050  1
  Ta  Ta88  1  0.61031571  -0.00718178  0.73640854  1
  Ta  Ta89  1  0.11329972  0.10208056  0.38512662  1
  Ta  Ta90  1  0.19369689  0.40597816  0.75680873  1
  Ta  Ta91  1  0.89727709  0.10541028  0.38351917  1
  Ta  Ta92  1  0.90043518  0.50971066  0.13555950  1
  Ta  Ta93  1  0.58652875  0.59432813  0.76228188  1
  Ta  Ta94  1  0.47498457  0.69204408  0.63610029  1
  Ta  Ta95  1  0.29733095  0.71157434  0.88515783  1
  Ta  Ta96  1  0.50905105  0.69970557  0.37334178  1
  Ta  Ta97  1  0.58897977  0.79241547  0.74881196  1
  Ta  Ta98  1  0.00300299  -0.00175527  0.27349896  1
  Ta  Ta99  1  0.30528276  0.09571638  0.38039679  1
  Ta  Ta100  1  0.39961488  0.01780129  0.00833548  1
  Ta  Ta101  1  0.10285409  0.50269454  0.12889161  1
  Ta  Ta102  1  0.79322896  0.78817180  0.01049128  1
  Ta  Ta103  1  0.21557415  0.19260306  0.00226581  1
  Ta  Ta104  1  0.20960270  0.18980129  0.25280115  1
  Ta  Ta105  1  0.10452824  0.29612307  0.39634246  1
  Ta  Ta106  1  0.60136002  -0.00111171  0.01438372  1
  Ta  Ta107  1  0.80071552  0.41061903  0.01532373  1
  Ta  Ta108  1  0.67973577  0.69459299  0.12928797  1
  Ta  Ta109  1  0.77159382  0.80513639  0.24755983  1
  Ta  Ta110  1  0.39472205  0.58816831  -0.01342366  1
  Ta  Ta111  1  0.21393385  -0.01168320  0.49437407  1
  Ta  Ta112  1  0.00499872  0.59966793  0.75051936  1
  Ta  Ta113  1  0.10488338  0.89835324  0.61742357  1
  Ta  Ta114  1  0.50789294  0.30416868  0.12743937  1
  Ta  Ta115  1  0.89432095  0.88342443  0.88021702  1
  Ta  Ta116  1  0.39653959  0.00763219  0.24640900  1
  Ta  Ta117  1  0.67002541  0.49923654  0.36301889  1
  Ta  Ta118  1  0.39071006  0.79060219  0.50191361  1
  Ta  Ta119  1  0.49150481  0.89090807  0.64072832  1
  Ti  Ti120  1  0.40113141  0.21007967  0.00429314  1
  Ti  Ti121  1  0.88493031  0.69538499  0.13807182  1
  Ti  Ti122  1  0.78830457  0.60477300  0.25130496  1
  Ti  Ti123  1  0.57726781  0.59388077  0.50101514  1
  Ti  Ti124  1  0.19640341  0.60416413  0.00175603  1
  Ti  Ti125  1  0.31015964  0.90079726  0.36607557  1
  Ti  Ti126  1  0.21586463  0.00507874  -0.01125103  1
  Ti  Ti127  1  0.12482156  0.89407727  0.35882610  1
  Ti  Ti128  1  0.49625756  0.50662780  0.63495526  1
  Ti  Ti129  1  0.40518146  0.42273818  0.48935455  1
  Ti  Ti130  1  0.30844785  0.10266588  0.61972547  1
  Ti  Ti131  1  0.61103691  -0.01088898  0.51816810  1
  Ti  Ti132  1  0.51837434  0.30791407  0.36313250  1
  Ti  Ti133  1  0.66733381  0.89380077  0.37645366  1
  Ti  Ti134  1  0.30076562  0.50428649  0.12422735  1
  Ti  Ti135  1  0.90053049  0.29561921  0.38770843  1
  Ti  Ti136  1  0.21720523  0.61120877  0.50167824  1
  Ti  Ti137  1  0.79507595  0.20188256  0.51168176  1
  Ti  Ti138  1  0.68032456  0.69295824  0.63031376  1
  Ti  Ti139  1  0.09703425  0.50664839  0.87740481  1
  Ti  Ti140  1  0.70456439  0.09422935  0.87422570  1
  Ti  Ti141  1  0.49491906  0.70432226  0.87772617  1
  Ti  Ti142  1  0.89664022  0.30906635  0.88483215  1
  Ti  Ti143  1  0.11060675  0.49377322  0.38430908  1
  Ti  Ti144  1  0.60857467  0.19542496  0.51414745  1
  Ti  Ti145  1  0.80124077  0.59667804  0.00270098  1
  Ti  Ti146  1  0.91083382  0.10312945  0.13250034  1
  Ti  Ti147  1  0.62497598  0.19663222  0.22927396  1
  Ti  Ti148  1  0.01212879  -0.00478161  0.00645667  1
  Ti  Ti149  1  0.10905443  0.29438870  0.12194277  1
  Ti  Ti150  1  0.29994756  0.51398887  0.37833232  1
  Ti  Ti151  1  0.89839973  0.89795571  0.60507160  1
  Ti  Ti152  1  0.21564351  0.21528152  0.74962900  1
  Ti  Ti153  1  0.39334228  0.80363379  -0.00197260  1
  Ti  Ti154  1  0.01002754  0.19347846  0.00756390  1
  Ti  Ti155  1  0.69530792  0.70183740  0.36980419  1
  Ti  Ti156  1  0.19910882  0.80160928  0.50110734  1
  Ti  Ti157  1  0.31871836  0.10738435  0.86822755  1
  Ti  Ti158  1  -0.00938899  0.59211454  0.26183510  1
  Ti  Ti159  1  0.78940788  0.39380111  0.50150961  1
  Mo  Mo160  1  0.29916285  0.29106440  0.87816589  1
  Mo  Mo161  1  0.39458539  0.79719402  0.75863200  1
  Mo  Mo162  1  0.59656727  0.39361557  0.24240177  1
  Mo  Mo163  1  0.70664718  0.09917333  0.12559034  1
  Mo  Mo164  1  0.21032729  0.19265420  0.49759494  1
  Mo  Mo165  1  0.49279211  0.70049038  0.11050203  1
  Mo  Mo166  1  0.30410880  0.10707989  0.12361533  1
  Mo  Mo167  1  0.38823240  0.19447778  0.74858727  1
  Mo  Mo168  1  0.39850773  -0.00218007  0.74420100  1
  Mo  Mo169  1  0.29355501  0.70545700  0.62604154  1
  Mo  Mo170  1  -0.00547305  0.40249280  0.48072157  1
  Mo  Mo171  1  0.49649965  0.10179737  0.12435700  1
  Mo  Mo172  1  0.20638181  0.80150795  0.24635589  1
  Mo  Mo173  1  0.79603277  -0.00655692  0.50402077  1
  Mo  Mo174  1  0.70020374  0.29840326  0.61656555  1
  Mo  Mo175  1  0.40812402  0.40277860  -0.00597280  1
  Mo  Mo176  1  0.49413858  0.50426192  0.37289806  1
  Mo  Mo177  1  0.09249527  0.89623810  0.16049922  1
  Mo  Mo178  1  0.89380158  0.69863969  0.87945048  1
  Mo  Mo179  1  0.70180604  0.30160992  0.12493543  1
  Mo  Mo180  1  0.40798900  0.61073503  0.49441496  1
  Mo  Mo181  1  0.49820463  0.50396628  0.87854985  1
  Mo  Mo182  1  0.90071987  0.50276482  0.88026146  1
  Mo  Mo183  1  0.60289465  0.60257189  0.24967690  1
  Mo  Mo184  1  0.70014287  0.09360638  0.61246388  1
  Mo  Mo185  1  0.81180571  0.19857394  0.24944923  1
  Mo  Mo186  1  0.59751417  0.40499063  0.75149380  1
  Mo  Mo187  1  0.20266630  0.58693389  0.24512559  1
  Mo  Mo188  1  0.87190597  0.70536464  0.37143269  1
  Mo  Mo189  1  0.69907635  0.88847714  0.11629721  1
  Mo  Mo190  1  0.30552987  0.90955005  0.88450594  1
  Mo  Mo191  1  0.59142648  0.78697160  0.24923171  1
  Mo  Mo192  1  0.20592217  0.00717578  0.26760647  1
  Mo  Mo193  1  0.70820713  0.50862554  0.12568124  1
  Mo  Mo194  1  0.28818145  0.50988577  0.87647974  1
  Mo  Mo195  1  0.69064219  0.88820948  0.62392040  1
  Mo  Mo196  1  0.49446061  0.89307995  0.37541983  1
  Mo  Mo197  1  0.89594413  0.30159103  0.60196616  1
  Mo  Mo198  1  -0.00147030  0.19668506  0.48380761  1
  Mo  Mo199  1  0.20559151  0.41271462  0.49037947  1
