# generated using pymatgen
data_HfZrTaTiMo
_symmetry_space_group_name_H-M   'P 1'
_cell_length_a   15.20794433
_cell_length_b   15.21677104
_cell_length_c   16.83983797
_cell_angle_alpha   89.96425593
_cell_angle_beta   89.99818711
_cell_angle_gamma   89.91233700
_symmetry_Int_Tables_number   1
_chemical_formula_structural   HfZrTaTiMo
_chemical_formula_sum   'Hf40 Zr40 Ta40 Ti40 Mo40'
_cell_volume   3896.99936988
_cell_formula_units_Z   40
loop_
 _symmetry_equiv_pos_site_id
 _symmetry_equiv_pos_as_xyz
  1  'x, y, z'
loop_
 _atom_site_type_symbol
 _atom_site_label
 _atom_site_symmetry_multiplicity
 _atom_site_fract_x
 _atom_site_fract_y
 _atom_site_fract_z
 _atom_site_occupancy
  Hf  Hf0  1  0.31698422  0.90130075  0.36934960  1
  Hf  Hf1  1  0.51960595  0.90394293  0.11778874  1
  Hf  Hf2  1  0.38913233  0.40533450  0.23873934  1
  Hf  Hf3  1  0.38402443  0.19564027  0.22810713  1
  Hf  Hf4  1  0.29728627  0.91074871  0.64500385  1
  Hf  Hf5  1  0.20530057  0.58409357  0.25228619  1
  Hf  Hf6  1  0.28799894  0.29513168  0.37029448  1
  Hf  Hf7  1  0.89201621  0.50187814  0.86962501  1
  Hf  Hf8  1  0.39721829  0.19921733  0.50485027  1
  Hf  Hf9  1  0.90928487  0.70661349  0.13456831  1
  Hf  Hf10  1  0.11706509  0.89265574  0.87365731  1
  Hf  Hf11  1  0.11301694  0.68277706  0.61365064  1
  Hf  Hf12  1  0.39746240  0.62302133  0.24559948  1
  Hf  Hf13  1  0.67935927  0.31191320  0.62724339  1
  Hf  Hf14  1  0.28387035  0.30187024  0.64531773  1
  Hf  Hf15  1  0.21647210  0.78742186  0.25081243  1
  Hf  Hf16  1  0.67949855  0.30728215  0.88576854  1
  Hf  Hf17  1  0.81504496  0.80867042  0.73537754  1
  Hf  Hf18  1  0.21458543  0.78165910  0.75376185  1
  Hf  Hf19  1  0.80588707  0.81083139  0.00074630  1
  Hf  Hf20  1  0.79382627  0.40432049  0.00230338  1
  Hf  Hf21  1  0.60226271  0.01589666  0.50535037  1
  Hf  Hf22  1  0.59019639  0.20400700  0.24691196  1
  Hf  Hf23  1  0.77727057  0.20175690  0.74249046  1
  Hf  Hf24  1  0.50401241  0.70642013  0.64157320  1
  Hf  Hf25  1  0.21161037  0.80946491  0.50367127  1
  Hf  Hf26  1  0.89058106  0.30045824  0.62773201  1
  Hf  Hf27  1  0.80288645  0.60549367  0.01090366  1
  Hf  Hf28  1  0.50021383  0.91336330  0.64969282  1
  Hf  Hf29  1  0.69888498  0.90881804  0.63106105  1
  Hf  Hf30  1  0.59647874  0.79983074  0.25617788  1
  Hf  Hf31  1  0.08940520  0.28380345  0.64051705  1
  Hf  Hf32  1  0.38956480  0.00380237  0.50924472  1
  Hf  Hf33  1  0.22165209  -0.00539598  0.00532016  1
  Hf  Hf34  1  0.60167877  0.80395495  0.50034138  1
  Hf  Hf35  1  -0.02620768  0.18796149  0.00070207  1
  Hf  Hf36  1  -0.00605452  0.19579300  0.26513889  1
  Hf  Hf37  1  -0.00533800  0.19564657  0.48278760  1
  Hf  Hf38  1  0.81403742  0.01457213  0.00465180  1
  Hf  Hf39  1  0.18606731  0.19431329  0.01332471  1
  Zr  Zr40  1  0.00194085  0.39047609  0.26169509  1
  Zr  Zr41  1  -0.00308602  0.59034724  0.49123854  1
  Zr  Zr42  1  0.08567727  0.28773604  0.86175285  1
  Zr  Zr43  1  0.48368911  0.10364119  0.37057544  1
  Zr  Zr44  1  0.50010051  0.50795074  0.10734475  1
  Zr  Zr45  1  0.11652232  0.68808964  0.11516703  1
  Zr  Zr46  1  0.00471225  0.59927927  0.25705995  1
  Zr  Zr47  1  0.91028347  0.69958720  0.87509387  1
  Zr  Zr48  1  0.60758097  0.58718139  0.76434290  1
  Zr  Zr49  1  0.09396223  0.48332506  0.62378140  1
  Zr  Zr50  1  0.01164602  -0.00338234  0.26498598  1
  Zr  Zr51  1  0.70209397  0.11074047  0.37125475  1
  Zr  Zr52  1  0.00890430  0.78349860  0.74848353  1
  Zr  Zr53  1  0.59486565  0.60114606  0.49002616  1
  Zr  Zr54  1  0.48713361  0.30526244  0.62746877  1
  Zr  Zr55  1  0.10762224  0.07933895  0.64298151  1
  Zr  Zr56  1  0.69796397  0.10107734  0.11956531  1
  Zr  Zr57  1  -0.01070075  0.38782864  -0.00122530  1
  Zr  Zr58  1  -0.01048309  0.38749460  0.48450440  1
  Zr  Zr59  1  0.38620653  0.41558984  0.76587163  1
  Zr  Zr60  1  0.30417307  0.50493080  0.38383566  1
  Zr  Zr61  1  0.28427170  0.29626715  0.87221775  1
  Zr  Zr62  1  0.39813572  0.40591147  0.50207316  1
  Zr  Zr63  1  0.19782280  0.17945877  0.50425052  1
  Zr  Zr64  1  0.79223788  0.59534414  0.49865442  1
  Zr  Zr65  1  0.19740350  0.57782728  0.76285291  1
  Zr  Zr66  1  0.29588285  0.50815805  0.10264644  1
  Zr  Zr67  1  0.59140780  0.60031999  0.25896331  1
  Zr  Zr68  1  0.21697117  0.00934634  0.22986616  1
  Zr  Zr69  1  0.82624733  0.01516573  0.73288618  1
  Zr  Zr70  1  0.01753220  -0.00191542  0.48794681  1
  Zr  Zr71  1  0.11027621  0.88220389  0.12651196  1
  Zr  Zr72  1  0.69447207  0.30425908  0.12302366  1
  Zr  Zr73  1  0.70543127  0.71679465  0.86319618  1
  Zr  Zr74  1  0.01256939  -0.00539903  0.00285807  1
  Zr  Zr75  1  0.09469952  0.47954334  0.12514373  1
  Zr  Zr76  1  0.60144694  0.61392205  -0.01032687  1
  Zr  Zr77  1  0.90849044  0.90420178  0.14113499  1
  Zr  Zr78  1  0.79503740  0.60418511  0.24921755  1
  Zr  Zr79  1  0.80694449  0.80404636  0.51073691  1
  Ta  Ta80  1  0.89726940  0.89678593  0.37162150  1
  Ta  Ta81  1  0.59757302  0.21827676  0.49078244  1
  Ta  Ta82  1  -0.00155089  0.58940626  0.00629581  1
  Ta  Ta83  1  0.91165080  0.90952329  0.87231218  1
  Ta  Ta84  1  0.29778254  0.50834179  0.62044279  1
  Ta  Ta85  1  0.49224583  0.71821234  0.86455405  1
  Ta  Ta86  1  0.00571296  0.80013456  0.49133269  1
  Ta  Ta87  1  0.32707581  0.88100063  0.11940318  1
  Ta  Ta88  1  0.11269540  0.69345425  0.38634296  1
  Ta  Ta89  1  0.58321295  0.39332625  0.76351312  1
  Ta  Ta90  1  0.18867017  0.21513494  0.23025508  1
  Ta  Ta91  1  0.52095875  0.90699605  0.85335624  1
  Ta  Ta92  1  0.60438172  -0.00107914  0.25311160  1
  Ta  Ta93  1  0.70085702  0.50363280  0.13121974  1
  Ta  Ta94  1  0.51078241  0.10472710  0.88023477  1
  Ta  Ta95  1  0.38647527  0.18882144  0.00108142  1
  Ta  Ta96  1  0.78358290  0.39631056  0.49655343  1
  Ta  Ta97  1  0.29708445  0.08873304  0.86391052  1
  Ta  Ta98  1  0.90358893  0.70515558  0.37187959  1
  Ta  Ta99  1  0.70070863  0.69232367  0.63417559  1
  Ta  Ta100  1  0.50483866  0.50460638  0.63170849  1
  Ta  Ta101  1  0.50782604  0.90494469  0.37678611  1
  Ta  Ta102  1  0.39452230  0.60595874  0.76262895  1
  Ta  Ta103  1  0.70595551  0.90233480  0.12764477  1
  Ta  Ta104  1  0.09783841  0.88893996  0.62938916  1
  Ta  Ta105  1  0.88552727  0.49370331  0.36925792  1
  Ta  Ta106  1  0.22860532  0.78516999  -0.00904264  1
  Ta  Ta107  1  0.49657747  0.31517560  0.36935589  1
  Ta  Ta108  1  0.41824830  -0.00879983  -0.01392804  1
  Ta  Ta109  1  0.49674765  0.49595068  0.89187643  1
  Ta  Ta110  1  -0.01668353  0.40139918  0.75318967  1
  Ta  Ta111  1  0.70834590  0.90986925  0.37624298  1
  Ta  Ta112  1  0.41272060  0.20527617  0.76750952  1
  Ta  Ta113  1  0.71139736  0.10983654  0.88760992  1
  Ta  Ta114  1  -0.02202394  0.17645249  0.75122815  1
  Ta  Ta115  1  0.68984300  0.71421471  0.12390754  1
  Ta  Ta116  1  0.48941416  0.30077577  0.10831253  1
  Ta  Ta117  1  0.79062393  0.19921625  0.50788983  1
  Ta  Ta118  1  0.77691505  0.41352206  0.75321486  1
  Ta  Ta119  1  0.59566077  0.41178007  0.49065754  1
  Ti  Ti120  1  0.50985426  0.11354952  0.63804981  1
  Ti  Ti121  1  0.49917558  0.09423124  0.11199986  1
  Ti  Ti122  1  0.80996901  0.60146401  0.74074335  1
  Ti  Ti123  1  0.30779164  0.10219539  0.65818553  1
  Ti  Ti124  1  0.59194526  0.40229643  0.24811530  1
  Ti  Ti125  1  0.81317538  0.00696850  0.51446285  1
  Ti  Ti126  1  0.11051158  0.48780802  0.37963815  1
  Ti  Ti127  1  0.30973733  0.69642239  0.62318830  1
  Ti  Ti128  1  0.40375289  0.60618428  0.50410022  1
  Ti  Ti129  1  0.70658299  0.71129028  0.37657296  1
  Ti  Ti130  1  0.89361389  0.29657725  0.13631579  1
  Ti  Ti131  1  0.69459027  0.48329581  0.36272066  1
  Ti  Ti132  1  0.10459295  0.68470354  0.88541069  1
  Ti  Ti133  1  0.86315708  0.29514274  0.36612450  1
  Ti  Ti134  1  0.87955582  0.28797009  0.86711733  1
  Ti  Ti135  1  0.30362494  0.70247385  0.38799532  1
  Ti  Ti136  1  0.48857486  0.71069573  0.37938661  1
  Ti  Ti137  1  0.79853289  0.80771391  0.25338230  1
  Ti  Ti138  1  0.19465569  0.39079058  0.50293757  1
  Ti  Ti139  1  0.88824399  0.09241354  0.37641518  1
  Ti  Ti140  1  0.71221081  0.91813815  0.86394781  1
  Ti  Ti141  1  0.80184844  0.01014445  0.24687609  1
  Ti  Ti142  1  0.88636640  0.49727113  0.62641053  1
  Ti  Ti143  1  0.19154801  0.39457425  -0.00187662  1
  Ti  Ti144  1  0.09510932  0.08844540  0.86166843  1
  Ti  Ti145  1  0.61855345  0.03122398  0.75063291  1
  Ti  Ti146  1  0.00776044  0.79325622  -0.00352431  1
  Ti  Ti147  1  0.08311748  0.09943062  0.12976298  1
  Ti  Ti148  1  0.11763404  0.89743324  0.37176672  1
  Ti  Ti149  1  0.41276722  -0.00482891  0.23922609  1
  Ti  Ti150  1  0.09283036  0.49023106  0.87514664  1
  Ti  Ti151  1  0.59083350  0.20053665  0.00173150  1
  Ti  Ti152  1  0.28453750  0.09460936  0.36966320  1
  Ti  Ti153  1  0.60411904  0.81994887  -0.01212906  1
  Ti  Ti154  1  0.39243385  0.39122560  -0.00723011  1
  Ti  Ti155  1  0.32678616  0.88962171  0.86196249  1
  Ti  Ti156  1  0.38292421  0.62097521  -0.01846773  1
  Ti  Ti157  1  0.48639236  0.71693374  0.11169764  1
  Ti  Ti158  1  0.91330963  0.69459073  0.62125622  1
  Ti  Ti159  1  0.40886605  0.80618125  0.50936376  1
  Mo  Mo160  1  0.00905416  0.79572503  0.27828045  1
  Mo  Mo161  1  0.29315738  0.30315237  0.11121972  1
  Mo  Mo162  1  0.59024429  0.40702450  0.00503295  1
  Mo  Mo163  1  0.79900874  0.20044590  0.24934141  1
  Mo  Mo164  1  0.89428321  0.10867120  0.14062535  1
  Mo  Mo165  1  0.20062972  0.39257847  0.24642883  1
  Mo  Mo166  1  0.59275142  0.20395434  0.75990212  1
  Mo  Mo167  1  0.79360305  0.40187949  0.24459528  1
  Mo  Mo168  1  0.90733551  0.10510325  0.61258523  1
  Mo  Mo169  1  0.49900734  0.50287178  0.36835752  1
  Mo  Mo170  1  0.19745658  0.18955321  0.75650575  1
  Mo  Mo171  1  0.69467381  0.11143461  0.61451797  1
  Mo  Mo172  1  0.40995662  0.80691162  0.25072864  1
  Mo  Mo173  1  0.69786428  0.50252264  0.87720829  1
  Mo  Mo174  1  0.90150743  0.09964917  0.87196909  1
  Mo  Mo175  1  0.41272176  0.01175498  0.76430171  1
  Mo  Mo176  1  0.20674025  -0.00874298  0.49815418  1
  Mo  Mo177  1  0.48978658  0.29741117  0.89675669  1
  Mo  Mo178  1  0.29306298  0.49946213  0.89343266  1
  Mo  Mo179  1  0.88926659  0.49543784  0.13157357  1
  Mo  Mo180  1  0.29958104  0.70112753  0.87131008  1
  Mo  Mo181  1  0.20355505  -0.01156205  0.76408177  1
  Mo  Mo182  1  0.11477924  0.10353963  0.36676197  1
  Mo  Mo183  1  0.18769794  0.39828321  0.75247458  1
  Mo  Mo184  1  0.68958349  0.30622687  0.37092561  1
  Mo  Mo185  1  0.91775766  0.89962153  0.61361627  1
  Mo  Mo186  1  0.69497376  0.49940402  0.62685937  1
  Mo  Mo187  1  0.79910597  0.21017524  -0.00111780  1
  Mo  Mo188  1  0.21075931  0.59402890  0.49989672  1
  Mo  Mo189  1  0.30702076  0.70103427  0.11617632  1
  Mo  Mo190  1  -0.00663373  0.58679460  0.74425253  1
  Mo  Mo191  1  0.31014889  0.09146715  0.11526719  1
  Mo  Mo192  1  0.08807600  0.29022121  0.12207799  1
  Mo  Mo193  1  0.40649538  0.79808162  0.74736191  1
  Mo  Mo194  1  0.60989289  -0.00024257  -0.01386909  1
  Mo  Mo195  1  0.00305066  -0.01604457  0.75124050  1
  Mo  Mo196  1  0.19201511  0.59154759  -0.01607723  1
  Mo  Mo197  1  0.11049100  0.29644063  0.37604189  1
  Mo  Mo198  1  0.61555426  0.80659654  0.75225413  1
  Mo  Mo199  1  0.41650616  0.80571797  -0.01172050  1
