# generated using pymatgen
data_HfZrTaTiMo
_symmetry_space_group_name_H-M   'P 1'
_cell_length_a   15.17201801
_cell_length_b   15.17744835
_cell_length_c   16.82154144
_cell_angle_alpha   90.04149055
_cell_angle_beta   90.06379791
_cell_angle_gamma   90.17684442
_symmetry_Int_Tables_number   1
_chemical_formula_structural   HfZrTaTiMo
_chemical_formula_sum   'Hf40 Zr40 Ta40 Ti40 Mo40'
_cell_volume   3873.51685787
_cell_formula_units_Z   40
loop_
 _symmetry_equiv_pos_site_id
 _symmetry_equiv_pos_as_xyz
  1  'x, y, z'
loop_
 _atom_site_type_symbol
 _atom_site_label
 _atom_site_symmetry_multiplicity
 _atom_site_fract_x
 _atom_site_fract_y
 _atom_site_fract_z
 _atom_site_occupancy
  Hf  Hf0  1  0.49780401  0.11594628  0.13300765  1
  Hf  Hf1  1  0.20291746  0.42260854  0.00606969  1
  Hf  Hf2  1  0.10324557  0.29858843  0.87771179  1
  Hf  Hf3  1  0.39732010  0.80364097  0.75379904  1
  Hf  Hf4  1  0.69333054  0.08555843  0.12314697  1
  Hf  Hf5  1  0.69732135  0.69688497  0.12355731  1
  Hf  Hf6  1  0.59692247  0.19411890  -0.01178610  1
  Hf  Hf7  1  0.21642460  0.41111404  0.50278714  1
  Hf  Hf8  1  0.00818953  0.59741501  0.50592969  1
  Hf  Hf9  1  0.00676964  0.59650254  0.74754829  1
  Hf  Hf10  1  0.90429453  0.90152640  0.37981532  1
  Hf  Hf11  1  0.40198060  0.00954735  0.25667689  1
  Hf  Hf12  1  0.09892734  0.30219198  0.61132938  1
  Hf  Hf13  1  0.80092792  0.01123291  0.51263660  1
  Hf  Hf14  1  0.09391134  0.49745144  0.87382507  1
  Hf  Hf15  1  0.79396825  0.58810812  0.25748215  1
  Hf  Hf16  1  0.10229168  0.88794302  0.35755305  1
  Hf  Hf17  1  0.38844122  0.79502689  0.50600868  1
  Hf  Hf18  1  0.69607505  0.69280185  0.86216279  1
  Hf  Hf19  1  0.89178901  0.29697475  0.61754790  1
  Hf  Hf20  1  0.60003834  0.78958902  0.50934211  1
  Hf  Hf21  1  0.69957867  0.29214944  0.12564724  1
  Hf  Hf22  1  0.08703951  0.08733459  0.61715143  1
  Hf  Hf23  1  0.09315365  0.11239474  0.12717193  1
  Hf  Hf24  1  0.50642068  0.10296751  0.38229308  1
  Hf  Hf25  1  0.39761946  0.59749914  0.50765955  1
  Hf  Hf26  1  0.19608088  0.00873059  0.00696126  1
  Hf  Hf27  1  0.39204271  0.21448513  0.49612775  1
  Hf  Hf28  1  0.79868222  0.78837559  -0.00910948  1
  Hf  Hf29  1  0.40420727  0.20263886  0.75234514  1
  Hf  Hf30  1  0.70356249  0.48678504  0.63374123  1
  Hf  Hf31  1  0.49062757  0.69190706  0.37082927  1
  Hf  Hf32  1  0.91352292  0.91220690  0.62240326  1
  Hf  Hf33  1  0.40840096  0.40409251  -0.01212917  1
  Hf  Hf34  1  0.19567818  0.01099069  0.25211074  1
  Hf  Hf35  1  0.79259956  0.00170277  0.24934482  1
  Hf  Hf36  1  0.38109145  0.59534397  -0.01873009  1
  Hf  Hf37  1  0.88172215  0.11292831  0.37602137  1
  Hf  Hf38  1  0.29203177  0.10450868  0.62552034  1
  Hf  Hf39  1  0.31313104  0.50921873  0.35721618  1
  Zr  Zr40  1  0.80873974  0.39659289  -0.01070532  1
  Zr  Zr41  1  -0.00198840  0.20214021  0.74325382  1
  Zr  Zr42  1  0.28377312  0.70948959  0.36050735  1
  Zr  Zr43  1  0.02382941  0.80647899  0.50934785  1
  Zr  Zr44  1  0.90424071  0.48162728  0.12669959  1
  Zr  Zr45  1  0.89146816  0.88941693  0.12905782  1
  Zr  Zr46  1  0.78861845  0.59643576  0.49916432  1
  Zr  Zr47  1  0.89609094  0.70486292  0.37690240  1
  Zr  Zr48  1  0.31054671  0.31339469  0.13925727  1
  Zr  Zr49  1  0.50050191  0.50229793  0.64504811  1
  Zr  Zr50  1  0.20460025  0.61516597  0.50480603  1
  Zr  Zr51  1  0.29921314  0.90013058  0.88497768  1
  Zr  Zr52  1  0.52130144  0.30549586  0.61640831  1
  Zr  Zr53  1  0.51819940  0.31654926  0.38637490  1
  Zr  Zr54  1  0.00654859  0.79998769  0.75375575  1
  Zr  Zr55  1  0.50293795  0.10162543  0.61916773  1
  Zr  Zr56  1  0.39404480  0.00116791  0.49454450  1
  Zr  Zr57  1  0.89470086  0.69795578  0.62588278  1
  Zr  Zr58  1  0.59781531  0.59511341  -0.00618299  1
  Zr  Zr59  1  0.39474551  0.80249830  0.24055895  1
  Zr  Zr60  1  0.29651870  0.10500681  0.87431339  1
  Zr  Zr61  1  0.69226574  0.89384092  0.86140383  1
  Zr  Zr62  1  0.29942491  0.90689642  0.11903857  1
  Zr  Zr63  1  0.18669236  -0.00624464  0.48494201  1
  Zr  Zr64  1  0.60113564  0.39343793  -0.01759690  1
  Zr  Zr65  1  -0.01074794  0.00192720  0.00475933  1
  Zr  Zr66  1  0.09449351  0.30911277  0.38777649  1
  Zr  Zr67  1  0.69348832  0.08755468  0.86133632  1
  Zr  Zr68  1  0.80974167  0.19266513  0.00172280  1
  Zr  Zr69  1  0.27999750  0.89306961  0.62643300  1
  Zr  Zr70  1  -0.00763180  0.20563317  0.25866070  1
  Zr  Zr71  1  0.48795594  0.68503666  0.12230517  1
  Zr  Zr72  1  0.40126129  0.21063540  -0.00582234  1
  Zr  Zr73  1  0.90998265  0.49085807  0.38104143  1
  Zr  Zr74  1  0.39571225  0.39778314  0.76259358  1
  Zr  Zr75  1  0.78961184  -0.01066081  -0.00036923  1
  Zr  Zr76  1  0.89688476  0.10291757  0.86773377  1
  Zr  Zr77  1  0.69849781  0.49411965  0.12621550  1
  Zr  Zr78  1  0.70138940  0.89356477  0.38149579  1
  Zr  Zr79  1  0.51117336  0.90514054  0.11343535  1
  Ta  Ta80  1  0.19024151  -0.00257089  0.75504490  1
  Ta  Ta81  1  0.11348755  0.50681889  0.36359233  1
  Ta  Ta82  1  0.90715425  0.48886261  0.62195022  1
  Ta  Ta83  1  0.00157499  0.59731819  0.24071850  1
  Ta  Ta84  1  0.80676468  0.37384987  0.26299306  1
  Ta  Ta85  1  0.19245243  0.40144341  0.74699586  1
  Ta  Ta86  1  0.59362338  0.58631667  0.50340295  1
  Ta  Ta87  1  0.89613105  0.68594887  0.11981389  1
  Ta  Ta88  1  0.11617562  0.69577171  0.88577202  1
  Ta  Ta89  1  0.80621804  0.58969824  0.75924260  1
  Ta  Ta90  1  0.09648191  0.89884013  0.88413818  1
  Ta  Ta91  1  0.60101939  0.79390802  0.25302952  1
  Ta  Ta92  1  0.09322990  0.69517661  0.36323696  1
  Ta  Ta93  1  0.00888234  0.58578006  0.00887377  1
  Ta  Ta94  1  0.10422629  0.49977661  0.63046788  1
  Ta  Ta95  1  0.10133345  0.10149743  0.87698067  1
  Ta  Ta96  1  0.68619387  0.68645143  0.37188635  1
  Ta  Ta97  1  0.50004768  0.71185222  0.87295219  1
  Ta  Ta98  1  0.40051419  -0.00241031  0.74851491  1
  Ta  Ta99  1  0.91317108  0.31140694  0.86902946  1
  Ta  Ta100  1  0.58380338  0.58297348  0.25022267  1
  Ta  Ta101  1  0.00113289  -0.00172978  0.75657880  1
  Ta  Ta102  1  0.50203335  0.89455277  0.38011886  1
  Ta  Ta103  1  0.71304998  0.28978014  0.86045200  1
  Ta  Ta104  1  0.49533514  0.69436947  0.63870255  1
  Ta  Ta105  1  0.00462225  0.78898800  0.00137406  1
  Ta  Ta106  1  0.19858422  0.21262849  0.00798747  1
  Ta  Ta107  1  0.09828112  0.89186599  0.12916302  1
  Ta  Ta108  1  0.50787172  0.51241142  0.85561934  1
  Ta  Ta109  1  0.30241853  0.31296116  0.36346513  1
  Ta  Ta110  1  0.61644369  0.19709089  0.26147732  1
  Ta  Ta111  1  0.29798941  0.11658778  0.13300234  1
  Ta  Ta112  1  0.19748416  0.19920684  0.48944966  1
  Ta  Ta113  1  0.30990033  0.51711543  0.13500922  1
  Ta  Ta114  1  0.01054958  0.40011553  0.25170140  1
  Ta  Ta115  1  0.20005856  0.20310943  0.74583901  1
  Ta  Ta116  1  0.80769034  0.59063200  -0.01717904  1
  Ta  Ta117  1  -0.00571881  0.00257618  0.24725738  1
  Ta  Ta118  1  0.39771985  0.79560069  -0.00211607  1
  Ta  Ta119  1  0.60785404  0.00215011  0.50753700  1
  Ti  Ti120  1  0.19449502  0.21740887  0.25605009  1
  Ti  Ti121  1  0.49674787  0.89839501  0.62083694  1
  Ti  Ti122  1  0.59318416  -0.00363790  0.73448183  1
  Ti  Ti123  1  0.68701880  0.48178788  0.37709472  1
  Ti  Ti124  1  0.61024773  0.39522499  0.76468086  1
  Ti  Ti125  1  0.60547248  0.39216039  0.24826406  1
  Ti  Ti126  1  0.30124463  0.30974251  0.62623905  1
  Ti  Ti127  1  0.69182961  0.88720140  0.12183164  1
  Ti  Ti128  1  0.19453046  0.61162645  0.22961001  1
  Ti  Ti129  1  0.90658450  0.28721517  0.12646145  1
  Ti  Ti130  1  0.59509190  0.80182708  0.74066335  1
  Ti  Ti131  1  0.91295504  0.69117556  0.87713770  1
  Ti  Ti132  1  -0.00271827  0.79020968  0.23832976  1
  Ti  Ti133  1  0.12419474  0.70762184  0.63267504  1
  Ti  Ti134  1  0.41300594  0.41318163  0.49988734  1
  Ti  Ti135  1  0.79533990  0.79742523  0.50773243  1
  Ti  Ti136  1  0.80287885  0.80102978  0.74543171  1
  Ti  Ti137  1  0.59803500  -0.00764715  0.25920513  1
  Ti  Ti138  1  0.89750014  0.89519866  0.86926408  1
  Ti  Ti139  1  0.00250571  0.20745511  0.00083494  1
  Ti  Ti140  1  0.10029258  0.31638942  0.12515699  1
  Ti  Ti141  1  0.40615902  0.01346246  0.00228019  1
  Ti  Ti142  1  0.77319124  0.20264877  0.50739294  1
  Ti  Ti143  1  0.49993103  0.09259452  0.86722233  1
  Ti  Ti144  1  0.20064682  0.79478314  0.76024230  1
  Ti  Ti145  1  -0.01116565  0.19166797  0.49599089  1
  Ti  Ti146  1  0.79496154  0.79098721  0.25099588  1
  Ti  Ti147  1  0.80129467  0.01045143  0.73170668  1
  Ti  Ti148  1  0.42375616  0.41687631  0.24821426  1
  Ti  Ti149  1  0.69394839  0.69133352  0.63855101  1
  Ti  Ti150  1  0.29192118  0.30757456  0.87462129  1
  Ti  Ti151  1  0.69990011  0.89658778  0.62816653  1
  Ti  Ti152  1  0.50554422  0.90591778  0.88556979  1
  Ti  Ti153  1  0.81327588  0.39570390  0.75562428  1
  Ti  Ti154  1  0.41086874  0.21637798  0.25815804  1
  Ti  Ti155  1  0.29964384  0.51675647  0.64647339  1
  Ti  Ti156  1  0.29170330  0.11607476  0.36757239  1
  Ti  Ti157  1  0.79498675  0.39162474  0.49492902  1
  Ti  Ti158  1  0.60616764  0.19980258  0.75010179  1
  Ti  Ti159  1  0.30116938  0.89897195  0.36999630  1
  Mo  Mo160  1  0.89460549  0.30204150  0.39169036  1
  Mo  Mo161  1  0.30519484  0.69642736  0.63743812  1
  Mo  Mo162  1  0.61762866  0.40151187  0.50297554  1
  Mo  Mo163  1  0.09266583  0.09952718  0.37710375  1
  Mo  Mo164  1  0.08937060  0.69982994  0.12181611  1
  Mo  Mo165  1  0.70826634  0.49317008  0.85989231  1
  Mo  Mo166  1  0.28777249  0.70669211  0.11685116  1
  Mo  Mo167  1  0.79625899  0.20346559  0.74431064  1
  Mo  Mo168  1  0.69872976  0.10401114  0.63674113  1
  Mo  Mo169  1  0.20307086  0.60480946  0.75105495  1
  Mo  Mo170  1  0.59554593  0.79817790  -0.00560507  1
  Mo  Mo171  1  0.79875805  0.19557232  0.24340239  1
  Mo  Mo172  1  0.19407535  0.61228268  0.01340539  1
  Mo  Mo173  1  0.49569439  0.48332485  0.12244115  1
  Mo  Mo174  1  -0.00034312  0.40197481  0.74275373  1
  Mo  Mo175  1  0.28723443  0.50651475  0.86395385  1
  Mo  Mo176  1  0.50837704  0.29542843  0.86418774  1
  Mo  Mo177  1  0.50910624  0.30755738  0.13571792  1
  Mo  Mo178  1  0.00651153  0.38770857  0.00664848  1
  Mo  Mo179  1  0.51036545  0.50518180  0.37789052  1
  Mo  Mo180  1  -0.00062666  0.00773278  0.48754187  1
  Mo  Mo181  1  0.20178456  0.40856204  0.24741763  1
  Mo  Mo182  1  0.29711843  0.70384300  0.87758234  1
  Mo  Mo183  1  0.18782206  0.80130570  0.23740917  1
  Mo  Mo184  1  0.58894519  -0.00216648  -0.00393002  1
  Mo  Mo185  1  0.69235345  0.09610997  0.37891369  1
  Mo  Mo186  1  0.10273416  0.90076145  0.63521523  1
  Mo  Mo187  1  0.60473824  0.60587155  0.74988146  1
  Mo  Mo188  1  0.60895535  0.19484898  0.49885661  1
  Mo  Mo189  1  0.19544356  0.79881390  0.00302710  1
  Mo  Mo190  1  0.39832292  0.60216708  0.24314110  1
  Mo  Mo191  1  0.70311226  0.29956899  0.63984140  1
  Mo  Mo192  1  0.20020886  0.79616083  0.49686832  1
  Mo  Mo193  1  0.71230856  0.28997403  0.37479268  1
  Mo  Mo194  1  0.39469113  0.60844360  0.76980622  1
  Mo  Mo195  1  0.89644289  0.10406056  0.62239119  1
  Mo  Mo196  1  0.00386146  0.40548746  0.50296959  1
  Mo  Mo197  1  0.10579303  0.49872297  0.13617261  1
  Mo  Mo198  1  0.90604909  0.50120478  0.87477039  1
  Mo  Mo199  1  0.89882432  0.10165042  0.13371186  1
