# generated using pymatgen
data_HfZrTaTiMo
_symmetry_space_group_name_H-M   'P 1'
_cell_length_a   15.20932267
_cell_length_b   15.19755493
_cell_length_c   16.87006887
_cell_angle_alpha   89.99188081
_cell_angle_beta   90.00185909
_cell_angle_gamma   89.96200978
_symmetry_Int_Tables_number   1
_chemical_formula_structural   HfZrTaTiMo
_chemical_formula_sum   'Hf40 Zr40 Ta40 Ti40 Mo40'
_cell_volume   3899.42301864
_cell_formula_units_Z   40
loop_
 _symmetry_equiv_pos_site_id
 _symmetry_equiv_pos_as_xyz
  1  'x, y, z'
loop_
 _atom_site_type_symbol
 _atom_site_label
 _atom_site_symmetry_multiplicity
 _atom_site_fract_x
 _atom_site_fract_y
 _atom_site_fract_z
 _atom_site_occupancy
  Hf  Hf0  1  0.91749540  0.50711277  0.37134242  1
  Hf  Hf1  1  0.28487630  0.88864557  0.12355733  1
  Hf  Hf2  1  0.10615960  0.09759684  0.38513242  1
  Hf  Hf3  1  0.70533185  0.49300407  0.63579523  1
  Hf  Hf4  1  0.49456651  0.50284518  0.10833703  1
  Hf  Hf5  1  0.21784245  0.20016604  0.01774551  1
  Hf  Hf6  1  0.69055193  0.30790405  0.13388958  1
  Hf  Hf7  1  0.68505885  0.88863594  0.86589771  1
  Hf  Hf8  1  0.81211783  0.19135032  0.01281513  1
  Hf  Hf9  1  0.80807099  0.60930214  -0.01808795  1
  Hf  Hf10  1  0.91855259  0.48247006  0.87409118  1
  Hf  Hf11  1  0.61217788  0.38808689  0.49861677  1
  Hf  Hf12  1  0.09517863  0.30079179  0.87424247  1
  Hf  Hf13  1  0.70774300  0.49313909  0.36019923  1
  Hf  Hf14  1  0.58025937  0.60138710  0.24775790  1
  Hf  Hf15  1  0.88385506  0.30857018  0.37156015  1
  Hf  Hf16  1  0.21010142  0.19717652  0.24548096  1
  Hf  Hf17  1  0.59707291  0.58914287  0.49703980  1
  Hf  Hf18  1  0.01511644  0.59965138  -0.01090628  1
  Hf  Hf19  1  0.68332370  0.29919645  0.35526826  1
  Hf  Hf20  1  0.12131158  0.71285038  0.88364353  1
  Hf  Hf21  1  0.28663000  0.70104438  0.38015656  1
  Hf  Hf22  1  0.16957077  -0.01488428  0.00007129  1
  Hf  Hf23  1  0.92194551  0.71934634  0.11514583  1
  Hf  Hf24  1  0.81680301  0.59928447  0.76739419  1
  Hf  Hf25  1  0.00730861  0.20154007  0.01253651  1
  Hf  Hf26  1  0.39548408  0.39834909  0.74696700  1
  Hf  Hf27  1  0.50111375  0.90019344  0.36326271  1
  Hf  Hf28  1  0.90206325  0.90226279  0.62301045  1
  Hf  Hf29  1  0.69804958  0.09935924  0.36370125  1
  Hf  Hf30  1  0.38333618  0.00213423  0.00498307  1
  Hf  Hf31  1  -0.03227317  0.00332373  0.01004820  1
  Hf  Hf32  1  -0.00732848  0.41080344  0.50398953  1
  Hf  Hf33  1  -0.00573493  0.18800950  0.74016211  1
  Hf  Hf34  1  0.30822132  0.30163071  0.37812501  1
  Hf  Hf35  1  0.81821526  0.60195207  0.24390829  1
  Hf  Hf36  1  0.38706645  0.80875657  0.50760421  1
  Hf  Hf37  1  0.21979776  0.79489267  0.74146639  1
  Hf  Hf38  1  0.20448868  0.41219555  0.50183871  1
  Hf  Hf39  1  0.91438315  0.68613704  0.62333110  1
  Zr  Zr40  1  0.61770584  0.59084982  -0.00750617  1
  Zr  Zr41  1  0.90641211  0.50646446  0.12260689  1
  Zr  Zr42  1  0.50020005  0.49197259  0.87478203  1
  Zr  Zr43  1  -0.00497915  0.19564256  0.25669348  1
  Zr  Zr44  1  0.90684723  0.70362911  0.37637971  1
  Zr  Zr45  1  0.50702874  0.69776420  0.63265950  1
  Zr  Zr46  1  0.49811269  0.11286560  0.38012231  1
  Zr  Zr47  1  0.49848544  0.09216355  0.11787679  1
  Zr  Zr48  1  0.10158052  0.51308638  0.62970358  1
  Zr  Zr49  1  0.90611345  0.92762702  0.86241897  1
  Zr  Zr50  1  0.01428812  0.80377828  0.74697096  1
  Zr  Zr51  1  0.79709115  0.00378392  0.50301287  1
  Zr  Zr52  1  0.17335598  0.00107040  0.75128571  1
  Zr  Zr53  1  0.28334824  0.10141253  0.87485912  1
  Zr  Zr54  1  0.10758122  0.31586456  0.13694683  1
  Zr  Zr55  1  0.09498377  0.08320556  0.13785248  1
  Zr  Zr56  1  0.60145479  -0.00177305  0.50011657  1
  Zr  Zr57  1  0.67442423  0.89482852  0.15166071  1
  Zr  Zr58  1  0.69739167  0.70387660  0.36486701  1
  Zr  Zr59  1  0.79799328  0.82552850  0.00202207  1
  Zr  Zr60  1  0.39887935  0.78787178  0.24395150  1
  Zr  Zr61  1  0.10847580  0.90069680  0.60930930  1
  Zr  Zr62  1  0.70645586  0.69700329  0.13057102  1
  Zr  Zr63  1  0.32623428  0.70156936  0.88788352  1
  Zr  Zr64  1  0.10557304  0.88145717  0.38132325  1
  Zr  Zr65  1  0.71286551  0.09216927  0.87987506  1
  Zr  Zr66  1  0.79830596  0.01608078  0.73436466  1
  Zr  Zr67  1  0.40783665  0.41068645  0.50771161  1
  Zr  Zr68  1  0.60554439  0.19627613  -0.00136729  1
  Zr  Zr69  1  0.52216778  0.70656959  0.87428323  1
  Zr  Zr70  1  0.09898993  0.31047789  0.37574769  1
  Zr  Zr71  1  0.79864301  0.79326909  0.75146780  1
  Zr  Zr72  1  0.50718918  0.29474692  0.62916733  1
  Zr  Zr73  1  0.29030939  0.10234599  0.61538778  1
  Zr  Zr74  1  0.59862211  0.79493999  0.49587365  1
  Zr  Zr75  1  0.39696024  0.19499579  0.75585877  1
  Zr  Zr76  1  0.49707851  0.09800311  0.61651245  1
  Zr  Zr77  1  0.38359374  -0.01190167  0.75274106  1
  Zr  Zr78  1  0.47791879  0.30520038  0.10317634  1
  Zr  Zr79  1  0.78850921  0.40367479  -0.00369036  1
  Ta  Ta80  1  0.21121318  0.58736557  -0.00558240  1
  Ta  Ta81  1  0.48369646  0.68588679  0.37927378  1
  Ta  Ta82  1  0.58763981  -0.00395507  0.74992244  1
  Ta  Ta83  1  0.19090903  0.21236681  0.74449820  1
  Ta  Ta84  1  0.80472849  0.58870386  0.50052066  1
  Ta  Ta85  1  0.88940357  0.30565700  0.61942007  1
  Ta  Ta86  1  0.50842231  0.50037371  0.64154817  1
  Ta  Ta87  1  0.58431625  0.20115296  0.23864209  1
  Ta  Ta88  1  0.29585791  0.30658176  0.87570150  1
  Ta  Ta89  1  0.49992830  0.09142967  0.88377180  1
  Ta  Ta90  1  0.80144878  0.39559469  0.75876424  1
  Ta  Ta91  1  0.30974312  0.68324141  0.10819923  1
  Ta  Ta92  1  0.30188753  0.48190323  0.11619320  1
  Ta  Ta93  1  0.11233162  0.51390799  0.12624764  1
  Ta  Ta94  1  0.30354067  0.09544143  0.38116988  1
  Ta  Ta95  1  0.50534832  0.71282028  0.10817707  1
  Ta  Ta96  1  0.78219845  0.21446573  0.50052841  1
  Ta  Ta97  1  -0.00820104  0.20312261  0.49850402  1
  Ta  Ta98  1  0.21050324  0.42274271  0.25712208  1
  Ta  Ta99  1  0.70861540  0.69247227  0.62438361  1
  Ta  Ta100  1  -0.00156459  0.79291459  0.50177791  1
  Ta  Ta101  1  0.68910687  0.89164330  0.63283343  1
  Ta  Ta102  1  0.20131332  -0.01014117  0.25423146  1
  Ta  Ta103  1  0.39436315  0.00534051  0.24072483  1
  Ta  Ta104  1  0.21944708  -0.01225567  0.49577188  1
  Ta  Ta105  1  0.60125190  0.19553816  0.76289347  1
  Ta  Ta106  1  0.79771213  0.79696232  0.50441205  1
  Ta  Ta107  1  0.48627413  0.89424817  0.87822590  1
  Ta  Ta108  1  0.59601069  -0.02335638  0.00270508  1
  Ta  Ta109  1  0.89738123  0.30745462  0.13657176  1
  Ta  Ta110  1  0.19818205  0.40929339  0.74697134  1
  Ta  Ta111  1  0.89622983  0.90134084  0.37983431  1
  Ta  Ta112  1  0.00277583  0.39784915  0.00738474  1
  Ta  Ta113  1  0.00073664  0.38938017  0.74142401  1
  Ta  Ta114  1  0.70329208  0.09007399  0.13444751  1
  Ta  Ta115  1  0.09909370  0.29565483  0.61598997  1
  Ta  Ta116  1  0.11708051  0.71072701  0.11074614  1
  Ta  Ta117  1  0.69124058  0.30865106  0.87148809  1
  Ta  Ta118  1  0.79821079  0.20856146  0.74814494  1
  Ta  Ta119  1  0.39721735  0.20066958  0.24607952  1
  Ti  Ti120  1  0.19109625  0.78549016  0.24587123  1
  Ti  Ti121  1  0.61822722  0.60168581  0.76003330  1
  Ti  Ti122  1  0.11551698  0.69676790  0.61419762  1
  Ti  Ti123  1  0.00446140  0.41462182  0.24865360  1
  Ti  Ti124  1  0.80820416  0.80527141  0.25103688  1
  Ti  Ti125  1  0.89556650  0.10293120  0.38138263  1
  Ti  Ti126  1  0.69800089  0.29916103  0.63542953  1
  Ti  Ti127  1  0.10029569  0.67787580  0.39111243  1
  Ti  Ti128  1  -0.00176084  -0.00077116  0.49394475  1
  Ti  Ti129  1  0.49358226  0.29652656  0.88750545  1
  Ti  Ti130  1  0.03181281  0.60954024  0.24627592  1
  Ti  Ti131  1  0.89431324  0.91342441  0.13713258  1
  Ti  Ti132  1  0.29675984  0.50122660  0.87424793  1
  Ti  Ti133  1  0.38311044  0.60102613  0.74050959  1
  Ti  Ti134  1  0.89765961  0.28670151  0.87706275  1
  Ti  Ti135  1  0.69771624  0.49498613  0.13785115  1
  Ti  Ti136  1  0.39082734  0.59920711  0.51466939  1
  Ti  Ti137  1  -0.00252489  -0.00725342  0.25982537  1
  Ti  Ti138  1  0.09695047  0.10359075  0.60532509  1
  Ti  Ti139  1  0.49736775  0.48782129  0.36982261  1
  Ti  Ti140  1  0.49450965  0.90444228  0.62352227  1
  Ti  Ti141  1  0.29235525  0.30109005  0.62110883  1
  Ti  Ti142  1  0.70040111  0.89923101  0.36143414  1
  Ti  Ti143  1  0.30127401  0.51285216  0.37701418  1
  Ti  Ti144  1  0.91562633  0.72359543  0.88452558  1
  Ti  Ti145  1  0.40960267  0.79995277  0.74091439  1
  Ti  Ti146  1  0.07458735  0.09325018  0.87439822  1
  Ti  Ti147  1  0.79950333  0.19874704  0.24172480  1
  Ti  Ti148  1  0.89833653  0.49755318  0.63157894  1
  Ti  Ti149  1  0.38409699  0.58814131  0.24506928  1
  Ti  Ti150  1  0.39844550  0.20601692  0.49884523  1
  Ti  Ti151  1  0.00298314  0.80182483  0.25316900  1
  Ti  Ti152  1  0.89675217  0.10987410  0.61154140  1
  Ti  Ti153  1  0.28549524  0.88919409  0.88747945  1
  Ti  Ti154  1  0.68921990  0.11069937  0.62577586  1
  Ti  Ti155  1  0.02437043  0.59641709  0.76840406  1
  Ti  Ti156  1  0.19346821  0.40060276  -0.00348534  1
  Ti  Ti157  1  0.80698864  0.00314293  0.25624866  1
  Ti  Ti158  1  0.30329418  0.90045735  0.36800964  1
  Ti  Ti159  1  0.40698044  0.39529840  0.24962787  1
  Mo  Mo160  1  0.30642943  0.89917737  0.62494291  1
  Mo  Mo161  1  0.70290073  0.49828311  0.86020568  1
  Mo  Mo162  1  0.71355453  0.70206626  0.87330841  1
  Mo  Mo163  1  0.29857396  0.09551503  0.13196205  1
  Mo  Mo164  1  0.80492396  0.40070262  0.24151946  1
  Mo  Mo165  1  0.11052955  0.49350489  0.86875900  1
  Mo  Mo166  1  0.01487042  0.81828328  -0.00178427  1
  Mo  Mo167  1  0.37985349  0.39877098  -0.01343162  1
  Mo  Mo168  1  0.39490454  0.19789139  -0.01277077  1
  Mo  Mo169  1  0.59176018  0.79150742  0.26293580  1
  Mo  Mo170  1  0.08180746  0.88626302  0.13824125  1
  Mo  Mo171  1  0.58489469  0.40277189  0.24660092  1
  Mo  Mo172  1  0.49611412  0.30372045  0.36849331  1
  Mo  Mo173  1  0.29835203  0.69293358  0.62145341  1
  Mo  Mo174  1  0.40222855  0.59542686  -0.00063667  1
  Mo  Mo175  1  0.30196053  0.30547315  0.13176592  1
  Mo  Mo176  1  0.59680714  0.80340916  0.74019517  1
  Mo  Mo177  1  0.11181485  0.50872165  0.37067980  1
  Mo  Mo178  1  0.09621680  0.90216985  0.87487096  1
  Mo  Mo179  1  0.41082316  0.81040275  0.00671172  1
  Mo  Mo180  1  -0.00180711  0.01157139  0.73399156  1
  Mo  Mo181  1  0.60181150  0.80145897  0.00082704  1
  Mo  Mo182  1  0.21090291  0.60758886  0.24194275  1
  Mo  Mo183  1  0.90046595  0.11424492  0.87492971  1
  Mo  Mo184  1  0.00078687  0.60134320  0.50424555  1
  Mo  Mo185  1  0.89201186  0.09981117  0.14368228  1
  Mo  Mo186  1  0.60121474  0.39289017  0.75304496  1
  Mo  Mo187  1  0.60440460  0.20281259  0.50129041  1
  Mo  Mo188  1  0.30446347  0.50294033  0.63198680  1
  Mo  Mo189  1  0.20720527  0.79792656  0.00388604  1
  Mo  Mo190  1  0.20773937  0.59917719  0.50291259  1
  Mo  Mo191  1  0.19965344  0.20242011  0.50057976  1
  Mo  Mo192  1  0.79881826  0.40260732  0.50353527  1
  Mo  Mo193  1  0.19951641  0.79340408  0.50326393  1
  Mo  Mo194  1  0.60066978  0.39801086  -0.00611220  1
  Mo  Mo195  1  0.49023476  0.89710486  0.13041601  1
  Mo  Mo196  1  0.39764586  -0.00170940  0.49480483  1
  Mo  Mo197  1  0.59422929  0.00658188  0.25397244  1
  Mo  Mo198  1  0.78245473  0.00293284  0.01124420  1
  Mo  Mo199  1  0.20841963  0.60071680  0.75647278  1
