# generated using pymatgen
data_HfZrTaTiMo
_symmetry_space_group_name_H-M   'P 1'
_cell_length_a   15.21257723
_cell_length_b   15.21809099
_cell_length_c   16.82897345
_cell_angle_alpha   90.01536349
_cell_angle_beta   90.03183178
_cell_angle_gamma   90.04942716
_symmetry_Int_Tables_number   1
_chemical_formula_structural   HfZrTaTiMo
_chemical_formula_sum   'Hf40 Zr40 Ta40 Ti40 Mo40'
_cell_volume   3896.01260741
_cell_formula_units_Z   40
loop_
 _symmetry_equiv_pos_site_id
 _symmetry_equiv_pos_as_xyz
  1  'x, y, z'
loop_
 _atom_site_type_symbol
 _atom_site_label
 _atom_site_symmetry_multiplicity
 _atom_site_fract_x
 _atom_site_fract_y
 _atom_site_fract_z
 _atom_site_occupancy
  Hf  Hf0  1  0.69572192  0.49412827  0.11397456  1
  Hf  Hf1  1  0.19501091  0.20537590  -0.00683707  1
  Hf  Hf2  1  0.39831668  0.20425365  0.74569185  1
  Hf  Hf3  1  0.60141073  0.80204393  0.49643488  1
  Hf  Hf4  1  0.09929093  0.90883847  0.12469643  1
  Hf  Hf5  1  0.60606723  0.00620453  0.50928073  1
  Hf  Hf6  1  0.29340143  0.69638527  0.87529643  1
  Hf  Hf7  1  0.21858129  0.41201509  -0.00385570  1
  Hf  Hf8  1  0.57880185  0.59226110  -0.00674947  1
  Hf  Hf9  1  0.90036456  0.09859224  0.65542888  1
  Hf  Hf10  1  0.90767734  0.69018065  0.13043632  1
  Hf  Hf11  1  -0.00860644  0.18887890  0.50551069  1
  Hf  Hf12  1  0.10881915  0.49660823  0.61494136  1
  Hf  Hf13  1  0.81493741  0.00984574  0.49720673  1
  Hf  Hf14  1  0.70477060  0.70146734  0.88283572  1
  Hf  Hf15  1  0.21499123  0.40620866  0.75817857  1
  Hf  Hf16  1  0.89126303  0.50306662  0.87151301  1
  Hf  Hf17  1  0.59276936  0.00650083  0.74346176  1
  Hf  Hf18  1  0.31939923  0.49314696  0.14697003  1
  Hf  Hf19  1  0.80765372  0.00186524  0.25592048  1
  Hf  Hf20  1  0.18659671  0.59712475  0.26100148  1
  Hf  Hf21  1  0.81594789  0.80408535  0.49318420  1
  Hf  Hf22  1  0.49478079  0.69690318  0.62578249  1
  Hf  Hf23  1  0.61067424  0.01003838  0.24077641  1
  Hf  Hf24  1  0.90225742  0.68011260  0.37652313  1
  Hf  Hf25  1  0.29494181  0.10321946  0.62048676  1
  Hf  Hf26  1  0.70793904  0.49552806  0.38587601  1
  Hf  Hf27  1  0.59286770  0.20771045  -0.00528738  1
  Hf  Hf28  1  0.17477700  0.19112790  0.26390122  1
  Hf  Hf29  1  0.31843535  0.30039370  0.87898192  1
  Hf  Hf30  1  0.70899219  0.10962364  0.63189657  1
  Hf  Hf31  1  0.00801805  0.39675420  0.75896937  1
  Hf  Hf32  1  0.61330736  0.80382657  0.75131282  1
  Hf  Hf33  1  0.70222403  0.69349950  0.10915133  1
  Hf  Hf34  1  0.59716139  0.41287954  0.74749262  1
  Hf  Hf35  1  0.19557740  0.39098079  0.27098099  1
  Hf  Hf36  1  0.30507517  0.09515490  0.36120987  1
  Hf  Hf37  1  0.30093482  0.90302893  0.35388898  1
  Hf  Hf38  1  0.59991513  0.39869498  0.25428402  1
  Hf  Hf39  1  0.01517147  -0.01990600  0.49809009  1
  Zr  Zr40  1  0.50078300  0.11020925  0.37982114  1
  Zr  Zr41  1  0.90857686  0.70602798  0.85455485  1
  Zr  Zr42  1  0.90480729  0.91274822  0.12624982  1
  Zr  Zr43  1  0.49693134  0.69536052  0.13359188  1
  Zr  Zr44  1  0.70033751  0.69733111  0.61776247  1
  Zr  Zr45  1  0.39960584  0.58831088  0.75412162  1
  Zr  Zr46  1  0.10313524  0.30321238  0.12636348  1
  Zr  Zr47  1  0.91406076  0.89853977  0.64739281  1
  Zr  Zr48  1  -0.00156769  0.60432408  -0.00609183  1
  Zr  Zr49  1  0.09492787  0.50458179  0.12704477  1
  Zr  Zr50  1  0.69435271  0.89366807  0.10762053  1
  Zr  Zr51  1  0.80926062  0.19352420  -0.02105886  1
  Zr  Zr52  1  0.42923881  0.40111723  0.00123363  1
  Zr  Zr53  1  0.80037604  0.19324326  0.24903702  1
  Zr  Zr54  1  0.29218043  0.10362095  0.13917567  1
  Zr  Zr55  1  0.29817197  0.89577293  0.87412707  1
  Zr  Zr56  1  0.19229516  0.19132686  0.47951312  1
  Zr  Zr57  1  0.82284614  0.80039823  -0.00615454  1
  Zr  Zr58  1  0.00781560  0.38696096  -0.02034289  1
  Zr  Zr59  1  0.79822487  0.79822883  0.25684062  1
  Zr  Zr60  1  0.49546521  0.91024523  0.37769359  1
  Zr  Zr61  1  0.70099075  0.29151147  0.11895015  1
  Zr  Zr62  1  0.49029573  0.90630809  0.62342328  1
  Zr  Zr63  1  0.29978885  0.69462981  0.13496651  1
  Zr  Zr64  1  0.09406247  0.71654822  0.38602914  1
  Zr  Zr65  1  0.30356375  0.70122404  0.36474938  1
  Zr  Zr66  1  0.59812049  0.80632865  0.25491155  1
  Zr  Zr67  1  0.50121299  0.90685134  0.87403321  1
  Zr  Zr68  1  0.89218189  0.29324923  0.64748955  1
  Zr  Zr69  1  0.80613157  0.58200152  0.24773883  1
  Zr  Zr70  1  0.59143362  0.20969719  0.74829035  1
  Zr  Zr71  1  0.10125916  0.08548057  0.63608550  1
  Zr  Zr72  1  0.40915526  0.80417997  0.00459881  1
  Zr  Zr73  1  0.90027478  0.70149790  0.63123762  1
  Zr  Zr74  1  0.28812717  0.69905197  0.62521709  1
  Zr  Zr75  1  0.01400147  0.60011797  0.73744525  1
  Zr  Zr76  1  0.20059103  0.38880446  0.48154298  1
  Zr  Zr77  1  0.20127279  0.00154745  0.00213653  1
  Zr  Zr78  1  0.38351370  0.80668295  0.50060914  1
  Zr  Zr79  1  0.10352107  0.28977501  0.62958217  1
  Ta  Ta80  1  0.69606464  0.31120917  0.62250675  1
  Ta  Ta81  1  -0.01240185  0.40426822  0.25237148  1
  Ta  Ta82  1  0.59958041  0.59710926  0.49682307  1
  Ta  Ta83  1  0.49924502  0.49819445  0.37868975  1
  Ta  Ta84  1  0.29977061  0.30384983  0.62519286  1
  Ta  Ta85  1  0.80096483  0.21340523  0.49957250  1
  Ta  Ta86  1  0.69756398  0.30878842  0.87362940  1
  Ta  Ta87  1  0.19604507  0.80507020  0.24099760  1
  Ta  Ta88  1  0.80404853  0.39591239  -0.00747462  1
  Ta  Ta89  1  0.20163115  0.60120145  0.49308249  1
  Ta  Ta90  1  -0.02159617  0.39392938  0.50815091  1
  Ta  Ta91  1  0.30735636  0.09576976  0.87952204  1
  Ta  Ta92  1  -0.00000487  0.19135728  -0.03187380  1
  Ta  Ta93  1  0.78632661  0.58995831  0.74109995  1
  Ta  Ta94  1  0.69693333  0.29733846  0.38120767  1
  Ta  Ta95  1  0.80491956  0.38669935  0.24814422  1
  Ta  Ta96  1  0.70260248  0.10658750  0.38330955  1
  Ta  Ta97  1  0.60068248  0.21005005  0.50591035  1
  Ta  Ta98  1  0.28438522  0.90314588  0.63133408  1
  Ta  Ta99  1  0.91044435  0.28534186  0.11694692  1
  Ta  Ta100  1  0.06909311  0.10903048  0.11747499  1
  Ta  Ta101  1  0.58322475  0.00443551  0.00569610  1
  Ta  Ta102  1  0.79431489  0.00103240  -0.02189140  1
  Ta  Ta103  1  -0.01265148  0.00293454  -0.01845003  1
  Ta  Ta104  1  0.40044780  0.59390055  0.49518966  1
  Ta  Ta105  1  0.70013912  0.69269995  0.38415611  1
  Ta  Ta106  1  0.40174272  0.19118535  0.01154766  1
  Ta  Ta107  1  0.50372269  0.49882472  0.61412325  1
  Ta  Ta108  1  0.60133234  0.59757354  0.25465201  1
  Ta  Ta109  1  0.09408209  0.88740264  0.88392809  1
  Ta  Ta110  1  0.30998189  0.49087282  0.61179303  1
  Ta  Ta111  1  0.09668475  0.70561091  0.12663764  1
  Ta  Ta112  1  0.31004509  0.90002166  0.13593651  1
  Ta  Ta113  1  0.30957871  0.49357639  0.37323460  1
  Ta  Ta114  1  0.19521549  0.19740049  0.76803260  1
  Ta  Ta115  1  0.49884092  0.69648681  0.37033027  1
  Ta  Ta116  1  -0.00767904  0.59524788  0.51275175  1
  Ta  Ta117  1  0.39316764  0.00687355  0.74669279  1
  Ta  Ta118  1  0.08181415  0.50396957  0.38504091  1
  Ta  Ta119  1  0.69489868  0.50091847  0.88524159  1
  Ti  Ti120  1  0.59605980  0.39943713  0.50020919  1
  Ti  Ti121  1  0.30594537  0.29699221  0.13873254  1
  Ti  Ti122  1  0.41828488  0.00539380  0.23234735  1
  Ti  Ti123  1  0.18581169  0.79873564  0.74990427  1
  Ti  Ti124  1  0.48891430  0.10891271  0.61202458  1
  Ti  Ti125  1  0.20146541  0.60322150  0.00467106  1
  Ti  Ti126  1  0.91625315  0.89747136  0.36818688  1
  Ti  Ti127  1  0.70898525  0.09547261  0.11146721  1
  Ti  Ti128  1  0.48853291  0.30982238  0.61413481  1
  Ti  Ti129  1  0.20085025  -0.00362463  0.76070651  1
  Ti  Ti130  1  0.59725835  0.59950133  0.75512617  1
  Ti  Ti131  1  0.05918664  0.29463553  0.37299212  1
  Ti  Ti132  1  0.91007046  0.11262757  0.37337648  1
  Ti  Ti133  1  0.49651783  0.70140780  0.87175612  1
  Ti  Ti134  1  0.89696795  0.48451659  0.38550171  1
  Ti  Ti135  1  0.10204520  0.70485814  0.87925336  1
  Ti  Ti136  1  0.40966753  0.40172025  0.75450863  1
  Ti  Ti137  1  0.00267871  0.79688203  0.25017270  1
  Ti  Ti138  1  0.11492885  0.51079853  0.87543431  1
  Ti  Ti139  1  0.68597319  0.09602047  0.87274995  1
  Ti  Ti140  1  0.70536391  0.90631670  0.37984228  1
  Ti  Ti141  1  0.49610068  0.30310915  0.13615836  1
  Ti  Ti142  1  0.89749912  0.89400176  0.86089245  1
  Ti  Ti143  1  0.39229287  0.21103482  0.49684934  1
  Ti  Ti144  1  0.71604217  0.90071665  0.62583607  1
  Ti  Ti145  1  0.20290798  0.59921776  0.74719715  1
  Ti  Ti146  1  0.10806141  0.91217671  0.36000698  1
  Ti  Ti147  1  0.59540214  0.19891595  0.25009271  1
  Ti  Ti148  1  0.78447023  -0.01005079  0.76948762  1
  Ti  Ti149  1  0.09792819  0.72389171  0.60714271  1
  Ti  Ti150  1  0.01371008  -0.00059819  0.77238108  1
  Ti  Ti151  1  0.19826033  0.79622741  0.01062413  1
  Ti  Ti152  1  0.39578429  0.80273734  0.74876268  1
  Ti  Ti153  1  0.49030121  0.30391104  0.37522073  1
  Ti  Ti154  1  0.38891136  0.59039960  -0.00606315  1
  Ti  Ti155  1  0.48900121  0.10743373  0.87773168  1
  Ti  Ti156  1  0.89854174  0.48604288  0.11432633  1
  Ti  Ti157  1  0.79255309  0.40447273  0.74922419  1
  Ti  Ti158  1  0.00797587  0.02258649  0.25418282  1
  Ti  Ti159  1  0.21076348  -0.01323535  0.49517207  1
  Mo  Mo160  1  0.00429361  0.19627955  0.77611039  1
  Mo  Mo161  1  0.89606840  0.09043237  0.85307078  1
  Mo  Mo162  1  0.10776506  0.09117761  0.87467091  1
  Mo  Mo163  1  0.60642938  0.39628246  -0.00218845  1
  Mo  Mo164  1  0.79533883  0.80148558  0.75434225  1
  Mo  Mo165  1  0.09235280  0.09156809  0.37655816  1
  Mo  Mo166  1  0.38849582  0.01284460  0.50491445  1
  Mo  Mo167  1  0.89433004  0.29926651  0.85527352  1
  Mo  Mo168  1  0.69694313  0.49934882  0.61766887  1
  Mo  Mo169  1  0.10892843  0.30353191  0.87254299  1
  Mo  Mo170  1  0.80517870  0.58758850  0.50757353  1
  Mo  Mo171  1  0.19341718  0.00033618  0.23798688  1
  Mo  Mo172  1  0.30268107  0.50650867  0.87963743  1
  Mo  Mo173  1  0.40251711  0.39632337  0.49891325  1
  Mo  Mo174  1  0.49906865  0.90826727  0.12260708  1
  Mo  Mo175  1  0.50670928  0.29781875  0.87298581  1
  Mo  Mo176  1  0.31608509  0.29410138  0.36263273  1
  Mo  Mo177  1  0.59931057  0.80036883  -0.00942094  1
  Mo  Mo178  1  0.41056750  0.59371629  0.26381205  1
  Mo  Mo179  1  0.79328917  0.39934776  0.51138443  1
  Mo  Mo180  1  0.01261260  0.80531055  0.00115054  1
  Mo  Mo181  1  0.11002122  0.89841340  0.63168593  1
  Mo  Mo182  1  0.78904185  0.20136777  0.76865244  1
  Mo  Mo183  1  0.50076277  0.50268677  0.86993715  1
  Mo  Mo184  1  0.00004655  0.80422413  0.49571367  1
  Mo  Mo185  1  0.40544252  0.39480492  0.25450556  1
  Mo  Mo186  1  0.80230424  0.58810190  -0.00045696  1
  Mo  Mo187  1  0.19054905  0.81541371  0.49541304  1
  Mo  Mo188  1  0.89839577  0.09873371  0.11224395  1
  Mo  Mo189  1  0.40390901  0.80429515  0.24530800  1
  Mo  Mo190  1  0.88647538  0.30446380  0.37900775  1
  Mo  Mo191  1  0.01440524  0.80495966  0.75190499  1
  Mo  Mo192  1  0.50866623  0.49794577  0.13537484  1
  Mo  Mo193  1  -0.01468339  0.20765885  0.24788214  1
  Mo  Mo194  1  0.69504452  0.90262437  0.88666473  1
  Mo  Mo195  1  0.89253638  0.49473107  0.62728930  1
  Mo  Mo196  1  0.40626930  0.20616403  0.24725865  1
  Mo  Mo197  1  0.50910067  0.11240699  0.12729407  1
  Mo  Mo198  1  0.40201928  0.01146198  0.01207820  1
  Mo  Mo199  1  -0.00107747  0.59145222  0.25405830  1
