# generated using pymatgen
data_HfZrTaTiMo
_symmetry_space_group_name_H-M   'P 1'
_cell_length_a   15.21284304
_cell_length_b   15.21010849
_cell_length_c   16.86220986
_cell_angle_alpha   90.00434637
_cell_angle_beta   90.06569931
_cell_angle_gamma   90.08931410
_symmetry_Int_Tables_number   1
_chemical_formula_structural   HfZrTaTiMo
_chemical_formula_sum   'Hf40 Zr40 Ta40 Ti40 Mo40'
_cell_volume   3901.72244252
_cell_formula_units_Z   40
loop_
 _symmetry_equiv_pos_site_id
 _symmetry_equiv_pos_as_xyz
  1  'x, y, z'
loop_
 _atom_site_type_symbol
 _atom_site_label
 _atom_site_symmetry_multiplicity
 _atom_site_fract_x
 _atom_site_fract_y
 _atom_site_fract_z
 _atom_site_occupancy
  Hf  Hf0  1  0.70091782  0.09583620  0.62308214  1
  Hf  Hf1  1  0.03298600  0.59695636  0.25716735  1
  Hf  Hf2  1  0.90402906  0.29543891  0.62587485  1
  Hf  Hf3  1  0.51583558  0.72378456  0.11173327  1
  Hf  Hf4  1  0.38402141  0.21908204  0.75076620  1
  Hf  Hf5  1  0.62060648  0.61240270  -0.00069860  1
  Hf  Hf6  1  0.60044261  -0.00569773  0.49233453  1
  Hf  Hf7  1  0.48908969  0.87650525  0.38128869  1
  Hf  Hf8  1  -0.00585305  0.40261213  -0.00777343  1
  Hf  Hf9  1  0.10800741  0.49430660  0.62654391  1
  Hf  Hf10  1  0.59950064  0.39336311  0.76364778  1
  Hf  Hf11  1  0.29606840  0.12749338  0.60782387  1
  Hf  Hf12  1  -0.01607081  0.80036940  0.75454509  1
  Hf  Hf13  1  0.00360329  0.38908996  0.75571545  1
  Hf  Hf14  1  0.40625859  0.62043739  0.24479261  1
  Hf  Hf15  1  0.80393960  0.19298621  0.50127147  1
  Hf  Hf16  1  0.79808839  0.20252032  0.75176703  1
  Hf  Hf17  1  0.20788844  0.79084883  0.25671183  1
  Hf  Hf18  1  0.30775361  0.70221612  0.87958701  1
  Hf  Hf19  1  0.90617791  0.69828451  0.36141754  1
  Hf  Hf20  1  -0.00415879  0.59421896  0.76174284  1
  Hf  Hf21  1  0.60660099  0.57759239  0.50404698  1
  Hf  Hf22  1  0.90226223  0.09264154  0.86978954  1
  Hf  Hf23  1  0.09710589  0.87369995  0.13115547  1
  Hf  Hf24  1  0.10879942  0.09387491  0.61143528  1
  Hf  Hf25  1  0.60643346  0.19424113  0.24554889  1
  Hf  Hf26  1  0.58749312  0.19146172  0.74784041  1
  Hf  Hf27  1  0.20258279  0.20245040  0.02761257  1
  Hf  Hf28  1  0.28061652  0.91832342  0.62266933  1
  Hf  Hf29  1  0.40087722  0.80744711  0.75589454  1
  Hf  Hf30  1  0.49012115  0.29724915  0.61546437  1
  Hf  Hf31  1  0.79321340  0.79621166  0.23969054  1
  Hf  Hf32  1  0.78488815  0.40184988  0.49908570  1
  Hf  Hf33  1  0.37890729  0.00328861  0.48277984  1
  Hf  Hf34  1  0.48965058  0.88964119  0.61048471  1
  Hf  Hf35  1  0.00092197  0.39873409  0.49506306  1
  Hf  Hf36  1  -0.00729094  0.79500676  0.49757841  1
  Hf  Hf37  1  0.58784734  0.39399035  0.23323519  1
  Hf  Hf38  1  0.48641570  0.10817803  0.36118018  1
  Hf  Hf39  1  0.80879098  0.60162925  0.49408555  1
  Zr  Zr40  1  0.91621476  0.50178048  0.12681076  1
  Zr  Zr41  1  0.68413987  0.08311448  0.87984810  1
  Zr  Zr42  1  0.88835527  0.50465057  0.63001437  1
  Zr  Zr43  1  0.78903166  0.79792884  0.48956196  1
  Zr  Zr44  1  0.60409309  0.59149935  0.76043731  1
  Zr  Zr45  1  0.61031110  0.60332109  0.23667288  1
  Zr  Zr46  1  0.48850700  0.29287213  0.89102834  1
  Zr  Zr47  1  0.51493333  0.71464424  0.88247000  1
  Zr  Zr48  1  0.70210972  0.29108145  0.89387272  1
  Zr  Zr49  1  0.39326802  0.01446409  0.74805642  1
  Zr  Zr50  1  0.32428216  0.71809573  0.38382762  1
  Zr  Zr51  1  0.09861521  0.90381896  0.87599098  1
  Zr  Zr52  1  0.59212774  -0.00932479  0.73716685  1
  Zr  Zr53  1  0.39705241  0.83475868  -0.00406302  1
  Zr  Zr54  1  0.09834734  0.08918253  0.13984062  1
  Zr  Zr55  1  0.78570041  -0.00249293  0.24483746  1
  Zr  Zr56  1  0.30420011  0.71968898  0.11456038  1
  Zr  Zr57  1  -0.01066423  -0.00891668  0.01908931  1
  Zr  Zr58  1  0.20902625  0.40644665  0.49180472  1
  Zr  Zr59  1  0.59821851  0.20368808  0.49240545  1
  Zr  Zr60  1  0.88570337  0.88771170  0.87953526  1
  Zr  Zr61  1  0.70473214  0.27892387  0.10776350  1
  Zr  Zr62  1  0.10218569  0.70899370  0.62662000  1
  Zr  Zr63  1  0.78594891  0.77877510  0.01592516  1
  Zr  Zr64  1  0.91984677  0.70211726  0.13246576  1
  Zr  Zr65  1  0.71572591  0.48883765  0.10840688  1
  Zr  Zr66  1  0.19569893  0.82952491  0.49043152  1
  Zr  Zr67  1  0.89881645  0.28837742  0.37536772  1
  Zr  Zr68  1  0.09930065  0.10101432  0.89311531  1
  Zr  Zr69  1  0.01237105  0.39372859  0.25311305  1
  Zr  Zr70  1  0.40838492  0.02709927  0.01231657  1
  Zr  Zr71  1  0.30793442  0.10241882  0.15928859  1
  Zr  Zr72  1  0.21806851  0.59841536  0.74579450  1
  Zr  Zr73  1  0.19561358  0.40242114  0.01305183  1
  Zr  Zr74  1  0.10323873  0.69366889  0.88106481  1
  Zr  Zr75  1  0.30135047  0.11467873  0.88431641  1
  Zr  Zr76  1  0.90913160  0.08831032  0.63180841  1
  Zr  Zr77  1  0.78043717  -0.01626202  0.01614092  1
  Zr  Zr78  1  0.69744118  0.49178942  0.36373364  1
  Zr  Zr79  1  0.00127722  -0.00741419  0.48524678  1
  Ta  Ta80  1  0.70052180  0.88701861  0.61834080  1
  Ta  Ta81  1  0.49596413  0.68460863  0.63379049  1
  Ta  Ta82  1  0.49471855  0.50715979  0.11338092  1
  Ta  Ta83  1  0.50196678  0.92420011  0.87647641  1
  Ta  Ta84  1  0.80064541  0.38521044  0.24767600  1
  Ta  Ta85  1  0.70330947  0.68840339  0.62915199  1
  Ta  Ta86  1  -0.00698592  0.19887935  0.24379420  1
  Ta  Ta87  1  0.01991467  0.18852276  0.75052016  1
  Ta  Ta88  1  0.89775717  0.29886981  0.12217400  1
  Ta  Ta89  1  0.90533797  0.49684281  0.36830434  1
  Ta  Ta90  1  0.49207080  0.50206531  0.36669831  1
  Ta  Ta91  1  0.38929620  0.40897451  0.01449589  1
  Ta  Ta92  1  0.88975006  0.89562192  0.62582856  1
  Ta  Ta93  1  0.29856729  0.31860127  0.61624772  1
  Ta  Ta94  1  0.18788503  0.01958366  0.75329951  1
  Ta  Ta95  1  0.49416774  0.50332842  0.89153055  1
  Ta  Ta96  1  0.40988268  0.40953327  0.49245009  1
  Ta  Ta97  1  0.79973244  -0.00530756  0.49095504  1
  Ta  Ta98  1  0.29841076  0.51404904  0.36733067  1
  Ta  Ta99  1  0.11331126  0.69401446  0.38374381  1
  Ta  Ta100  1  0.41081891  0.60493139  0.49987465  1
  Ta  Ta101  1  0.10727155  0.29100447  0.87715424  1
  Ta  Ta102  1  0.09502363  0.10239158  0.35795204  1
  Ta  Ta103  1  0.30882238  0.71327164  0.62145138  1
  Ta  Ta104  1  0.11529691  0.67060856  0.10653113  1
  Ta  Ta105  1  0.21091604  0.60853028  0.50631232  1
  Ta  Ta106  1  0.11429331  0.29506554  0.37252291  1
  Ta  Ta107  1  0.88366747  0.10707338  0.13373380  1
  Ta  Ta108  1  0.28963987  0.51921478  0.13199252  1
  Ta  Ta109  1  0.39571965  0.21930380  0.03177832  1
  Ta  Ta110  1  0.20884298  0.38835888  0.75062046  1
  Ta  Ta111  1  0.31476474  0.31197256  0.35524406  1
  Ta  Ta112  1  0.68654392  0.87831898  0.87266520  1
  Ta  Ta113  1  0.11167927  0.28790530  0.61966693  1
  Ta  Ta114  1  0.70976274  0.49451935  0.89033914  1
  Ta  Ta115  1  0.69313246  0.31613676  0.62666440  1
  Ta  Ta116  1  0.39973391  0.41866034  0.75333971  1
  Ta  Ta117  1  0.21390825  -0.01369657  0.01324701  1
  Ta  Ta118  1  0.50953157  0.48924001  0.62685989  1
  Ta  Ta119  1  0.79538355  -0.01985073  0.74972584  1
  Ti  Ti120  1  0.81158268  0.18837255  -0.00403475  1
  Ti  Ti121  1  0.48916046  0.10088072  0.60628488  1
  Ti  Ti122  1  0.69365441  0.89658055  0.37260749  1
  Ti  Ti123  1  0.60776315  0.79471409  0.74281284  1
  Ti  Ti124  1  0.89578150  0.09557865  0.36162692  1
  Ti  Ti125  1  0.49972621  0.30828737  0.37192280  1
  Ti  Ti126  1  0.39988419  0.60467114  0.00349799  1
  Ti  Ti127  1  0.68990153  0.69749535  0.37016167  1
  Ti  Ti128  1  0.39616407  -0.01751359  0.26025691  1
  Ti  Ti129  1  0.00198859  0.20313606  0.01540771  1
  Ti  Ti130  1  0.57991545  0.17322998  0.01254097  1
  Ti  Ti131  1  0.80624698  0.59053742  0.24751139  1
  Ti  Ti132  1  0.31880319  0.51141917  0.62548353  1
  Ti  Ti133  1  0.08354165  0.90773132  0.63847444  1
  Ti  Ti134  1  0.19567011  -0.01288833  0.26576876  1
  Ti  Ti135  1  0.59165707  0.80279214  0.25286835  1
  Ti  Ti136  1  0.19899546  0.80382037  -0.00533935  1
  Ti  Ti137  1  0.89735190  0.89797570  0.36505556  1
  Ti  Ti138  1  -0.00720735  0.78426825  -0.00434721  1
  Ti  Ti139  1  0.29388842  0.31089363  0.88367968  1
  Ti  Ti140  1  0.80010160  0.60634561  0.76655724  1
  Ti  Ti141  1  0.10978938  0.49205852  0.87337446  1
  Ti  Ti142  1  0.90489617  0.29443618  0.87616482  1
  Ti  Ti143  1  0.20367305  0.81466617  0.75519431  1
  Ti  Ti144  1  0.82984922  0.58935112  -0.01434246  1
  Ti  Ti145  1  0.01224599  0.19545564  0.49059269  1
  Ti  Ti146  1  0.69777934  0.29508800  0.36978799  1
  Ti  Ti147  1  0.19296729  0.22273959  0.23915400  1
  Ti  Ti148  1  0.59162387  0.39678628  0.00446672  1
  Ti  Ti149  1  0.50403772  0.92189798  0.13708679  1
  Ti  Ti150  1  0.01062740  0.59425954  0.49282961  1
  Ti  Ti151  1  0.19784490  0.41953703  0.24876962  1
  Ti  Ti152  1  0.30333096  0.50177273  0.87742912  1
  Ti  Ti153  1  0.70196596  0.09774687  0.37095368  1
  Ti  Ti154  1  -0.01036933  -0.01425522  0.24417108  1
  Ti  Ti155  1  0.58830658  0.77365075  0.50192756  1
  Ti  Ti156  1  0.28952763  0.12138401  0.36223916  1
  Ti  Ti157  1  0.89452974  0.70255037  0.62722420  1
  Ti  Ti158  1  0.79703134  0.40665006  0.75689918  1
  Ti  Ti159  1  0.67727531  0.07652704  0.12802866  1
  Mo  Mo160  1  0.50417352  0.30904277  0.11555949  1
  Mo  Mo161  1  0.40986336  0.81020618  0.24209847  1
  Mo  Mo162  1  0.10527487  0.49943965  0.12119367  1
  Mo  Mo163  1  0.01103139  0.59382488  -0.01596888  1
  Mo  Mo164  1  0.71065202  0.69942750  0.87115390  1
  Mo  Mo165  1  0.51542398  0.68923377  0.37728826  1
  Mo  Mo166  1  0.90212897  0.90079753  0.12934562  1
  Mo  Mo167  1  0.59564088  0.39574035  0.49542881  1
  Mo  Mo168  1  0.80570080  0.38920171  -0.00805353  1
  Mo  Mo169  1  0.60459069  0.81858324  0.00362344  1
  Mo  Mo170  1  -0.00341617  -0.00113182  0.74737444  1
  Mo  Mo171  1  0.78877726  0.79119549  0.74335228  1
  Mo  Mo172  1  0.70110270  0.49724403  0.63454948  1
  Mo  Mo173  1  0.19086328  0.01854816  0.47167292  1
  Mo  Mo174  1  0.40789446  0.59711975  0.75297288  1
  Mo  Mo175  1  0.59151920  -0.00940548  0.26666137  1
  Mo  Mo176  1  0.29583938  0.91093352  0.37178841  1
  Mo  Mo177  1  0.09183684  0.30234249  0.13140114  1
  Mo  Mo178  1  0.19735462  0.20816933  0.74913716  1
  Mo  Mo179  1  0.28975863  0.91072730  0.87049951  1
  Mo  Mo180  1  0.67841640  0.88512064  0.13443495  1
  Mo  Mo181  1  0.70624859  0.69167713  0.13222131  1
  Mo  Mo182  1  0.30046836  0.31943638  0.14940121  1
  Mo  Mo183  1  0.89855869  0.48987986  0.86702841  1
  Mo  Mo184  1  0.89591264  0.69258691  0.87701380  1
  Mo  Mo185  1  0.39000842  0.21729896  0.48379716  1
  Mo  Mo186  1  0.00664637  0.79856904  0.25816895  1
  Mo  Mo187  1  0.29374505  0.90985936  0.13537759  1
  Mo  Mo188  1  0.40954855  0.22662941  0.23954335  1
  Mo  Mo189  1  0.39789914  0.79546661  0.51090932  1
  Mo  Mo190  1  0.21087462  0.60224994  0.25496208  1
  Mo  Mo191  1  0.10874131  0.50321477  0.38688504  1
  Mo  Mo192  1  0.58855174  -0.00917451  0.00484391  1
  Mo  Mo193  1  0.20220842  0.20676379  0.48031417  1
  Mo  Mo194  1  0.79914706  0.19897754  0.24970034  1
  Mo  Mo195  1  0.21398774  0.59163585  -0.01056682  1
  Mo  Mo196  1  0.50088814  0.10450940  0.14877888  1
  Mo  Mo197  1  0.08830958  0.89568043  0.35842208  1
  Mo  Mo198  1  0.39828026  0.41899488  0.23994496  1
  Mo  Mo199  1  0.49662007  0.11161320  0.87940421  1
