# generated using pymatgen
data_HfZrTaTiMo
_symmetry_space_group_name_H-M   'P 1'
_cell_length_a   15.20729371
_cell_length_b   15.21802561
_cell_length_c   16.83924184
_cell_angle_alpha   89.99703941
_cell_angle_beta   89.96567374
_cell_angle_gamma   89.92880558
_symmetry_Int_Tables_number   1
_chemical_formula_structural   HfZrTaTiMo
_chemical_formula_sum   'Hf40 Zr40 Ta40 Ti40 Mo40'
_cell_volume   3897.01758054
_cell_formula_units_Z   40
loop_
 _symmetry_equiv_pos_site_id
 _symmetry_equiv_pos_as_xyz
  1  'x, y, z'
loop_
 _atom_site_type_symbol
 _atom_site_label
 _atom_site_symmetry_multiplicity
 _atom_site_fract_x
 _atom_site_fract_y
 _atom_site_fract_z
 _atom_site_occupancy
  Hf  Hf0  1  0.20602172  -0.00153207  0.76256452  1
  Hf  Hf1  1  -0.01297444  0.40785862  0.01453815  1
  Hf  Hf2  1  0.29175929  0.90216337  0.13075990  1
  Hf  Hf3  1  0.57958954  0.19256578  0.00875166  1
  Hf  Hf4  1  0.68310147  0.29497730  0.13661889  1
  Hf  Hf5  1  0.22602651  0.19992192  0.00070421  1
  Hf  Hf6  1  0.28466759  0.29980468  0.39084875  1
  Hf  Hf7  1  0.80244267  0.79891113  0.23915006  1
  Hf  Hf8  1  0.10111933  0.70179845  0.36780769  1
  Hf  Hf9  1  0.10109052  0.10817188  0.87957069  1
  Hf  Hf10  1  0.59593695  0.40573948  0.47488147  1
  Hf  Hf11  1  0.79433687  0.39749154  0.25171224  1
  Hf  Hf12  1  0.68802605  0.49208174  0.62610511  1
  Hf  Hf13  1  0.40490386  0.62864345  0.76620739  1
  Hf  Hf14  1  0.30244488  0.90224003  0.62117911  1
  Hf  Hf15  1  0.69250622  0.09710859  0.88230661  1
  Hf  Hf16  1  0.30844591  0.69727165  0.37665619  1
  Hf  Hf17  1  0.50237032  0.30661997  0.62102668  1
  Hf  Hf18  1  0.79685253  0.39539361  0.01930215  1
  Hf  Hf19  1  0.60853197  0.59351782  -0.00722796  1
  Hf  Hf20  1  0.91166234  0.69375630  0.87050930  1
  Hf  Hf21  1  0.00478972  0.78854933  0.50084182  1
  Hf  Hf22  1  0.30463937  0.09174323  0.60728656  1
  Hf  Hf23  1  0.69261083  0.28380208  0.60924103  1
  Hf  Hf24  1  0.40182347  0.38063817  -0.00496572  1
  Hf  Hf25  1  0.89406975  0.51296355  0.36622474  1
  Hf  Hf26  1  0.49417779  0.90213054  0.14189564  1
  Hf  Hf27  1  0.30512664  0.70322410  0.11184998  1
  Hf  Hf28  1  0.88715810  0.30690707  0.86894816  1
  Hf  Hf29  1  0.79517986  0.20005535  0.01475806  1
  Hf  Hf30  1  0.69553360  0.87893183  0.10775106  1
  Hf  Hf31  1  0.70982114  0.69489044  0.37445508  1
  Hf  Hf32  1  -0.00882516  0.41130584  0.74180481  1
  Hf  Hf33  1  0.61150740  0.80502660  0.49655392  1
  Hf  Hf34  1  0.87850443  0.90665092  0.37933057  1
  Hf  Hf35  1  0.80713596  0.17821510  0.24037064  1
  Hf  Hf36  1  -0.00203303  0.61269219  0.23652160  1
  Hf  Hf37  1  0.31398394  0.11028197  0.13921611  1
  Hf  Hf38  1  0.81807605  0.59563703  0.01284247  1
  Hf  Hf39  1  0.30683007  0.70506605  0.61978129  1
  Zr  Zr40  1  0.39265740  0.40446502  0.26655866  1
  Zr  Zr41  1  0.29576476  0.51219815  0.88292249  1
  Zr  Zr42  1  0.30238576  0.28954670  0.86043470  1
  Zr  Zr43  1  0.69601836  0.89647448  0.88580387  1
  Zr  Zr44  1  0.60700487  0.59699603  0.25338176  1
  Zr  Zr45  1  0.90127600  0.89816413  0.63423623  1
  Zr  Zr46  1  0.19009558  0.40616582  -0.01048602  1
  Zr  Zr47  1  0.50185942  0.89955322  0.63180296  1
  Zr  Zr48  1  0.30124533  0.30348062  0.62101351  1
  Zr  Zr49  1  0.10824086  0.88877915  0.62906682  1
  Zr  Zr50  1  0.58943689  0.79081645  0.75925219  1
  Zr  Zr51  1  0.29182355  0.50660375  0.62349644  1
  Zr  Zr52  1  0.08587987  0.30435704  0.87215998  1
  Zr  Zr53  1  0.41730240  0.79699878  0.49192583  1
  Zr  Zr54  1  0.08689125  0.11831930  0.38178219  1
  Zr  Zr55  1  0.19235183  0.20030019  0.73661813  1
  Zr  Zr56  1  0.41061249  0.41471027  0.75604738  1
  Zr  Zr57  1  0.18792100  0.61853109  0.76193906  1
  Zr  Zr58  1  -0.01704123  0.00841407  0.50154801  1
  Zr  Zr59  1  0.79705904  0.00391640  0.75382436  1
  Zr  Zr60  1  0.30293785  0.49671201  0.11650137  1
  Zr  Zr61  1  0.89897972  0.10698907  0.88472896  1
  Zr  Zr62  1  0.10579213  0.51264988  0.12617123  1
  Zr  Zr63  1  0.18975743  0.00336095  0.25555295  1
  Zr  Zr64  1  0.10677899  0.09099013  0.11154869  1
  Zr  Zr65  1  0.79912670  0.39106106  0.48838271  1
  Zr  Zr66  1  -0.01757886  0.00138119  0.25021270  1
  Zr  Zr67  1  0.39494789  0.01060175  -0.00110514  1
  Zr  Zr68  1  -0.00727365  0.21421072  0.51957208  1
  Zr  Zr69  1  0.59596702  0.58770171  0.76597607  1
  Zr  Zr70  1  0.51348997  0.70774677  0.11989641  1
  Zr  Zr71  1  0.29533922  0.09227867  0.39102380  1
  Zr  Zr72  1  0.61251301  0.00521334  0.49111217  1
  Zr  Zr73  1  0.72028141  0.48765881  0.87264664  1
  Zr  Zr74  1  0.80227686  0.60152811  0.50743656  1
  Zr  Zr75  1  0.69695229  0.26435493  0.38076483  1
  Zr  Zr76  1  -0.00253857  0.41632775  0.50525029  1
  Zr  Zr77  1  0.49965499  0.49290806  0.12742734  1
  Zr  Zr78  1  0.39909980  0.40995572  0.49127167  1
  Zr  Zr79  1  0.91364434  0.28542677  0.36986432  1
  Ta  Ta80  1  0.59664017  0.18836784  0.25090559  1
  Ta  Ta81  1  0.18850772  0.41474602  0.75409943  1
  Ta  Ta82  1  0.69543727  0.49953704  0.12981105  1
  Ta  Ta83  1  0.30756585  0.89660838  0.36480441  1
  Ta  Ta84  1  0.90102452  0.08791396  0.10856333  1
  Ta  Ta85  1  0.08521554  0.52960474  0.62549831  1
  Ta  Ta86  1  0.19911998  0.21259228  0.25158915  1
  Ta  Ta87  1  0.69639807  0.07659438  0.12447236  1
  Ta  Ta88  1  0.70008047  0.69861990  0.62978454  1
  Ta  Ta89  1  0.09562447  0.50110255  0.36823921  1
  Ta  Ta90  1  0.00649600  0.20254505  0.23255387  1
  Ta  Ta91  1  0.60856939  0.38407239  0.75571967  1
  Ta  Ta92  1  0.11240718  0.30165083  0.12321917  1
  Ta  Ta93  1  0.10964133  0.71684717  0.11770289  1
  Ta  Ta94  1  0.18845210  0.20398807  0.51306282  1
  Ta  Ta95  1  0.59208752  0.39346717  0.27311364  1
  Ta  Ta96  1  0.80041107  0.15792024  0.50286300  1
  Ta  Ta97  1  -0.00077683  0.39836769  0.23915026  1
  Ta  Ta98  1  0.59707240  0.18921386  0.74951196  1
  Ta  Ta99  1  0.00345814  -0.00009349  0.75772324  1
  Ta  Ta100  1  0.69454038  0.29072491  0.87881775  1
  Ta  Ta101  1  0.18388129  0.60924243  0.50038773  1
  Ta  Ta102  1  0.28532396  0.51032315  0.38257080  1
  Ta  Ta103  1  0.71261370  0.70175823  0.88369260  1
  Ta  Ta104  1  0.40317987  0.18885645  0.74256663  1
  Ta  Ta105  1  0.89969688  0.89517468  0.87893793  1
  Ta  Ta106  1  0.48090805  0.28923566  0.13818188  1
  Ta  Ta107  1  0.92185460  0.69193676  0.63738076  1
  Ta  Ta108  1  0.78971086  0.20760439  0.74625549  1
  Ta  Ta109  1  0.00956061  0.80046835  -0.00918546  1
  Ta  Ta110  1  0.69965079  0.89609787  0.63616724  1
  Ta  Ta111  1  0.80434147  0.59728807  0.74449560  1
  Ta  Ta112  1  0.50534085  0.10090945  0.62310897  1
  Ta  Ta113  1  0.39941710  0.20021959  0.27000313  1
  Ta  Ta114  1  0.90384015  0.70641076  0.37174291  1
  Ta  Ta115  1  0.09704036  0.08975309  0.62231284  1
  Ta  Ta116  1  0.19427532  0.40142365  0.25516708  1
  Ta  Ta117  1  0.20607009  0.60304822  0.24907715  1
  Ta  Ta118  1  0.59633762  0.39177711  -0.00356848  1
  Ta  Ta119  1  0.49262689  0.09573484  0.86849745  1
  Ti  Ti120  1  0.80294966  0.80028715  0.50997245  1
  Ti  Ti121  1  0.00440826  0.81019316  0.24760802  1
  Ti  Ti122  1  0.58890046  -0.00835784  0.00147477  1
  Ti  Ti123  1  0.41261748  -0.00689776  0.48835278  1
  Ti  Ti124  1  0.89770573  0.90139883  0.10404154  1
  Ti  Ti125  1  0.80479201  0.79288284  0.75092243  1
  Ti  Ti126  1  0.18401938  0.40686207  0.50100992  1
  Ti  Ti127  1  0.40342941  -0.00555011  0.75601500  1
  Ti  Ti128  1  0.10211117  0.90569831  0.37925658  1
  Ti  Ti129  1  0.41754613  0.19944720  0.49108297  1
  Ti  Ti130  1  0.71862171  0.06312542  0.35990973  1
  Ti  Ti131  1  0.80215556  0.60312504  0.23172572  1
  Ti  Ti132  1  0.50284284  0.29127135  0.86980368  1
  Ti  Ti133  1  0.02347563  0.79426476  0.76228475  1
  Ti  Ti134  1  0.58886801  0.61143302  0.49663400  1
  Ti  Ti135  1  0.48875999  0.52611491  0.37644151  1
  Ti  Ti136  1  0.40872213  0.60666545  -0.01265890  1
  Ti  Ti137  1  0.00246942  -0.00704642  -0.01251979  1
  Ti  Ti138  1  0.48631463  0.88934495  0.87702578  1
  Ti  Ti139  1  0.50214704  0.09312159  0.14318337  1
  Ti  Ti140  1  0.39718415  0.60815707  0.24538344  1
  Ti  Ti141  1  0.90738474  0.71331563  0.11400178  1
  Ti  Ti142  1  0.20105850  -0.00704340  -0.01942564  1
  Ti  Ti143  1  0.88440570  0.30029971  0.63103335  1
  Ti  Ti144  1  0.89006736  0.50141971  0.62708381  1
  Ti  Ti145  1  0.49268297  0.52282470  0.61808483  1
  Ti  Ti146  1  0.09395621  0.89929479  0.11778008  1
  Ti  Ti147  1  0.69846842  0.08791053  0.63049937  1
  Ti  Ti148  1  0.19975482  0.79902120  0.25016793  1
  Ti  Ti149  1  0.20525438  0.80839952  0.49217675  1
  Ti  Ti150  1  0.50438826  0.71672589  0.35499212  1
  Ti  Ti151  1  -0.01034175  0.19428178  0.73541963  1
  Ti  Ti152  1  0.51128772  0.09851998  0.36905337  1
  Ti  Ti153  1  0.01660516  0.60302007  0.00092606  1
  Ti  Ti154  1  0.09884471  0.31548309  0.63181981  1
  Ti  Ti155  1  0.50765778  0.90555081  0.34871498  1
  Ti  Ti156  1  0.20481001  0.80643788  -0.01589881  1
  Ti  Ti157  1  0.91127938  0.50080075  0.87139823  1
  Ti  Ti158  1  0.00054000  0.21103966  0.01445903  1
  Ti  Ti159  1  0.21935444  0.80368746  0.77209995  1
  Mo  Mo160  1  0.40143597  0.81034574  0.00034614  1
  Mo  Mo161  1  -0.00170352  0.60746206  0.49612609  1
  Mo  Mo162  1  0.10716391  0.70134013  0.88720431  1
  Mo  Mo163  1  0.39331666  0.80498146  0.75391876  1
  Mo  Mo164  1  0.79356852  0.39657012  0.74151716  1
  Mo  Mo165  1  0.89828864  0.50364077  0.13851783  1
  Mo  Mo166  1  0.69470438  0.88539289  0.36420265  1
  Mo  Mo167  1  0.59419692  0.79725284  -0.01161233  1
  Mo  Mo168  1  0.80416740  -0.00408199  0.00107096  1
  Mo  Mo169  1  0.50710280  0.70411340  0.89229581  1
  Mo  Mo170  1  0.40751722  0.19971854  0.00214882  1
  Mo  Mo171  1  0.59083762  0.00534552  0.75131386  1
  Mo  Mo172  1  0.31268135  0.71659774  0.89529777  1
  Mo  Mo173  1  0.30785605  0.10107969  0.86803542  1
  Mo  Mo174  1  0.61066957  -0.00322107  0.25056015  1
  Mo  Mo175  1  0.19604524  -0.00541824  0.49125041  1
  Mo  Mo176  1  0.10059120  0.31164735  0.37252517  1
  Mo  Mo177  1  0.30054446  0.30146792  0.13651975  1
  Mo  Mo178  1  0.09498091  0.89910720  0.87196654  1
  Mo  Mo179  1  -0.00342017  0.60436696  0.75318563  1
  Mo  Mo180  1  0.39349022  0.79875578  0.25338542  1
  Mo  Mo181  1  0.89082454  0.10297700  0.37187906  1
  Mo  Mo182  1  0.40186990  0.60307418  0.49651620  1
  Mo  Mo183  1  0.40266481  0.00596299  0.26238852  1
  Mo  Mo184  1  0.90435407  0.29447811  0.13439173  1
  Mo  Mo185  1  0.59686086  0.19073840  0.49709590  1
  Mo  Mo186  1  0.08551160  0.50875877  0.87579891  1
  Mo  Mo187  1  0.11122679  0.70943576  0.62592414  1
  Mo  Mo188  1  0.69605334  0.50074135  0.36886722  1
  Mo  Mo189  1  0.70957266  0.69322571  0.11315453  1
  Mo  Mo190  1  0.81045652  0.79245677  -0.00302135  1
  Mo  Mo191  1  0.30532560  0.90654726  0.87715763  1
  Mo  Mo192  1  0.78966531  -0.01774400  0.50990682  1
  Mo  Mo193  1  0.60629375  0.79702805  0.25143998  1
  Mo  Mo194  1  0.51026217  0.69339316  0.62313219  1
  Mo  Mo195  1  0.80241979  -0.01195068  0.23067851  1
  Mo  Mo196  1  0.49563283  0.28775141  0.37401543  1
  Mo  Mo197  1  0.50622994  0.48777153  0.88237880  1
  Mo  Mo198  1  0.89450016  0.10310688  0.63830938  1
  Mo  Mo199  1  0.19719122  0.61653336  -0.00636898  1
