# generated using pymatgen
data_HfZrTaTiMo
_symmetry_space_group_name_H-M   'P 1'
_cell_length_a   15.21709472
_cell_length_b   15.19539807
_cell_length_c   16.86433955
_cell_angle_alpha   89.91045449
_cell_angle_beta   90.00121210
_cell_angle_gamma   90.13978718
_symmetry_Int_Tables_number   1
_chemical_formula_structural   HfZrTaTiMo
_chemical_formula_sum   'Hf40 Zr40 Ta40 Ti40 Mo40'
_cell_volume   3899.52168966
_cell_formula_units_Z   40
loop_
 _symmetry_equiv_pos_site_id
 _symmetry_equiv_pos_as_xyz
  1  'x, y, z'
loop_
 _atom_site_type_symbol
 _atom_site_label
 _atom_site_symmetry_multiplicity
 _atom_site_fract_x
 _atom_site_fract_y
 _atom_site_fract_z
 _atom_site_occupancy
  Hf  Hf0  1  -0.01303524  0.59501133  0.75968649  1
  Hf  Hf1  1  0.00336518  0.58336073  0.50386392  1
  Hf  Hf2  1  0.67936543  0.49674316  0.37102338  1
  Hf  Hf3  1  0.79601479  -0.00114723  -0.00909998  1
  Hf  Hf4  1  0.09088263  0.90074151  0.12531614  1
  Hf  Hf5  1  0.80523329  0.59667297  0.49062444  1
  Hf  Hf6  1  0.49948113  0.90632527  0.37277422  1
  Hf  Hf7  1  0.30667334  0.29293556  0.11492906  1
  Hf  Hf8  1  0.89874146  0.69809551  0.62387863  1
  Hf  Hf9  1  0.39761565  0.58329454  0.51974188  1
  Hf  Hf10  1  0.30310669  0.32335234  0.37490946  1
  Hf  Hf11  1  0.69854024  0.10147157  0.63761833  1
  Hf  Hf12  1  0.68396543  0.28609333  0.36696595  1
  Hf  Hf13  1  0.30407794  0.31047568  0.63307158  1
  Hf  Hf14  1  0.71418755  0.32357743  0.87398392  1
  Hf  Hf15  1  0.20424732  0.20688422  0.24527132  1
  Hf  Hf16  1  0.02824785  0.58137300  0.24043113  1
  Hf  Hf17  1  0.79745670  -0.01110874  0.75240818  1
  Hf  Hf18  1  0.88003741  0.48522505  0.87958682  1
  Hf  Hf19  1  0.58976870  0.79124367  0.01726469  1
  Hf  Hf20  1  0.09497535  0.89474624  0.36730371  1
  Hf  Hf21  1  0.80109731  0.78805951  -0.00594038  1
  Hf  Hf22  1  0.69958484  0.91161503  0.13403687  1
  Hf  Hf23  1  0.58981214  0.79530806  0.24825217  1
  Hf  Hf24  1  0.78087311  0.57752979  0.00345660  1
  Hf  Hf25  1  0.81551903  0.21797665  0.75448515  1
  Hf  Hf26  1  0.10504640  0.09805995  0.88128110  1
  Hf  Hf27  1  0.30283505  0.90981052  0.63099628  1
  Hf  Hf28  1  0.19945726  0.59458162  0.75271906  1
  Hf  Hf29  1  0.50887213  0.11385342  0.12243086  1
  Hf  Hf30  1  0.10379393  0.68313508  0.37441528  1
  Hf  Hf31  1  -0.00737362  -0.00874865  0.50705244  1
  Hf  Hf32  1  0.68703151  0.67722396  0.13938245  1
  Hf  Hf33  1  0.19561276  0.78880956  0.24095337  1
  Hf  Hf34  1  0.90719913  0.10826471  0.63622270  1
  Hf  Hf35  1  0.80280348  0.38946655  0.48657216  1
  Hf  Hf36  1  0.69670238  0.70981300  0.38396990  1
  Hf  Hf37  1  0.59263021  0.00085812  0.00016554  1
  Hf  Hf38  1  0.30692922  0.70450684  0.12412988  1
  Hf  Hf39  1  0.30017003  0.89728910  0.37848044  1
  Zr  Zr40  1  0.30817283  0.69894428  0.37568057  1
  Zr  Zr41  1  0.79859716  -0.00365209  0.50542554  1
  Zr  Zr42  1  0.18229443  0.41902028  0.23391412  1
  Zr  Zr43  1  0.42396959  0.20948334  0.25936944  1
  Zr  Zr44  1  0.60826748  0.42095584  0.00482863  1
  Zr  Zr45  1  0.09086435  0.31901432  0.36728638  1
  Zr  Zr46  1  0.79856102  0.79038040  0.75116738  1
  Zr  Zr47  1  0.90381926  0.09814319  0.87319334  1
  Zr  Zr48  1  0.81169322  0.60380689  0.26945287  1
  Zr  Zr49  1  0.60020659  0.20699271  -0.01717846  1
  Zr  Zr50  1  -0.00207144  0.79236712  0.50053683  1
  Zr  Zr51  1  0.20141035  0.00120748  0.24237806  1
  Zr  Zr52  1  0.30208820  0.71144670  0.87580489  1
  Zr  Zr53  1  0.08825683  0.09924638  0.36900391  1
  Zr  Zr54  1  0.40188054  0.61423651  0.73127983  1
  Zr  Zr55  1  0.67732962  0.89703510  0.87325997  1
  Zr  Zr56  1  0.11060925  0.09794720  0.63316520  1
  Zr  Zr57  1  0.68365773  0.68089756  0.87088775  1
  Zr  Zr58  1  0.31129026  0.10176035  0.36913347  1
  Zr  Zr59  1  0.92631482  0.47720262  0.36138116  1
  Zr  Zr60  1  0.49625819  0.10116927  0.64691930  1
  Zr  Zr61  1  0.20362067  0.60418211  0.51965879  1
  Zr  Zr62  1  0.89990817  0.69583143  0.12336645  1
  Zr  Zr63  1  0.29653377  0.09163428  0.85877634  1
  Zr  Zr64  1  0.40847686  0.21821369  0.49772626  1
  Zr  Zr65  1  0.30664589  0.50348719  0.12171349  1
  Zr  Zr66  1  0.41620670  0.60962433  -0.00248611  1
  Zr  Zr67  1  -0.00283779  0.19977199  0.49297816  1
  Zr  Zr68  1  -0.00325336  0.18971424  0.01703571  1
  Zr  Zr69  1  0.11733974  0.90515292  0.87566118  1
  Zr  Zr70  1  0.58193815  0.81288568  0.72611577  1
  Zr  Zr71  1  0.60123002  0.19672147  0.50495083  1
  Zr  Zr72  1  0.50339697  0.08663514  0.85735474  1
  Zr  Zr73  1  -0.00234666  0.17928742  0.23142466  1
  Zr  Zr74  1  0.09441545  0.70627002  0.87603069  1
  Zr  Zr75  1  0.41169840  0.01141363  0.50332352  1
  Zr  Zr76  1  0.19924303  0.00481667  0.49935544  1
  Zr  Zr77  1  0.10365736  0.29463124  0.89347050  1
  Zr  Zr78  1  0.78142791  0.57974524  0.73787812  1
  Zr  Zr79  1  -0.00852485  0.37803222  0.75398815  1
  Ta  Ta80  1  0.50245264  0.69537318  0.39031815  1
  Ta  Ta81  1  0.30217786  0.10932936  0.64484708  1
  Ta  Ta82  1  0.89632212  0.89707920  0.36777420  1
  Ta  Ta83  1  0.09656398  0.49043737  0.63654025  1
  Ta  Ta84  1  0.60904479  0.41610465  0.73838549  1
  Ta  Ta85  1  0.00328013  -0.00868417  0.74890410  1
  Ta  Ta86  1  -0.01196691  0.59941485  -0.00625386  1
  Ta  Ta87  1  0.40181595  0.41361313  0.76016925  1
  Ta  Ta88  1  0.40282498  0.79581601  0.51556179  1
  Ta  Ta89  1  0.20860315  0.81424510  0.00866703  1
  Ta  Ta90  1  0.20507883  0.40358445  0.00102109  1
  Ta  Ta91  1  0.71135987  0.31050915  0.62463242  1
  Ta  Ta92  1  0.40147285  0.20236269  -0.01428998  1
  Ta  Ta93  1  0.58093849  0.39991041  0.50834282  1
  Ta  Ta94  1  0.19365384  0.21051309  0.75310421  1
  Ta  Ta95  1  0.40873462  0.40454418  -0.01258425  1
  Ta  Ta96  1  0.40105818  0.81844293  0.00898887  1
  Ta  Ta97  1  0.48043098  0.49606760  0.37609589  1
  Ta  Ta98  1  0.19613891  0.60383327  -0.00339211  1
  Ta  Ta99  1  0.69933631  0.90994575  0.36678917  1
  Ta  Ta100  1  0.78964909  0.19601314  0.00385539  1
  Ta  Ta101  1  0.49573464  0.72219406  0.86782990  1
  Ta  Ta102  1  0.79903720  0.80437798  0.25297574  1
  Ta  Ta103  1  0.20243411  0.40845432  0.50859151  1
  Ta  Ta104  1  0.09943254  0.70061007  0.63771391  1
  Ta  Ta105  1  0.89493170  0.49141269  0.13270670  1
  Ta  Ta106  1  -0.00278350  0.80152982  0.75000452  1
  Ta  Ta107  1  0.09881696  0.29810647  0.62713614  1
  Ta  Ta108  1  0.39105756  0.00291345  0.00016599  1
  Ta  Ta109  1  -0.00702172  0.40268482  0.01600291  1
  Ta  Ta110  1  0.20354954  0.21084762  0.50129265  1
  Ta  Ta111  1  0.51228005  0.51952185  0.13593270  1
  Ta  Ta112  1  -0.01035277  0.78730233  0.25225670  1
  Ta  Ta113  1  0.09636949  0.49467829  0.88814138  1
  Ta  Ta114  1  0.78599157  0.18194917  0.24268132  1
  Ta  Ta115  1  0.51312255  0.52014164  0.86448165  1
  Ta  Ta116  1  0.61034105  0.21300016  0.76026613  1
  Ta  Ta117  1  0.88218964  0.29274257  0.12739774  1
  Ta  Ta118  1  0.80292525  0.19406864  0.49442423  1
  Ta  Ta119  1  0.69669294  0.70410582  0.60746559  1
  Ti  Ti120  1  0.40058881  0.21601387  0.76188948  1
  Ti  Ti121  1  0.10072095  0.69381122  0.11443267  1
  Ti  Ti122  1  0.12218894  0.09713918  0.10642140  1
  Ti  Ti123  1  0.49865392  0.31439490  0.11677876  1
  Ti  Ti124  1  0.59486987  0.59482941  0.51135350  1
  Ti  Ti125  1  0.68953250  0.29160833  0.12956566  1
  Ti  Ti126  1  0.90619992  0.29602272  0.89651342  1
  Ti  Ti127  1  0.31395523  0.09485394  0.12635879  1
  Ti  Ti128  1  0.89784130  0.27477309  0.35503077  1
  Ti  Ti129  1  0.88894439  0.47608390  0.62439278  1
  Ti  Ti130  1  0.20084494  0.40159789  0.76089646  1
  Ti  Ti131  1  0.10265462  0.29975590  0.11348741  1
  Ti  Ti132  1  0.89773965  0.89338295  0.12697681  1
  Ti  Ti133  1  0.59204823  0.60441309  0.72098672  1
  Ti  Ti134  1  0.50453756  0.31912978  0.86785402  1
  Ti  Ti135  1  0.60423115  0.02547770  0.25392245  1
  Ti  Ti136  1  0.20629287  0.80221877  0.74363059  1
  Ti  Ti137  1  0.60674719  0.00275370  0.49703756  1
  Ti  Ti138  1  0.00444815  0.39139425  0.50818599  1
  Ti  Ti139  1  0.79921351  0.38615671  0.25534394  1
  Ti  Ti140  1  0.28547662  0.51222812  0.36742619  1
  Ti  Ti141  1  0.60169945  0.81426922  0.50663109  1
  Ti  Ti142  1  0.31761744  0.90013480  0.86061813  1
  Ti  Ti143  1  0.40902314  0.61080007  0.25203971  1
  Ti  Ti144  1  0.89267680  0.08080840  0.12189014  1
  Ti  Ti145  1  0.09717876  0.89586303  0.63301663  1
  Ti  Ti146  1  0.19913150  0.80056935  0.51032706  1
  Ti  Ti147  1  0.29960492  0.30326260  0.88107692  1
  Ti  Ti148  1  0.39609594  0.81087635  0.24573856  1
  Ti  Ti149  1  0.70190152  0.48517637  0.14784097  1
  Ti  Ti150  1  0.90992137  0.88671692  0.87711701  1
  Ti  Ti151  1  0.48721887  0.91489033  0.13875919  1
  Ti  Ti152  1  0.00117622  -0.01051058  -0.00015655  1
  Ti  Ti153  1  0.30176429  0.50183677  0.88005378  1
  Ti  Ti154  1  0.50370312  0.30732430  0.63985688  1
  Ti  Ti155  1  0.80655083  0.00190248  0.25403639  1
  Ti  Ti156  1  0.58391293  0.39482564  0.24917788  1
  Ti  Ti157  1  0.00037202  0.79582331  -0.00168376  1
  Ti  Ti158  1  0.80298090  0.80797786  0.50050130  1
  Ti  Ti159  1  0.39953764  0.40985274  0.24593894  1
  Mo  Mo160  1  0.20144027  -0.00274033  0.74708710  1
  Mo  Mo161  1  0.20744389  0.60349136  0.24147653  1
  Mo  Mo162  1  0.39749581  0.79992820  0.73219053  1
  Mo  Mo163  1  0.90264028  0.70182556  0.37260256  1
  Mo  Mo164  1  0.50883079  0.90843055  0.60908756  1
  Mo  Mo165  1  0.50416576  0.70183332  0.60391943  1
  Mo  Mo166  1  0.70116428  0.10781581  0.86211008  1
  Mo  Mo167  1  0.88814859  0.09011347  0.36851075  1
  Mo  Mo168  1  0.11646306  0.49386298  0.38426983  1
  Mo  Mo169  1  0.50251725  0.31955670  0.37425133  1
  Mo  Mo170  1  0.90165184  0.29746892  0.61510013  1
  Mo  Mo171  1  0.28947874  0.48983410  0.64072768  1
  Mo  Mo172  1  0.49430094  0.70623040  0.13647257  1
  Mo  Mo173  1  0.41124976  -0.01933014  0.74413429  1
  Mo  Mo174  1  0.68643878  0.49811613  0.86969712  1
  Mo  Mo175  1  0.79819367  0.40094972  0.74037818  1
  Mo  Mo176  1  0.41132831  0.00123580  0.25034569  1
  Mo  Mo177  1  -0.00831627  0.38383555  0.21987544  1
  Mo  Mo178  1  0.48836083  0.89461715  0.87693508  1
  Mo  Mo179  1  0.00978472  0.19937758  0.75453661  1
  Mo  Mo180  1  0.21898177  0.19520623  0.00530529  1
  Mo  Mo181  1  0.70375127  0.09493744  0.37468982  1
  Mo  Mo182  1  0.52770871  0.10794492  0.37214447  1
  Mo  Mo183  1  -0.01604458  -0.01822171  0.24385010  1
  Mo  Mo184  1  0.30146557  0.90976959  0.12780499  1
  Mo  Mo185  1  0.69623571  0.49779783  0.60383893  1
  Mo  Mo186  1  0.90646100  0.89597783  0.63364142  1
  Mo  Mo187  1  0.09775332  0.50512479  0.09814906  1
  Mo  Mo188  1  0.89741115  0.69792081  0.88296541  1
  Mo  Mo189  1  0.49734398  0.48901709  0.63038977  1
  Mo  Mo190  1  0.21289153  -0.00260452  0.00831557  1
  Mo  Mo191  1  0.79838795  0.38938715  0.01672529  1
  Mo  Mo192  1  0.39274605  0.40360866  0.50379345  1
  Mo  Mo193  1  0.58933805  0.59348172  0.26752868  1
  Mo  Mo194  1  0.60657997  0.00215127  0.74956454  1
  Mo  Mo195  1  0.59254146  0.60290561  0.00269737  1
  Mo  Mo196  1  0.29144422  0.70828464  0.62736523  1
  Mo  Mo197  1  0.70450831  0.89954863  0.61750474  1
  Mo  Mo198  1  0.60445492  0.21028999  0.24205648  1
  Mo  Mo199  1  0.70594910  0.10304637  0.12192285  1
