# generated using pymatgen
data_HfZrTaTiMo
_symmetry_space_group_name_H-M   'P 1'
_cell_length_a   15.21498183
_cell_length_b   15.20889455
_cell_length_c   16.86216735
_cell_angle_alpha   90.00378130
_cell_angle_beta   90.03445850
_cell_angle_gamma   89.89411272
_symmetry_Int_Tables_number   1
_chemical_formula_structural   HfZrTaTiMo
_chemical_formula_sum   'Hf40 Zr40 Ta40 Ti40 Mo40'
_cell_volume   3901.94964752
_cell_formula_units_Z   40
loop_
 _symmetry_equiv_pos_site_id
 _symmetry_equiv_pos_as_xyz
  1  'x, y, z'
loop_
 _atom_site_type_symbol
 _atom_site_label
 _atom_site_symmetry_multiplicity
 _atom_site_fract_x
 _atom_site_fract_y
 _atom_site_fract_z
 _atom_site_occupancy
  Hf  Hf0  1  0.48800810  0.10123572  0.88122453  1
  Hf  Hf1  1  0.49735807  0.48891347  0.87851904  1
  Hf  Hf2  1  -0.00301275  0.59645262  0.01165514  1
  Hf  Hf3  1  0.89232176  0.70992582  0.62794596  1
  Hf  Hf4  1  0.20499425  0.40112472  0.26141893  1
  Hf  Hf5  1  0.18561502  0.19201738  0.00764216  1
  Hf  Hf6  1  0.30060551  0.28907254  0.87264117  1
  Hf  Hf7  1  0.40565376  -0.00034881  0.25482537  1
  Hf  Hf8  1  0.58589282  0.19645012  0.74908194  1
  Hf  Hf9  1  0.21358096  0.19960397  0.74617637  1
  Hf  Hf10  1  0.39719963  0.79994430  0.24044247  1
  Hf  Hf11  1  0.60838958  0.58526502  -0.00833447  1
  Hf  Hf12  1  0.39316187  0.61360129  0.74972103  1
  Hf  Hf13  1  0.88431607  0.51108594  0.62883458  1
  Hf  Hf14  1  -0.00554274  0.40439325  0.49137493  1
  Hf  Hf15  1  0.39286390  -0.01319133  0.00994990  1
  Hf  Hf16  1  0.59258468  0.21275813  0.47863848  1
  Hf  Hf17  1  0.81155418  0.01572377  0.22928656  1
  Hf  Hf18  1  0.10437144  0.67088811  0.86135633  1
  Hf  Hf19  1  0.09247525  0.90603509  0.37244901  1
  Hf  Hf20  1  0.61436028  -0.01746683  0.24456706  1
  Hf  Hf21  1  0.31801018  0.88500240  0.86877682  1
  Hf  Hf22  1  0.60356688  0.80004727  0.00425649  1
  Hf  Hf23  1  0.52816999  0.88900116  0.38646155  1
  Hf  Hf24  1  0.29047290  0.08978586  0.13434122  1
  Hf  Hf25  1  0.48010314  0.70913347  0.88415456  1
  Hf  Hf26  1  0.39198960  0.19383338  0.00942481  1
  Hf  Hf27  1  0.40561465  0.01256936  0.74397874  1
  Hf  Hf28  1  0.40977413  0.77898959  0.50956164  1
  Hf  Hf29  1  0.80872478  0.20378571  0.50387508  1
  Hf  Hf30  1  0.60905178  0.59440222  0.76847060  1
  Hf  Hf31  1  0.89133742  0.70467048  0.35248120  1
  Hf  Hf32  1  0.71205633  0.08349576  0.38299860  1
  Hf  Hf33  1  0.48344627  0.69115897  0.36383857  1
  Hf  Hf34  1  0.90026265  0.31261325  0.62977229  1
  Hf  Hf35  1  0.00595491  0.19542147  0.50809930  1
  Hf  Hf36  1  0.28469220  0.51107491  0.87015632  1
  Hf  Hf37  1  0.58524461  0.59816858  0.48630425  1
  Hf  Hf38  1  0.90449175  0.10994312  0.88420117  1
  Hf  Hf39  1  0.10324378  0.88809265  0.63225622  1
  Zr  Zr40  1  0.50073818  0.29490833  0.61509405  1
  Zr  Zr41  1  -0.01148771  0.60702428  0.48951651  1
  Zr  Zr42  1  0.50442246  0.29278845  0.13932503  1
  Zr  Zr43  1  0.78915560  0.21212560  0.74092335  1
  Zr  Zr44  1  0.01131987  0.79305826  0.00199698  1
  Zr  Zr45  1  0.90472246  0.90943910  0.88484159  1
  Zr  Zr46  1  0.70109974  0.10477319  0.88623180  1
  Zr  Zr47  1  0.70534533  0.90032852  0.87789298  1
  Zr  Zr48  1  0.79239631  0.79490913  0.48919990  1
  Zr  Zr49  1  0.60411009  0.39523928  0.74756047  1
  Zr  Zr50  1  0.19738829  0.80012497  0.50225430  1
  Zr  Zr51  1  0.11325419  0.89411099  0.87127573  1
  Zr  Zr52  1  0.60644799  0.38983837  0.26645044  1
  Zr  Zr53  1  0.68923927  0.68079331  0.62435450  1
  Zr  Zr54  1  0.90130532  0.30331504  0.87217882  1
  Zr  Zr55  1  0.01700087  0.01230243  0.01849876  1
  Zr  Zr56  1  0.89335506  0.91143966  0.36423672  1
  Zr  Zr57  1  0.80755287  0.00355780  0.74062785  1
  Zr  Zr58  1  0.09939214  0.49610607  0.62236427  1
  Zr  Zr59  1  0.79420339  0.41797690  0.00090184  1
  Zr  Zr60  1  0.20916270  -0.00424351  0.74423466  1
  Zr  Zr61  1  -0.00075551  0.39366981  0.01469376  1
  Zr  Zr62  1  0.58869044  0.79560842  0.75628860  1
  Zr  Zr63  1  0.70676397  0.68434231  0.13060316  1
  Zr  Zr64  1  0.19914919  0.40197145  0.00519667  1
  Zr  Zr65  1  0.68643464  0.10155989  0.61002723  1
  Zr  Zr66  1  0.40391188  0.39558017  0.00517787  1
  Zr  Zr67  1  0.30390866  0.30650974  0.61678221  1
  Zr  Zr68  1  0.70851121  0.88793417  0.62776945  1
  Zr  Zr69  1  0.10376807  0.10375878  0.87149687  1
  Zr  Zr70  1  -0.00178761  0.00170658  0.51487497  1
  Zr  Zr71  1  0.50222970  0.50544980  0.62215845  1
  Zr  Zr72  1  0.41579887  0.39673504  0.47484032  1
  Zr  Zr73  1  0.79406852  0.21894693  0.24020358  1
  Zr  Zr74  1  0.49739829  0.68583409  0.12579999  1
  Zr  Zr75  1  0.30603156  0.89511697  0.37975345  1
  Zr  Zr76  1  -0.00956936  0.39786627  0.24128244  1
  Zr  Zr77  1  -0.01470833  0.79505577  0.75770647  1
  Zr  Zr78  1  0.09274097  0.28978771  0.36994253  1
  Zr  Zr79  1  0.50995801  0.90296264  0.61299720  1
  Ta  Ta80  1  0.68844276  0.10984854  0.11985954  1
  Ta  Ta81  1  0.78250345  0.81591907  0.23701302  1
  Ta  Ta82  1  -0.00061645  0.00749602  0.73537558  1
  Ta  Ta83  1  0.80712954  0.79836212  0.01112648  1
  Ta  Ta84  1  0.09983990  0.68871932  0.63495997  1
  Ta  Ta85  1  0.20413632  0.40297620  0.48195783  1
  Ta  Ta86  1  0.80591930  0.61920341  0.77148508  1
  Ta  Ta87  1  0.59753671  0.58987364  0.25659620  1
  Ta  Ta88  1  0.09710001  0.50988488  0.36898559  1
  Ta  Ta89  1  0.40108217  0.39978481  0.26254098  1
  Ta  Ta90  1  0.80514418  0.21108933  0.01829285  1
  Ta  Ta91  1  0.39448294  0.39366282  0.75011951  1
  Ta  Ta92  1  0.00045641  0.60274535  0.24805534  1
  Ta  Ta93  1  0.19455686  0.19125356  0.25721939  1
  Ta  Ta94  1  0.80099585  0.00119579  0.02180882  1
  Ta  Ta95  1  0.69103313  0.30955103  0.88602528  1
  Ta  Ta96  1  0.89581432  0.30021416  0.37205688  1
  Ta  Ta97  1  0.60019924  0.00418571  0.75104148  1
  Ta  Ta98  1  0.29794511  0.29717612  0.14145163  1
  Ta  Ta99  1  0.19696801  0.59992301  0.49300203  1
  Ta  Ta100  1  0.20482647  0.20082591  0.49098390  1
  Ta  Ta101  1  0.19359464  0.60593476  0.00781285  1
  Ta  Ta102  1  0.59727722  0.20997644  0.00355274  1
  Ta  Ta103  1  0.40115867  0.00098535  0.49531335  1
  Ta  Ta104  1  0.20093628  0.60442924  0.25465559  1
  Ta  Ta105  1  0.10801478  0.30247855  0.61976153  1
  Ta  Ta106  1  0.38517416  0.59813505  0.00376912  1
  Ta  Ta107  1  0.10682237  0.50957298  0.13682608  1
  Ta  Ta108  1  0.09399549  0.70705423  0.36448955  1
  Ta  Ta109  1  0.00446222  0.20051025  0.73651775  1
  Ta  Ta110  1  0.28577997  0.69629763  0.12857535  1
  Ta  Ta111  1  0.79394178  0.42033309  0.75977652  1
  Ta  Ta112  1  0.91906557  0.51176589  0.86951846  1
  Ta  Ta113  1  0.30950869  0.10563164  0.60916027  1
  Ta  Ta114  1  0.30162093  0.49933210  0.13070401  1
  Ta  Ta115  1  -0.00576575  0.19026056  0.23372016  1
  Ta  Ta116  1  -0.00402818  0.80106581  0.50293097  1
  Ta  Ta117  1  0.59900848  0.18528751  0.26437298  1
  Ta  Ta118  1  0.19382184  0.80306667  0.24884146  1
  Ta  Ta119  1  0.68577324  0.71196615  0.35889259  1
  Ti  Ti120  1  0.29744549  0.50085180  0.61848401  1
  Ti  Ti121  1  0.09339362  0.30354423  0.87298652  1
  Ti  Ti122  1  0.28980234  0.69755511  0.37378387  1
  Ti  Ti123  1  0.88513263  0.51117062  0.13668653  1
  Ti  Ti124  1  0.10225802  0.29417075  0.13447696  1
  Ti  Ti125  1  0.69399155  0.48615895  0.13486032  1
  Ti  Ti126  1  0.91261067  0.89460254  0.12860005  1
  Ti  Ti127  1  0.29776814  0.69080043  0.62060446  1
  Ti  Ti128  1  0.90094776  0.70262152  0.14192723  1
  Ti  Ti129  1  0.11263225  0.10359115  0.62710054  1
  Ti  Ti130  1  0.49677809  0.29634888  0.87510410  1
  Ti  Ti131  1  0.59935729  0.00384704  0.01057016  1
  Ti  Ti132  1  0.50648624  0.90656134  0.87813300  1
  Ti  Ti133  1  0.49970169  0.09125311  0.38170557  1
  Ti  Ti134  1  0.21052147  0.80186906  0.00242145  1
  Ti  Ti135  1  0.22061996  0.77813875  0.74931633  1
  Ti  Ti136  1  0.49912414  0.09874354  0.13157342  1
  Ti  Ti137  1  0.49429280  0.10204136  0.60730912  1
  Ti  Ti138  1  0.39395206  0.58927273  0.24429713  1
  Ti  Ti139  1  0.09534074  0.70785447  0.13777255  1
  Ti  Ti140  1  0.19628840  0.40397353  0.75068864  1
  Ti  Ti141  1  0.70116438  0.33197526  0.60516571  1
  Ti  Ti142  1  0.20106260  -0.00112200  0.25851347  1
  Ti  Ti143  1  0.71417007  0.31570239  0.38392534  1
  Ti  Ti144  1  0.30739433  0.90056771  0.62251845  1
  Ti  Ti145  1  0.78498970  0.58733152  0.48661317  1
  Ti  Ti146  1  0.30570469  0.51156296  0.37719781  1
  Ti  Ti147  1  0.00433924  0.40416152  0.75129598  1
  Ti  Ti148  1  0.39592787  0.20039783  0.26673353  1
  Ti  Ti149  1  0.29443460  0.10104024  0.38021456  1
  Ti  Ti150  1  0.88560752  0.49639664  0.36156492  1
  Ti  Ti151  1  0.12437771  0.90573546  0.12604734  1
  Ti  Ti152  1  0.19818510  0.00667965  0.49969028  1
  Ti  Ti153  1  0.50614265  0.89712724  0.12678230  1
  Ti  Ti154  1  0.01255452  0.00455576  0.23617818  1
  Ti  Ti155  1  0.50073612  0.49213496  0.12571637  1
  Ti  Ti156  1  0.80498129  0.61318392  -0.01856322  1
  Ti  Ti157  1  0.91862026  0.10657230  0.37003440  1
  Ti  Ti158  1  0.39317383  0.79364605  0.01754661  1
  Ti  Ti159  1  0.80866553  -0.00358087  0.51300270  1
  Mo  Mo160  1  0.39315547  0.19114933  0.48094568  1
  Mo  Mo161  1  0.90384543  0.89802668  0.62478961  1
  Mo  Mo162  1  0.70191113  0.90083812  0.11346150  1
  Mo  Mo163  1  0.29866550  0.29492087  0.36875419  1
  Mo  Mo164  1  0.10001578  0.09410549  0.37053562  1
  Mo  Mo165  1  0.79351683  0.79703166  0.75900953  1
  Mo  Mo166  1  0.37987383  0.59280568  0.50015004  1
  Mo  Mo167  1  -0.00312098  0.59160908  0.74784895  1
  Mo  Mo168  1  0.79785031  0.40690502  0.24679107  1
  Mo  Mo169  1  0.80385555  0.40852667  0.49331880  1
  Mo  Mo170  1  -0.00342857  0.20754615  0.01974196  1
  Mo  Mo171  1  0.29690248  0.89070899  0.13127076  1
  Mo  Mo172  1  0.70595841  0.50194455  0.62422059  1
  Mo  Mo173  1  0.90188127  0.10434269  0.12017748  1
  Mo  Mo174  1  0.79518738  0.59792545  0.25054222  1
  Mo  Mo175  1  0.10572329  0.09803236  0.13515501  1
  Mo  Mo176  1  0.60364969  0.78938232  0.49811239  1
  Mo  Mo177  1  0.69359175  0.30215807  0.12027071  1
  Mo  Mo178  1  0.70410214  0.70606136  0.88456276  1
  Mo  Mo179  1  0.61492274  0.40977316  0.47940048  1
  Mo  Mo180  1  0.49603114  0.50136786  0.36669817  1
  Mo  Mo181  1  -0.00013506  0.80820292  0.23761729  1
  Mo  Mo182  1  0.39980970  0.20252424  0.74861101  1
  Mo  Mo183  1  0.50233566  0.28859837  0.36148789  1
  Mo  Mo184  1  0.21204960  -0.00618800  -0.00310254  1
  Mo  Mo185  1  0.89741400  0.30894480  0.12428596  1
  Mo  Mo186  1  0.39309068  0.80443253  0.73200643  1
  Mo  Mo187  1  0.90153173  0.70605224  0.88327967  1
  Mo  Mo188  1  0.29641074  0.09132266  0.88646140  1
  Mo  Mo189  1  0.90293589  0.10677288  0.62994483  1
  Mo  Mo190  1  0.59767947  0.79489103  0.23992096  1
  Mo  Mo191  1  0.60785048  0.00163966  0.49712565  1
  Mo  Mo192  1  0.20200928  0.59229106  0.73770250  1
  Mo  Mo193  1  0.71322766  0.89690386  0.37232484  1
  Mo  Mo194  1  0.71079892  0.49867665  0.87832439  1
  Mo  Mo195  1  0.70386057  0.50972320  0.36883650  1
  Mo  Mo196  1  0.29438220  0.70222608  0.88416327  1
  Mo  Mo197  1  0.09759496  0.48431549  0.87168769  1
  Mo  Mo198  1  0.59908293  0.39501974  0.00570280  1
  Mo  Mo199  1  0.49201681  0.69648819  0.62975168  1
