# generated using pymatgen
data_HfZrTaTiMo
_symmetry_space_group_name_H-M   'P 1'
_cell_length_a   15.20386838
_cell_length_b   15.19739638
_cell_length_c   16.83824835
_cell_angle_alpha   89.95077344
_cell_angle_beta   89.99660623
_cell_angle_gamma   90.09633643
_symmetry_Int_Tables_number   1
_chemical_formula_structural   HfZrTaTiMo
_chemical_formula_sum   'Hf40 Zr40 Ta40 Ti40 Mo40'
_cell_volume   3890.62548985
_cell_formula_units_Z   40
loop_
 _symmetry_equiv_pos_site_id
 _symmetry_equiv_pos_as_xyz
  1  'x, y, z'
loop_
 _atom_site_type_symbol
 _atom_site_label
 _atom_site_symmetry_multiplicity
 _atom_site_fract_x
 _atom_site_fract_y
 _atom_site_fract_z
 _atom_site_occupancy
  Hf  Hf0  1  0.39524083  -0.01380799  0.25817091  1
  Hf  Hf1  1  0.10894124  0.89095764  0.86954023  1
  Hf  Hf2  1  0.49494285  0.89759356  0.12809239  1
  Hf  Hf3  1  0.31742502  0.09530814  0.61069085  1
  Hf  Hf4  1  0.00360448  0.59041849  0.03571286  1
  Hf  Hf5  1  0.80085336  0.18837099  0.00532698  1
  Hf  Hf6  1  0.28184793  0.88169605  0.12596662  1
  Hf  Hf7  1  0.69103183  0.69324874  0.37378960  1
  Hf  Hf8  1  0.28168728  0.49191008  0.87506359  1
  Hf  Hf9  1  0.58582692  0.60984019  0.51905871  1
  Hf  Hf10  1  0.20999988  0.60754618  0.01361985  1
  Hf  Hf11  1  0.09620522  0.50345487  0.60462700  1
  Hf  Hf12  1  0.17287189  0.58651495  0.74712723  1
  Hf  Hf13  1  0.30874996  0.09963618  0.88745940  1
  Hf  Hf14  1  0.59463668  0.80078378  0.25494262  1
  Hf  Hf15  1  0.19292715  0.18923185  0.47922107  1
  Hf  Hf16  1  0.90165087  0.91991145  0.12353183  1
  Hf  Hf17  1  0.00138220  0.61193867  0.23470437  1
  Hf  Hf18  1  0.09497380  0.50345983  0.37101875  1
  Hf  Hf19  1  0.18691387  -0.00242763  0.26601229  1
  Hf  Hf20  1  0.69945381  0.90819744  0.38073069  1
  Hf  Hf21  1  0.79060227  0.00938587  0.74720122  1
  Hf  Hf22  1  0.30371222  0.08549263  0.11923525  1
  Hf  Hf23  1  0.80392868  0.62254745  0.01969288  1
  Hf  Hf24  1  0.89634763  0.29450508  0.62034007  1
  Hf  Hf25  1  0.20697208  0.79936934  0.48727404  1
  Hf  Hf26  1  0.29223080  0.28984063  0.61947246  1
  Hf  Hf27  1  0.61895956  0.20114535  0.74465257  1
  Hf  Hf28  1  0.88783960  0.29026718  0.14029959  1
  Hf  Hf29  1  0.60488366  0.40940181  0.73849345  1
  Hf  Hf30  1  0.39104738  0.39248464  0.75478403  1
  Hf  Hf31  1  0.10867517  0.89903700  0.62128976  1
  Hf  Hf32  1  0.80510296  0.80525236  0.24422814  1
  Hf  Hf33  1  0.79611689  0.60276396  0.23742241  1
  Hf  Hf34  1  0.50500866  0.29144369  0.87415662  1
  Hf  Hf35  1  0.88939009  0.89954758  0.87791528  1
  Hf  Hf36  1  -0.00023333  0.01094564  -0.00676736  1
  Hf  Hf37  1  0.00700019  0.00301310  0.75315851  1
  Hf  Hf38  1  0.01442929  0.21331495  0.75340610  1
  Hf  Hf39  1  -0.00214643  0.42352712  0.75057199  1
  Zr  Zr40  1  0.69583775  0.90686011  0.61821432  1
  Zr  Zr41  1  0.49097648  0.68381415  0.12797112  1
  Zr  Zr42  1  0.90855588  0.70903109  0.37079176  1
  Zr  Zr43  1  0.89462489  0.30320091  0.36088088  1
  Zr  Zr44  1  0.08379787  0.67811153  0.88391536  1
  Zr  Zr45  1  0.87092624  0.70106859  0.87348686  1
  Zr  Zr46  1  0.42061434  0.19267922  0.24625767  1
  Zr  Zr47  1  0.67671422  0.30782391  0.11580020  1
  Zr  Zr48  1  0.90392126  0.90126251  0.62545554  1
  Zr  Zr49  1  0.80844305  0.79924354  0.50135807  1
  Zr  Zr50  1  0.70010621  0.10872448  0.13524100  1
  Zr  Zr51  1  0.50453294  0.48034664  0.11891674  1
  Zr  Zr52  1  0.69673097  0.11064672  0.37396539  1
  Zr  Zr53  1  0.89803966  0.31345993  0.88170849  1
  Zr  Zr54  1  0.78863766  0.59635434  0.51002820  1
  Zr  Zr55  1  0.68835410  0.30674213  0.37572142  1
  Zr  Zr56  1  0.38397258  0.78837881  -0.00449120  1
  Zr  Zr57  1  0.28756013  0.70201189  0.85075883  1
  Zr  Zr58  1  0.21432354  0.60672079  0.24501587  1
  Zr  Zr59  1  0.30341038  0.89166399  0.63310748  1
  Zr  Zr60  1  0.59295060  0.80039340  -0.01054196  1
  Zr  Zr61  1  -0.00969684  0.79600612  0.01096173  1
  Zr  Zr62  1  0.20408448  0.19900899  0.25308038  1
  Zr  Zr63  1  0.00678493  0.01052275  0.49464978  1
  Zr  Zr64  1  0.49104227  0.28220123  0.62679393  1
  Zr  Zr65  1  0.89807364  0.11015048  0.86662977  1
  Zr  Zr66  1  0.71401848  0.50915470  0.87639256  1
  Zr  Zr67  1  0.30799001  0.89753597  0.86084885  1
  Zr  Zr68  1  0.80677610  0.58965539  0.73229635  1
  Zr  Zr69  1  0.30836803  0.30044378  0.11816374  1
  Zr  Zr70  1  0.10978729  0.10692558  0.62466269  1
  Zr  Zr71  1  0.30606848  0.68417854  0.63983774  1
  Zr  Zr72  1  0.00687345  0.20583949  0.01535750  1
  Zr  Zr73  1  -0.00045949  0.78146333  0.74710583  1
  Zr  Zr74  1  0.09268965  0.30604716  0.60918385  1
  Zr  Zr75  1  0.20203878  0.40031192  0.48383118  1
  Zr  Zr76  1  0.40916716  0.77976932  0.49566428  1
  Zr  Zr77  1  0.40377256  0.39833145  -0.00946380  1
  Zr  Zr78  1  0.59599673  0.40731364  0.51846324  1
  Zr  Zr79  1  0.10523216  0.31716356  0.89070849  1
  Ta  Ta80  1  0.40536131  0.59740797  -0.01626285  1
  Ta  Ta81  1  0.49457107  0.70081824  0.85720396  1
  Ta  Ta82  1  0.20997495  0.01505661  0.75176259  1
  Ta  Ta83  1  0.79421033  0.38527825  0.73901073  1
  Ta  Ta84  1  0.40965130  -0.00898156  -0.00077534  1
  Ta  Ta85  1  0.20369963  0.80378946  0.27067517  1
  Ta  Ta86  1  0.39381689  0.78217068  0.26132556  1
  Ta  Ta87  1  0.20283963  0.39883138  0.24685612  1
  Ta  Ta88  1  0.11983041  0.72649925  0.12843977  1
  Ta  Ta89  1  0.69151339  0.50746981  0.11670246  1
  Ta  Ta90  1  0.60588487  0.61631705  0.73871307  1
  Ta  Ta91  1  0.59667031  0.81309207  0.75696139  1
  Ta  Ta92  1  0.50096225  0.90434923  0.62068273  1
  Ta  Ta93  1  0.70109975  0.10738939  0.61418981  1
  Ta  Ta94  1  0.30911531  0.49340138  0.36947190  1
  Ta  Ta95  1  0.11758708  0.10929414  0.87521269  1
  Ta  Ta96  1  0.89346196  0.50038218  0.37243878  1
  Ta  Ta97  1  -0.00243423  0.60712226  0.49236497  1
  Ta  Ta98  1  0.30962589  0.09272382  0.38403324  1
  Ta  Ta99  1  0.69803780  0.90406572  0.88037077  1
  Ta  Ta100  1  0.40967294  -0.00854298  0.49334772  1
  Ta  Ta101  1  0.80510147  0.01358418  0.49706237  1
  Ta  Ta102  1  0.29422523  0.28513137  0.88389041  1
  Ta  Ta103  1  0.59740356  0.80058642  0.50059522  1
  Ta  Ta104  1  0.59843417  0.60069367  -0.01172535  1
  Ta  Ta105  1  0.78861260  0.41081862  0.24128049  1
  Ta  Ta106  1  0.59201993  0.00884813  0.24878516  1
  Ta  Ta107  1  0.80256281  0.00586652  0.25308731  1
  Ta  Ta108  1  0.91897560  0.50912931  0.88784765  1
  Ta  Ta109  1  0.80773590  0.41330583  0.01333906  1
  Ta  Ta110  1  0.90251496  0.10421366  0.36215302  1
  Ta  Ta111  1  0.69747259  0.90773548  0.11985536  1
  Ta  Ta112  1  0.50107211  0.49929941  0.37556177  1
  Ta  Ta113  1  0.60115109  0.01254082  0.00109946  1
  Ta  Ta114  1  0.70319531  0.30436073  0.88579567  1
  Ta  Ta115  1  0.00273187  0.40626888  0.23357684  1
  Ta  Ta116  1  0.40312778  0.39536959  0.25295219  1
  Ta  Ta117  1  0.19190771  0.38382680  0.74910292  1
  Ta  Ta118  1  0.79837207  0.39899238  0.50463426  1
  Ta  Ta119  1  0.59559857  0.00581415  0.75221501  1
  Ti  Ti120  1  0.01282820  0.82154137  0.24360447  1
  Ti  Ti121  1  0.78236735  0.79104835  0.73988761  1
  Ti  Ti122  1  0.39661874  0.58441893  0.50127599  1
  Ti  Ti123  1  0.59088115  0.19244347  0.50980326  1
  Ti  Ti124  1  0.50538486  0.09855274  0.38288353  1
  Ti  Ti125  1  0.48124885  0.51506515  0.64044167  1
  Ti  Ti126  1  0.69964641  0.10469086  0.87930200  1
  Ti  Ti127  1  0.09993115  0.70479014  0.37588224  1
  Ti  Ti128  1  0.90467789  0.49389839  0.61033689  1
  Ti  Ti129  1  0.09243265  0.08307631  0.13064722  1
  Ti  Ti130  1  0.19670466  0.19591143  0.01455586  1
  Ti  Ti131  1  0.31366953  0.50842951  0.13012350  1
  Ti  Ti132  1  0.90917328  0.69608377  0.61907628  1
  Ti  Ti133  1  0.50030647  0.89627121  0.37857153  1
  Ti  Ti134  1  -0.00803812  0.20631045  0.48750186  1
  Ti  Ti135  1  0.29358468  0.48947603  0.62777521  1
  Ti  Ti136  1  0.90566462  0.90689082  0.37455610  1
  Ti  Ti137  1  0.00467029  0.19004317  0.24371190  1
  Ti  Ti138  1  0.39682771  0.18496111  0.75393573  1
  Ti  Ti139  1  0.10103705  0.70199702  0.61460212  1
  Ti  Ti140  1  0.41376106  -0.00345758  0.74991014  1
  Ti  Ti141  1  0.79942977  0.20162003  0.49735232  1
  Ti  Ti142  1  0.89944374  0.10513773  0.62841573  1
  Ti  Ti143  1  0.68951477  0.71094326  0.12607105  1
  Ti  Ti144  1  0.39977364  0.39618772  0.50133065  1
  Ti  Ti145  1  0.49705104  0.29559854  0.38461395  1
  Ti  Ti146  1  0.31329242  0.68487334  0.37566132  1
  Ti  Ti147  1  0.69674398  0.49712793  0.37455951  1
  Ti  Ti148  1  0.30985912  0.29653061  0.37439916  1
  Ti  Ti149  1  0.20693499  0.60183999  0.49341128  1
  Ti  Ti150  1  0.19860053  -0.01085949  -0.00140794  1
  Ti  Ti151  1  0.00376552  0.40260765  0.03068999  1
  Ti  Ti152  1  0.50588317  0.50276058  0.86486690  1
  Ti  Ti153  1  0.09001113  0.30244387  0.36591972  1
  Ti  Ti154  1  0.50645236  0.09411386  0.87644271  1
  Ti  Ti155  1  0.58989411  0.39125306  0.25214678  1
  Ti  Ti156  1  0.19111766  0.40582682  0.02318395  1
  Ti  Ti157  1  0.42138489  0.18864968  0.01013513  1
  Ti  Ti158  1  0.09393693  0.90147474  0.38713558  1
  Ti  Ti159  1  0.59442314  0.58882832  0.25152938  1
  Mo  Mo160  1  0.78612459  0.81326345  0.01063713  1
  Mo  Mo161  1  0.50461659  0.09234580  0.12118299  1
  Mo  Mo162  1  -0.01314640  0.40392237  0.48435045  1
  Mo  Mo163  1  0.30434625  0.89442648  0.37866498  1
  Mo  Mo164  1  0.69233881  0.70646532  0.87067227  1
  Mo  Mo165  1  0.21344044  0.20149665  0.75525813  1
  Mo  Mo166  1  0.89386693  0.49830796  0.13273102  1
  Mo  Mo167  1  0.00740802  0.79429033  0.50052321  1
  Mo  Mo168  1  0.50570969  0.08676256  0.62253814  1
  Mo  Mo169  1  0.79560991  0.20503169  0.25214032  1
  Mo  Mo170  1  0.69966236  0.49733594  0.62948203  1
  Mo  Mo171  1  0.90378494  0.71594384  0.13790829  1
  Mo  Mo172  1  0.90021488  0.09850083  0.14162023  1
  Mo  Mo173  1  -0.00792418  0.59694984  0.74206089  1
  Mo  Mo174  1  0.79920974  0.20377449  0.74754336  1
  Mo  Mo175  1  0.59261284  0.20364429  0.25520428  1
  Mo  Mo176  1  0.70384311  0.29500978  0.61269863  1
  Mo  Mo177  1  0.79226153  -0.00200302  -0.00186575  1
  Mo  Mo178  1  0.50375870  0.29112848  0.11857143  1
  Mo  Mo179  1  0.40275668  0.58586902  0.76075715  1
  Mo  Mo180  1  0.09344436  0.10821307  0.37174230  1
  Mo  Mo181  1  0.20952583  -0.00496520  0.48266776  1
  Mo  Mo182  1  0.11492076  0.49857668  0.13780529  1
  Mo  Mo183  1  0.30806879  0.69758691  0.13095666  1
  Mo  Mo184  1  0.69835723  0.70976109  0.62717610  1
  Mo  Mo185  1  0.09343937  0.49445019  0.88979882  1
  Mo  Mo186  1  0.41211736  0.80034097  0.74547901  1
  Mo  Mo187  1  0.19365853  0.80224076  0.73805437  1
  Mo  Mo188  1  0.60682143  0.40899637  -0.01672683  1
  Mo  Mo189  1  0.19175302  0.80081191  -0.00147302  1
  Mo  Mo190  1  0.40374622  0.20025869  0.48775870  1
  Mo  Mo191  1  0.59801094  -0.00012337  0.49757350  1
  Mo  Mo192  1  0.49780957  0.70909338  0.64352458  1
  Mo  Mo193  1  0.59906785  0.19868060  -0.01075946  1
  Mo  Mo194  1  0.10239209  0.29708420  0.13467379  1
  Mo  Mo195  1  -0.00148884  -0.00092019  0.26132728  1
  Mo  Mo196  1  0.50283724  0.91095492  0.87477066  1
  Mo  Mo197  1  0.10346428  0.91073850  0.12602654  1
  Mo  Mo198  1  0.40836761  0.58594001  0.25704771  1
  Mo  Mo199  1  0.50225835  0.68846226  0.37125576  1
