# generated using pymatgen
data_HfZrTaTiMo
_symmetry_space_group_name_H-M   'P 1'
_cell_length_a   15.21988390
_cell_length_b   15.21870205
_cell_length_c   16.83452337
_cell_angle_alpha   89.97522171
_cell_angle_beta   89.98311841
_cell_angle_gamma   90.04950221
_symmetry_Int_Tables_number   1
_chemical_formula_structural   HfZrTaTiMo
_chemical_formula_sum   'Hf40 Zr40 Ta40 Ti40 Mo40'
_cell_volume   3899.32610508
_cell_formula_units_Z   40
loop_
 _symmetry_equiv_pos_site_id
 _symmetry_equiv_pos_as_xyz
  1  'x, y, z'
loop_
 _atom_site_type_symbol
 _atom_site_label
 _atom_site_symmetry_multiplicity
 _atom_site_fract_x
 _atom_site_fract_y
 _atom_site_fract_z
 _atom_site_occupancy
  Hf  Hf0  1  0.60138058  0.41405843  -0.00100450  1
  Hf  Hf1  1  0.49433191  0.88840174  0.87606435  1
  Hf  Hf2  1  0.19141234  0.37846894  -0.01583489  1
  Hf  Hf3  1  0.38787372  0.20984725  -0.01384150  1
  Hf  Hf4  1  0.60361614  0.80547175  0.23441484  1
  Hf  Hf5  1  0.09850501  0.70211533  0.63671678  1
  Hf  Hf6  1  0.89874439  0.90412055  0.63688983  1
  Hf  Hf7  1  0.78911972  0.81847955  0.49977696  1
  Hf  Hf8  1  0.20226317  0.59343175  0.50089972  1
  Hf  Hf9  1  0.09854838  0.10004267  0.12113906  1
  Hf  Hf10  1  0.29502962  0.29883759  0.63553169  1
  Hf  Hf11  1  0.59679365  0.79026896  0.00916354  1
  Hf  Hf12  1  0.30026816  0.50305076  0.64346329  1
  Hf  Hf13  1  0.09374975  0.49150038  0.13339795  1
  Hf  Hf14  1  0.40739790  0.79956758  0.50790158  1
  Hf  Hf15  1  -0.01420278  0.58693519  -0.00022226  1
  Hf  Hf16  1  0.50381941  0.50176631  0.62653963  1
  Hf  Hf17  1  -0.00403230  0.80037833  0.49366475  1
  Hf  Hf18  1  0.29922633  0.89038882  0.37865028  1
  Hf  Hf19  1  0.00190377  0.40010298  0.50651037  1
  Hf  Hf20  1  0.19552685  0.58646008  -0.01692360  1
  Hf  Hf21  1  -0.01732860  0.00095932  0.48901522  1
  Hf  Hf22  1  0.29575263  0.09348622  0.61476907  1
  Hf  Hf23  1  0.39318862  0.19600356  0.76448876  1
  Hf  Hf24  1  0.80924828  0.19093378  0.00855669  1
  Hf  Hf25  1  0.09988409  0.70437985  0.11104825  1
  Hf  Hf26  1  0.00347488  0.61943330  0.25819435  1
  Hf  Hf27  1  0.69446151  0.89773307  0.87084751  1
  Hf  Hf28  1  0.68905963  0.70929494  0.62687610  1
  Hf  Hf29  1  0.92719409  0.32085539  0.87633495  1
  Hf  Hf30  1  0.49798334  0.09327592  0.61664196  1
  Hf  Hf31  1  0.71820101  0.30372594  0.87644368  1
  Hf  Hf32  1  0.50994233  0.09141422  0.88307475  1
  Hf  Hf33  1  0.69426068  0.69883228  0.87070028  1
  Hf  Hf34  1  0.10405775  0.30759264  0.35984277  1
  Hf  Hf35  1  0.89410813  0.69390885  0.86687341  1
  Hf  Hf36  1  0.00364478  0.20484971  0.49200617  1
  Hf  Hf37  1  -0.01459247  0.81367445  0.26003580  1
  Hf  Hf38  1  0.81767478  0.41321570  0.00723387  1
  Hf  Hf39  1  0.40408539  0.21196479  0.24792375  1
  Zr  Zr40  1  0.60832091  0.19778417  0.75038301  1
  Zr  Zr41  1  0.49809139  0.70806748  0.37181468  1
  Zr  Zr42  1  0.50699683  0.09832665  0.37743546  1
  Zr  Zr43  1  0.39387935  0.00050875  0.23228032  1
  Zr  Zr44  1  0.60946350  0.60010874  0.24751593  1
  Zr  Zr45  1  0.50016787  0.90218151  0.36598532  1
  Zr  Zr46  1  0.88948427  0.91072516  0.86296250  1
  Zr  Zr47  1  0.70388226  0.50049075  0.38524451  1
  Zr  Zr48  1  0.30712311  0.09169472  0.38897180  1
  Zr  Zr49  1  0.49906408  0.30994267  0.37532912  1
  Zr  Zr50  1  0.90806349  0.31386040  0.14976847  1
  Zr  Zr51  1  0.09493036  0.89809086  0.88586020  1
  Zr  Zr52  1  0.30833745  0.69876643  0.10249040  1
  Zr  Zr53  1  0.51265220  0.31132385  0.86883323  1
  Zr  Zr54  1  0.60717822  0.19951479  0.00244405  1
  Zr  Zr55  1  0.60642306  -0.02671701  0.50109136  1
  Zr  Zr56  1  0.82396029  0.41136922  0.73417655  1
  Zr  Zr57  1  0.19458918  -0.01356136  0.24708699  1
  Zr  Zr58  1  0.10997184  0.50523330  0.36910910  1
  Zr  Zr59  1  0.08428204  0.89852426  0.11418645  1
  Zr  Zr60  1  0.89860583  0.50253433  0.36806915  1
  Zr  Zr61  1  0.30510958  0.47579313  0.12029418  1
  Zr  Zr62  1  0.41912424  0.59644707  -0.01535957  1
  Zr  Zr63  1  0.61314195  0.19974360  0.49112098  1
  Zr  Zr64  1  0.60894869  0.01199928  0.22808289  1
  Zr  Zr65  1  0.50148528  0.30228894  0.62913335  1
  Zr  Zr66  1  0.09706917  0.49749009  0.63545983  1
  Zr  Zr67  1  0.49646865  0.50831992  0.38071993  1
  Zr  Zr68  1  0.19580693  0.79084673  0.50196908  1
  Zr  Zr69  1  0.21090953  0.60370892  0.24564180  1
  Zr  Zr70  1  0.00676333  0.22102346  0.01241079  1
  Zr  Zr71  1  0.71177239  0.29914555  0.61862725  1
  Zr  Zr72  1  0.81484112  0.20113707  0.75284433  1
  Zr  Zr73  1  0.90369329  0.10603576  0.62717409  1
  Zr  Zr74  1  0.10482842  0.10785154  0.88790725  1
  Zr  Zr75  1  0.48998331  0.31378579  0.12351326  1
  Zr  Zr76  1  0.38508425  -0.00375263  0.76200545  1
  Zr  Zr77  1  0.49951667  0.88795423  0.64635138  1
  Zr  Zr78  1  0.70018473  0.29599697  0.14195641  1
  Zr  Zr79  1  0.21271554  0.19180322  0.25652208  1
  Ta  Ta80  1  0.79892438  -0.01457205  0.01395907  1
  Ta  Ta81  1  0.00817918  0.01324340  0.75084041  1
  Ta  Ta82  1  0.89525754  0.69394791  0.62162666  1
  Ta  Ta83  1  0.00112866  0.19209755  0.25342307  1
  Ta  Ta84  1  0.70807067  0.09080123  0.62130604  1
  Ta  Ta85  1  0.71388724  0.69922174  0.12414524  1
  Ta  Ta86  1  0.29152673  0.89693967  0.62676950  1
  Ta  Ta87  1  0.70851016  0.50502437  0.87414607  1
  Ta  Ta88  1  0.28567403  0.89289905  0.10035111  1
  Ta  Ta89  1  0.11815145  0.30397031  0.14349823  1
  Ta  Ta90  1  0.61777205  0.41404741  0.74761095  1
  Ta  Ta91  1  0.20603051  0.39107449  0.50182051  1
  Ta  Ta92  1  0.71449882  0.08839503  0.88014746  1
  Ta  Ta93  1  -0.02612981  0.79898446  -0.00340654  1
  Ta  Ta94  1  0.40170281  0.00137300  0.00380961  1
  Ta  Ta95  1  0.39440903  0.21028698  0.49913819  1
  Ta  Ta96  1  0.39629229  0.40487449  -0.02390247  1
  Ta  Ta97  1  0.01862408  0.22095909  0.73898433  1
  Ta  Ta98  1  0.70161782  0.90514418  0.64540878  1
  Ta  Ta99  1  0.48586757  0.88884655  0.11521286  1
  Ta  Ta100  1  0.60641647  -0.00297131  0.01699453  1
  Ta  Ta101  1  0.39208491  0.40536083  0.50589419  1
  Ta  Ta102  1  0.29774753  0.10477384  0.11001639  1
  Ta  Ta103  1  0.89140173  0.30212425  0.35664123  1
  Ta  Ta104  1  0.40453909  0.59909144  0.24182312  1
  Ta  Ta105  1  0.29223916  0.89807609  0.89813870  1
  Ta  Ta106  1  0.18715392  0.38196235  0.76059134  1
  Ta  Ta107  1  0.59470333  0.61622665  0.50504709  1
  Ta  Ta108  1  0.09847401  0.09483579  0.37503397  1
  Ta  Ta109  1  0.29955022  0.68890021  0.37222185  1
  Ta  Ta110  1  0.39326243  0.60292042  0.50750983  1
  Ta  Ta111  1  0.71890197  0.07703524  0.37183337  1
  Ta  Ta112  1  0.07427302  0.48741811  0.86252388  1
  Ta  Ta113  1  0.89142100  0.51427233  0.15017506  1
  Ta  Ta114  1  0.00186870  0.79828801  0.74939084  1
  Ta  Ta115  1  0.81072989  0.19358311  0.48270174  1
  Ta  Ta116  1  0.70851422  0.50921039  0.60547581  1
  Ta  Ta117  1  0.38645852  0.79301408  0.23708232  1
  Ta  Ta118  1  0.48907854  0.69543379  0.64209801  1
  Ta  Ta119  1  0.18767667  -0.00548883  0.50045770  1
  Ti  Ti120  1  0.20035497  0.18678912  0.75646358  1
  Ti  Ti121  1  0.69862360  0.70886005  0.38018128  1
  Ti  Ti122  1  0.89599004  0.08995564  0.13445881  1
  Ti  Ti123  1  0.80148337  -0.02607204  0.23790753  1
  Ti  Ti124  1  0.79426330  0.59637727  0.74050642  1
  Ti  Ti125  1  0.79854003  0.79516202  0.74526328  1
  Ti  Ti126  1  0.60142248  0.59694573  0.74833528  1
  Ti  Ti127  1  0.19136945  0.79224555  0.25296594  1
  Ti  Ti128  1  0.10394729  0.09986619  0.62228356  1
  Ti  Ti129  1  0.60733926  0.59850806  0.00623650  1
  Ti  Ti130  1  0.89552465  0.71262310  0.12921321  1
  Ti  Ti131  1  0.40642145  0.40545391  0.76348390  1
  Ti  Ti132  1  0.59900944  0.39545173  0.25511909  1
  Ti  Ti133  1  0.60505718  0.00443457  0.75188232  1
  Ti  Ti134  1  -0.01599167  0.00615049  0.00192576  1
  Ti  Ti135  1  0.09266773  0.69793532  0.87396139  1
  Ti  Ti136  1  0.39892533  0.60066647  0.76349685  1
  Ti  Ti137  1  0.09537728  0.89771339  0.37498253  1
  Ti  Ti138  1  0.79340430  0.18243464  0.25358934  1
  Ti  Ti139  1  0.79690985  0.60699156  0.00351435  1
  Ti  Ti140  1  0.19773121  -0.00107926  0.75627849  1
  Ti  Ti141  1  0.30692808  0.48557489  0.36909390  1
  Ti  Ti142  1  0.90550692  0.10635355  0.87305948  1
  Ti  Ti143  1  0.50030547  0.70148771  0.85999725  1
  Ti  Ti144  1  0.50203301  0.11033125  0.11879363  1
  Ti  Ti145  1  0.29552372  0.49394220  0.86356856  1
  Ti  Ti146  1  0.80715290  0.39154253  0.49930503  1
  Ti  Ti147  1  0.88582206  0.70667637  0.37748414  1
  Ti  Ti148  1  0.09918276  0.90663451  0.63208724  1
  Ti  Ti149  1  0.19861760  0.20265364  0.49322458  1
  Ti  Ti150  1  0.29994652  0.70232856  0.64183184  1
  Ti  Ti151  1  0.60173544  0.40086206  0.49969295  1
  Ti  Ti152  1  -0.01749402  0.59027281  0.74561131  1
  Ti  Ti153  1  0.50295268  0.50570528  0.12829325  1
  Ti  Ti154  1  0.70803532  0.50016538  0.13537717  1
  Ti  Ti155  1  0.29960091  0.71020997  0.88010323  1
  Ti  Ti156  1  0.20183370  0.80593881  0.75934799  1
  Ti  Ti157  1  0.19511865  0.60373867  0.76548475  1
  Ti  Ti158  1  -0.01162882  0.00255225  0.25968244  1
  Ti  Ti159  1  -0.00233429  0.60832202  0.49361012  1
  Mo  Mo160  1  0.89047580  0.50837087  0.87131004  1
  Mo  Mo161  1  0.51489756  0.50948522  0.86400332  1
  Mo  Mo162  1  0.20301672  0.19957453  0.00407145  1
  Mo  Mo163  1  0.00331078  0.40169099  0.25402656  1
  Mo  Mo164  1  0.79866690  0.00671994  0.75402977  1
  Mo  Mo165  1  0.70882249  0.09769781  0.12635827  1
  Mo  Mo166  1  0.89543600  0.89785583  0.12415202  1
  Mo  Mo167  1  0.38010277  0.79008517  0.75694802  1
  Mo  Mo168  1  0.90040456  0.10110174  0.36112042  1
  Mo  Mo169  1  0.59526496  0.79445780  0.75475549  1
  Mo  Mo170  1  0.89620706  0.51204386  0.60580626  1
  Mo  Mo171  1  0.29738423  0.29784066  0.85892063  1
  Mo  Mo172  1  0.70379092  0.89187529  0.11720166  1
  Mo  Mo173  1  0.21959397  0.39309336  0.25205017  1
  Mo  Mo174  1  0.50203264  0.69336871  0.12756642  1
  Mo  Mo175  1  0.29922738  0.29698507  0.12006158  1
  Mo  Mo176  1  0.00545172  0.41306792  0.00951251  1
  Mo  Mo177  1  0.80084631  0.61598120  0.25131704  1
  Mo  Mo178  1  0.79488154  0.79249843  0.25562311  1
  Mo  Mo179  1  0.30262485  0.30503177  0.38483902  1
  Mo  Mo180  1  0.79000509  0.40803179  0.25420279  1
  Mo  Mo181  1  0.10033461  0.29739659  0.87126416  1
  Mo  Mo182  1  0.40317322  0.40963308  0.25020840  1
  Mo  Mo183  1  0.60790936  0.20132819  0.26089363  1
  Mo  Mo184  1  0.18685746  0.78911364  -0.01345247  1
  Mo  Mo185  1  0.10096449  0.70754205  0.37667470  1
  Mo  Mo186  1  0.79606850  0.00815582  0.50116011  1
  Mo  Mo187  1  0.19736224  0.00180329  0.00513465  1
  Mo  Mo188  1  0.79942748  0.79235673  -0.00150648  1
  Mo  Mo189  1  0.70605899  0.29327811  0.36131448  1
  Mo  Mo190  1  0.39981628  0.79716867  -0.00334501  1
  Mo  Mo191  1  0.90912321  0.30144040  0.61221002  1
  Mo  Mo192  1  0.59792965  0.79501742  0.50546149  1
  Mo  Mo193  1  0.00063733  0.40104067  0.73192588  1
  Mo  Mo194  1  0.87824075  0.91080564  0.37288393  1
  Mo  Mo195  1  0.29614778  0.08914046  0.88882111  1
  Mo  Mo196  1  0.70244586  0.89287523  0.36639430  1
  Mo  Mo197  1  0.80332431  0.61179025  0.50119964  1
  Mo  Mo198  1  0.11067543  0.28807997  0.61994847  1
  Mo  Mo199  1  0.38886793  -0.00477300  0.50947546  1
