# generated using pymatgen
data_HfZrTaTiMo
_symmetry_space_group_name_H-M   'P 1'
_cell_length_a   15.21020679
_cell_length_b   15.21141417
_cell_length_c   16.82693614
_cell_angle_alpha   90.00109280
_cell_angle_beta   90.00272734
_cell_angle_gamma   89.95372874
_symmetry_Int_Tables_number   1
_chemical_formula_structural   HfZrTaTiMo
_chemical_formula_sum   'Hf40 Zr40 Ta40 Ti40 Mo40'
_cell_volume   3893.22599354
_cell_formula_units_Z   40
loop_
 _symmetry_equiv_pos_site_id
 _symmetry_equiv_pos_as_xyz
  1  'x, y, z'
loop_
 _atom_site_type_symbol
 _atom_site_label
 _atom_site_symmetry_multiplicity
 _atom_site_fract_x
 _atom_site_fract_y
 _atom_site_fract_z
 _atom_site_occupancy
  Hf  Hf0  1  0.80703185  0.79623294  0.76269080  1
  Hf  Hf1  1  0.19599591  0.60550113  0.48206682  1
  Hf  Hf2  1  0.18873481  0.20346806  -0.01506015  1
  Hf  Hf3  1  0.19034817  0.19953325  0.26817580  1
  Hf  Hf4  1  -0.01251722  0.19073534  0.49045402  1
  Hf  Hf5  1  0.51128127  0.89416549  0.37338248  1
  Hf  Hf6  1  0.10369410  0.50502439  0.87327590  1
  Hf  Hf7  1  0.10304340  0.50572475  0.62100803  1
  Hf  Hf8  1  0.37898690  0.59557221  0.24011345  1
  Hf  Hf9  1  0.41052815  0.59255379  0.74057801  1
  Hf  Hf10  1  0.78636626  0.18786710  0.75463586  1
  Hf  Hf11  1  0.59104532  0.61590162  0.01730826  1
  Hf  Hf12  1  0.00568301  0.01385672  -0.01045558  1
  Hf  Hf13  1  0.42147195  0.20195743  0.73785668  1
  Hf  Hf14  1  0.39936787  0.39516231  0.01110705  1
  Hf  Hf15  1  0.11037350  0.91582323  0.13237624  1
  Hf  Hf16  1  0.50869024  0.50892028  0.36032443  1
  Hf  Hf17  1  0.39881889  0.79140684  0.74651586  1
  Hf  Hf18  1  -0.00603491  0.60625264  0.75434991  1
  Hf  Hf19  1  0.60843077  0.02447056  0.73860121  1
  Hf  Hf20  1  0.69022218  0.08826784  0.37166851  1
  Hf  Hf21  1  0.09154051  0.12307176  0.12457292  1
  Hf  Hf22  1  0.21014148  0.79665426  0.00693223  1
  Hf  Hf23  1  0.59624608  0.39424055  0.02027064  1
  Hf  Hf24  1  0.69145140  0.31092048  0.37095415  1
  Hf  Hf25  1  0.90266201  0.69207475  0.90062740  1
  Hf  Hf26  1  0.20792382  0.60292352  0.74262995  1
  Hf  Hf27  1  0.30432625  0.08536229  0.61607199  1
  Hf  Hf28  1  0.49453706  0.50128237  0.88279597  1
  Hf  Hf29  1  0.20881033  0.40331329  -0.00357078  1
  Hf  Hf30  1  0.60839726  0.78449985  0.49799842  1
  Hf  Hf31  1  0.28095554  0.30139929  0.13553692  1
  Hf  Hf32  1  0.11857952  0.90768995  0.35901897  1
  Hf  Hf33  1  0.20730711  0.40781865  0.48683986  1
  Hf  Hf34  1  0.50383890  0.90268214  0.61969920  1
  Hf  Hf35  1  0.08797050  0.29983894  0.62977015  1
  Hf  Hf36  1  0.11895096  0.50219616  0.13668121  1
  Hf  Hf37  1  0.29440392  0.08663471  0.38386197  1
  Hf  Hf38  1  0.00412923  0.80457301  0.48301482  1
  Hf  Hf39  1  0.69995335  0.50482398  0.89237647  1
  Zr  Zr40  1  0.29498969  0.89151313  0.62541567  1
  Zr  Zr41  1  0.08853213  0.31148644  0.37978386  1
  Zr  Zr42  1  0.01271345  0.38910171  0.00297348  1
  Zr  Zr43  1  0.91038080  0.69902002  0.61944140  1
  Zr  Zr44  1  0.80506794  -0.00442020  0.75811302  1
  Zr  Zr45  1  0.81308905  0.39563248  0.24068862  1
  Zr  Zr46  1  0.68248335  0.29095688  0.88093478  1
  Zr  Zr47  1  0.68641691  0.51579490  0.62911163  1
  Zr  Zr48  1  0.87805154  0.70727316  0.36513667  1
  Zr  Zr49  1  0.57695845  0.39988808  0.74620432  1
  Zr  Zr50  1  0.28723027  0.30168958  0.63234592  1
  Zr  Zr51  1  0.69163930  0.90518363  0.88900871  1
  Zr  Zr52  1  0.09751858  0.09436210  0.62913343  1
  Zr  Zr53  1  0.88895932  0.49933333  0.61395680  1
  Zr  Zr54  1  0.79361052  0.40143534  0.75738344  1
  Zr  Zr55  1  0.39413779  0.20196084  0.00096739  1
  Zr  Zr56  1  0.38274195  0.59942191  0.01739049  1
  Zr  Zr57  1  0.68939118  0.29504564  0.62609199  1
  Zr  Zr58  1  0.71613968  0.88060356  0.36683520  1
  Zr  Zr59  1  0.59213344  0.19857642  0.24738997  1
  Zr  Zr60  1  -0.00159627  0.00367348  0.77077157  1
  Zr  Zr61  1  0.40795131  0.00129194  0.75668408  1
  Zr  Zr62  1  0.10034929  0.89857443  0.62905705  1
  Zr  Zr63  1  0.81245640  -0.01389029  0.24188737  1
  Zr  Zr64  1  0.71833190  0.28345455  0.12696494  1
  Zr  Zr65  1  -0.00857495  0.40276927  0.75293824  1
  Zr  Zr66  1  0.81543349  -0.00607118  0.49402328  1
  Zr  Zr67  1  0.40529854  -0.00179495  0.24864614  1
  Zr  Zr68  1  0.19286606  0.19555802  0.49300842  1
  Zr  Zr69  1  0.09596374  0.70244650  0.13565170  1
  Zr  Zr70  1  0.88710071  0.70388253  0.11500911  1
  Zr  Zr71  1  0.31211140  0.70264405  0.37043869  1
  Zr  Zr72  1  -0.02044562  0.21250816  0.25778567  1
  Zr  Zr73  1  0.70995469  0.70769132  0.63271129  1
  Zr  Zr74  1  0.78909154  0.19760057  0.49473327  1
  Zr  Zr75  1  0.40861699  -0.00514180  -0.00430789  1
  Zr  Zr76  1  0.41306908  0.59319610  0.50124553  1
  Zr  Zr77  1  0.59518016  0.41454162  0.50165177  1
  Zr  Zr78  1  0.28943652  0.08951871  0.12782478  1
  Zr  Zr79  1  0.91067877  0.50383470  0.11330125  1
  Ta  Ta80  1  0.40771501  0.79314720  -0.00107138  1
  Ta  Ta81  1  0.50092346  0.10007258  0.12639182  1
  Ta  Ta82  1  0.60920693  -0.00706818  0.23423619  1
  Ta  Ta83  1  0.78426272  0.59916717  0.48769759  1
  Ta  Ta84  1  0.40310119  0.39237194  0.24747022  1
  Ta  Ta85  1  0.50390675  0.70733561  0.87636752  1
  Ta  Ta86  1  -0.00013914  0.60246876  0.47773242  1
  Ta  Ta87  1  0.48876498  0.71721258  0.13976161  1
  Ta  Ta88  1  0.90855083  0.89903100  0.62695109  1
  Ta  Ta89  1  0.10790010  0.70410585  0.87845877  1
  Ta  Ta90  1  -0.01307994  0.19665810  0.76135869  1
  Ta  Ta91  1  0.60138475  0.60328066  0.23050710  1
  Ta  Ta92  1  0.20658178  0.00121453  -0.01758350  1
  Ta  Ta93  1  0.20333190  -0.00332587  0.76933210  1
  Ta  Ta94  1  0.52170539  0.10613514  0.88101305  1
  Ta  Ta95  1  -0.00014795  0.60094593  0.26582631  1
  Ta  Ta96  1  0.59609404  0.19445878  0.01522872  1
  Ta  Ta97  1  0.21228516  0.41450242  0.27135929  1
  Ta  Ta98  1  0.89308617  0.29515545  0.62072524  1
  Ta  Ta99  1  0.00375454  0.01528575  0.25698266  1
  Ta  Ta100  1  0.31266948  0.90017022  0.38142929  1
  Ta  Ta101  1  0.40695289  0.79690246  0.50200331  1
  Ta  Ta102  1  -0.01502632  0.81447278  0.25073342  1
  Ta  Ta103  1  0.29878140  0.30651357  0.85609444  1
  Ta  Ta104  1  0.30216962  0.88602066  0.87214610  1
  Ta  Ta105  1  0.49008473  0.30272358  0.37753818  1
  Ta  Ta106  1  0.00437353  0.80146647  0.76255564  1
  Ta  Ta107  1  0.30312322  0.69364367  0.87387378  1
  Ta  Ta108  1  0.51262886  0.69271073  0.62573989  1
  Ta  Ta109  1  0.89100741  0.10700735  0.11792624  1
  Ta  Ta110  1  0.10525226  0.89361321  0.87881670  1
  Ta  Ta111  1  0.58782519  0.19866182  0.49946159  1
  Ta  Ta112  1  0.80004664  0.59980169  0.76907989  1
  Ta  Ta113  1  0.39552582  0.20175082  0.25674556  1
  Ta  Ta114  1  0.89630857  0.09738355  0.62647614  1
  Ta  Ta115  1  0.89777853  0.89412663  0.89970917  1
  Ta  Ta116  1  0.20210272  0.80172983  0.49066326  1
  Ta  Ta117  1  0.31257536  0.88451817  0.12821787  1
  Ta  Ta118  1  0.89239170  0.29558507  0.88021254  1
  Ta  Ta119  1  0.39990353  0.20313320  0.50164021  1
  Ti  Ti120  1  0.79512788  0.18090048  -0.00667954  1
  Ti  Ti121  1  0.60215044  0.80640121  0.75021433  1
  Ti  Ti122  1  0.50354699  0.89946453  0.87653343  1
  Ti  Ti123  1  0.29904192  0.69482628  0.61489143  1
  Ti  Ti124  1  0.01040319  0.80147633  0.00403984  1
  Ti  Ti125  1  0.67957166  0.69053211  0.35796358  1
  Ti  Ti126  1  0.50858357  0.89771837  0.12373219  1
  Ti  Ti127  1  0.39845148  0.39915556  0.50718047  1
  Ti  Ti128  1  -0.00832904  0.40550806  0.49947054  1
  Ti  Ti129  1  0.89584716  0.49571127  0.37718749  1
  Ti  Ti130  1  0.10084653  0.30138856  0.85776458  1
  Ti  Ti131  1  0.70635989  0.88146875  0.11560235  1
  Ti  Ti132  1  0.30853690  0.10504733  0.86953022  1
  Ti  Ti133  1  0.90339233  0.90375125  0.10858940  1
  Ti  Ti134  1  0.21273812  0.79493369  0.24843299  1
  Ti  Ti135  1  0.71218507  0.50909258  0.11556405  1
  Ti  Ti136  1  0.70529993  0.50350234  0.36606728  1
  Ti  Ti137  1  0.49394969  0.49777871  0.13423580  1
  Ti  Ti138  1  0.10507901  0.70904505  0.62364707  1
  Ti  Ti139  1  0.49072490  0.29837817  0.87626726  1
  Ti  Ti140  1  -0.00693429  0.20429144  -0.01319686  1
  Ti  Ti141  1  0.90012709  0.49785914  0.89553340  1
  Ti  Ti142  1  0.60471833  0.00365212  0.50894703  1
  Ti  Ti143  1  0.30064152  0.49760322  0.86866068  1
  Ti  Ti144  1  0.71234432  0.90594748  0.62415822  1
  Ti  Ti145  1  0.88490187  0.30891384  0.38443407  1
  Ti  Ti146  1  0.79685792  0.18618901  0.25762504  1
  Ti  Ti147  1  0.19632761  0.19172156  0.75620170  1
  Ti  Ti148  1  0.69841028  0.70699653  0.89382615  1
  Ti  Ti149  1  0.00699261  0.40395572  0.24783925  1
  Ti  Ti150  1  0.19646374  0.60192830  0.00317081  1
  Ti  Ti151  1  0.60545152  0.61156714  0.76238008  1
  Ti  Ti152  1  0.79585118  0.60145725  0.24285985  1
  Ti  Ti153  1  0.49440653  0.09399888  0.38187739  1
  Ti  Ti154  1  0.80620450  0.38610328  0.00616605  1
  Ti  Ti155  1  0.38658239  0.40709362  0.73155253  1
  Ti  Ti156  1  0.61387447  0.00540081  0.01560736  1
  Ti  Ti157  1  0.60298269  0.40090670  0.23476858  1
  Ti  Ti158  1  0.01058684  0.00068950  0.48328154  1
  Ti  Ti159  1  0.80738653  0.79924130  0.50298661  1
  Mo  Mo160  1  0.49510581  0.29675203  0.13689671  1
  Mo  Mo161  1  0.09677868  0.70876180  0.35794154  1
  Mo  Mo162  1  0.01454302  0.60166391  -0.00234703  1
  Mo  Mo163  1  0.69361106  0.70137527  0.12378630  1
  Mo  Mo164  1  0.09663070  0.30663678  0.13533584  1
  Mo  Mo165  1  0.60346619  0.80189519  0.24118599  1
  Mo  Mo166  1  0.80240832  -0.00134749  0.01180989  1
  Mo  Mo167  1  0.09038178  0.50455213  0.37299557  1
  Mo  Mo168  1  0.91315760  0.28663086  0.11496186  1
  Mo  Mo169  1  0.40957951  -0.00443616  0.49619320  1
  Mo  Mo170  1  0.59532086  0.20226204  0.74819161  1
  Mo  Mo171  1  0.09498643  0.09626953  0.37429113  1
  Mo  Mo172  1  0.29692811  0.50438797  0.61904589  1
  Mo  Mo173  1  0.89699478  0.09666726  0.37134958  1
  Mo  Mo174  1  0.49469260  0.50370167  0.62470626  1
  Mo  Mo175  1  0.69581750  0.09910724  0.88723246  1
  Mo  Mo176  1  0.31066766  0.29816580  0.37568975  1
  Mo  Mo177  1  0.79403211  0.80116057  0.00188435  1
  Mo  Mo178  1  0.89382393  0.10411583  0.88514829  1
  Mo  Mo179  1  0.10688646  0.10805476  0.87077648  1
  Mo  Mo180  1  0.91178632  0.90108847  0.36851764  1
  Mo  Mo181  1  0.50416251  0.10405092  0.60858377  1
  Mo  Mo182  1  0.80210725  0.40586489  0.49335250  1
  Mo  Mo183  1  0.49177949  0.30370327  0.61203522  1
  Mo  Mo184  1  0.70106693  0.09451172  0.61464722  1
  Mo  Mo185  1  0.29548835  0.49720196  0.13103039  1
  Mo  Mo186  1  0.79388949  0.59212392  -0.00137076  1
  Mo  Mo187  1  0.70191525  0.08752947  0.12772476  1
  Mo  Mo188  1  0.60291610  0.60752111  0.49027946  1
  Mo  Mo189  1  0.79609750  0.79395048  0.23659087  1
  Mo  Mo190  1  0.19669063  0.79448420  0.75626438  1
  Mo  Mo191  1  0.50705023  0.70344407  0.35362258  1
  Mo  Mo192  1  0.58669622  0.80753031  0.00369020  1
  Mo  Mo193  1  0.31157502  0.49059682  0.37725506  1
  Mo  Mo194  1  0.19970384  -0.01485183  0.49880583  1
  Mo  Mo195  1  0.40390636  0.80484274  0.24963775  1
  Mo  Mo196  1  0.19064959  0.60200406  0.26964847  1
  Mo  Mo197  1  0.20322903  -0.00081579  0.24349927  1
  Mo  Mo198  1  0.29066666  0.70084688  0.13217977  1
  Mo  Mo199  1  0.20031428  0.40176232  0.75281794  1
