# generated using pymatgen
data_HfZrTaTiMo
_symmetry_space_group_name_H-M   'P 1'
_cell_length_a   15.21036306
_cell_length_b   15.21628461
_cell_length_c   16.86649262
_cell_angle_alpha   89.96885350
_cell_angle_beta   89.98194101
_cell_angle_gamma   90.06801215
_symmetry_Int_Tables_number   1
_chemical_formula_structural   HfZrTaTiMo
_chemical_formula_sum   'Hf40 Zr40 Ta40 Ti40 Mo40'
_cell_volume   3903.66546153
_cell_formula_units_Z   40
loop_
 _symmetry_equiv_pos_site_id
 _symmetry_equiv_pos_as_xyz
  1  'x, y, z'
loop_
 _atom_site_type_symbol
 _atom_site_label
 _atom_site_symmetry_multiplicity
 _atom_site_fract_x
 _atom_site_fract_y
 _atom_site_fract_z
 _atom_site_occupancy
  Hf  Hf0  1  0.09456304  0.72294558  0.86929493  1
  Hf  Hf1  1  0.10674770  0.51296095  0.12235410  1
  Hf  Hf2  1  0.90897895  0.08818291  0.87112854  1
  Hf  Hf3  1  0.49806126  0.67875593  0.62610444  1
  Hf  Hf4  1  0.10216321  0.72054713  0.12438922  1
  Hf  Hf5  1  0.00582985  0.37434765  0.00433876  1
  Hf  Hf6  1  0.30351562  0.69384934  0.13094560  1
  Hf  Hf7  1  0.62183566  0.61094957  -0.00621729  1
  Hf  Hf8  1  0.31833291  0.29795498  0.62598647  1
  Hf  Hf9  1  0.59394313  0.39346161  0.24585768  1
  Hf  Hf10  1  0.89873129  0.88831783  0.86149625  1
  Hf  Hf11  1  0.30585289  0.08868807  0.37928583  1
  Hf  Hf12  1  0.68344690  0.49611985  0.38374782  1
  Hf  Hf13  1  0.79323173  -0.00284219  0.51997045  1
  Hf  Hf14  1  0.90334486  0.49714798  0.38117643  1
  Hf  Hf15  1  0.42259677  0.19284723  0.25851671  1
  Hf  Hf16  1  0.58976663  0.00964172  0.51871646  1
  Hf  Hf17  1  0.20796270  0.61647478  -0.01103645  1
  Hf  Hf18  1  0.11178376  0.29034863  0.14016358  1
  Hf  Hf19  1  0.18781507  0.60865796  0.74911554  1
  Hf  Hf20  1  0.91153236  0.28239057  0.14361715  1
  Hf  Hf21  1  0.09685496  0.71262381  0.38157049  1
  Hf  Hf22  1  0.80436612  0.59835786  0.25939643  1
  Hf  Hf23  1  0.31198083  0.29072881  0.87270992  1
  Hf  Hf24  1  0.87369347  0.48797667  0.88831901  1
  Hf  Hf25  1  0.19677207  0.61305126  0.50681231  1
  Hf  Hf26  1  0.70187895  0.09736347  0.37466393  1
  Hf  Hf27  1  0.58376655  0.01451546  0.24702255  1
  Hf  Hf28  1  0.62338424  0.39956404  0.00392017  1
  Hf  Hf29  1  0.19762691  0.40246825  0.75490171  1
  Hf  Hf30  1  0.20055014  0.19735964  0.74764134  1
  Hf  Hf31  1  0.48673162  0.10349603  0.10533796  1
  Hf  Hf32  1  0.10241454  0.29915982  0.36909400  1
  Hf  Hf33  1  0.21267837  0.39885771  0.00563062  1
  Hf  Hf34  1  0.89783697  0.89980695  0.39083035  1
  Hf  Hf35  1  0.79853062  0.57334774  0.73563226  1
  Hf  Hf36  1  0.68755653  0.89153986  0.11996935  1
  Hf  Hf37  1  0.48943536  0.69245397  0.86300695  1
  Hf  Hf38  1  0.18256521  0.00266786  0.24400464  1
  Hf  Hf39  1  0.69134864  0.89715182  0.38470598  1
  Zr  Zr40  1  0.08204745  0.51089078  0.61808909  1
  Zr  Zr41  1  0.67317053  0.48641022  0.60334118  1
  Zr  Zr42  1  0.60458814  0.80176881  0.51375866  1
  Zr  Zr43  1  0.29301351  0.89222351  0.37735176  1
  Zr  Zr44  1  0.71457179  0.69688642  0.85416215  1
  Zr  Zr45  1  0.52272742  0.31058273  0.62584925  1
  Zr  Zr46  1  0.09489196  0.91576816  0.39395506  1
  Zr  Zr47  1  0.60027712  0.81638092  -0.02464783  1
  Zr  Zr48  1  0.39281966  0.79704593  -0.00543784  1
  Zr  Zr49  1  0.63108617  0.39582500  0.76396706  1
  Zr  Zr50  1  0.47848345  0.10658380  0.87259402  1
  Zr  Zr51  1  0.40097745  0.59594914  0.25767242  1
  Zr  Zr52  1  0.08751734  0.49644748  0.88021880  1
  Zr  Zr53  1  -0.00810366  0.61638981  -0.00323820  1
  Zr  Zr54  1  0.80266725  0.79244285  0.25239973  1
  Zr  Zr55  1  0.58721256  0.58258638  0.75355943  1
  Zr  Zr56  1  0.50570347  0.69568401  0.38599069  1
  Zr  Zr57  1  0.39555082  0.39326525  0.23123371  1
  Zr  Zr58  1  0.42269654  0.20093639  0.48873908  1
  Zr  Zr59  1  0.79761666  0.60402405  0.50642674  1
  Zr  Zr60  1  0.80489870  0.77918840  0.00173177  1
  Zr  Zr61  1  0.09720069  0.92633304  0.86168240  1
  Zr  Zr62  1  0.21506114  0.41299234  0.49230877  1
  Zr  Zr63  1  0.37397120  -0.00262928  -0.00527362  1
  Zr  Zr64  1  0.17240028  0.00707811  0.01263845  1
  Zr  Zr65  1  0.59278638  0.00565084  0.75219036  1
  Zr  Zr66  1  0.91871706  0.28491210  0.87351631  1
  Zr  Zr67  1  0.90338391  0.49607560  0.12363051  1
  Zr  Zr68  1  0.31359556  0.50893405  0.87072529  1
  Zr  Zr69  1  0.79612141  -0.01028106  0.00118285  1
  Zr  Zr70  1  0.79819043  -0.00894454  0.24275393  1
  Zr  Zr71  1  0.79263561  0.37562416  0.49533154  1
  Zr  Zr72  1  0.59540241  0.80420475  0.25740246  1
  Zr  Zr73  1  0.39640706  0.79895042  0.51026478  1
  Zr  Zr74  1  0.50353125  0.50917998  0.11666310  1
  Zr  Zr75  1  0.51490637  0.71270907  0.12272095  1
  Zr  Zr76  1  0.51272726  0.29750957  0.88466776  1
  Zr  Zr77  1  0.20751578  0.41004200  0.24962969  1
  Zr  Zr78  1  0.70555510  0.10772892  0.87340025  1
  Zr  Zr79  1  0.10363611  0.30978639  0.61554795  1
  Ta  Ta80  1  0.41834450  0.40611892  0.75219700  1
  Ta  Ta81  1  0.30022964  0.72383600  0.85141332  1
  Ta  Ta82  1  0.20059410  0.81932186  0.72992015  1
  Ta  Ta83  1  0.62388605  0.20515963  0.50445911  1
  Ta  Ta84  1  0.90193090  0.28229825  0.36038020  1
  Ta  Ta85  1  0.69523818  0.10431069  0.11835101  1
  Ta  Ta86  1  0.21531682  0.19532959  0.25713656  1
  Ta  Ta87  1  0.81609653  0.19922984  0.01104644  1
  Ta  Ta88  1  0.00293259  0.79872767  0.72908530  1
  Ta  Ta89  1  0.18872527  0.01089671  0.72498463  1
  Ta  Ta90  1  0.90778084  0.28592664  0.62660272  1
  Ta  Ta91  1  0.30255868  0.69811676  0.63873912  1
  Ta  Ta92  1  0.60871125  0.60078903  0.25198312  1
  Ta  Ta93  1  0.40291539  0.39374923  0.01317550  1
  Ta  Ta94  1  0.31699834  0.30848080  0.37688212  1
  Ta  Ta95  1  -0.01092692  0.02763167  0.50739079  1
  Ta  Ta96  1  0.00249685  0.81490875  0.25235349  1
  Ta  Ta97  1  0.49004369  0.11364984  0.63885518  1
  Ta  Ta98  1  0.39580816  0.00262586  0.51848459  1
  Ta  Ta99  1  0.19461042  0.19974108  -0.00227362  1
  Ta  Ta100  1  0.47067365  0.89645241  0.85176802  1
  Ta  Ta101  1  0.79844014  0.39403615  0.25516138  1
  Ta  Ta102  1  0.70009481  0.89841226  0.64430517  1
  Ta  Ta103  1  0.08673065  0.91153217  0.61468864  1
  Ta  Ta104  1  0.39069636  0.58355175  0.49742508  1
  Ta  Ta105  1  0.48772068  0.92160686  0.38082959  1
  Ta  Ta106  1  0.19827818  0.60382584  0.25749584  1
  Ta  Ta107  1  0.69774044  0.28820329  0.36162585  1
  Ta  Ta108  1  0.20441801  0.19983806  0.49082752  1
  Ta  Ta109  1  0.48764107  0.90543786  0.12151061  1
  Ta  Ta110  1  0.19867017  0.80608743  0.52251338  1
  Ta  Ta111  1  -0.01075595  0.39760679  0.74923203  1
  Ta  Ta112  1  -0.01012905  0.01021314  0.72787827  1
  Ta  Ta113  1  0.71012328  0.50388850  0.12944474  1
  Ta  Ta114  1  0.00430161  0.61308266  0.25454037  1
  Ta  Ta115  1  0.28916671  0.89591369  0.13220843  1
  Ta  Ta116  1  0.82091531  0.18584591  0.49758870  1
  Ta  Ta117  1  0.90333245  0.70468361  0.13050297  1
  Ta  Ta118  1  0.20357911  0.81708616  -0.00625583  1
  Ta  Ta119  1  0.20015403  0.01134919  0.51908029  1
  Ti  Ti120  1  0.70854040  0.29497595  0.13295377  1
  Ti  Ti121  1  0.39923710  0.80756057  0.25345778  1
  Ti  Ti122  1  0.81197022  0.79414164  0.72955261  1
  Ti  Ti123  1  -0.00338604  0.39076765  0.49102924  1
  Ti  Ti124  1  0.80345339  0.79820121  0.52110715  1
  Ti  Ti125  1  0.80503706  0.18262353  0.24781732  1
  Ti  Ti126  1  0.19857049  0.80022567  0.25324588  1
  Ti  Ti127  1  0.70469611  0.11143111  0.63748961  1
  Ti  Ti128  1  0.49180492  0.89931140  0.64161978  1
  Ti  Ti129  1  -0.00201848  0.79371081  0.51754279  1
  Ti  Ti130  1  0.90093314  0.69353923  0.86370820  1
  Ti  Ti131  1  0.59520663  0.79700014  0.74864188  1
  Ti  Ti132  1  0.08677304  0.12346167  0.61649846  1
  Ti  Ti133  1  0.30926682  0.50139905  0.63491749  1
  Ti  Ti134  1  0.37397009  0.00642452  0.73735064  1
  Ti  Ti135  1  0.81014134  0.20346270  0.74651132  1
  Ti  Ti136  1  -0.00819426  0.59566125  0.75235066  1
  Ti  Ti137  1  0.50553351  0.49365526  0.88991196  1
  Ti  Ti138  1  0.73017026  0.30766018  0.88582124  1
  Ti  Ti139  1  0.48452087  0.48039163  0.38252309  1
  Ti  Ti140  1  0.60520039  0.20569308  0.75305818  1
  Ti  Ti141  1  0.39992562  0.59839141  0.00074384  1
  Ti  Ti142  1  0.07404565  0.10141848  0.12999851  1
  Ti  Ti143  1  0.91315092  0.68271989  0.62177015  1
  Ti  Ti144  1  0.70307349  0.69826310  0.38745078  1
  Ti  Ti145  1  0.29767167  0.69668043  0.37613394  1
  Ti  Ti146  1  0.69683025  0.69475778  0.63111616  1
  Ti  Ti147  1  0.00634051  0.82418090  0.00257071  1
  Ti  Ti148  1  0.61136291  0.19685765  -0.00265203  1
  Ti  Ti149  1  0.58903415  -0.00030200  -0.01588933  1
  Ti  Ti150  1  0.91673917  0.90819001  0.12553038  1
  Ti  Ti151  1  0.89649905  0.48173315  0.61218033  1
  Ti  Ti152  1  -0.01082490  0.01528074  0.26060559  1
  Ti  Ti153  1  0.50924949  0.28857044  0.11291872  1
  Ti  Ti154  1  0.09837992  0.51083964  0.37921312  1
  Ti  Ti155  1  0.00098831  0.40857034  0.25524905  1
  Ti  Ti156  1  0.90524131  0.70184704  0.38693592  1
  Ti  Ti157  1  0.70508343  0.90268835  0.85021404  1
  Ti  Ti158  1  0.27866814  0.08960395  0.87028382  1
  Ti  Ti159  1  0.38808192  0.00057143  0.24084391  1
  Mo  Mo160  1  0.28649666  0.10780737  0.13161528  1
  Mo  Mo161  1  0.01264755  0.18822416  0.25997772  1
  Mo  Mo162  1  0.10878966  0.29258836  0.87438429  1
  Mo  Mo163  1  0.40538040  0.19960016  0.74890751  1
  Mo  Mo164  1  0.89796120  0.89449591  0.61980718  1
  Mo  Mo165  1  0.89549208  0.10549707  0.63167980  1
  Mo  Mo166  1  0.89347077  0.09593649  0.12542383  1
  Mo  Mo167  1  0.58910010  0.38356195  0.48504143  1
  Mo  Mo168  1  0.40082425  0.39796327  0.49904562  1
  Mo  Mo169  1  -0.00250275  0.60137647  0.49463617  1
  Mo  Mo170  1  0.09754945  0.70514993  0.62857180  1
  Mo  Mo171  1  0.80087160  0.59632717  0.00813882  1
  Mo  Mo172  1  0.51023128  0.09549619  0.38083459  1
  Mo  Mo173  1  0.90264474  0.09382366  0.37559973  1
  Mo  Mo174  1  0.00866261  0.20190658  0.74606056  1
  Mo  Mo175  1  0.29730778  0.11112819  0.61740960  1
  Mo  Mo176  1  0.70925200  0.68870709  0.13221858  1
  Mo  Mo177  1  0.28802200  0.90756946  0.85978562  1
  Mo  Mo178  1  0.48253973  0.48871412  0.61623429  1
  Mo  Mo179  1  0.29663907  0.50586966  0.37542353  1
  Mo  Mo180  1  0.58603443  0.59423399  0.49380096  1
  Mo  Mo181  1  0.81159386  0.39004798  0.74167876  1
  Mo  Mo182  1  0.51288206  0.29692130  0.37267282  1
  Mo  Mo183  1  0.80386160  0.38595836  0.01770368  1
  Mo  Mo184  1  0.39098247  0.59241992  0.74957272  1
  Mo  Mo185  1  0.09340982  0.90102739  0.13298042  1
  Mo  Mo186  1  0.00105578  0.20907783  0.49138491  1
  Mo  Mo187  1  0.09114244  0.11754869  0.86829593  1
  Mo  Mo188  1  0.10328262  0.10560874  0.38136003  1
  Mo  Mo189  1  0.38462769  0.20407754  0.00421467  1
  Mo  Mo190  1  0.01180502  0.18075397  0.00486869  1
  Mo  Mo191  1  -0.01219397  0.00301129  0.00207819  1
  Mo  Mo192  1  0.70145136  0.49351005  0.88168042  1
  Mo  Mo193  1  0.29835938  0.90712958  0.62474468  1
  Mo  Mo194  1  0.71578780  0.28570342  0.62549047  1
  Mo  Mo195  1  0.61099566  0.20001002  0.23736439  1
  Mo  Mo196  1  0.40034184  0.80301697  0.73640400  1
  Mo  Mo197  1  0.29861447  0.50230196  0.11310581  1
  Mo  Mo198  1  0.30920845  0.28002477  0.12175803  1
  Mo  Mo199  1  0.80015832  -0.00316621  0.73935738  1
