# generated using pymatgen
data_HfZrTaTiMo
_symmetry_space_group_name_H-M   'P 1'
_cell_length_a   15.20398475
_cell_length_b   15.18913499
_cell_length_c   16.81913863
_cell_angle_alpha   90.09755983
_cell_angle_beta   89.97228529
_cell_angle_gamma   90.15407301
_symmetry_Int_Tables_number   1
_chemical_formula_structural   HfZrTaTiMo
_chemical_formula_sum   'Hf40 Zr40 Ta40 Ti40 Mo40'
_cell_volume   3884.11399736
_cell_formula_units_Z   40
loop_
 _symmetry_equiv_pos_site_id
 _symmetry_equiv_pos_as_xyz
  1  'x, y, z'
loop_
 _atom_site_type_symbol
 _atom_site_label
 _atom_site_symmetry_multiplicity
 _atom_site_fract_x
 _atom_site_fract_y
 _atom_site_fract_z
 _atom_site_occupancy
  Hf  Hf0  1  0.60503562  -0.00182619  0.47781748  1
  Hf  Hf1  1  0.00005164  0.81959978  0.48865863  1
  Hf  Hf2  1  0.91123633  0.09625165  0.61854940  1
  Hf  Hf3  1  0.01196298  0.19866761  0.49381476  1
  Hf  Hf4  1  0.50397882  0.08791532  0.62192434  1
  Hf  Hf5  1  0.78860402  -0.00000188  0.76356269  1
  Hf  Hf6  1  -0.00608767  0.40564876  0.75276831  1
  Hf  Hf7  1  0.48888503  0.90559282  0.12407611  1
  Hf  Hf8  1  0.20417747  0.19691528  0.01116477  1
  Hf  Hf9  1  0.89494789  0.89178778  0.88858082  1
  Hf  Hf10  1  0.29321865  0.51676776  0.11359236  1
  Hf  Hf11  1  0.80773014  0.19307334  0.00663608  1
  Hf  Hf12  1  0.52688879  0.30962773  0.14458126  1
  Hf  Hf13  1  0.89883948  0.70154956  0.36307882  1
  Hf  Hf14  1  0.08658279  0.50442135  0.61698621  1
  Hf  Hf15  1  0.79900683  0.60430968  0.01103489  1
  Hf  Hf16  1  0.68761932  0.89593899  0.88552246  1
  Hf  Hf17  1  0.10356072  0.71262682  0.61989556  1
  Hf  Hf18  1  0.70988951  0.09428320  0.61566439  1
  Hf  Hf19  1  0.00784786  0.60623002  0.75781182  1
  Hf  Hf20  1  0.41837029  0.40788943  -0.00294502  1
  Hf  Hf21  1  0.80474671  0.58822932  0.24544509  1
  Hf  Hf22  1  0.20293229  0.20557706  0.22950905  1
  Hf  Hf23  1  0.30241598  0.10253007  0.36889871  1
  Hf  Hf24  1  0.30667280  0.09660154  0.88186775  1
  Hf  Hf25  1  0.02078734  0.20565167  0.76329182  1
  Hf  Hf26  1  0.40575519  0.19910550  0.50101755  1
  Hf  Hf27  1  0.89563645  0.30104998  0.87523156  1
  Hf  Hf28  1  0.60309526  0.00993026  0.01416505  1
  Hf  Hf29  1  0.50193809  0.30424656  0.86171602  1
  Hf  Hf30  1  0.20563376  0.00081420  0.23565339  1
  Hf  Hf31  1  0.11132968  0.10637825  0.62646296  1
  Hf  Hf32  1  0.50837978  0.09608388  0.87897369  1
  Hf  Hf33  1  0.58409545  0.79532258  0.24632377  1
  Hf  Hf34  1  0.48583117  0.49934963  0.39114817  1
  Hf  Hf35  1  0.20502316  -0.00812826  0.01045008  1
  Hf  Hf36  1  0.58948384  0.58929178  0.26643943  1
  Hf  Hf37  1  0.61110473  0.18917727  0.74530113  1
  Hf  Hf38  1  0.50613950  0.30634176  0.62814931  1
  Hf  Hf39  1  0.09333965  0.88244084  0.13929140  1
  Zr  Zr40  1  0.38517401  0.61902501  0.25398985  1
  Zr  Zr41  1  0.80046793  -0.00249568  0.01328211  1
  Zr  Zr42  1  0.71886485  0.28803655  0.35259449  1
  Zr  Zr43  1  0.49682179  0.70005563  0.88270902  1
  Zr  Zr44  1  0.68679316  0.49548516  0.62343330  1
  Zr  Zr45  1  0.49265757  0.51185343  0.13035103  1
  Zr  Zr46  1  0.09247647  0.91032130  0.62924784  1
  Zr  Zr47  1  0.61145525  0.21871028  0.00774769  1
  Zr  Zr48  1  0.39910451  0.78433850  0.74399982  1
  Zr  Zr49  1  0.81245655  0.19915610  0.74821260  1
  Zr  Zr50  1  0.71702429  0.11221581  0.15648062  1
  Zr  Zr51  1  0.09648689  0.50111338  0.37873681  1
  Zr  Zr52  1  0.68157142  0.68716379  0.12732973  1
  Zr  Zr53  1  0.81499437  -0.00152612  0.47494991  1
  Zr  Zr54  1  0.61064526  0.19648444  0.48696054  1
  Zr  Zr55  1  0.00011486  0.00196166  0.76175500  1
  Zr  Zr56  1  0.19122894  0.79108044  -0.00291786  1
  Zr  Zr57  1  0.89631251  0.50657880  0.88457519  1
  Zr  Zr58  1  0.80585734  0.60322150  0.74562177  1
  Zr  Zr59  1  0.30910869  0.50613359  0.87485539  1
  Zr  Zr60  1  0.39872399  0.62124135  0.52524470  1
  Zr  Zr61  1  -0.01504208  0.39066529  0.25552539  1
  Zr  Zr62  1  0.28862366  0.89371758  0.62349347  1
  Zr  Zr63  1  0.69197271  0.49134873  0.85741976  1
  Zr  Zr64  1  0.29822614  0.31243241  0.37388200  1
  Zr  Zr65  1  0.49440323  0.88938533  0.61902752  1
  Zr  Zr66  1  0.39139337  0.41051186  0.25099023  1
  Zr  Zr67  1  0.58693966  0.58010193  -0.00773016  1
  Zr  Zr68  1  0.09936246  0.70733456  0.36602655  1
  Zr  Zr69  1  0.69847749  0.89742392  0.61875050  1
  Zr  Zr70  1  0.58849733  0.79155774  0.49321750  1
  Zr  Zr71  1  0.19145568  -0.00035688  0.49101453  1
  Zr  Zr72  1  0.77669677  0.38748013  0.00214238  1
  Zr  Zr73  1  0.28360176  0.49022545  0.62416572  1
  Zr  Zr74  1  0.69933253  0.69299592  0.37578783  1
  Zr  Zr75  1  0.19702867  0.39534850  -0.00462222  1
  Zr  Zr76  1  0.68452810  0.46881242  0.13886871  1
  Zr  Zr77  1  0.09055346  0.51042582  0.12549291  1
  Zr  Zr78  1  0.89405127  0.89534661  0.62413316  1
  Zr  Zr79  1  0.89806531  0.48849239  0.11669892  1
  Ta  Ta80  1  0.39999400  0.19075007  0.74411304  1
  Ta  Ta81  1  0.49866958  0.49953333  0.83836321  1
  Ta  Ta82  1  0.30359087  0.09690448  0.62597049  1
  Ta  Ta83  1  0.50372593  0.10633554  0.13857862  1
  Ta  Ta84  1  0.29380067  0.70355559  0.38198921  1
  Ta  Ta85  1  0.79558769  0.80301221  0.23181005  1
  Ta  Ta86  1  0.60688484  0.79106372  0.75066328  1
  Ta  Ta87  1  0.29840174  0.70358340  0.87494364  1
  Ta  Ta88  1  0.50066602  0.29927836  0.36780370  1
  Ta  Ta89  1  0.29576978  0.88975526  0.36956936  1
  Ta  Ta90  1  0.48907776  0.89696210  0.36724185  1
  Ta  Ta91  1  0.70478694  0.69735599  0.61799770  1
  Ta  Ta92  1  0.09892932  0.90550442  0.35390565  1
  Ta  Ta93  1  -0.00667129  0.79608821  0.75895159  1
  Ta  Ta94  1  0.50203348  0.09813602  0.36048983  1
  Ta  Ta95  1  0.81318597  0.20509327  0.48877179  1
  Ta  Ta96  1  0.70528748  0.48919222  0.38670216  1
  Ta  Ta97  1  -0.01442309  0.60841437  0.49889220  1
  Ta  Ta98  1  0.10317114  0.10685277  0.36655711  1
  Ta  Ta99  1  0.70485703  0.70275716  0.88391183  1
  Ta  Ta100  1  0.90761382  0.30541754  0.61626532  1
  Ta  Ta101  1  0.59321150  -0.01121493  0.75661985  1
  Ta  Ta102  1  0.90553129  0.09475891  0.88349196  1
  Ta  Ta103  1  0.70411521  0.89452873  0.35794687  1
  Ta  Ta104  1  0.39937444  -0.00497782  0.48915379  1
  Ta  Ta105  1  0.01150342  0.19531389  -0.00883891  1
  Ta  Ta106  1  0.18630380  0.40039244  0.76633948  1
  Ta  Ta107  1  0.92365243  0.70070981  0.13551171  1
  Ta  Ta108  1  0.00285311  0.39260270  -0.00913454  1
  Ta  Ta109  1  0.09733929  0.90352775  0.87916419  1
  Ta  Ta110  1  0.19506150  0.40201557  0.23946085  1
  Ta  Ta111  1  0.20385613  0.60737242  0.75396280  1
  Ta  Ta112  1  0.38234545  0.38661231  0.74202839  1
  Ta  Ta113  1  -0.00558681  0.02361114  0.24330790  1
  Ta  Ta114  1  0.79825401  0.79443300  0.75449353  1
  Ta  Ta115  1  0.21448386  0.21013516  0.75411881  1
  Ta  Ta116  1  0.20996526  0.21193742  0.50299936  1
  Ta  Ta117  1  0.79774190  0.79947673  0.02627434  1
  Ta  Ta118  1  0.11196776  0.31111722  0.62265506  1
  Ta  Ta119  1  0.18976802  0.80073093  0.76389086  1
  Ti  Ti120  1  0.59988322  0.39119157  0.49263685  1
  Ti  Ti121  1  0.79633051  0.39332569  0.73989479  1
  Ti  Ti122  1  0.38629285  0.81435170  0.00162345  1
  Ti  Ti123  1  0.80053756  0.79286216  0.49164151  1
  Ti  Ti124  1  0.40061041  0.20048716  0.24450507  1
  Ti  Ti125  1  0.89720278  0.70465354  0.88583306  1
  Ti  Ti126  1  -0.00384741  0.39816403  0.49543549  1
  Ti  Ti127  1  0.89705868  0.90910353  0.13586287  1
  Ti  Ti128  1  0.90478060  0.90404957  0.35122498  1
  Ti  Ti129  1  0.00903860  0.60814047  -0.00736732  1
  Ti  Ti130  1  0.20131906  0.00880511  0.76074033  1
  Ti  Ti131  1  0.49093982  0.90057476  0.88429090  1
  Ti  Ti132  1  0.19223104  0.60031129  0.25074068  1
  Ti  Ti133  1  0.32061508  0.08900900  0.11830840  1
  Ti  Ti134  1  0.71104236  0.29947718  0.61516282  1
  Ti  Ti135  1  0.10699505  0.30377266  0.37322098  1
  Ti  Ti136  1  0.89948300  0.70073390  0.61935832  1
  Ti  Ti137  1  0.40237017  -0.00460712  0.25151330  1
  Ti  Ti138  1  0.39961621  -0.00423886  0.75092429  1
  Ti  Ti139  1  0.28757543  0.50623013  0.38832570  1
  Ti  Ti140  1  0.60648575  -0.00247411  0.25278537  1
  Ti  Ti141  1  0.88994933  0.49500203  0.38582647  1
  Ti  Ti142  1  0.88580180  0.49981709  0.60835893  1
  Ti  Ti143  1  0.60219392  0.80175313  0.01306551  1
  Ti  Ti144  1  0.30589618  0.29523299  0.87978749  1
  Ti  Ti145  1  0.48166413  0.70646706  0.37920642  1
  Ti  Ti146  1  0.19099953  0.60290112  -0.01371858  1
  Ti  Ti147  1  0.59998419  0.59597559  0.50039030  1
  Ti  Ti148  1  0.08243769  0.29654516  0.12343492  1
  Ti  Ti149  1  0.19357328  0.60836416  0.50303228  1
  Ti  Ti150  1  0.00609319  0.00289720  0.00898477  1
  Ti  Ti151  1  0.41309386  0.19835141  0.00875580  1
  Ti  Ti152  1  0.47542672  0.70375783  0.11230582  1
  Ti  Ti153  1  0.49642013  0.50417445  0.64394804  1
  Ti  Ti154  1  0.69556860  0.29228530  0.86568572  1
  Ti  Ti155  1  0.31431622  0.30757914  0.12146804  1
  Ti  Ti156  1  -0.00261434  0.79749256  0.00459212  1
  Ti  Ti157  1  0.30297662  0.90111742  0.87130074  1
  Ti  Ti158  1  0.38899798  0.39649719  0.51071583  1
  Ti  Ti159  1  0.28501711  0.71484008  0.12732577  1
  Mo  Mo160  1  0.80686556  -0.00135779  0.25431361  1
  Mo  Mo161  1  0.69614794  0.89837616  0.13712112  1
  Mo  Mo162  1  0.59164884  0.40013302  -0.01341546  1
  Mo  Mo163  1  0.10030295  0.09921578  0.11952810  1
  Mo  Mo164  1  0.59133077  0.19385955  0.26081479  1
  Mo  Mo165  1  0.79879440  0.39325003  0.50387500  1
  Mo  Mo166  1  0.60033789  0.61134765  0.74909326  1
  Mo  Mo167  1  0.59889103  0.40165730  0.27681900  1
  Mo  Mo168  1  0.29718042  0.29229405  0.62772046  1
  Mo  Mo169  1  0.91441802  0.30642938  0.38802671  1
  Mo  Mo170  1  0.19236585  0.39821509  0.49908805  1
  Mo  Mo171  1  0.90869218  0.10753676  0.37205052  1
  Mo  Mo172  1  0.10005153  0.50273303  0.87839152  1
  Mo  Mo173  1  0.38840148  0.80586714  0.49822701  1
  Mo  Mo174  1  -0.00474768  0.80756642  0.25031032  1
  Mo  Mo175  1  0.28878743  0.69990901  0.62965097  1
  Mo  Mo176  1  0.39404932  0.59813329  0.73557682  1
  Mo  Mo177  1  0.10071283  0.68986059  0.13133942  1
  Mo  Mo178  1  0.20673167  0.79274194  0.24905111  1
  Mo  Mo179  1  0.10763787  0.29780939  0.87843567  1
  Mo  Mo180  1  -0.00366462  0.59746078  0.25560103  1
  Mo  Mo181  1  0.70373409  0.10015208  0.87610701  1
  Mo  Mo182  1  0.92248576  0.10497223  0.11979985  1
  Mo  Mo183  1  0.09202654  0.70423799  0.87391911  1
  Mo  Mo184  1  0.51667790  0.69013166  0.63064937  1
  Mo  Mo185  1  0.20250317  0.79900238  0.49372501  1
  Mo  Mo186  1  0.85357533  0.20021667  0.25316098  1
  Mo  Mo187  1  0.71179688  0.09132198  0.35407155  1
  Mo  Mo188  1  0.60058459  0.39032224  0.73775805  1
  Mo  Mo189  1  0.10732273  0.09409723  0.88256285  1
  Mo  Mo190  1  0.00258391  0.00570503  0.47577499  1
  Mo  Mo191  1  0.38060533  0.62230104  0.00182918  1
  Mo  Mo192  1  0.72154761  0.29508496  0.15772588  1
  Mo  Mo193  1  0.40301266  0.00564005  0.00155588  1
  Mo  Mo194  1  0.30459397  0.89662267  0.13049923  1
  Mo  Mo195  1  0.02069723  0.20622645  0.25212545  1
  Mo  Mo196  1  0.90133259  0.29130319  0.11964379  1
  Mo  Mo197  1  0.80478436  0.39883818  0.25574598  1
  Mo  Mo198  1  0.39108212  0.80540841  0.24591711  1
  Mo  Mo199  1  0.79988381  0.60110597  0.50218720  1
