# generated using pymatgen
data_HfZrTaTiMo
_symmetry_space_group_name_H-M   'P 1'
_cell_length_a   15.21150080
_cell_length_b   15.21413182
_cell_length_c   16.83336834
_cell_angle_alpha   89.94838940
_cell_angle_beta   89.95078816
_cell_angle_gamma   89.98114573
_symmetry_Int_Tables_number   1
_chemical_formula_structural   HfZrTaTiMo
_chemical_formula_sum   'Hf40 Zr40 Ta40 Ti40 Mo40'
_cell_volume   3895.73947601
_cell_formula_units_Z   40
loop_
 _symmetry_equiv_pos_site_id
 _symmetry_equiv_pos_as_xyz
  1  'x, y, z'
loop_
 _atom_site_type_symbol
 _atom_site_label
 _atom_site_symmetry_multiplicity
 _atom_site_fract_x
 _atom_site_fract_y
 _atom_site_fract_z
 _atom_site_occupancy
  Hf  Hf0  1  0.90684238  0.70174813  0.87541001  1
  Hf  Hf1  1  0.38541447  0.39388516  0.49460606  1
  Hf  Hf2  1  0.38494600  0.19740425  0.00313094  1
  Hf  Hf3  1  0.10441136  0.11034625  0.87556630  1
  Hf  Hf4  1  0.41186123  0.78351646  0.76255400  1
  Hf  Hf5  1  0.50581193  0.10179474  0.88218757  1
  Hf  Hf6  1  0.68025699  0.29644224  0.87355806  1
  Hf  Hf7  1  0.58731922  0.40226970  0.01639228  1
  Hf  Hf8  1  0.69797975  0.30750176  0.37592968  1
  Hf  Hf9  1  0.67559359  0.89889253  0.38671360  1
  Hf  Hf10  1  0.79535560  0.79736100  0.49895601  1
  Hf  Hf11  1  0.60405981  -0.00377623  0.75375997  1
  Hf  Hf12  1  0.19965395  0.59573548  0.24730486  1
  Hf  Hf13  1  0.90121575  0.10089754  0.62021339  1
  Hf  Hf14  1  0.30338053  0.68778925  0.88207312  1
  Hf  Hf15  1  0.31579966  0.70138506  0.62818649  1
  Hf  Hf16  1  0.78914994  0.80252883  -0.01262401  1
  Hf  Hf17  1  0.09922648  0.50567270  0.87708936  1
  Hf  Hf18  1  0.40244131  0.59990575  0.02672405  1
  Hf  Hf19  1  0.91129903  0.09366536  0.11458066  1
  Hf  Hf20  1  0.40869399  0.59070843  0.49142372  1
  Hf  Hf21  1  0.21862851  0.81938860  0.75140066  1
  Hf  Hf22  1  0.20676945  -0.00007284  0.00232160  1
  Hf  Hf23  1  0.01392943  0.79585006  0.74271813  1
  Hf  Hf24  1  0.29303818  0.08056326  0.62998211  1
  Hf  Hf25  1  0.78206001  -0.01338825  0.25888240  1
  Hf  Hf26  1  0.51331996  0.68862591  0.89205147  1
  Hf  Hf27  1  0.68368707  0.51842146  0.62720602  1
  Hf  Hf28  1  0.89504331  0.51153116  0.87245111  1
  Hf  Hf29  1  0.00273479  0.59792986  0.24809255  1
  Hf  Hf30  1  0.29967490  0.07709859  0.14070303  1
  Hf  Hf31  1  0.20275753  0.21369967  0.48982044  1
  Hf  Hf32  1  0.10535965  0.90983665  0.87242206  1
  Hf  Hf33  1  0.49909646  0.07365060  0.38292193  1
  Hf  Hf34  1  0.01000622  0.20379867  -0.00234655  1
  Hf  Hf35  1  0.70187954  0.72577069  0.13601816  1
  Hf  Hf36  1  0.38750741  0.40047617  0.02155454  1
  Hf  Hf37  1  0.21086910  0.80310369  0.50103139  1
  Hf  Hf38  1  0.59280057  0.40571485  0.50041550  1
  Hf  Hf39  1  0.19568412  0.19813196  0.27124775  1
  Zr  Zr40  1  0.21025183  0.59784574  0.49582546  1
  Zr  Zr41  1  0.70534754  0.08258060  0.11462569  1
  Zr  Zr42  1  0.81256795  0.19414702  0.25423438  1
  Zr  Zr43  1  0.48402060  0.30314577  0.87233721  1
  Zr  Zr44  1  0.90593323  0.70363034  0.37094800  1
  Zr  Zr45  1  0.09772051  0.32502844  0.37928587  1
  Zr  Zr46  1  0.90128076  0.29797224  0.86205028  1
  Zr  Zr47  1  0.29610572  0.48657808  0.87289098  1
  Zr  Zr48  1  0.79994066  0.59569797  0.49273414  1
  Zr  Zr49  1  0.89263661  0.30039896  0.12657104  1
  Zr  Zr50  1  0.49671657  0.49276582  0.35643201  1
  Zr  Zr51  1  0.60297928  0.18549336  0.25050553  1
  Zr  Zr52  1  0.19684109  0.79444330  0.00641143  1
  Zr  Zr53  1  0.51998499  0.90400173  0.10930779  1
  Zr  Zr54  1  0.40250529  0.19717012  0.25752225  1
  Zr  Zr55  1  0.90054112  0.91095170  0.62875441  1
  Zr  Zr56  1  0.49513280  0.88616045  0.63096903  1
  Zr  Zr57  1  0.61724784  0.78469311  0.75759297  1
  Zr  Zr58  1  0.50667235  0.10355788  0.10834185  1
  Zr  Zr59  1  0.50548358  0.70620681  0.36044699  1
  Zr  Zr60  1  0.60065757  0.39306834  0.22875025  1
  Zr  Zr61  1  0.41182189  0.80140282  0.22881637  1
  Zr  Zr62  1  0.69785180  0.09908303  0.39058054  1
  Zr  Zr63  1  0.69360931  0.30271850  0.63088876  1
  Zr  Zr64  1  0.19565900  0.60726650  0.73822366  1
  Zr  Zr65  1  -0.00794710  0.01325730  0.25891208  1
  Zr  Zr66  1  0.30632434  0.90014684  0.35180761  1
  Zr  Zr67  1  0.19362828  0.20718921  0.73892410  1
  Zr  Zr68  1  0.89326925  0.70230525  0.63001843  1
  Zr  Zr69  1  0.00999457  0.81063108  0.50330509  1
  Zr  Zr70  1  0.90076615  0.30030341  0.63134934  1
  Zr  Zr71  1  0.78991128  0.40479362  -0.00460437  1
  Zr  Zr72  1  0.01435054  0.59887034  0.50599263  1
  Zr  Zr73  1  0.39391772  0.19229454  0.49601906  1
  Zr  Zr74  1  0.89408643  0.49812059  0.63624458  1
  Zr  Zr75  1  0.77926480  0.40995894  0.76104077  1
  Zr  Zr76  1  0.00025156  0.81890046  0.01056106  1
  Zr  Zr77  1  0.19619733  0.00938663  0.47695387  1
  Zr  Zr78  1  -0.00254141  0.40402325  -0.00024121  1
  Zr  Zr79  1  0.11495127  0.92123017  0.62662797  1
  Ta  Ta80  1  0.00240566  0.80154503  0.23914645  1
  Ta  Ta81  1  0.11244821  0.91267270  0.14197129  1
  Ta  Ta82  1  0.88750594  0.89822379  0.13112297  1
  Ta  Ta83  1  0.40015474  0.19191523  0.74404857  1
  Ta  Ta84  1  -0.00145413  0.40046595  0.24874234  1
  Ta  Ta85  1  0.90703050  0.90972639  0.86548438  1
  Ta  Ta86  1  0.51311931  0.66907570  0.63168388  1
  Ta  Ta87  1  0.50162170  0.89663655  0.88748713  1
  Ta  Ta88  1  0.60369180  0.60353116  0.48947448  1
  Ta  Ta89  1  0.79846605  0.19477850  -0.01060672  1
  Ta  Ta90  1  0.77832672  0.61898027  0.75568896  1
  Ta  Ta91  1  0.59699322  0.60634943  0.23148379  1
  Ta  Ta92  1  0.70110003  0.50717188  0.36324703  1
  Ta  Ta93  1  0.30088996  0.09332316  0.86931129  1
  Ta  Ta94  1  0.49267154  0.50084439  0.88110874  1
  Ta  Ta95  1  0.39647746  0.80658638  0.01012003  1
  Ta  Ta96  1  0.28243031  0.28456119  0.13089077  1
  Ta  Ta97  1  0.89401152  0.70080579  0.12742460  1
  Ta  Ta98  1  0.09805090  0.49212611  0.12457742  1
  Ta  Ta99  1  0.11074077  0.70919770  0.36692313  1
  Ta  Ta100  1  0.79948490  0.20594022  0.49995300  1
  Ta  Ta101  1  0.90584732  0.09589317  0.87380057  1
  Ta  Ta102  1  0.19751403  0.58894649  0.01488996  1
  Ta  Ta103  1  0.39146642  -0.01353462  0.75943109  1
  Ta  Ta104  1  0.19374674  0.38219246  0.00797615  1
  Ta  Ta105  1  0.39675063  0.59211661  0.22887823  1
  Ta  Ta106  1  0.10748669  0.10889712  0.13001616  1
  Ta  Ta107  1  0.39142054  0.39560243  0.23229283  1
  Ta  Ta108  1  0.80179164  0.40162742  0.49451934  1
  Ta  Ta109  1  0.90292321  0.29623467  0.37608344  1
  Ta  Ta110  1  0.00150700  0.61074473  0.01236809  1
  Ta  Ta111  1  0.49834492  0.09226212  0.62463454  1
  Ta  Ta112  1  0.40453027  0.78930304  0.49461012  1
  Ta  Ta113  1  0.69892873  0.09520238  0.61804484  1
  Ta  Ta114  1  0.69953080  0.70315279  0.35724222  1
  Ta  Ta115  1  0.79983650  0.81007118  0.76009598  1
  Ta  Ta116  1  0.59577569  0.78862909  0.50902998  1
  Ta  Ta117  1  0.39638650  -0.01793000  0.50152302  1
  Ta  Ta118  1  0.89789504  0.50627052  0.12561741  1
  Ta  Ta119  1  0.59460791  0.19839653  0.50915701  1
  Ti  Ti120  1  0.70777750  0.09904792  0.87543182  1
  Ti  Ti121  1  0.07870021  0.10932221  0.37768761  1
  Ti  Ti122  1  0.31176692  0.49918396  0.63137112  1
  Ti  Ti123  1  0.09362531  0.29417395  0.13757390  1
  Ti  Ti124  1  0.00048118  0.40541178  0.50810039  1
  Ti  Ti125  1  0.68519091  0.51926789  0.88562295  1
  Ti  Ti126  1  0.79940894  0.00303300  0.75197927  1
  Ti  Ti127  1  0.69103119  0.28070100  0.11207575  1
  Ti  Ti128  1  0.61107779  0.60808485  0.02086948  1
  Ti  Ti129  1  0.71340505  0.50939989  0.12608827  1
  Ti  Ti130  1  0.10429947  0.30862918  0.87129141  1
  Ti  Ti131  1  0.39116882  0.39427253  0.74486400  1
  Ti  Ti132  1  0.29492112  0.29940258  0.62516511  1
  Ti  Ti133  1  0.01332418  0.40193571  0.74042449  1
  Ti  Ti134  1  0.57713764  0.41577510  0.74700736  1
  Ti  Ti135  1  0.90114912  0.90659275  0.37751601  1
  Ti  Ti136  1  0.19408757  0.41329160  0.50530687  1
  Ti  Ti137  1  0.81705806  -0.00586823  -0.01143260  1
  Ti  Ti138  1  0.80269306  0.60055265  0.25291511  1
  Ti  Ti139  1  0.79502576  0.19181479  0.75158392  1
  Ti  Ti140  1  0.80459879  0.00115691  0.49784325  1
  Ti  Ti141  1  0.70118882  0.89997650  0.62039654  1
  Ti  Ti142  1  0.01017959  0.01175711  0.74773141  1
  Ti  Ti143  1  0.90686497  0.49029757  0.37369956  1
  Ti  Ti144  1  0.10245070  0.69846419  0.87838954  1
  Ti  Ti145  1  0.30478487  0.69645482  0.36011054  1
  Ti  Ti146  1  0.28582411  0.70843143  0.13064486  1
  Ti  Ti147  1  0.80393275  0.40527191  0.25104271  1
  Ti  Ti148  1  0.00128047  0.20428227  0.74527230  1
  Ti  Ti149  1  0.09839408  0.89959957  0.36045370  1
  Ti  Ti150  1  0.28798105  0.28958310  0.87219460  1
  Ti  Ti151  1  0.59570874  0.19779173  0.74029284  1
  Ti  Ti152  1  0.00574157  0.59998432  0.73895412  1
  Ti  Ti153  1  0.49989033  0.29403696  0.37557780  1
  Ti  Ti154  1  0.19388554  0.40257561  0.73438497  1
  Ti  Ti155  1  0.62303089  -0.01226859  -0.01669071  1
  Ti  Ti156  1  -0.00365865  0.20701987  0.50025819  1
  Ti  Ti157  1  0.09463821  0.11192448  0.61394469  1
  Ti  Ti158  1  0.49133685  0.29849390  0.62770261  1
  Ti  Ti159  1  0.20152333  0.40451233  0.25177071  1
  Mo  Mo160  1  0.20275492  0.00917083  0.75457438  1
  Mo  Mo161  1  0.09557118  0.50738988  0.37295779  1
  Mo  Mo162  1  0.71172779  0.90601725  0.11840113  1
  Mo  Mo163  1  0.20051296  0.20171642  0.00448024  1
  Mo  Mo164  1  0.29759095  0.09683768  0.36998731  1
  Mo  Mo165  1  0.29338832  0.48902156  0.36541738  1
  Mo  Mo166  1  0.49087036  0.48985447  0.62433460  1
  Mo  Mo167  1  0.10426566  0.49456432  0.62858792  1
  Mo  Mo168  1  0.31327525  0.89812394  0.62214571  1
  Mo  Mo169  1  0.19439412  0.79649771  0.24479333  1
  Mo  Mo170  1  0.89710701  0.10312030  0.39034412  1
  Mo  Mo171  1  0.80293964  0.59967389  0.00856958  1
  Mo  Mo172  1  0.50321065  0.50089393  0.13422210  1
  Mo  Mo173  1  0.30056259  0.89988860  0.13552867  1
  Mo  Mo174  1  0.60210964  0.79856346  -0.01001657  1
  Mo  Mo175  1  0.39807699  -0.00679988  -0.01249296  1
  Mo  Mo176  1  0.00277839  -0.00003934  0.00435187  1
  Mo  Mo177  1  0.31086060  0.89827492  0.88316914  1
  Mo  Mo178  1  0.41032457  0.58050563  0.75342773  1
  Mo  Mo179  1  -0.00452725  0.01197711  0.48624028  1
  Mo  Mo180  1  0.69574072  0.70695644  0.62371010  1
  Mo  Mo181  1  0.09894933  0.30474875  0.61313052  1
  Mo  Mo182  1  0.49501683  0.29265621  0.12184002  1
  Mo  Mo183  1  0.58408902  -0.01375688  0.24946738  1
  Mo  Mo184  1  0.59636478  0.58926290  0.76054473  1
  Mo  Mo185  1  0.41292757  -0.00039499  0.24964508  1
  Mo  Mo186  1  0.10668485  0.70367983  0.62681951  1
  Mo  Mo187  1  0.09369673  0.69963416  0.12765591  1
  Mo  Mo188  1  0.70814652  0.90814878  0.86895091  1
  Mo  Mo189  1  0.30762922  0.31560819  0.36723408  1
  Mo  Mo190  1  0.28745023  0.49155245  0.12656356  1
  Mo  Mo191  1  0.60807213  0.20055058  -0.00687601  1
  Mo  Mo192  1  0.00015847  0.20802784  0.25211796  1
  Mo  Mo193  1  0.49680992  0.88971706  0.38433130  1
  Mo  Mo194  1  0.19372424  0.00373897  0.26667557  1
  Mo  Mo195  1  0.61163467  0.81652043  0.24860379  1
  Mo  Mo196  1  0.59612769  -0.00461662  0.51916462  1
  Mo  Mo197  1  0.50404223  0.70248460  0.11847182  1
  Mo  Mo198  1  0.81023347  0.80322824  0.26084721  1
  Mo  Mo199  1  0.70784846  0.69186821  0.88657891  1
