# generated using pymatgen
data_HfZrTaTiMo
_symmetry_space_group_name_H-M   'P 1'
_cell_length_a   15.18398319
_cell_length_b   15.19160516
_cell_length_c   16.79579411
_cell_angle_alpha   90.07247529
_cell_angle_beta   90.00918064
_cell_angle_gamma   90.09254185
_symmetry_Int_Tables_number   1
_chemical_formula_structural   HfZrTaTiMo
_chemical_formula_sum   'Hf40 Zr40 Ta40 Ti40 Mo40'
_cell_volume   3874.26212546
_cell_formula_units_Z   40
loop_
 _symmetry_equiv_pos_site_id
 _symmetry_equiv_pos_as_xyz
  1  'x, y, z'
loop_
 _atom_site_type_symbol
 _atom_site_label
 _atom_site_symmetry_multiplicity
 _atom_site_fract_x
 _atom_site_fract_y
 _atom_site_fract_z
 _atom_site_occupancy
  Hf  Hf0  1  0.89264042  0.10748207  0.86203404  1
  Hf  Hf1  1  0.11146962  0.30534887  0.62117503  1
  Hf  Hf2  1  0.20201613  0.20761597  0.75709535  1
  Hf  Hf3  1  0.89571658  0.30476352  0.37755601  1
  Hf  Hf4  1  0.48947815  0.88082840  0.11403576  1
  Hf  Hf5  1  -0.00045032  -0.00623950  0.75752862  1
  Hf  Hf6  1  0.48731293  0.68036640  0.64006562  1
  Hf  Hf7  1  0.18755108  0.20774510  0.00024024  1
  Hf  Hf8  1  0.49420990  0.09976710  0.11617289  1
  Hf  Hf9  1  0.09778546  0.68995191  0.60744746  1
  Hf  Hf10  1  0.50013091  0.31650879  0.36191725  1
  Hf  Hf11  1  -0.00894540  0.01787245  0.48975688  1
  Hf  Hf12  1  0.09573889  0.89610092  0.12708636  1
  Hf  Hf13  1  0.60111013  -0.00894923  0.24958017  1
  Hf  Hf14  1  0.19749588  0.57114509  0.00866340  1
  Hf  Hf15  1  0.59356450  0.79423914  0.50860363  1
  Hf  Hf16  1  0.58699168  0.58567564  0.50871440  1
  Hf  Hf17  1  0.28377143  0.09927189  0.62530382  1
  Hf  Hf18  1  0.59510884  0.41753754  0.23269342  1
  Hf  Hf19  1  0.31523349  0.69293433  0.11324276  1
  Hf  Hf20  1  0.81181677  0.39633216  0.75102281  1
  Hf  Hf21  1  -0.00381587  0.01371890  -0.00903489  1
  Hf  Hf22  1  0.69780941  0.89737559  0.12066880  1
  Hf  Hf23  1  0.91182452  0.30457237  0.62023739  1
  Hf  Hf24  1  0.40037250  0.20993692  0.75318242  1
  Hf  Hf25  1  0.49997399  0.88521634  0.37714796  1
  Hf  Hf26  1  0.19982464  -0.00427427  0.25977835  1
  Hf  Hf27  1  0.70488779  0.70192067  0.63486388  1
  Hf  Hf28  1  0.89615530  0.10651619  0.13240688  1
  Hf  Hf29  1  0.70341176  0.29732194  0.36122580  1
  Hf  Hf30  1  0.82191607  0.40630320  0.23340530  1
  Hf  Hf31  1  0.19919438  0.00183895  0.00018830  1
  Hf  Hf32  1  0.49272220  0.69981934  0.86298844  1
  Hf  Hf33  1  0.60047920  0.59997774  -0.01320358  1
  Hf  Hf34  1  -0.01398000  0.00450057  0.26915661  1
  Hf  Hf35  1  0.39176088  -0.00096302  0.24665177  1
  Hf  Hf36  1  0.09876891  0.89321510  0.38395550  1
  Hf  Hf37  1  0.68909584  0.69777331  0.37946372  1
  Hf  Hf38  1  0.09894509  0.10581614  0.13410840  1
  Hf  Hf39  1  0.00136715  0.79356164  0.26043027  1
  Zr  Zr40  1  0.89672841  0.90253359  0.12100123  1
  Zr  Zr41  1  0.49099696  0.90401179  0.87824098  1
  Zr  Zr42  1  0.28101948  0.68147339  0.87286774  1
  Zr  Zr43  1  0.89472000  0.89747232  0.61357584  1
  Zr  Zr44  1  0.10565922  0.69256118  0.38573870  1
  Zr  Zr45  1  0.09700570  0.30710357  0.14552152  1
  Zr  Zr46  1  0.70386911  0.49648362  0.36981715  1
  Zr  Zr47  1  0.39089001  0.21220111  0.48791988  1
  Zr  Zr48  1  0.70386354  0.51114006  0.12165217  1
  Zr  Zr49  1  0.49118014  0.11442080  0.89290781  1
  Zr  Zr50  1  0.60755205  0.21069836  0.49951033  1
  Zr  Zr51  1  0.37719534  0.79684446  0.74590700  1
  Zr  Zr52  1  0.49304321  0.11156365  0.62185101  1
  Zr  Zr53  1  0.87076854  0.10438914  0.64625900  1
  Zr  Zr54  1  -0.01628285  0.78621089  0.74261700  1
  Zr  Zr55  1  0.50669069  0.10850017  0.36432673  1
  Zr  Zr56  1  0.82782116  0.60124914  0.74870552  1
  Zr  Zr57  1  0.69417847  0.10161552  0.88049716  1
  Zr  Zr58  1  0.79611251  0.80222705  0.25657663  1
  Zr  Zr59  1  0.71309370  0.71192124  0.86342352  1
  Zr  Zr60  1  0.48824718  0.89599464  0.62684505  1
  Zr  Zr61  1  0.89969359  0.69730854  0.11603669  1
  Zr  Zr62  1  0.39513686  0.00091075  0.49506768  1
  Zr  Zr63  1  0.60468864  0.01222283  0.49562547  1
  Zr  Zr64  1  0.29635699  0.87990169  0.38677539  1
  Zr  Zr65  1  0.59028374  0.40519200  0.75651471  1
  Zr  Zr66  1  0.49142736  0.30793278  0.11721176  1
  Zr  Zr67  1  0.91996468  0.71395058  0.89629953  1
  Zr  Zr68  1  0.93295963  0.50833809  0.88569961  1
  Zr  Zr69  1  0.08661795  0.10835057  0.63028638  1
  Zr  Zr70  1  0.59402754  0.00496045  0.75031324  1
  Zr  Zr71  1  0.09066574  0.88248956  0.87909090  1
  Zr  Zr72  1  0.38925817  0.78440433  0.24838505  1
  Zr  Zr73  1  0.10596843  0.90076395  0.61682719  1
  Zr  Zr74  1  0.70514008  0.91033018  0.62286881  1
  Zr  Zr75  1  -0.01083829  0.58804910  0.25142394  1
  Zr  Zr76  1  0.60497032  0.20770504  0.74501616  1
  Zr  Zr77  1  0.69932940  0.09856418  0.12263816  1
  Zr  Zr78  1  0.69793248  0.30057471  0.89173277  1
  Zr  Zr79  1  0.91457372  0.30458665  0.88691684  1
  Ta  Ta80  1  0.21542172  0.39506799  0.48485849  1
  Ta  Ta81  1  0.69209344  0.70485529  0.12055078  1
  Ta  Ta82  1  0.80908081  0.19709291  0.00572544  1
  Ta  Ta83  1  0.89954919  0.69463583  0.60117903  1
  Ta  Ta84  1  0.70486620  0.29803036  0.11548599  1
  Ta  Ta85  1  0.31348396  0.50314493  0.35674366  1
  Ta  Ta86  1  0.39666687  0.56296871  0.76384215  1
  Ta  Ta87  1  0.71244517  0.49926435  0.87965492  1
  Ta  Ta88  1  0.39175776  0.19818419  0.24478050  1
  Ta  Ta89  1  0.19285479  0.78616132  -0.00124537  1
  Ta  Ta90  1  0.59828145  0.79787607  -0.00744974  1
  Ta  Ta91  1  0.30410419  0.30716719  0.61809496  1
  Ta  Ta92  1  0.11836050  0.49833600  0.61872566  1
  Ta  Ta93  1  0.09788908  0.30678353  0.36517506  1
  Ta  Ta94  1  0.22077265  0.41424560  0.75072538  1
  Ta  Ta95  1  0.21168402  0.61175761  0.24989339  1
  Ta  Ta96  1  0.29466628  0.09567430  0.87562501  1
  Ta  Ta97  1  0.09568716  0.11572140  0.87013687  1
  Ta  Ta98  1  0.31747169  0.49817354  0.62153524  1
  Ta  Ta99  1  0.29507870  0.89350725  0.88128646  1
  Ta  Ta100  1  0.79638453  -0.00929657  -0.01345028  1
  Ta  Ta101  1  0.01520643  0.40781805  0.49391279  1
  Ta  Ta102  1  0.20199932  0.19163711  0.26643607  1
  Ta  Ta103  1  0.89213054  0.69541959  0.39325623  1
  Ta  Ta104  1  0.40939570  0.42030267  0.49231224  1
  Ta  Ta105  1  0.80493706  0.60045050  -0.00189469  1
  Ta  Ta106  1  0.70509210  0.49576964  0.62922375  1
  Ta  Ta107  1  0.19524333  0.01193603  0.48679251  1
  Ta  Ta108  1  0.11174899  0.32691247  0.87578903  1
  Ta  Ta109  1  0.70053610  0.90140164  0.37851090  1
  Ta  Ta110  1  0.71007111  0.29671350  0.62595479  1
  Ta  Ta111  1  0.38340707  0.00369798  0.75138482  1
  Ta  Ta112  1  0.19362361  0.20095953  0.47981344  1
  Ta  Ta113  1  0.21191110  0.58181391  0.49310893  1
  Ta  Ta114  1  0.79476553  0.59189388  0.50550208  1
  Ta  Ta115  1  0.30873859  0.48953233  0.14490621  1
  Ta  Ta116  1  0.10642231  0.69740386  0.12942274  1
  Ta  Ta117  1  0.80311274  0.40011283  0.50732005  1
  Ta  Ta118  1  0.40450313  0.59013536  -0.01009155  1
  Ta  Ta119  1  0.81089783  0.40593618  0.00888238  1
  Ti  Ti120  1  0.30279581  0.30808473  0.35969181  1
  Ti  Ti121  1  0.02959480  0.40940435  0.00686091  1
  Ti  Ti122  1  0.60807677  0.40044855  0.50342218  1
  Ti  Ti123  1  0.90482235  0.50113850  0.38411733  1
  Ti  Ti124  1  -0.00086376  0.20465927  0.48938894  1
  Ti  Ti125  1  -0.00202733  0.22012188  0.75324180  1
  Ti  Ti126  1  0.10465959  0.49575941  0.14542650  1
  Ti  Ti127  1  0.38774813  0.40810530  0.00472611  1
  Ti  Ti128  1  0.59692761  -0.00190577  -0.00242508  1
  Ti  Ti129  1  0.60145066  0.20460522  0.23816154  1
  Ti  Ti130  1  0.37955039  0.19897985  0.01099662  1
  Ti  Ti131  1  0.79366067  -0.02888038  0.77036766  1
  Ti  Ti132  1  0.19930786  -0.00968195  0.75822800  1
  Ti  Ti133  1  0.60586039  0.80864454  0.75132861  1
  Ti  Ti134  1  0.59093270  0.78481370  0.24687537  1
  Ti  Ti135  1  0.49331011  0.30903061  0.89377043  1
  Ti  Ti136  1  0.80042197  0.19674549  0.49958911  1
  Ti  Ti137  1  0.29232232  0.68917747  0.61876150  1
  Ti  Ti138  1  0.59583098  0.40896278  0.00452878  1
  Ti  Ti139  1  0.30341396  0.69155490  0.38677693  1
  Ti  Ti140  1  0.29036325  0.89183296  0.11956711  1
  Ti  Ti141  1  0.38749225  -0.00450754  0.00573658  1
  Ti  Ti142  1  0.29158017  0.89108441  0.61162293  1
  Ti  Ti143  1  0.60343360  0.59043603  0.75808778  1
  Ti  Ti144  1  -0.00640961  0.79973326  0.49523278  1
  Ti  Ti145  1  0.79297333  0.60624595  0.25031127  1
  Ti  Ti146  1  0.49646867  0.32162531  0.62046700  1
  Ti  Ti147  1  -0.01203818  0.20472006  0.26219403  1
  Ti  Ti148  1  0.10960182  0.49631510  0.36419406  1
  Ti  Ti149  1  0.28957233  0.29742515  0.13850065  1
  Ti  Ti150  1  0.79529668  0.01234536  0.49219011  1
  Ti  Ti151  1  0.48791962  0.69147200  0.37943385  1
  Ti  Ti152  1  0.88551378  0.90045815  0.38535969  1
  Ti  Ti153  1  0.30392549  0.30222657  0.88359971  1
  Ti  Ti154  1  0.18375141  0.78489201  0.75096208  1
  Ti  Ti155  1  0.91993588  0.50603217  0.61687832  1
  Ti  Ti156  1  0.71736028  0.10321690  0.35422240  1
  Ti  Ti157  1  0.01919962  0.42033349  0.74768904  1
  Ti  Ti158  1  0.50087660  0.51200039  0.36217657  1
  Ti  Ti159  1  0.91154752  0.30189867  0.11634194  1
  Mo  Mo160  1  0.09368624  0.10740555  0.37148734  1
  Mo  Mo161  1  -0.00047270  0.40203437  0.25800899  1
  Mo  Mo162  1  0.79969600  0.21523760  0.75241677  1
  Mo  Mo163  1  0.80244243  0.79838225  0.74680745  1
  Mo  Mo164  1  0.88808206  0.11152838  0.37324983  1
  Mo  Mo165  1  0.50751904  0.69368066  0.11321001  1
  Mo  Mo166  1  0.00926452  0.80146142  0.01081288  1
  Mo  Mo167  1  0.09672216  0.68090079  0.87733060  1
  Mo  Mo168  1  0.70052037  0.10657175  0.62438679  1
  Mo  Mo169  1  0.20315631  0.40253029  0.26339840  1
  Mo  Mo170  1  0.50511593  0.49369447  0.62755614  1
  Mo  Mo171  1  0.50244880  0.49048117  0.88427462  1
  Mo  Mo172  1  0.59790613  0.61331749  0.24793589  1
  Mo  Mo173  1  0.40029315  0.38533470  0.75384541  1
  Mo  Mo174  1  0.49096301  0.51690567  0.11877370  1
  Mo  Mo175  1  0.02137152  0.59797853  0.74118546  1
  Mo  Mo176  1  0.20345068  0.59712744  0.73927336  1
  Mo  Mo177  1  0.11892031  0.50873149  0.87210439  1
  Mo  Mo178  1  0.00049894  0.58634921  0.49087249  1
  Mo  Mo179  1  0.79261637  0.79963883  0.00426031  1
  Mo  Mo180  1  0.39793263  0.59802989  0.49819075  1
  Mo  Mo181  1  0.00072351  0.20807976  -0.00329588  1
  Mo  Mo182  1  0.39730511  0.78205399  0.51063165  1
  Mo  Mo183  1  0.20496248  0.79506462  0.50693662  1
  Mo  Mo184  1  0.01461289  0.59816416  0.01769572  1
  Mo  Mo185  1  0.19875781  0.79275230  0.24341426  1
  Mo  Mo186  1  0.79780499  -0.00084186  0.25924282  1
  Mo  Mo187  1  0.79643496  0.79975242  0.49031984  1
  Mo  Mo188  1  0.30007306  0.10274439  0.37376134  1
  Mo  Mo189  1  0.80030964  0.20712658  0.23674330  1
  Mo  Mo190  1  0.21166166  0.39117350  0.01104312  1
  Mo  Mo191  1  0.30022654  0.47907621  0.88085570  1
  Mo  Mo192  1  0.69307599  0.89609124  0.88216710  1
  Mo  Mo193  1  0.59748428  0.20811609  0.00793428  1
  Mo  Mo194  1  0.91658727  0.49517808  0.10911374  1
  Mo  Mo195  1  0.41684390  0.59762238  0.24708299  1
  Mo  Mo196  1  0.88982203  0.89686356  0.88400927  1
  Mo  Mo197  1  0.40236259  0.39731068  0.24666665  1
  Mo  Mo198  1  0.39051040  0.79702332  -0.00761282  1
  Mo  Mo199  1  0.29683330  0.10297505  0.12483994  1
