# generated using pymatgen
data_HfZrTaTiMo
_symmetry_space_group_name_H-M   'P 1'
_cell_length_a   15.21888363
_cell_length_b   15.21128524
_cell_length_c   16.82226450
_cell_angle_alpha   90.05861740
_cell_angle_beta   90.04026445
_cell_angle_gamma   90.01375076
_symmetry_Int_Tables_number   1
_chemical_formula_structural   HfZrTaTiMo
_chemical_formula_sum   'Hf40 Zr40 Ta40 Ti40 Mo40'
_cell_volume   3894.33059514
_cell_formula_units_Z   40
loop_
 _symmetry_equiv_pos_site_id
 _symmetry_equiv_pos_as_xyz
  1  'x, y, z'
loop_
 _atom_site_type_symbol
 _atom_site_label
 _atom_site_symmetry_multiplicity
 _atom_site_fract_x
 _atom_site_fract_y
 _atom_site_fract_z
 _atom_site_occupancy
  Hf  Hf0  1  0.79067474  0.19089004  0.75221509  1
  Hf  Hf1  1  0.50142397  0.51135137  0.87569110  1
  Hf  Hf2  1  0.29262425  0.70735955  0.87038334  1
  Hf  Hf3  1  0.50831980  0.31791647  0.87456095  1
  Hf  Hf4  1  0.50082561  0.90908443  0.87357127  1
  Hf  Hf5  1  0.31103790  0.90386912  0.38025830  1
  Hf  Hf6  1  0.49763162  0.71545702  0.12270391  1
  Hf  Hf7  1  0.40078379  0.81113185  0.73312805  1
  Hf  Hf8  1  0.28918096  0.71219558  0.13941451  1
  Hf  Hf9  1  0.30470812  0.28141248  0.63402231  1
  Hf  Hf10  1  0.79689851  0.79787866  0.74018473  1
  Hf  Hf11  1  0.70301978  0.51298975  0.61396850  1
  Hf  Hf12  1  0.90344303  0.88395689  0.37835484  1
  Hf  Hf13  1  0.30520581  0.10481351  0.12070776  1
  Hf  Hf14  1  0.60072072  0.79728841  0.74417110  1
  Hf  Hf15  1  0.50819174  0.91527446  0.11923618  1
  Hf  Hf16  1  0.81102947  0.61180760  0.49277184  1
  Hf  Hf17  1  0.69867174  0.50593677  0.37246536  1
  Hf  Hf18  1  0.51090408  0.11707777  0.12511269  1
  Hf  Hf19  1  0.69066494  0.30613401  0.37417314  1
  Hf  Hf20  1  0.78526398  0.38955503  0.00911729  1
  Hf  Hf21  1  0.69652607  0.49735478  0.87208788  1
  Hf  Hf22  1  0.61147139  0.82752490  0.25661301  1
  Hf  Hf23  1  0.90213590  0.10498993  0.61103623  1
  Hf  Hf24  1  0.41881576  0.59290354  0.50482734  1
  Hf  Hf25  1  0.29312624  0.30457362  0.89503164  1
  Hf  Hf26  1  0.08977933  0.29973186  0.88838944  1
  Hf  Hf27  1  0.59578133  0.61617810  0.24917788  1
  Hf  Hf28  1  0.30539342  0.47593240  0.37861528  1
  Hf  Hf29  1  0.90425817  0.91165662  0.62938873  1
  Hf  Hf30  1  0.00601371  0.19760629  0.24097861  1
  Hf  Hf31  1  0.09537634  0.49220507  0.62252699  1
  Hf  Hf32  1  0.09341604  0.48508458  0.36150350  1
  Hf  Hf33  1  0.20657219  0.00338469  0.24001722  1
  Hf  Hf34  1  0.71433936  0.90817849  0.87961425  1
  Hf  Hf35  1  0.42489237  0.41023913  0.02658983  1
  Hf  Hf36  1  0.81687908  0.80149340  0.24266954  1
  Hf  Hf37  1  0.71203430  0.91735747  0.11057019  1
  Hf  Hf38  1  0.41921326  0.00653032  0.25351205  1
  Hf  Hf39  1  0.49997928  0.49676126  0.36150176  1
  Zr  Zr40  1  0.48308540  0.11052754  0.62264192  1
  Zr  Zr41  1  0.79980635  0.60548384  0.24633044  1
  Zr  Zr42  1  0.10243051  0.89627914  0.36458579  1
  Zr  Zr43  1  0.09720550  0.28661635  0.63025045  1
  Zr  Zr44  1  0.70088678  0.71030546  0.11510298  1
  Zr  Zr45  1  0.38534777  0.61052893  0.01500513  1
  Zr  Zr46  1  0.20751301  -0.01588412  0.01674077  1
  Zr  Zr47  1  0.49949846  0.70523742  0.88135535  1
  Zr  Zr48  1  0.20312265  0.18751037  0.76412549  1
  Zr  Zr49  1  0.39881351  0.39452680  0.74579128  1
  Zr  Zr50  1  0.61497503  0.00505413  0.74551634  1
  Zr  Zr51  1  0.40548307  0.20616639  0.00207461  1
  Zr  Zr52  1  0.19639079  0.79665711  0.49216163  1
  Zr  Zr53  1  -0.00561484  -0.01227846  0.23397818  1
  Zr  Zr54  1  0.29545833  0.70262434  0.61707479  1
  Zr  Zr55  1  0.81174152  0.40302678  0.49895168  1
  Zr  Zr56  1  -0.00691598  0.19017643  0.75557849  1
  Zr  Zr57  1  0.90181283  0.09175971  0.38224054  1
  Zr  Zr58  1  0.61314315  0.22384114  -0.00829070  1
  Zr  Zr59  1  0.89829908  0.69423708  0.87988626  1
  Zr  Zr60  1  0.29102240  0.49948088  0.89194735  1
  Zr  Zr61  1  0.70224628  0.10011104  0.60349583  1
  Zr  Zr62  1  0.20700322  0.59162909  0.26292042  1
  Zr  Zr63  1  0.79636835  0.19248043  0.26619904  1
  Zr  Zr64  1  0.80383366  0.39806811  0.73941476  1
  Zr  Zr65  1  0.90009827  0.49366297  0.87744296  1
  Zr  Zr66  1  0.38459149  0.38716461  0.22759113  1
  Zr  Zr67  1  0.41349595  0.60351963  0.73392687  1
  Zr  Zr68  1  0.29807587  0.91101252  0.86730591  1
  Zr  Zr69  1  0.29639751  0.49268968  0.61709936  1
  Zr  Zr70  1  -0.00014382  0.59394436  0.49465407  1
  Zr  Zr71  1  0.88461332  0.09608942  0.12294845  1
  Zr  Zr72  1  0.10236129  0.88623506  0.87193088  1
  Zr  Zr73  1  0.00648557  0.58540747  0.01405197  1
  Zr  Zr74  1  0.19278333  0.59959413  0.75184756  1
  Zr  Zr75  1  0.91182870  0.89800268  0.86862521  1
  Zr  Zr76  1  0.51891658  0.91145156  0.39572601  1
  Zr  Zr77  1  0.59482975  0.21341339  0.74856931  1
  Zr  Zr78  1  0.19868505  0.37668596  0.49784591  1
  Zr  Zr79  1  0.00405422  -0.01133991  0.02162148  1
  Ta  Ta80  1  0.01159386  0.20512646  0.49091530  1
  Ta  Ta81  1  0.59965214  0.41139484  0.73036865  1
  Ta  Ta82  1  0.19569478  0.78300740  0.00427606  1
  Ta  Ta83  1  0.10828922  0.10179863  0.37314624  1
  Ta  Ta84  1  -0.01487372  0.38837943  0.01695044  1
  Ta  Ta85  1  0.70086111  0.29552456  0.14518405  1
  Ta  Ta86  1  0.80433293  0.80418841  0.50747947  1
  Ta  Ta87  1  0.09559353  0.69487876  0.62059864  1
  Ta  Ta88  1  0.68516189  0.08871840  0.39443080  1
  Ta  Ta89  1  0.58004799  0.21750235  0.49620653  1
  Ta  Ta90  1  -0.00951261  0.59523042  0.74163454  1
  Ta  Ta91  1  0.09917065  0.68971098  0.14059457  1
  Ta  Ta92  1  0.69555409  0.30082115  0.60952842  1
  Ta  Ta93  1  0.09445123  0.08720481  0.88522562  1
  Ta  Ta94  1  0.40840907  0.79847433  0.50748802  1
  Ta  Ta95  1  0.40543767  0.80127985  0.25734727  1
  Ta  Ta96  1  -0.00571499  0.78979916  0.50852048  1
  Ta  Ta97  1  0.70040607  0.69542413  0.88747548  1
  Ta  Ta98  1  0.09586210  0.08650287  0.62057662  1
  Ta  Ta99  1  0.21294223  0.21074213  0.24223233  1
  Ta  Ta100  1  0.90139636  0.49471687  0.35556615  1
  Ta  Ta101  1  0.10824475  0.29340386  0.36324704  1
  Ta  Ta102  1  0.59645864  0.58867673  0.01416980  1
  Ta  Ta103  1  0.79443014  0.58871558  0.01592452  1
  Ta  Ta104  1  0.48133393  0.29814054  0.36579668  1
  Ta  Ta105  1  0.59107049  0.41347363  0.50559197  1
  Ta  Ta106  1  0.89344541  0.08856289  0.88195400  1
  Ta  Ta107  1  0.38787768  0.81798567  0.00487841  1
  Ta  Ta108  1  0.19162153  0.39610261  0.75648201  1
  Ta  Ta109  1  0.50255251  0.90679009  0.61142764  1
  Ta  Ta110  1  0.41180255  0.38201490  0.50724588  1
  Ta  Ta111  1  0.88849445  0.29188684  0.88243116  1
  Ta  Ta112  1  0.69377184  0.10486814  0.12849053  1
  Ta  Ta113  1  0.27191058  0.31038910  0.10091419  1
  Ta  Ta114  1  0.19881296  0.59668356  0.48341884  1
  Ta  Ta115  1  0.00545690  0.78995627  0.02069820  1
  Ta  Ta116  1  0.30115114  0.10964090  0.37185027  1
  Ta  Ta117  1  0.49506480  0.10679475  0.86786818  1
  Ta  Ta118  1  0.00381682  0.78904045  0.73614855  1
  Ta  Ta119  1  0.60017356  0.80757982  -0.00662755  1
  Ti  Ti120  1  0.49165147  0.10329661  0.39082763  1
  Ti  Ti121  1  0.58773503  0.19343240  0.26427689  1
  Ti  Ti122  1  -0.00305842  0.39822665  0.75039087  1
  Ti  Ti123  1  0.12068247  0.87444538  0.14337943  1
  Ti  Ti124  1  0.09198055  0.69335870  0.87498771  1
  Ti  Ti125  1  0.10225577  0.89954361  0.62269096  1
  Ti  Ti126  1  0.79646747  0.19237457  -0.00425336  1
  Ti  Ti127  1  -0.00584983  0.19368175  0.00867142  1
  Ti  Ti128  1  0.90122984  0.30186967  0.61865752  1
  Ti  Ti129  1  -0.00223138  0.39586724  0.49656674  1
  Ti  Ti130  1  -0.00801391  0.60022053  0.24317771  1
  Ti  Ti131  1  0.70244315  0.72045660  0.38328779  1
  Ti  Ti132  1  0.89227774  0.48222098  0.14207593  1
  Ti  Ti133  1  0.81174057  0.79990350  0.00408976  1
  Ti  Ti134  1  0.29847038  0.91162889  0.61557319  1
  Ti  Ti135  1  0.40860284  0.00504122  -0.00174620  1
  Ti  Ti136  1  0.91198759  0.30880522  0.36562142  1
  Ti  Ti137  1  0.39040987  0.01674305  0.74788354  1
  Ti  Ti138  1  0.08554230  0.70267697  0.36109069  1
  Ti  Ti139  1  0.11483497  0.48709796  0.13432967  1
  Ti  Ti140  1  0.38016648  0.19911550  0.49601544  1
  Ti  Ti141  1  0.20202695  0.00721718  0.49641694  1
  Ti  Ti142  1  0.00817217  -0.00581003  0.49560134  1
  Ti  Ti143  1  0.19660418  0.80116630  0.73840018  1
  Ti  Ti144  1  0.70018876  0.90684567  0.60799876  1
  Ti  Ti145  1  0.80087138  0.60413466  0.73958629  1
  Ti  Ti146  1  0.78385473  -0.00657687  0.26033731  1
  Ti  Ti147  1  0.80388902  0.20733302  0.48712537  1
  Ti  Ti148  1  0.68333923  0.48621225  0.14260111  1
  Ti  Ti149  1  0.09616990  0.49739760  0.87867533  1
  Ti  Ti150  1  0.09088166  0.29722081  0.12060754  1
  Ti  Ti151  1  0.29646299  0.10240963  0.88783224  1
  Ti  Ti152  1  0.39883137  0.59835192  0.24160334  1
  Ti  Ti153  1  0.61040046  0.02024700  -0.01439088  1
  Ti  Ti154  1  0.60700687  0.60726782  0.74237926  1
  Ti  Ti155  1  0.31008297  0.69541464  0.37535691  1
  Ti  Ti156  1  0.19041208  -0.00329337  0.74608478  1
  Ti  Ti157  1  0.50546596  0.70660730  0.38005585  1
  Ti  Ti158  1  0.28739351  0.09469684  0.62168075  1
  Ti  Ti159  1  0.69286899  0.70717841  0.61018874  1
  Mo  Mo160  1  0.90731214  0.69712796  0.37247810  1
  Mo  Mo161  1  0.39541826  0.19395868  0.76428465  1
  Mo  Mo162  1  0.80536177  -0.00407297  0.49252806  1
  Mo  Mo163  1  0.18373318  0.19366755  -0.00117150  1
  Mo  Mo164  1  0.19153596  0.38914828  0.24142249  1
  Mo  Mo165  1  0.89651634  0.69914477  0.62849572  1
  Mo  Mo166  1  0.29007555  0.50516174  0.11814624  1
  Mo  Mo167  1  0.00353521  0.78698145  0.23623653  1
  Mo  Mo168  1  0.38783954  0.00476091  0.50594256  1
  Mo  Mo169  1  0.19476823  0.18400201  0.49872623  1
  Mo  Mo170  1  0.70414985  0.10450118  0.87445191  1
  Mo  Mo171  1  0.80092608  0.39577701  0.25216012  1
  Mo  Mo172  1  0.60342252  0.79556929  0.50413959  1
  Mo  Mo173  1  0.79871454  0.00434913  -0.00194820  1
  Mo  Mo174  1  0.11038379  0.11350695  0.11865708  1
  Mo  Mo175  1  0.50126585  0.50950354  0.14380968  1
  Mo  Mo176  1  0.71164498  0.90543962  0.38950792  1
  Mo  Mo177  1  0.51153887  0.70386967  0.61846637  1
  Mo  Mo178  1  0.51037928  0.50357880  0.62321728  1
  Mo  Mo179  1  0.21000092  0.79581059  0.26775400  1
  Mo  Mo180  1  0.90131945  0.88924397  0.12317539  1
  Mo  Mo181  1  0.50035641  0.30288848  0.62269622  1
  Mo  Mo182  1  0.29811233  0.28919309  0.37358414  1
  Mo  Mo183  1  0.70600942  0.30656740  0.86946562  1
  Mo  Mo184  1  0.81051312  0.00516211  0.74912886  1
  Mo  Mo185  1  0.60420939  0.61056667  0.48678694  1
  Mo  Mo186  1  0.18479244  0.60644673  0.00463323  1
  Mo  Mo187  1  0.01079696  0.00123676  0.74865018  1
  Mo  Mo188  1  0.89306989  0.29382130  0.12503068  1
  Mo  Mo189  1  0.61393716  0.01618475  0.25525717  1
  Mo  Mo190  1  0.31484065  0.89362247  0.13482325  1
  Mo  Mo191  1  0.39912137  0.19621740  0.24877055  1
  Mo  Mo192  1  0.61042558  0.41460978  0.01062057  1
  Mo  Mo193  1  0.59746116  0.39675551  0.25339114  1
  Mo  Mo194  1  0.90617210  0.49810201  0.62757410  1
  Mo  Mo195  1  0.17269575  0.41128161  0.00471560  1
  Mo  Mo196  1  -0.00362749  0.39413484  0.23563197  1
  Mo  Mo197  1  0.90104143  0.68941467  0.11553147  1
  Mo  Mo198  1  0.52175396  0.30500280  0.14153911  1
  Mo  Mo199  1  0.59472361  0.00783472  0.51116757  1
