# generated using pymatgen
data_HfZrTaTiMo
_symmetry_space_group_name_H-M   'P 1'
_cell_length_a   15.20711478
_cell_length_b   15.22036977
_cell_length_c   16.85409166
_cell_angle_alpha   90.04665906
_cell_angle_beta   90.00028280
_cell_angle_gamma   89.96036485
_symmetry_Int_Tables_number   1
_chemical_formula_structural   HfZrTaTiMo
_chemical_formula_sum   'Hf40 Zr40 Ta40 Ti40 Mo40'
_cell_volume   3901.01060559
_cell_formula_units_Z   40
loop_
 _symmetry_equiv_pos_site_id
 _symmetry_equiv_pos_as_xyz
  1  'x, y, z'
loop_
 _atom_site_type_symbol
 _atom_site_label
 _atom_site_symmetry_multiplicity
 _atom_site_fract_x
 _atom_site_fract_y
 _atom_site_fract_z
 _atom_site_occupancy
  Hf  Hf0  1  0.68832560  0.29425376  0.37365433  1
  Hf  Hf1  1  0.10997205  0.92085122  0.37105775  1
  Hf  Hf2  1  0.39318865  0.21294206  0.74211281  1
  Hf  Hf3  1  0.67881484  0.29344657  0.13325904  1
  Hf  Hf4  1  0.01762123  0.60219117  0.00202922  1
  Hf  Hf5  1  -0.01228915  0.21449031  0.23194320  1
  Hf  Hf6  1  0.27947014  0.28239776  0.38405728  1
  Hf  Hf7  1  0.08690020  0.32031753  0.11591825  1
  Hf  Hf8  1  0.89762893  0.30331980  0.36660581  1
  Hf  Hf9  1  0.49656890  0.89047427  0.86816370  1
  Hf  Hf10  1  0.80165377  0.19633336  0.49801576  1
  Hf  Hf11  1  0.79940594  0.80006795  -0.00319869  1
  Hf  Hf12  1  0.09467432  0.30372046  0.63788511  1
  Hf  Hf13  1  0.58001782  0.41365456  0.25674395  1
  Hf  Hf14  1  0.31285159  0.10450639  0.87658722  1
  Hf  Hf15  1  0.90345852  0.70220562  0.62614670  1
  Hf  Hf16  1  0.19612597  -0.00502297  0.76370820  1
  Hf  Hf17  1  0.87724715  0.30287016  0.87861823  1
  Hf  Hf18  1  -0.00122531  0.18822775  0.77586174  1
  Hf  Hf19  1  0.00670813  0.59726265  0.49322154  1
  Hf  Hf20  1  0.11404062  0.70210582  0.62066153  1
  Hf  Hf21  1  0.38506061  0.17640806  0.50469905  1
  Hf  Hf22  1  0.69797549  0.70476738  0.12353224  1
  Hf  Hf23  1  0.48662246  0.30217650  0.39362451  1
  Hf  Hf24  1  0.10666403  0.10284518  0.63574456  1
  Hf  Hf25  1  0.69172230  0.48977955  0.87683038  1
  Hf  Hf26  1  0.20875010  0.81195430  0.49283266  1
  Hf  Hf27  1  0.70135421  0.88480261  0.37270742  1
  Hf  Hf28  1  -0.00615106  0.40693617  0.77567018  1
  Hf  Hf29  1  0.40701601  -0.00630419  -0.00174442  1
  Hf  Hf30  1  0.79136354  0.58901681  0.76763732  1
  Hf  Hf31  1  0.29727614  0.10543711  0.11968673  1
  Hf  Hf32  1  0.80122475  -0.00981417  0.49778961  1
  Hf  Hf33  1  0.38438623  0.61001121  0.72857540  1
  Hf  Hf34  1  0.69698120  0.09126061  0.62435019  1
  Hf  Hf35  1  0.58674444  -0.02079485  0.49953213  1
  Hf  Hf36  1  0.49083453  0.30534808  0.88327654  1
  Hf  Hf37  1  0.18724296  0.20474040  -0.01765335  1
  Hf  Hf38  1  0.89663578  0.70849231  0.36559720  1
  Hf  Hf39  1  0.79223269  0.39872373  0.01591486  1
  Zr  Zr40  1  0.30137067  0.89217933  0.13034236  1
  Zr  Zr41  1  0.90552132  0.09292885  0.36395097  1
  Zr  Zr42  1  0.30852723  0.52385143  0.87604394  1
  Zr  Zr43  1  0.50502116  0.10596598  0.12332166  1
  Zr  Zr44  1  0.59582795  0.20387559  0.73995005  1
  Zr  Zr45  1  0.20751384  0.60537506  0.48212335  1
  Zr  Zr46  1  0.90458564  0.09699299  0.62974394  1
  Zr  Zr47  1  0.01078110  0.60377218  0.75959798  1
  Zr  Zr48  1  0.01803867  0.21045894  0.49012963  1
  Zr  Zr49  1  0.50073734  0.30747718  0.60136215  1
  Zr  Zr50  1  0.81061791  0.00247746  -0.01088090  1
  Zr  Zr51  1  0.28917397  0.30777344  0.61617912  1
  Zr  Zr52  1  0.51405364  0.10108277  0.86770090  1
  Zr  Zr53  1  0.19830478  -0.00674305  -0.00834868  1
  Zr  Zr54  1  0.08591800  0.88926227  0.87781090  1
  Zr  Zr55  1  0.17719320  0.39995947  0.48598606  1
  Zr  Zr56  1  0.00422381  0.80150407  0.23229889  1
  Zr  Zr57  1  0.01036033  -0.00001345  0.49815712  1
  Zr  Zr58  1  0.61392324  0.00259714  0.24933166  1
  Zr  Zr59  1  0.49489737  0.67863341  0.13039196  1
  Zr  Zr60  1  0.47633416  0.30722223  0.11985826  1
  Zr  Zr61  1  0.39077159  0.77906624  -0.00284945  1
  Zr  Zr62  1  0.80180755  0.39001222  0.23797077  1
  Zr  Zr63  1  0.89735015  0.30212921  0.63550349  1
  Zr  Zr64  1  0.31801304  0.49690043  0.12976073  1
  Zr  Zr65  1  0.80710503  0.59906657  0.48952360  1
  Zr  Zr66  1  0.80371488  0.79698090  0.76340249  1
  Zr  Zr67  1  0.61162398  0.60769210  0.48709220  1
  Zr  Zr68  1  0.61444704  -0.00554465  -0.00326683  1
  Zr  Zr69  1  0.79660810  0.40677004  0.49083294  1
  Zr  Zr70  1  -0.01398318  0.19786111  -0.00123317  1
  Zr  Zr71  1  0.28578057  0.30292483  0.11742843  1
  Zr  Zr72  1  0.20403871  0.41628247  0.76124421  1
  Zr  Zr73  1  0.02303334  0.01333715  0.22739319  1
  Zr  Zr74  1  0.69481450  0.68754997  0.63308255  1
  Zr  Zr75  1  0.40819338  -0.00617785  0.24390952  1
  Zr  Zr76  1  0.49927658  0.67978795  0.86662084  1
  Zr  Zr77  1  0.89459787  0.49709052  0.63298292  1
  Zr  Zr78  1  0.91461393  0.70629996  0.88433871  1
  Zr  Zr79  1  0.20690965  0.80546112  0.26099217  1
  Ta  Ta80  1  0.91304422  0.49771060  0.13123346  1
  Ta  Ta81  1  0.90176953  0.89761775  0.62686879  1
  Ta  Ta82  1  0.29346459  0.68739409  0.14091317  1
  Ta  Ta83  1  0.78726939  0.19245158  0.01090904  1
  Ta  Ta84  1  0.79522586  0.79669182  0.50167516  1
  Ta  Ta85  1  0.59666871  0.79951448  0.24871010  1
  Ta  Ta86  1  0.00446504  0.00451860  0.01497740  1
  Ta  Ta87  1  0.70002396  0.30437657  0.61838359  1
  Ta  Ta88  1  0.19148831  0.39771999  0.26270286  1
  Ta  Ta89  1  0.41891695  0.80930839  0.50483205  1
  Ta  Ta90  1  0.19236598  0.79167951  0.00677748  1
  Ta  Ta91  1  0.59970594  0.59308749  0.00136521  1
  Ta  Ta92  1  0.59861517  0.19844211  -0.00043145  1
  Ta  Ta93  1  0.51166413  0.88384500  0.11888734  1
  Ta  Ta94  1  0.78542284  0.17864655  0.23759428  1
  Ta  Ta95  1  0.30656177  0.90747251  0.62190013  1
  Ta  Ta96  1  0.18335192  0.19173816  0.24535920  1
  Ta  Ta97  1  0.80172738  0.60237918  0.24585962  1
  Ta  Ta98  1  0.69538845  0.09550466  0.37854144  1
  Ta  Ta99  1  0.91574771  0.50426690  0.35133054  1
  Ta  Ta100  1  0.48977976  0.08180238  0.62965881  1
  Ta  Ta101  1  0.00839352  0.81114111  0.74431362  1
  Ta  Ta102  1  0.19497877  0.20830641  0.77490348  1
  Ta  Ta103  1  0.81178751  -0.00153820  0.76470338  1
  Ta  Ta104  1  0.18832176  0.42000049  -0.01215835  1
  Ta  Ta105  1  0.70323807  0.88997357  0.63307154  1
  Ta  Ta106  1  0.11338042  0.51606958  0.13797837  1
  Ta  Ta107  1  0.49933695  0.50441885  0.60593039  1
  Ta  Ta108  1  0.21646359  0.61016035  0.00533372  1
  Ta  Ta109  1  0.41117697  0.41420031  0.74007894  1
  Ta  Ta110  1  0.10206195  0.50057729  0.62634408  1
  Ta  Ta111  1  0.79028642  0.19597793  0.75593129  1
  Ta  Ta112  1  0.21184471  0.79292063  0.74376040  1
  Ta  Ta113  1  0.00382017  0.80779511  0.02406211  1
  Ta  Ta114  1  0.32372045  0.90681915  0.37941504  1
  Ta  Ta115  1  0.68646520  0.29273749  0.87978962  1
  Ta  Ta116  1  0.69305331  0.51026276  0.13132568  1
  Ta  Ta117  1  0.39804601  0.80276684  0.74154947  1
  Ta  Ta118  1  0.20728700  0.59807294  0.27012025  1
  Ta  Ta119  1  0.49063041  0.08822505  0.37930681  1
  Ti  Ti120  1  0.59936909  0.40082862  0.74516655  1
  Ti  Ti121  1  0.50895958  0.89376453  0.63801256  1
  Ti  Ti122  1  -0.00776088  0.40784961  0.49335480  1
  Ti  Ti123  1  0.59681433  0.18774342  0.50127810  1
  Ti  Ti124  1  0.60327978  0.78069585  0.75662332  1
  Ti  Ti125  1  0.29483221  0.09819068  0.63818468  1
  Ti  Ti126  1  0.41116311  0.58915217  0.26560940  1
  Ti  Ti127  1  0.32179716  0.70133116  0.37911843  1
  Ti  Ti128  1  0.60280464  0.60748037  0.26612171  1
  Ti  Ti129  1  0.69105998  0.49073082  0.62888574  1
  Ti  Ti130  1  0.70455070  0.90556225  0.12762129  1
  Ti  Ti131  1  0.21201740  0.01776106  0.50123022  1
  Ti  Ti132  1  0.28859354  0.08849808  0.36651923  1
  Ti  Ti133  1  0.89376269  0.90899601  0.13212768  1
  Ti  Ti134  1  0.30913084  0.49302735  0.38296207  1
  Ti  Ti135  1  0.51156295  0.71659902  0.38373624  1
  Ti  Ti136  1  0.58381404  0.19660222  0.26051303  1
  Ti  Ti137  1  0.80194168  0.59442924  -0.00422039  1
  Ti  Ti138  1  0.50334391  0.70078091  0.61936934  1
  Ti  Ti139  1  0.60106328  0.79027021  -0.00854495  1
  Ti  Ti140  1  0.12553491  0.69381047  0.86880739  1
  Ti  Ti141  1  0.49758017  0.49277334  0.87381472  1
  Ti  Ti142  1  0.10287826  0.90490939  0.62473888  1
  Ti  Ti143  1  0.39104725  0.19943082  0.25900706  1
  Ti  Ti144  1  0.09327272  0.70434775  0.37073300  1
  Ti  Ti145  1  -0.00692418  0.41126483  -0.01461786  1
  Ti  Ti146  1  0.39878021  -0.00543616  0.75341663  1
  Ti  Ti147  1  0.90121339  0.69149718  0.12460751  1
  Ti  Ti148  1  0.39008082  0.39542170  0.26323180  1
  Ti  Ti149  1  0.90373388  0.89952025  0.36475778  1
  Ti  Ti150  1  -0.00271513  0.80505552  0.49773219  1
  Ti  Ti151  1  0.30510689  0.31557055  0.88552794  1
  Ti  Ti152  1  0.70725361  0.50044089  0.36451371  1
  Ti  Ti153  1  0.29687770  0.51071039  0.60884508  1
  Ti  Ti154  1  0.41003558  0.79078021  0.25446733  1
  Ti  Ti155  1  0.69980081  0.89241730  0.87048908  1
  Ti  Ti156  1  0.49426189  0.50204048  0.40183503  1
  Ti  Ti157  1  0.61162383  -0.00590836  0.75222594  1
  Ti  Ti158  1  0.58766874  0.40572244  0.00985894  1
  Ti  Ti159  1  0.79643474  0.80254671  0.24256351  1
  Mo  Mo160  1  0.30916376  0.71435359  0.60935865  1
  Mo  Mo161  1  0.40176996  0.61251820  0.50232636  1
  Mo  Mo162  1  0.60444186  0.40124729  0.49484385  1
  Mo  Mo163  1  0.70454645  0.70002281  0.36060329  1
  Mo  Mo164  1  0.09763992  0.50719590  0.35961656  1
  Mo  Mo165  1  0.60919558  0.80001857  0.50885197  1
  Mo  Mo166  1  0.69195707  0.69496693  0.88491729  1
  Mo  Mo167  1  0.38880058  0.40896931  0.49774084  1
  Mo  Mo168  1  0.89827330  0.09341733  0.87475525  1
  Mo  Mo169  1  0.10151584  0.51312926  0.88182142  1
  Mo  Mo170  1  0.58186272  0.57817857  0.74244965  1
  Mo  Mo171  1  0.78174174  0.38826938  0.75203704  1
  Mo  Mo172  1  0.40691308  0.58846462  0.00231603  1
  Mo  Mo173  1  0.50965896  0.49935534  0.13433769  1
  Mo  Mo174  1  0.69977846  0.09637174  0.12513167  1
  Mo  Mo175  1  0.80745089  -0.00766453  0.24914835  1
  Mo  Mo176  1  0.89098996  0.50113671  0.88948213  1
  Mo  Mo177  1  0.11216362  0.69813748  0.13064555  1
  Mo  Mo178  1  0.19287115  0.18914292  0.50222773  1
  Mo  Mo179  1  0.00538415  0.60761900  0.24146565  1
  Mo  Mo180  1  0.90695014  0.89929800  0.88026758  1
  Mo  Mo181  1  0.39518798  -0.00555731  0.50598798  1
  Mo  Mo182  1  0.50052372  0.89274443  0.37247104  1
  Mo  Mo183  1  0.30066598  0.71376577  0.87143815  1
  Mo  Mo184  1  0.20210720  0.60596715  0.73747538  1
  Mo  Mo185  1  0.08873144  0.30438626  0.36255353  1
  Mo  Mo186  1  0.70511400  0.10528264  0.86790855  1
  Mo  Mo187  1  0.10634911  0.10999069  0.11646617  1
  Mo  Mo188  1  0.89175410  0.09844656  0.12658961  1
  Mo  Mo189  1  0.39740481  0.41168909  -0.00317527  1
  Mo  Mo190  1  0.88933272  0.30437469  0.11577921  1
  Mo  Mo191  1  0.11518411  0.11424018  0.37180952  1
  Mo  Mo192  1  0.30051588  0.88784329  0.86863087  1
  Mo  Mo193  1  0.10700966  0.90235531  0.11919482  1
  Mo  Mo194  1  0.39772322  0.20260990  -0.00697647  1
  Mo  Mo195  1  0.00440669  0.40837957  0.24117905  1
  Mo  Mo196  1  0.09771112  0.09605676  0.87490942  1
  Mo  Mo197  1  0.09896031  0.30887920  0.88170697  1
  Mo  Mo198  1  0.21130749  0.00593320  0.24844349  1
  Mo  Mo199  1  -0.00240403  -0.01032764  0.74779414  1
