# generated using pymatgen
data_HfZrTaTiMo
_symmetry_space_group_name_H-M   'P 1'
_cell_length_a   15.21971733
_cell_length_b   15.21624752
_cell_length_c   16.84353488
_cell_angle_alpha   89.97556547
_cell_angle_beta   90.01547952
_cell_angle_gamma   89.97916664
_symmetry_Int_Tables_number   1
_chemical_formula_structural   HfZrTaTiMo
_chemical_formula_sum   'Hf40 Zr40 Ta40 Ti40 Mo40'
_cell_volume   3900.74272226
_cell_formula_units_Z   40
loop_
 _symmetry_equiv_pos_site_id
 _symmetry_equiv_pos_as_xyz
  1  'x, y, z'
loop_
 _atom_site_type_symbol
 _atom_site_label
 _atom_site_symmetry_multiplicity
 _atom_site_fract_x
 _atom_site_fract_y
 _atom_site_fract_z
 _atom_site_occupancy
  Hf  Hf0  1  0.49713842  0.11626935  0.37519605  1
  Hf  Hf1  1  0.90340012  0.90537947  0.13108451  1
  Hf  Hf2  1  -0.00698553  0.18892332  0.74007772  1
  Hf  Hf3  1  0.89067529  0.88106173  0.36783343  1
  Hf  Hf4  1  0.40110964  0.58215478  0.49552414  1
  Hf  Hf5  1  0.21282857  0.40347879  0.50055170  1
  Hf  Hf6  1  0.69084855  0.50019723  0.36762921  1
  Hf  Hf7  1  0.40961043  0.80511273  0.73891860  1
  Hf  Hf8  1  0.18616678  0.79028984  0.23175199  1
  Hf  Hf9  1  0.70707413  0.92099445  0.60751677  1
  Hf  Hf10  1  0.49899499  0.50385284  0.12538065  1
  Hf  Hf11  1  0.60424462  0.21663625  0.49799353  1
  Hf  Hf12  1  0.30361235  0.10400563  0.11060173  1
  Hf  Hf13  1  0.50669873  0.29223006  0.87512620  1
  Hf  Hf14  1  0.19363039  0.80279637  0.50747073  1
  Hf  Hf15  1  0.70844193  0.49194728  0.13612531  1
  Hf  Hf16  1  -0.00140540  0.19543511  0.27762706  1
  Hf  Hf17  1  0.31062827  0.70331942  0.87393100  1
  Hf  Hf18  1  0.60598494  0.61601140  0.01419464  1
  Hf  Hf19  1  0.48861419  0.48745461  0.63352881  1
  Hf  Hf20  1  0.69399541  0.12147367  0.63088197  1
  Hf  Hf21  1  0.08987978  0.29910857  0.13966409  1
  Hf  Hf22  1  0.49258328  0.50870072  0.87454973  1
  Hf  Hf23  1  0.51313398  0.68441726  0.37525719  1
  Hf  Hf24  1  0.32232346  0.29987344  0.37393786  1
  Hf  Hf25  1  0.09584319  0.49794637  0.62414269  1
  Hf  Hf26  1  0.49991775  0.90953866  0.38306921  1
  Hf  Hf27  1  0.88150395  0.30792966  0.37391539  1
  Hf  Hf28  1  0.60543768  -0.00223779  0.00611160  1
  Hf  Hf29  1  0.51977859  0.70522547  0.87004082  1
  Hf  Hf30  1  0.81528162  0.20149934  0.00001840  1
  Hf  Hf31  1  0.39666732  0.80500450  0.25334968  1
  Hf  Hf32  1  -0.01256209  0.01504166  0.00199469  1
  Hf  Hf33  1  0.80684101  0.60026979  0.49632475  1
  Hf  Hf34  1  0.29722363  0.49607348  0.36613421  1
  Hf  Hf35  1  0.10792331  0.89782407  0.87496260  1
  Hf  Hf36  1  0.69538050  0.52024465  0.87295898  1
  Hf  Hf37  1  0.59417234  0.00248846  0.23614069  1
  Hf  Hf38  1  0.89100516  0.48028094  0.86841763  1
  Hf  Hf39  1  0.60200666  0.40595030  0.75538135  1
  Zr  Zr40  1  0.30151625  0.69327377  0.63287110  1
  Zr  Zr41  1  0.00965943  0.19164756  0.47981043  1
  Zr  Zr42  1  0.60359442  0.21078939  0.00657567  1
  Zr  Zr43  1  0.79094131  0.79941332  0.01531514  1
  Zr  Zr44  1  -0.00950438  0.42425486  0.26550706  1
  Zr  Zr45  1  0.40017680  0.80096143  0.50660087  1
  Zr  Zr46  1  0.39631636  0.00969003  0.24434361  1
  Zr  Zr47  1  0.40803050  0.18792971  0.75013805  1
  Zr  Zr48  1  0.57920828  0.00822833  0.74895542  1
  Zr  Zr49  1  0.21115564  0.19381235  0.25425859  1
  Zr  Zr50  1  0.60515431  0.79525452  0.50422643  1
  Zr  Zr51  1  0.00286584  0.59675213  -0.00683971  1
  Zr  Zr52  1  0.19106554  -0.01383530  0.01219318  1
  Zr  Zr53  1  0.51282039  0.67943933  0.62838171  1
  Zr  Zr54  1  0.61497513  0.80916325  0.73804325  1
  Zr  Zr55  1  0.28960090  0.10689673  0.60671119  1
  Zr  Zr56  1  0.88604370  0.49369137  0.63030355  1
  Zr  Zr57  1  0.37727708  -0.00514455  0.74928440  1
  Zr  Zr58  1  0.00857726  -0.00360401  0.26546906  1
  Zr  Zr59  1  0.10975087  0.49658819  0.12196009  1
  Zr  Zr60  1  0.28955842  0.70015869  0.37239651  1
  Zr  Zr61  1  0.09409324  0.52308120  0.38005707  1
  Zr  Zr62  1  0.20500079  0.19194258  0.75168744  1
  Zr  Zr63  1  -0.01194592  0.59927310  0.75850874  1
  Zr  Zr64  1  0.80241559  0.59831304  0.00443212  1
  Zr  Zr65  1  -0.00027353  -0.01574760  0.48292340  1
  Zr  Zr66  1  0.89777532  0.11567446  0.13999348  1
  Zr  Zr67  1  0.89284672  0.29339565  0.61337380  1
  Zr  Zr68  1  0.10659148  0.29333765  0.61317646  1
  Zr  Zr69  1  0.69896972  0.11090232  0.86793912  1
  Zr  Zr70  1  0.79979899  -0.00123515  0.75716106  1
  Zr  Zr71  1  0.79142527  -0.00289765  0.25820013  1
  Zr  Zr72  1  0.19387783  0.60441258  0.75953993  1
  Zr  Zr73  1  0.92691699  0.68738037  0.36918633  1
  Zr  Zr74  1  0.40320934  0.39384385  0.00603863  1
  Zr  Zr75  1  0.60794093  0.80620650  0.24163762  1
  Zr  Zr76  1  0.00044203  0.79609677  0.74759204  1
  Zr  Zr77  1  0.89614118  0.08013198  0.61131126  1
  Zr  Zr78  1  0.89464178  0.89560595  0.88161515  1
  Zr  Zr79  1  0.08971696  0.10272709  0.87585835  1
  Ta  Ta80  1  0.90550379  0.49456321  0.12487825  1
  Ta  Ta81  1  0.69671852  0.10049211  0.37694405  1
  Ta  Ta82  1  0.09484442  0.30135606  0.87464479  1
  Ta  Ta83  1  0.71534645  0.31287564  0.86468063  1
  Ta  Ta84  1  0.81449769  0.80337396  0.50877000  1
  Ta  Ta85  1  0.10037598  0.87397006  0.36958355  1
  Ta  Ta86  1  0.71611983  0.70465986  0.37171030  1
  Ta  Ta87  1  0.29932243  0.10010346  0.39055420  1
  Ta  Ta88  1  0.51023767  0.28968781  0.63647813  1
  Ta  Ta89  1  0.09823466  0.49050074  0.87801765  1
  Ta  Ta90  1  0.40931499  0.21363418  0.50627964  1
  Ta  Ta91  1  0.68483209  0.50989776  0.62253849  1
  Ta  Ta92  1  0.81733991  0.59101110  0.25331822  1
  Ta  Ta93  1  0.20697075  0.81841290  0.74641014  1
  Ta  Ta94  1  0.09609574  0.10031306  0.13039463  1
  Ta  Ta95  1  0.28890246  0.91118863  0.38015778  1
  Ta  Ta96  1  0.38883459  0.40265077  0.23226622  1
  Ta  Ta97  1  0.80714418  0.79827401  0.73622040  1
  Ta  Ta98  1  0.19779153  0.39402926  0.75653402  1
  Ta  Ta99  1  0.29772275  0.49848912  0.63743961  1
  Ta  Ta100  1  0.18559459  0.20431405  0.00374335  1
  Ta  Ta101  1  0.00141753  0.78170972  0.51330474  1
  Ta  Ta102  1  0.19499826  0.39801425  -0.00488941  1
  Ta  Ta103  1  0.29266293  0.30629269  0.11947981  1
  Ta  Ta104  1  0.01405517  0.80314906  0.01356853  1
  Ta  Ta105  1  0.29663780  0.29007762  0.88650677  1
  Ta  Ta106  1  0.90269633  0.28286791  0.86656786  1
  Ta  Ta107  1  0.38927461  0.39356195  0.76114555  1
  Ta  Ta108  1  0.31005407  0.88371308  0.11278304  1
  Ta  Ta109  1  0.11587119  0.30982463  0.37490419  1
  Ta  Ta110  1  -0.00840692  0.38162285  0.00086236  1
  Ta  Ta111  1  0.39891432  0.60607938  0.00409799  1
  Ta  Ta112  1  0.09757163  0.90869930  0.62811112  1
  Ta  Ta113  1  0.70355785  0.29491033  0.13752905  1
  Ta  Ta114  1  0.29574077  0.49642150  0.87629835  1
  Ta  Ta115  1  0.20414972  -0.01023538  0.24219307  1
  Ta  Ta116  1  0.29736403  0.09255341  0.89371246  1
  Ta  Ta117  1  0.89036562  0.30921694  0.14476902  1
  Ta  Ta118  1  0.31292958  0.31079079  0.62339821  1
  Ta  Ta119  1  0.59704594  0.80892412  0.01518022  1
  Ti  Ti120  1  0.58543922  0.39032192  0.24323827  1
  Ti  Ti121  1  0.49258670  0.48433677  0.36394877  1
  Ti  Ti122  1  0.78642912  0.61131351  0.74919798  1
  Ti  Ti123  1  -0.01131373  0.41290616  0.48935399  1
  Ti  Ti124  1  0.60786411  0.60884905  0.24029108  1
  Ti  Ti125  1  0.58112068  0.40648190  0.49700673  1
  Ti  Ti126  1  0.80071540  0.78750722  0.23621944  1
  Ti  Ti127  1  0.48897585  0.09810352  0.88858961  1
  Ti  Ti128  1  0.29167831  0.91140611  0.61791534  1
  Ti  Ti129  1  -0.00082017  0.38980737  0.74756988  1
  Ti  Ti130  1  0.70800372  0.09971635  0.12655240  1
  Ti  Ti131  1  0.41236000  0.21229499  0.23824521  1
  Ti  Ti132  1  0.49885546  0.11114478  0.11426329  1
  Ti  Ti133  1  0.90801609  0.69408412  0.12681302  1
  Ti  Ti134  1  0.29935330  0.69077286  0.11684250  1
  Ti  Ti135  1  0.19110035  0.60766058  0.50661019  1
  Ti  Ti136  1  0.79799420  0.39335637  0.00364821  1
  Ti  Ti137  1  0.60859945  0.40403360  0.00197992  1
  Ti  Ti138  1  0.09783622  0.69958805  0.63330413  1
  Ti  Ti139  1  0.77570513  0.39663490  0.49782036  1
  Ti  Ti140  1  0.59955582  0.19812098  0.24195893  1
  Ti  Ti141  1  0.30398220  0.89421782  0.88900511  1
  Ti  Ti142  1  0.79261802  -0.00039786  -0.00543544  1
  Ti  Ti143  1  0.49109534  0.71423985  0.12606132  1
  Ti  Ti144  1  0.68681713  0.29983379  0.35897632  1
  Ti  Ti145  1  0.02255527  0.62351587  0.23347090  1
  Ti  Ti146  1  0.79806493  0.19379052  0.48922740  1
  Ti  Ti147  1  0.69605581  0.90263252  0.39060104  1
  Ti  Ti148  1  0.40602770  0.00482332  0.50738808  1
  Ti  Ti149  1  0.20498489  0.59810789  -0.00303956  1
  Ti  Ti150  1  0.20949366  0.58922802  0.23709756  1
  Ti  Ti151  1  0.49903131  0.89814131  0.88108034  1
  Ti  Ti152  1  0.10329841  0.09070721  0.61655372  1
  Ti  Ti153  1  0.40228974  0.60102626  0.24350585  1
  Ti  Ti154  1  0.89147050  0.70108546  0.87984686  1
  Ti  Ti155  1  0.10587756  0.70473307  0.88310376  1
  Ti  Ti156  1  0.70935689  0.69425133  0.61631229  1
  Ti  Ti157  1  0.00120126  -0.00629754  0.74831458  1
  Ti  Ti158  1  0.40845589  -0.01174986  0.00583820  1
  Ti  Ti159  1  0.70439112  0.31522860  0.63967426  1
  Mo  Mo160  1  0.10587014  0.69807527  0.10836897  1
  Mo  Mo161  1  0.00107930  0.20776694  0.00698417  1
  Mo  Mo162  1  0.49435901  0.90454466  0.12042214  1
  Mo  Mo163  1  0.89579131  0.69698279  0.62744270  1
  Mo  Mo164  1  0.49800478  0.91462374  0.61150152  1
  Mo  Mo165  1  0.79477552  0.00098339  0.48372646  1
  Mo  Mo166  1  0.19366533  -0.00247840  0.75143724  1
  Mo  Mo167  1  0.71031531  0.72072737  0.87183478  1
  Mo  Mo168  1  0.88652579  0.09668758  0.38118758  1
  Mo  Mo169  1  0.60521016  0.60603324  0.74693311  1
  Mo  Mo170  1  0.12334414  0.08357163  0.37505859  1
  Mo  Mo171  1  0.50115206  0.29764861  0.12674348  1
  Mo  Mo172  1  0.70512144  0.69460819  0.14046477  1
  Mo  Mo173  1  0.60762933  0.58851093  0.49282681  1
  Mo  Mo174  1  0.30179301  0.50423762  0.12096767  1
  Mo  Mo175  1  0.70389799  0.90485987  0.12504252  1
  Mo  Mo176  1  0.39889105  0.58901350  0.75800729  1
  Mo  Mo177  1  0.68656638  0.88631231  0.87699771  1
  Mo  Mo178  1  0.80247481  0.40703843  0.74745535  1
  Mo  Mo179  1  0.40815132  0.79477912  -0.00060184  1
  Mo  Mo180  1  0.10748542  0.70200587  0.37432734  1
  Mo  Mo181  1  0.60298666  0.20626385  0.75372086  1
  Mo  Mo182  1  0.78603110  0.20158450  0.25881764  1
  Mo  Mo183  1  0.19499154  -0.00327886  0.49415156  1
  Mo  Mo184  1  0.88577757  0.49765072  0.38957358  1
  Mo  Mo185  1  0.39334823  0.19370289  -0.00034014  1
  Mo  Mo186  1  0.20420161  0.20491782  0.49032053  1
  Mo  Mo187  1  0.50220500  0.09860413  0.61367563  1
  Mo  Mo188  1  0.20453967  0.78598440  0.00643834  1
  Mo  Mo189  1  0.00463481  0.60170440  0.51455194  1
  Mo  Mo190  1  0.20246182  0.39830084  0.25226051  1
  Mo  Mo191  1  0.40929734  0.39479606  0.50198825  1
  Mo  Mo192  1  0.80089196  0.21038837  0.74831854  1
  Mo  Mo193  1  0.90556959  0.89647176  0.62154230  1
  Mo  Mo194  1  0.50800055  0.30890460  0.36325065  1
  Mo  Mo195  1  -0.00299140  0.79661931  0.23282232  1
  Mo  Mo196  1  0.79027125  0.40286605  0.25201875  1
  Mo  Mo197  1  0.10038341  0.90374276  0.12637697  1
  Mo  Mo198  1  0.89761701  0.10086373  0.87180645  1
  Mo  Mo199  1  0.59389368  0.01381970  0.49948307  1
