# generated using pymatgen
data_HfZrTaTiMo
_symmetry_space_group_name_H-M   'P 1'
_cell_length_a   15.19193877
_cell_length_b   15.18947726
_cell_length_c   16.78748014
_cell_angle_alpha   89.97681036
_cell_angle_beta   90.01158681
_cell_angle_gamma   89.99506983
_symmetry_Int_Tables_number   1
_chemical_formula_structural   HfZrTaTiMo
_chemical_formula_sum   'Hf40 Zr40 Ta40 Ti40 Mo40'
_cell_volume   3873.83835851
_cell_formula_units_Z   40
loop_
 _symmetry_equiv_pos_site_id
 _symmetry_equiv_pos_as_xyz
  1  'x, y, z'
loop_
 _atom_site_type_symbol
 _atom_site_label
 _atom_site_symmetry_multiplicity
 _atom_site_fract_x
 _atom_site_fract_y
 _atom_site_fract_z
 _atom_site_occupancy
  Hf  Hf0  1  -0.00745702  0.80563721  0.22889245  1
  Hf  Hf1  1  0.60248819  0.59508202  0.01066122  1
  Hf  Hf2  1  0.60601050  0.80549946  0.24171532  1
  Hf  Hf3  1  0.59441873  -0.02004746  0.76025700  1
  Hf  Hf4  1  0.29265860  0.51362263  0.13615204  1
  Hf  Hf5  1  0.90216921  0.51661601  0.87701968  1
  Hf  Hf6  1  0.88817224  0.91935018  0.37039509  1
  Hf  Hf7  1  -0.01246408  0.60894525  0.72942246  1
  Hf  Hf8  1  0.80765794  0.39828517  0.75331085  1
  Hf  Hf9  1  0.70179744  0.08681365  0.87200610  1
  Hf  Hf10  1  0.80941631  0.80358183  0.50531553  1
  Hf  Hf11  1  0.40950525  0.20692959  0.01428045  1
  Hf  Hf12  1  0.10869401  0.71090375  0.62331329  1
  Hf  Hf13  1  0.69313825  0.89990178  0.62333690  1
  Hf  Hf14  1  0.00140244  0.21946543  0.76584431  1
  Hf  Hf15  1  0.90640198  0.71319366  0.36780624  1
  Hf  Hf16  1  0.40069104  0.61230612  0.00387715  1
  Hf  Hf17  1  0.20744100  0.00797602  0.74893198  1
  Hf  Hf18  1  0.21239001  0.80291266  0.01698105  1
  Hf  Hf19  1  0.09247836  0.70719106  0.87294020  1
  Hf  Hf20  1  0.00930989  0.58510320  0.26076189  1
  Hf  Hf21  1  0.00003201  0.60823060  0.49742393  1
  Hf  Hf22  1  0.59721995  0.40066410  0.74623587  1
  Hf  Hf23  1  0.79784338  0.39372322  -0.00700213  1
  Hf  Hf24  1  0.70557479  0.49196446  0.61422176  1
  Hf  Hf25  1  0.09896161  0.91228163  0.62366541  1
  Hf  Hf26  1  0.29996709  0.90566586  0.34845964  1
  Hf  Hf27  1  0.40896469  0.60637168  0.75826067  1
  Hf  Hf28  1  0.79870073  0.60537835  0.00762185  1
  Hf  Hf29  1  0.49768957  0.69163732  0.35774172  1
  Hf  Hf30  1  0.00374032  0.01754594  0.76379098  1
  Hf  Hf31  1  0.39646413  0.80413829  0.49225607  1
  Hf  Hf32  1  0.49954580  0.70099135  0.62042955  1
  Hf  Hf33  1  0.11577706  0.90866626  0.88893498  1
  Hf  Hf34  1  0.09636392  0.29484801  0.60624800  1
  Hf  Hf35  1  0.48638756  0.09511787  0.62933557  1
  Hf  Hf36  1  -0.01931242  0.02111802  0.23070434  1
  Hf  Hf37  1  0.49045151  0.29356996  0.86899237  1
  Hf  Hf38  1  0.49816193  0.50302392  0.62090940  1
  Hf  Hf39  1  0.89301578  0.90500315  0.88668682  1
  Zr  Zr40  1  0.90497221  0.11279847  0.62997549  1
  Zr  Zr41  1  0.52076193  0.09716141  0.11961472  1
  Zr  Zr42  1  0.30382079  0.10442987  0.36059652  1
  Zr  Zr43  1  0.59252209  0.19130616  0.49762497  1
  Zr  Zr44  1  0.90710866  0.49623404  0.12949935  1
  Zr  Zr45  1  0.29281109  0.31610476  0.11953202  1
  Zr  Zr46  1  0.20029078  0.79839527  0.49236759  1
  Zr  Zr47  1  -0.00602166  0.01685731  0.00314986  1
  Zr  Zr48  1  0.30621360  0.07779912  0.90015498  1
  Zr  Zr49  1  0.30442116  0.69637025  0.35206020  1
  Zr  Zr50  1  0.39597342  0.39159386  0.50266034  1
  Zr  Zr51  1  0.41007184  0.20593113  0.23658543  1
  Zr  Zr52  1  0.19291845  0.59513530  -0.00901647  1
  Zr  Zr53  1  0.49294776  0.90823381  0.35898454  1
  Zr  Zr54  1  0.10634969  0.50012617  0.60676804  1
  Zr  Zr55  1  0.89754391  0.29717558  0.13114586  1
  Zr  Zr56  1  -0.00329488  0.22235785  -0.01662674  1
  Zr  Zr57  1  0.20047542  0.39461063  0.74066793  1
  Zr  Zr58  1  0.71395690  0.69678833  0.36505091  1
  Zr  Zr59  1  0.70186999  0.09509525  0.63099007  1
  Zr  Zr60  1  0.20176644  0.59847325  0.75506290  1
  Zr  Zr61  1  0.49711254  0.47364517  0.12427387  1
  Zr  Zr62  1  0.09078451  0.90520282  0.36351526  1
  Zr  Zr63  1  0.69123899  0.69406364  0.61927679  1
  Zr  Zr64  1  0.49983450  0.49563224  0.87917556  1
  Zr  Zr65  1  0.81544064  0.18217041  0.26136351  1
  Zr  Zr66  1  0.20333122  0.00380159  0.49673368  1
  Zr  Zr67  1  0.79149824  0.60678796  0.74552978  1
  Zr  Zr68  1  0.69257195  0.29075863  0.36982477  1
  Zr  Zr69  1  0.00487416  0.41215923  0.75383102  1
  Zr  Zr70  1  0.79142086  0.80582324  0.75049136  1
  Zr  Zr71  1  0.28582671  0.28477838  0.88776052  1
  Zr  Zr72  1  0.70205248  0.28888523  0.62293094  1
  Zr  Zr73  1  0.29840852  0.48491111  0.88405045  1
  Zr  Zr74  1  0.60998038  0.57263244  0.25387033  1
  Zr  Zr75  1  0.59870576  0.79611441  0.48484619  1
  Zr  Zr76  1  -0.00487743  0.81197045  0.74677358  1
  Zr  Zr77  1  0.48081307  0.88547468  0.89180561  1
  Zr  Zr78  1  0.10550575  0.68376657  0.13181461  1
  Zr  Zr79  1  0.68378922  0.29176738  0.14114790  1
  Ta  Ta80  1  0.89976521  0.31425920  0.61317351  1
  Ta  Ta81  1  0.19866290  0.80080598  0.23452136  1
  Ta  Ta82  1  0.50107294  0.08964959  0.88711860  1
  Ta  Ta83  1  0.10576708  0.69912603  0.36568153  1
  Ta  Ta84  1  0.59811015  0.39816275  0.49299018  1
  Ta  Ta85  1  0.10412277  0.91436198  0.12110898  1
  Ta  Ta86  1  0.61222229  0.19514462  -0.00794964  1
  Ta  Ta87  1  0.31610541  0.72089576  0.87726892  1
  Ta  Ta88  1  0.39474573  -0.01612173  0.75413040  1
  Ta  Ta89  1  0.30665288  0.69192866  0.62290119  1
  Ta  Ta90  1  0.10381571  0.29727159  0.38640722  1
  Ta  Ta91  1  0.39123830  0.39255622  0.73495659  1
  Ta  Ta92  1  0.82037025  0.19259971  0.48752822  1
  Ta  Ta93  1  0.18829963  0.20950751  0.24527961  1
  Ta  Ta94  1  0.70463606  0.48452428  0.12967620  1
  Ta  Ta95  1  -0.00048182  0.38777922  0.27020401  1
  Ta  Ta96  1  0.79436135  0.40899084  0.26785190  1
  Ta  Ta97  1  0.79220092  0.00240455  0.00581684  1
  Ta  Ta98  1  0.80118379  0.39787778  0.48433729  1
  Ta  Ta99  1  0.69477566  0.50623224  0.87375657  1
  Ta  Ta100  1  -0.00504501  0.61044959  0.00361987  1
  Ta  Ta101  1  -0.00563205  0.80080670  0.01602929  1
  Ta  Ta102  1  0.30890383  0.89895130  0.62338304  1
  Ta  Ta103  1  0.19833913  0.19693826  0.74558241  1
  Ta  Ta104  1  0.29507815  0.09359116  0.12124177  1
  Ta  Ta105  1  0.11674533  0.11847484  0.88769032  1
  Ta  Ta106  1  0.49778515  0.89555018  0.62545740  1
  Ta  Ta107  1  0.79684514  0.79896337  0.01828424  1
  Ta  Ta108  1  0.70227855  0.69369064  0.13616432  1
  Ta  Ta109  1  0.59601682  -0.00549291  0.49506632  1
  Ta  Ta110  1  0.69479193  0.29815942  0.87009742  1
  Ta  Ta111  1  0.01144289  0.41659931  -0.01393719  1
  Ta  Ta112  1  0.61321746  0.01093440  0.25264451  1
  Ta  Ta113  1  -0.01312363  0.01525242  0.49789933  1
  Ta  Ta114  1  0.22052494  0.80786802  0.75071998  1
  Ta  Ta115  1  0.80239551  0.19485001  -0.01044841  1
  Ta  Ta116  1  0.30458036  0.27999247  0.62008335  1
  Ta  Ta117  1  0.08983285  0.10925642  0.37162428  1
  Ta  Ta118  1  0.59579653  0.78852949  0.01587158  1
  Ta  Ta119  1  0.30043426  0.49739298  0.36450856  1
  Ti  Ti120  1  0.19051524  0.01144349  0.23903440  1
  Ti  Ti121  1  0.10619040  0.10727069  0.61755770  1
  Ti  Ti122  1  0.18705170  0.40536562  0.26313938  1
  Ti  Ti123  1  0.69114749  0.91012272  0.11740849  1
  Ti  Ti124  1  0.59445581  0.19028481  0.75582707  1
  Ti  Ti125  1  0.49118031  0.29094083  0.37633914  1
  Ti  Ti126  1  0.80223900  0.81449226  0.22839046  1
  Ti  Ti127  1  0.80779373  0.59827454  0.50294322  1
  Ti  Ti128  1  0.00165121  0.80975905  0.50095284  1
  Ti  Ti129  1  0.71216213  0.08274631  0.38112949  1
  Ti  Ti130  1  0.70149898  0.90134572  0.37233794  1
  Ti  Ti131  1  0.39884041  0.59442150  0.49335436  1
  Ti  Ti132  1  0.21055657  0.59748004  0.49114709  1
  Ti  Ti133  1  0.50262086  0.10002304  0.36841411  1
  Ti  Ti134  1  0.49976405  0.48790549  0.37407652  1
  Ti  Ti135  1  0.39991371  0.80173550  0.02806775  1
  Ti  Ti136  1  0.49702505  0.90715590  0.12955269  1
  Ti  Ti137  1  0.80570837  -0.00066861  0.75446413  1
  Ti  Ti138  1  0.38934979  0.18445708  0.75485296  1
  Ti  Ti139  1  0.89753532  0.91264833  0.62153229  1
  Ti  Ti140  1  0.49780352  0.28978111  0.62819249  1
  Ti  Ti141  1  0.21368714  0.19679337  0.49601420  1
  Ti  Ti142  1  0.60237098  0.59086959  0.48386288  1
  Ti  Ti143  1  0.80968874  0.60147520  0.24400735  1
  Ti  Ti144  1  0.20819204  0.40317289  0.49543180  1
  Ti  Ti145  1  0.80640858  0.20115029  0.76463681  1
  Ti  Ti146  1  0.39992110  0.01074473  0.49933828  1
  Ti  Ti147  1  0.71371619  0.10001555  0.12514206  1
  Ti  Ti148  1  0.10143279  0.48803313  0.12767469  1
  Ti  Ti149  1  0.68983148  0.88125187  0.89203697  1
  Ti  Ti150  1  0.89454598  0.50439962  0.37672322  1
  Ti  Ti151  1  0.09376953  0.30927553  0.12490927  1
  Ti  Ti152  1  0.49387396  0.68875714  0.14520556  1
  Ti  Ti153  1  0.88676247  0.71206664  0.88120485  1
  Ti  Ti154  1  0.40261824  0.39875062  0.25611818  1
  Ti  Ti155  1  -0.00592485  0.40090955  0.48273596  1
  Ti  Ti156  1  0.59417869  0.38582222  -0.00309335  1
  Ti  Ti157  1  0.58825675  0.77416269  0.76572241  1
  Ti  Ti158  1  0.29851664  0.29843016  0.37162752  1
  Ti  Ti159  1  0.09581187  0.11953075  0.11788909  1
  Mo  Mo160  1  0.19670355  0.59136089  0.25864681  1
  Mo  Mo161  1  0.70301679  0.49937471  0.38781017  1
  Mo  Mo162  1  0.79302488  0.00258557  0.50188653  1
  Mo  Mo163  1  0.59085196  0.38699956  0.26682816  1
  Mo  Mo164  1  0.40112972  -0.01065254  0.02067969  1
  Mo  Mo165  1  0.18812493  0.39712545  0.00379581  1
  Mo  Mo166  1  0.10646355  0.49628772  0.38990921  1
  Mo  Mo167  1  0.89449865  0.10960387  0.11573184  1
  Mo  Mo168  1  0.19823963  0.00222551  0.01728419  1
  Mo  Mo169  1  0.01359068  0.20729199  0.24859517  1
  Mo  Mo170  1  0.89781331  0.49637087  0.60623413  1
  Mo  Mo171  1  0.60266880  -0.00825708  -0.00238453  1
  Mo  Mo172  1  0.90437424  0.09996477  0.37668510  1
  Mo  Mo173  1  0.40512596  0.58611877  0.25121729  1
  Mo  Mo174  1  0.10957289  0.31335096  0.87725098  1
  Mo  Mo175  1  0.40369297  0.00442255  0.23395212  1
  Mo  Mo176  1  0.90102752  0.71079082  0.61215033  1
  Mo  Mo177  1  0.00816077  0.20309260  0.49853800  1
  Mo  Mo178  1  0.50639688  0.29737490  0.12517429  1
  Mo  Mo179  1  0.40132161  0.40107918  0.00187686  1
  Mo  Mo180  1  0.79065800  -0.00896533  0.23872501  1
  Mo  Mo181  1  0.89701481  0.69846267  0.13115564  1
  Mo  Mo182  1  0.30534456  0.50225075  0.61769773  1
  Mo  Mo183  1  0.89721990  0.10220012  0.86904870  1
  Mo  Mo184  1  0.40344643  0.80121119  0.74587755  1
  Mo  Mo185  1  0.30252715  0.90538479  0.14303988  1
  Mo  Mo186  1  0.60181820  0.59579188  0.75577572  1
  Mo  Mo187  1  0.89158163  0.30960048  0.87732130  1
  Mo  Mo188  1  0.19205426  0.19957521  0.01640168  1
  Mo  Mo189  1  0.09714779  0.51304259  0.87335655  1
  Mo  Mo190  1  0.29756840  0.89445528  0.88347474  1
  Mo  Mo191  1  0.89213593  0.90693312  0.11232903  1
  Mo  Mo192  1  0.39610749  0.19350716  0.49357319  1
  Mo  Mo193  1  0.50884347  0.69991238  0.88672270  1
  Mo  Mo194  1  0.40321650  0.79933766  0.23123090  1
  Mo  Mo195  1  0.30691668  0.69912731  0.14061284  1
  Mo  Mo196  1  0.69403450  0.70173619  0.88677577  1
  Mo  Mo197  1  0.60207529  0.18888530  0.26512930  1
  Mo  Mo198  1  0.29938835  0.09715054  0.62502771  1
  Mo  Mo199  1  0.90594265  0.30004526  0.37661556  1
