# generated using pymatgen
data_HfZrTaTiMo
_symmetry_space_group_name_H-M   'P 1'
_cell_length_a   15.20609729
_cell_length_b   15.21801983
_cell_length_c   16.80115629
_cell_angle_alpha   89.98668938
_cell_angle_beta   90.00735824
_cell_angle_gamma   90.07743413
_symmetry_Int_Tables_number   1
_chemical_formula_structural   HfZrTaTiMo
_chemical_formula_sum   'Hf40 Zr40 Ta40 Ti40 Mo40'
_cell_volume   3887.89627855
_cell_formula_units_Z   40
loop_
 _symmetry_equiv_pos_site_id
 _symmetry_equiv_pos_as_xyz
  1  'x, y, z'
loop_
 _atom_site_type_symbol
 _atom_site_label
 _atom_site_symmetry_multiplicity
 _atom_site_fract_x
 _atom_site_fract_y
 _atom_site_fract_z
 _atom_site_occupancy
  Hf  Hf0  1  0.40183729  0.20902975  0.50133769  1
  Hf  Hf1  1  0.22136835  0.41777067  0.00828543  1
  Hf  Hf2  1  0.40210829  -0.00039800  0.25341050  1
  Hf  Hf3  1  0.09175568  0.89020011  0.86316156  1
  Hf  Hf4  1  0.09983415  0.89457238  0.37252064  1
  Hf  Hf5  1  0.10663908  0.09178869  0.11795274  1
  Hf  Hf6  1  0.49966599  0.10467377  0.62967746  1
  Hf  Hf7  1  0.59373497  0.40357235  0.76093203  1
  Hf  Hf8  1  -0.00851209  -0.00480946  0.74943386  1
  Hf  Hf9  1  0.09852730  0.30113148  0.62972174  1
  Hf  Hf10  1  0.19632527  0.80551583  0.24220900  1
  Hf  Hf11  1  0.59063342  0.80382048  0.25268742  1
  Hf  Hf12  1  -0.00592188  0.00107578  -0.00850300  1
  Hf  Hf13  1  0.79221113  0.40888879  0.49327864  1
  Hf  Hf14  1  0.61667001  0.41048993  0.00318663  1
  Hf  Hf15  1  0.30212431  0.29673697  0.63987170  1
  Hf  Hf16  1  0.41169975  0.40438000  0.49528419  1
  Hf  Hf17  1  0.30682953  0.90167407  0.11616990  1
  Hf  Hf18  1  -0.00596593  0.20861320  0.00711545  1
  Hf  Hf19  1  0.00106554  0.39219473  0.75022787  1
  Hf  Hf20  1  0.59862143  0.19366551  0.25115647  1
  Hf  Hf21  1  0.90260010  0.10350400  0.62566413  1
  Hf  Hf22  1  0.29425338  0.50742671  0.36919518  1
  Hf  Hf23  1  0.09480829  0.69213556  0.87070653  1
  Hf  Hf24  1  0.50921871  0.89390465  0.61669011  1
  Hf  Hf25  1  0.10763175  0.10195599  0.64274493  1
  Hf  Hf26  1  0.68416730  0.69618822  0.13518838  1
  Hf  Hf27  1  0.89466577  0.68680373  0.14370276  1
  Hf  Hf28  1  0.40495375  0.40702063  0.24534076  1
  Hf  Hf29  1  0.08594574  0.69104077  0.38285020  1
  Hf  Hf30  1  0.29539666  0.68428269  0.12148279  1
  Hf  Hf31  1  0.08963466  0.71374593  0.63864262  1
  Hf  Hf32  1  0.39955927  -0.00493617  -0.01678809  1
  Hf  Hf33  1  0.39138483  0.00853118  0.50185415  1
  Hf  Hf34  1  -0.01040902  0.79828323  0.00304077  1
  Hf  Hf35  1  0.20390896  0.40119318  0.49650366  1
  Hf  Hf36  1  0.09889109  0.30618029  0.37066977  1
  Hf  Hf37  1  0.89991565  0.10995979  0.86499671  1
  Hf  Hf38  1  0.38035228  0.60028528  0.50552382  1
  Hf  Hf39  1  0.89696281  0.51024391  0.35387071  1
  Zr  Zr40  1  0.48526003  0.70776723  0.11209600  1
  Zr  Zr41  1  0.50232434  0.09253029  0.11388308  1
  Zr  Zr42  1  0.82896394  0.39791603  0.01677748  1
  Zr  Zr43  1  0.79312919  0.80299832  0.00651045  1
  Zr  Zr44  1  0.90210420  0.30475551  0.35931254  1
  Zr  Zr45  1  0.20756865  0.79880861  -0.00786845  1
  Zr  Zr46  1  0.09392996  0.51259793  0.60878331  1
  Zr  Zr47  1  0.70467035  0.09533714  0.39018791  1
  Zr  Zr48  1  0.79266553  0.81000150  0.74047610  1
  Zr  Zr49  1  0.58921241  0.58912493  0.49355815  1
  Zr  Zr50  1  0.20086421  -0.00555543  0.51141614  1
  Zr  Zr51  1  0.69672074  0.69362938  0.36940526  1
  Zr  Zr52  1  -0.01243175  0.58681878  0.00093405  1
  Zr  Zr53  1  0.19350707  0.79460252  0.51142962  1
  Zr  Zr54  1  0.78541674  0.59684473  0.00187664  1
  Zr  Zr55  1  0.91234340  0.09721208  0.38041950  1
  Zr  Zr56  1  0.29977069  0.49436934  0.64148801  1
  Zr  Zr57  1  0.50684819  0.30439960  0.89126438  1
  Zr  Zr58  1  0.61334761  -0.00826727  0.73859101  1
  Zr  Zr59  1  0.80563490  0.21709758  0.50151077  1
  Zr  Zr60  1  0.59998743  0.60059958  0.76068711  1
  Zr  Zr61  1  0.10705769  0.09352282  0.37020059  1
  Zr  Zr62  1  0.70237572  0.10195905  0.61385451  1
  Zr  Zr63  1  0.51154092  0.09196695  0.87117962  1
  Zr  Zr64  1  0.29675770  0.89770772  0.65408862  1
  Zr  Zr65  1  0.20939104  0.19814367  0.24210304  1
  Zr  Zr66  1  0.90649776  0.89863722  0.38050114  1
  Zr  Zr67  1  0.20286913  0.40104806  0.23439343  1
  Zr  Zr68  1  0.40270638  0.20639778  0.76271536  1
  Zr  Zr69  1  0.48825097  0.69946270  0.88202542  1
  Zr  Zr70  1  0.71122745  0.29467787  0.13742950  1
  Zr  Zr71  1  0.60461742  -0.00872308  0.25914172  1
  Zr  Zr72  1  0.28875371  0.70711950  0.36687337  1
  Zr  Zr73  1  0.79852464  0.40371068  0.74721934  1
  Zr  Zr74  1  0.20863584  0.19075572  0.49910210  1
  Zr  Zr75  1  0.20792141  0.20332989  -0.01515954  1
  Zr  Zr76  1  0.49267655  0.29992791  0.11260309  1
  Zr  Zr77  1  0.61822473  0.18741444  -0.00174471  1
  Zr  Zr78  1  0.39323270  0.79815862  0.50609274  1
  Zr  Zr79  1  -0.01234281  0.58883561  0.75531120  1
  Ta  Ta80  1  0.49709685  0.51390274  0.12328964  1
  Ta  Ta81  1  0.79925216  0.59689666  0.49420487  1
  Ta  Ta82  1  0.09710803  0.69994725  0.12008270  1
  Ta  Ta83  1  0.20032090  0.00236115  -0.02436180  1
  Ta  Ta84  1  0.90051708  0.70100476  0.36196064  1
  Ta  Ta85  1  0.60276359  0.39803328  0.49669463  1
  Ta  Ta86  1  0.89369432  0.90713860  0.12972319  1
  Ta  Ta87  1  0.00537616  0.20110976  0.23492773  1
  Ta  Ta88  1  0.80247983  -0.00390599  0.25272297  1
  Ta  Ta89  1  0.39946679  0.19915192  0.25177602  1
  Ta  Ta90  1  0.79306739  0.81043904  0.24898313  1
  Ta  Ta91  1  0.70265530  0.89587313  0.39994311  1
  Ta  Ta92  1  0.00333171  0.40703056  0.22696005  1
  Ta  Ta93  1  0.50441630  0.89122054  0.86737162  1
  Ta  Ta94  1  0.48907480  0.69162122  0.36932990  1
  Ta  Ta95  1  0.79200000  0.00306928  -0.00058730  1
  Ta  Ta96  1  0.20366118  0.00805330  0.77331977  1
  Ta  Ta97  1  0.69547280  0.90649660  0.87494231  1
  Ta  Ta98  1  0.70841349  0.08113983  0.12852950  1
  Ta  Ta99  1  0.70842607  0.90076352  0.59479979  1
  Ta  Ta100  1  0.71428749  0.09784538  0.86146795  1
  Ta  Ta101  1  0.50859794  0.30857453  0.36759344  1
  Ta  Ta102  1  0.69338472  0.70169011  0.61365369  1
  Ta  Ta103  1  0.09821556  0.90077477  0.11793943  1
  Ta  Ta104  1  0.81474153  0.78623174  0.49998829  1
  Ta  Ta105  1  0.49483946  0.69194672  0.63183476  1
  Ta  Ta106  1  0.59652959  0.21325626  0.49604735  1
  Ta  Ta107  1  0.29812642  0.68815241  0.86083633  1
  Ta  Ta108  1  0.61718366  0.20846334  0.75139975  1
  Ta  Ta109  1  0.89054082  0.70333847  0.86819821  1
  Ta  Ta110  1  0.50457890  0.89548911  0.39345212  1
  Ta  Ta111  1  0.30691476  0.29546568  0.37100976  1
  Ta  Ta112  1  0.69475971  0.50623437  0.62423728  1
  Ta  Ta113  1  0.49588598  0.10314243  0.38283052  1
  Ta  Ta114  1  0.31212399  0.88626998  0.85787414  1
  Ta  Ta115  1  0.89478046  0.69084370  0.62487480  1
  Ta  Ta116  1  0.29504199  0.69338921  0.65185846  1
  Ta  Ta117  1  0.30907881  0.10785364  0.11063698  1
  Ta  Ta118  1  0.69872364  0.50269794  0.14913492  1
  Ta  Ta119  1  0.00720860  0.20493073  0.50437068  1
  Ti  Ti120  1  0.69725038  0.70930993  0.87699149  1
  Ti  Ti121  1  0.60130053  0.79493925  0.74551292  1
  Ti  Ti122  1  0.70287139  0.49995771  0.87658825  1
  Ti  Ti123  1  0.70004870  0.30488779  0.36024589  1
  Ti  Ti124  1  -0.00020672  0.80213440  0.24018683  1
  Ti  Ti125  1  0.71742000  0.29479999  0.87642193  1
  Ti  Ti126  1  0.00906398  -0.01015137  0.51667956  1
  Ti  Ti127  1  0.09204659  0.30615405  0.88453135  1
  Ti  Ti128  1  0.90411644  0.30439293  0.87762342  1
  Ti  Ti129  1  0.39797005  0.80377545  0.25305779  1
  Ti  Ti130  1  0.81299328  0.21159449  0.74013085  1
  Ti  Ti131  1  0.50774628  0.90114250  0.11328300  1
  Ti  Ti132  1  0.50740176  0.30683594  0.63140638  1
  Ti  Ti133  1  0.70045533  0.30891253  0.62498850  1
  Ti  Ti134  1  0.10716043  0.30234115  0.11413945  1
  Ti  Ti135  1  0.59074662  0.59765581  -0.00707796  1
  Ti  Ti136  1  0.68576717  0.49206058  0.34945655  1
  Ti  Ti137  1  0.08917783  0.50447996  0.38264424  1
  Ti  Ti138  1  0.19244437  0.20377579  0.77598641  1
  Ti  Ti139  1  0.89855329  0.49639534  0.87601817  1
  Ti  Ti140  1  0.79054520  0.60367556  0.74976253  1
  Ti  Ti141  1  0.88394154  0.90142547  0.86835340  1
  Ti  Ti142  1  0.49942810  0.49665847  0.63174399  1
  Ti  Ti143  1  0.80548416  0.19489870  0.00512986  1
  Ti  Ti144  1  0.29983808  0.90927807  0.37425904  1
  Ti  Ti145  1  0.10258257  0.51390127  0.11535051  1
  Ti  Ti146  1  0.20721988  0.00174190  0.24405358  1
  Ti  Ti147  1  0.89178926  0.49792833  0.62025869  1
  Ti  Ti148  1  0.89835856  0.09918546  0.12805374  1
  Ti  Ti149  1  0.00298843  -0.00160320  0.24136923  1
  Ti  Ti150  1  0.20448405  0.39705864  0.76775804  1
  Ti  Ti151  1  0.59858470  0.80996221  -0.00165128  1
  Ti  Ti152  1  0.80685575  0.19043801  0.25060368  1
  Ti  Ti153  1  0.30374476  0.10015361  0.64971622  1
  Ti  Ti154  1  0.10434748  0.49420785  0.88880286  1
  Ti  Ti155  1  0.90839020  0.88982391  0.62074813  1
  Ti  Ti156  1  -0.01251660  0.40065545  0.50054754  1
  Ti  Ti157  1  0.31461440  0.31902022  0.88080725  1
  Ti  Ti158  1  0.18818995  0.59578286  0.24529506  1
  Ti  Ti159  1  0.19313794  0.58815888  0.75778066  1
  Mo  Mo160  1  0.79243018  0.60493854  0.25471044  1
  Mo  Mo161  1  0.30398507  0.10127034  0.87085624  1
  Mo  Mo162  1  0.38146553  0.58537657  -0.00595723  1
  Mo  Mo163  1  0.90767777  0.28997689  0.13770247  1
  Mo  Mo164  1  0.57920378  0.59480242  0.25370645  1
  Mo  Mo165  1  0.69851757  0.89982487  0.12688711  1
  Mo  Mo166  1  0.40437453  0.40375355  0.75414959  1
  Mo  Mo167  1  0.48822910  0.49927069  0.88918425  1
  Mo  Mo168  1  -0.02312121  0.60822141  0.50043992  1
  Mo  Mo169  1  0.01298933  0.39884662  0.01510343  1
  Mo  Mo170  1  0.30134454  0.50287844  0.86483133  1
  Mo  Mo171  1  0.59602483  0.00339286  0.49716356  1
  Mo  Mo172  1  0.30605774  0.50637702  0.13146681  1
  Mo  Mo173  1  0.60023760  0.79071691  0.49851522  1
  Mo  Mo174  1  0.09460662  0.10556830  0.86953233  1
  Mo  Mo175  1  0.40136509  0.80089105  -0.00623013  1
  Mo  Mo176  1  0.39587354  0.60766657  0.25135977  1
  Mo  Mo177  1  0.19535719  0.60310792  -0.00649098  1
  Mo  Mo178  1  0.09232375  0.90483982  0.64509034  1
  Mo  Mo179  1  0.49949767  0.50195769  0.36869180  1
  Mo  Mo180  1  -0.00483395  0.80317473  0.50702288  1
  Mo  Mo181  1  0.90383333  0.30854003  0.61860280  1
  Mo  Mo182  1  0.40949520  0.41352831  0.00584213  1
  Mo  Mo183  1  0.89485387  0.49747352  0.14411265  1
  Mo  Mo184  1  -0.01506984  0.79480129  0.75515659  1
  Mo  Mo185  1  0.81465011  -0.00616709  0.50376216  1
  Mo  Mo186  1  0.31011512  0.29457822  0.11612934  1
  Mo  Mo187  1  0.59673112  0.39730594  0.24499278  1
  Mo  Mo188  1  0.61073168  -0.01073382  -0.00527168  1
  Mo  Mo189  1  0.41104298  0.79042284  0.74452542  1
  Mo  Mo190  1  0.00383502  0.20836718  0.75732292  1
  Mo  Mo191  1  0.40498810  -0.00414724  0.75873092  1
  Mo  Mo192  1  0.80048282  0.39669212  0.24522786  1
  Mo  Mo193  1  0.01207487  0.60010511  0.24329180  1
  Mo  Mo194  1  0.40297232  0.59062042  0.74989408  1
  Mo  Mo195  1  0.19062852  0.59816995  0.50407119  1
  Mo  Mo196  1  0.30775185  0.09830978  0.36881461  1
  Mo  Mo197  1  0.39585826  0.20285457  -0.00947356  1
  Mo  Mo198  1  0.19688311  0.79504242  0.75955017  1
  Mo  Mo199  1  0.79821000  0.00172150  0.74390577  1
