# generated using pymatgen
data_HfZrTaTiMo
_symmetry_space_group_name_H-M   'P 1'
_cell_length_a   15.21378387
_cell_length_b   15.22221084
_cell_length_c   16.81800854
_cell_angle_alpha   90.03873540
_cell_angle_beta   89.90160098
_cell_angle_gamma   90.03696709
_symmetry_Int_Tables_number   1
_chemical_formula_structural   HfZrTaTiMo
_chemical_formula_sum   'Hf40 Zr40 Ta40 Ti40 Mo40'
_cell_volume   3894.83186107
_cell_formula_units_Z   40
loop_
 _symmetry_equiv_pos_site_id
 _symmetry_equiv_pos_as_xyz
  1  'x, y, z'
loop_
 _atom_site_type_symbol
 _atom_site_label
 _atom_site_symmetry_multiplicity
 _atom_site_fract_x
 _atom_site_fract_y
 _atom_site_fract_z
 _atom_site_occupancy
  Hf  Hf0  1  0.19830138  0.60729928  0.25416484  1
  Hf  Hf1  1  0.10320920  0.30904244  0.39157836  1
  Hf  Hf2  1  0.59613982  0.18972626  0.74342744  1
  Hf  Hf3  1  0.11699141  0.30395031  0.87512621  1
  Hf  Hf4  1  0.89975534  0.50234511  0.37045280  1
  Hf  Hf5  1  0.60820147  -0.00512061  0.73384367  1
  Hf  Hf6  1  0.00892107  0.60865650  0.24384234  1
  Hf  Hf7  1  0.30111679  0.12426726  0.87235940  1
  Hf  Hf8  1  0.90820469  0.30180484  0.61741997  1
  Hf  Hf9  1  0.70078017  0.08413742  0.39516998  1
  Hf  Hf10  1  0.38686360  0.39719491  0.50133105  1
  Hf  Hf11  1  0.49687826  0.69919721  0.61976603  1
  Hf  Hf12  1  0.39229897  0.81089055  -0.03097465  1
  Hf  Hf13  1  0.70349680  0.28791640  0.38374615  1
  Hf  Hf14  1  0.49191322  0.71319534  0.11462439  1
  Hf  Hf15  1  0.19419808  0.20116655  0.25320042  1
  Hf  Hf16  1  0.00634720  0.80608062  -0.01065528  1
  Hf  Hf17  1  0.29870110  0.10519585  0.38065326  1
  Hf  Hf18  1  0.30373829  0.89404203  0.13808293  1
  Hf  Hf19  1  0.20823499  -0.00415709  -0.00122773  1
  Hf  Hf20  1  0.29850933  0.68514582  0.64177092  1
  Hf  Hf21  1  0.61403133  0.80714974  0.25250245  1
  Hf  Hf22  1  0.50551666  0.69984156  0.37934677  1
  Hf  Hf23  1  0.79696184  0.79522389  0.74421960  1
  Hf  Hf24  1  0.69611129  0.50897555  0.36509871  1
  Hf  Hf25  1  0.58879035  0.40848564  0.48738305  1
  Hf  Hf26  1  0.79946399  0.40385848  0.49629244  1
  Hf  Hf27  1  0.59909892  0.80359456  0.76406833  1
  Hf  Hf28  1  0.49381078  0.49355248  0.88977524  1
  Hf  Hf29  1  0.79927656  0.18908345  0.25350920  1
  Hf  Hf30  1  0.90616012  0.71501416  0.12084235  1
  Hf  Hf31  1  0.19847923  0.60189709  0.00686901  1
  Hf  Hf32  1  0.11806330  0.32205639  0.61227699  1
  Hf  Hf33  1  0.80358899  0.79046793  0.49989674  1
  Hf  Hf34  1  0.50264589  0.91876433  0.12370127  1
  Hf  Hf35  1  0.00616163  0.60848097  0.75113157  1
  Hf  Hf36  1  -0.00867805  0.00023841  0.00857205  1
  Hf  Hf37  1  0.80021226  0.61998277  0.24285582  1
  Hf  Hf38  1  0.31088885  0.90871879  0.37334419  1
  Hf  Hf39  1  0.89481744  0.69848038  0.88211639  1
  Zr  Zr40  1  0.40672999  0.00217497  0.75630327  1
  Zr  Zr41  1  0.49907205  0.49048654  0.10633115  1
  Zr  Zr42  1  0.51017891  0.31020846  0.62165021  1
  Zr  Zr43  1  0.70052947  0.69010567  0.62516709  1
  Zr  Zr44  1  0.19965206  0.79577684  -0.02088404  1
  Zr  Zr45  1  0.89704744  0.91669010  0.38293733  1
  Zr  Zr46  1  0.01560411  0.19215015  0.73896752  1
  Zr  Zr47  1  0.60114378  0.81758449  -0.01794950  1
  Zr  Zr48  1  0.40491959  0.40462405  0.74135023  1
  Zr  Zr49  1  0.09652641  0.92354990  0.63673000  1
  Zr  Zr50  1  0.67979655  0.48633007  0.64084413  1
  Zr  Zr51  1  0.80901478  0.18703584  0.73944509  1
  Zr  Zr52  1  0.42382670  0.01055887  -0.02202088  1
  Zr  Zr53  1  0.30517428  0.29543953  0.12955133  1
  Zr  Zr54  1  0.30484791  0.49825597  0.12490085  1
  Zr  Zr55  1  0.40535372  0.79800954  0.77172103  1
  Zr  Zr56  1  0.70949943  0.28826866  0.86524028  1
  Zr  Zr57  1  0.50526434  0.28336367  0.12304787  1
  Zr  Zr58  1  0.59522824  0.39202492  0.25714703  1
  Zr  Zr59  1  0.09601960  0.88361325  0.13803308  1
  Zr  Zr60  1  -0.00654388  0.80808396  0.75393636  1
  Zr  Zr61  1  0.90243172  0.49249051  0.88558602  1
  Zr  Zr62  1  0.70164370  0.49221220  0.12067100  1
  Zr  Zr63  1  0.09976104  0.10058961  0.12800702  1
  Zr  Zr64  1  0.89346863  0.10448526  0.87711027  1
  Zr  Zr65  1  0.89957441  0.29781190  0.12463807  1
  Zr  Zr66  1  0.59639653  0.60534787  0.23859061  1
  Zr  Zr67  1  0.10354160  0.10034173  0.87760584  1
  Zr  Zr68  1  0.00483444  0.40795831  0.74568838  1
  Zr  Zr69  1  0.19581009  0.61846692  0.49409628  1
  Zr  Zr70  1  0.49406540  0.08987767  0.39941847  1
  Zr  Zr71  1  0.39898332  0.60238094  0.25368191  1
  Zr  Zr72  1  0.70673791  0.29298480  0.62122867  1
  Zr  Zr73  1  0.29414313  0.88917406  0.63006186  1
  Zr  Zr74  1  0.07861748  0.10290914  0.38403154  1
  Zr  Zr75  1  0.78609128  0.18827723  0.00785625  1
  Zr  Zr76  1  0.19649095  0.40449807  0.25250370  1
  Zr  Zr77  1  0.57869132  0.59546541  0.76122015  1
  Zr  Zr78  1  0.90465108  0.49612693  0.12039044  1
  Zr  Zr79  1  0.31666112  0.09215827  0.13087948  1
  Ta  Ta80  1  0.19773047  0.79386237  0.26984463  1
  Ta  Ta81  1  0.70393324  0.90146479  0.12731226  1
  Ta  Ta82  1  0.00570565  0.21006650  0.00252408  1
  Ta  Ta83  1  0.39888248  0.59174577  0.49260301  1
  Ta  Ta84  1  0.28268446  0.48952024  0.62469796  1
  Ta  Ta85  1  0.59869433  0.18731866  0.25944901  1
  Ta  Ta86  1  0.10861973  0.50798461  0.87944648  1
  Ta  Ta87  1  0.80162226  0.58996081  0.75244672  1
  Ta  Ta88  1  0.70171973  0.49392198  0.87590533  1
  Ta  Ta89  1  0.92021912  0.08727064  0.60830757  1
  Ta  Ta90  1  0.78528216  -0.00724576  0.25144815  1
  Ta  Ta91  1  0.38746730  0.78865767  0.49490482  1
  Ta  Ta92  1  0.60561857  0.37768877  -0.01031655  1
  Ta  Ta93  1  0.49727079  0.89554733  0.60528764  1
  Ta  Ta94  1  0.90260051  0.89535802  0.61035556  1
  Ta  Ta95  1  0.09279610  0.51052206  0.38482176  1
  Ta  Ta96  1  0.49489123  0.28600268  0.38369079  1
  Ta  Ta97  1  0.40173263  0.19934471  0.73372138  1
  Ta  Ta98  1  0.01456119  0.80148035  0.49175357  1
  Ta  Ta99  1  0.00229494  0.39789912  0.25595906  1
  Ta  Ta100  1  0.29176942  0.67042249  0.85785721  1
  Ta  Ta101  1  0.20467114  0.39064526  0.00222513  1
  Ta  Ta102  1  0.59816454  0.59766988  0.49680162  1
  Ta  Ta103  1  0.00865559  0.60603747  0.00366759  1
  Ta  Ta104  1  0.49141728  0.28962927  0.87361922  1
  Ta  Ta105  1  0.19384194  0.79615889  0.76838686  1
  Ta  Ta106  1  0.29525666  0.49828252  0.37723441  1
  Ta  Ta107  1  0.21403381  0.21267200  0.73464907  1
  Ta  Ta108  1  0.29407661  0.48179237  0.87352785  1
  Ta  Ta109  1  0.91145418  0.69382483  0.61727912  1
  Ta  Ta110  1  0.80735437  -0.00905542  0.73124227  1
  Ta  Ta111  1  0.39351333  0.60937963  -0.00615140  1
  Ta  Ta112  1  0.80012622  0.80736051  -0.00364832  1
  Ta  Ta113  1  0.50731126  0.89887753  0.39793326  1
  Ta  Ta114  1  0.09807586  0.30625131  0.11941752  1
  Ta  Ta115  1  0.19206128  -0.00120441  0.49511035  1
  Ta  Ta116  1  0.29364380  0.09158810  0.62241434  1
  Ta  Ta117  1  0.89203121  0.91152984  0.87219131  1
  Ta  Ta118  1  0.80046124  0.39263448  0.00009487  1
  Ta  Ta119  1  0.58930036  0.00073061  0.25915707  1
  Ti  Ti120  1  0.19405870  -0.00401932  0.25913429  1
  Ti  Ti121  1  0.70679979  0.70527974  0.37728494  1
  Ti  Ti122  1  0.80440141  0.39304913  0.25185186  1
  Ti  Ti123  1  0.69439601  0.89497563  0.39097972  1
  Ti  Ti124  1  0.67801021  0.09394401  0.12646768  1
  Ti  Ti125  1  0.81810916  0.18928775  0.49674933  1
  Ti  Ti126  1  0.79175485  -0.00901562  0.00633247  1
  Ti  Ti127  1  0.91081356  0.29213908  0.38174945  1
  Ti  Ti128  1  0.70002504  0.69284394  0.87798277  1
  Ti  Ti129  1  0.90415584  0.69930679  0.37823124  1
  Ti  Ti130  1  0.50357238  0.09335841  0.60645944  1
  Ti  Ti131  1  0.79589360  0.60153307  0.00443274  1
  Ti  Ti132  1  0.40997655  0.18841066  0.25653786  1
  Ti  Ti133  1  0.40449328  0.39497936  0.26501248  1
  Ti  Ti134  1  0.39675382  0.19945602  0.51547282  1
  Ti  Ti135  1  0.19697339  0.80874284  0.48164945  1
  Ti  Ti136  1  0.10389992  0.71556003  0.62506934  1
  Ti  Ti137  1  0.09259949  0.52149811  0.61241067  1
  Ti  Ti138  1  0.60086907  0.60422795  -0.00311777  1
  Ti  Ti139  1  0.89115387  0.50336198  0.62632533  1
  Ti  Ti140  1  0.29327580  0.70789800  0.12666925  1
  Ti  Ti141  1  0.70061212  0.71046848  0.11476337  1
  Ti  Ti142  1  0.79949192  0.59526249  0.50068886  1
  Ti  Ti143  1  0.39989391  0.20849741  -0.00204106  1
  Ti  Ti144  1  -0.01168315  0.00720418  0.25230454  1
  Ti  Ti145  1  0.69570183  0.89217700  0.60805713  1
  Ti  Ti146  1  0.20426408  0.20413046  0.50808906  1
  Ti  Ti147  1  0.70656716  0.09288772  0.60389023  1
  Ti  Ti148  1  -0.00554387  0.20305227  0.24994779  1
  Ti  Ti149  1  0.09695307  0.49808292  0.11966569  1
  Ti  Ti150  1  0.30064209  0.29799607  0.37716280  1
  Ti  Ti151  1  0.90925843  0.30303227  0.87870124  1
  Ti  Ti152  1  0.89006059  0.90124039  0.13899134  1
  Ti  Ti153  1  0.40618953  0.80536248  0.25951661  1
  Ti  Ti154  1  -0.00278720  0.80437149  0.26613706  1
  Ti  Ti155  1  0.89076242  0.09378757  0.12808327  1
  Ti  Ti156  1  -0.00161493  0.41580025  0.50073872  1
  Ti  Ti157  1  0.69092190  0.07523051  0.87512019  1
  Ti  Ti158  1  0.09432894  0.91466820  0.86009166  1
  Ti  Ti159  1  0.69687355  0.29181625  0.12743616  1
  Mo  Mo160  1  0.20085007  0.40458910  0.74947166  1
  Mo  Mo161  1  0.30362925  0.70494396  0.37499394  1
  Mo  Mo162  1  0.59137526  0.18576268  -0.00864177  1
  Mo  Mo163  1  0.38698891  -0.00613194  0.51266685  1
  Mo  Mo164  1  0.19607856  0.01417335  0.75204083  1
  Mo  Mo165  1  0.60141872  -0.00721544  0.51532564  1
  Mo  Mo166  1  0.49748614  0.69497618  0.88710770  1
  Mo  Mo167  1  0.50400871  0.10299112  0.13111198  1
  Mo  Mo168  1  0.50981363  0.11061564  0.86685132  1
  Mo  Mo169  1  0.30692772  0.30305839  0.87574996  1
  Mo  Mo170  1  0.18993866  0.58608639  0.74372557  1
  Mo  Mo171  1  0.00994348  0.40257784  -0.00305328  1
  Mo  Mo172  1  0.09070614  0.70514655  0.37830783  1
  Mo  Mo173  1  0.00400594  0.20628844  0.50723101  1
  Mo  Mo174  1  0.61678085  0.01046722  0.00100152  1
  Mo  Mo175  1  0.80335652  0.80530697  0.25829501  1
  Mo  Mo176  1  0.39219820  0.59195339  0.75246136  1
  Mo  Mo177  1  0.09794931  0.69392606  0.87230193  1
  Mo  Mo178  1  0.52258639  0.91656810  0.87055024  1
  Mo  Mo179  1  0.49040005  0.49311436  0.37110268  1
  Mo  Mo180  1  0.60767358  0.39044823  0.77526076  1
  Mo  Mo181  1  0.47908072  0.51979258  0.61669985  1
  Mo  Mo182  1  0.80374954  -0.00619009  0.51303017  1
  Mo  Mo183  1  -0.01211820  0.60692465  0.50363488  1
  Mo  Mo184  1  0.00458701  -0.00290276  0.49612890  1
  Mo  Mo185  1  0.59972681  0.19950513  0.50489986  1
  Mo  Mo186  1  0.59951462  0.79012115  0.49645303  1
  Mo  Mo187  1  0.19990931  0.41231600  0.49156847  1
  Mo  Mo188  1  0.20018285  0.20291048  0.00890033  1
  Mo  Mo189  1  0.28150382  0.92047581  0.85823659  1
  Mo  Mo190  1  0.80420932  0.40614460  0.75290652  1
  Mo  Mo191  1  0.89237153  0.10836142  0.37647601  1
  Mo  Mo192  1  0.71800507  0.90387146  0.86883886  1
  Mo  Mo193  1  -0.01164455  0.00797743  0.74800290  1
  Mo  Mo194  1  0.10446549  0.70593836  0.12790756  1
  Mo  Mo195  1  0.39965808  0.39645364  -0.00525626  1
  Mo  Mo196  1  0.09983111  0.90548946  0.36398373  1
  Mo  Mo197  1  0.30305003  0.29510173  0.62048337  1
  Mo  Mo198  1  0.10850833  0.11078506  0.61138274  1
  Mo  Mo199  1  0.40718469  -0.00194303  0.25643705  1
