# generated using pymatgen
data_HfZrTaTiMo
_symmetry_space_group_name_H-M   'P 1'
_cell_length_a   15.20015572
_cell_length_b   15.22040930
_cell_length_c   16.85729518
_cell_angle_alpha   89.98745048
_cell_angle_beta   89.93820533
_cell_angle_gamma   89.89541645
_symmetry_Int_Tables_number   1
_chemical_formula_structural   HfZrTaTiMo
_chemical_formula_sum   'Hf40 Zr40 Ta40 Ti40 Mo40'
_cell_volume   3899.97006789
_cell_formula_units_Z   40
loop_
 _symmetry_equiv_pos_site_id
 _symmetry_equiv_pos_as_xyz
  1  'x, y, z'
loop_
 _atom_site_type_symbol
 _atom_site_label
 _atom_site_symmetry_multiplicity
 _atom_site_fract_x
 _atom_site_fract_y
 _atom_site_fract_z
 _atom_site_occupancy
  Hf  Hf0  1  0.10578484  0.88943839  0.11433898  1
  Hf  Hf1  1  0.41262268  -0.00115204  0.75571756  1
  Hf  Hf2  1  0.31794026  0.70628021  0.62841031  1
  Hf  Hf3  1  0.28630111  0.09972479  0.38175840  1
  Hf  Hf4  1  0.53312542  0.69826938  0.38708765  1
  Hf  Hf5  1  0.69139176  0.87610853  0.36864931  1
  Hf  Hf6  1  0.41231232  0.60059066  0.49833944  1
  Hf  Hf7  1  0.69501244  0.11059880  0.13931831  1
  Hf  Hf8  1  0.31057952  0.70207543  0.37096797  1
  Hf  Hf9  1  -0.00777726  0.80341907  0.49800665  1
  Hf  Hf10  1  0.20264000  0.19553575  0.24535681  1
  Hf  Hf11  1  0.37285750  0.39152323  0.73681678  1
  Hf  Hf12  1  0.19647584  0.59447627  0.73176052  1
  Hf  Hf13  1  0.20778136  -0.00076387  0.75615647  1
  Hf  Hf14  1  0.79376159  0.39094267  0.74421707  1
  Hf  Hf15  1  0.49059065  0.50826626  0.64221992  1
  Hf  Hf16  1  0.10530559  0.90200899  0.37859729  1
  Hf  Hf17  1  0.30454007  0.50951683  0.14060705  1
  Hf  Hf18  1  0.48331700  0.70326860  0.85021196  1
  Hf  Hf19  1  0.89071932  0.90683530  0.63119148  1
  Hf  Hf20  1  0.80465722  0.58556285  0.00301101  1
  Hf  Hf21  1  0.02223994  0.77852757  -0.00312523  1
  Hf  Hf22  1  0.49743237  0.88235825  0.11957471  1
  Hf  Hf23  1  0.38915535  0.39977940  0.50941726  1
  Hf  Hf24  1  0.01300651  0.58689454  0.00685597  1
  Hf  Hf25  1  0.69806167  0.30701233  0.36474513  1
  Hf  Hf26  1  0.31109610  0.70431566  0.13924024  1
  Hf  Hf27  1  -0.00325685  0.60045424  0.50317958  1
  Hf  Hf28  1  0.70199192  0.88901324  0.10679754  1
  Hf  Hf29  1  0.59481759  0.01696458  0.00928518  1
  Hf  Hf30  1  0.51475603  0.50261221  0.12379215  1
  Hf  Hf31  1  0.19457436  0.40142499  0.50779592  1
  Hf  Hf32  1  0.11163402  0.10168159  0.11034783  1
  Hf  Hf33  1  -0.00970093  0.79169604  0.25276209  1
  Hf  Hf34  1  0.58778783  0.38138708  0.75174959  1
  Hf  Hf35  1  -0.00526901  0.40213702  0.48734003  1
  Hf  Hf36  1  0.69668819  0.49895893  0.86764432  1
  Hf  Hf37  1  -0.00638241  0.20269246  -0.00279793  1
  Hf  Hf38  1  0.11301388  0.87967546  0.87409750  1
  Hf  Hf39  1  0.90158466  0.89287331  0.10676588  1
  Zr  Zr40  1  -0.01354000  0.00257022  0.76955160  1
  Zr  Zr41  1  0.58719786  0.40774374  0.49608246  1
  Zr  Zr42  1  0.57811067  0.19726914  0.26466342  1
  Zr  Zr43  1  0.80706712  0.59532300  0.24115610  1
  Zr  Zr44  1  0.20616399  -0.00668313  0.51491664  1
  Zr  Zr45  1  -0.00795234  0.40048992  0.00115986  1
  Zr  Zr46  1  0.89966000  0.10358734  0.13043358  1
  Zr  Zr47  1  0.79549929  0.41147597  0.49788598  1
  Zr  Zr48  1  0.80189447  -0.01812407  0.25184590  1
  Zr  Zr49  1  0.90154551  0.10624597  0.62073059  1
  Zr  Zr50  1  0.40027975  0.01243269  0.24130841  1
  Zr  Zr51  1  0.00148790  0.21314242  0.76563716  1
  Zr  Zr52  1  0.30381105  0.30373995  0.12592131  1
  Zr  Zr53  1  0.30229254  0.90340827  0.11329680  1
  Zr  Zr54  1  0.89813644  0.10495493  0.36109434  1
  Zr  Zr55  1  0.31234235  0.90044287  0.37922710  1
  Zr  Zr56  1  0.89941797  0.50132480  0.62978997  1
  Zr  Zr57  1  0.30319130  0.49924609  0.36115295  1
  Zr  Zr58  1  0.19653946  0.79877597  0.25345451  1
  Zr  Zr59  1  0.70867340  0.08589418  0.61377875  1
  Zr  Zr60  1  0.89192624  0.89373186  0.89381444  1
  Zr  Zr61  1  0.69558928  0.28928705  0.61735662  1
  Zr  Zr62  1  0.80026405  0.61822201  0.74488094  1
  Zr  Zr63  1  0.28102368  0.50378085  0.87607524  1
  Zr  Zr64  1  0.00665129  0.20832338  0.25068840  1
  Zr  Zr65  1  0.20746964  0.00228242  -0.01508229  1
  Zr  Zr66  1  0.40085757  0.20079439  0.49176913  1
  Zr  Zr67  1  0.00062938  0.00584818  0.49118714  1
  Zr  Zr68  1  0.68281543  0.68604718  0.10678347  1
  Zr  Zr69  1  0.48459103  0.50089208  0.85957703  1
  Zr  Zr70  1  0.69569163  0.70821908  0.88909859  1
  Zr  Zr71  1  0.39438270  0.40423379  -0.00154915  1
  Zr  Zr72  1  0.88305145  0.30359645  0.87635170  1
  Zr  Zr73  1  0.01368137  -0.00410756  0.25280467  1
  Zr  Zr74  1  0.09803804  0.10567911  0.63530413  1
  Zr  Zr75  1  0.59717134  0.38963211  -0.00973005  1
  Zr  Zr76  1  0.68951844  0.31499529  0.14400045  1
  Zr  Zr77  1  0.59478590  -0.02188544  0.49495811  1
  Zr  Zr78  1  -0.00211840  0.42158250  0.25811473  1
  Zr  Zr79  1  0.31128921  0.10074303  0.62560852  1
  Ta  Ta80  1  0.42074552  0.19947259  -0.00421557  1
  Ta  Ta81  1  0.59401908  -0.01209939  0.24423514  1
  Ta  Ta82  1  0.51011447  0.89833006  0.87965055  1
  Ta  Ta83  1  0.78997603  0.61679912  0.51230816  1
  Ta  Ta84  1  0.09737532  0.89425536  0.63468060  1
  Ta  Ta85  1  0.51812685  0.69862389  0.63692365  1
  Ta  Ta86  1  0.51690732  0.10708357  0.87230896  1
  Ta  Ta87  1  0.28525958  0.70249054  0.86644917  1
  Ta  Ta88  1  0.20719628  0.21579417  -0.00686568  1
  Ta  Ta89  1  0.79679340  0.18274380  0.75662705  1
  Ta  Ta90  1  0.43433610  0.60286060  0.25843861  1
  Ta  Ta91  1  0.31649479  0.88855776  0.87773526  1
  Ta  Ta92  1  0.80272169  0.19951233  0.48339912  1
  Ta  Ta93  1  0.60933253  0.80467158  0.74938716  1
  Ta  Ta94  1  -0.00194781  0.78798570  0.75283014  1
  Ta  Ta95  1  0.18225092  0.39834657  0.73462352  1
  Ta  Ta96  1  0.69772080  0.90377023  0.89400082  1
  Ta  Ta97  1  0.31459659  0.11111759  0.87565203  1
  Ta  Ta98  1  0.21171261  0.21252625  0.75575999  1
  Ta  Ta99  1  0.69604399  0.52572809  0.37714312  1
  Ta  Ta100  1  0.51059078  0.09545265  0.61908503  1
  Ta  Ta101  1  0.09589404  0.31067737  0.12272897  1
  Ta  Ta102  1  0.41044142  0.20223181  0.75039715  1
  Ta  Ta103  1  0.69463796  0.09253078  0.36785096  1
  Ta  Ta104  1  0.09654568  0.70398639  0.62133321  1
  Ta  Ta105  1  0.59855581  0.19483558  0.48340380  1
  Ta  Ta106  1  0.88320052  0.30528560  0.14122196  1
  Ta  Ta107  1  0.10850288  0.11249380  0.87742971  1
  Ta  Ta108  1  0.00229492  0.20829794  0.48579077  1
  Ta  Ta109  1  0.89880545  0.29264469  0.62076420  1
  Ta  Ta110  1  0.08910400  0.29985838  0.62185958  1
  Ta  Ta111  1  0.89034695  0.69385267  0.37675073  1
  Ta  Ta112  1  0.49851359  0.89577791  0.63316539  1
  Ta  Ta113  1  0.90821925  0.69325040  0.87931465  1
  Ta  Ta114  1  0.20253292  0.59802400  0.51094751  1
  Ta  Ta115  1  0.79845977  0.81797250  0.75449111  1
  Ta  Ta116  1  0.10958211  0.29950839  0.37343769  1
  Ta  Ta117  1  0.80231334  -0.01010006  0.48097618  1
  Ta  Ta118  1  0.61836883  -0.00486204  0.75244190  1
  Ta  Ta119  1  0.79152401  0.80263530  0.50784455  1
  Ti  Ti120  1  0.68454723  0.51652167  0.63416570  1
  Ti  Ti121  1  0.20528043  0.80031402  0.74027409  1
  Ti  Ti122  1  0.30203750  0.30382085  0.87759559  1
  Ti  Ti123  1  0.56567414  0.60558522  -0.01178327  1
  Ti  Ti124  1  0.40466109  0.77849133  -0.00515858  1
  Ti  Ti125  1  0.49447549  0.28650624  0.62105069  1
  Ti  Ti126  1  0.10503529  0.69527790  0.38123176  1
  Ti  Ti127  1  0.10965061  0.31472644  0.87922428  1
  Ti  Ti128  1  0.90109704  0.49266203  0.12980113  1
  Ti  Ti129  1  0.68107360  0.28009630  0.87542430  1
  Ti  Ti130  1  0.90739160  0.69641305  0.11946594  1
  Ti  Ti131  1  0.39627610  0.20706121  0.25697266  1
  Ti  Ti132  1  0.78706970  0.20533352  0.00406075  1
  Ti  Ti133  1  0.00447536  0.00491207  -0.01272663  1
  Ti  Ti134  1  0.19447089  0.20478477  0.50221009  1
  Ti  Ti135  1  0.20052175  0.61723946  0.00741921  1
  Ti  Ti136  1  0.89376490  0.31054877  0.36171483  1
  Ti  Ti137  1  0.70895251  0.09716380  0.88015260  1
  Ti  Ti138  1  0.10244918  0.51042853  0.37238824  1
  Ti  Ti139  1  0.49729842  0.29352787  0.13035525  1
  Ti  Ti140  1  0.49687916  0.89026602  0.36449242  1
  Ti  Ti141  1  0.00218090  0.60203457  0.74320309  1
  Ti  Ti142  1  0.79410354  0.39470143  0.00429788  1
  Ti  Ti143  1  0.60238826  0.18728997  0.74458382  1
  Ti  Ti144  1  0.30134706  0.30628055  0.36793724  1
  Ti  Ti145  1  0.89948783  0.50150111  0.86649268  1
  Ti  Ti146  1  0.58641997  0.42085372  0.26487843  1
  Ti  Ti147  1  0.79380902  0.78861512  0.24198535  1
  Ti  Ti148  1  0.40691931  0.00287793  -0.00798246  1
  Ti  Ti149  1  0.20471511  0.79597507  0.50827394  1
  Ti  Ti150  1  0.49258899  0.08424969  0.38088283  1
  Ti  Ti151  1  0.20245919  0.00311875  0.24554126  1
  Ti  Ti152  1  0.18683846  0.41762333  0.01134554  1
  Ti  Ti153  1  -0.00006935  0.40614798  0.74700293  1
  Ti  Ti154  1  0.80487915  0.01585227  0.00313225  1
  Ti  Ti155  1  0.41659452  0.81265594  0.50752299  1
  Ti  Ti156  1  0.31408394  0.10869205  0.10987348  1
  Ti  Ti157  1  0.09313889  0.50968338  0.86879738  1
  Ti  Ti158  1  0.59368557  0.77741064  0.24042426  1
  Ti  Ti159  1  0.19716212  0.40076675  0.24701995  1
  Mo  Mo160  1  0.71439858  0.70302560  0.37414725  1
  Mo  Mo161  1  0.10788324  0.10891417  0.37811994  1
  Mo  Mo162  1  0.10358040  0.68412590  0.86467520  1
  Mo  Mo163  1  0.50358210  0.50095075  0.37823930  1
  Mo  Mo164  1  0.49162209  0.10296573  0.12596616  1
  Mo  Mo165  1  0.40877805  -0.00657393  0.50552724  1
  Mo  Mo166  1  0.41031880  0.39346121  0.25175124  1
  Mo  Mo167  1  0.69678874  0.89833895  0.62698390  1
  Mo  Mo168  1  0.90798907  0.71445363  0.62970255  1
  Mo  Mo169  1  0.88726895  0.88323583  0.37377536  1
  Mo  Mo170  1  0.30304436  0.89599306  0.62514050  1
  Mo  Mo171  1  0.70656123  0.70945613  0.63590630  1
  Mo  Mo172  1  0.39818442  0.81093335  0.74775276  1
  Mo  Mo173  1  0.10381863  0.68814699  0.13389106  1
  Mo  Mo174  1  0.89234651  0.51167866  0.38097845  1
  Mo  Mo175  1  0.61216503  0.59860222  0.24762224  1
  Mo  Mo176  1  0.18646016  0.59838997  0.25347343  1
  Mo  Mo177  1  0.60359174  0.20190693  0.00194515  1
  Mo  Mo178  1  0.79629942  0.40905842  0.25960620  1
  Mo  Mo179  1  0.49312491  0.69081607  0.12006572  1
  Mo  Mo180  1  0.79264744  0.00102068  0.76203503  1
  Mo  Mo181  1  0.48896488  0.30765221  0.37230595  1
  Mo  Mo182  1  0.09213313  0.49925857  0.62196291  1
  Mo  Mo183  1  0.39058455  0.60378433  0.74189028  1
  Mo  Mo184  1  0.80756916  0.78981940  0.00056145  1
  Mo  Mo185  1  0.71021170  0.48840397  0.12492036  1
  Mo  Mo186  1  0.60299559  0.59952878  0.75292119  1
  Mo  Mo187  1  0.89253002  0.10367902  0.88844799  1
  Mo  Mo188  1  0.59008389  0.79984940  -0.00947469  1
  Mo  Mo189  1  0.10828223  0.50119234  0.13167719  1
  Mo  Mo190  1  0.41631721  0.79825188  0.25501965  1
  Mo  Mo191  1  0.28837606  0.29217896  0.62576697  1
  Mo  Mo192  1  0.21652915  0.78569802  -0.00343197  1
  Mo  Mo193  1  0.00920501  0.60943706  0.25286634  1
  Mo  Mo194  1  0.79443455  0.20254459  0.26123056  1
  Mo  Mo195  1  0.38270685  0.60815819  -0.00093624  1
  Mo  Mo196  1  0.29260589  0.50240741  0.61987839  1
  Mo  Mo197  1  0.48983621  0.28651678  0.86691028  1
  Mo  Mo198  1  0.61142618  0.59852668  0.51273150  1
  Mo  Mo199  1  0.60843076  0.78513318  0.51828824  1
