# generated using pymatgen
data_HfZrTaTiMo
_symmetry_space_group_name_H-M   'P 1'
_cell_length_a   15.19403943
_cell_length_b   15.20911654
_cell_length_c   16.88143938
_cell_angle_alpha   89.99803237
_cell_angle_beta   89.99429371
_cell_angle_gamma   89.93709644
_symmetry_Int_Tables_number   1
_chemical_formula_structural   HfZrTaTiMo
_chemical_formula_sum   'Hf40 Zr40 Ta40 Ti40 Mo40'
_cell_volume   3901.09428008
_cell_formula_units_Z   40
loop_
 _symmetry_equiv_pos_site_id
 _symmetry_equiv_pos_as_xyz
  1  'x, y, z'
loop_
 _atom_site_type_symbol
 _atom_site_label
 _atom_site_symmetry_multiplicity
 _atom_site_fract_x
 _atom_site_fract_y
 _atom_site_fract_z
 _atom_site_occupancy
  Hf  Hf0  1  0.09312564  0.09856707  0.62916521  1
  Hf  Hf1  1  0.60425233  0.38642940  0.25609982  1
  Hf  Hf2  1  0.32657697  0.69248501  0.36063997  1
  Hf  Hf3  1  0.28582872  0.29457146  0.12181019  1
  Hf  Hf4  1  0.21702216  0.78816546  0.50947200  1
  Hf  Hf5  1  0.41456264  -0.00995777  -0.00799775  1
  Hf  Hf6  1  0.41081388  -0.02522526  0.24662436  1
  Hf  Hf7  1  0.49115698  0.49269638  0.61993103  1
  Hf  Hf8  1  0.01007099  0.81876193  0.74581927  1
  Hf  Hf9  1  0.59814412  0.60086738  0.25065588  1
  Hf  Hf10  1  0.21119200  0.20535384  0.75196861  1
  Hf  Hf11  1  0.49708138  0.07246150  0.61062308  1
  Hf  Hf12  1  0.29744532  0.50382693  0.87815928  1
  Hf  Hf13  1  0.68468807  0.71521914  0.63017482  1
  Hf  Hf14  1  0.11962447  0.89946497  0.12016703  1
  Hf  Hf15  1  0.80405247  0.60917188  -0.00601531  1
  Hf  Hf16  1  -0.02343473  0.40112179  0.25405406  1
  Hf  Hf17  1  0.90099928  0.72767845  0.87145482  1
  Hf  Hf18  1  0.11116653  0.69488998  0.62688379  1
  Hf  Hf19  1  0.01119344  0.61154649  -0.01210397  1
  Hf  Hf20  1  0.29959082  0.08165042  0.11166289  1
  Hf  Hf21  1  0.19880915  0.20495500  0.50543224  1
  Hf  Hf22  1  0.00426834  0.00389062  0.00936014  1
  Hf  Hf23  1  0.00578140  0.80797034  0.49604566  1
  Hf  Hf24  1  0.79874116  0.62285263  0.49176893  1
  Hf  Hf25  1  0.69980345  0.48933621  0.38845574  1
  Hf  Hf26  1  0.68463279  0.71778713  0.87030737  1
  Hf  Hf27  1  0.11402764  0.11249267  0.13550260  1
  Hf  Hf28  1  0.52249940  0.87722479  0.88319650  1
  Hf  Hf29  1  0.88528102  0.31595876  0.86174262  1
  Hf  Hf30  1  0.30653562  0.89700350  0.38290392  1
  Hf  Hf31  1  0.20816702  0.78591582  -0.00028113  1
  Hf  Hf32  1  0.90780707  0.70624721  0.62948523  1
  Hf  Hf33  1  0.70453327  0.48967362  0.88147326  1
  Hf  Hf34  1  0.90179734  0.49928092  0.61153929  1
  Hf  Hf35  1  0.79727269  0.81222815  0.02253225  1
  Hf  Hf36  1  0.07674263  0.30302113  0.13112901  1
  Hf  Hf37  1  0.28847358  0.29443821  0.36332198  1
  Hf  Hf38  1  0.57966847  0.18224695  0.74751635  1
  Hf  Hf39  1  0.59034372  0.61161538  0.00271714  1
  Zr  Zr40  1  0.90249153  0.90141753  0.36268326  1
  Zr  Zr41  1  0.00344485  -0.00590799  0.23901045  1
  Zr  Zr42  1  0.89606787  0.11485993  0.35704375  1
  Zr  Zr43  1  0.69664293  0.50082691  0.61091852  1
  Zr  Zr44  1  0.41297583  -0.00130467  0.76174081  1
  Zr  Zr45  1  0.48185150  0.50149099  0.37200137  1
  Zr  Zr46  1  0.90325909  0.49054081  0.39502558  1
  Zr  Zr47  1  0.58459425  0.59719512  0.75797953  1
  Zr  Zr48  1  0.20325183  -0.00300475  0.74675450  1
  Zr  Zr49  1  0.50691801  0.08018970  0.38036658  1
  Zr  Zr50  1  0.42314369  0.79002435  0.51298328  1
  Zr  Zr51  1  0.08965215  0.30535829  0.62543304  1
  Zr  Zr52  1  0.11612155  0.70404368  0.36794212  1
  Zr  Zr53  1  0.90360924  0.13327253  0.14204662  1
  Zr  Zr54  1  0.49343825  0.48743154  0.12300393  1
  Zr  Zr55  1  0.09002506  0.50450977  0.62130112  1
  Zr  Zr56  1  -0.00307441  0.20590974  -0.01600104  1
  Zr  Zr57  1  0.39449700  0.18923667  0.24650376  1
  Zr  Zr58  1  0.59186837  0.38099171  0.49630396  1
  Zr  Zr59  1  0.10383411  0.90199504  0.87983525  1
  Zr  Zr60  1  0.80353527  0.01920987  0.02286675  1
  Zr  Zr61  1  0.80520486  0.60493028  0.26452399  1
  Zr  Zr62  1  0.80433177  0.82160386  0.50387415  1
  Zr  Zr63  1  0.10950801  0.10449260  0.36442812  1
  Zr  Zr64  1  0.29170701  0.30132225  0.88801329  1
  Zr  Zr65  1  0.79937372  0.60685347  0.75344634  1
  Zr  Zr66  1  0.08164256  0.30488087  0.37534073  1
  Zr  Zr67  1  0.59273699  0.38578708  0.75627224  1
  Zr  Zr68  1  0.70489734  0.49013232  0.11762744  1
  Zr  Zr69  1  0.61833025  -0.02418845  0.74172673  1
  Zr  Zr70  1  0.38873677  0.38619127  0.74927701  1
  Zr  Zr71  1  0.90497831  0.50748691  0.12760498  1
  Zr  Zr72  1  0.78763289  0.23103337  0.00434754  1
  Zr  Zr73  1  0.90606928  0.70639340  0.13499324  1
  Zr  Zr74  1  0.70093063  0.92165774  0.36328598  1
  Zr  Zr75  1  0.51580175  0.08820909  0.12544153  1
  Zr  Zr76  1  0.69354654  0.10598144  0.87649992  1
  Zr  Zr77  1  -0.01964097  0.40699202  -0.00513609  1
  Zr  Zr78  1  0.38108598  0.38658405  0.50160701  1
  Zr  Zr79  1  0.73019652  0.90906480  0.88299623  1
  Ta  Ta80  1  0.20182742  0.60019617  0.75624999  1
  Ta  Ta81  1  0.78924580  0.20194535  0.74897343  1
  Ta  Ta82  1  0.59536098  0.80436461  0.24795781  1
  Ta  Ta83  1  0.28658498  0.49954526  0.36977392  1
  Ta  Ta84  1  0.38989875  0.59810867  0.00553937  1
  Ta  Ta85  1  -0.00031605  0.80595535  0.00853731  1
  Ta  Ta86  1  0.28426293  0.50386621  0.62861593  1
  Ta  Ta87  1  0.59859057  0.37647974  -0.00821591  1
  Ta  Ta88  1  0.51281757  0.88599015  0.11535182  1
  Ta  Ta89  1  0.40455684  0.19760252  0.00316638  1
  Ta  Ta90  1  -0.00009537  0.20597711  0.76223179  1
  Ta  Ta91  1  0.89817340  0.08789918  0.86452885  1
  Ta  Ta92  1  0.18477070  0.40184355  0.75156946  1
  Ta  Ta93  1  -0.01892620  0.20453851  0.50048686  1
  Ta  Ta94  1  0.19114712  0.40183552  0.24649949  1
  Ta  Ta95  1  0.22464920  0.79816496  0.74100383  1
  Ta  Ta96  1  0.69162846  0.29095340  0.62644608  1
  Ta  Ta97  1  0.89339740  0.30084323  0.63212423  1
  Ta  Ta98  1  0.00279205  0.59859390  0.76281953  1
  Ta  Ta99  1  0.38200859  0.59845488  0.50807684  1
  Ta  Ta100  1  0.31069386  0.11202009  0.62303635  1
  Ta  Ta101  1  0.48993644  0.69805748  0.13600169  1
  Ta  Ta102  1  0.79480645  0.40373952  0.73974135  1
  Ta  Ta103  1  0.30360862  0.09567104  0.88581550  1
  Ta  Ta104  1  0.41155339  0.78116166  -0.00110008  1
  Ta  Ta105  1  0.10734508  0.69498307  0.13327154  1
  Ta  Ta106  1  0.20873675  0.00082043  0.50731832  1
  Ta  Ta107  1  0.32166335  0.90886384  0.62143999  1
  Ta  Ta108  1  0.09516008  0.49067328  0.87143614  1
  Ta  Ta109  1  0.10308127  0.50594385  0.12753863  1
  Ta  Ta110  1  0.49673115  0.28588375  0.37210880  1
  Ta  Ta111  1  0.47852250  0.27311239  0.62291498  1
  Ta  Ta112  1  0.69734729  0.71619979  0.36994085  1
  Ta  Ta113  1  0.30744475  0.88890758  0.87746475  1
  Ta  Ta114  1  0.70952817  0.09525951  0.62339581  1
  Ta  Ta115  1  0.00823616  0.61154055  0.48653325  1
  Ta  Ta116  1  0.58252928  0.61454121  0.49148861  1
  Ta  Ta117  1  0.00471156  0.00903187  0.49564274  1
  Ta  Ta118  1  0.79985909  0.82712956  0.73846229  1
  Ta  Ta119  1  0.79075177  0.20532895  0.50132910  1
  Ti  Ti120  1  0.59749106  0.18557109  0.00377646  1
  Ti  Ti121  1  0.69431252  0.91826852  0.13610636  1
  Ti  Ti122  1  0.29342830  0.49626772  0.12452849  1
  Ti  Ti123  1  0.21173503  0.80443927  0.24594855  1
  Ti  Ti124  1  0.10323699  0.50077698  0.37976061  1
  Ti  Ti125  1  0.90110759  0.10968972  0.63406208  1
  Ti  Ti126  1  0.50442313  0.88022830  0.37528668  1
  Ti  Ti127  1  0.49114525  0.49706240  0.88554129  1
  Ti  Ti128  1  0.39710988  0.18903216  0.49178463  1
  Ti  Ti129  1  0.18265765  0.39853643  0.00070732  1
  Ti  Ti130  1  0.39375400  0.60285299  0.74281209  1
  Ti  Ti131  1  0.10826259  0.90408118  0.61986296  1
  Ti  Ti132  1  0.00747288  0.60371098  0.26425207  1
  Ti  Ti133  1  0.19208889  0.40867795  0.50128974  1
  Ti  Ti134  1  0.31506242  0.88219740  0.11787454  1
  Ti  Ti135  1  0.90866079  0.92565180  0.62488553  1
  Ti  Ti136  1  0.59938625  0.18791002  0.49870004  1
  Ti  Ti137  1  0.30095578  0.69141603  0.13500934  1
  Ti  Ti138  1  0.20319430  0.59361151  0.24610678  1
  Ti  Ti139  1  0.10245974  0.09945377  0.86998291  1
  Ti  Ti140  1  0.79835256  0.81061840  0.23820110  1
  Ti  Ti141  1  0.60115673  0.19318839  0.25021129  1
  Ti  Ti142  1  0.31382148  0.70025371  0.86857024  1
  Ti  Ti143  1  0.00670945  0.79864747  0.24994269  1
  Ti  Ti144  1  0.81104162  0.01811713  0.49922235  1
  Ti  Ti145  1  0.61224806  -0.01542397  0.50605876  1
  Ti  Ti146  1  0.20051354  0.59460757  0.00140134  1
  Ti  Ti147  1  0.30245049  0.09159934  0.37662442  1
  Ti  Ti148  1  0.70377855  0.11187407  0.36362090  1
  Ti  Ti149  1  0.39799982  0.39444801  0.00286042  1
  Ti  Ti150  1  0.79053829  0.23743833  0.24642916  1
  Ti  Ti151  1  0.21416089  -0.00143933  0.25144279  1
  Ti  Ti152  1  0.19208136  0.19321381  -0.00796748  1
  Ti  Ti153  1  0.11110036  0.90686373  0.37636916  1
  Ti  Ti154  1  0.42403251  0.79183655  0.73867130  1
  Ti  Ti155  1  0.11454201  0.70355869  0.86679063  1
  Ti  Ti156  1  0.39189046  0.39697352  0.24709443  1
  Ti  Ti157  1  0.49874572  0.29318043  0.12511389  1
  Ti  Ti158  1  0.60961778  0.79876926  0.49499705  1
  Ti  Ti159  1  0.49479154  0.27647103  0.87836965  1
  Mo  Mo160  1  0.89802785  0.51273798  0.86702534  1
  Mo  Mo161  1  0.60144840  -0.00182366  0.25206122  1
  Mo  Mo162  1  0.78587157  0.40751414  0.25544867  1
  Mo  Mo163  1  0.87334682  0.32480548  0.12930762  1
  Mo  Mo164  1  0.39713443  0.18972215  0.75320057  1
  Mo  Mo165  1  0.68708928  0.29879883  0.86437440  1
  Mo  Mo166  1  0.39170469  0.58604626  0.23823572  1
  Mo  Mo167  1  0.69876400  0.11244676  0.14004533  1
  Mo  Mo168  1  0.00120851  0.00911644  0.74938952  1
  Mo  Mo169  1  0.67839109  0.29807325  0.12513459  1
  Mo  Mo170  1  -0.00556251  0.21228691  0.25443274  1
  Mo  Mo171  1  0.50854497  0.69771348  0.36861725  1
  Mo  Mo172  1  0.20125208  0.20069420  0.24750757  1
  Mo  Mo173  1  0.50090416  0.68504095  0.62516250  1
  Mo  Mo174  1  0.81607008  0.00922519  0.74322102  1
  Mo  Mo175  1  -0.00243464  0.39434737  0.49842626  1
  Mo  Mo176  1  0.20842299  -0.00237093  -0.00996675  1
  Mo  Mo177  1  0.39928966  -0.00623109  0.49883607  1
  Mo  Mo178  1  0.71253273  0.90917220  0.61451174  1
  Mo  Mo179  1  0.60547941  0.79671519  0.74829638  1
  Mo  Mo180  1  0.69317931  0.28646872  0.37965304  1
  Mo  Mo181  1  0.90589680  0.90336908  0.13741760  1
  Mo  Mo182  1  0.30552783  0.69556625  0.63617708  1
  Mo  Mo183  1  0.90143712  0.70648192  0.36522720  1
  Mo  Mo184  1  0.29487257  0.30289419  0.62339163  1
  Mo  Mo185  1  0.79189888  0.01379886  0.23312569  1
  Mo  Mo186  1  0.40312844  0.79252289  0.24466625  1
  Mo  Mo187  1  0.49931770  0.09361519  0.88769913  1
  Mo  Mo188  1  0.79929614  0.38344698  0.51309074  1
  Mo  Mo189  1  0.91008772  0.90651196  0.88023288  1
  Mo  Mo190  1  0.61343417  -0.00574419  0.00492564  1
  Mo  Mo191  1  0.87601172  0.30180327  0.38336198  1
  Mo  Mo192  1  0.20578863  0.59477743  0.49488701  1
  Mo  Mo193  1  0.51881228  0.88159684  0.62200042  1
  Mo  Mo194  1  0.78806527  0.40884050  -0.00358312  1
  Mo  Mo195  1  0.48700067  0.68863699  0.87601001  1
  Mo  Mo196  1  0.68699278  0.71466695  0.13288184  1
  Mo  Mo197  1  0.09707333  0.29870712  0.87207336  1
  Mo  Mo198  1  -0.00988269  0.40707389  0.75577722  1
  Mo  Mo199  1  0.60687787  0.79709339  0.01458479  1
