# generated using pymatgen
data_HfZrTaTiMo
_symmetry_space_group_name_H-M   'P 1'
_cell_length_a   15.20952836
_cell_length_b   15.20586707
_cell_length_c   16.86338629
_cell_angle_alpha   89.98196208
_cell_angle_beta   89.96126411
_cell_angle_gamma   89.94371556
_symmetry_Int_Tables_number   1
_chemical_formula_structural   HfZrTaTiMo
_chemical_formula_sum   'Hf40 Zr40 Ta40 Ti40 Mo40'
_cell_volume   3900.06095528
_cell_formula_units_Z   40
loop_
 _symmetry_equiv_pos_site_id
 _symmetry_equiv_pos_as_xyz
  1  'x, y, z'
loop_
 _atom_site_type_symbol
 _atom_site_label
 _atom_site_symmetry_multiplicity
 _atom_site_fract_x
 _atom_site_fract_y
 _atom_site_fract_z
 _atom_site_occupancy
  Hf  Hf0  1  0.41583627  0.38289343  0.24470776  1
  Hf  Hf1  1  0.00332256  0.79036805  -0.00025463  1
  Hf  Hf2  1  0.18295863  -0.00990424  0.25210809  1
  Hf  Hf3  1  0.30103790  0.27481152  0.13671895  1
  Hf  Hf4  1  0.00383051  0.81995453  0.24627319  1
  Hf  Hf5  1  0.40660605  0.39208158  0.02069241  1
  Hf  Hf6  1  0.62218223  0.39137880  0.00210923  1
  Hf  Hf7  1  0.11301118  0.49719358  0.87913313  1
  Hf  Hf8  1  0.41217161  0.80703597  0.25740957  1
  Hf  Hf9  1  0.88514150  0.10926138  0.12867321  1
  Hf  Hf10  1  0.30226774  0.70002467  0.14047547  1
  Hf  Hf11  1  0.48249925  0.12617277  0.12786395  1
  Hf  Hf12  1  0.61220712  0.60237773  0.74998706  1
  Hf  Hf13  1  -0.00091176  0.40435178  0.74944237  1
  Hf  Hf14  1  -0.01815908  0.21951204  -0.00278487  1
  Hf  Hf15  1  0.60426188  0.01098672  0.24069958  1
  Hf  Hf16  1  0.73716867  0.48860122  0.12812834  1
  Hf  Hf17  1  0.41016515  0.59080986  0.75195276  1
  Hf  Hf18  1  0.70796911  0.70435002  0.36756241  1
  Hf  Hf19  1  0.68665953  0.08243630  0.39055391  1
  Hf  Hf20  1  0.29555416  0.90671495  0.13264320  1
  Hf  Hf21  1  0.61073470  0.01961686  0.01609688  1
  Hf  Hf22  1  0.11511845  0.70730700  0.35984781  1
  Hf  Hf23  1  0.40705122  -0.00726926  0.51178252  1
  Hf  Hf24  1  -0.01145720  -0.00275357  0.76223921  1
  Hf  Hf25  1  0.30239119  0.09514392  0.85568628  1
  Hf  Hf26  1  0.89292657  0.90474551  0.62550570  1
  Hf  Hf27  1  0.09215623  0.89201429  0.63456719  1
  Hf  Hf28  1  0.59546712  0.81083296  0.74808727  1
  Hf  Hf29  1  0.81366575  0.60283875  0.75009096  1
  Hf  Hf30  1  0.30334147  0.49350260  0.36846701  1
  Hf  Hf31  1  0.89255905  0.29805970  0.62829764  1
  Hf  Hf32  1  0.90706652  0.71193675  0.35903138  1
  Hf  Hf33  1  0.28767157  0.88538186  0.37454076  1
  Hf  Hf34  1  0.70215340  0.69290948  0.12200860  1
  Hf  Hf35  1  0.77225138  0.20892430  0.01028847  1
  Hf  Hf36  1  0.08259428  0.10860133  0.37662399  1
  Hf  Hf37  1  0.29796798  0.30229286  0.61711237  1
  Hf  Hf38  1  0.09950168  0.69756622  0.13390947  1
  Hf  Hf39  1  0.49628756  0.70877104  0.87998665  1
  Zr  Zr40  1  0.48609695  0.31367798  0.87058882  1
  Zr  Zr41  1  0.37965840  0.80883282  0.00153503  1
  Zr  Zr42  1  0.50900267  0.50241214  0.60961001  1
  Zr  Zr43  1  0.80559685  0.40438347  0.48263195  1
  Zr  Zr44  1  0.89734743  0.68805633  0.13800757  1
  Zr  Zr45  1  0.80859399  0.61029429  0.49821925  1
  Zr  Zr46  1  0.41958716  0.59148030  0.25109614  1
  Zr  Zr47  1  0.30288021  0.88136033  0.64031513  1
  Zr  Zr48  1  0.69381664  0.30082629  0.60727140  1
  Zr  Zr49  1  0.40263249  0.20836096  0.73757748  1
  Zr  Zr50  1  0.20920546  0.39095081  0.75059472  1
  Zr  Zr51  1  0.18504094  -0.00982774  0.50943119  1
  Zr  Zr52  1  0.10560437  0.88678073  0.87223950  1
  Zr  Zr53  1  0.70433481  0.71000032  0.61849053  1
  Zr  Zr54  1  0.20378599  0.38629173  0.00552559  1
  Zr  Zr55  1  0.88122252  0.09530370  0.88588480  1
  Zr  Zr56  1  0.60031061  0.01104679  0.73430783  1
  Zr  Zr57  1  0.08136038  0.30236224  0.13555448  1
  Zr  Zr58  1  0.00070060  0.39347953  0.49038125  1
  Zr  Zr59  1  0.52983017  0.50597263  0.12309063  1
  Zr  Zr60  1  0.40679945  0.59574915  0.00772700  1
  Zr  Zr61  1  0.28715902  0.69591415  0.86485981  1
  Zr  Zr62  1  0.91570084  0.50409517  0.88420667  1
  Zr  Zr63  1  0.29688154  0.29488266  0.37592606  1
  Zr  Zr64  1  0.20794230  0.60679377  0.50153590  1
  Zr  Zr65  1  0.61352058  0.80874051  0.24161922  1
  Zr  Zr66  1  -0.00888519  0.41551016  0.24965533  1
  Zr  Zr67  1  0.59690638  0.81134426  0.00949394  1
  Zr  Zr68  1  0.39881686  0.78931752  0.49049418  1
  Zr  Zr69  1  0.70375081  0.92014638  0.88093965  1
  Zr  Zr70  1  0.50438570  0.10265700  0.86956694  1
  Zr  Zr71  1  0.01131527  0.60097271  0.49749873  1
  Zr  Zr72  1  0.39817832  0.01850655  0.25933168  1
  Zr  Zr73  1  0.28998812  0.09345716  0.39043756  1
  Zr  Zr74  1  0.19123593  0.40259809  0.50145806  1
  Zr  Zr75  1  0.09688046  0.09783333  0.11368329  1
  Zr  Zr76  1  0.20356571  0.59742812  0.01057691  1
  Zr  Zr77  1  0.59526121  0.40468790  0.75132211  1
  Zr  Zr78  1  0.70110636  0.69526222  0.88781200  1
  Zr  Zr79  1  0.21205027  -0.00690526  -0.01109172  1
  Ta  Ta80  1  0.90297374  0.70624557  0.87669719  1
  Ta  Ta81  1  0.29083971  0.09777741  0.62982619  1
  Ta  Ta82  1  0.49916409  0.30898552  0.60252714  1
  Ta  Ta83  1  0.00219326  0.80301134  0.49798452  1
  Ta  Ta84  1  0.09368385  0.10298493  0.87769848  1
  Ta  Ta85  1  0.49278799  0.91045414  0.87538282  1
  Ta  Ta86  1  0.52078624  0.91303776  0.38165418  1
  Ta  Ta87  1  0.09085803  0.68530133  0.86760762  1
  Ta  Ta88  1  0.89651528  0.90400897  0.12307249  1
  Ta  Ta89  1  0.40621840  0.59782120  0.49231854  1
  Ta  Ta90  1  0.09873240  0.89727668  0.11246518  1
  Ta  Ta91  1  0.30841711  0.89200908  0.84891834  1
  Ta  Ta92  1  0.90444437  0.50478643  0.62700398  1
  Ta  Ta93  1  0.89633892  0.10565648  0.62603578  1
  Ta  Ta94  1  0.18507449  0.19834796  0.51008332  1
  Ta  Ta95  1  0.80802691  0.19489562  0.48532821  1
  Ta  Ta96  1  0.08680010  0.10148671  0.63086562  1
  Ta  Ta97  1  0.18633486  0.19528470  0.75070692  1
  Ta  Ta98  1  0.49644545  0.70753745  0.62100271  1
  Ta  Ta99  1  0.70980104  0.50076276  0.61822317  1
  Ta  Ta100  1  0.80636144  0.81188952  0.00130368  1
  Ta  Ta101  1  0.69079809  0.29676979  0.38362883  1
  Ta  Ta102  1  0.57329402  0.20681118  0.27269162  1
  Ta  Ta103  1  0.87438712  0.30492576  0.86811513  1
  Ta  Ta104  1  0.19720623  0.57948655  0.23941746  1
  Ta  Ta105  1  0.71792379  0.48608361  0.88511388  1
  Ta  Ta106  1  0.32142996  0.47927708  0.87319830  1
  Ta  Ta107  1  0.70813465  0.10407499  0.60552178  1
  Ta  Ta108  1  0.60736158  0.39834835  0.26349499  1
  Ta  Ta109  1  0.79361651  0.01274638  0.74458594  1
  Ta  Ta110  1  0.19730409  0.18703400  0.25006542  1
  Ta  Ta111  1  -0.01145034  0.01041990  0.24737149  1
  Ta  Ta112  1  0.78179990  0.19297450  0.25898239  1
  Ta  Ta113  1  0.39718391  0.19685409  0.50504437  1
  Ta  Ta114  1  -0.01087757  0.19922852  0.75939852  1
  Ta  Ta115  1  0.38184424  0.19943831  -0.00912732  1
  Ta  Ta116  1  0.31061882  0.49912724  0.62233392  1
  Ta  Ta117  1  0.80225618  0.81218919  0.75616126  1
  Ta  Ta118  1  0.80753559  0.81938931  0.48921847  1
  Ta  Ta119  1  0.91092711  0.70884932  0.62622338  1
  Ti  Ti120  1  0.58043179  0.21001061  0.00036741  1
  Ti  Ti121  1  0.19708124  0.19444623  -0.00906318  1
  Ti  Ti122  1  0.60200963  0.80615280  0.49650131  1
  Ti  Ti123  1  -0.00586605  0.79062137  0.75557335  1
  Ti  Ti124  1  0.08488766  0.90356763  0.38131951  1
  Ti  Ti125  1  0.09060697  0.29407059  0.62995005  1
  Ti  Ti126  1  0.30490060  0.68926278  0.35816903  1
  Ti  Ti127  1  0.10162306  0.69590825  0.63740948  1
  Ti  Ti128  1  0.51134876  0.49099756  0.38537254  1
  Ti  Ti129  1  0.19264745  -0.00157265  0.74763829  1
  Ti  Ti130  1  0.51089225  0.10984543  0.61241551  1
  Ti  Ti131  1  0.50882747  0.69825968  0.37433946  1
  Ti  Ti132  1  -0.01325047  -0.00640916  -0.00775150  1
  Ti  Ti133  1  0.09144941  0.29837241  0.87541559  1
  Ti  Ti134  1  0.50438217  0.70348253  0.12296184  1
  Ti  Ti135  1  0.40267469  0.00891430  0.00018515  1
  Ti  Ti136  1  0.60670939  0.60191789  0.49181429  1
  Ti  Ti137  1  0.68758560  0.29027258  0.14559217  1
  Ti  Ti138  1  0.10028362  0.29984569  0.35760368  1
  Ti  Ti139  1  0.62047968  0.59032801  0.25864337  1
  Ti  Ti140  1  0.89754692  0.51482135  0.36702020  1
  Ti  Ti141  1  0.41342159  -0.00839856  0.73087788  1
  Ti  Ti142  1  0.51823665  0.50973529  0.89043494  1
  Ti  Ti143  1  -0.00455391  0.20043253  0.50164233  1
  Ti  Ti144  1  0.30284394  0.69155966  0.63542414  1
  Ti  Ti145  1  0.49711883  0.90882961  0.12418235  1
  Ti  Ti146  1  0.81451725  0.59708651  0.00024240  1
  Ti  Ti147  1  0.79324337  -0.01773302  0.25136116  1
  Ti  Ti148  1  0.19933995  0.59177187  0.74554068  1
  Ti  Ti149  1  0.89040942  0.09111877  0.36845038  1
  Ti  Ti150  1  0.10385533  0.49985643  0.36718826  1
  Ti  Ti151  1  0.10205055  0.49995348  0.62827551  1
  Ti  Ti152  1  0.69641553  0.12257773  0.86960914  1
  Ti  Ti153  1  -0.01940731  0.00218995  0.49837756  1
  Ti  Ti154  1  0.19487350  0.79255854  0.50755067  1
  Ti  Ti155  1  0.79058344  0.39796992  0.74633163  1
  Ti  Ti156  1  0.61131356  0.20869524  0.74015505  1
  Ti  Ti157  1  0.90701729  0.28318313  0.36137077  1
  Ti  Ti158  1  0.69984249  0.90790027  0.61546564  1
  Ti  Ti159  1  0.79565172  0.39626886  0.26670651  1
  Mo  Mo160  1  0.39882644  0.40471969  0.49529021  1
  Mo  Mo161  1  0.00701043  0.60277813  0.74151797  1
  Mo  Mo162  1  0.49675794  0.30397641  0.39713528  1
  Mo  Mo163  1  0.70505680  0.89705209  0.37863737  1
  Mo  Mo164  1  0.60419082  0.40795246  0.48852200  1
  Mo  Mo165  1  0.71105024  0.90775700  0.11895847  1
  Mo  Mo166  1  0.89437441  0.89355996  0.87605221  1
  Mo  Mo167  1  0.50983915  0.89310071  0.61584918  1
  Mo  Mo168  1  0.28930666  0.29325547  0.87490578  1
  Mo  Mo169  1  0.87395316  0.31085190  0.13790788  1
  Mo  Mo170  1  0.60128761  -0.00792976  0.51395637  1
  Mo  Mo171  1  0.20214950  0.79892578  0.25059556  1
  Mo  Mo172  1  0.20143107  0.39537562  0.24442674  1
  Mo  Mo173  1  0.81721617  0.38556158  0.00490388  1
  Mo  Mo174  1  0.69060221  0.11134792  0.13986751  1
  Mo  Mo175  1  0.50803541  0.29813633  0.12801510  1
  Mo  Mo176  1  0.90085351  0.91023294  0.37292224  1
  Mo  Mo177  1  0.70196279  0.50407867  0.37027539  1
  Mo  Mo178  1  0.69552332  0.29874554  0.86920243  1
  Mo  Mo179  1  0.19980727  0.79857632  -0.00232936  1
  Mo  Mo180  1  0.40618917  0.79573449  0.74887748  1
  Mo  Mo181  1  -0.01346414  0.19739258  0.25191575  1
  Mo  Mo182  1  0.80636715  0.00398069  0.50146354  1
  Mo  Mo183  1  0.81077857  0.58830227  0.25081066  1
  Mo  Mo184  1  0.29481027  0.48528260  0.14079028  1
  Mo  Mo185  1  0.29051666  0.09801611  0.12123823  1
  Mo  Mo186  1  0.00541399  0.59836916  0.25542203  1
  Mo  Mo187  1  0.49569539  0.10183020  0.39252984  1
  Mo  Mo188  1  0.79312525  0.20024153  0.74565335  1
  Mo  Mo189  1  0.59369266  0.19804449  0.49116843  1
  Mo  Mo190  1  0.00047335  0.39565366  -0.00181120  1
  Mo  Mo191  1  0.00471278  0.59780299  0.00113616  1
  Mo  Mo192  1  0.39518709  0.19503685  0.26654960  1
  Mo  Mo193  1  0.80189680  0.80847251  0.24592636  1
  Mo  Mo194  1  0.79794160  0.00253763  0.01075331  1
  Mo  Mo195  1  0.19289652  0.78554829  0.74513290  1
  Mo  Mo196  1  0.09843498  0.49924931  0.11910290  1
  Mo  Mo197  1  0.92449867  0.49391448  0.10856474  1
  Mo  Mo198  1  0.40112259  0.40542425  0.74500107  1
  Mo  Mo199  1  0.61796141  0.59597701  -0.00331994  1
