# generated using pymatgen
data_HfZrTaTiMo
_symmetry_space_group_name_H-M   'P 1'
_cell_length_a   15.21620057
_cell_length_b   15.21767332
_cell_length_c   16.78793257
_cell_angle_alpha   89.96753287
_cell_angle_beta   90.03122570
_cell_angle_gamma   89.97116689
_symmetry_Int_Tables_number   1
_chemical_formula_structural   HfZrTaTiMo
_chemical_formula_sum   'Hf40 Zr40 Ta40 Ti40 Mo40'
_cell_volume   3887.33087751
_cell_formula_units_Z   40
loop_
 _symmetry_equiv_pos_site_id
 _symmetry_equiv_pos_as_xyz
  1  'x, y, z'
loop_
 _atom_site_type_symbol
 _atom_site_label
 _atom_site_symmetry_multiplicity
 _atom_site_fract_x
 _atom_site_fract_y
 _atom_site_fract_z
 _atom_site_occupancy
  Hf  Hf0  1  0.21425914  0.59067526  0.24928750  1
  Hf  Hf1  1  0.00073817  0.39770323  0.00047795  1
  Hf  Hf2  1  0.90408603  0.28013812  0.87269999  1
  Hf  Hf3  1  0.49704431  0.69154129  0.37948035  1
  Hf  Hf4  1  0.30505169  0.90942022  0.62829835  1
  Hf  Hf5  1  0.30702941  0.30356096  0.89608281  1
  Hf  Hf6  1  0.31771555  0.11559768  0.62711099  1
  Hf  Hf7  1  0.79653566  -0.01409337  0.76232129  1
  Hf  Hf8  1  0.37785898  0.59351714  0.77007631  1
  Hf  Hf9  1  0.89954201  0.66687377  0.61209492  1
  Hf  Hf10  1  0.60582587  0.19184238  0.49064745  1
  Hf  Hf11  1  -0.02223103  0.19857185  0.50439234  1
  Hf  Hf12  1  0.00124136  0.80644816  -0.00442375  1
  Hf  Hf13  1  0.60494251  0.59531197  -0.00062752  1
  Hf  Hf14  1  0.19523004  0.19748365  0.50504885  1
  Hf  Hf15  1  0.00563463  0.78868225  0.51496138  1
  Hf  Hf16  1  0.01250611  -0.00966651  0.52190050  1
  Hf  Hf17  1  0.80011826  0.58246458  0.26155818  1
  Hf  Hf18  1  0.31524268  0.69364198  0.10972702  1
  Hf  Hf19  1  0.09906997  0.69730363  0.36709710  1
  Hf  Hf20  1  0.68714470  0.29312661  0.87324796  1
  Hf  Hf21  1  0.61485116  0.80042417  0.73612167  1
  Hf  Hf22  1  0.10159534  0.30704745  0.86632211  1
  Hf  Hf23  1  0.61899894  0.00891551  0.00051373  1
  Hf  Hf24  1  0.51135281  0.10597542  0.14818346  1
  Hf  Hf25  1  0.79556638  0.18198581  0.00181520  1
  Hf  Hf26  1  0.68421665  0.49578325  0.86774127  1
  Hf  Hf27  1  0.09367366  0.09370095  0.37452950  1
  Hf  Hf28  1  0.90244704  0.89831398  0.12586916  1
  Hf  Hf29  1  0.50356230  0.12453792  0.86623605  1
  Hf  Hf30  1  0.09942037  0.50538514  0.11711691  1
  Hf  Hf31  1  0.08322505  0.31234580  0.63662871  1
  Hf  Hf32  1  0.79793173  0.79716351  -0.00742452  1
  Hf  Hf33  1  0.90567834  0.68731831  0.13205898  1
  Hf  Hf34  1  0.49383478  0.28639263  0.61550270  1
  Hf  Hf35  1  0.38394509  0.41640195  0.25967153  1
  Hf  Hf36  1  0.79571986  0.79518480  0.50107574  1
  Hf  Hf37  1  0.60477439  -0.00501332  0.49179460  1
  Hf  Hf38  1  0.39783705  0.80609866  0.75775288  1
  Hf  Hf39  1  0.08897769  0.29669600  0.37617017  1
  Zr  Zr40  1  -0.00710330  -0.01446795  0.74722989  1
  Zr  Zr41  1  0.70806619  0.09150182  0.35090650  1
  Zr  Zr42  1  0.51458211  0.90549211  0.87619452  1
  Zr  Zr43  1  0.20738908  0.00167706  0.76190386  1
  Zr  Zr44  1  0.70513602  0.91371788  0.13450323  1
  Zr  Zr45  1  -0.00981755  0.41215083  0.24762210  1
  Zr  Zr46  1  0.40877974  0.01483087  0.00120006  1
  Zr  Zr47  1  0.79959196  0.39452833  0.74256521  1
  Zr  Zr48  1  0.48385328  0.30215241  0.14155823  1
  Zr  Zr49  1  0.10610861  0.70130733  0.12219525  1
  Zr  Zr50  1  0.19627951  0.80974324  0.50965259  1
  Zr  Zr51  1  0.89891047  0.49602790  0.87196122  1
  Zr  Zr52  1  0.50465604  0.69525428  0.86961818  1
  Zr  Zr53  1  0.18197585  0.40982251  0.49975734  1
  Zr  Zr54  1  0.49599120  0.89594594  0.12600195  1
  Zr  Zr55  1  0.29812986  0.10865294  0.36555368  1
  Zr  Zr56  1  0.19927093  0.79627947  0.75714895  1
  Zr  Zr57  1  0.78388059  0.39695084  0.00433386  1
  Zr  Zr58  1  0.20170211  0.42286379  0.74676539  1
  Zr  Zr59  1  0.19442212  0.39545825  0.25480580  1
  Zr  Zr60  1  0.10312313  0.10647807  0.64080690  1
  Zr  Zr61  1  0.59846279  0.79427979  0.25732728  1
  Zr  Zr62  1  0.21133225  0.81117314  0.23757786  1
  Zr  Zr63  1  0.09071888  0.11323941  0.86708821  1
  Zr  Zr64  1  0.91177185  0.91140647  0.37764486  1
  Zr  Zr65  1  0.70239791  0.69364606  0.13234531  1
  Zr  Zr66  1  0.80666539  0.01282725  0.50114128  1
  Zr  Zr67  1  0.40910601  0.01628494  0.49436658  1
  Zr  Zr68  1  0.39858152  0.39292841  0.74831322  1
  Zr  Zr69  1  0.80058847  0.80188836  0.27215987  1
  Zr  Zr70  1  0.60930191  0.59776228  0.51730355  1
  Zr  Zr71  1  0.59780232  0.41804236  0.26050101  1
  Zr  Zr72  1  0.29670581  0.51522627  0.61201095  1
  Zr  Zr73  1  0.60080958  0.80218487  0.50486152  1
  Zr  Zr74  1  0.00825230  0.80314981  0.25085499  1
  Zr  Zr75  1  0.30374476  0.69986916  0.37989050  1
  Zr  Zr76  1  0.19565388  0.00454788  0.22650597  1
  Zr  Zr77  1  0.48339331  0.69492756  0.62808971  1
  Zr  Zr78  1  0.70411692  0.70181680  0.86607181  1
  Zr  Zr79  1  0.89872738  0.29329114  0.12299991  1
  Ta  Ta80  1  0.39270060  -0.00543383  0.24365361  1
  Ta  Ta81  1  0.40588995  0.58728243  -0.01754240  1
  Ta  Ta82  1  0.79569926  0.18884734  0.75068982  1
  Ta  Ta83  1  0.40274163  0.00948734  0.76154747  1
  Ta  Ta84  1  0.40181346  0.81156989  0.50197499  1
  Ta  Ta85  1  0.30812640  0.11871643  0.12111146  1
  Ta  Ta86  1  0.30474545  0.90136008  0.89304485  1
  Ta  Ta87  1  0.10015468  0.50504113  0.87465447  1
  Ta  Ta88  1  0.30374220  0.30399776  0.38904643  1
  Ta  Ta89  1  0.22051022  0.21573137  0.74903505  1
  Ta  Ta90  1  0.68901645  0.29222753  0.13608548  1
  Ta  Ta91  1  0.50139081  0.69308942  0.12459361  1
  Ta  Ta92  1  0.79762331  0.59945420  0.74238952  1
  Ta  Ta93  1  0.49700132  0.90382181  0.36457447  1
  Ta  Ta94  1  0.79292430  0.39183012  0.25033412  1
  Ta  Ta95  1  0.90702137  0.70030540  0.86330354  1
  Ta  Ta96  1  0.59838353  0.39331810  0.73052007  1
  Ta  Ta97  1  0.81410782  -0.00993131  -0.02224216  1
  Ta  Ta98  1  0.89401582  0.09475629  0.13040639  1
  Ta  Ta99  1  0.59866298  0.80145672  0.00322361  1
  Ta  Ta100  1  0.20327322  0.60051018  -0.01658584  1
  Ta  Ta101  1  0.49144642  0.51173151  0.13034497  1
  Ta  Ta102  1  0.00633452  0.00540086  0.23560050  1
  Ta  Ta103  1  0.59749195  0.58454857  0.73200074  1
  Ta  Ta104  1  0.58182843  0.40028828  0.00833669  1
  Ta  Ta105  1  0.00015649  0.01365071  0.00057834  1
  Ta  Ta106  1  0.29316018  0.30779395  0.10806268  1
  Ta  Ta107  1  0.19376392  0.00614513  0.00555198  1
  Ta  Ta108  1  0.59267302  0.20490079  0.00911930  1
  Ta  Ta109  1  0.49417478  0.29848690  0.37525562  1
  Ta  Ta110  1  0.90563181  0.67812402  0.38661409  1
  Ta  Ta111  1  0.49298532  0.50107139  0.39435833  1
  Ta  Ta112  1  0.81440778  0.79692654  0.73594044  1
  Ta  Ta113  1  0.30318918  0.90523473  0.37454029  1
  Ta  Ta114  1  0.79901661  0.38334974  0.50636265  1
  Ta  Ta115  1  0.50148482  0.91164326  0.63310107  1
  Ta  Ta116  1  0.00338146  0.79025881  0.73018029  1
  Ta  Ta117  1  0.51007384  0.09944438  0.63823561  1
  Ta  Ta118  1  0.49987113  0.10668074  0.34946046  1
  Ta  Ta119  1  0.80576176  0.59748587  -0.00237834  1
  Ti  Ti120  1  0.70151337  0.49291334  0.38919303  1
  Ti  Ti121  1  0.29110037  0.70143716  0.62521627  1
  Ti  Ti122  1  0.71643205  0.49610960  0.61805299  1
  Ti  Ti123  1  0.08150133  0.51261810  0.62315802  1
  Ti  Ti124  1  0.70004596  0.68511396  0.37788681  1
  Ti  Ti125  1  0.30276867  0.89947074  0.10429777  1
  Ti  Ti126  1  0.18455305  0.61284803  0.50148504  1
  Ti  Ti127  1  0.69956538  0.11056043  0.62818494  1
  Ti  Ti128  1  0.70497853  0.10518415  0.15025943  1
  Ti  Ti129  1  0.30171480  0.11058549  0.88381974  1
  Ti  Ti130  1  0.09689239  0.90205470  0.87905080  1
  Ti  Ti131  1  0.20101411  0.20553441  0.24121511  1
  Ti  Ti132  1  0.50098423  0.31250189  0.87609790  1
  Ti  Ti133  1  0.10230485  0.29863622  0.11859324  1
  Ti  Ti134  1  0.08626886  0.50600235  0.37861391  1
  Ti  Ti135  1  0.88881109  0.29401163  0.62901912  1
  Ti  Ti136  1  0.39742017  0.79340579  0.24890989  1
  Ti  Ti137  1  0.89032131  0.29707920  0.37345171  1
  Ti  Ti138  1  0.69412732  0.49812197  0.12872983  1
  Ti  Ti139  1  0.70252618  0.29340799  0.36818507  1
  Ti  Ti140  1  0.30202778  0.30834620  0.60841625  1
  Ti  Ti141  1  0.89876966  0.48858981  0.38939957  1
  Ti  Ti142  1  0.20120269  0.80221026  -0.00661221  1
  Ti  Ti143  1  0.60638718  0.00503395  0.75158005  1
  Ti  Ti144  1  -0.00217345  0.60542202  -0.00854698  1
  Ti  Ti145  1  0.11022506  0.90344862  0.37404617  1
  Ti  Ti146  1  0.89192934  0.09888876  0.63415018  1
  Ti  Ti147  1  0.00500664  0.20035435  0.24187384  1
  Ti  Ti148  1  0.48937938  0.49056156  0.60946694  1
  Ti  Ti149  1  0.20454513  -0.00003232  0.50392040  1
  Ti  Ti150  1  0.70657563  0.90931865  0.62385050  1
  Ti  Ti151  1  0.09919904  0.70113649  0.87122592  1
  Ti  Ti152  1  0.89280245  0.50046072  0.12122531  1
  Ti  Ti153  1  0.18918929  0.20034517  0.00349437  1
  Ti  Ti154  1  0.60255449  0.39090698  0.50364960  1
  Ti  Ti155  1  0.00271159  0.59272054  0.74952902  1
  Ti  Ti156  1  0.30203178  0.50833292  0.39599315  1
  Ti  Ti157  1  0.70012509  0.10040132  0.87019296  1
  Ti  Ti158  1  0.90064368  0.11066056  0.35687825  1
  Ti  Ti159  1  0.30166820  0.49578255  0.10722395  1
  Mo  Mo160  1  0.59972833  -0.00497783  0.25695062  1
  Mo  Mo161  1  0.19674514  0.40630555  0.00020243  1
  Mo  Mo162  1  0.69955444  0.89251034  0.37493462  1
  Mo  Mo163  1  0.00669083  0.58434486  0.49617357  1
  Mo  Mo164  1  0.40612487  0.20521699  0.00504611  1
  Mo  Mo165  1  0.81432696  0.00026995  0.25172779  1
  Mo  Mo166  1  0.40364897  0.79542668  -0.00418484  1
  Mo  Mo167  1  -0.00337061  0.40392699  0.75077967  1
  Mo  Mo168  1  0.60552221  0.20341036  0.74467010  1
  Mo  Mo169  1  0.79947858  0.58502831  0.48971445  1
  Mo  Mo170  1  0.89783159  0.09653144  0.87125868  1
  Mo  Mo171  1  0.60307363  0.21310489  0.25992131  1
  Mo  Mo172  1  0.90763429  0.47978999  0.62058765  1
  Mo  Mo173  1  0.40260247  0.40080864  0.49385664  1
  Mo  Mo174  1  0.79571079  0.20244602  0.49809160  1
  Mo  Mo175  1  0.10474600  0.89534291  0.63038683  1
  Mo  Mo176  1  -0.00330892  0.59223344  0.25650472  1
  Mo  Mo177  1  0.89527334  0.89138501  0.62186172  1
  Mo  Mo178  1  0.50544614  0.48739941  0.86696296  1
  Mo  Mo179  1  0.90901467  0.88678085  0.87255696  1
  Mo  Mo180  1  0.10650880  0.68498665  0.63196118  1
  Mo  Mo181  1  0.70496093  0.69316466  0.63312911  1
  Mo  Mo182  1  0.40720307  0.20347695  0.49241856  1
  Mo  Mo183  1  0.29694843  0.49649991  0.88693552  1
  Mo  Mo184  1  0.38457695  0.20887292  0.25371941  1
  Mo  Mo185  1  -0.01111366  0.20211298  0.74076357  1
  Mo  Mo186  1  0.00167346  0.19477021  0.00584760  1
  Mo  Mo187  1  0.39891216  0.20121898  0.75409055  1
  Mo  Mo188  1  0.69725102  0.29139252  0.62224914  1
  Mo  Mo189  1  0.70153918  0.89810273  0.87314311  1
  Mo  Mo190  1  0.40703766  0.40468002  0.00310906  1
  Mo  Mo191  1  0.39477124  0.60756315  0.50606232  1
  Mo  Mo192  1  0.81021092  0.20779785  0.24577365  1
  Mo  Mo193  1  0.29802804  0.70806436  0.89176738  1
  Mo  Mo194  1  0.19011306  0.60846962  0.76259422  1
  Mo  Mo195  1  0.10367361  0.90873570  0.10640215  1
  Mo  Mo196  1  0.09591137  0.11542507  0.11833770  1
  Mo  Mo197  1  0.40711696  0.59826490  0.24891756  1
  Mo  Mo198  1  0.59890129  0.59379513  0.25851366  1
  Mo  Mo199  1  -0.01197694  0.39456736  0.49831996  1
