# generated using pymatgen
data_HfZrTaTiMo
_symmetry_space_group_name_H-M   'P 1'
_cell_length_a   15.21516510
_cell_length_b   15.19116011
_cell_length_c   16.86994630
_cell_angle_alpha   89.98193151
_cell_angle_beta   89.99392690
_cell_angle_gamma   89.96332711
_symmetry_Int_Tables_number   1
_chemical_formula_structural   HfZrTaTiMo
_chemical_formula_sum   'Hf40 Zr40 Ta40 Ti40 Mo40'
_cell_volume   3899.25104859
_cell_formula_units_Z   40
loop_
 _symmetry_equiv_pos_site_id
 _symmetry_equiv_pos_as_xyz
  1  'x, y, z'
loop_
 _atom_site_type_symbol
 _atom_site_label
 _atom_site_symmetry_multiplicity
 _atom_site_fract_x
 _atom_site_fract_y
 _atom_site_fract_z
 _atom_site_occupancy
  Hf  Hf0  1  0.00247410  0.20838113  0.75837429  1
  Hf  Hf1  1  0.21509963  0.00748451  0.75823933  1
  Hf  Hf2  1  0.07753262  0.49200832  0.61838185  1
  Hf  Hf3  1  0.90885335  0.31270013  0.61942625  1
  Hf  Hf4  1  0.29811774  0.30433577  0.37125140  1
  Hf  Hf5  1  0.39366868  0.20648047  0.24490631  1
  Hf  Hf6  1  0.49451564  0.08752550  0.62029566  1
  Hf  Hf7  1  0.50356669  0.31590515  0.12917296  1
  Hf  Hf8  1  0.50745036  0.70782327  0.62150675  1
  Hf  Hf9  1  0.29130380  0.09306440  0.37860635  1
  Hf  Hf10  1  0.49763953  0.70656564  0.87809961  1
  Hf  Hf11  1  0.10461660  0.29120725  0.61940740  1
  Hf  Hf12  1  0.39171510  0.61291721  0.74295884  1
  Hf  Hf13  1  0.80652972  0.59362112  -0.00413645  1
  Hf  Hf14  1  0.51669248  0.89700311  0.36356261  1
  Hf  Hf15  1  0.89721064  0.48180040  0.38169662  1
  Hf  Hf16  1  0.38930319  0.39347448  0.74243605  1
  Hf  Hf17  1  0.30926015  0.90420787  0.61924136  1
  Hf  Hf18  1  0.19806729  0.80600295  0.24547275  1
  Hf  Hf19  1  0.71340949  0.91171973  0.12440044  1
  Hf  Hf20  1  0.30080432  0.30472666  0.11525078  1
  Hf  Hf21  1  0.29831788  0.69125279  0.12218428  1
  Hf  Hf22  1  0.19159704  0.19500362  0.49268493  1
  Hf  Hf23  1  0.90602232  0.69185442  0.13043536  1
  Hf  Hf24  1  0.09129204  0.70964150  0.38286807  1
  Hf  Hf25  1  0.10007446  0.09352419  0.63634657  1
  Hf  Hf26  1  0.61893687  0.79044622  0.24212064  1
  Hf  Hf27  1  0.50708172  0.49769121  0.62734491  1
  Hf  Hf28  1  0.00777374  0.78680512  0.00348191  1
  Hf  Hf29  1  0.59462920  0.00083851  0.75966916  1
  Hf  Hf30  1  0.18608402  0.20042036  0.24479716  1
  Hf  Hf31  1  0.31844228  0.49905777  0.36936992  1
  Hf  Hf32  1  0.30479452  0.90583877  0.11221650  1
  Hf  Hf33  1  0.71433975  0.70201497  0.61320572  1
  Hf  Hf34  1  0.49901499  0.29055850  0.87933544  1
  Hf  Hf35  1  0.09183379  0.51540330  0.12798471  1
  Hf  Hf36  1  -0.00680398  0.19668344  -0.00826279  1
  Hf  Hf37  1  0.11026975  0.10109958  0.87770920  1
  Hf  Hf38  1  0.19937502  0.60443203  0.25886369  1
  Hf  Hf39  1  0.00271884  0.00549017  0.50792956  1
  Zr  Zr40  1  0.40003497  -0.00369952  0.24792519  1
  Zr  Zr41  1  0.80369833  0.20264854  0.50030302  1
  Zr  Zr42  1  0.89578936  0.09126782  0.12812044  1
  Zr  Zr43  1  0.88773684  0.09190646  0.86131400  1
  Zr  Zr44  1  0.50759037  0.11214431  0.36784252  1
  Zr  Zr45  1  0.80069539  0.60597672  0.75549984  1
  Zr  Zr46  1  0.29397630  0.28801373  0.89569813  1
  Zr  Zr47  1  0.60741850  0.59754129  0.75381020  1
  Zr  Zr48  1  0.61159265  0.80557150  0.75813980  1
  Zr  Zr49  1  0.30822276  0.70628086  0.38304004  1
  Zr  Zr50  1  0.40651930  -0.00467610  0.48756777  1
  Zr  Zr51  1  0.60848930  0.80527691  0.00483163  1
  Zr  Zr52  1  0.07841578  0.31532889  0.38322271  1
  Zr  Zr53  1  0.79983094  -0.01164410  0.50135117  1
  Zr  Zr54  1  0.58149060  0.58384888  0.24781461  1
  Zr  Zr55  1  0.91697818  0.89887998  0.36361503  1
  Zr  Zr56  1  0.21971153  0.79706166  0.74861945  1
  Zr  Zr57  1  0.59411812  0.19901169  0.74550883  1
  Zr  Zr58  1  0.50148701  0.49554425  0.87209740  1
  Zr  Zr59  1  0.09071299  0.30133096  0.11812681  1
  Zr  Zr60  1  0.19596382  0.59691305  0.73676963  1
  Zr  Zr61  1  0.41412004  0.78110592  0.24101300  1
  Zr  Zr62  1  0.88424378  0.30117046  0.12047221  1
  Zr  Zr63  1  0.09931923  0.89222965  0.86733334  1
  Zr  Zr64  1  -0.00285602  0.80166793  0.50741320  1
  Zr  Zr65  1  0.59812479  0.02212886  -0.00673539  1
  Zr  Zr66  1  -0.00560569  0.58879798  0.26580601  1
  Zr  Zr67  1  0.19853114  0.59746918  0.50017690  1
  Zr  Zr68  1  0.19403220  0.00642086  0.24149516  1
  Zr  Zr69  1  -0.01784508  -0.01340614  -0.00414848  1
  Zr  Zr70  1  0.79403592  0.40155789  0.25330843  1
  Zr  Zr71  1  -0.02197103  0.41317476  -0.01159006  1
  Zr  Zr72  1  0.29290379  0.50380028  0.87695482  1
  Zr  Zr73  1  0.90870130  0.70391409  0.86892555  1
  Zr  Zr74  1  0.70371447  0.30789366  0.87566010  1
  Zr  Zr75  1  0.19100523  0.38999822  0.74762015  1
  Zr  Zr76  1  0.29892726  0.11242808  0.61659155  1
  Zr  Zr77  1  0.19291306  0.41751695  0.00128196  1
  Zr  Zr78  1  0.69062472  0.31466238  0.38219924  1
  Zr  Zr79  1  0.49137093  0.29140630  0.62524808  1
  Ta  Ta80  1  0.78520258  0.19010554  -0.00134918  1
  Ta  Ta81  1  0.30764921  0.70516547  0.61114188  1
  Ta  Ta82  1  0.08618902  0.10142014  0.37672212  1
  Ta  Ta83  1  0.90843965  0.68969907  0.62385053  1
  Ta  Ta84  1  0.40150612  0.59181319  0.00477194  1
  Ta  Ta85  1  0.69614576  0.09978330  0.62138473  1
  Ta  Ta86  1  0.42027647  0.18997359  0.00790428  1
  Ta  Ta87  1  0.81401928  0.81237821  -0.00047919  1
  Ta  Ta88  1  0.59827713  0.40409357  0.00153044  1
  Ta  Ta89  1  0.38054235  0.18579460  0.75872266  1
  Ta  Ta90  1  0.69463824  0.49359632  0.12047466  1
  Ta  Ta91  1  0.40915426  0.79463668  0.01167252  1
  Ta  Ta92  1  0.78385477  0.42021522  0.51354987  1
  Ta  Ta93  1  0.50536646  0.89508144  0.62447601  1
  Ta  Ta94  1  0.09587639  0.30748933  0.87960816  1
  Ta  Ta95  1  -0.01102717  0.20885208  0.25241603  1
  Ta  Ta96  1  0.79700517  -0.00223887  0.25862226  1
  Ta  Ta97  1  0.60922754  0.80211038  0.49327225  1
  Ta  Ta98  1  0.31097463  0.08720474  0.90181011  1
  Ta  Ta99  1  0.90015079  0.10482683  0.37186806  1
  Ta  Ta100  1  0.18989879  0.40656407  0.25146627  1
  Ta  Ta101  1  0.71889092  0.91116613  0.88048947  1
  Ta  Ta102  1  0.50606425  0.10311264  0.13555954  1
  Ta  Ta103  1  0.31263432  0.49504711  0.13665508  1
  Ta  Ta104  1  0.09640689  0.90538535  0.11880778  1
  Ta  Ta105  1  0.79218753  0.20931249  0.73433181  1
  Ta  Ta106  1  0.69631479  0.10689952  0.13461466  1
  Ta  Ta107  1  0.61329508  0.58189496  0.49739392  1
  Ta  Ta108  1  0.80433389  0.41001861  0.73633252  1
  Ta  Ta109  1  0.71611228  0.88452037  0.37068589  1
  Ta  Ta110  1  0.19872273  0.79811178  0.00205588  1
  Ta  Ta111  1  0.29122780  0.10282318  0.10295440  1
  Ta  Ta112  1  0.89716024  0.89097920  0.64259403  1
  Ta  Ta113  1  0.78877059  -0.00011041  0.73976600  1
  Ta  Ta114  1  0.90042518  0.09823358  0.63696407  1
  Ta  Ta115  1  0.79443683  0.19747707  0.26062111  1
  Ta  Ta116  1  0.59881096  0.20270957  0.50289919  1
  Ta  Ta117  1  0.40703424  0.59278640  0.50859531  1
  Ta  Ta118  1  0.30409343  0.70757317  0.88663910  1
  Ta  Ta119  1  0.88111463  0.70471245  0.37755963  1
  Ti  Ti120  1  -0.00867524  0.58960980  0.49143743  1
  Ti  Ti121  1  0.51248601  0.90677440  0.12896076  1
  Ti  Ti122  1  0.60409528  0.21038899  0.25389226  1
  Ti  Ti123  1  0.89997621  0.89149107  0.13851223  1
  Ti  Ti124  1  -0.00422990  0.57945889  0.75429186  1
  Ti  Ti125  1  0.88826398  0.30583355  0.86939157  1
  Ti  Ti126  1  0.19344776  0.61012331  0.00171781  1
  Ti  Ti127  1  0.49265724  0.90681318  0.88492062  1
  Ti  Ti128  1  0.40313612  -0.01076155  0.75868106  1
  Ti  Ti129  1  0.00578862  0.78584131  0.74146973  1
  Ti  Ti130  1  0.29919964  0.89614646  0.37841686  1
  Ti  Ti131  1  0.40025428  0.20955235  0.49264963  1
  Ti  Ti132  1  0.11082247  0.91160254  0.37704111  1
  Ti  Ti133  1  0.10208779  0.70037633  0.61887028  1
  Ti  Ti134  1  0.69909214  0.89790887  0.62290132  1
  Ti  Ti135  1  0.89137337  0.49552547  0.13243139  1
  Ti  Ti136  1  0.60594580  -0.00310746  0.49738899  1
  Ti  Ti137  1  0.50289214  0.68206416  0.38269331  1
  Ti  Ti138  1  0.70758253  0.71033893  0.88413373  1
  Ti  Ti139  1  0.69552169  0.09075607  0.37176573  1
  Ti  Ti140  1  0.19957537  0.81293298  0.50409432  1
  Ti  Ti141  1  0.40046643  0.40138617  0.50776785  1
  Ti  Ti142  1  0.11058081  0.69001283  0.86750280  1
  Ti  Ti143  1  0.41233392  0.79903893  0.49367494  1
  Ti  Ti144  1  0.69866126  0.69310445  0.38153069  1
  Ti  Ti145  1  0.30722307  0.89822442  0.89347151  1
  Ti  Ti146  1  0.00544148  0.79613348  0.24498389  1
  Ti  Ti147  1  0.00734791  0.59677108  -0.01223146  1
  Ti  Ti148  1  0.70894638  0.69633396  0.11914082  1
  Ti  Ti149  1  0.61432069  0.39636631  0.74264886  1
  Ti  Ti150  1  0.78556174  0.60395721  0.25362096  1
  Ti  Ti151  1  0.10031617  0.89796796  0.63479137  1
  Ti  Ti152  1  0.59811516  0.60225487  0.00449566  1
  Ti  Ti153  1  0.70642935  0.49764334  0.88186450  1
  Ti  Ti154  1  0.00585274  0.00943397  0.24343039  1
  Ti  Ti155  1  0.49655432  0.32154561  0.37096990  1
  Ti  Ti156  1  0.69535075  0.29872789  0.12326113  1
  Ti  Ti157  1  0.20464670  0.40427147  0.50395677  1
  Ti  Ti158  1  0.69522118  0.10998135  0.87103427  1
  Ti  Ti159  1  0.89948286  0.89624463  0.84954469  1
  Mo  Mo160  1  0.00102491  0.39697936  0.24539892  1
  Mo  Mo161  1  0.69660543  0.50768101  0.37596297  1
  Mo  Mo162  1  0.89562394  0.51116163  0.61812275  1
  Mo  Mo163  1  0.19241423  -0.01247960  0.49717359  1
  Mo  Mo164  1  -0.00669515  0.19377422  0.49998115  1
  Mo  Mo165  1  0.61122227  0.00522128  0.24811798  1
  Mo  Mo166  1  0.80078756  0.80397172  0.75007597  1
  Mo  Mo167  1  0.49843690  0.50315914  0.11375354  1
  Mo  Mo168  1  0.10687564  0.49826056  0.38341183  1
  Mo  Mo169  1  0.50766224  0.69543198  0.11272371  1
  Mo  Mo170  1  0.49025819  0.09889615  0.87481740  1
  Mo  Mo171  1  0.70104432  0.50024093  0.62851607  1
  Mo  Mo172  1  0.89266105  0.29232005  0.38144684  1
  Mo  Mo173  1  0.60482405  0.20556154  0.00530716  1
  Mo  Mo174  1  0.19407203  -0.00675893  -0.00069601  1
  Mo  Mo175  1  0.09047019  0.50729668  0.87090830  1
  Mo  Mo176  1  0.69790645  0.30143021  0.62083196  1
  Mo  Mo177  1  0.09954589  0.70637908  0.12552458  1
  Mo  Mo178  1  0.80655291  0.78967932  0.24645006  1
  Mo  Mo179  1  0.40768295  0.41284091  0.25074774  1
  Mo  Mo180  1  0.40796544  -0.00628830  0.01023384  1
  Mo  Mo181  1  0.59325768  0.39600919  0.50533518  1
  Mo  Mo182  1  0.40183705  0.59657145  0.24844145  1
  Mo  Mo183  1  0.80029480  0.80005533  0.50066294  1
  Mo  Mo184  1  0.40517637  0.40471224  0.00027853  1
  Mo  Mo185  1  0.19572142  0.19728552  0.00504323  1
  Mo  Mo186  1  0.09648392  0.09899313  0.11624637  1
  Mo  Mo187  1  0.40428036  0.81145565  0.75549985  1
  Mo  Mo188  1  0.78687380  0.40100274  0.00552201  1
  Mo  Mo189  1  0.29839669  0.30119471  0.61610208  1
  Mo  Mo190  1  0.20741159  0.19988838  0.75940783  1
  Mo  Mo191  1  0.50824334  0.49208835  0.38782758  1
  Mo  Mo192  1  0.79818212  0.00159579  -0.00302000  1
  Mo  Mo193  1  -0.00494504  0.39979298  0.50198772  1
  Mo  Mo194  1  -0.00035474  -0.00704195  0.74227179  1
  Mo  Mo195  1  0.80414026  0.60593261  0.49598090  1
  Mo  Mo196  1  0.89069761  0.49322396  0.87108420  1
  Mo  Mo197  1  -0.00819432  0.40277437  0.76227817  1
  Mo  Mo198  1  0.59993586  0.39793175  0.24568178  1
  Mo  Mo199  1  0.30168115  0.49601063  0.61540070  1
