# generated using pymatgen
data_HfZrTaTiMo
_symmetry_space_group_name_H-M   'P 1'
_cell_length_a   15.21484925
_cell_length_b   15.20576949
_cell_length_c   16.85973597
_cell_angle_alpha   90.00897969
_cell_angle_beta   89.97576680
_cell_angle_gamma   89.99237495
_symmetry_Int_Tables_number   1
_chemical_formula_structural   HfZrTaTiMo
_chemical_formula_sum   'Hf40 Zr40 Ta40 Ti40 Mo40'
_cell_volume   3900.55833622
_cell_formula_units_Z   40
loop_
 _symmetry_equiv_pos_site_id
 _symmetry_equiv_pos_as_xyz
  1  'x, y, z'
loop_
 _atom_site_type_symbol
 _atom_site_label
 _atom_site_symmetry_multiplicity
 _atom_site_fract_x
 _atom_site_fract_y
 _atom_site_fract_z
 _atom_site_occupancy
  Hf  Hf0  1  0.69156321  0.88970320  0.62883045  1
  Hf  Hf1  1  0.69156888  0.28832201  0.61569654  1
  Hf  Hf2  1  0.31191416  0.70811678  0.38321813  1
  Hf  Hf3  1  0.89201100  0.08606122  0.84938108  1
  Hf  Hf4  1  0.21166848  0.60041974  -0.01807005  1
  Hf  Hf5  1  0.89516308  0.91399451  0.63027603  1
  Hf  Hf6  1  0.47989334  0.28815436  0.37722485  1
  Hf  Hf7  1  0.79133737  0.40299231  -0.01755565  1
  Hf  Hf8  1  0.51059747  0.09919267  0.88503034  1
  Hf  Hf9  1  0.51707401  0.70578979  0.37313842  1
  Hf  Hf10  1  0.88432415  0.29630320  0.12658273  1
  Hf  Hf11  1  0.79145659  -0.00265196  0.00834290  1
  Hf  Hf12  1  0.09508305  0.48894992  0.87388745  1
  Hf  Hf13  1  0.78962512  0.00680242  0.48528967  1
  Hf  Hf14  1  0.31263778  0.89523484  0.62183969  1
  Hf  Hf15  1  0.10081327  0.89824068  0.13251567  1
  Hf  Hf16  1  0.32506856  0.10140303  0.61824873  1
  Hf  Hf17  1  0.20090859  0.59418014  0.26166353  1
  Hf  Hf18  1  0.91417339  0.88921545  0.86182429  1
  Hf  Hf19  1  0.41497576  0.59463728  0.50390279  1
  Hf  Hf20  1  0.40033550  0.40382375  0.75262023  1
  Hf  Hf21  1  0.58063296  0.39541960  0.50445722  1
  Hf  Hf22  1  0.30186489  0.50643856  0.63072309  1
  Hf  Hf23  1  -0.00512816  0.02293697  0.51231687  1
  Hf  Hf24  1  0.89177747  0.71823045  0.12504639  1
  Hf  Hf25  1  0.90719189  0.30802142  0.85281483  1
  Hf  Hf26  1  0.18744582  0.39952290  0.74068086  1
  Hf  Hf27  1  0.49650271  0.50429817  0.12189077  1
  Hf  Hf28  1  0.20032182  0.59671023  0.49744338  1
  Hf  Hf29  1  0.69967019  0.50176205  0.38478322  1
  Hf  Hf30  1  0.59826682  0.79574027  0.75632641  1
  Hf  Hf31  1  0.77682076  0.20043824  0.75423422  1
  Hf  Hf32  1  -0.01228023  -0.00407371  0.00611172  1
  Hf  Hf33  1  0.90939982  0.90323901  0.37416504  1
  Hf  Hf34  1  0.20041476  0.19279152  0.73785735  1
  Hf  Hf35  1  0.09334789  0.09183678  0.86781472  1
  Hf  Hf36  1  0.50196874  0.29597759  0.87076640  1
  Hf  Hf37  1  0.69823732  0.48663792  0.12578079  1
  Hf  Hf38  1  0.00038338  0.61240489  0.75443571  1
  Hf  Hf39  1  0.19334286  -0.00925999  0.74531159  1
  Zr  Zr40  1  0.38905679  0.79625964  -0.00447895  1
  Zr  Zr41  1  0.50781302  0.09521403  0.11674130  1
  Zr  Zr42  1  0.09792920  0.10412662  0.12875112  1
  Zr  Zr43  1  0.20659541  -0.00300269  0.49897374  1
  Zr  Zr44  1  0.51877749  0.68441559  0.89123292  1
  Zr  Zr45  1  0.39206868  0.20087896  0.23403140  1
  Zr  Zr46  1  0.70046228  0.49741753  0.61930114  1
  Zr  Zr47  1  0.09305832  0.70820005  0.39001050  1
  Zr  Zr48  1  0.50431254  0.69304829  0.11167740  1
  Zr  Zr49  1  0.60968132  0.79564930  0.23419106  1
  Zr  Zr50  1  0.89824304  0.49898449  0.12134269  1
  Zr  Zr51  1  0.49230745  0.50049310  0.37007503  1
  Zr  Zr52  1  0.60895126  0.38041597  0.26082697  1
  Zr  Zr53  1  0.79940777  0.19896008  -0.01667163  1
  Zr  Zr54  1  0.09002622  0.10566295  0.37497414  1
  Zr  Zr55  1  0.30164132  0.70691886  0.61790701  1
  Zr  Zr56  1  0.38992475  0.42203843  -0.01931140  1
  Zr  Zr57  1  -0.00232834  0.19859018  -0.00190608  1
  Zr  Zr58  1  0.63358665  0.80006650  0.01172434  1
  Zr  Zr59  1  0.79650811  0.79405727  0.49673507  1
  Zr  Zr60  1  0.29209896  0.49915334  0.12255436  1
  Zr  Zr61  1  0.70598333  0.25894944  0.39296103  1
  Zr  Zr62  1  -0.01266254  0.60727372  -0.01416807  1
  Zr  Zr63  1  0.79969199  0.59756749  0.25773440  1
  Zr  Zr64  1  0.71013513  0.90786843  0.87064672  1
  Zr  Zr65  1  0.40063652  -0.00118167  0.76459655  1
  Zr  Zr66  1  0.70218202  0.08906472  0.62041687  1
  Zr  Zr67  1  0.52002300  0.30321003  0.11650227  1
  Zr  Zr68  1  0.80738297  0.39284809  0.50049389  1
  Zr  Zr69  1  0.50208799  0.71900075  0.62571566  1
  Zr  Zr70  1  0.09019341  0.49398353  0.39107192  1
  Zr  Zr71  1  0.00064075  0.60300806  0.25110073  1
  Zr  Zr72  1  0.29765166  0.69943527  0.12595338  1
  Zr  Zr73  1  0.09963968  0.49759446  0.11160513  1
  Zr  Zr74  1  0.20457531  0.79154605  0.75324192  1
  Zr  Zr75  1  0.39152302  0.20849708  0.00415400  1
  Zr  Zr76  1  0.38333629  0.39691868  0.24660086  1
  Zr  Zr77  1  0.20488489  0.80632049  0.25980487  1
  Zr  Zr78  1  0.39629602  -0.00177133  -0.00387192  1
  Zr  Zr79  1  0.30797290  0.11778714  0.38417421  1
  Ta  Ta80  1  0.58847349  -0.01524273  0.49223888  1
  Ta  Ta81  1  0.09876043  0.29095375  0.86863655  1
  Ta  Ta82  1  0.28569967  0.30168419  0.87326421  1
  Ta  Ta83  1  0.59727613  0.59169688  0.73806082  1
  Ta  Ta84  1  0.09506578  0.30470420  0.12127178  1
  Ta  Ta85  1  0.29605809  0.90487941  0.12330775  1
  Ta  Ta86  1  0.10191118  0.29940641  0.38441658  1
  Ta  Ta87  1  0.00154610  0.80629171  0.50842997  1
  Ta  Ta88  1  0.57315925  0.17405086  0.50346197  1
  Ta  Ta89  1  0.69459860  0.89323723  0.36442666  1
  Ta  Ta90  1  0.50181812  0.90585059  0.36033364  1
  Ta  Ta91  1  0.50499411  0.09545941  0.36045051  1
  Ta  Ta92  1  -0.00590057  0.21165808  0.25091240  1
  Ta  Ta93  1  0.00181308  0.80685791  0.00240130  1
  Ta  Ta94  1  -0.00163909  0.39801988  0.25353872  1
  Ta  Ta95  1  0.00050282  0.38582382  0.52310455  1
  Ta  Ta96  1  0.39691094  -0.00554595  0.23985549  1
  Ta  Ta97  1  0.19605189  0.21015593  0.25039378  1
  Ta  Ta98  1  0.38778932  0.39132296  0.50975560  1
  Ta  Ta99  1  0.70597291  0.11615436  0.13882025  1
  Ta  Ta100  1  0.60735385  0.01185497  0.75538057  1
  Ta  Ta101  1  0.18891108  0.20529963  0.51780243  1
  Ta  Ta102  1  0.61038717  0.60898336  0.51090507  1
  Ta  Ta103  1  0.40556227  0.60837804  0.75638995  1
  Ta  Ta104  1  0.90259961  0.50058369  0.63295243  1
  Ta  Ta105  1  0.09936783  0.70038112  0.61295658  1
  Ta  Ta106  1  0.01074343  0.80618013  0.73641797  1
  Ta  Ta107  1  0.80774773  0.38353949  0.26591483  1
  Ta  Ta108  1  0.80905038  0.79025214  0.74231265  1
  Ta  Ta109  1  0.18778538  0.39213229  0.25386018  1
  Ta  Ta110  1  0.60483653  0.59889455  0.24869955  1
  Ta  Ta111  1  0.50709094  0.89613091  0.88299897  1
  Ta  Ta112  1  0.79438185  0.60527121  0.74650451  1
  Ta  Ta113  1  0.20829943  0.00833758  0.25682732  1
  Ta  Ta114  1  0.10205106  0.70192038  0.11639568  1
  Ta  Ta115  1  0.41568491  0.82684380  0.49195665  1
  Ta  Ta116  1  0.60122707  0.39276373  0.74678577  1
  Ta  Ta117  1  0.28618645  0.09778667  0.11968182  1
  Ta  Ta118  1  0.19239442  -0.00755136  -0.00656731  1
  Ta  Ta119  1  0.78520376  0.61324201  -0.00228484  1
  Ti  Ti120  1  0.80388558  0.60234200  0.50409479  1
  Ti  Ti121  1  0.80136256  0.00306689  0.25717835  1
  Ti  Ti122  1  0.49925706  0.92016625  0.63146176  1
  Ti  Ti123  1  0.60619628  0.79839984  0.49543495  1
  Ti  Ti124  1  0.10610636  0.89720184  0.61406229  1
  Ti  Ti125  1  0.79257721  0.40671354  0.75095172  1
  Ti  Ti126  1  0.00016944  0.80246009  0.25219900  1
  Ti  Ti127  1  0.60055435  0.40330815  -0.01548741  1
  Ti  Ti128  1  0.19647445  0.39262103  0.51478820  1
  Ti  Ti129  1  0.48910128  0.28381399  0.63384224  1
  Ti  Ti130  1  0.10397124  0.90330873  0.38079302  1
  Ti  Ti131  1  0.60418194  -0.00158211  0.24035537  1
  Ti  Ti132  1  0.27620402  0.30157062  0.10735710  1
  Ti  Ti133  1  0.28917874  0.89521956  0.87820280  1
  Ti  Ti134  1  0.31011991  0.90967672  0.37745272  1
  Ti  Ti135  1  0.68625908  0.50895186  0.86796420  1
  Ti  Ti136  1  0.88856982  0.51105067  0.86391529  1
  Ti  Ti137  1  0.40468388  0.80455729  0.24376141  1
  Ti  Ti138  1  0.72640503  0.89701916  0.13547795  1
  Ti  Ti139  1  0.20091473  0.60042347  0.75700484  1
  Ti  Ti140  1  0.90148114  0.69330566  0.38571048  1
  Ti  Ti141  1  0.90544813  0.49496708  0.38643681  1
  Ti  Ti142  1  0.09284419  0.50702037  0.62366960  1
  Ti  Ti143  1  0.00126407  0.00235924  0.25340154  1
  Ti  Ti144  1  0.61913650  0.20169872  -0.00373737  1
  Ti  Ti145  1  -0.00479943  0.39438835  -0.00615367  1
  Ti  Ti146  1  0.91315970  0.29642573  0.38244070  1
  Ti  Ti147  1  0.29440875  0.10909138  0.87807344  1
  Ti  Ti148  1  0.83772801  0.19646675  0.52486906  1
  Ti  Ti149  1  0.89592636  0.09605798  0.13927811  1
  Ti  Ti150  1  0.09646098  0.72004151  0.88007562  1
  Ti  Ti151  1  0.88678108  0.11425576  0.36908585  1
  Ti  Ti152  1  0.30198566  0.29771071  0.62987485  1
  Ti  Ti153  1  0.50398143  0.90217273  0.11553066  1
  Ti  Ti154  1  0.29570622  0.48300617  0.38156959  1
  Ti  Ti155  1  0.80412332  0.79511951  0.26352387  1
  Ti  Ti156  1  0.71828766  0.70283747  0.87311686  1
  Ti  Ti157  1  0.90332231  0.69803238  0.61927417  1
  Ti  Ti158  1  0.40153859  0.60568867  0.25454900  1
  Ti  Ti159  1  0.30941555  0.69932766  0.87061984  1
  Mo  Mo160  1  0.90516871  0.10699594  0.64783272  1
  Mo  Mo161  1  0.90296372  0.90870045  0.14559657  1
  Mo  Mo162  1  0.20342741  0.80647994  0.49233460  1
  Mo  Mo163  1  -0.00554488  0.40712791  0.73819570  1
  Mo  Mo164  1  0.79553374  -0.00744153  0.74867086  1
  Mo  Mo165  1  0.50779279  0.49897661  0.86350533  1
  Mo  Mo166  1  0.49861408  0.49756688  0.63019665  1
  Mo  Mo167  1  0.39731775  0.20825009  0.50359799  1
  Mo  Mo168  1  0.61167454  0.58378851  -0.00151196  1
  Mo  Mo169  1  0.89800050  0.30446907  0.64792614  1
  Mo  Mo170  1  0.70315310  0.29682602  0.12409484  1
  Mo  Mo171  1  0.10255279  0.09478632  0.62765904  1
  Mo  Mo172  1  0.00738736  -0.00105284  0.73134286  1
  Mo  Mo173  1  -0.01284648  0.59824099  0.51177451  1
  Mo  Mo174  1  0.50664283  0.10049883  0.63351882  1
  Mo  Mo175  1  0.09755094  0.30096863  0.62983211  1
  Mo  Mo176  1  0.10080292  0.89956123  0.87567478  1
  Mo  Mo177  1  0.69168125  0.10266030  0.87554337  1
  Mo  Mo178  1  0.82023484  0.80218366  0.00100642  1
  Mo  Mo179  1  0.29625868  0.50635431  0.85581996  1
  Mo  Mo180  1  0.80259827  0.19873477  0.25678793  1
  Mo  Mo181  1  0.89868302  0.70174220  0.87018727  1
  Mo  Mo182  1  0.70744893  0.69742803  0.62959766  1
  Mo  Mo183  1  0.00346254  0.20858220  0.51061449  1
  Mo  Mo184  1  0.42022850  0.01128845  0.49374403  1
  Mo  Mo185  1  0.70393074  0.69576422  0.37863711  1
  Mo  Mo186  1  0.40613500  0.80351902  0.77026802  1
  Mo  Mo187  1  0.39453199  0.20231018  0.75953159  1
  Mo  Mo188  1  0.40242333  0.59741415  -0.01647705  1
  Mo  Mo189  1  0.28238815  0.30718595  0.38440702  1
  Mo  Mo190  1  0.69335984  0.31004171  0.86635507  1
  Mo  Mo191  1  0.19119648  0.80348888  -0.00360220  1
  Mo  Mo192  1  0.70696918  0.68984517  0.12719929  1
  Mo  Mo193  1  0.00254086  0.20343563  0.73982253  1
  Mo  Mo194  1  0.68524114  0.08063532  0.36215021  1
  Mo  Mo195  1  0.18909289  0.38945617  -0.01370471  1
  Mo  Mo196  1  0.60824807  0.00243472  0.01090850  1
  Mo  Mo197  1  0.19668853  0.19699174  -0.00521719  1
  Mo  Mo198  1  0.60413073  0.19126695  0.25186474  1
  Mo  Mo199  1  0.58556360  0.20015939  0.74505762  1
