# generated using pymatgen
data_HfZrTaTiMo
_symmetry_space_group_name_H-M   'P 1'
_cell_length_a   15.20805629
_cell_length_b   15.21705224
_cell_length_c   16.81208711
_cell_angle_alpha   90.03790932
_cell_angle_beta   90.01917913
_cell_angle_gamma   90.13249861
_symmetry_Int_Tables_number   1
_chemical_formula_structural   HfZrTaTiMo
_chemical_formula_sum   'Hf40 Zr40 Ta40 Ti40 Mo40'
_cell_volume   3890.67176810
_cell_formula_units_Z   40
loop_
 _symmetry_equiv_pos_site_id
 _symmetry_equiv_pos_as_xyz
  1  'x, y, z'
loop_
 _atom_site_type_symbol
 _atom_site_label
 _atom_site_symmetry_multiplicity
 _atom_site_fract_x
 _atom_site_fract_y
 _atom_site_fract_z
 _atom_site_occupancy
  Hf  Hf0  1  -0.00717447  0.01933632  -0.01116318  1
  Hf  Hf1  1  0.49681116  0.69845889  0.62521509  1
  Hf  Hf2  1  0.81204928  0.00945748  0.49716295  1
  Hf  Hf3  1  0.39661562  0.80126307  0.74745899  1
  Hf  Hf4  1  0.80121861  0.60217601  0.01191442  1
  Hf  Hf5  1  0.79765557  0.79661527  0.02495792  1
  Hf  Hf6  1  0.89919885  0.10841238  0.64180186  1
  Hf  Hf7  1  0.90753353  0.48747197  0.13286368  1
  Hf  Hf8  1  0.69512192  0.49562876  0.87181418  1
  Hf  Hf9  1  0.09746099  0.50468829  0.89019088  1
  Hf  Hf10  1  0.58979334  0.38568603  0.23201977  1
  Hf  Hf11  1  0.28647018  0.49289864  0.88165788  1
  Hf  Hf12  1  0.29093936  0.09626936  0.13977245  1
  Hf  Hf13  1  0.81055650  0.81014371  0.23636143  1
  Hf  Hf14  1  0.39629031  0.38876549  -0.00710808  1
  Hf  Hf15  1  0.51640549  0.29094289  0.87876042  1
  Hf  Hf16  1  0.88866222  0.10948372  0.86244256  1
  Hf  Hf17  1  -0.00150110  0.80247342  0.75129455  1
  Hf  Hf18  1  0.78436810  -0.00157220  0.00671235  1
  Hf  Hf19  1  0.30149499  0.69492882  0.38629255  1
  Hf  Hf20  1  0.60868874  0.80304283  0.49514780  1
  Hf  Hf21  1  0.01298550  0.61008322  0.24482672  1
  Hf  Hf22  1  0.10969682  0.71007738  0.38520493  1
  Hf  Hf23  1  0.39426171  0.59595478  0.75165132  1
  Hf  Hf24  1  0.10111415  0.89901353  0.87587235  1
  Hf  Hf25  1  0.30458566  0.48800083  0.61810673  1
  Hf  Hf26  1  0.59861306  0.59497588  0.23953668  1
  Hf  Hf27  1  0.39765430  0.80493977  0.49801860  1
  Hf  Hf28  1  0.50318597  0.70165848  0.88036443  1
  Hf  Hf29  1  0.60501686  0.18657202  0.22979168  1
  Hf  Hf30  1  0.41048822  0.58931064  0.50071430  1
  Hf  Hf31  1  0.39332452  -0.01392514  0.00148796  1
  Hf  Hf32  1  -0.01188798  0.18913601  0.26299656  1
  Hf  Hf33  1  0.60239410  0.81062725  0.75010962  1
  Hf  Hf34  1  0.20048606  0.39785049  0.26681133  1
  Hf  Hf35  1  0.80338899  0.20542204  0.00878563  1
  Hf  Hf36  1  0.50162867  0.91433295  0.61381436  1
  Hf  Hf37  1  0.09832061  0.09608618  0.62657677  1
  Hf  Hf38  1  0.61184365  0.38224409  0.00946320  1
  Hf  Hf39  1  0.51984216  0.10737541  0.37851037  1
  Zr  Zr40  1  0.61013860  0.58456769  0.50783528  1
  Zr  Zr41  1  0.29248084  0.30162396  0.12811405  1
  Zr  Zr42  1  0.40300341  0.39000132  0.76014021  1
  Zr  Zr43  1  0.70361018  0.70590703  0.62603113  1
  Zr  Zr44  1  0.91483614  0.92305959  0.12958053  1
  Zr  Zr45  1  0.39744931  0.00053041  0.75295960  1
  Zr  Zr46  1  0.27932521  0.89442814  0.36413106  1
  Zr  Zr47  1  0.79936229  0.61125417  0.23181926  1
  Zr  Zr48  1  0.78627002  0.20973990  0.51041147  1
  Zr  Zr49  1  0.49786703  0.08792115  0.88594015  1
  Zr  Zr50  1  0.90585330  0.70940636  0.61423593  1
  Zr  Zr51  1  0.80331233  0.59433990  0.74540120  1
  Zr  Zr52  1  0.49619871  0.90111340  0.13742105  1
  Zr  Zr53  1  0.90369831  0.71600968  0.37194404  1
  Zr  Zr54  1  0.39851908  0.59293637  0.25234114  1
  Zr  Zr55  1  0.00543699  0.80157831  0.01458905  1
  Zr  Zr56  1  0.40334529  0.21230853  0.25891133  1
  Zr  Zr57  1  0.68668108  0.11234087  0.88056979  1
  Zr  Zr58  1  0.10675653  0.69900776  0.88400345  1
  Zr  Zr59  1  0.20103516  0.00983494  -0.00856291  1
  Zr  Zr60  1  0.00342037  0.60642800  0.74187729  1
  Zr  Zr61  1  -0.01132768  0.59389119  0.49567808  1
  Zr  Zr62  1  0.08889219  0.10061516  0.12888335  1
  Zr  Zr63  1  0.90647262  0.49120181  0.36203561  1
  Zr  Zr64  1  0.29533199  0.51138749  0.11454502  1
  Zr  Zr65  1  0.10208647  0.49724216  0.60285896  1
  Zr  Zr66  1  0.30599704  0.28782307  0.61903074  1
  Zr  Zr67  1  0.68388738  0.29254864  0.37451842  1
  Zr  Zr68  1  0.70497561  0.70801341  0.87850943  1
  Zr  Zr69  1  0.49101421  0.69698377  0.12012724  1
  Zr  Zr70  1  0.49824065  0.90234228  0.36835146  1
  Zr  Zr71  1  0.70444513  0.49922629  0.36650705  1
  Zr  Zr72  1  0.10658888  0.48937440  0.11798717  1
  Zr  Zr73  1  0.70322183  0.91607356  0.36613983  1
  Zr  Zr74  1  0.01597805  0.40932289  0.74722090  1
  Zr  Zr75  1  0.81435643  0.39896816  -0.00436808  1
  Zr  Zr76  1  0.80260960  0.41532565  0.51308911  1
  Zr  Zr77  1  0.09749023  0.29164874  0.60993942  1
  Zr  Zr78  1  0.20240473  0.00139371  0.75727992  1
  Zr  Zr79  1  0.78515799  -0.01114759  0.75576335  1
  Ta  Ta80  1  0.51104655  0.69464519  0.37300669  1
  Ta  Ta81  1  0.40029387  0.20542560  0.48393688  1
  Ta  Ta82  1  0.59140081  0.58691776  0.74326353  1
  Ta  Ta83  1  0.49341671  0.48824023  0.11295949  1
  Ta  Ta84  1  0.29174912  0.89945642  0.61830285  1
  Ta  Ta85  1  0.40132906  0.00663874  0.25382723  1
  Ta  Ta86  1  0.91646958  0.29676956  0.85713299  1
  Ta  Ta87  1  0.39056601  0.19151312  -0.00113755  1
  Ta  Ta88  1  0.59986349  0.59700763  0.00989105  1
  Ta  Ta89  1  0.69018795  0.10411109  0.63088638  1
  Ta  Ta90  1  0.20165891  0.78901706  0.74020916  1
  Ta  Ta91  1  0.02904916  0.81719243  0.23953611  1
  Ta  Ta92  1  -0.00468553  0.60121046  0.01391413  1
  Ta  Ta93  1  0.79501187  0.02197287  0.24155049  1
  Ta  Ta94  1  0.29041012  0.69339718  0.61416964  1
  Ta  Ta95  1  0.30266030  0.49598625  0.38376333  1
  Ta  Ta96  1  0.19759276  0.59192984  0.74243728  1
  Ta  Ta97  1  0.20804960  0.38781045  0.48475534  1
  Ta  Ta98  1  0.50710325  0.48697780  0.37475678  1
  Ta  Ta99  1  0.29664198  0.09756602  0.61567342  1
  Ta  Ta100  1  0.79653590  0.20341096  0.23748845  1
  Ta  Ta101  1  0.88819629  0.89110954  0.88160129  1
  Ta  Ta102  1  0.20619032  0.21172732  0.75458043  1
  Ta  Ta103  1  0.58948841  0.00532030  0.74514240  1
  Ta  Ta104  1  0.29487395  0.09153700  0.36767322  1
  Ta  Ta105  1  0.09166405  0.12466919  0.86713317  1
  Ta  Ta106  1  0.19891108  0.18476396  0.48062344  1
  Ta  Ta107  1  -0.00475546  -0.00173097  0.76181531  1
  Ta  Ta108  1  0.21563251  0.80315549  0.01094990  1
  Ta  Ta109  1  0.18697463  -0.01167002  0.49826960  1
  Ta  Ta110  1  0.18966771  0.19686216  0.27196584  1
  Ta  Ta111  1  0.00795938  0.83142847  0.49758885  1
  Ta  Ta112  1  0.39037696  0.01034429  0.49279574  1
  Ta  Ta113  1  0.60885010  0.79377499  0.24612865  1
  Ta  Ta114  1  0.08644797  0.29696506  0.38845430  1
  Ta  Ta115  1  0.90458621  0.90925740  0.62535369  1
  Ta  Ta116  1  0.48962698  0.11489802  0.61548067  1
  Ta  Ta117  1  0.59228035  0.20402130  0.74139623  1
  Ta  Ta118  1  0.80837477  0.81125830  0.49354251  1
  Ta  Ta119  1  0.89646459  0.30899868  0.64236965  1
  Ti  Ti120  1  0.80430685  0.80142973  0.75102968  1
  Ti  Ti121  1  0.71884633  0.30064647  0.85172354  1
  Ti  Ti122  1  0.09774398  0.90015016  0.63102765  1
  Ti  Ti123  1  0.50460209  0.30699674  0.62879201  1
  Ti  Ti124  1  0.30358384  0.89003056  0.87411215  1
  Ti  Ti125  1  0.29350038  0.69703729  0.87571235  1
  Ti  Ti126  1  0.00567584  0.38708006  0.25402294  1
  Ti  Ti127  1  0.39673170  0.18990814  0.75748268  1
  Ti  Ti128  1  0.40001469  0.40015741  0.25491782  1
  Ti  Ti129  1  0.90261189  0.49924691  0.87684285  1
  Ti  Ti130  1  0.10284888  0.49889461  0.38704658  1
  Ti  Ti131  1  0.60840088  0.01754863  0.50326212  1
  Ti  Ti132  1  0.67778578  0.90674157  0.88342673  1
  Ti  Ti133  1  0.11980418  0.70004328  0.12157703  1
  Ti  Ti134  1  0.79761887  0.38690459  0.24143683  1
  Ti  Ti135  1  0.11722773  0.31345946  0.87019253  1
  Ti  Ti136  1  0.08546335  0.07738298  0.37554494  1
  Ti  Ti137  1  0.10683400  0.70497163  0.60693078  1
  Ti  Ti138  1  0.50303854  0.50041582  0.88486699  1
  Ti  Ti139  1  0.70485761  0.70315826  0.37385235  1
  Ti  Ti140  1  0.70005574  0.49378303  0.12419485  1
  Ti  Ti141  1  0.91425139  0.29030752  0.12572758  1
  Ti  Ti142  1  0.28947883  0.89445330  0.14508777  1
  Ti  Ti143  1  0.00660141  0.38387264  -0.00370489  1
  Ti  Ti144  1  0.89000309  0.29832553  0.37669750  1
  Ti  Ti145  1  0.41384386  0.39096961  0.49217352  1
  Ti  Ti146  1  0.39306867  0.60426924  -0.00415051  1
  Ti  Ti147  1  0.70690478  0.90663169  0.61958066  1
  Ti  Ti148  1  0.20599792  0.60408950  0.25392490  1
  Ti  Ti149  1  0.79679033  0.60686588  0.50440080  1
  Ti  Ti150  1  0.60149195  0.80946549  0.01121168  1
  Ti  Ti151  1  0.10169187  0.29323004  0.12618099  1
  Ti  Ti152  1  0.39655473  0.79059754  0.25496397  1
  Ti  Ti153  1  0.91504539  0.92209448  0.36419490  1
  Ti  Ti154  1  0.60262780  0.38933660  0.51329476  1
  Ti  Ti155  1  -0.01502684  0.18903412  0.49049198  1
  Ti  Ti156  1  0.19515132  0.21095679  -0.00818997  1
  Ti  Ti157  1  0.90386602  0.69775865  0.88135434  1
  Ti  Ti158  1  0.39903073  0.79700604  -0.00090313  1
  Ti  Ti159  1  0.49712636  0.09687023  0.11647571  1
  Mo  Mo160  1  0.60179417  0.40116899  0.74895421  1
  Mo  Mo161  1  0.29266219  0.10896807  0.87678786  1
  Mo  Mo162  1  0.49210837  0.29137410  0.11311820  1
  Mo  Mo163  1  0.70388748  0.10419925  0.37568210  1
  Mo  Mo164  1  0.30264191  0.70715435  0.12476147  1
  Mo  Mo165  1  0.60000848  0.00018449  0.24326142  1
  Mo  Mo166  1  0.00794279  0.20183624  0.74844434  1
  Mo  Mo167  1  0.59245933  0.20589019  0.51531131  1
  Mo  Mo168  1  0.69460607  0.09474685  0.11487703  1
  Mo  Mo169  1  0.88554689  0.10557418  0.37362692  1
  Mo  Mo170  1  0.29870486  0.29734636  0.37740330  1
  Mo  Mo171  1  0.09503517  0.89848338  0.37333611  1
  Mo  Mo172  1  0.59442664  0.19323808  0.02184403  1
  Mo  Mo173  1  0.89743901  0.11309469  0.12143518  1
  Mo  Mo174  1  0.50066740  0.88977544  0.88210112  1
  Mo  Mo175  1  0.11581928  0.90825709  0.12118078  1
  Mo  Mo176  1  0.59333170  -0.00922305  0.00702993  1
  Mo  Mo177  1  0.89616461  0.49793401  0.62354669  1
  Mo  Mo178  1  0.19334785  0.38919141  0.00072412  1
  Mo  Mo179  1  0.50210979  0.30724736  0.37847645  1
  Mo  Mo180  1  0.20281250  0.78580840  0.24104722  1
  Mo  Mo181  1  0.69716816  0.30365674  0.64350840  1
  Mo  Mo182  1  -0.00374270  0.00313482  0.25214335  1
  Mo  Mo183  1  0.50167486  0.48871609  0.62595365  1
  Mo  Mo184  1  -0.00113759  0.00944974  0.50299566  1
  Mo  Mo185  1  0.00666087  0.21491010  -0.00687250  1
  Mo  Mo186  1  0.19732515  0.80241552  0.51384809  1
  Mo  Mo187  1  0.69340933  0.70207455  0.12161280  1
  Mo  Mo188  1  0.20181613  0.61046706  0.00104604  1
  Mo  Mo189  1  0.20763371  0.40436645  0.74741848  1
  Mo  Mo190  1  0.80771532  0.40394742  0.75363127  1
  Mo  Mo191  1  0.18474702  -0.00792700  0.25106972  1
  Mo  Mo192  1  0.71070449  0.30152498  0.12749721  1
  Mo  Mo193  1  0.91629744  0.69994087  0.13302384  1
  Mo  Mo194  1  0.20366674  0.59312943  0.49788746  1
  Mo  Mo195  1  0.30031357  0.28681626  0.87530587  1
  Mo  Mo196  1  0.69461135  0.48945300  0.63912515  1
  Mo  Mo197  1  -0.00596623  0.38383920  0.49539780  1
  Mo  Mo198  1  0.79430099  0.20407241  0.74198551  1
  Mo  Mo199  1  0.69304411  0.90487392  0.13847083  1
