# generated using pymatgen
data_HfZrTaTiMo
_symmetry_space_group_name_H-M   'P 1'
_cell_length_a   15.20825967
_cell_length_b   15.21249217
_cell_length_c   16.86710238
_cell_angle_alpha   90.02916364
_cell_angle_beta   90.07064852
_cell_angle_gamma   89.90168191
_symmetry_Int_Tables_number   1
_chemical_formula_structural   HfZrTaTiMo
_chemical_formula_sum   'Hf40 Zr40 Ta40 Ti40 Mo40'
_cell_volume   3902.28821461
_cell_formula_units_Z   40
loop_
 _symmetry_equiv_pos_site_id
 _symmetry_equiv_pos_as_xyz
  1  'x, y, z'
loop_
 _atom_site_type_symbol
 _atom_site_label
 _atom_site_symmetry_multiplicity
 _atom_site_fract_x
 _atom_site_fract_y
 _atom_site_fract_z
 _atom_site_occupancy
  Hf  Hf0  1  0.91546930  0.30057501  0.36648974  1
  Hf  Hf1  1  0.10762146  0.49516430  0.37186453  1
  Hf  Hf2  1  0.90597086  0.28908262  0.62701410  1
  Hf  Hf3  1  0.09862868  0.88363178  0.12793181  1
  Hf  Hf4  1  0.58962312  0.20531921  0.50832169  1
  Hf  Hf5  1  0.09430622  0.88287319  0.87439724  1
  Hf  Hf6  1  0.61661892  0.40344264  -0.01520729  1
  Hf  Hf7  1  0.69666369  0.69770506  0.36534004  1
  Hf  Hf8  1  0.79916725  0.19271774  0.49437477  1
  Hf  Hf9  1  0.90947108  0.69110543  0.88388121  1
  Hf  Hf10  1  0.69639851  0.49593462  0.37075949  1
  Hf  Hf11  1  0.49278647  0.91295816  0.62917853  1
  Hf  Hf12  1  0.68165184  0.10147155  0.13970222  1
  Hf  Hf13  1  0.01242493  0.39770566  0.75370249  1
  Hf  Hf14  1  0.80334273  0.59958013  0.50457955  1
  Hf  Hf15  1  0.18496653  0.78971136  0.26173681  1
  Hf  Hf16  1  0.91003216  0.70059134  0.12804996  1
  Hf  Hf17  1  0.40299918  0.62081813  0.23742708  1
  Hf  Hf18  1  0.30002132  0.30400187  0.89122071  1
  Hf  Hf19  1  0.10119741  0.30107562  0.13378708  1
  Hf  Hf20  1  0.59502633  0.79902485  0.49170297  1
  Hf  Hf21  1  0.09194308  0.69514153  0.39037447  1
  Hf  Hf22  1  0.90792618  0.48707308  0.13612140  1
  Hf  Hf23  1  0.42485764  0.18539035  0.00149369  1
  Hf  Hf24  1  0.50121604  0.50164830  0.64137088  1
  Hf  Hf25  1  0.88970462  0.10009281  0.87654766  1
  Hf  Hf26  1  0.00451797  0.39024843  -0.00395732  1
  Hf  Hf27  1  0.19087928  0.80876556  0.73092013  1
  Hf  Hf28  1  0.09551426  0.09786417  0.12752360  1
  Hf  Hf29  1  0.01575765  0.18671422  0.74946631  1
  Hf  Hf30  1  0.52307364  0.29986297  0.12491487  1
  Hf  Hf31  1  0.31717331  0.50458247  0.37197776  1
  Hf  Hf32  1  0.70199814  0.29473639  0.63708539  1
  Hf  Hf33  1  0.30493537  0.30122415  0.36295254  1
  Hf  Hf34  1  0.30433955  0.70626176  0.38031560  1
  Hf  Hf35  1  0.20008650  0.00632159  0.49011061  1
  Hf  Hf36  1  0.90570322  0.50197437  0.36561294  1
  Hf  Hf37  1  0.59773404  0.60091429  0.50605044  1
  Hf  Hf38  1  0.19451526  0.60234183  0.74527616  1
  Hf  Hf39  1  0.29744773  0.51098082  0.12233535  1
  Zr  Zr40  1  0.20089038  -0.01934209  0.00022084  1
  Zr  Zr41  1  0.07892368  0.92739969  0.62231373  1
  Zr  Zr42  1  0.89809685  0.90164274  0.12948658  1
  Zr  Zr43  1  0.40751875  0.38870976  0.50726230  1
  Zr  Zr44  1  0.80641439  -0.01459342  0.48596743  1
  Zr  Zr45  1  0.80644944  0.19628307  0.25396703  1
  Zr  Zr46  1  0.88249986  0.88738001  0.88345020  1
  Zr  Zr47  1  0.91079487  0.07496106  0.62050179  1
  Zr  Zr48  1  0.29448992  0.10686940  0.88956646  1
  Zr  Zr49  1  0.37989595  0.81889203  -0.00109697  1
  Zr  Zr50  1  0.60847380  0.40689779  0.76085219  1
  Zr  Zr51  1  0.79313322  0.77524321  0.74207906  1
  Zr  Zr52  1  0.40116980  0.62132033  0.00712751  1
  Zr  Zr53  1  0.01476991  0.19324670  0.49393599  1
  Zr  Zr54  1  0.50688244  0.29964109  0.36683497  1
  Zr  Zr55  1  0.32262748  0.09937093  0.37703159  1
  Zr  Zr56  1  0.77167826  -0.00471649  -0.00047958  1
  Zr  Zr57  1  0.69750340  0.89085185  0.62520299  1
  Zr  Zr58  1  0.70109291  0.69538383  0.88976026  1
  Zr  Zr59  1  0.41080553  0.40773513  -0.00045485  1
  Zr  Zr60  1  0.68773367  0.90083543  0.14327007  1
  Zr  Zr61  1  0.20462442  0.39607733  0.75824134  1
  Zr  Zr62  1  0.19178735  0.02258532  0.75453533  1
  Zr  Zr63  1  0.71776240  0.27204275  0.85633277  1
  Zr  Zr64  1  0.30395705  0.29735445  0.11814573  1
  Zr  Zr65  1  0.48676150  0.92074792  0.12722280  1
  Zr  Zr66  1  -0.01821605  0.59776024  0.73476226  1
  Zr  Zr67  1  0.30750506  0.08482989  0.11755843  1
  Zr  Zr68  1  0.38649125  0.80752974  0.74232011  1
  Zr  Zr69  1  0.80881465  0.39150569  -0.00924350  1
  Zr  Zr70  1  0.59389867  0.81324942  0.00198943  1
  Zr  Zr71  1  0.59190618  0.00566632  0.49402464  1
  Zr  Zr72  1  0.49502010  0.71609841  0.86366103  1
  Zr  Zr73  1  0.08992692  0.69842508  0.60986596  1
  Zr  Zr74  1  0.19709194  0.80995955  0.50537732  1
  Zr  Zr75  1  -0.02311473  0.82017241  0.49460381  1
  Zr  Zr76  1  0.39422657  0.80920953  0.51358702  1
  Zr  Zr77  1  0.60703671  0.40465170  0.51039824  1
  Zr  Zr78  1  0.81553022  0.40664390  0.75487195  1
  Zr  Zr79  1  0.50904646  0.51798812  0.87383501  1
  Ta  Ta80  1  0.80880307  0.19320497  0.01020950  1
  Ta  Ta81  1  0.50513665  0.29004750  0.86766934  1
  Ta  Ta82  1  0.70109090  0.09614108  0.63321833  1
  Ta  Ta83  1  0.61785974  0.19307178  -0.00717407  1
  Ta  Ta84  1  0.57297029  0.79453002  0.25140164  1
  Ta  Ta85  1  0.10703746  0.10669494  0.35847546  1
  Ta  Ta86  1  0.59460455  0.59516915  0.24373062  1
  Ta  Ta87  1  0.79429448  0.79263307  0.24729406  1
  Ta  Ta88  1  0.29795977  0.51456132  0.88152163  1
  Ta  Ta89  1  0.01322329  0.61060051  0.24994103  1
  Ta  Ta90  1  0.79775685  0.59228294  0.01427238  1
  Ta  Ta91  1  0.09876280  0.51239732  0.87811167  1
  Ta  Ta92  1  0.79417816  -0.01016644  0.75159710  1
  Ta  Ta93  1  0.79781248  0.59841990  0.24003895  1
  Ta  Ta94  1  0.19483484  0.41545168  -0.00166985  1
  Ta  Ta95  1  0.00740363  0.59256154  0.00620208  1
  Ta  Ta96  1  0.29803076  0.49207794  0.62352552  1
  Ta  Ta97  1  0.10482063  0.50741656  0.13299809  1
  Ta  Ta98  1  0.70031259  0.49399103  0.12872940  1
  Ta  Ta99  1  0.30279945  0.28633011  0.62615998  1
  Ta  Ta100  1  0.62182691  0.61554702  0.74549186  1
  Ta  Ta101  1  0.50822452  0.70591242  0.63858948  1
  Ta  Ta102  1  0.38811339  0.20259855  0.75445915  1
  Ta  Ta103  1  0.42222571  0.19087879  0.23931776  1
  Ta  Ta104  1  0.41514129  0.41146658  0.24010124  1
  Ta  Ta105  1  0.39600005  0.01434413  0.75116069  1
  Ta  Ta106  1  0.71373913  0.30217358  0.12533648  1
  Ta  Ta107  1  0.00603079  0.39916297  0.50192563  1
  Ta  Ta108  1  0.68827962  0.10359110  0.36465705  1
  Ta  Ta109  1  0.40609909  0.59734928  0.50810339  1
  Ta  Ta110  1  0.20882746  0.40705297  0.24668647  1
  Ta  Ta111  1  0.39875593  0.39902864  0.75528147  1
  Ta  Ta112  1  0.11226409  0.30379910  0.62127124  1
  Ta  Ta113  1  -0.00993023  -0.00259551  0.00016520  1
  Ta  Ta114  1  0.90196827  0.09603321  0.12925427  1
  Ta  Ta115  1  0.91167049  0.28811208  0.13482469  1
  Ta  Ta116  1  0.47847281  0.90295201  0.37196306  1
  Ta  Ta117  1  0.70754317  0.30091457  0.37722270  1
  Ta  Ta118  1  0.20645812  -0.01181200  0.25722622  1
  Ta  Ta119  1  0.68777239  0.89891095  0.35757993  1
  Ti  Ti120  1  0.39205419  0.59894715  0.74988935  1
  Ti  Ti121  1  0.10701350  0.30043926  0.35853480  1
  Ti  Ti122  1  0.49401581  0.69082444  0.37556007  1
  Ti  Ti123  1  0.51186965  0.51257199  0.11600415  1
  Ti  Ti124  1  0.21485653  0.20901983  0.49165941  1
  Ti  Ti125  1  0.71780857  0.50651375  0.63197232  1
  Ti  Ti126  1  0.48143706  0.11305510  0.62318968  1
  Ti  Ti127  1  0.91351189  0.28556995  0.87059202  1
  Ti  Ti128  1  0.79681854  0.79462598  0.01338761  1
  Ti  Ti129  1  0.19192723  0.61719940  -0.00263807  1
  Ti  Ti130  1  0.21339812  0.19352432  0.24611121  1
  Ti  Ti131  1  0.20334331  0.39696883  0.49758446  1
  Ti  Ti132  1  0.89544956  0.70252682  0.36469981  1
  Ti  Ti133  1  0.68819485  0.08358018  0.86540893  1
  Ti  Ti134  1  0.90868421  0.09095809  0.36897220  1
  Ti  Ti135  1  0.60566344  0.40072827  0.24897740  1
  Ti  Ti136  1  0.27716503  0.70939024  0.87157786  1
  Ti  Ti137  1  0.68689747  0.69448792  0.12560695  1
  Ti  Ti138  1  0.00296681  -0.01194238  0.26127120  1
  Ti  Ti139  1  0.58855247  0.18907378  0.74292977  1
  Ti  Ti140  1  0.10802626  0.28704886  0.88667846  1
  Ti  Ti141  1  0.01419656  0.78744011  0.00108505  1
  Ti  Ti142  1  0.59517654  -0.00138607  0.74812562  1
  Ti  Ti143  1  -0.00887263  0.59176573  0.50666212  1
  Ti  Ti144  1  0.89895530  0.50296584  0.88007577  1
  Ti  Ti145  1  -0.01258118  0.79893087  0.73723805  1
  Ti  Ti146  1  0.80078125  0.39724235  0.25127859  1
  Ti  Ti147  1  0.30459079  0.68872087  0.62124094  1
  Ti  Ti148  1  0.50099895  0.91950350  0.87048861  1
  Ti  Ti149  1  0.28252930  0.71721672  0.12828511  1
  Ti  Ti150  1  0.20738843  0.59057521  0.50550510  1
  Ti  Ti151  1  -0.01051055  -0.01047233  0.76318694  1
  Ti  Ti152  1  0.12189134  0.11837782  0.61862002  1
  Ti  Ti153  1  0.29792651  0.90420567  0.86699617  1
  Ti  Ti154  1  0.80995317  0.39820829  0.50377921  1
  Ti  Ti155  1  0.10154232  0.49393564  0.61650585  1
  Ti  Ti156  1  0.79987060  -0.00460146  0.25937811  1
  Ti  Ti157  1  0.79109201  0.79223588  0.49826009  1
  Ti  Ti158  1  0.09186049  0.10346303  0.89646907  1
  Ti  Ti159  1  0.39920530  -0.00218149  0.25308263  1
  Mo  Mo160  1  0.88836869  0.69907954  0.61476300  1
  Mo  Mo161  1  0.50518458  0.10569051  0.86271682  1
  Mo  Mo162  1  0.50316510  0.10132681  0.37505732  1
  Mo  Mo163  1  0.50481645  0.10379002  0.12696184  1
  Mo  Mo164  1  0.30057082  0.10191435  0.61908453  1
  Mo  Mo165  1  0.50089073  0.70962784  0.12762274  1
  Mo  Mo166  1  0.80290377  0.18244337  0.74367780  1
  Mo  Mo167  1  0.10042435  0.69054769  0.12761062  1
  Mo  Mo168  1  0.29741485  0.90063642  0.37129026  1
  Mo  Mo169  1  -0.01049879  0.79850015  0.26289509  1
  Mo  Mo170  1  0.69362650  0.69463943  0.61996322  1
  Mo  Mo171  1  0.09167031  0.90752029  0.37168197  1
  Mo  Mo172  1  0.90640682  0.48904606  0.61409419  1
  Mo  Mo173  1  0.80153366  0.59036169  0.74947754  1
  Mo  Mo174  1  0.19766162  0.20955186  0.75179438  1
  Mo  Mo175  1  0.89324080  0.89650149  0.63091433  1
  Mo  Mo176  1  0.68483702  0.89750608  0.86391242  1
  Mo  Mo177  1  0.49469313  0.29844467  0.64898587  1
  Mo  Mo178  1  0.00684066  0.40066228  0.24979061  1
  Mo  Mo179  1  0.18805098  0.20849629  0.00667493  1
  Mo  Mo180  1  0.29449222  0.92962112  0.63066631  1
  Mo  Mo181  1  0.58157494  0.01583882  -0.00868657  1
  Mo  Mo182  1  0.58438022  0.00844992  0.26636526  1
  Mo  Mo183  1  0.39817093  0.00559886  0.50537839  1
  Mo  Mo184  1  0.19442600  0.78872623  -0.00237894  1
  Mo  Mo185  1  0.59703526  0.80930335  0.75650625  1
  Mo  Mo186  1  -0.00367923  0.19363534  0.00134405  1
  Mo  Mo187  1  0.88511356  0.89262840  0.35898224  1
  Mo  Mo188  1  0.40167646  0.20014174  0.50618655  1
  Mo  Mo189  1  0.71404736  0.51523737  0.87897080  1
  Mo  Mo190  1  0.50217768  0.50717220  0.36582745  1
  Mo  Mo191  1  0.20294794  0.59702969  0.25155702  1
  Mo  Mo192  1  0.60705667  0.21190276  0.25455820  1
  Mo  Mo193  1  0.09600176  0.69431917  0.86902959  1
  Mo  Mo194  1  0.00554118  0.00558351  0.47305507  1
  Mo  Mo195  1  0.60598798  0.60311402  0.01578559  1
  Mo  Mo196  1  0.29112251  0.89905865  0.13593865  1
  Mo  Mo197  1  0.38366707  0.81297122  0.24840685  1
  Mo  Mo198  1  0.00844479  0.19014390  0.25371394  1
  Mo  Mo199  1  0.40757564  -0.00399771  -0.01291609  1
