# generated using pymatgen
data_HfZrTaTiMo
_symmetry_space_group_name_H-M   'P 1'
_cell_length_a   15.18345718
_cell_length_b   15.18114388
_cell_length_c   16.82159742
_cell_angle_alpha   90.00521676
_cell_angle_beta   89.96853714
_cell_angle_gamma   89.85819283
_symmetry_Int_Tables_number   1
_chemical_formula_structural   HfZrTaTiMo
_chemical_formula_sum   'Hf40 Zr40 Ta40 Ti40 Mo40'
_cell_volume   3877.40354569
_cell_formula_units_Z   40
loop_
 _symmetry_equiv_pos_site_id
 _symmetry_equiv_pos_as_xyz
  1  'x, y, z'
loop_
 _atom_site_type_symbol
 _atom_site_label
 _atom_site_symmetry_multiplicity
 _atom_site_fract_x
 _atom_site_fract_y
 _atom_site_fract_z
 _atom_site_occupancy
  Hf  Hf0  1  0.10259363  0.09746324  0.61934257  1
  Hf  Hf1  1  0.30016971  0.32067325  0.12490290  1
  Hf  Hf2  1  0.70455526  0.89525641  0.61588814  1
  Hf  Hf3  1  0.38228429  0.80498910  0.00410316  1
  Hf  Hf4  1  0.88976469  0.70914096  0.36565141  1
  Hf  Hf5  1  0.69137292  0.30159823  0.38098649  1
  Hf  Hf6  1  0.49193527  0.69776720  0.11596997  1
  Hf  Hf7  1  0.28796578  0.90867273  0.87018273  1
  Hf  Hf8  1  0.60775350  0.78874751  0.25378829  1
  Hf  Hf9  1  0.59625566  0.58468248  0.23828078  1
  Hf  Hf10  1  0.89730313  0.88771714  0.12893643  1
  Hf  Hf11  1  0.12480821  0.09591239  0.88681433  1
  Hf  Hf12  1  0.80215902  -0.00119665  -0.01502733  1
  Hf  Hf13  1  0.40839562  0.21764204  0.27081697  1
  Hf  Hf14  1  0.70280603  0.30290416  0.63023142  1
  Hf  Hf15  1  0.89726994  0.69707876  0.62764026  1
  Hf  Hf16  1  0.89772619  0.09427661  0.11688574  1
  Hf  Hf17  1  -0.00387072  0.60417056  0.49349824  1
  Hf  Hf18  1  0.50129772  0.71198597  0.88274350  1
  Hf  Hf19  1  0.00213723  0.81063295  0.50103205  1
  Hf  Hf20  1  0.80663936  0.60487924  -0.00778060  1
  Hf  Hf21  1  0.70677953  0.09246938  0.38312427  1
  Hf  Hf22  1  0.59290726  0.00808786  -0.00430061  1
  Hf  Hf23  1  0.59161021  0.38630432  0.24935674  1
  Hf  Hf24  1  0.09665824  0.30959882  0.88537882  1
  Hf  Hf25  1  0.70628708  0.09786308  0.62708776  1
  Hf  Hf26  1  0.39971626  0.79697836  0.24684555  1
  Hf  Hf27  1  0.69623728  0.48983006  0.86966524  1
  Hf  Hf28  1  0.90105443  0.09984286  0.64631535  1
  Hf  Hf29  1  0.19115847  0.61005847  0.00500999  1
  Hf  Hf30  1  0.90331327  0.49949605  0.11768849  1
  Hf  Hf31  1  0.58973294  0.19370033  0.74976486  1
  Hf  Hf32  1  0.28827532  0.50327857  0.86853367  1
  Hf  Hf33  1  0.00771897  0.18569246  0.24012977  1
  Hf  Hf34  1  0.81567155  0.18819122  0.49832037  1
  Hf  Hf35  1  0.89162841  0.49873998  0.61978182  1
  Hf  Hf36  1  0.78953695  0.60433596  0.24884340  1
  Hf  Hf37  1  0.69672449  0.89968713  0.11546615  1
  Hf  Hf38  1  0.10446456  0.50082814  0.61008263  1
  Hf  Hf39  1  0.21850546  0.59517482  0.49276845  1
  Zr  Zr40  1  0.00949877  0.38898250  0.24951889  1
  Zr  Zr41  1  0.48237825  0.50467168  0.85712390  1
  Zr  Zr42  1  0.00880398  -0.01481585  0.75829595  1
  Zr  Zr43  1  0.60610307  0.60466362  0.75196644  1
  Zr  Zr44  1  0.89325087  0.49491431  0.37661510  1
  Zr  Zr45  1  0.80078488  0.79217897  0.50133190  1
  Zr  Zr46  1  0.48788984  0.89558072  0.38464313  1
  Zr  Zr47  1  0.59201360  0.00981337  0.24813550  1
  Zr  Zr48  1  0.80153785  0.80656541  0.75259814  1
  Zr  Zr49  1  0.80501615  0.39986883  0.75542125  1
  Zr  Zr50  1  0.59078885  0.39426796  0.00485912  1
  Zr  Zr51  1  0.90735213  0.28858686  0.37390187  1
  Zr  Zr52  1  0.19501433  0.39928209  0.74370270  1
  Zr  Zr53  1  0.20363040  0.79847227  0.49331737  1
  Zr  Zr54  1  0.09957930  0.29466208  0.60663359  1
  Zr  Zr55  1  0.70066601  0.88842062  0.37950287  1
  Zr  Zr56  1  0.01141132  0.59330632  0.25193463  1
  Zr  Zr57  1  0.29779754  0.90782909  0.61923954  1
  Zr  Zr58  1  0.20052471  0.80907148  0.25786133  1
  Zr  Zr59  1  0.92854605  0.50118566  0.88636275  1
  Zr  Zr60  1  0.60080870  0.19862933  -0.01685119  1
  Zr  Zr61  1  0.91279710  0.09935394  0.86983288  1
  Zr  Zr62  1  0.69368798  0.87206127  0.89069201  1
  Zr  Zr63  1  0.70754441  0.70719700  0.10990912  1
  Zr  Zr64  1  0.59614033  0.59253483  0.00063808  1
  Zr  Zr65  1  0.30454953  0.70302947  0.62947049  1
  Zr  Zr66  1  0.89965001  0.91578556  0.36409911  1
  Zr  Zr67  1  0.01364348  -0.01938750  0.00065781  1
  Zr  Zr68  1  0.79018329  0.19910699  0.24898905  1
  Zr  Zr69  1  0.60268900  -0.00524572  0.74983082  1
  Zr  Zr70  1  0.59165544  0.80036443  0.74133603  1
  Zr  Zr71  1  0.38402627  0.00934149  0.25550625  1
  Zr  Zr72  1  0.39590262  0.01145707  0.00785506  1
  Zr  Zr73  1  0.20860549  0.19630225  0.74552453  1
  Zr  Zr74  1  0.58978637  0.00132716  0.50988492  1
  Zr  Zr75  1  0.30197695  0.12086172  0.12604133  1
  Zr  Zr76  1  0.19966098  0.19972256  0.26234601  1
  Zr  Zr77  1  0.89813700  0.29870000  0.11638299  1
  Zr  Zr78  1  0.49065104  0.30532440  0.85557901  1
  Zr  Zr79  1  0.21695784  0.59878032  0.26073551  1
  Ta  Ta80  1  0.90335000  0.29456113  0.62457328  1
  Ta  Ta81  1  0.09772628  0.91142904  0.37428510  1
  Ta  Ta82  1  0.29473661  0.70439611  0.86545077  1
  Ta  Ta83  1  0.32267805  0.49890040  0.63075025  1
  Ta  Ta84  1  0.59053540  0.77391832  0.49822326  1
  Ta  Ta85  1  0.59296532  0.21218242  0.51155345  1
  Ta  Ta86  1  0.27799792  0.91431524  0.12835569  1
  Ta  Ta87  1  0.78740532  0.40719325  0.24322239  1
  Ta  Ta88  1  0.49441731  0.28694242  0.12847451  1
  Ta  Ta89  1  0.40603474  0.01755957  0.74281186  1
  Ta  Ta90  1  0.09780699  0.68659077  0.87129307  1
  Ta  Ta91  1  0.48615324  0.90993495  0.87628461  1
  Ta  Ta92  1  0.20637659  0.40051001  0.26618198  1
  Ta  Ta93  1  0.10793528  0.48972029  0.38656032  1
  Ta  Ta94  1  0.49160920  0.31565676  0.63374801  1
  Ta  Ta95  1  0.00154256  0.39958810  0.74425919  1
  Ta  Ta96  1  0.90634539  0.70815935  0.87553546  1
  Ta  Ta97  1  0.40034197  0.21123054  0.49304642  1
  Ta  Ta98  1  0.40834906  0.40964149  0.48980706  1
  Ta  Ta99  1  0.49521716  0.69329573  0.62582108  1
  Ta  Ta100  1  0.79856309  -0.00141961  0.24299809  1
  Ta  Ta101  1  0.30543581  0.30015711  0.61421442  1
  Ta  Ta102  1  0.50197762  0.11065626  0.38682306  1
  Ta  Ta103  1  0.10036980  0.70186918  0.37674420  1
  Ta  Ta104  1  -0.01815674  0.01362919  0.50025801  1
  Ta  Ta105  1  0.00628313  0.79716196  0.24612738  1
  Ta  Ta106  1  0.90204525  0.30257764  0.88746755  1
  Ta  Ta107  1  0.79293899  0.19884510  -0.01290978  1
  Ta  Ta108  1  0.31849033  0.10928245  0.87448162  1
  Ta  Ta109  1  0.79278901  0.39829287  0.50321793  1
  Ta  Ta110  1  0.40543154  0.21139557  -0.00223051  1
  Ta  Ta111  1  0.00590611  0.77612953  0.00892221  1
  Ta  Ta112  1  0.79201948  0.39585917  -0.00308929  1
  Ta  Ta113  1  0.39593812  0.41831799  0.26767402  1
  Ta  Ta114  1  0.49357957  0.90342933  0.12501839  1
  Ta  Ta115  1  0.29627576  0.29944501  0.88184531  1
  Ta  Ta116  1  0.00905760  0.19834973  0.00541612  1
  Ta  Ta117  1  0.19412963  0.60406921  0.74467761  1
  Ta  Ta118  1  0.00637960  0.78781082  0.74583350  1
  Ta  Ta119  1  0.59685160  0.41472005  0.50501003  1
  Ti  Ti120  1  0.09661673  0.90011099  0.62413625  1
  Ti  Ti121  1  0.19209380  0.80143189  0.74699485  1
  Ti  Ti122  1  0.09632687  0.87981004  0.87561697  1
  Ti  Ti123  1  0.80557264  0.60573517  0.76286976  1
  Ti  Ti124  1  0.48604039  0.48890945  0.12632162  1
  Ti  Ti125  1  0.10995963  0.29477337  0.11415903  1
  Ti  Ti126  1  0.48511800  0.89800733  0.61194050  1
  Ti  Ti127  1  0.20762891  0.00140034  0.74321739  1
  Ti  Ti128  1  0.10861513  0.29193078  0.39243306  1
  Ti  Ti129  1  0.19080846  0.00260453  0.49798581  1
  Ti  Ti130  1  0.79650885  0.19767060  0.76857279  1
  Ti  Ti131  1  0.90717772  0.69688986  0.12957571  1
  Ti  Ti132  1  0.19495580  0.40815840  -0.00104249  1
  Ti  Ti133  1  0.77506377  0.59195480  0.48854102  1
  Ti  Ti134  1  0.39522729  0.40636355  -0.00191317  1
  Ti  Ti135  1  0.11901352  0.08413687  0.11333233  1
  Ti  Ti136  1  0.69991318  0.68951254  0.62173530  1
  Ti  Ti137  1  0.10060148  0.70074965  0.62125615  1
  Ti  Ti138  1  0.29549519  0.90747200  0.38495254  1
  Ti  Ti139  1  0.51003136  0.51442987  0.37503929  1
  Ti  Ti140  1  0.89925251  0.90829466  0.62856645  1
  Ti  Ti141  1  0.08737403  0.09966671  0.38407837  1
  Ti  Ti142  1  0.00511134  0.21197917  0.75571520  1
  Ti  Ti143  1  0.69461785  0.29743993  0.12394522  1
  Ti  Ti144  1  0.21820135  0.39516120  0.49197486  1
  Ti  Ti145  1  0.01532141  -0.00437179  0.23921838  1
  Ti  Ti146  1  0.30329414  0.50977558  0.12778458  1
  Ti  Ti147  1  0.31083044  0.10410686  0.60866864  1
  Ti  Ti148  1  0.29164415  0.70328935  0.12916231  1
  Ti  Ti149  1  0.69123522  0.10710181  0.12403946  1
  Ti  Ti150  1  0.69097319  0.50090413  0.63224086  1
  Ti  Ti151  1  0.18774318  0.80726695  0.00796288  1
  Ti  Ti152  1  0.38775309  0.59937387  -0.00225795  1
  Ti  Ti153  1  0.39767311  0.80904068  0.75113146  1
  Ti  Ti154  1  0.00413146  0.59302082  0.74527752  1
  Ti  Ti155  1  0.11011481  0.49310012  0.12842183  1
  Ti  Ti156  1  -0.00721519  0.39266417  0.49732562  1
  Ti  Ti157  1  0.29184630  0.10147928  0.38889121  1
  Ti  Ti158  1  0.32644714  0.69986488  0.37842189  1
  Ti  Ti159  1  0.42166014  0.60395352  0.49917092  1
  Mo  Mo160  1  0.38814440  0.00828387  0.49343129  1
  Mo  Mo161  1  0.68677306  0.68201946  0.37612426  1
  Mo  Mo162  1  0.70301883  0.09415592  0.86469510  1
  Mo  Mo163  1  0.59672326  0.19638840  0.24899176  1
  Mo  Mo164  1  0.90670262  0.09235433  0.36165544  1
  Mo  Mo165  1  0.39264491  0.61360951  0.75119067  1
  Mo  Mo166  1  0.70506033  0.69222054  0.88437400  1
  Mo  Mo167  1  0.31176908  0.50619803  0.38159105  1
  Mo  Mo168  1  0.38828336  0.39742790  0.74460988  1
  Mo  Mo169  1  0.80497985  -0.00294952  0.50500534  1
  Mo  Mo170  1  0.70502143  0.48582510  0.11990166  1
  Mo  Mo171  1  0.80127789  0.79981456  0.24865207  1
  Mo  Mo172  1  0.59864322  0.40098764  0.73858795  1
  Mo  Mo173  1  0.58260008  0.80845869  0.00527068  1
  Mo  Mo174  1  0.18875499  0.00866975  0.26105427  1
  Mo  Mo175  1  0.81711536  0.79918132  -0.00528089  1
  Mo  Mo176  1  0.79827079  0.00036643  0.76715401  1
  Mo  Mo177  1  0.29843236  0.30747925  0.38407731  1
  Mo  Mo178  1  0.50321092  0.30734215  0.38574770  1
  Mo  Mo179  1  0.20700775  -0.00618332  -0.00320939  1
  Mo  Mo180  1  0.01162486  0.59826312  0.01237297  1
  Mo  Mo181  1  0.59979361  0.59128191  0.50785396  1
  Mo  Mo182  1  0.50350713  0.69404660  0.37315738  1
  Mo  Mo183  1  0.49883928  0.50352488  0.63397247  1
  Mo  Mo184  1  0.40565662  0.60082772  0.24621038  1
  Mo  Mo185  1  0.69731725  0.49319887  0.37584066  1
  Mo  Mo186  1  0.10353456  0.50446767  0.87230231  1
  Mo  Mo187  1  0.10130779  0.69838026  0.13216780  1
  Mo  Mo188  1  0.49331046  0.09745280  0.86943655  1
  Mo  Mo189  1  0.20857034  0.20509628  0.00096041  1
  Mo  Mo190  1  0.00865976  0.39668835  0.01215249  1
  Mo  Mo191  1  0.50436634  0.10893941  0.13076545  1
  Mo  Mo192  1  0.48964955  0.10957074  0.61264532  1
  Mo  Mo193  1  0.39114019  0.20036076  0.73799617  1
  Mo  Mo194  1  0.91116134  0.88634905  0.87934910  1
  Mo  Mo195  1  0.00298119  0.19679280  0.50137640  1
  Mo  Mo196  1  0.20578067  0.19367519  0.49202044  1
  Mo  Mo197  1  0.70634214  0.29693666  0.86851448  1
  Mo  Mo198  1  0.40409278  0.79840348  0.49825775  1
  Mo  Mo199  1  0.10037676  0.89471840  0.12864532  1
