# generated using pymatgen
data_HfZrTaTiMo
_symmetry_space_group_name_H-M   'P 1'
_cell_length_a   15.18419008
_cell_length_b   15.17846512
_cell_length_c   16.80057342
_cell_angle_alpha   90.00998690
_cell_angle_beta   90.01269184
_cell_angle_gamma   89.94265623
_symmetry_Int_Tables_number   1
_chemical_formula_structural   HfZrTaTiMo
_chemical_formula_sum   'Hf40 Zr40 Ta40 Ti40 Mo40'
_cell_volume   3872.07141425
_cell_formula_units_Z   40
loop_
 _symmetry_equiv_pos_site_id
 _symmetry_equiv_pos_as_xyz
  1  'x, y, z'
loop_
 _atom_site_type_symbol
 _atom_site_label
 _atom_site_symmetry_multiplicity
 _atom_site_fract_x
 _atom_site_fract_y
 _atom_site_fract_z
 _atom_site_occupancy
  Hf  Hf0  1  0.81222095  0.60065819  0.25910494  1
  Hf  Hf1  1  0.60508651  -0.00324333  0.26046699  1
  Hf  Hf2  1  0.49841079  0.29415239  0.88628627  1
  Hf  Hf3  1  0.70542476  0.30456058  0.86371701  1
  Hf  Hf4  1  0.30175578  0.11258296  0.38923144  1
  Hf  Hf5  1  0.89910419  0.72478541  0.38557264  1
  Hf  Hf6  1  0.90156643  0.30775617  0.11931734  1
  Hf  Hf7  1  0.29577699  0.71051720  0.36399822  1
  Hf  Hf8  1  0.19107727  0.80845570  -0.00200640  1
  Hf  Hf9  1  0.60230827  0.19953008  0.24346936  1
  Hf  Hf10  1  0.29382532  0.71618296  0.13420241  1
  Hf  Hf11  1  0.08005657  0.69605158  0.13699479  1
  Hf  Hf12  1  0.50867470  0.51336020  0.13522335  1
  Hf  Hf13  1  0.31379206  0.30531728  0.62165489  1
  Hf  Hf14  1  0.29255083  0.49220613  0.38464252  1
  Hf  Hf15  1  0.20274541  0.18405877  -0.00252705  1
  Hf  Hf16  1  0.89065190  0.68692883  0.88442068  1
  Hf  Hf17  1  -0.00859542  -0.02115377  0.49955755  1
  Hf  Hf18  1  0.30004428  0.70716648  0.87349306  1
  Hf  Hf19  1  0.69430320  0.70896089  0.87590915  1
  Hf  Hf20  1  0.80004985  0.81056221  0.24106058  1
  Hf  Hf21  1  0.81683355  0.38789853  0.25987920  1
  Hf  Hf22  1  -0.00955708  0.20593790  0.25594223  1
  Hf  Hf23  1  0.59701483  0.80385599  0.48856999  1
  Hf  Hf24  1  0.87796315  0.09789155  0.38115325  1
  Hf  Hf25  1  0.11018511  0.49410069  0.61773004  1
  Hf  Hf26  1  0.10324550  0.08215120  0.13305553  1
  Hf  Hf27  1  0.01191165  0.38712436  0.50698650  1
  Hf  Hf28  1  0.20351806  0.38568960  0.23874701  1
  Hf  Hf29  1  0.10446311  0.70528259  0.62953642  1
  Hf  Hf30  1  0.88730188  0.29965801  0.62524220  1
  Hf  Hf31  1  0.09252787  0.69291488  0.36108808  1
  Hf  Hf32  1  0.70909136  0.90549058  0.61594420  1
  Hf  Hf33  1  0.90730807  0.10200434  0.12084385  1
  Hf  Hf34  1  0.60263656  0.40954691  -0.00402391  1
  Hf  Hf35  1  -0.00369698  0.59491788  0.75268097  1
  Hf  Hf36  1  0.21519691  0.18684446  0.73828695  1
  Hf  Hf37  1  0.19631361  -0.01031814  0.50178458  1
  Hf  Hf38  1  0.39642204  0.02070381  0.75002611  1
  Hf  Hf39  1  0.58556957  0.20728564  0.50438140  1
  Zr  Zr40  1  0.49422821  0.91150935  0.61858886  1
  Zr  Zr41  1  0.59605395  0.60375503  0.74696668  1
  Zr  Zr42  1  0.39845293  0.40346863  0.75436054  1
  Zr  Zr43  1  0.70712707  0.10621635  0.62491928  1
  Zr  Zr44  1  0.49322138  0.90597400  0.87491318  1
  Zr  Zr45  1  0.70917153  0.49630541  0.13733917  1
  Zr  Zr46  1  0.72530407  0.90407543  0.38699102  1
  Zr  Zr47  1  -0.00185720  0.79780281  -0.00651634  1
  Zr  Zr48  1  0.08525648  0.48951785  0.11335054  1
  Zr  Zr49  1  0.78896288  0.79531205  0.01347223  1
  Zr  Zr50  1  0.70157909  0.50193052  0.61633358  1
  Zr  Zr51  1  0.70694525  0.70461501  0.61113766  1
  Zr  Zr52  1  0.09005045  0.09936587  0.37734516  1
  Zr  Zr53  1  0.59984140  0.61222334  0.00163165  1
  Zr  Zr54  1  0.59432114  0.80547223  0.74317561  1
  Zr  Zr55  1  0.11020925  0.30284003  0.37364725  1
  Zr  Zr56  1  0.39769517  0.20402424  0.24593391  1
  Zr  Zr57  1  0.50311800  0.08508678  0.11083684  1
  Zr  Zr58  1  0.69054788  0.31111848  0.63238819  1
  Zr  Zr59  1  0.30202875  0.28593531  0.87725291  1
  Zr  Zr60  1  0.89276720  0.50601201  0.61215431  1
  Zr  Zr61  1  0.01755354  -0.00428991  -0.01176156  1
  Zr  Zr62  1  0.21342193  -0.01251833  0.26576384  1
  Zr  Zr63  1  0.90165227  0.71267203  0.61360930  1
  Zr  Zr64  1  0.80266333  -0.00295572  -0.00219964  1
  Zr  Zr65  1  0.80383588  0.40128306  -0.00118818  1
  Zr  Zr66  1  0.18798103  0.21014717  0.51828333  1
  Zr  Zr67  1  0.20680862  0.59267458  0.75109644  1
  Zr  Zr68  1  -0.00552158  0.39630792  0.74705306  1
  Zr  Zr69  1  0.59744541  0.60083791  0.48567773  1
  Zr  Zr70  1  0.19798129  0.58532563  0.24286020  1
  Zr  Zr71  1  0.68897837  0.10047499  0.87514143  1
  Zr  Zr72  1  0.09646823  0.28461045  0.12352349  1
  Zr  Zr73  1  0.59152931  0.41246300  0.76000753  1
  Zr  Zr74  1  0.30291664  0.50281241  0.88813576  1
  Zr  Zr75  1  0.39850765  0.39810997  0.24304246  1
  Zr  Zr76  1  0.90953365  0.91336878  0.64473405  1
  Zr  Zr77  1  0.39199764  0.80959560  0.00299097  1
  Zr  Zr78  1  0.48420060  0.69880797  0.61645850  1
  Zr  Zr79  1  0.49968063  0.49920349  0.36805631  1
  Ta  Ta80  1  0.60281203  0.01053797  0.48832866  1
  Ta  Ta81  1  0.80574516  0.20192918  -0.00675679  1
  Ta  Ta82  1  0.67640481  0.70123502  0.14567423  1
  Ta  Ta83  1  0.71389739  0.51353376  0.87461186  1
  Ta  Ta84  1  0.50623465  0.30136297  0.11479025  1
  Ta  Ta85  1  0.19536169  0.39282682  0.74957940  1
  Ta  Ta86  1  0.69504962  0.90300512  0.87514964  1
  Ta  Ta87  1  0.19574357  0.79813732  0.49768684  1
  Ta  Ta88  1  0.09812975  0.29028906  0.87074563  1
  Ta  Ta89  1  0.40130003  0.60850884  0.24380740  1
  Ta  Ta90  1  0.31300301  0.09392345  0.60992198  1
  Ta  Ta91  1  0.89592921  0.90114204  0.86562181  1
  Ta  Ta92  1  0.30377557  0.09232059  0.12156370  1
  Ta  Ta93  1  0.29560890  0.89279477  0.62949440  1
  Ta  Ta94  1  0.11720394  0.08706954  0.85900294  1
  Ta  Ta95  1  0.49171205  0.89333455  0.13382240  1
  Ta  Ta96  1  0.40677982  0.59667148  0.74873512  1
  Ta  Ta97  1  0.61066534  0.20312347  0.00612125  1
  Ta  Ta98  1  0.80124651  0.00655555  0.24036822  1
  Ta  Ta99  1  0.70486438  0.10030360  0.11572502  1
  Ta  Ta100  1  -0.01368021  0.17923140  0.52594312  1
  Ta  Ta101  1  0.10060385  0.68905306  0.87650205  1
  Ta  Ta102  1  0.00591097  0.79727533  0.76636243  1
  Ta  Ta103  1  0.00877867  0.19029388  0.73545923  1
  Ta  Ta104  1  0.90841750  0.10527160  0.86539454  1
  Ta  Ta105  1  0.70526714  0.49269986  0.36889656  1
  Ta  Ta106  1  0.19493763  0.60445043  0.00572481  1
  Ta  Ta107  1  0.00632017  0.60464813  0.49566099  1
  Ta  Ta108  1  0.70311520  0.28533567  0.37980983  1
  Ta  Ta109  1  0.80615093  0.20438632  0.75508987  1
  Ta  Ta110  1  0.59211908  0.80970462  0.00835190  1
  Ta  Ta111  1  0.40035854  0.40313888  0.00952517  1
  Ta  Ta112  1  0.91330132  0.89754201  0.12782841  1
  Ta  Ta113  1  0.19988917  0.38957442  0.00341917  1
  Ta  Ta114  1  -0.00630096  -0.01219473  0.25687670  1
  Ta  Ta115  1  0.30883394  0.50571175  0.60892528  1
  Ta  Ta116  1  0.79979434  0.79900072  0.75492566  1
  Ta  Ta117  1  0.09659806  0.49059306  0.88912274  1
  Ta  Ta118  1  0.49279149  0.48643662  0.60814217  1
  Ta  Ta119  1  0.59607033  0.00987273  0.74719184  1
  Ti  Ti120  1  0.91113159  0.49895755  0.38233126  1
  Ti  Ti121  1  0.29915809  0.50090338  0.11559288  1
  Ti  Ti122  1  0.40809564  0.00324334  0.49400346  1
  Ti  Ti123  1  0.50402558  0.11062061  0.37566038  1
  Ti  Ti124  1  0.60748247  0.38846327  0.25294299  1
  Ti  Ti125  1  0.90380525  0.49688448  0.88556320  1
  Ti  Ti126  1  0.09557345  0.88121508  0.36739511  1
  Ti  Ti127  1  0.11119085  0.88890353  0.14157325  1
  Ti  Ti128  1  0.28446383  0.91406973  0.85851646  1
  Ti  Ti129  1  0.90633121  0.50660013  0.11984635  1
  Ti  Ti130  1  0.89039266  0.69005960  0.11978637  1
  Ti  Ti131  1  0.20838854  0.19381271  0.24760188  1
  Ti  Ti132  1  0.49226998  0.90133513  0.37272786  1
  Ti  Ti133  1  0.09666890  0.49527125  0.37755886  1
  Ti  Ti134  1  0.79958765  0.59797088  0.74664733  1
  Ti  Ti135  1  0.49400211  0.69775191  0.87516487  1
  Ti  Ti136  1  0.90544074  0.30121378  0.86971740  1
  Ti  Ti137  1  0.79661180  0.00448922  0.75902960  1
  Ti  Ti138  1  0.90468091  0.29365581  0.39207633  1
  Ti  Ti139  1  0.29734608  0.70078417  0.62546364  1
  Ti  Ti140  1  0.38842033  0.80736176  0.49247986  1
  Ti  Ti141  1  0.10522928  0.89770904  0.64176519  1
  Ti  Ti142  1  0.40574021  0.37680671  0.48646845  1
  Ti  Ti143  1  0.49741922  0.70809923  0.35553925  1
  Ti  Ti144  1  0.39700757  0.60933567  0.48984300  1
  Ti  Ti145  1  0.69233945  0.70078395  0.36054597  1
  Ti  Ti146  1  0.59807484  0.39696399  0.48707370  1
  Ti  Ti147  1  0.19991585  0.60371249  0.49780334  1
  Ti  Ti148  1  0.21221266  -0.00861118  -0.00309149  1
  Ti  Ti149  1  0.57976048  0.19819644  0.74238062  1
  Ti  Ti150  1  0.48932156  0.10274828  0.89342783  1
  Ti  Ti151  1  0.40203039  0.00623300  0.25785355  1
  Ti  Ti152  1  0.00193980  0.19723674  -0.01141498  1
  Ti  Ti153  1  0.79171149  0.19633320  0.24630056  1
  Ti  Ti154  1  0.79865404  0.60584972  0.48220930  1
  Ti  Ti155  1  0.68787574  0.90538844  0.12601278  1
  Ti  Ti156  1  0.38821889  0.81942481  0.25181987  1
  Ti  Ti157  1  0.40362301  0.60709266  0.01074910  1
  Ti  Ti158  1  0.79520209  0.39691660  0.48795546  1
  Ti  Ti159  1  0.39296015  0.79901760  0.74918397  1
  Mo  Mo160  1  0.90955292  0.90565377  0.36875664  1
  Mo  Mo161  1  0.30429943  0.90132547  0.38541831  1
  Mo  Mo162  1  0.30768882  0.09370357  0.88041060  1
  Mo  Mo163  1  0.80337095  0.40961405  0.76380851  1
  Mo  Mo164  1  0.29979692  0.91515890  0.12828806  1
  Mo  Mo165  1  -0.00387708  0.59525475  -0.00404797  1
  Mo  Mo166  1  0.59237301  0.80644829  0.26018867  1
  Mo  Mo167  1  0.40152895  0.19599747  0.49515188  1
  Mo  Mo168  1  0.10230081  0.29548279  0.63330245  1
  Mo  Mo169  1  0.49678415  0.30497893  0.62429399  1
  Mo  Mo170  1  0.89619116  0.09808855  0.64070126  1
  Mo  Mo171  1  0.70174711  0.29052495  0.12445518  1
  Mo  Mo172  1  0.30298139  0.29646856  0.11100353  1
  Mo  Mo173  1  0.10679585  0.89294658  0.86198757  1
  Mo  Mo174  1  0.49821131  0.10457068  0.61989983  1
  Mo  Mo175  1  0.49593776  0.51262217  0.88613074  1
  Mo  Mo176  1  0.81925316  0.82213916  0.50300846  1
  Mo  Mo177  1  -0.00334343  0.41099357  0.25875148  1
  Mo  Mo178  1  0.41155346  0.19889625  0.74867451  1
  Mo  Mo179  1  -0.01182019  0.58506242  0.25734348  1
  Mo  Mo180  1  0.49558032  0.71056058  0.13985101  1
  Mo  Mo181  1  0.20842103  0.40692000  0.50112634  1
  Mo  Mo182  1  0.59753079  -0.00863583  0.00187122  1
  Mo  Mo183  1  0.30392280  0.29963458  0.37955051  1
  Mo  Mo184  1  0.79568697  0.59853605  0.00992838  1
  Mo  Mo185  1  0.60191727  0.59988462  0.26131228  1
  Mo  Mo186  1  -0.00811670  0.79589328  0.24226709  1
  Mo  Mo187  1  0.09866510  0.08198163  0.63331378  1
  Mo  Mo188  1  0.20431942  0.79719245  0.75237741  1
  Mo  Mo189  1  0.20242024  -0.00212835  0.73537570  1
  Mo  Mo190  1  0.69431015  0.10390642  0.37815030  1
  Mo  Mo191  1  0.80557967  0.01517282  0.50760529  1
  Mo  Mo192  1  0.50431443  0.29841365  0.36842933  1
  Mo  Mo193  1  0.79843875  0.20722759  0.50126265  1
  Mo  Mo194  1  0.00289594  0.38594977  -0.01362115  1
  Mo  Mo195  1  0.00432130  -0.00054085  0.76484621  1
  Mo  Mo196  1  0.38851811  0.00264379  -0.00536566  1
  Mo  Mo197  1  0.01992772  0.80328573  0.50388617  1
  Mo  Mo198  1  0.19600392  0.80137413  0.25189402  1
  Mo  Mo199  1  0.40122856  0.20349210  0.01200908  1
