# generated using pymatgen
data_HfZrTaTiMo
_symmetry_space_group_name_H-M   'P 1'
_cell_length_a   15.19871777
_cell_length_b   15.22023252
_cell_length_c   16.83247180
_cell_angle_alpha   89.93199417
_cell_angle_beta   89.97803415
_cell_angle_gamma   90.11995954
_symmetry_Int_Tables_number   1
_chemical_formula_structural   HfZrTaTiMo
_chemical_formula_sum   'Hf40 Zr40 Ta40 Ti40 Mo40'
_cell_volume   3893.81077924
_cell_formula_units_Z   40
loop_
 _symmetry_equiv_pos_site_id
 _symmetry_equiv_pos_as_xyz
  1  'x, y, z'
loop_
 _atom_site_type_symbol
 _atom_site_label
 _atom_site_symmetry_multiplicity
 _atom_site_fract_x
 _atom_site_fract_y
 _atom_site_fract_z
 _atom_site_occupancy
  Hf  Hf0  1  0.41022022  0.21309158  0.01013923  1
  Hf  Hf1  1  0.49669532  0.08373573  0.62401918  1
  Hf  Hf2  1  0.60133203  0.58658244  0.47277494  1
  Hf  Hf3  1  0.89917336  0.29688991  0.37678483  1
  Hf  Hf4  1  0.70144678  0.89007679  0.61854279  1
  Hf  Hf5  1  0.18633951  0.40552221  0.76015265  1
  Hf  Hf6  1  0.39824149  0.41134480  0.49891402  1
  Hf  Hf7  1  0.70879902  0.88640440  0.37327091  1
  Hf  Hf8  1  0.89307432  0.30674886  0.86564935  1
  Hf  Hf9  1  0.30032524  0.10198167  0.87553061  1
  Hf  Hf10  1  0.31060716  0.10515533  0.36696169  1
  Hf  Hf11  1  0.89835887  0.09801758  0.63261858  1
  Hf  Hf12  1  0.49018195  0.49254416  0.12034300  1
  Hf  Hf13  1  0.49750584  0.29790278  0.86463739  1
  Hf  Hf14  1  0.30190010  0.89177770  0.87039167  1
  Hf  Hf15  1  0.91183622  0.51934515  0.37202947  1
  Hf  Hf16  1  0.79298572  0.60800817  0.76645767  1
  Hf  Hf17  1  0.08729695  0.69313446  0.36957719  1
  Hf  Hf18  1  0.90113263  0.51142189  0.63286504  1
  Hf  Hf19  1  0.39866909  0.59736772  0.75737668  1
  Hf  Hf20  1  0.51217952  0.11516265  0.13897352  1
  Hf  Hf21  1  -0.01031520  0.80308114  0.77030423  1
  Hf  Hf22  1  0.49985901  0.71066436  0.63169453  1
  Hf  Hf23  1  -0.03214551  0.40621432  0.00492208  1
  Hf  Hf24  1  0.00203569  0.40686194  0.51086560  1
  Hf  Hf25  1  0.19608764  0.79432736  0.23019389  1
  Hf  Hf26  1  0.60947584  -0.01594723  0.23843287  1
  Hf  Hf27  1  0.70807448  0.09385688  0.36991674  1
  Hf  Hf28  1  0.10964563  0.69876006  0.89023086  1
  Hf  Hf29  1  0.40063166  0.61466812  0.49377218  1
  Hf  Hf30  1  0.59563250  0.78894503  0.48649292  1
  Hf  Hf31  1  0.19396144  0.21185139  0.25075910  1
  Hf  Hf32  1  0.29642827  0.30672277  0.87825690  1
  Hf  Hf33  1  0.29465437  0.70762681  0.36193112  1
  Hf  Hf34  1  0.61225868  0.57855919  0.26028597  1
  Hf  Hf35  1  -0.00508675  0.80271541  0.24296050  1
  Hf  Hf36  1  0.19332780  0.19091472  0.50147694  1
  Hf  Hf37  1  0.59203395  0.37359467  0.00398922  1
  Hf  Hf38  1  0.81406633  0.59237435  -0.01423987  1
  Hf  Hf39  1  0.40126239  -0.00633961  0.02134476  1
  Zr  Zr40  1  -0.00481075  0.40667771  0.23442790  1
  Zr  Zr41  1  0.78812277  0.41129752  0.25574653  1
  Zr  Zr42  1  0.20833997  -0.01307502  0.49499025  1
  Zr  Zr43  1  0.70599966  0.49148441  0.11368097  1
  Zr  Zr44  1  0.50851724  0.50817897  0.62542741  1
  Zr  Zr45  1  0.00841978  0.00913057  0.75574209  1
  Zr  Zr46  1  -0.00154131  0.20046004  0.51594063  1
  Zr  Zr47  1  0.09655646  0.69778091  0.63913767  1
  Zr  Zr48  1  0.91731413  0.90925899  0.37629647  1
  Zr  Zr49  1  0.00027630  0.00257708  -0.02062539  1
  Zr  Zr50  1  0.69440369  0.68878240  0.62546543  1
  Zr  Zr51  1  0.09804605  0.30464558  0.37348615  1
  Zr  Zr52  1  0.91106902  0.11139493  0.11609843  1
  Zr  Zr53  1  0.69247753  0.29024142  0.86340808  1
  Zr  Zr54  1  0.01706468  -0.00287987  0.51668615  1
  Zr  Zr55  1  0.28747118  0.29967666  0.62094225  1
  Zr  Zr56  1  0.09684556  0.09855950  0.12657533  1
  Zr  Zr57  1  0.79538158  0.22241963  0.00845401  1
  Zr  Zr58  1  0.39241547  0.40345330  0.74610914  1
  Zr  Zr59  1  0.69421271  0.29530849  0.38081479  1
  Zr  Zr60  1  0.28834947  0.70987738  0.63357954  1
  Zr  Zr61  1  0.49647929  0.29237570  0.61636699  1
  Zr  Zr62  1  0.89303378  0.71282941  0.63489136  1
  Zr  Zr63  1  0.18732028  -0.01022800  0.25387876  1
  Zr  Zr64  1  0.69805859  0.29643509  0.62130346  1
  Zr  Zr65  1  0.60599652  -0.00670300  0.01679473  1
  Zr  Zr66  1  0.82193531  -0.00357692  0.23684672  1
  Zr  Zr67  1  0.48819972  0.28967540  0.38630462  1
  Zr  Zr68  1  0.51183011  0.10012324  0.88127454  1
  Zr  Zr69  1  0.80768653  0.61639459  0.49123139  1
  Zr  Zr70  1  0.20373916  -0.00028119  0.00365226  1
  Zr  Zr71  1  0.51231890  0.69542950  0.87689215  1
  Zr  Zr72  1  0.70304649  0.09156436  0.62365044  1
  Zr  Zr73  1  0.40992571  0.79628592  0.01795251  1
  Zr  Zr74  1  0.30200346  0.10615025  0.13737003  1
  Zr  Zr75  1  0.51293993  0.69418106  0.14080985  1
  Zr  Zr76  1  0.39571353  0.81866762  0.49633542  1
  Zr  Zr77  1  0.50315907  0.89525304  0.88015332  1
  Zr  Zr78  1  0.29249948  0.50538947  0.37189942  1
  Zr  Zr79  1  0.80102213  0.00224853  -0.00039868  1
  Ta  Ta80  1  0.19015490  0.40340929  -0.00432146  1
  Ta  Ta81  1  0.30672468  0.69533200  0.88546192  1
  Ta  Ta82  1  0.38989102  0.40948123  0.25287613  1
  Ta  Ta83  1  0.60943922  0.79538033  0.75281125  1
  Ta  Ta84  1  0.79438561  0.40686477  0.74678808  1
  Ta  Ta85  1  0.59298161  -0.01345061  0.49014168  1
  Ta  Ta86  1  0.10901866  0.89872786  0.87568134  1
  Ta  Ta87  1  0.80684889  -0.00024400  0.49638888  1
  Ta  Ta88  1  0.29537234  0.50221351  0.11354853  1
  Ta  Ta89  1  0.70354392  0.89511021  0.87557212  1
  Ta  Ta90  1  0.81029835  0.80389747  0.00227363  1
  Ta  Ta91  1  0.31060638  0.90649467  0.63706620  1
  Ta  Ta92  1  0.48774037  0.49617802  0.89122212  1
  Ta  Ta93  1  0.49615221  0.70028619  0.34826788  1
  Ta  Ta94  1  0.08644443  0.29766341  0.11288095  1
  Ta  Ta95  1  0.00978780  0.21210203  0.73801247  1
  Ta  Ta96  1  0.49634299  0.89862867  0.35443206  1
  Ta  Ta97  1  0.59540048  0.18820656  0.74367680  1
  Ta  Ta98  1  0.29977668  0.09697010  0.62768517  1
  Ta  Ta99  1  0.70156875  0.49818952  0.62343329  1
  Ta  Ta100  1  0.40425001  0.21905359  0.24635194  1
  Ta  Ta101  1  0.39456728  0.19299689  0.74821150  1
  Ta  Ta102  1  0.10008649  0.69471417  0.10399955  1
  Ta  Ta103  1  0.20881063  0.80397582  0.01431978  1
  Ta  Ta104  1  -0.00505578  0.79674741  0.49952865  1
  Ta  Ta105  1  0.79885516  0.40989633  0.49769635  1
  Ta  Ta106  1  0.60657237  -0.01183504  0.75100924  1
  Ta  Ta107  1  0.68780606  0.49435155  0.88072523  1
  Ta  Ta108  1  0.91587884  0.69527729  0.10796846  1
  Ta  Ta109  1  0.80008294  0.20642276  0.24293396  1
  Ta  Ta110  1  0.08827303  0.29267102  0.88326258  1
  Ta  Ta111  1  0.19405845  0.20363162  -0.00012709  1
  Ta  Ta112  1  0.59033869  0.17819884  0.49580628  1
  Ta  Ta113  1  0.71508257  0.69421601  0.12504062  1
  Ta  Ta114  1  -0.00024153  0.59188338  0.77864865  1
  Ta  Ta115  1  0.09171882  0.50855627  0.10659149  1
  Ta  Ta116  1  0.28953229  0.51107213  0.62294616  1
  Ta  Ta117  1  0.19122222  0.59118266  0.23510840  1
  Ta  Ta118  1  0.29470216  0.30399101  0.38125041  1
  Ta  Ta119  1  0.19436714  0.60063429  0.50057104  1
  Ti  Ti120  1  0.68029144  0.29011879  0.13673319  1
  Ti  Ti121  1  0.80135647  0.19690436  0.74760661  1
  Ti  Ti122  1  -0.00184542  0.40428414  0.75039414  1
  Ti  Ti123  1  0.19900039  0.59613232  0.76622706  1
  Ti  Ti124  1  0.19257420  0.40506131  0.50592987  1
  Ti  Ti125  1  0.58323661  0.38361581  0.25727957  1
  Ti  Ti126  1  0.80592558  -0.00995885  0.76238044  1
  Ti  Ti127  1  0.19274522  0.19781610  0.74824619  1
  Ti  Ti128  1  0.89314541  0.30835899  0.62930000  1
  Ti  Ti129  1  0.40781904  -0.00076186  0.75192733  1
  Ti  Ti130  1  0.10318566  0.50394466  0.63209221  1
  Ti  Ti131  1  -0.00919219  0.19299880  0.25245382  1
  Ti  Ti132  1  0.89603777  0.89936729  0.62612262  1
  Ti  Ti133  1  0.80044356  0.80035114  0.23253410  1
  Ti  Ti134  1  0.82432403  0.60888566  0.24492510  1
  Ti  Ti135  1  0.40057622  0.81069371  0.23216907  1
  Ti  Ti136  1  0.79998435  0.19836016  0.49996393  1
  Ti  Ti137  1  0.19563047  0.40177157  0.23681248  1
  Ti  Ti138  1  0.50297028  0.09374707  0.35959068  1
  Ti  Ti139  1  0.70435426  0.09791228  0.87146259  1
  Ti  Ti140  1  0.90763154  0.11460216  0.87060275  1
  Ti  Ti141  1  0.71677090  0.69579468  0.36006574  1
  Ti  Ti142  1  0.70444470  0.10431710  0.13050879  1
  Ti  Ti143  1  0.11411959  0.89208673  0.64085809  1
  Ti  Ti144  1  0.30621903  0.68555844  0.12392864  1
  Ti  Ti145  1  0.60152942  0.60110643  0.00243280  1
  Ti  Ti146  1  0.40289915  0.80458012  0.75103056  1
  Ti  Ti147  1  0.29922067  0.31327870  0.11883423  1
  Ti  Ti148  1  0.70251933  0.70539820  0.88282182  1
  Ti  Ti149  1  0.30364539  0.90171724  0.36144720  1
  Ti  Ti150  1  0.61363747  0.79997648  0.01383726  1
  Ti  Ti151  1  0.59754590  0.41002101  0.74928932  1
  Ti  Ti152  1  0.40694416  0.00772985  0.49337669  1
  Ti  Ti153  1  0.07936422  0.89578768  0.11212324  1
  Ti  Ti154  1  0.18924533  0.79992926  0.49721705  1
  Ti  Ti155  1  0.10362725  0.49869631  0.37154210  1
  Ti  Ti156  1  0.00755847  0.60495991  0.50436337  1
  Ti  Ti157  1  0.60345105  0.40009119  0.49254395  1
  Ti  Ti158  1  0.07819628  0.08676036  0.36994250  1
  Ti  Ti159  1  0.20419924  0.00290037  0.75266044  1
  Mo  Mo160  1  0.11053229  0.88571573  0.37815772  1
  Mo  Mo161  1  0.39475072  0.18776163  0.49926295  1
  Mo  Mo162  1  0.80679968  0.80962330  0.49627628  1
  Mo  Mo163  1  0.50253233  0.89952538  0.62966174  1
  Mo  Mo164  1  0.10648009  0.11135980  0.86853749  1
  Mo  Mo165  1  0.00337155  0.59740854  -0.01884520  1
  Mo  Mo166  1  0.09553299  0.30921216  0.63135936  1
  Mo  Mo167  1  0.70750395  0.49543380  0.37583070  1
  Mo  Mo168  1  0.79124252  0.81155038  0.75930415  1
  Mo  Mo169  1  0.39233141  0.59972939  0.24908838  1
  Mo  Mo170  1  0.20949589  0.60030180  0.00378812  1
  Mo  Mo171  1  0.89536411  0.71366991  0.36915203  1
  Mo  Mo172  1  0.60550805  0.19806308  0.25693490  1
  Mo  Mo173  1  0.29637121  0.89481240  0.13222270  1
  Mo  Mo174  1  0.60509423  0.19102714  0.00379860  1
  Mo  Mo175  1  0.89825627  0.70615500  0.88397840  1
  Mo  Mo176  1  0.00816962  0.60570105  0.23884424  1
  Mo  Mo177  1  0.40492606  0.59831829  -0.00065566  1
  Mo  Mo178  1  0.89250697  0.49427242  0.86274706  1
  Mo  Mo179  1  0.78620243  0.40229095  -0.00067967  1
  Mo  Mo180  1  0.00022400  0.80235317  -0.01334279  1
  Mo  Mo181  1  0.00377689  0.00054707  0.24911247  1
  Mo  Mo182  1  0.60171852  0.58854630  0.76176343  1
  Mo  Mo183  1  0.40121877  -0.00015381  0.24640931  1
  Mo  Mo184  1  0.49297152  0.30515055  0.13656011  1
  Mo  Mo185  1  0.90631621  0.89260861  0.11664745  1
  Mo  Mo186  1  0.49571868  0.49461302  0.36625707  1
  Mo  Mo187  1  0.70708461  0.88286032  0.12318402  1
  Mo  Mo188  1  0.50375589  0.89728477  0.14131671  1
  Mo  Mo189  1  0.89844781  0.51578524  0.12649106  1
  Mo  Mo190  1  0.00272613  0.20848037  -0.00489207  1
  Mo  Mo191  1  0.89014165  0.30683204  0.13526113  1
  Mo  Mo192  1  0.89443020  0.90481584  0.87220214  1
  Mo  Mo193  1  0.11521840  0.10004622  0.63715110  1
  Mo  Mo194  1  0.61120976  0.78856922  0.25274023  1
  Mo  Mo195  1  0.09570076  0.49293893  0.88757791  1
  Mo  Mo196  1  0.38907790  0.40092516  0.00083736  1
  Mo  Mo197  1  0.90008379  0.10702102  0.37772720  1
  Mo  Mo198  1  0.20308631  0.80618137  0.75749429  1
  Mo  Mo199  1  0.29337149  0.50955523  0.89022370  1
