# generated using pymatgen
data_HfZrTaTiMo
_symmetry_space_group_name_H-M   'P 1'
_cell_length_a   15.21854473
_cell_length_b   15.21678923
_cell_length_c   16.84772322
_cell_angle_alpha   90.03635283
_cell_angle_beta   90.04036404
_cell_angle_gamma   90.10161556
_symmetry_Int_Tables_number   1
_chemical_formula_structural   HfZrTaTiMo
_chemical_formula_sum   'Hf40 Zr40 Ta40 Ti40 Mo40'
_cell_volume   3901.54383856
_cell_formula_units_Z   40
loop_
 _symmetry_equiv_pos_site_id
 _symmetry_equiv_pos_as_xyz
  1  'x, y, z'
loop_
 _atom_site_type_symbol
 _atom_site_label
 _atom_site_symmetry_multiplicity
 _atom_site_fract_x
 _atom_site_fract_y
 _atom_site_fract_z
 _atom_site_occupancy
  Hf  Hf0  1  0.40758041  -0.00151830  0.00219650  1
  Hf  Hf1  1  0.00921846  0.81615325  0.75109441  1
  Hf  Hf2  1  0.59052730  0.59505436  0.23497691  1
  Hf  Hf3  1  0.60736768  0.00968570  0.74595716  1
  Hf  Hf4  1  0.69745134  0.69416679  0.36090410  1
  Hf  Hf5  1  0.60176970  0.61670704  0.77292580  1
  Hf  Hf6  1  0.90311616  0.90393285  0.62582782  1
  Hf  Hf7  1  0.30002754  0.49603044  0.61757898  1
  Hf  Hf8  1  0.40786094  0.39452763  0.49289422  1
  Hf  Hf9  1  0.29579180  0.08426798  0.60880002  1
  Hf  Hf10  1  0.38882759  0.79941865  0.25047563  1
  Hf  Hf11  1  0.88944761  0.69787686  0.63661695  1
  Hf  Hf12  1  0.80929300  0.01508668  0.00893413  1
  Hf  Hf13  1  0.11008406  0.09318357  0.13578078  1
  Hf  Hf14  1  0.00415743  0.02968226  0.74160632  1
  Hf  Hf15  1  0.70768552  0.10222302  0.60957198  1
  Hf  Hf16  1  0.10101020  0.67995901  0.37166677  1
  Hf  Hf17  1  0.19398040  0.79937445  0.49075074  1
  Hf  Hf18  1  0.69713937  0.31175146  0.13716429  1
  Hf  Hf19  1  0.39084985  0.57330862  -0.00826393  1
  Hf  Hf20  1  0.49684888  0.91391380  0.36779586  1
  Hf  Hf21  1  0.69433779  0.89176510  0.36512541  1
  Hf  Hf22  1  0.28603609  0.09073035  0.88740019  1
  Hf  Hf23  1  0.80510605  0.40455472  0.49502755  1
  Hf  Hf24  1  0.01074996  0.20150218  0.26571800  1
  Hf  Hf25  1  -0.00712280  0.19661189  0.01300019  1
  Hf  Hf26  1  0.80803693  0.19202224  0.74593239  1
  Hf  Hf27  1  0.22368179  0.60150658  0.74391261  1
  Hf  Hf28  1  0.78954277  0.39447627  -0.01156042  1
  Hf  Hf29  1  0.90194175  0.50324342  0.36751079  1
  Hf  Hf30  1  0.59360873  0.80698549  -0.01186377  1
  Hf  Hf31  1  0.40353145  0.02016812  0.24016538  1
  Hf  Hf32  1  0.39178940  0.77353314  0.73707049  1
  Hf  Hf33  1  0.00040265  -0.00518653  0.26702361  1
  Hf  Hf34  1  -0.00867115  0.79427266  0.49354713  1
  Hf  Hf35  1  0.11020757  0.70829460  0.63212748  1
  Hf  Hf36  1  0.29880075  0.28819479  0.61715352  1
  Hf  Hf37  1  0.11433568  0.71028513  0.86730488  1
  Hf  Hf38  1  0.49748648  0.11249273  0.62117158  1
  Hf  Hf39  1  0.28787129  0.89043585  0.11273255  1
  Zr  Zr40  1  0.81693969  0.79583361  0.24727684  1
  Zr  Zr41  1  0.48579245  0.69407530  0.11198797  1
  Zr  Zr42  1  0.18861533  0.18890558  0.74742343  1
  Zr  Zr43  1  0.00394857  0.39838764  0.00744318  1
  Zr  Zr44  1  0.90688392  0.91281096  0.87007922  1
  Zr  Zr45  1  0.49853305  0.10494245  0.87196500  1
  Zr  Zr46  1  0.79223870  0.39470611  0.76625137  1
  Zr  Zr47  1  0.58561303  0.40494739  -0.01080805  1
  Zr  Zr48  1  0.50213638  0.90467851  0.13126681  1
  Zr  Zr49  1  0.00566359  0.00202902  0.01147701  1
  Zr  Zr50  1  0.58904094  0.20292290  0.01376301  1
  Zr  Zr51  1  0.19330944  -0.02051966  0.74175269  1
  Zr  Zr52  1  0.41659546  0.79322869  0.50263691  1
  Zr  Zr53  1  0.91533414  0.49719732  0.87773887  1
  Zr  Zr54  1  0.58006785  0.19058983  0.24446821  1
  Zr  Zr55  1  0.81326857  -0.00868483  0.48462877  1
  Zr  Zr56  1  0.68593763  0.09271790  0.37411808  1
  Zr  Zr57  1  0.02551422  -0.00405543  0.48355596  1
  Zr  Zr58  1  0.30521165  0.87005947  0.88693208  1
  Zr  Zr59  1  0.81209147  0.20409904  0.26507135  1
  Zr  Zr60  1  0.68959748  0.30028931  0.61892144  1
  Zr  Zr61  1  0.69473583  0.88202009  0.62382391  1
  Zr  Zr62  1  0.28791308  0.50678836  0.38250045  1
  Zr  Zr63  1  0.28643564  0.29690018  0.38329159  1
  Zr  Zr64  1  0.70785619  0.90308513  0.13851428  1
  Zr  Zr65  1  -0.00775166  0.39959582  0.24591110  1
  Zr  Zr66  1  0.80595881  0.60017033  0.50153425  1
  Zr  Zr67  1  0.70773174  0.51332947  0.64003886  1
  Zr  Zr68  1  0.61081166  0.00805698  0.00244792  1
  Zr  Zr69  1  0.68994445  0.31074674  0.36575385  1
  Zr  Zr70  1  0.39320819  0.39956979  0.75870174  1
  Zr  Zr71  1  0.32157572  0.09590703  0.39412264  1
  Zr  Zr72  1  0.80227182  0.80963837  -0.00854291  1
  Zr  Zr73  1  0.40154691  -0.01368463  0.75253021  1
  Zr  Zr74  1  0.60083889  0.62678108  0.50526070  1
  Zr  Zr75  1  0.50011076  0.51599985  0.63893440  1
  Zr  Zr76  1  0.91033840  0.69988885  0.11048630  1
  Zr  Zr77  1  0.11251091  0.50278760  0.87568384  1
  Zr  Zr78  1  0.89785947  0.30369108  0.62129957  1
  Zr  Zr79  1  0.59953315  0.41418972  0.49757024  1
  Ta  Ta80  1  0.19909191  0.39943507  0.24511185  1
  Ta  Ta81  1  0.29014447  0.29737775  0.88039189  1
  Ta  Ta82  1  0.00807663  0.58688113  0.51246314  1
  Ta  Ta83  1  0.09748415  0.29778624  0.87777128  1
  Ta  Ta84  1  0.21217344  0.40530246  0.00568083  1
  Ta  Ta85  1  0.30882001  0.30520441  0.12220370  1
  Ta  Ta86  1  0.38647370  0.59719413  0.24793187  1
  Ta  Ta87  1  0.39767658  0.39999164  0.25836542  1
  Ta  Ta88  1  0.11403218  0.70318036  0.12959145  1
  Ta  Ta89  1  0.89494078  0.29607578  0.12893333  1
  Ta  Ta90  1  0.69861698  0.50465633  0.36035067  1
  Ta  Ta91  1  0.91337894  0.69973946  0.87913206  1
  Ta  Ta92  1  0.79049960  0.78987222  0.49458435  1
  Ta  Ta93  1  0.80243314  0.60519723  0.77413396  1
  Ta  Ta94  1  0.80104986  0.59284109  0.23644623  1
  Ta  Ta95  1  0.80735243  0.20381378  0.47982465  1
  Ta  Ta96  1  0.20022552  0.61091867  0.00208809  1
  Ta  Ta97  1  0.60080892  0.59824695  -0.01610822  1
  Ta  Ta98  1  0.78914222  0.79551085  0.76664635  1
  Ta  Ta99  1  0.00099123  0.60347304  0.24012780  1
  Ta  Ta100  1  0.70930644  0.11243226  0.87334656  1
  Ta  Ta101  1  0.69921640  0.69500445  0.11318678  1
  Ta  Ta102  1  0.11343677  0.91177899  0.88675933  1
  Ta  Ta103  1  0.60163253  0.21458218  0.75473054  1
  Ta  Ta104  1  0.49763372  0.70152182  0.36377628  1
  Ta  Ta105  1  0.11068006  0.30053835  0.12852385  1
  Ta  Ta106  1  0.79596261  0.59923517  -0.01467464  1
  Ta  Ta107  1  0.49937856  0.50910301  0.36950586  1
  Ta  Ta108  1  0.47815251  0.70682740  0.88600100  1
  Ta  Ta109  1  0.01611261  0.79917717  -0.00234714  1
  Ta  Ta110  1  0.00381453  0.20681840  0.47359929  1
  Ta  Ta111  1  0.89124416  0.49922567  0.11560857  1
  Ta  Ta112  1  0.91671940  0.11246259  0.60463753  1
  Ta  Ta113  1  0.58749637  -0.00547978  0.50276724  1
  Ta  Ta114  1  0.08842118  0.28904564  0.62119537  1
  Ta  Ta115  1  0.19064876  0.39326634  0.74301876  1
  Ta  Ta116  1  0.58993316  0.81004056  0.76830220  1
  Ta  Ta117  1  0.29063060  0.88241096  0.61441444  1
  Ta  Ta118  1  0.09963203  0.50929118  0.12328833  1
  Ta  Ta119  1  0.79467288  0.20129313  0.00760077  1
  Ti  Ti120  1  0.69788525  0.91507967  0.87098967  1
  Ti  Ti121  1  0.90958770  0.49721619  0.63619929  1
  Ti  Ti122  1  0.39840649  0.21284985  0.25006873  1
  Ti  Ti123  1  0.20014973  0.78948337  0.25771790  1
  Ti  Ti124  1  0.69498946  0.50399358  0.11907909  1
  Ti  Ti125  1  0.21263673  0.19929908  0.24819402  1
  Ti  Ti126  1  0.00732030  0.59551830  0.74355324  1
  Ti  Ti127  1  0.90094257  0.69433870  0.37080931  1
  Ti  Ti128  1  0.29288986  0.50422356  0.13197143  1
  Ti  Ti129  1  0.19631877  0.59682324  0.51252519  1
  Ti  Ti130  1  0.18047844  0.39932980  0.50899185  1
  Ti  Ti131  1  0.18719377  0.19282074  0.50079775  1
  Ti  Ti132  1  0.48948464  0.29737096  0.87629479  1
  Ti  Ti133  1  0.10092282  0.89312428  0.12974234  1
  Ti  Ti134  1  0.09415319  0.10608091  0.88398159  1
  Ti  Ti135  1  0.90272784  0.10696044  0.87520625  1
  Ti  Ti136  1  0.49759499  0.89822143  0.62368805  1
  Ti  Ti137  1  0.30237400  0.69468689  0.37799146  1
  Ti  Ti138  1  0.48602889  0.48058064  0.12370704  1
  Ti  Ti139  1  0.30423775  0.10874891  0.11259012  1
  Ti  Ti140  1  0.00824570  0.79978606  0.25799907  1
  Ti  Ti141  1  0.12457899  0.09839086  0.36955180  1
  Ti  Ti142  1  0.20729135  -0.01359339  0.25602599  1
  Ti  Ti143  1  0.90014692  0.28843009  0.87697665  1
  Ti  Ti144  1  0.00425509  0.39085649  0.74987571  1
  Ti  Ti145  1  0.19678747  0.20397200  0.00532282  1
  Ti  Ti146  1  0.90960633  0.90833173  0.13040567  1
  Ti  Ti147  1  0.58462999  0.40015287  0.24931280  1
  Ti  Ti148  1  0.70671628  0.10136950  0.14141402  1
  Ti  Ti149  1  0.40426507  0.60250977  0.50020026  1
  Ti  Ti150  1  0.39453025  0.19768569  0.75187622  1
  Ti  Ti151  1  0.59592408  0.79498956  0.23938439  1
  Ti  Ti152  1  0.00168935  0.39785956  0.49443425  1
  Ti  Ti153  1  0.58195352  0.20985189  0.48780605  1
  Ti  Ti154  1  0.81093366  0.00349305  0.26127492  1
  Ti  Ti155  1  0.80359725  0.00045110  0.74488024  1
  Ti  Ti156  1  0.29794242  0.90288681  0.38539488  1
  Ti  Ti157  1  0.49735426  0.30670485  0.63258029  1
  Ti  Ti158  1  0.59797729  0.40670469  0.77483461  1
  Ti  Ti159  1  0.09946670  0.49105408  0.37165143  1
  Mo  Mo160  1  0.60188443  0.00004629  0.24546112  1
  Mo  Mo161  1  0.40485484  -0.00930801  0.50922931  1
  Mo  Mo162  1  0.29512317  0.68314709  0.87798492  1
  Mo  Mo163  1  0.49946927  0.89996586  0.87202480  1
  Mo  Mo164  1  0.48868533  0.11088654  0.12134086  1
  Mo  Mo165  1  0.00029150  0.20999195  0.75390039  1
  Mo  Mo166  1  0.40765494  0.59435684  0.76068009  1
  Mo  Mo167  1  0.09801785  0.10683218  0.61106670  1
  Mo  Mo168  1  0.60478477  0.80589911  0.49355065  1
  Mo  Mo169  1  0.29231456  0.69015609  0.12974358  1
  Mo  Mo170  1  0.50021092  0.10597519  0.38603285  1
  Mo  Mo171  1  0.00516556  0.60716677  0.00596913  1
  Mo  Mo172  1  0.52095290  0.71310869  0.63234870  1
  Mo  Mo173  1  0.10827093  0.30752812  0.37567839  1
  Mo  Mo174  1  0.09428401  0.49021877  0.62820979  1
  Mo  Mo175  1  0.19788335  0.00676588  0.00380849  1
  Mo  Mo176  1  0.20315795  -0.00826249  0.49562098  1
  Mo  Mo177  1  0.69979451  0.70670915  0.63893635  1
  Mo  Mo178  1  0.69290268  0.28856420  0.87655519  1
  Mo  Mo179  1  0.89473940  0.10183968  0.13702284  1
  Mo  Mo180  1  0.49293108  0.50113497  0.86819598  1
  Mo  Mo181  1  0.19577283  0.59417359  0.24962284  1
  Mo  Mo182  1  0.90151855  0.88513297  0.37146305  1
  Mo  Mo183  1  0.90237733  0.30965368  0.37580095  1
  Mo  Mo184  1  0.90487918  0.09742058  0.38424305  1
  Mo  Mo185  1  0.31255482  0.68821651  0.61066367  1
  Mo  Mo186  1  0.20345466  0.80005915  0.74221967  1
  Mo  Mo187  1  0.69941990  0.50141019  0.87465964  1
  Mo  Mo188  1  0.39360039  0.38676815  -0.00565327  1
  Mo  Mo189  1  0.48820440  0.30750444  0.12954980  1
  Mo  Mo190  1  0.79232538  0.41135070  0.24076279  1
  Mo  Mo191  1  0.70262232  0.70910754  0.88726023  1
  Mo  Mo192  1  0.11316714  0.88902646  0.35966442  1
  Mo  Mo193  1  0.10264625  0.90574890  0.62016043  1
  Mo  Mo194  1  0.29078096  0.48744657  0.87334412  1
  Mo  Mo195  1  0.39325389  0.78476015  0.00460274  1
  Mo  Mo196  1  0.19559674  0.79903162  0.00531545  1
  Mo  Mo197  1  0.40532196  0.20396942  0.50826843  1
  Mo  Mo198  1  0.38917549  0.20893226  -0.00082992  1
  Mo  Mo199  1  0.49012881  0.30235456  0.36973991  1
