# generated using pymatgen
data_HfZrTaTiMo
_symmetry_space_group_name_H-M   'P 1'
_cell_length_a   15.21896010
_cell_length_b   15.22232031
_cell_length_c   16.80506809
_cell_angle_alpha   89.95859748
_cell_angle_beta   89.99899217
_cell_angle_gamma   90.01672455
_symmetry_Int_Tables_number   1
_chemical_formula_structural   HfZrTaTiMo
_chemical_formula_sum   'Hf40 Zr40 Ta40 Ti40 Mo40'
_cell_volume   3893.19340762
_cell_formula_units_Z   40
loop_
 _symmetry_equiv_pos_site_id
 _symmetry_equiv_pos_as_xyz
  1  'x, y, z'
loop_
 _atom_site_type_symbol
 _atom_site_label
 _atom_site_symmetry_multiplicity
 _atom_site_fract_x
 _atom_site_fract_y
 _atom_site_fract_z
 _atom_site_occupancy
  Hf  Hf0  1  0.39029481  0.00859514  0.75341610  1
  Hf  Hf1  1  0.39472129  0.81016773  0.00028211  1
  Hf  Hf2  1  0.81422121  0.40113952  0.01569886  1
  Hf  Hf3  1  0.80629920  0.59910764  0.00280294  1
  Hf  Hf4  1  0.20869006  0.58314327  0.25079707  1
  Hf  Hf5  1  0.38104054  0.22667300  0.00452737  1
  Hf  Hf6  1  0.09750316  0.49677652  0.38092773  1
  Hf  Hf7  1  0.00135894  0.58779338  -0.01153557  1
  Hf  Hf8  1  0.09424508  0.68385538  0.12893966  1
  Hf  Hf9  1  0.29423012  0.50956081  0.61909230  1
  Hf  Hf10  1  0.51277761  0.31458273  0.38397347  1
  Hf  Hf11  1  0.41642289  0.59479882  -0.01878212  1
  Hf  Hf12  1  0.69464196  0.08623438  0.12023419  1
  Hf  Hf13  1  -0.01110800  0.39639906  0.50116900  1
  Hf  Hf14  1  0.51633781  0.51983184  0.62064348  1
  Hf  Hf15  1  0.10093657  0.68569907  0.37429714  1
  Hf  Hf16  1  0.50633329  0.70891621  0.12418073  1
  Hf  Hf17  1  0.29244806  0.90558553  0.36104177  1
  Hf  Hf18  1  0.00696810  0.58355421  0.76028844  1
  Hf  Hf19  1  -0.01229595  0.79921590  0.00692614  1
  Hf  Hf20  1  0.40429062  0.20264191  0.73340032  1
  Hf  Hf21  1  0.10661699  0.29484909  0.86984638  1
  Hf  Hf22  1  0.61701389  0.20163240  0.49955347  1
  Hf  Hf23  1  0.89369380  0.30268196  0.35955172  1
  Hf  Hf24  1  0.49473287  0.90956053  0.13335693  1
  Hf  Hf25  1  0.90476150  0.10320041  0.62880537  1
  Hf  Hf26  1  0.90002887  0.47101220  0.64199550  1
  Hf  Hf27  1  0.19803689  0.60591763  0.75194751  1
  Hf  Hf28  1  0.30414493  0.47867787  0.86485212  1
  Hf  Hf29  1  0.51562830  0.51159027  0.12522190  1
  Hf  Hf30  1  0.30405759  0.70961310  0.37101133  1
  Hf  Hf31  1  0.59869880  0.19664482  0.24418072  1
  Hf  Hf32  1  0.60200285  0.21036226  0.75313118  1
  Hf  Hf33  1  0.29012201  0.10980393  0.13618202  1
  Hf  Hf34  1  0.60193497  0.41060973  -0.00400193  1
  Hf  Hf35  1  0.30448291  0.29672809  0.38978314  1
  Hf  Hf36  1  0.81313856  0.20998532  0.75940976  1
  Hf  Hf37  1  0.89273303  0.90433329  0.63952467  1
  Hf  Hf38  1  -0.01731613  -0.00334970  0.27031509  1
  Hf  Hf39  1  0.19329832  0.80940092  0.01101257  1
  Zr  Zr40  1  0.30701846  0.69989215  0.13496254  1
  Zr  Zr41  1  0.10524037  0.29890493  0.36551151  1
  Zr  Zr42  1  0.59357385  0.78384879  0.49902514  1
  Zr  Zr43  1  0.30486516  0.71256742  0.86954658  1
  Zr  Zr44  1  -0.01029215  0.19575803  0.24791971  1
  Zr  Zr45  1  0.09787437  0.71990487  0.87187943  1
  Zr  Zr46  1  -0.01642616  0.78553405  0.23981117  1
  Zr  Zr47  1  0.39628907  0.22084857  0.24754466  1
  Zr  Zr48  1  0.38983367  0.00880283  -0.00295920  1
  Zr  Zr49  1  0.91446129  0.09651618  0.87284297  1
  Zr  Zr50  1  -0.00994568  -0.00551417  0.48511919  1
  Zr  Zr51  1  0.61605296  0.59490135  0.26061601  1
  Zr  Zr52  1  0.41115329  0.40565672  0.51208096  1
  Zr  Zr53  1  0.89483491  0.70188049  0.37515945  1
  Zr  Zr54  1  0.80739305  0.59295268  0.50745131  1
  Zr  Zr55  1  0.70215856  0.49602307  0.62641101  1
  Zr  Zr56  1  0.49098010  0.11228837  0.88204467  1
  Zr  Zr57  1  0.39725472  0.81210631  0.50854489  1
  Zr  Zr58  1  0.00207867  -0.00748553  0.00075368  1
  Zr  Zr59  1  0.79176653  0.80030345  -0.00931488  1
  Zr  Zr60  1  0.41439054  0.60415403  0.75372433  1
  Zr  Zr61  1  0.20272588  0.58986971  -0.01193479  1
  Zr  Zr62  1  0.28775634  0.91059606  0.63286481  1
  Zr  Zr63  1  0.70028831  0.09673891  0.88070593  1
  Zr  Zr64  1  0.28734663  0.29819913  0.62141496  1
  Zr  Zr65  1  0.09720134  0.88295831  0.36565401  1
  Zr  Zr66  1  0.59274218  -0.00083584  0.48697109  1
  Zr  Zr67  1  0.70365926  0.09782100  0.63106953  1
  Zr  Zr68  1  0.70457197  0.88860838  0.36819017  1
  Zr  Zr69  1  0.59376046  0.20676112  0.00610230  1
  Zr  Zr70  1  0.49808015  0.89775487  0.86965649  1
  Zr  Zr71  1  0.39426839  0.01366449  0.49626459  1
  Zr  Zr72  1  0.89470312  0.50079247  0.36583067  1
  Zr  Zr73  1  0.09813609  0.08714962  0.13740262  1
  Zr  Zr74  1  -0.00478730  0.78660151  0.51117178  1
  Zr  Zr75  1  0.19794442  -0.00175188  -0.00973203  1
  Zr  Zr76  1  0.69704135  0.89709677  0.62916664  1
  Zr  Zr77  1  0.69018957  0.89331417  0.13386827  1
  Zr  Zr78  1  0.30180397  0.50474327  0.39342142  1
  Zr  Zr79  1  0.31887921  0.48604341  0.12224965  1
  Ta  Ta80  1  0.39844821  0.01628905  0.25971321  1
  Ta  Ta81  1  0.11856583  0.48595818  0.12616212  1
  Ta  Ta82  1  0.90249058  0.68550342  0.63583901  1
  Ta  Ta83  1  0.80686946  0.20045789  0.00534012  1
  Ta  Ta84  1  0.61144360  0.60977950  -0.01796183  1
  Ta  Ta85  1  0.59026400  0.00261581  0.26574982  1
  Ta  Ta86  1  0.41470077  0.62205877  0.50360175  1
  Ta  Ta87  1  0.81529209  0.59759482  0.22818003  1
  Ta  Ta88  1  0.49043692  0.31889582  0.87196431  1
  Ta  Ta89  1  0.60607436  0.40883026  0.75961402  1
  Ta  Ta90  1  0.71873686  0.30408574  0.63119359  1
  Ta  Ta91  1  0.12041456  0.29188944  0.13944702  1
  Ta  Ta92  1  0.88807192  0.09768198  0.12440336  1
  Ta  Ta93  1  0.90423068  0.89372157  0.85491459  1
  Ta  Ta94  1  0.41057837  0.40094976  0.73394811  1
  Ta  Ta95  1  0.19081605  0.00206560  0.49024053  1
  Ta  Ta96  1  0.01580956  0.39290615  0.01333930  1
  Ta  Ta97  1  0.40217758  0.80065169  0.73872191  1
  Ta  Ta98  1  -0.00776126  0.19469299  0.48893731  1
  Ta  Ta99  1  0.19440990  0.79665165  0.51003982  1
  Ta  Ta100  1  0.09465375  0.90527210  0.62822896  1
  Ta  Ta101  1  0.88670013  0.90864049  0.13183946  1
  Ta  Ta102  1  0.79713287  0.01099105  0.48375668  1
  Ta  Ta103  1  0.00220975  0.20336770  0.01369853  1
  Ta  Ta104  1  0.29178354  0.90715613  0.15152348  1
  Ta  Ta105  1  0.17560791  0.01296021  0.75856733  1
  Ta  Ta106  1  0.69708135  0.69114868  0.12215714  1
  Ta  Ta107  1  0.79815756  0.59417723  0.75528231  1
  Ta  Ta108  1  0.60482238  0.39869859  0.24450274  1
  Ta  Ta109  1  0.79533551  0.78708962  0.74956839  1
  Ta  Ta110  1  0.21303595  0.38324347  -0.00262631  1
  Ta  Ta111  1  0.50141723  0.91076274  0.63359398  1
  Ta  Ta112  1  0.52442561  0.30915171  0.62030857  1
  Ta  Ta113  1  0.00258447  0.40685537  0.23181946  1
  Ta  Ta114  1  0.70968009  0.29113551  0.35993225  1
  Ta  Ta115  1  0.08204252  0.29510156  0.62559252  1
  Ta  Ta116  1  0.80077088  0.80278725  0.50774818  1
  Ta  Ta117  1  0.80112845  -0.00786426  -0.00641362  1
  Ta  Ta118  1  0.59428627  0.00625098  0.75035629  1
  Ta  Ta119  1  0.91083615  0.30148711  0.88424109  1
  Ti  Ti120  1  0.48792426  0.31788612  0.12443284  1
  Ti  Ti121  1  0.79527751  0.37534173  0.49827646  1
  Ti  Ti122  1  0.29619663  0.70295191  0.62555468  1
  Ti  Ti123  1  0.70767497  0.30574648  0.88172350  1
  Ti  Ti124  1  0.01013929  0.79580659  0.73972680  1
  Ti  Ti125  1  0.71134545  0.49957213  0.87317279  1
  Ti  Ti126  1  0.29999665  0.29524707  0.85316656  1
  Ti  Ti127  1  0.49045501  0.11438935  0.37477126  1
  Ti  Ti128  1  0.70309777  0.68573856  0.38082942  1
  Ti  Ti129  1  0.28714312  0.10245044  0.62527396  1
  Ti  Ti130  1  0.60010775  0.79585164  -0.01294331  1
  Ti  Ti131  1  0.17922633  0.40316133  0.73966242  1
  Ti  Ti132  1  0.60674881  0.61065385  0.76887092  1
  Ti  Ti133  1  0.70276738  0.48169809  0.37980094  1
  Ti  Ti134  1  0.27965042  0.89750497  0.85822454  1
  Ti  Ti135  1  0.28073713  0.11531826  0.86677427  1
  Ti  Ti136  1  0.51392190  0.51157233  0.38887534  1
  Ti  Ti137  1  0.19155526  0.18999229  0.49434172  1
  Ti  Ti138  1  0.59598144  0.79310594  0.75058465  1
  Ti  Ti139  1  0.59197788  0.79008599  0.26022090  1
  Ti  Ti140  1  0.19111044  0.19770699  0.00183344  1
  Ti  Ti141  1  0.40948785  0.19744301  0.51723238  1
  Ti  Ti142  1  0.90608199  0.48131112  0.86793692  1
  Ti  Ti143  1  0.10011615  0.09845332  0.61868505  1
  Ti  Ti144  1  0.41760754  0.60882886  0.26319431  1
  Ti  Ti145  1  0.59851500  -0.00951448  -0.00581628  1
  Ti  Ti146  1  0.49321732  0.10255500  0.12277269  1
  Ti  Ti147  1  0.10014072  0.89613086  0.14677207  1
  Ti  Ti148  1  0.79178189  0.79191911  0.24463982  1
  Ti  Ti149  1  0.09330511  0.51339926  0.61254617  1
  Ti  Ti150  1  0.79972318  0.40253129  0.22536674  1
  Ti  Ti151  1  0.70366641  0.89855250  0.85947264  1
  Ti  Ti152  1  0.18927449  0.39843997  0.50894104  1
  Ti  Ti153  1  0.40474681  0.41517886  0.26178866  1
  Ti  Ti154  1  0.01891924  0.18995223  0.75002714  1
  Ti  Ti155  1  0.48849180  0.88953890  0.36504553  1
  Ti  Ti156  1  0.70219260  0.29726305  0.12598468  1
  Ti  Ti157  1  0.79148790  0.01650781  0.26513862  1
  Ti  Ti158  1  0.89565956  0.69654596  0.86240795  1
  Ti  Ti159  1  0.69307800  0.69184690  0.62609517  1
  Mo  Mo160  1  0.29626472  0.10791807  0.37746200  1
  Mo  Mo161  1  0.19863711  0.80646983  0.73542526  1
  Mo  Mo162  1  0.70378386  0.49840371  0.12321531  1
  Mo  Mo163  1  0.51080766  0.49867535  0.86697381  1
  Mo  Mo164  1  0.40653050  0.80586049  0.24975543  1
  Mo  Mo165  1  0.80823340  0.19939634  0.49628920  1
  Mo  Mo166  1  0.19823733  0.79505466  0.23939375  1
  Mo  Mo167  1  0.50652851  0.71111279  0.63119916  1
  Mo  Mo168  1  0.10019015  0.10706597  0.87958001  1
  Mo  Mo169  1  0.20217478  0.19239996  0.26680747  1
  Mo  Mo170  1  0.49940577  0.10368460  0.62588812  1
  Mo  Mo171  1  0.19300357  0.00713326  0.26407899  1
  Mo  Mo172  1  0.69344258  0.10654346  0.36846418  1
  Mo  Mo173  1  0.91783157  0.50551152  0.12409703  1
  Mo  Mo174  1  0.88288436  0.11025971  0.37393971  1
  Mo  Mo175  1  0.09023155  0.90272451  0.86230895  1
  Mo  Mo176  1  0.21413335  0.39098690  0.25360102  1
  Mo  Mo177  1  0.50189153  0.69969177  0.37061541  1
  Mo  Mo178  1  0.09798280  0.47782416  0.87650637  1
  Mo  Mo179  1  0.50716966  0.70816105  0.87599078  1
  Mo  Mo180  1  -0.00043634  -0.00042039  0.74641251  1
  Mo  Mo181  1  0.60639824  0.59751756  0.49052303  1
  Mo  Mo182  1  -0.00373342  0.38057808  0.75134275  1
  Mo  Mo183  1  0.19979362  0.61109488  0.50798430  1
  Mo  Mo184  1  0.79535809  -0.00362487  0.76105908  1
  Mo  Mo185  1  0.00282230  0.58802370  0.24108571  1
  Mo  Mo186  1  0.10245874  0.69965240  0.62852088  1
  Mo  Mo187  1  0.89973731  0.28614041  0.62374052  1
  Mo  Mo188  1  0.88327802  0.89471371  0.37448892  1
  Mo  Mo189  1  0.61658937  0.40048267  0.49526405  1
  Mo  Mo190  1  0.29364502  0.30986978  0.13350901  1
  Mo  Mo191  1  0.10053507  0.09923769  0.37754637  1
  Mo  Mo192  1  0.79658756  0.39324224  0.76584385  1
  Mo  Mo193  1  0.79078061  0.20378864  0.23188272  1
  Mo  Mo194  1  0.90595524  0.29723673  0.12310200  1
  Mo  Mo195  1  0.19875585  0.20034425  0.73913840  1
  Mo  Mo196  1  0.40301182  0.40030915  -0.00644420  1
  Mo  Mo197  1  -0.00006832  0.59491216  0.51018926  1
  Mo  Mo198  1  0.70526403  0.70285299  0.86720006  1
  Mo  Mo199  1  0.89257585  0.70531489  0.12053409  1
