# generated using pymatgen
data_HfZrTaTiMo
_symmetry_space_group_name_H-M   'P 1'
_cell_length_a   15.21698137
_cell_length_b   15.21919922
_cell_length_c   16.83093479
_cell_angle_alpha   89.95336553
_cell_angle_beta   90.00665953
_cell_angle_gamma   89.76076374
_symmetry_Int_Tables_number   1
_chemical_formula_structural   HfZrTaTiMo
_chemical_formula_sum   'Hf40 Zr40 Ta40 Ti40 Mo40'
_cell_volume   3897.84545081
_cell_formula_units_Z   40
loop_
 _symmetry_equiv_pos_site_id
 _symmetry_equiv_pos_as_xyz
  1  'x, y, z'
loop_
 _atom_site_type_symbol
 _atom_site_label
 _atom_site_symmetry_multiplicity
 _atom_site_fract_x
 _atom_site_fract_y
 _atom_site_fract_z
 _atom_site_occupancy
  Hf  Hf0  1  0.90216536  0.49670229  0.38759840  1
  Hf  Hf1  1  0.60221489  -0.00517426  0.49937184  1
  Hf  Hf2  1  0.50193420  0.89663633  0.37576690  1
  Hf  Hf3  1  0.09751761  0.11590257  0.63325322  1
  Hf  Hf4  1  0.72082515  0.68989359  0.62066353  1
  Hf  Hf5  1  0.39414851  -0.00293843  0.24704120  1
  Hf  Hf6  1  0.89580154  0.49927961  0.61724569  1
  Hf  Hf7  1  0.29039028  0.11509215  0.87019759  1
  Hf  Hf8  1  0.51142072  0.69197631  0.37130633  1
  Hf  Hf9  1  0.50828315  0.89513097  0.87444759  1
  Hf  Hf10  1  0.10416356  0.51170813  0.64292580  1
  Hf  Hf11  1  0.20336581  0.41451673  0.51207355  1
  Hf  Hf12  1  0.21414357  0.39727138  0.75203253  1
  Hf  Hf13  1  0.28794289  0.09988373  0.37629116  1
  Hf  Hf14  1  0.30521376  0.89018104  0.11227007  1
  Hf  Hf15  1  0.72241603  0.69409065  0.87727405  1
  Hf  Hf16  1  0.19626123  0.00237149  0.50947164  1
  Hf  Hf17  1  -0.01596588  0.00479264  0.00182038  1
  Hf  Hf18  1  0.80564202  0.19769860  -0.00265722  1
  Hf  Hf19  1  0.60287585  0.40901747  0.50047717  1
  Hf  Hf20  1  0.71086500  0.29978746  0.61686640  1
  Hf  Hf21  1  0.69590317  0.48720606  0.87127297  1
  Hf  Hf22  1  0.30821250  0.90668902  0.87558761  1
  Hf  Hf23  1  0.79461052  0.40060596  0.00991882  1
  Hf  Hf24  1  0.49567416  0.30858078  0.13042094  1
  Hf  Hf25  1  0.30129326  0.69663598  0.37953382  1
  Hf  Hf26  1  0.29571419  0.29248189  0.61977073  1
  Hf  Hf27  1  0.60815788  0.18639191  0.26769608  1
  Hf  Hf28  1  0.08891166  0.10646800  0.13927927  1
  Hf  Hf29  1  0.40049193  0.79081817  0.24913307  1
  Hf  Hf30  1  0.81497324  0.18994675  0.27084131  1
  Hf  Hf31  1  0.49740046  0.49424942  0.36680972  1
  Hf  Hf32  1  0.29435711  0.69079079  0.63470129  1
  Hf  Hf33  1  0.20063504  0.80837161  0.25011848  1
  Hf  Hf34  1  0.19625089  0.01166496  0.00037975  1
  Hf  Hf35  1  0.20726543  0.40546748  0.24539230  1
  Hf  Hf36  1  0.69500452  0.30163754  0.14063609  1
  Hf  Hf37  1  0.50501396  0.10118314  0.12443309  1
  Hf  Hf38  1  0.90930154  0.29684696  0.13542344  1
  Hf  Hf39  1  -0.00592737  0.79065176  0.25144443  1
  Zr  Zr40  1  0.40474518  0.59425965  0.50906302  1
  Zr  Zr41  1  0.08983456  0.89559611  0.11791035  1
  Zr  Zr42  1  0.39404413  0.21105012  0.25376156  1
  Zr  Zr43  1  0.59033790  0.20432385  0.49076680  1
  Zr  Zr44  1  0.89633052  0.87261202  0.88159180  1
  Zr  Zr45  1  0.21776359  0.77543642  -0.01390743  1
  Zr  Zr46  1  0.50042234  0.32068126  0.88024963  1
  Zr  Zr47  1  0.40595597  0.59912604  0.75846585  1
  Zr  Zr48  1  0.20304085  0.60089992  0.24871804  1
  Zr  Zr49  1  0.07658778  0.11010082  0.37530047  1
  Zr  Zr50  1  -0.01874993  0.00369379  0.25366999  1
  Zr  Zr51  1  0.70282321  0.09977931  0.62120058  1
  Zr  Zr52  1  0.69795352  0.09741835  0.86252209  1
  Zr  Zr53  1  0.61586814  0.59222732  0.23816950  1
  Zr  Zr54  1  0.40868753  0.79913139  0.74615846  1
  Zr  Zr55  1  0.11382654  0.68713992  0.11376075  1
  Zr  Zr56  1  0.30280106  0.51328008  0.09898613  1
  Zr  Zr57  1  0.90008502  0.89889953  0.39486799  1
  Zr  Zr58  1  0.49334387  0.10305795  0.87547940  1
  Zr  Zr59  1  0.30167860  0.30980691  0.38447628  1
  Zr  Zr60  1  0.39793411  0.80066217  0.50958789  1
  Zr  Zr61  1  0.49168928  0.69873096  0.12166438  1
  Zr  Zr62  1  0.90208202  0.86899649  0.60926211  1
  Zr  Zr63  1  0.09307345  0.50157012  0.86638747  1
  Zr  Zr64  1  0.08090150  0.71422285  0.64022276  1
  Zr  Zr65  1  0.60487976  0.20868762  -0.00271431  1
  Zr  Zr66  1  0.29342944  0.10861352  0.12681913  1
  Zr  Zr67  1  0.76883632  -0.00392322  0.27457345  1
  Zr  Zr68  1  0.81903157  0.60012831  0.24228740  1
  Zr  Zr69  1  0.09137053  0.10453661  0.85766361  1
  Zr  Zr70  1  0.09844334  0.90172713  0.88177883  1
  Zr  Zr71  1  0.80064962  -0.01929645  0.74294666  1
  Zr  Zr72  1  -0.00087597  -0.01442488  0.73624888  1
  Zr  Zr73  1  0.59264602  -0.00167807  0.74019381  1
  Zr  Zr74  1  0.18779418  0.80266712  0.50398837  1
  Zr  Zr75  1  0.60523313  0.58645662  0.00686880  1
  Zr  Zr76  1  0.00066226  0.20355307  -0.00593845  1
  Zr  Zr77  1  0.79690316  0.79690313  0.25801794  1
  Zr  Zr78  1  0.91459578  0.29569572  0.38564599  1
  Zr  Zr79  1  0.39401807  0.21196257  0.75070147  1
  Ta  Ta80  1  0.70778876  0.71021558  0.11752341  1
  Ta  Ta81  1  0.59975884  0.21446543  0.74337749  1
  Ta  Ta82  1  0.80774110  0.38637816  0.74729879  1
  Ta  Ta83  1  0.29767891  0.90550668  0.37700566  1
  Ta  Ta84  1  0.29991748  0.10180025  0.62361322  1
  Ta  Ta85  1  0.88804077  0.50043190  0.87351180  1
  Ta  Ta86  1  0.89489281  0.10367944  0.60589944  1
  Ta  Ta87  1  0.60238134  0.79666644  -0.00358147  1
  Ta  Ta88  1  0.40832723  0.40681927  0.73494732  1
  Ta  Ta89  1  0.50766519  0.90162038  0.12055435  1
  Ta  Ta90  1  -0.00028905  0.59259495  -0.00219201  1
  Ta  Ta91  1  0.40954927  0.39629575  0.51911347  1
  Ta  Ta92  1  0.50328028  0.89894564  0.62350066  1
  Ta  Ta93  1  0.79055889  -0.00237158  -0.00264154  1
  Ta  Ta94  1  0.60263033  -0.00297403  -0.00227131  1
  Ta  Ta95  1  0.59948938  0.78633289  0.50936033  1
  Ta  Ta96  1  0.61488899  0.79386054  0.74421781  1
  Ta  Ta97  1  0.90819224  0.70522944  0.10836726  1
  Ta  Ta98  1  0.19384777  0.80760716  0.75510907  1
  Ta  Ta99  1  0.90076558  0.69365974  0.39525470  1
  Ta  Ta100  1  0.39580141  0.62701523  -0.02260567  1
  Ta  Ta101  1  0.08139677  0.70519648  0.87120390  1
  Ta  Ta102  1  0.39946755  0.00436910  0.50664117  1
  Ta  Ta103  1  -0.00543175  0.39710425  -0.00741037  1
  Ta  Ta104  1  0.89059827  0.10057697  0.86412326  1
  Ta  Ta105  1  0.10195514  0.50277527  0.37899279  1
  Ta  Ta106  1  0.10003182  0.29754849  0.86236764  1
  Ta  Ta107  1  0.51148989  0.51195217  0.62565971  1
  Ta  Ta108  1  0.00352551  0.40931129  0.24777751  1
  Ta  Ta109  1  0.20729904  0.00191534  0.74042261  1
  Ta  Ta110  1  0.60176417  0.40508175  0.73790070  1
  Ta  Ta111  1  0.31000346  0.49064647  0.88637398  1
  Ta  Ta112  1  0.70044926  0.09453790  0.12688317  1
  Ta  Ta113  1  0.18973562  0.20710730  0.25336472  1
  Ta  Ta114  1  0.38775578  0.21639494  -0.00140475  1
  Ta  Ta115  1  0.60535543  0.60515211  0.75084219  1
  Ta  Ta116  1  0.01010299  0.60219836  0.50489165  1
  Ta  Ta117  1  0.09367748  0.69893871  0.37629095  1
  Ta  Ta118  1  0.69467216  0.90547856  0.12229986  1
  Ta  Ta119  1  0.79886821  0.40827823  0.24849229  1
  Ti  Ti120  1  0.39951755  0.00384209  0.74034730  1
  Ti  Ti121  1  0.29849868  0.90214142  0.62862960  1
  Ti  Ti122  1  0.40327676  0.00567983  0.00177294  1
  Ti  Ti123  1  0.09144499  0.30528665  0.63524629  1
  Ti  Ti124  1  -0.00805851  0.40269107  0.75160608  1
  Ti  Ti125  1  0.10284955  0.90681346  0.37117017  1
  Ti  Ti126  1  0.18718659  0.20801843  0.49913096  1
  Ti  Ti127  1  0.10492548  0.30365341  0.12568642  1
  Ti  Ti128  1  0.70394177  0.89152559  0.87413101  1
  Ti  Ti129  1  0.50437233  0.50593622  0.87920589  1
  Ti  Ti130  1  0.09697383  0.49102517  0.10957996  1
  Ti  Ti131  1  0.39467004  0.58752033  0.24223959  1
  Ti  Ti132  1  0.00639535  0.59428556  0.24437398  1
  Ti  Ti133  1  0.49421528  0.11112748  0.62369566  1
  Ti  Ti134  1  0.00551202  -0.00488779  0.51173514  1
  Ti  Ti135  1  0.49426486  0.09429616  0.37535238  1
  Ti  Ti136  1  0.70547937  0.88916413  0.61706559  1
  Ti  Ti137  1  0.88391258  0.89642646  0.11929009  1
  Ti  Ti138  1  0.01188835  0.39891341  0.50697331  1
  Ti  Ti139  1  0.70739034  0.49974554  0.62085755  1
  Ti  Ti140  1  0.50572453  0.48939820  0.12601216  1
  Ti  Ti141  1  0.29992062  0.31368454  0.11788312  1
  Ti  Ti142  1  0.70439389  0.69472536  0.38708712  1
  Ti  Ti143  1  -0.03778683  0.61765205  0.75403808  1
  Ti  Ti144  1  0.30340795  0.49852417  0.37752024  1
  Ti  Ti145  1  0.19454208  0.20975799  -0.00093930  1
  Ti  Ti146  1  0.10169957  0.31026149  0.37455194  1
  Ti  Ti147  1  0.20502742  0.60582578  0.76906731  1
  Ti  Ti148  1  0.70263176  0.50253662  0.37922077  1
  Ti  Ti149  1  0.88677248  0.09504979  0.12983844  1
  Ti  Ti150  1  -0.02613562  0.21328333  0.74784915  1
  Ti  Ti151  1  0.19988376  0.60204706  0.50351516  1
  Ti  Ti152  1  0.80581173  0.59261006  0.01655097  1
  Ti  Ti153  1  0.19748127  0.39438451  -0.01090570  1
  Ti  Ti154  1  0.60742115  0.80923627  0.24876703  1
  Ti  Ti155  1  0.70641218  0.30868189  0.37666223  1
  Ti  Ti156  1  0.39880170  0.19925811  0.49863108  1
  Ti  Ti157  1  0.71223165  0.29627574  0.86382820  1
  Ti  Ti158  1  0.49898289  0.30890077  0.36483473  1
  Ti  Ti159  1  0.90012524  0.29463966  0.60655513  1
  Mo  Mo160  1  0.89937540  0.30591465  0.87073078  1
  Mo  Mo161  1  0.68797186  0.88287790  0.38718716  1
  Mo  Mo162  1  0.29929672  0.70250905  0.85882415  1
  Mo  Mo163  1  0.70504404  0.49700549  0.13159022  1
  Mo  Mo164  1  0.90052951  0.68425216  0.89511447  1
  Mo  Mo165  1  0.00655177  0.20559552  0.51206063  1
  Mo  Mo166  1  0.89852513  0.68669867  0.60844801  1
  Mo  Mo167  1  0.59085927  -0.00417159  0.25247883  1
  Mo  Mo168  1  0.81106272  0.77410223  0.74944566  1
  Mo  Mo169  1  0.60218984  0.40169949  0.00292992  1
  Mo  Mo170  1  0.19679164  -0.00131485  0.25720303  1
  Mo  Mo171  1  0.79642031  0.58919544  0.49192664  1
  Mo  Mo172  1  0.79958811  0.39809356  0.49618490  1
  Mo  Mo173  1  0.40896445  0.40949220  0.00111288  1
  Mo  Mo174  1  -0.01203006  0.79504703  0.75432497  1
  Mo  Mo175  1  0.00783027  0.79661504  0.49033402  1
  Mo  Mo176  1  0.00446770  0.21682365  0.24657752  1
  Mo  Mo177  1  0.19642722  0.59039318  -0.02475142  1
  Mo  Mo178  1  0.29516009  0.30704393  0.88337823  1
  Mo  Mo179  1  0.19046067  0.20596899  0.74658968  1
  Mo  Mo180  1  0.80404737  0.19924192  0.74505771  1
  Mo  Mo181  1  0.41475231  0.80877084  -0.00906105  1
  Mo  Mo182  1  0.88972856  0.09515331  0.41014075  1
  Mo  Mo183  1  0.60614776  0.39688010  0.26335590  1
  Mo  Mo184  1  0.51524630  0.70307048  0.62808501  1
  Mo  Mo185  1  0.60355343  0.59724680  0.49964011  1
  Mo  Mo186  1  0.79514139  -0.00400111  0.50044259  1
  Mo  Mo187  1  0.30161545  0.50151180  0.62995610  1
  Mo  Mo188  1  0.91305897  0.49731006  0.12343077  1
  Mo  Mo189  1  0.30936630  0.69721609  0.11963161  1
  Mo  Mo190  1  0.79788073  0.20029335  0.48690740  1
  Mo  Mo191  1  0.69441190  0.09712603  0.38957525  1
  Mo  Mo192  1  0.79024084  0.79501269  0.48910190  1
  Mo  Mo193  1  0.51566832  0.70077721  0.87579898  1
  Mo  Mo194  1  -0.00030376  0.79569372  0.00743030  1
  Mo  Mo195  1  0.79586170  0.58106327  0.75002970  1
  Mo  Mo196  1  0.10625475  0.90526395  0.63251092  1
  Mo  Mo197  1  0.79281927  0.80246762  0.00870038  1
  Mo  Mo198  1  0.50483424  0.30268666  0.62592483  1
  Mo  Mo199  1  0.39700925  0.41027182  0.24596858  1
