# generated using pymatgen
data_HfZrTaTiMo
_symmetry_space_group_name_H-M   'P 1'
_cell_length_a   15.21556021
_cell_length_b   15.21443016
_cell_length_c   16.83792557
_cell_angle_alpha   90.00551972
_cell_angle_beta   89.94810276
_cell_angle_gamma   89.97350670
_symmetry_Int_Tables_number   1
_chemical_formula_structural   HfZrTaTiMo
_chemical_formula_sum   'Hf40 Zr40 Ta40 Ti40 Mo40'
_cell_volume   3897.91169957
_cell_formula_units_Z   40
loop_
 _symmetry_equiv_pos_site_id
 _symmetry_equiv_pos_as_xyz
  1  'x, y, z'
loop_
 _atom_site_type_symbol
 _atom_site_label
 _atom_site_symmetry_multiplicity
 _atom_site_fract_x
 _atom_site_fract_y
 _atom_site_fract_z
 _atom_site_occupancy
  Hf  Hf0  1  0.09542833  0.30726723  0.13200617  1
  Hf  Hf1  1  0.70660885  0.29559603  0.61604126  1
  Hf  Hf2  1  0.59385414  0.61636142  0.51217426  1
  Hf  Hf3  1  0.20644657  0.78776225  0.51822511  1
  Hf  Hf4  1  0.80427424  0.79841777  0.24207178  1
  Hf  Hf5  1  0.30659420  0.91770220  0.62784746  1
  Hf  Hf6  1  0.10737439  0.11414890  0.36448004  1
  Hf  Hf7  1  0.18943833  0.40694460  0.25490266  1
  Hf  Hf8  1  0.10308400  0.70845673  0.87587138  1
  Hf  Hf9  1  0.29186867  0.50313066  0.11892468  1
  Hf  Hf10  1  0.50016131  0.89272235  0.88562222  1
  Hf  Hf11  1  0.00609609  0.20173591  0.74860450  1
  Hf  Hf12  1  0.87849529  0.49393650  0.12311068  1
  Hf  Hf13  1  0.38679776  -0.00529901  -0.00537208  1
  Hf  Hf14  1  0.51052016  0.68776546  0.87222974  1
  Hf  Hf15  1  0.80633576  0.38647435  0.26818142  1
  Hf  Hf16  1  0.61087047  0.20111672  0.75164209  1
  Hf  Hf17  1  0.71436297  0.89813086  0.89105594  1
  Hf  Hf18  1  0.40560025  0.59525392  0.73945314  1
  Hf  Hf19  1  0.19106101  0.61295401  0.24144598  1
  Hf  Hf20  1  0.28882545  0.30826783  0.87105792  1
  Hf  Hf21  1  0.39445666  0.21337464  0.00305647  1
  Hf  Hf22  1  0.50275970  0.08950444  0.62761764  1
  Hf  Hf23  1  0.71020602  0.92624202  0.60695919  1
  Hf  Hf24  1  0.40884885  0.79642121  0.73738709  1
  Hf  Hf25  1  0.29006786  0.49671734  0.61775838  1
  Hf  Hf26  1  0.61227771  0.00401547  0.75688385  1
  Hf  Hf27  1  -0.01940486  0.38778715  -0.00135903  1
  Hf  Hf28  1  0.20980061  0.00979262  0.49552694  1
  Hf  Hf29  1  0.50474652  0.30395751  0.87945515  1
  Hf  Hf30  1  0.59192718  0.78737848  0.24118213  1
  Hf  Hf31  1  0.88937680  0.50502419  0.87072532  1
  Hf  Hf32  1  0.91597242  0.28683565  0.61140010  1
  Hf  Hf33  1  0.89916831  0.90033137  0.60673817  1
  Hf  Hf34  1  0.32161319  0.08433588  0.35678217  1
  Hf  Hf35  1  0.90859622  0.69897283  0.37900828  1
  Hf  Hf36  1  0.59991652  -0.01133787  0.23386823  1
  Hf  Hf37  1  0.70280027  0.89978218  0.38070465  1
  Hf  Hf38  1  0.40440883  0.61842604  0.24848498  1
  Hf  Hf39  1  0.59875179  0.78915980  0.01467011  1
  Zr  Zr40  1  0.21153392  -0.01417493  0.24732830  1
  Zr  Zr41  1  0.59099347  0.19483699  0.50522131  1
  Zr  Zr42  1  0.28548808  0.28423146  0.36738670  1
  Zr  Zr43  1  0.09512872  0.49993291  0.87689789  1
  Zr  Zr44  1  0.02063967  0.80530399  0.01684879  1
  Zr  Zr45  1  0.61542597  0.60304552  0.72144742  1
  Zr  Zr46  1  0.40199081  0.20259068  0.75148298  1
  Zr  Zr47  1  0.40872270  0.80010867  0.50687890  1
  Zr  Zr48  1  0.48830385  0.09381289  0.11972912  1
  Zr  Zr49  1  0.70173302  0.10208827  0.89883901  1
  Zr  Zr50  1  0.60367609  0.40153975  0.25031391  1
  Zr  Zr51  1  0.71753119  0.69142164  0.88021207  1
  Zr  Zr52  1  0.39957367  0.40307744  0.25836183  1
  Zr  Zr53  1  0.89611026  0.48960923  0.62081756  1
  Zr  Zr54  1  0.29259933  0.51962280  0.38274082  1
  Zr  Zr55  1  0.28220457  0.10083737  0.87088140  1
  Zr  Zr56  1  0.79848600  0.38878698  0.75163160  1
  Zr  Zr57  1  0.79492604  0.59928111  0.50260233  1
  Zr  Zr58  1  0.49667867  0.49333352  0.12122905  1
  Zr  Zr59  1  0.70909310  0.67173827  0.12633055  1
  Zr  Zr60  1  0.60482261  0.19666490  0.23264213  1
  Zr  Zr61  1  0.68450331  0.49209791  0.87831207  1
  Zr  Zr62  1  0.38258028  0.18829037  0.50605713  1
  Zr  Zr63  1  0.69656227  0.27837832  0.37924105  1
  Zr  Zr64  1  0.19827332  0.80166744  0.73285334  1
  Zr  Zr65  1  0.40215954  -0.00063475  0.76109738  1
  Zr  Zr66  1  0.90141241  0.11006328  0.88226972  1
  Zr  Zr67  1  0.30297061  0.70237049  0.87571332  1
  Zr  Zr68  1  0.72169621  0.30752306  0.11197458  1
  Zr  Zr69  1  0.09525640  0.10692982  0.14432756  1
  Zr  Zr70  1  0.79878602  0.58799799  0.26529471  1
  Zr  Zr71  1  0.10998807  0.89087664  0.37901416  1
  Zr  Zr72  1  0.61707234  0.80442476  0.74720228  1
  Zr  Zr73  1  0.79519703  0.00491425  0.23590752  1
  Zr  Zr74  1  0.09230749  0.49327270  0.61598072  1
  Zr  Zr75  1  0.82144835  0.78937749  0.02060915  1
  Zr  Zr76  1  -0.00060671  0.81224927  0.74078402  1
  Zr  Zr77  1  0.58961474  0.40195535  0.73932522  1
  Zr  Zr78  1  -0.00130368  0.01091877  0.01574762  1
  Zr  Zr79  1  0.39496374  0.39143431  0.49568074  1
  Ta  Ta80  1  0.60078726  0.40362603  0.50144094  1
  Ta  Ta81  1  0.50123596  0.50848428  0.38713908  1
  Ta  Ta82  1  0.90674894  0.70397418  0.86988450  1
  Ta  Ta83  1  0.10018201  0.91319750  0.87499251  1
  Ta  Ta84  1  0.49429074  0.90575062  0.37290257  1
  Ta  Ta85  1  0.08635615  0.11008266  0.61594305  1
  Ta  Ta86  1  0.90795617  0.69745703  0.61490259  1
  Ta  Ta87  1  0.59937904  0.58973602  0.00593879  1
  Ta  Ta88  1  0.81339344  -0.00382952  0.75356905  1
  Ta  Ta89  1  0.80338123  0.00056738  0.02600844  1
  Ta  Ta90  1  0.19675427  0.39898855  0.00268628  1
  Ta  Ta91  1  0.19260854  -0.00386418  0.01267721  1
  Ta  Ta92  1  0.89329430  0.09008999  0.62041251  1
  Ta  Ta93  1  0.79973892  0.39158993  0.48871888  1
  Ta  Ta94  1  0.40010013  0.60864856  0.00413781  1
  Ta  Ta95  1  0.90535914  0.89669516  0.37616147  1
  Ta  Ta96  1  0.28513904  0.89643269  0.87267067  1
  Ta  Ta97  1  0.38806204  0.40453539  0.74706479  1
  Ta  Ta98  1  0.49558990  0.29526889  0.37502951  1
  Ta  Ta99  1  0.01433633  0.78662979  0.24170297  1
  Ta  Ta100  1  0.27872549  0.29886719  0.63303769  1
  Ta  Ta101  1  -0.01160744  0.21381666  0.26360292  1
  Ta  Ta102  1  0.90807633  0.90239418  0.88045265  1
  Ta  Ta103  1  0.09190120  0.29219615  0.88020471  1
  Ta  Ta104  1  0.51883367  0.89604876  0.61585949  1
  Ta  Ta105  1  0.00122077  0.60267464  0.74467669  1
  Ta  Ta106  1  -0.00442585  -0.00261948  0.25598670  1
  Ta  Ta107  1  -0.01336236  0.60932743  0.00450974  1
  Ta  Ta108  1  0.19140456  0.19871794  0.00801238  1
  Ta  Ta109  1  0.19894008  0.59860172  0.74338877  1
  Ta  Ta110  1  0.00726760  0.79306109  0.50401781  1
  Ta  Ta111  1  0.47872717  0.88192448  0.11909913  1
  Ta  Ta112  1  0.19270445  0.60932396  0.00844760  1
  Ta  Ta113  1  0.29544059  0.50337802  0.88033709  1
  Ta  Ta114  1  0.49519317  0.49642698  0.61206093  1
  Ta  Ta115  1  0.39118881  0.61121188  0.51099806  1
  Ta  Ta116  1  0.08100800  0.51025230  0.12198536  1
  Ta  Ta117  1  0.00584932  0.38293194  0.48292581  1
  Ta  Ta118  1  0.09399382  0.91725399  0.61289666  1
  Ta  Ta119  1  0.10511621  0.69118418  0.38120606  1
  Ti  Ti120  1  0.80315193  0.19379159  0.24332436  1
  Ti  Ti121  1  0.28134037  0.10903719  0.63705257  1
  Ti  Ti122  1  0.39085191  0.81889176  0.25650522  1
  Ti  Ti123  1  0.20538332  0.79922826  0.23798396  1
  Ti  Ti124  1  0.41046293  -0.00063272  0.49647775  1
  Ti  Ti125  1  0.31577674  0.71758212  0.11903746  1
  Ti  Ti126  1  0.79862913  0.17953799  0.49672013  1
  Ti  Ti127  1  0.09637827  0.09911986  0.87872867  1
  Ti  Ti128  1  0.40401976  0.20387319  0.23968151  1
  Ti  Ti129  1  0.80319395  0.60848439  0.73146272  1
  Ti  Ti130  1  0.17412669  0.00903287  0.74532072  1
  Ti  Ti131  1  0.50516677  0.10116116  0.88908811  1
  Ti  Ti132  1  -0.00654467  0.40858140  0.26218651  1
  Ti  Ti133  1  0.50032976  0.70502446  0.37893151  1
  Ti  Ti134  1  0.29652043  0.10188738  0.13385274  1
  Ti  Ti135  1  0.59165317  0.39314039  0.00744344  1
  Ti  Ti136  1  0.60553417  0.00947522  0.48836090  1
  Ti  Ti137  1  0.60204252  0.19971662  0.01548895  1
  Ti  Ti138  1  0.60346022  -0.00731454  0.01889274  1
  Ti  Ti139  1  0.59678110  0.59358488  0.25415790  1
  Ti  Ti140  1  0.21256367  0.81055163  0.01315556  1
  Ti  Ti141  1  0.48291020  0.49391042  0.88594834  1
  Ti  Ti142  1  0.70969824  0.73339035  0.60663176  1
  Ti  Ti143  1  0.80171193  0.19123449  0.74901866  1
  Ti  Ti144  1  0.90671080  0.49960598  0.38694037  1
  Ti  Ti145  1  -0.00176163  0.00993611  0.48521767  1
  Ti  Ti146  1  0.69630000  0.70295713  0.38041265  1
  Ti  Ti147  1  0.71994518  0.29287874  0.89564062  1
  Ti  Ti148  1  0.09373013  0.50913655  0.38245446  1
  Ti  Ti149  1  0.30177375  0.30355892  0.12731212  1
  Ti  Ti150  1  0.91308709  0.90172691  0.13815474  1
  Ti  Ti151  1  0.51338138  0.10097052  0.36316683  1
  Ti  Ti152  1  0.69196759  0.50083222  0.38525728  1
  Ti  Ti153  1  0.88869688  0.09872405  0.37224165  1
  Ti  Ti154  1  0.17879352  0.39485142  0.74990406  1
  Ti  Ti155  1  0.80755110  0.80143147  0.74747205  1
  Ti  Ti156  1  0.29720657  0.71687531  0.37553143  1
  Ti  Ti157  1  0.19385981  0.39713803  0.49154168  1
  Ti  Ti158  1  0.48659172  0.30106418  0.62441157  1
  Ti  Ti159  1  0.17431425  0.21303961  0.50311663  1
  Mo  Mo160  1  -0.00281900  0.00213110  0.74761607  1
  Mo  Mo161  1  0.89850559  0.29022103  0.38717343  1
  Mo  Mo162  1  0.79422297  0.40123649  -0.01025134  1
  Mo  Mo163  1  0.39633420  0.79581149  -0.00484094  1
  Mo  Mo164  1  0.30848640  0.89300071  0.38242319  1
  Mo  Mo165  1  0.69873515  0.89243994  0.11891229  1
  Mo  Mo166  1  0.90186454  0.30252860  0.86722312  1
  Mo  Mo167  1  0.70074418  0.49228967  0.61099107  1
  Mo  Mo168  1  0.09991945  0.30020264  0.62023882  1
  Mo  Mo169  1  0.83202013  0.20694527  0.01095383  1
  Mo  Mo170  1  0.41139705  -0.00410077  0.24622145  1
  Mo  Mo171  1  0.69421050  0.49393203  0.11952007  1
  Mo  Mo172  1  0.09629498  0.30782186  0.36664003  1
  Mo  Mo173  1  0.00196343  0.59299170  0.25275130  1
  Mo  Mo174  1  0.80413674  0.59559146  -0.00350326  1
  Mo  Mo175  1  0.30200909  0.90536692  0.12190345  1
  Mo  Mo176  1  0.80892558  0.00798248  0.48469233  1
  Mo  Mo177  1  0.91087030  0.29992542  0.13596121  1
  Mo  Mo178  1  0.92026040  0.68313434  0.14026272  1
  Mo  Mo179  1  0.70257999  0.10189455  0.10738315  1
  Mo  Mo180  1  0.00886888  0.20327165  0.00213326  1
  Mo  Mo181  1  0.20696102  0.20591046  0.24137066  1
  Mo  Mo182  1  0.80607786  0.80082853  0.48976551  1
  Mo  Mo183  1  0.19748612  0.60186746  0.49861257  1
  Mo  Mo184  1  0.00492600  0.59622220  0.49890246  1
  Mo  Mo185  1  0.49555483  0.69198492  0.12790069  1
  Mo  Mo186  1  0.71126739  0.10212899  0.62935629  1
  Mo  Mo187  1  0.60193901  0.80961411  0.49150605  1
  Mo  Mo188  1  0.09471930  0.69336540  0.62493225  1
  Mo  Mo189  1  0.90032643  0.11689516  0.13300950  1
  Mo  Mo190  1  0.50545158  0.70488769  0.62411105  1
  Mo  Mo191  1  0.19205543  0.20031005  0.74685708  1
  Mo  Mo192  1  -0.00631280  0.18962213  0.48599098  1
  Mo  Mo193  1  0.11225273  0.69581346  0.12181242  1
  Mo  Mo194  1  0.38916970  0.40630953  -0.00544963  1
  Mo  Mo195  1  -0.00085905  0.39851826  0.75764487  1
  Mo  Mo196  1  0.29879625  0.69298375  0.63093266  1
  Mo  Mo197  1  0.69840640  0.09377860  0.36861764  1
  Mo  Mo198  1  0.49202831  0.29904140  0.11667086  1
  Mo  Mo199  1  0.10311079  0.89988225  0.13749079  1
