# generated using pymatgen
data_HfZrTaTiMo
_symmetry_space_group_name_H-M   'P 1'
_cell_length_a   15.20017387
_cell_length_b   15.19147455
_cell_length_c   16.80545024
_cell_angle_alpha   89.97500110
_cell_angle_beta   89.94235467
_cell_angle_gamma   89.97991388
_symmetry_Int_Tables_number   1
_chemical_formula_structural   HfZrTaTiMo
_chemical_formula_sum   'Hf40 Zr40 Ta40 Ti40 Mo40'
_cell_volume   3880.59527617
_cell_formula_units_Z   40
loop_
 _symmetry_equiv_pos_site_id
 _symmetry_equiv_pos_as_xyz
  1  'x, y, z'
loop_
 _atom_site_type_symbol
 _atom_site_label
 _atom_site_symmetry_multiplicity
 _atom_site_fract_x
 _atom_site_fract_y
 _atom_site_fract_z
 _atom_site_occupancy
  Hf  Hf0  1  0.58921027  0.79886700  -0.02768743  1
  Hf  Hf1  1  0.40888662  0.79902801  0.24808833  1
  Hf  Hf2  1  0.00525135  0.00112351  0.25718524  1
  Hf  Hf3  1  0.80677228  0.60403104  -0.00349207  1
  Hf  Hf4  1  -0.02013557  0.20544570  0.24746711  1
  Hf  Hf5  1  0.59319871  -0.01497381  0.25926389  1
  Hf  Hf6  1  0.10764431  0.70457398  0.37895593  1
  Hf  Hf7  1  0.69968036  0.69119806  0.85551686  1
  Hf  Hf8  1  0.49298205  0.48275723  0.62432214  1
  Hf  Hf9  1  0.40408823  0.41405070  -0.00381542  1
  Hf  Hf10  1  0.70214637  0.48963821  0.87007995  1
  Hf  Hf11  1  0.60034557  0.78550965  0.51869684  1
  Hf  Hf12  1  0.11092968  0.51092543  0.36571373  1
  Hf  Hf13  1  0.23002361  0.79797893  0.51548757  1
  Hf  Hf14  1  0.40946953  0.21239710  0.74361873  1
  Hf  Hf15  1  0.49777440  0.29607570  0.13083287  1
  Hf  Hf16  1  0.90141490  0.89212898  0.39214074  1
  Hf  Hf17  1  0.00813490  0.40034222  0.22556309  1
  Hf  Hf18  1  0.79331327  0.00464525  0.25728446  1
  Hf  Hf19  1  0.90925261  0.30864603  0.63669938  1
  Hf  Hf20  1  0.59217764  0.59218995  -0.00992755  1
  Hf  Hf21  1  0.29022486  0.52205007  0.63786304  1
  Hf  Hf22  1  0.80979652  0.40853449  0.51267063  1
  Hf  Hf23  1  0.00560748  0.20179670  0.76513692  1
  Hf  Hf24  1  0.30896690  0.90580873  0.13005577  1
  Hf  Hf25  1  0.11784142  0.90809858  0.38747582  1
  Hf  Hf26  1  0.41656375  -0.00103033  -0.00802686  1
  Hf  Hf27  1  0.61481291  0.18868749  0.24847547  1
  Hf  Hf28  1  0.91304739  0.09462633  0.62823305  1
  Hf  Hf29  1  0.69230501  0.29239559  0.88496950  1
  Hf  Hf30  1  0.49691992  0.69495383  0.38214848  1
  Hf  Hf31  1  0.39278797  0.18763446  0.49445560  1
  Hf  Hf32  1  0.30832201  0.10364001  0.86685097  1
  Hf  Hf33  1  0.90312828  0.69678374  0.85609190  1
  Hf  Hf34  1  0.20746423  0.60547461  -0.00066347  1
  Hf  Hf35  1  0.79700222  0.20079111  0.51394197  1
  Hf  Hf36  1  0.71855982  0.29689038  0.37975428  1
  Hf  Hf37  1  0.19352112  0.41418282  0.50029643  1
  Hf  Hf38  1  -0.00018028  0.60608845  0.23542011  1
  Hf  Hf39  1  0.60365498  0.39799523  0.24491054  1
  Zr  Zr40  1  0.09900153  0.69118239  0.86829286  1
  Zr  Zr41  1  0.30444869  0.30721537  0.62533608  1
  Zr  Zr42  1  0.69668425  0.07845547  0.11201297  1
  Zr  Zr43  1  0.70504068  0.50639957  0.36918398  1
  Zr  Zr44  1  0.51182057  0.29309136  0.38080203  1
  Zr  Zr45  1  -0.00263015  0.79259274  0.00617637  1
  Zr  Zr46  1  0.00026459  0.58069984  0.50628724  1
  Zr  Zr47  1  0.58862647  0.80892596  0.75053483  1
  Zr  Zr48  1  0.39747212  0.40646753  0.48742384  1
  Zr  Zr49  1  0.78910816  0.60201541  0.52681951  1
  Zr  Zr50  1  -0.00042328  0.21435245  0.49538116  1
  Zr  Zr51  1  0.19895056  0.18747019  0.48921905  1
  Zr  Zr52  1  0.29969696  0.11227469  0.12985604  1
  Zr  Zr53  1  0.19976242  -0.00156531  0.00426937  1
  Zr  Zr54  1  0.52187015  0.89527759  0.11807665  1
  Zr  Zr55  1  0.09041632  0.31278611  0.36942487  1
  Zr  Zr56  1  0.10432914  0.92410027  0.61444934  1
  Zr  Zr57  1  0.48821413  0.08911483  0.62838416  1
  Zr  Zr58  1  0.00783403  0.78835785  0.51796173  1
  Zr  Zr59  1  0.79946701  -0.00203687  0.75345969  1
  Zr  Zr60  1  0.69867808  0.89677286  0.39612268  1
  Zr  Zr61  1  0.28871951  0.90384527  0.85965987  1
  Zr  Zr62  1  0.19016285  0.79819720  0.73275122  1
  Zr  Zr63  1  0.29593436  0.30152566  0.88202423  1
  Zr  Zr64  1  0.47940995  0.69082362  0.63726878  1
  Zr  Zr65  1  0.30220680  0.31210895  0.12957710  1
  Zr  Zr66  1  0.89102582  0.69085677  0.37685144  1
  Zr  Zr67  1  0.79397219  0.81695041  -0.01790696  1
  Zr  Zr68  1  0.69507429  0.71072618  0.11817198  1
  Zr  Zr69  1  0.11137066  0.09903810  0.87575007  1
  Zr  Zr70  1  0.89860304  0.09646981  0.11196670  1
  Zr  Zr71  1  0.90567260  0.48453316  0.36590447  1
  Zr  Zr72  1  0.51467041  0.10958452  0.87173291  1
  Zr  Zr73  1  0.10742486  0.29419284  0.10864404  1
  Zr  Zr74  1  0.79837262  0.20227291  0.75595228  1
  Zr  Zr75  1  0.80664215  0.38563877  0.23354282  1
  Zr  Zr76  1  0.39405264  0.79515181  -0.01225854  1
  Zr  Zr77  1  0.88443566  0.10976208  0.37804716  1
  Zr  Zr78  1  0.79403540  0.79969972  0.72899758  1
  Zr  Zr79  1  0.00048015  0.80317716  0.24529594  1
  Ta  Ta80  1  0.09851581  0.09741706  0.12104242  1
  Ta  Ta81  1  -0.00233308  0.80739350  0.73533078  1
  Ta  Ta82  1  0.69028413  0.10145059  0.61930671  1
  Ta  Ta83  1  0.19594672  0.79801410  0.00318559  1
  Ta  Ta84  1  0.40248013  0.60342780  -0.01757291  1
  Ta  Ta85  1  0.49668707  0.50397138  0.13038800  1
  Ta  Ta86  1  0.09724816  0.31170860  0.89321074  1
  Ta  Ta87  1  0.50448738  0.50464494  0.37787303  1
  Ta  Ta88  1  0.69795405  0.50587948  0.12544129  1
  Ta  Ta89  1  0.69798810  0.69711752  0.37863383  1
  Ta  Ta90  1  0.08835350  0.50075428  0.63602468  1
  Ta  Ta91  1  0.79454161  0.80078400  0.25103159  1
  Ta  Ta92  1  0.00389661  0.19231750  -0.00902339  1
  Ta  Ta93  1  0.30991162  0.91710053  0.64371343  1
  Ta  Ta94  1  0.90871286  0.08044870  0.88312498  1
  Ta  Ta95  1  0.40220143  0.40974230  0.26152120  1
  Ta  Ta96  1  0.10173145  0.30758833  0.62905397  1
  Ta  Ta97  1  0.60688072  0.79321648  0.25664145  1
  Ta  Ta98  1  0.31033104  0.90546339  0.36499604  1
  Ta  Ta99  1  0.89822917  0.29705855  0.09594161  1
  Ta  Ta100  1  0.40183219  0.20273484  0.00272512  1
  Ta  Ta101  1  0.08089131  0.90291369  0.87043886  1
  Ta  Ta102  1  0.19825704  0.80423418  0.24082693  1
  Ta  Ta103  1  0.79909283  0.79206948  0.52623674  1
  Ta  Ta104  1  0.89983202  0.30662831  0.89215629  1
  Ta  Ta105  1  0.48741897  0.08432435  0.37520008  1
  Ta  Ta106  1  0.59516368  0.58371654  0.51257106  1
  Ta  Ta107  1  0.49351720  0.09537398  0.13064221  1
  Ta  Ta108  1  0.59290237  0.38562523  0.74991222  1
  Ta  Ta109  1  0.60701712  0.20045608  0.74308891  1
  Ta  Ta110  1  0.91288877  0.67990060  0.64387107  1
  Ta  Ta111  1  0.37904929  -0.00910214  0.49971342  1
  Ta  Ta112  1  0.18877693  0.40389135  0.75875032  1
  Ta  Ta113  1  0.88600801  0.90351658  0.12311028  1
  Ta  Ta114  1  0.38129261  0.61501602  0.50150044  1
  Ta  Ta115  1  0.59650464  0.60367193  0.24703887  1
  Ta  Ta116  1  0.18890881  0.19699598  0.26074962  1
  Ta  Ta117  1  0.30199565  0.69805692  0.85290305  1
  Ta  Ta118  1  0.30072672  0.70014595  0.12627460  1
  Ta  Ta119  1  0.49200781  0.69008313  0.12397094  1
  Ti  Ti120  1  0.00674087  0.59146466  0.00941009  1
  Ti  Ti121  1  0.19764393  0.41251040  -0.00192887  1
  Ti  Ti122  1  0.89334113  0.50476878  0.12063876  1
  Ti  Ti123  1  0.20240644  0.20939509  0.74765756  1
  Ti  Ti124  1  0.79784886  -0.00018457  0.50764575  1
  Ti  Ti125  1  0.90432785  0.90528321  0.61568662  1
  Ti  Ti126  1  0.59509274  0.58325253  0.74694631  1
  Ti  Ti127  1  0.39970634  0.40743723  0.76143800  1
  Ti  Ti128  1  0.91004261  0.50039053  0.87651464  1
  Ti  Ti129  1  0.62096551  -0.00998672  -0.02197064  1
  Ti  Ti130  1  0.58531534  0.00224149  0.50267847  1
  Ti  Ti131  1  0.70687387  0.29040123  0.11368364  1
  Ti  Ti132  1  0.69061141  0.91028757  0.61891259  1
  Ti  Ti133  1  0.79628074  0.40178102  0.74915713  1
  Ti  Ti134  1  0.50071397  0.30563872  0.88148088  1
  Ti  Ti135  1  0.20270122  0.00424304  0.24888051  1
  Ti  Ti136  1  0.89337977  0.70299095  0.12719517  1
  Ti  Ti137  1  0.20681829  0.61107460  0.24047825  1
  Ti  Ti138  1  0.51186648  0.29143353  0.60519397  1
  Ti  Ti139  1  0.59424137  0.19221583  0.00747707  1
  Ti  Ti140  1  0.30544016  0.51960522  0.36806321  1
  Ti  Ti141  1  0.29889706  0.70768102  0.36849270  1
  Ti  Ti142  1  0.79755320  0.40634150  0.00333313  1
  Ti  Ti143  1  0.68419493  0.10153063  0.39262977  1
  Ti  Ti144  1  0.60250476  0.00349147  0.75542522  1
  Ti  Ti145  1  0.11439802  0.50805746  0.12334775  1
  Ti  Ti146  1  0.01221373  0.01960887  0.48895683  1
  Ti  Ti147  1  0.29120255  0.50482753  0.86695542  1
  Ti  Ti148  1  0.31276824  0.51361300  0.13080936  1
  Ti  Ti149  1  0.20908583  0.40764255  0.24751193  1
  Ti  Ti150  1  0.49645446  0.89046194  0.38800777  1
  Ti  Ti151  1  0.09492305  0.90063644  0.12219672  1
  Ti  Ti152  1  -0.00031794  0.40315630  0.76516662  1
  Ti  Ti153  1  0.48916037  0.89762693  0.62478099  1
  Ti  Ti154  1  0.79507223  0.18613568  -0.01278365  1
  Ti  Ti155  1  0.69108283  0.30740010  0.61967773  1
  Ti  Ti156  1  0.29690867  0.30580898  0.36748671  1
  Ti  Ti157  1  0.39520962  0.19479556  0.26264956  1
  Ti  Ti158  1  0.59895436  0.39728543  0.00965422  1
  Ti  Ti159  1  0.11096104  0.10914345  0.63302829  1
  Mo  Mo160  1  0.28979792  0.09707901  0.63850193  1
  Mo  Mo161  1  0.49458349  0.69072800  0.85823632  1
  Mo  Mo162  1  -0.00005348  -0.01240867  0.00441955  1
  Mo  Mo163  1  0.40227533  0.59084482  0.76584793  1
  Mo  Mo164  1  0.70007995  0.90521320  0.86153559  1
  Mo  Mo165  1  0.79237221  0.60898713  0.23858345  1
  Mo  Mo166  1  0.70452288  0.10149071  0.87883309  1
  Mo  Mo167  1  0.00266544  -0.00222754  0.74685381  1
  Mo  Mo168  1  -0.00594505  0.41109773  0.00871630  1
  Mo  Mo169  1  0.40285752  0.00137284  0.25280349  1
  Mo  Mo170  1  0.39856190  0.80412245  0.75722862  1
  Mo  Mo171  1  0.19605555  0.01350765  0.74819693  1
  Mo  Mo172  1  0.09765704  0.09831476  0.36403698  1
  Mo  Mo173  1  0.79741317  0.58508957  0.74088141  1
  Mo  Mo174  1  0.90844517  0.89355323  0.86331067  1
  Mo  Mo175  1  0.29665743  0.09508003  0.36143958  1
  Mo  Mo176  1  0.00393216  0.40168715  0.50722021  1
  Mo  Mo177  1  0.11291989  0.68255137  0.62845266  1
  Mo  Mo178  1  0.41067475  -0.00171747  0.75555411  1
  Mo  Mo179  1  0.20331215  0.20311322  0.00025876  1
  Mo  Mo180  1  0.68976180  0.48926068  0.64038935  1
  Mo  Mo181  1  0.50245735  0.49057811  0.86965198  1
  Mo  Mo182  1  0.19451960  0.59201180  0.75746315  1
  Mo  Mo183  1  0.70623286  0.89643876  0.12481557  1
  Mo  Mo184  1  0.39863249  0.59952961  0.25289100  1
  Mo  Mo185  1  0.80586291  -0.00488222  -0.01614584  1
  Mo  Mo186  1  0.30328804  0.70530461  0.64369355  1
  Mo  Mo187  1  0.89940427  0.49060932  0.64586825  1
  Mo  Mo188  1  0.20770407  0.00936448  0.49849413  1
  Mo  Mo189  1  0.69320588  0.68950277  0.64030471  1
  Mo  Mo190  1  0.40406291  0.80511953  0.50099402  1
  Mo  Mo191  1  0.00406727  0.58982623  0.75226809  1
  Mo  Mo192  1  0.49597001  0.90679435  0.86556515  1
  Mo  Mo193  1  0.89575984  0.30864489  0.37496027  1
  Mo  Mo194  1  0.10733287  0.69995645  0.12234703  1
  Mo  Mo195  1  0.60712242  0.40296904  0.50023229  1
  Mo  Mo196  1  0.09659234  0.49337291  0.88482964  1
  Mo  Mo197  1  0.20335304  0.60629283  0.50036663  1
  Mo  Mo198  1  0.59838190  0.19294985  0.50273629  1
  Mo  Mo199  1  0.79197833  0.20114918  0.23974906  1
