# generated using pymatgen
data_HfZrTaTiMo
_symmetry_space_group_name_H-M   'P 1'
_cell_length_a   15.22036887
_cell_length_b   15.21544289
_cell_length_c   16.83194948
_cell_angle_alpha   89.99547790
_cell_angle_beta   90.03214281
_cell_angle_gamma   89.98901757
_symmetry_Int_Tables_number   1
_chemical_formula_structural   HfZrTaTiMo
_chemical_formula_sum   'Hf40 Zr40 Ta40 Ti40 Mo40'
_cell_volume   3898.02048982
_cell_formula_units_Z   40
loop_
 _symmetry_equiv_pos_site_id
 _symmetry_equiv_pos_as_xyz
  1  'x, y, z'
loop_
 _atom_site_type_symbol
 _atom_site_label
 _atom_site_symmetry_multiplicity
 _atom_site_fract_x
 _atom_site_fract_y
 _atom_site_fract_z
 _atom_site_occupancy
  Hf  Hf0  1  0.49031826  0.50106121  0.60883006  1
  Hf  Hf1  1  -0.01945300  0.20809819  0.74448262  1
  Hf  Hf2  1  0.00559246  0.79903486  -0.00504782  1
  Hf  Hf3  1  0.19545086  0.41164448  -0.01113005  1
  Hf  Hf4  1  0.80124746  0.02271649  0.75021486  1
  Hf  Hf5  1  0.19692537  0.01584041  0.24626432  1
  Hf  Hf6  1  0.81730011  0.20289256  0.03040553  1
  Hf  Hf7  1  0.89988099  0.10604968  0.60272764  1
  Hf  Hf8  1  0.49907033  0.48889231  0.12004394  1
  Hf  Hf9  1  0.72117200  0.69870723  0.36040430  1
  Hf  Hf10  1  -0.01402979  0.61810412  0.50502038  1
  Hf  Hf11  1  0.20161850  0.61558981  0.50215306  1
  Hf  Hf12  1  0.51715786  0.30041930  0.87848768  1
  Hf  Hf13  1  0.01827116  0.81501126  0.49862694  1
  Hf  Hf14  1  0.01063438  0.01292457  0.74377842  1
  Hf  Hf15  1  0.49981770  0.49595858  0.39536231  1
  Hf  Hf16  1  0.61267968  0.81313927  0.50335342  1
  Hf  Hf17  1  0.09845149  0.30228738  0.63250829  1
  Hf  Hf18  1  0.10309584  0.70874034  0.12862900  1
  Hf  Hf19  1  0.79337507  0.00499945  0.02463570  1
  Hf  Hf20  1  0.71787487  0.28623571  0.88376029  1
  Hf  Hf21  1  0.18508274  0.18996210  0.76680010  1
  Hf  Hf22  1  0.62292234  0.60158454  0.50276183  1
  Hf  Hf23  1  0.47448668  0.29290715  0.39661462  1
  Hf  Hf24  1  0.90628882  0.89675514  0.62517758  1
  Hf  Hf25  1  0.69165045  0.30280826  0.14035983  1
  Hf  Hf26  1  0.30481742  0.29371966  0.64079078  1
  Hf  Hf27  1  0.10134829  0.29989063  0.11724032  1
  Hf  Hf28  1  0.69803019  0.08745228  0.38297365  1
  Hf  Hf29  1  0.58046168  0.19265225  0.25483525  1
  Hf  Hf30  1  0.80541521  0.59279106  0.00801878  1
  Hf  Hf31  1  0.70020465  0.68388481  0.87400639  1
  Hf  Hf32  1  0.70245651  0.90563711  0.87204136  1
  Hf  Hf33  1  0.00241910  0.19958924  0.25114811  1
  Hf  Hf34  1  0.58881003  0.79200736  -0.00633216  1
  Hf  Hf35  1  0.59247104  0.60034787  0.25124738  1
  Hf  Hf36  1  0.89433732  0.08916765  0.38188944  1
  Hf  Hf37  1  0.50355608  0.29501718  0.61617468  1
  Hf  Hf38  1  0.50230663  0.89431291  0.12851197  1
  Hf  Hf39  1  0.50456755  0.69767800  0.38034388  1
  Zr  Zr40  1  0.10575893  0.69056117  0.87018608  1
  Zr  Zr41  1  0.80297151  0.79761397  -0.00337061  1
  Zr  Zr42  1  0.41504750  0.40238969  0.76028728  1
  Zr  Zr43  1  0.89559438  0.31082760  0.36817977  1
  Zr  Zr44  1  0.70044398  0.90188863  0.63068490  1
  Zr  Zr45  1  0.49846123  0.08562006  0.61689525  1
  Zr  Zr46  1  0.39850993  -0.00639101  0.49996506  1
  Zr  Zr47  1  0.10465129  0.72449294  0.63637132  1
  Zr  Zr48  1  0.28521403  0.88736894  0.62977154  1
  Zr  Zr49  1  0.58273748  0.79582590  0.75248814  1
  Zr  Zr50  1  0.59975308  0.00140872  -0.00309001  1
  Zr  Zr51  1  0.19731217  0.20464065  -0.02233470  1
  Zr  Zr52  1  0.40969665  0.01842119  0.24993359  1
  Zr  Zr53  1  0.81593792  0.78631233  0.75931055  1
  Zr  Zr54  1  0.39625473  -0.02031772  0.76804494  1
  Zr  Zr55  1  0.29791468  0.69590402  0.36577671  1
  Zr  Zr56  1  0.29959637  0.89645788  0.12923157  1
  Zr  Zr57  1  0.09440410  0.50635571  0.37765043  1
  Zr  Zr58  1  -0.01003073  0.61191497  0.74915227  1
  Zr  Zr59  1  0.29540409  0.89934396  0.36240691  1
  Zr  Zr60  1  0.18865369  -0.00300306  -0.01714942  1
  Zr  Zr61  1  0.59164804  0.00462939  0.76543460  1
  Zr  Zr62  1  0.60769886  0.19494997  0.74806693  1
  Zr  Zr63  1  0.28425197  0.09076405  0.63711725  1
  Zr  Zr64  1  0.29817242  0.10698937  0.11200853  1
  Zr  Zr65  1  0.90881155  0.91833585  0.87870372  1
  Zr  Zr66  1  0.88832017  0.51908854  0.36348680  1
  Zr  Zr67  1  0.40002724  0.39228618  0.25227489  1
  Zr  Zr68  1  0.30725380  0.68460572  0.64484263  1
  Zr  Zr69  1  0.70423217  0.09969124  0.59773053  1
  Zr  Zr70  1  0.20362230  0.39250863  0.25133761  1
  Zr  Zr71  1  0.70350390  0.70999604  0.13577604  1
  Zr  Zr72  1  0.19670800  0.39511450  0.50257389  1
  Zr  Zr73  1  0.29977932  0.49984251  0.11710370  1
  Zr  Zr74  1  0.19791393  0.59477603  0.25071697  1
  Zr  Zr75  1  0.00517112  0.21180526  0.49501770  1
  Zr  Zr76  1  0.51519864  0.90370695  0.36222077  1
  Zr  Zr77  1  0.60188722  0.58824092  0.74216733  1
  Zr  Zr78  1  0.39333284  0.79068124  0.50235338  1
  Zr  Zr79  1  0.40275831  0.60102520  -0.01662133  1
  Ta  Ta80  1  0.09791987  0.90597710  0.13052137  1
  Ta  Ta81  1  0.88827589  0.31807571  0.61445641  1
  Ta  Ta82  1  0.40399679  0.19564135  -0.02090445  1
  Ta  Ta83  1  0.69364445  0.30071406  0.36265994  1
  Ta  Ta84  1  0.60364507  0.58966985  0.00236401  1
  Ta  Ta85  1  0.90147264  0.88282950  0.13479128  1
  Ta  Ta86  1  0.09606093  0.90459203  0.35553581  1
  Ta  Ta87  1  0.30952108  0.49020753  0.39072453  1
  Ta  Ta88  1  0.39746204  -0.00969766  -0.01887304  1
  Ta  Ta89  1  0.49730839  0.10638070  0.11060636  1
  Ta  Ta90  1  0.90355603  0.30369156  0.88104057  1
  Ta  Ta91  1  0.09031659  0.50589478  0.12214948  1
  Ta  Ta92  1  0.90599964  0.49463846  0.88171934  1
  Ta  Ta93  1  0.09119565  0.10329978  0.11493040  1
  Ta  Ta94  1  0.61948330  0.39425894  0.74418255  1
  Ta  Ta95  1  0.20319329  0.19161819  0.50347837  1
  Ta  Ta96  1  0.08553222  0.31840165  0.87025504  1
  Ta  Ta97  1  -0.00562451  0.41242514  0.74581605  1
  Ta  Ta98  1  0.10126434  0.50859333  0.62886714  1
  Ta  Ta99  1  0.31399166  0.70988783  0.86276046  1
  Ta  Ta100  1  0.80345534  0.58236171  0.75541695  1
  Ta  Ta101  1  0.81563395  0.78281892  0.49901710  1
  Ta  Ta102  1  0.70286505  0.48293543  0.87807440  1
  Ta  Ta103  1  0.28141182  0.50945400  0.85577429  1
  Ta  Ta104  1  0.30299163  0.11663680  0.37907192  1
  Ta  Ta105  1  0.10457234  0.10119022  0.37533555  1
  Ta  Ta106  1  0.00056207  0.40623660  0.24256451  1
  Ta  Ta107  1  0.21110045  0.79852607  -0.00765036  1
  Ta  Ta108  1  0.49346045  0.69444062  0.12659580  1
  Ta  Ta109  1  0.80782462  0.39622681  0.74943784  1
  Ta  Ta110  1  0.29153720  0.49214376  0.64165499  1
  Ta  Ta111  1  0.19866939  0.60670758  -0.00231791  1
  Ta  Ta112  1  0.30955704  0.30024627  0.10697324  1
  Ta  Ta113  1  0.60725721  0.39952647  0.00268210  1
  Ta  Ta114  1  0.70046473  0.49798695  0.13896552  1
  Ta  Ta115  1  0.18896117  -0.00944031  0.49422711  1
  Ta  Ta116  1  0.90033474  0.88845177  0.36420706  1
  Ta  Ta117  1  0.30577979  0.70177596  0.12667735  1
  Ta  Ta118  1  0.09256440  0.71604667  0.36165741  1
  Ta  Ta119  1  0.79731367  0.18897790  0.24302052  1
  Ti  Ti120  1  0.50260042  0.70368774  0.61703035  1
  Ti  Ti121  1  0.79665851  0.41565502  0.49248461  1
  Ti  Ti122  1  0.79298016  0.22409771  0.49170079  1
  Ti  Ti123  1  0.70269839  0.49435981  0.35936117  1
  Ti  Ti124  1  -0.00777452  0.00364992  0.24460146  1
  Ti  Ti125  1  0.06698442  0.10799366  0.88815385  1
  Ti  Ti126  1  0.40621603  0.18270068  0.77197216  1
  Ti  Ti127  1  0.61382573  0.39164405  0.49897975  1
  Ti  Ti128  1  -0.00492673  0.41146075  0.50252979  1
  Ti  Ti129  1  0.39804321  0.58940818  0.25178134  1
  Ti  Ti130  1  0.41550805  0.60123327  0.76357278  1
  Ti  Ti131  1  0.10604000  0.30007285  0.37336832  1
  Ti  Ti132  1  -0.01381908  0.00823954  0.01353015  1
  Ti  Ti133  1  0.79945100  -0.00468796  0.23476602  1
  Ti  Ti134  1  0.60070263  0.20106197  0.49477023  1
  Ti  Ti135  1  0.72233268  0.69281930  0.62945909  1
  Ti  Ti136  1  0.80190023  0.39933250  0.01465647  1
  Ti  Ti137  1  0.40934574  0.78889725  0.25002694  1
  Ti  Ti138  1  0.29754196  0.30523512  0.86120974  1
  Ti  Ti139  1  0.89594675  0.49886315  0.13669763  1
  Ti  Ti140  1  0.40086605  0.40005028  -0.02098411  1
  Ti  Ti141  1  0.20246457  0.81143483  0.76771522  1
  Ti  Ti142  1  0.79303452  0.21364883  0.73618873  1
  Ti  Ti143  1  -0.01212333  0.61501625  0.24236716  1
  Ti  Ti144  1  0.00691444  0.00251566  0.49896531  1
  Ti  Ti145  1  0.19250019  -0.00343096  0.77534739  1
  Ti  Ti146  1  0.61253243  0.00053562  0.23507245  1
  Ti  Ti147  1  0.49287294  0.29417447  0.10911663  1
  Ti  Ti148  1  0.00086161  0.59473310  0.00132265  1
  Ti  Ti149  1  0.20255960  0.20569562  0.24779454  1
  Ti  Ti150  1  -0.01089070  0.39610243  0.01143503  1
  Ti  Ti151  1  0.71270635  0.89576182  0.36442775  1
  Ti  Ti152  1  0.87963967  0.11699390  0.88345341  1
  Ti  Ti153  1  0.61159648  0.19357711  0.00439287  1
  Ti  Ti154  1  0.58921417  0.39636274  0.25749389  1
  Ti  Ti155  1  0.00831124  0.81510500  0.76217323  1
  Ti  Ti156  1  0.38905719  0.20702372  0.24493086  1
  Ti  Ti157  1  0.49848698  0.09845725  0.39140863  1
  Ti  Ti158  1  0.71033697  0.48808172  0.62256350  1
  Ti  Ti159  1  0.89533626  0.51119167  0.62034523  1
  Mo  Mo160  1  0.70234079  0.30806716  0.61288776  1
  Mo  Mo161  1  0.79729336  0.39615549  0.24583128  1
  Mo  Mo162  1  0.19644303  0.59875367  0.74881002  1
  Mo  Mo163  1  0.80882987  0.80189115  0.24555330  1
  Mo  Mo164  1  0.28784457  0.29213843  0.38023539  1
  Mo  Mo165  1  0.30095575  0.10243834  0.87146745  1
  Mo  Mo166  1  0.10133397  0.09755735  0.61925171  1
  Mo  Mo167  1  0.10838759  0.92014307  0.63060512  1
  Mo  Mo168  1  0.40529155  0.79180604  0.74563630  1
  Mo  Mo169  1  0.80285379  0.59794925  0.23642896  1
  Mo  Mo170  1  0.90704048  0.09485693  0.13778617  1
  Mo  Mo171  1  0.50237968  0.68910968  0.87628003  1
  Mo  Mo172  1  0.09577856  0.90286336  0.88093255  1
  Mo  Mo173  1  0.39771111  0.59449651  0.50542806  1
  Mo  Mo174  1  0.59952345  0.80472326  0.25097921  1
  Mo  Mo175  1  0.51441099  0.49664000  0.87841165  1
  Mo  Mo176  1  0.48841483  0.88016808  0.88576687  1
  Mo  Mo177  1  0.09073120  0.49743650  0.87915996  1
  Mo  Mo178  1  0.29577627  0.89052985  0.87680945  1
  Mo  Mo179  1  0.90026735  0.68744572  0.88200553  1
  Mo  Mo180  1  0.49790514  0.89197424  0.62276248  1
  Mo  Mo181  1  0.80479563  -0.03227100  0.48972579  1
  Mo  Mo182  1  0.91029974  0.68989571  0.12281459  1
  Mo  Mo183  1  0.69079754  0.10372092  0.13734792  1
  Mo  Mo184  1  0.70984984  0.10756948  0.88156292  1
  Mo  Mo185  1  0.39643286  0.79571212  0.00239084  1
  Mo  Mo186  1  0.19346398  0.80731643  0.49155447  1
  Mo  Mo187  1  0.20195830  0.80577045  0.24156533  1
  Mo  Mo188  1  -0.00323139  0.20322281  0.00135784  1
  Mo  Mo189  1  0.79764867  0.59727801  0.50226797  1
  Mo  Mo190  1  0.90190578  0.30839087  0.14141064  1
  Mo  Mo191  1  0.50589855  0.09895438  0.88901441  1
  Mo  Mo192  1  0.60615324  -0.00508267  0.49292310  1
  Mo  Mo193  1  0.69790588  0.89842823  0.13409533  1
  Mo  Mo194  1  0.19127511  0.40122356  0.75261644  1
  Mo  Mo195  1  0.00311966  0.80586480  0.24421394  1
  Mo  Mo196  1  0.90793183  0.70774188  0.36938873  1
  Mo  Mo197  1  0.39065535  0.19601699  0.50708651  1
  Mo  Mo198  1  0.89672802  0.70363663  0.62719628  1
  Mo  Mo199  1  0.38916932  0.39717418  0.51296947  1
