# generated using pymatgen
data_HfZrTaTiMo
_symmetry_space_group_name_H-M   'P 1'
_cell_length_a   15.19861201
_cell_length_b   15.21277221
_cell_length_c   16.87611721
_cell_angle_alpha   90.00067884
_cell_angle_beta   90.07514169
_cell_angle_gamma   89.94680197
_symmetry_Int_Tables_number   1
_chemical_formula_structural   HfZrTaTiMo
_chemical_formula_sum   'Hf40 Zr40 Ta40 Ti40 Mo40'
_cell_volume   3901.97302931
_cell_formula_units_Z   40
loop_
 _symmetry_equiv_pos_site_id
 _symmetry_equiv_pos_as_xyz
  1  'x, y, z'
loop_
 _atom_site_type_symbol
 _atom_site_label
 _atom_site_symmetry_multiplicity
 _atom_site_fract_x
 _atom_site_fract_y
 _atom_site_fract_z
 _atom_site_occupancy
  Hf  Hf0  1  0.59334012  0.19999806  0.50390532  1
  Hf  Hf1  1  0.89947094  0.89994527  0.63099719  1
  Hf  Hf2  1  0.49583403  0.88892407  0.88806723  1
  Hf  Hf3  1  0.18668464  -0.01120917  0.24914561  1
  Hf  Hf4  1  0.48657156  0.29581170  0.11993088  1
  Hf  Hf5  1  0.48938143  0.30155556  0.86898799  1
  Hf  Hf6  1  0.69136796  0.89167785  0.63322621  1
  Hf  Hf7  1  0.32041801  0.71024067  0.87790399  1
  Hf  Hf8  1  0.40137327  0.60239077  0.73639111  1
  Hf  Hf9  1  0.00108750  0.58777268  0.25025492  1
  Hf  Hf10  1  0.08632430  0.11477012  0.85797651  1
  Hf  Hf11  1  0.09067946  0.28351360  0.12951903  1
  Hf  Hf12  1  0.49604421  0.09740851  0.12423044  1
  Hf  Hf13  1  0.08480528  0.28731851  0.37950233  1
  Hf  Hf14  1  0.11151053  0.48858779  0.38306717  1
  Hf  Hf15  1  0.18856231  0.60395130  0.73456882  1
  Hf  Hf16  1  0.10364859  0.90462981  0.87639587  1
  Hf  Hf17  1  0.49357748  0.89391560  0.12326319  1
  Hf  Hf18  1  0.58988251  0.41129259  0.49468523  1
  Hf  Hf19  1  0.39908790  0.20388671  0.50486606  1
  Hf  Hf20  1  0.29978512  0.90962060  0.62336516  1
  Hf  Hf21  1  0.91110954  0.50813030  0.88151804  1
  Hf  Hf22  1  0.37642939  0.20130436  -0.01177058  1
  Hf  Hf23  1  0.10341178  0.70187057  0.12971600  1
  Hf  Hf24  1  0.68946577  0.89625557  0.12118340  1
  Hf  Hf25  1  0.19726026  0.19545760  0.25675151  1
  Hf  Hf26  1  0.90846675  0.70367739  0.36665260  1
  Hf  Hf27  1  0.48962953  0.10792273  0.36731672  1
  Hf  Hf28  1  0.49706277  0.50465782  0.87350902  1
  Hf  Hf29  1  0.69898935  0.09625323  0.37404503  1
  Hf  Hf30  1  0.80034950  0.00357899  0.23738567  1
  Hf  Hf31  1  0.09744405  0.68498525  0.88646524  1
  Hf  Hf32  1  0.29130086  0.30788431  0.37938606  1
  Hf  Hf33  1  0.52685700  0.69447135  0.36835722  1
  Hf  Hf34  1  0.68743506  0.30229452  0.12697354  1
  Hf  Hf35  1  0.79534851  0.41867788  0.24383114  1
  Hf  Hf36  1  0.69536378  0.30681489  0.37066278  1
  Hf  Hf37  1  0.60840513  0.60326584  0.00357577  1
  Hf  Hf38  1  0.59787601  0.18581590  -0.00994379  1
  Hf  Hf39  1  0.69322084  0.09523831  0.63484379  1
  Zr  Zr40  1  0.69144375  0.89568457  0.87752467  1
  Zr  Zr41  1  0.20991230  0.80901038  -0.00154367  1
  Zr  Zr42  1  0.21192581  0.80407150  0.75100792  1
  Zr  Zr43  1  0.01097071  0.79284501  0.75001509  1
  Zr  Zr44  1  -0.00266520  0.18262607  0.51508699  1
  Zr  Zr45  1  0.50264528  0.49409332  0.11545474  1
  Zr  Zr46  1  0.68802972  0.31700482  0.63658987  1
  Zr  Zr47  1  0.80004212  0.59927177  0.49636576  1
  Zr  Zr48  1  0.90737618  0.29336445  0.86320370  1
  Zr  Zr49  1  0.01185427  0.38894387  -0.00413379  1
  Zr  Zr50  1  0.71808292  0.69061201  0.63227133  1
  Zr  Zr51  1  0.89172023  0.30138599  0.63960582  1
  Zr  Zr52  1  0.42380739  0.58998870  0.50364359  1
  Zr  Zr53  1  0.41044066  0.80510066  0.50043772  1
  Zr  Zr54  1  0.21736113  0.58197397  0.24682579  1
  Zr  Zr55  1  0.00307331  0.41454116  0.74316305  1
  Zr  Zr56  1  0.80229249  0.00050984  0.50365322  1
  Zr  Zr57  1  0.52130944  0.70717183  0.62860699  1
  Zr  Zr58  1  0.79865985  0.20465596  0.50629523  1
  Zr  Zr59  1  0.58943905  0.19221999  0.75853222  1
  Zr  Zr60  1  0.39167362  0.39920610  0.26156363  1
  Zr  Zr61  1  -0.00514276  0.00312035  0.00215097  1
  Zr  Zr62  1  0.50194261  0.90165773  0.36515264  1
  Zr  Zr63  1  0.19678958  0.19144466  0.50633899  1
  Zr  Zr64  1  0.21355112  0.58679374  0.01054748  1
  Zr  Zr65  1  0.29480081  0.90676363  0.12748031  1
  Zr  Zr66  1  0.78698760  0.01271765  0.00968840  1
  Zr  Zr67  1  0.20920198  0.60546181  0.50703243  1
  Zr  Zr68  1  0.31041058  0.69697157  0.37605374  1
  Zr  Zr69  1  0.79840850  0.20405718  -0.00641739  1
  Zr  Zr70  1  0.28402981  0.31938761  0.12761606  1
  Zr  Zr71  1  0.28405598  0.89718868  0.37686101  1
  Zr  Zr72  1  0.70752257  0.49688479  0.88615234  1
  Zr  Zr73  1  0.89323287  0.89620452  0.87983050  1
  Zr  Zr74  1  0.92455893  0.69005751  0.62370828  1
  Zr  Zr75  1  0.80559632  0.20279863  0.24118892  1
  Zr  Zr76  1  0.41770111  0.59205755  0.25333284  1
  Zr  Zr77  1  -0.00458079  0.38545256  0.24973937  1
  Zr  Zr78  1  0.29391116  0.49601818  0.86660784  1
  Zr  Zr79  1  0.11154800  0.72417034  0.35972329  1
  Ta  Ta80  1  0.51555708  0.70777290  0.13582829  1
  Ta  Ta81  1  0.19859575  0.39869480  0.52444503  1
  Ta  Ta82  1  0.62068963  0.79781226  0.49358447  1
  Ta  Ta83  1  0.39439006  0.40121296  0.50991524  1
  Ta  Ta84  1  -0.00813323  0.39960585  0.50967796  1
  Ta  Ta85  1  0.08493593  0.51437282  0.61434228  1
  Ta  Ta86  1  0.41547612  0.81429972  0.74536572  1
  Ta  Ta87  1  0.70915444  0.69933188  0.86876387  1
  Ta  Ta88  1  0.17620760  -0.00788472  0.50319249  1
  Ta  Ta89  1  -0.00750109  0.00016497  0.23493881  1
  Ta  Ta90  1  0.90638998  0.10027415  0.37140167  1
  Ta  Ta91  1  0.89975963  0.69460965  0.87000645  1
  Ta  Ta92  1  0.60287997  0.38837688  -0.00858558  1
  Ta  Ta93  1  0.39367815  0.39461569  0.73749423  1
  Ta  Ta94  1  0.81497877  0.61604004  0.00475630  1
  Ta  Ta95  1  0.89606090  0.88627295  0.11793972  1
  Ta  Ta96  1  0.62196580  0.59308709  0.23923942  1
  Ta  Ta97  1  0.90245661  0.69679284  0.13652535  1
  Ta  Ta98  1  0.30994233  0.92161665  0.87233370  1
  Ta  Ta99  1  0.48997640  0.29153893  0.63659042  1
  Ta  Ta100  1  0.81089715  0.80369936  0.49175596  1
  Ta  Ta101  1  0.58798030  0.20449172  0.25111230  1
  Ta  Ta102  1  0.31742834  0.70523739  0.12808214  1
  Ta  Ta103  1  0.61857230  0.58731811  0.75211959  1
  Ta  Ta104  1  0.20482515  0.40253089  0.72379138  1
  Ta  Ta105  1  0.39393191  0.01053815  0.50006876  1
  Ta  Ta106  1  0.11394027  0.48195099  0.12443094  1
  Ta  Ta107  1  0.69597683  0.51297062  0.37339550  1
  Ta  Ta108  1  0.20672991  0.01660078  0.75201455  1
  Ta  Ta109  1  0.47990605  0.08226342  0.87602508  1
  Ta  Ta110  1  0.60092087  0.00368028  0.24596927  1
  Ta  Ta111  1  0.91087436  0.09474343  0.65312412  1
  Ta  Ta112  1  0.80609927  0.80394385  0.25198384  1
  Ta  Ta113  1  0.71341259  0.70403949  0.13267400  1
  Ta  Ta114  1  0.89937534  0.49152413  0.38047081  1
  Ta  Ta115  1  0.20194606  0.02321579  -0.00593203  1
  Ta  Ta116  1  0.59000317  -0.00292348  0.50203300  1
  Ta  Ta117  1  0.01786577  0.81659616  0.50165853  1
  Ta  Ta118  1  0.39172507  0.00002839  0.00411919  1
  Ta  Ta119  1  0.91355700  0.90626885  0.37128163  1
  Ti  Ti120  1  0.51783859  0.49155077  0.63600486  1
  Ti  Ti121  1  0.41077891  0.61356672  0.00626869  1
  Ti  Ti122  1  0.58750902  0.40549610  0.25919606  1
  Ti  Ti123  1  0.60319285  0.79100998  0.00091903  1
  Ti  Ti124  1  0.37988264  0.18979672  0.75351071  1
  Ti  Ti125  1  0.29308327  0.11318467  0.12632402  1
  Ti  Ti126  1  0.09765410  0.09577720  0.12282479  1
  Ti  Ti127  1  0.51600031  0.70056595  0.86479097  1
  Ti  Ti128  1  -0.01430296  0.78210789  0.00129518  1
  Ti  Ti129  1  0.80066819  0.39683762  0.00146696  1
  Ti  Ti130  1  0.79622186  0.40471324  0.50198397  1
  Ti  Ti131  1  0.30484523  0.71001410  0.61983026  1
  Ti  Ti132  1  0.08660280  0.08105741  0.37350977  1
  Ti  Ti133  1  0.71203799  0.50446460  0.11435052  1
  Ti  Ti134  1  0.79754507  -0.00034303  0.75743708  1
  Ti  Ti135  1  0.09842074  0.28760896  0.63380758  1
  Ti  Ti136  1  0.79939762  0.79369299  0.75188354  1
  Ti  Ti137  1  0.18675666  0.21490808  -0.01051562  1
  Ti  Ti138  1  0.91076816  0.50215372  0.11269587  1
  Ti  Ti139  1  -0.00764887  0.18964409  -0.00217906  1
  Ti  Ti140  1  0.38368460  0.40817276  -0.00532183  1
  Ti  Ti141  1  0.70246303  0.89594676  0.36964565  1
  Ti  Ti142  1  0.57881274  -0.01127789  0.75041664  1
  Ti  Ti143  1  0.39699386  0.80181732  0.25285161  1
  Ti  Ti144  1  0.79430172  0.19772586  0.76329137  1
  Ti  Ti145  1  0.89789869  0.29897769  0.11942855  1
  Ti  Ti146  1  0.29062026  0.09719520  0.37702283  1
  Ti  Ti147  1  0.29842591  0.10289340  0.62737389  1
  Ti  Ti148  1  0.88400287  0.50393298  0.63084768  1
  Ti  Ti149  1  0.89450510  0.29791276  0.37911310  1
  Ti  Ti150  1  0.49878641  0.91073841  0.62220514  1
  Ti  Ti151  1  0.78094510  0.41132809  0.75641544  1
  Ti  Ti152  1  0.09706690  0.91318455  0.63517910  1
  Ti  Ti153  1  0.10480923  0.49559827  0.87683043  1
  Ti  Ti154  1  0.11748549  0.30764525  0.85472039  1
  Ti  Ti155  1  0.39142582  0.01356931  0.24843701  1
  Ti  Ti156  1  0.71274634  0.70395912  0.36213813  1
  Ti  Ti157  1  0.09310017  0.89500905  0.11732541  1
  Ti  Ti158  1  0.00524923  0.60359878  0.48799271  1
  Ti  Ti159  1  0.69134501  0.09120176  0.86912822  1
  Mo  Mo160  1  0.50965156  0.49451811  0.37436673  1
  Mo  Mo161  1  0.20468454  0.21019372  0.74063354  1
  Mo  Mo162  1  0.19011491  0.40389146  0.25606880  1
  Mo  Mo163  1  0.49129125  0.09069300  0.62609554  1
  Mo  Mo164  1  0.40735165  0.79099800  0.00341823  1
  Mo  Mo165  1  0.00272371  0.20396852  0.74274240  1
  Mo  Mo166  1  0.00039321  0.81216000  0.23884650  1
  Mo  Mo167  1  0.80784113  0.59645599  0.24761459  1
  Mo  Mo168  1  0.68771878  0.10425180  0.13254971  1
  Mo  Mo169  1  0.90837374  0.10629281  0.12447257  1
  Mo  Mo170  1  0.89188446  0.09501004  0.85470979  1
  Mo  Mo171  1  -0.00176574  -0.00404408  0.75775432  1
  Mo  Mo172  1  0.81168339  0.59484027  0.75574229  1
  Mo  Mo173  1  0.20182200  0.38854031  -0.00847441  1
  Mo  Mo174  1  0.59932081  0.79431213  0.75491190  1
  Mo  Mo175  1  0.00353245  0.59651135  0.01346826  1
  Mo  Mo176  1  0.10881541  0.71268167  0.61372699  1
  Mo  Mo177  1  0.29088339  0.30454532  0.86506979  1
  Mo  Mo178  1  0.59056660  0.00312005  -0.00251286  1
  Mo  Mo179  1  0.60751615  0.80090428  0.25041111  1
  Mo  Mo180  1  0.08968148  0.90614737  0.37174208  1
  Mo  Mo181  1  0.39954474  0.00366861  0.74815947  1
  Mo  Mo182  1  0.19894947  0.80769183  0.51168827  1
  Mo  Mo183  1  0.28811130  0.10674674  0.87472096  1
  Mo  Mo184  1  0.39305419  0.19413736  0.25287933  1
  Mo  Mo185  1  -0.00337786  0.18185280  0.24953165  1
  Mo  Mo186  1  0.61300474  0.60411195  0.49742019  1
  Mo  Mo187  1  0.30731472  0.50314181  0.11826888  1
  Mo  Mo188  1  0.49974593  0.29995004  0.37365352  1
  Mo  Mo189  1  0.10256268  0.09054666  0.64066688  1
  Mo  Mo190  1  0.00462901  0.59827801  0.75004418  1
  Mo  Mo191  1  0.59043280  0.40149083  0.75682558  1
  Mo  Mo192  1  -0.00579386  -0.00082084  0.50440104  1
  Mo  Mo193  1  0.69553914  0.30083114  0.87297337  1
  Mo  Mo194  1  0.20283582  0.79829647  0.23663937  1
  Mo  Mo195  1  0.79762086  0.79235097  0.00195256  1
  Mo  Mo196  1  0.30524020  0.50162826  0.62558649  1
  Mo  Mo197  1  0.30264383  0.49267981  0.39370849  1
  Mo  Mo198  1  0.69966660  0.49869732  0.62757522  1
  Mo  Mo199  1  0.30005756  0.29641423  0.62389833  1
