# generated using pymatgen
data_HfZrTaTiMo
_symmetry_space_group_name_H-M   'P 1'
_cell_length_a   15.21765346
_cell_length_b   15.21544180
_cell_length_c   16.81216078
_cell_angle_alpha   90.00020171
_cell_angle_beta   89.95963587
_cell_angle_gamma   90.01487753
_symmetry_Int_Tables_number   1
_chemical_formula_structural   HfZrTaTiMo
_chemical_formula_sum   'Hf40 Zr40 Ta40 Ti40 Mo40'
_cell_volume   3892.74243528
_cell_formula_units_Z   40
loop_
 _symmetry_equiv_pos_site_id
 _symmetry_equiv_pos_as_xyz
  1  'x, y, z'
loop_
 _atom_site_type_symbol
 _atom_site_label
 _atom_site_symmetry_multiplicity
 _atom_site_fract_x
 _atom_site_fract_y
 _atom_site_fract_z
 _atom_site_occupancy
  Hf  Hf0  1  0.91548838  0.90115128  0.63117733  1
  Hf  Hf1  1  0.09335036  0.89285055  0.11324679  1
  Hf  Hf2  1  0.79258110  0.40368283  0.50927501  1
  Hf  Hf3  1  0.78258870  0.19864186  0.50094333  1
  Hf  Hf4  1  0.28978058  0.50029557  0.37522931  1
  Hf  Hf5  1  0.58690567  0.40160915  0.74612968  1
  Hf  Hf6  1  0.40789946  0.59409566  0.01216575  1
  Hf  Hf7  1  0.30534603  0.90084359  0.09851379  1
  Hf  Hf8  1  0.39839188  0.60537396  0.50631263  1
  Hf  Hf9  1  0.19745505  0.19908966  -0.02189137  1
  Hf  Hf10  1  0.39843868  0.60272313  0.24942713  1
  Hf  Hf11  1  0.10377863  0.70469761  0.62012017  1
  Hf  Hf12  1  0.20632555  -0.00172623  0.76905006  1
  Hf  Hf13  1  0.40608755  0.00397631  0.51157623  1
  Hf  Hf14  1  0.91507345  0.10402171  0.62166885  1
  Hf  Hf15  1  0.08226204  0.29828900  0.61675816  1
  Hf  Hf16  1  0.79957161  0.61452996  0.24214601  1
  Hf  Hf17  1  0.90789037  0.50213755  0.36812372  1
  Hf  Hf18  1  0.68219845  0.89912323  0.64983081  1
  Hf  Hf19  1  0.80596656  0.00967363  -0.01027815  1
  Hf  Hf20  1  0.80332952  0.38721244  0.24897636  1
  Hf  Hf21  1  0.09187773  0.30151864  0.11552511  1
  Hf  Hf22  1  0.18613728  0.40466306  0.74200792  1
  Hf  Hf23  1  0.69037214  0.50178515  0.13998177  1
  Hf  Hf24  1  0.38087031  0.39412981  0.51151544  1
  Hf  Hf25  1  0.31657822  0.88706202  0.89250031  1
  Hf  Hf26  1  0.89522153  0.29131801  0.11968377  1
  Hf  Hf27  1  0.50723847  0.69338975  0.36947083  1
  Hf  Hf28  1  0.20302754  0.20545620  0.76501591  1
  Hf  Hf29  1  0.21062887  0.19711794  0.50926034  1
  Hf  Hf30  1  0.29127929  0.28595477  0.37485078  1
  Hf  Hf31  1  0.88495256  0.30123978  0.87194348  1
  Hf  Hf32  1  0.71052123  0.10242036  0.64893117  1
  Hf  Hf33  1  0.79838701  0.78589900  0.74623286  1
  Hf  Hf34  1  0.38773834  0.81449647  0.25088363  1
  Hf  Hf35  1  0.59549706  0.80025617  0.50741508  1
  Hf  Hf36  1  0.39912277  0.38564726  0.25523566  1
  Hf  Hf37  1  0.09306489  0.49676645  0.14804158  1
  Hf  Hf38  1  0.60825247  0.00639002  0.50143238  1
  Hf  Hf39  1  0.12349230  0.89326900  0.36611648  1
  Zr  Zr40  1  0.91082584  0.90240961  0.37387350  1
  Zr  Zr41  1  0.00847561  0.59626919  0.00173769  1
  Zr  Zr42  1  0.48751838  0.29405922  0.10693754  1
  Zr  Zr43  1  0.80119631  0.59761604  0.50511646  1
  Zr  Zr44  1  0.79531596  0.80204569  0.50708025  1
  Zr  Zr45  1  0.30266505  0.68401424  0.87679524  1
  Zr  Zr46  1  0.79625925  0.80585262  0.00353200  1
  Zr  Zr47  1  0.39537723  0.61961973  0.72429378  1
  Zr  Zr48  1  0.21238646  -0.00651454  0.23493784  1
  Zr  Zr49  1  0.90302412  0.69308338  0.87943342  1
  Zr  Zr50  1  0.58839092  0.38853505  0.50504978  1
  Zr  Zr51  1  0.91116852  0.71344291  0.12564905  1
  Zr  Zr52  1  0.90763881  0.10696989  0.38299857  1
  Zr  Zr53  1  0.68809324  0.29309824  0.36626016  1
  Zr  Zr54  1  0.59782099  0.41311502  -0.00208059  1
  Zr  Zr55  1  0.60811155  0.61301543  0.73317729  1
  Zr  Zr56  1  0.10832517  0.08913195  0.62732438  1
  Zr  Zr57  1  0.91297502  0.69167151  0.61762330  1
  Zr  Zr58  1  0.40356138  0.20848525  0.75629829  1
  Zr  Zr59  1  0.10392251  0.88376527  0.89090987  1
  Zr  Zr60  1  0.00772406  0.20967789  0.25348563  1
  Zr  Zr61  1  0.58016421  0.19729272  0.23775974  1
  Zr  Zr62  1  0.79419807  0.59889660  0.01360535  1
  Zr  Zr63  1  0.09764687  0.68865146  0.36889199  1
  Zr  Zr64  1  0.50513197  0.90395292  0.11689350  1
  Zr  Zr65  1  0.70127814  0.09604848  0.12529065  1
  Zr  Zr66  1  0.00084941  0.19810421  0.76564789  1
  Zr  Zr67  1  0.39252606  0.80538533  0.49869517  1
  Zr  Zr68  1  0.20622601  0.59621114  0.01165427  1
  Zr  Zr69  1  0.50056511  0.90836044  0.36771440  1
  Zr  Zr70  1  0.80333456  -0.00476779  0.50304011  1
  Zr  Zr71  1  0.51781439  0.10441448  0.64136975  1
  Zr  Zr72  1  0.11277063  0.10157963  0.37663425  1
  Zr  Zr73  1  0.69322554  0.30604116  0.86937850  1
  Zr  Zr74  1  0.29254646  0.29898699  0.11735253  1
  Zr  Zr75  1  0.68661709  0.50513895  0.36182305  1
  Zr  Zr76  1  0.48790172  0.51098630  0.86875521  1
  Zr  Zr77  1  -0.01017694  0.18977906  -0.01384151  1
  Zr  Zr78  1  0.38028911  0.40720802  0.73187568  1
  Zr  Zr79  1  0.19296140  0.41276968  -0.00673928  1
  Ta  Ta80  1  0.31301658  0.08864045  0.37644036  1
  Ta  Ta81  1  0.10003912  0.09825289  0.11615674  1
  Ta  Ta82  1  0.79894328  0.81133482  0.24653876  1
  Ta  Ta83  1  0.80277942  0.40286671  0.00717369  1
  Ta  Ta84  1  0.59233986  0.18538097  -0.00738113  1
  Ta  Ta85  1  0.48968534  0.30121357  0.88887539  1
  Ta  Ta86  1  0.78775991  0.20037576  0.00071617  1
  Ta  Ta87  1  0.90207809  0.89467018  0.87367022  1
  Ta  Ta88  1  0.80693091  0.58778495  0.73764097  1
  Ta  Ta89  1  0.19888233  0.59480522  0.73532166  1
  Ta  Ta90  1  0.60473978  -0.00425607  0.24856588  1
  Ta  Ta91  1  0.88963120  0.29673809  0.62421249  1
  Ta  Ta92  1  0.71044078  0.50869464  0.87126306  1
  Ta  Ta93  1  0.41056547  -0.00901538  0.75668264  1
  Ta  Ta94  1  0.59845354  0.79408331  -0.00081326  1
  Ta  Ta95  1  0.00727299  -0.00342553  0.76698533  1
  Ta  Ta96  1  0.01168923  0.79529340  0.75600652  1
  Ta  Ta97  1  0.70242072  0.70585449  0.37089647  1
  Ta  Ta98  1  0.90085661  0.70244114  0.37292404  1
  Ta  Ta99  1  0.50005351  0.50056746  0.61927640  1
  Ta  Ta100  1  0.69251344  0.69861532  0.87274783  1
  Ta  Ta101  1  0.10542509  0.70130412  0.14098776  1
  Ta  Ta102  1  0.70459967  0.10574603  0.86045405  1
  Ta  Ta103  1  0.40806397  0.02220510  0.24034951  1
  Ta  Ta104  1  0.69677820  0.09353263  0.36430003  1
  Ta  Ta105  1  0.80481490  0.00033511  0.24864493  1
  Ta  Ta106  1  0.60738663  -0.00281204  -0.01637081  1
  Ta  Ta107  1  0.90188093  0.49058795  0.87462829  1
  Ta  Ta108  1  0.00551780  0.59512192  0.75184195  1
  Ta  Ta109  1  0.50234523  0.11061417  0.37777894  1
  Ta  Ta110  1  0.81395981  0.00057398  0.76009609  1
  Ta  Ta111  1  0.19893273  0.59945813  0.50609525  1
  Ta  Ta112  1  0.60455065  0.60219034  0.51353163  1
  Ta  Ta113  1  0.21171987  0.79048858  0.75237230  1
  Ta  Ta114  1  0.68147852  0.29000243  0.63553430  1
  Ta  Ta115  1  0.69756294  0.89362970  0.86362600  1
  Ta  Ta116  1  0.49915147  0.49583306  0.13792187  1
  Ta  Ta117  1  0.30725333  0.09799306  0.63722795  1
  Ta  Ta118  1  0.79419488  0.40369378  0.73548632  1
  Ta  Ta119  1  0.30244176  0.89742648  0.63723414  1
  Ti  Ti120  1  0.09475946  0.49424394  0.36883316  1
  Ti  Ti121  1  0.70131893  0.89788563  0.36838396  1
  Ti  Ti122  1  0.08250519  0.32160811  0.88102021  1
  Ti  Ti123  1  0.30425002  0.32530922  0.88267821  1
  Ti  Ti124  1  0.30416967  0.70480046  0.12606303  1
  Ti  Ti125  1  -0.01035310  0.41005924  0.74254492  1
  Ti  Ti126  1  0.49861338  0.71253774  0.87535090  1
  Ti  Ti127  1  0.70220096  0.89755998  0.12501058  1
  Ti  Ti128  1  0.32098544  0.09659216  0.88315409  1
  Ti  Ti129  1  0.41117876  0.20233904  0.51540979  1
  Ti  Ti130  1  0.21469835  -0.00949124  0.50346361  1
  Ti  Ti131  1  -0.00038982  0.00045074  -0.00848287  1
  Ti  Ti132  1  0.20530168  0.80267239  0.50271272  1
  Ti  Ti133  1  0.10242011  0.51221629  0.87061799  1
  Ti  Ti134  1  0.60807717  0.79471779  0.24433624  1
  Ti  Ti135  1  0.20349106  0.60339941  0.24943941  1
  Ti  Ti136  1  0.10818235  0.89829116  0.63140752  1
  Ti  Ti137  1  0.49893203  0.49352951  0.37173204  1
  Ti  Ti138  1  0.50811729  0.69886397  0.13037781  1
  Ti  Ti139  1  0.90197973  0.91672625  0.12427457  1
  Ti  Ti140  1  0.20122188  0.00802948  -0.00737494  1
  Ti  Ti141  1  0.49214451  0.29306575  0.37709882  1
  Ti  Ti142  1  0.29025117  0.71263504  0.37103215  1
  Ti  Ti143  1  0.80406895  0.18898704  0.24665801  1
  Ti  Ti144  1  0.01887632  -0.00371264  0.49851526  1
  Ti  Ti145  1  0.00785503  0.79923689  0.49293495  1
  Ti  Ti146  1  0.90675450  0.49233362  0.13607763  1
  Ti  Ti147  1  0.31830806  0.10602005  0.10412352  1
  Ti  Ti148  1  0.60338256  0.60897576  0.00329919  1
  Ti  Ti149  1  0.18558976  0.40773064  0.51193347  1
  Ti  Ti150  1  0.29986171  0.49116641  0.13648850  1
  Ti  Ti151  1  0.18691966  0.38284649  0.25866606  1
  Ti  Ti152  1  0.90231969  0.30321286  0.38825454  1
  Ti  Ti153  1  0.21384692  0.18645758  0.24049369  1
  Ti  Ti154  1  0.19421180  0.78087264  0.00115223  1
  Ti  Ti155  1  0.69063490  0.30193046  0.12459117  1
  Ti  Ti156  1  0.00211270  0.00689134  0.24220656  1
  Ti  Ti157  1  0.00116808  0.80379787  0.25236320  1
  Ti  Ti158  1  0.08701148  0.30698191  0.39492081  1
  Ti  Ti159  1  0.50323467  0.89802963  0.88126976  1
  Mo  Mo160  1  0.90855024  0.48982061  0.62445235  1
  Mo  Mo161  1  0.58939579  0.39746207  0.24805998  1
  Mo  Mo162  1  0.40466719  0.80657243  0.74957474  1
  Mo  Mo163  1  0.00265464  0.80186337  -0.00000714  1
  Mo  Mo164  1  0.30033170  0.90792735  0.37467233  1
  Mo  Mo165  1  0.39603505  0.20211221  -0.01756762  1
  Mo  Mo166  1  0.69992062  0.69911547  0.62497339  1
  Mo  Mo167  1  0.40933217  0.78824559  0.00506111  1
  Mo  Mo168  1  0.41519863  0.00835210  -0.00890791  1
  Mo  Mo169  1  0.58441562  0.80109574  0.75612856  1
  Mo  Mo170  1  0.49395320  0.90375856  0.63596244  1
  Mo  Mo171  1  0.80377732  0.20573083  0.74394844  1
  Mo  Mo172  1  0.29257535  0.71011343  0.62144361  1
  Mo  Mo173  1  -0.01198938  0.40618817  -0.00214466  1
  Mo  Mo174  1  -0.00126736  0.39180813  0.25975320  1
  Mo  Mo175  1  0.50803549  0.09873014  0.86851285  1
  Mo  Mo176  1  0.69940104  0.49438352  0.62501356  1
  Mo  Mo177  1  -0.00145094  0.60300027  0.25039194  1
  Mo  Mo178  1  0.10640073  0.09365083  0.88100552  1
  Mo  Mo179  1  0.50286589  0.71330475  0.61915494  1
  Mo  Mo180  1  0.28583802  0.50383295  0.61223980  1
  Mo  Mo181  1  0.59790726  0.20746331  0.76557294  1
  Mo  Mo182  1  -0.00660799  0.40782797  0.50153147  1
  Mo  Mo183  1  0.49465018  0.29773664  0.62362519  1
  Mo  Mo184  1  0.29422816  0.50204618  0.86693064  1
  Mo  Mo185  1  0.10386017  0.69351440  0.86547673  1
  Mo  Mo186  1  0.00963309  0.59117080  0.49535365  1
  Mo  Mo187  1  0.20581870  0.79327977  0.23884288  1
  Mo  Mo188  1  0.59435498  0.19325390  0.49805883  1
  Mo  Mo189  1  0.28767594  0.28998749  0.62270125  1
  Mo  Mo190  1  0.89669341  0.09474828  0.87117921  1
  Mo  Mo191  1  0.90985666  0.09332230  0.12767597  1
  Mo  Mo192  1  -0.00238166  0.20541945  0.49732042  1
  Mo  Mo193  1  0.49584962  0.09365756  0.11117679  1
  Mo  Mo194  1  0.68971881  0.71154352  0.12998247  1
  Mo  Mo195  1  0.59307234  0.60512726  0.25146308  1
  Mo  Mo196  1  0.60092082  -0.00136521  0.77249110  1
  Mo  Mo197  1  0.08559546  0.50620197  0.62015642  1
  Mo  Mo198  1  0.38738823  0.19233913  0.24869108  1
  Mo  Mo199  1  0.39214547  0.41153958  0.00059449  1
