# generated using pymatgen
data_HfZrTaTiMo
_symmetry_space_group_name_H-M   'P 1'
_cell_length_a   15.20367931
_cell_length_b   15.22255911
_cell_length_c   16.83392837
_cell_angle_alpha   89.99393895
_cell_angle_beta   90.00998593
_cell_angle_gamma   90.01360942
_symmetry_Int_Tables_number   1
_chemical_formula_structural   HfZrTaTiMo
_chemical_formula_sum   'Hf40 Zr40 Ta40 Ti40 Mo40'
_cell_volume   3896.02579111
_cell_formula_units_Z   40
loop_
 _symmetry_equiv_pos_site_id
 _symmetry_equiv_pos_as_xyz
  1  'x, y, z'
loop_
 _atom_site_type_symbol
 _atom_site_label
 _atom_site_symmetry_multiplicity
 _atom_site_fract_x
 _atom_site_fract_y
 _atom_site_fract_z
 _atom_site_occupancy
  Hf  Hf0  1  0.20634334  -0.00881970  0.51170903  1
  Hf  Hf1  1  0.58409055  0.79753652  0.49961695  1
  Hf  Hf2  1  0.30414037  0.69555376  0.64372435  1
  Hf  Hf3  1  0.88639695  0.31032859  0.86100675  1
  Hf  Hf4  1  0.00229704  0.38342095  0.25912259  1
  Hf  Hf5  1  0.71260669  0.30128578  0.12776694  1
  Hf  Hf6  1  0.29136398  0.08702762  0.38111162  1
  Hf  Hf7  1  0.00024056  -0.00121661  0.76043869  1
  Hf  Hf8  1  0.40495470  0.58887831  0.75958184  1
  Hf  Hf9  1  0.09746928  0.10176635  0.11458060  1
  Hf  Hf10  1  0.00771458  0.60475891  0.50845769  1
  Hf  Hf11  1  0.70834130  0.90035970  0.88367012  1
  Hf  Hf12  1  0.60665228  0.80390658  0.25257220  1
  Hf  Hf13  1  0.90033586  0.90676459  0.62169681  1
  Hf  Hf14  1  0.10102316  0.89913531  0.63450916  1
  Hf  Hf15  1  0.01304982  0.40612561  0.51129718  1
  Hf  Hf16  1  0.49170440  0.10729735  0.13841957  1
  Hf  Hf17  1  0.00797486  0.59869725  -0.00555264  1
  Hf  Hf18  1  0.90607759  0.70139768  0.63923165  1
  Hf  Hf19  1  0.11287512  0.69349522  0.37250783  1
  Hf  Hf20  1  0.61119062  0.40348760  -0.00074030  1
  Hf  Hf21  1  0.30780908  0.68976815  0.10649821  1
  Hf  Hf22  1  0.20333215  0.79054784  0.22953407  1
  Hf  Hf23  1  0.30646269  0.87860361  0.37584090  1
  Hf  Hf24  1  0.88948332  0.70253090  0.87402816  1
  Hf  Hf25  1  0.29671482  0.49435404  0.39097859  1
  Hf  Hf26  1  0.80111895  0.38809829  0.25892878  1
  Hf  Hf27  1  0.70197275  0.90260249  0.38379933  1
  Hf  Hf28  1  0.39852169  0.39733166  0.26286780  1
  Hf  Hf29  1  0.30489415  0.30686263  0.87523084  1
  Hf  Hf30  1  0.59276772  0.60230458  0.27054228  1
  Hf  Hf31  1  0.88969658  0.48220599  0.12420790  1
  Hf  Hf32  1  0.89401500  0.11699337  0.37290236  1
  Hf  Hf33  1  0.00186797  0.60195987  0.24225543  1
  Hf  Hf34  1  0.90355012  0.50482820  0.38154248  1
  Hf  Hf35  1  0.29851670  0.69980158  0.87072143  1
  Hf  Hf36  1  0.69125456  0.90488452  0.61688826  1
  Hf  Hf37  1  0.57684357  0.19756050  -0.00196821  1
  Hf  Hf38  1  0.50347183  0.90764568  0.12087656  1
  Hf  Hf39  1  0.50007089  0.30287734  0.13653229  1
  Zr  Zr40  1  0.70825001  0.49487286  0.39283823  1
  Zr  Zr41  1  0.79336396  0.21415327  -0.00678411  1
  Zr  Zr42  1  0.79728359  0.80857079  0.74967847  1
  Zr  Zr43  1  0.20898527  0.78417139  0.51430503  1
  Zr  Zr44  1  -0.00950102  0.39951928  -0.01467786  1
  Zr  Zr45  1  0.30354826  0.91717656  0.89482045  1
  Zr  Zr46  1  0.19643276  0.39914964  -0.00428145  1
  Zr  Zr47  1  0.78305982  0.20310327  0.73781625  1
  Zr  Zr48  1  0.79657224  0.58368338  -0.00812762  1
  Zr  Zr49  1  0.88450902  0.08753577  0.87908559  1
  Zr  Zr50  1  0.58331620  0.20645373  0.50473506  1
  Zr  Zr51  1  0.29653564  0.09330183  0.11089727  1
  Zr  Zr52  1  0.19427266  0.19254695  0.25310849  1
  Zr  Zr53  1  0.48495667  0.11799699  0.36543667  1
  Zr  Zr54  1  0.60442384  0.60596019  -0.01700806  1
  Zr  Zr55  1  0.39872598  0.62550899  0.49206543  1
  Zr  Zr56  1  0.42481210  0.79949150  -0.01217303  1
  Zr  Zr57  1  0.68013217  0.10385531  0.87218151  1
  Zr  Zr58  1  0.89736903  0.12895083  0.12987627  1
  Zr  Zr59  1  0.39752030  0.60683715  0.26849216  1
  Zr  Zr60  1  0.39226549  0.39138161  0.73508686  1
  Zr  Zr61  1  0.00737584  0.80161070  0.50102414  1
  Zr  Zr62  1  0.71187679  0.29365314  0.39876411  1
  Zr  Zr63  1  0.40773003  0.58208597  -0.02322931  1
  Zr  Zr64  1  0.29787373  0.29465006  0.12190995  1
  Zr  Zr65  1  0.00278772  0.19821597  0.75267188  1
  Zr  Zr66  1  0.40378675  0.79973252  0.23899347  1
  Zr  Zr67  1  0.90017036  0.90414675  0.37275745  1
  Zr  Zr68  1  0.58943020  0.59633876  0.49375752  1
  Zr  Zr69  1  0.10977129  0.90714858  0.36539377  1
  Zr  Zr70  1  -0.00347495  0.80025778  0.23555711  1
  Zr  Zr71  1  0.20820895  0.20452809  0.75196153  1
  Zr  Zr72  1  0.89171257  0.91434701  0.10840837  1
  Zr  Zr73  1  0.69208575  0.69286360  0.63001726  1
  Zr  Zr74  1  0.10493473  0.49938291  0.12868641  1
  Zr  Zr75  1  0.10386354  0.90440272  0.11126773  1
  Zr  Zr76  1  0.49997810  0.50493671  0.12773980  1
  Zr  Zr77  1  0.20696060  0.81683314  0.75840684  1
  Zr  Zr78  1  0.79055652  0.00334564  0.24396817  1
  Zr  Zr79  1  0.71089490  0.70077452  0.38119493  1
  Ta  Ta80  1  0.79746626  0.79349693  0.23148690  1
  Ta  Ta81  1  -0.00179675  0.80633196  0.76895919  1
  Ta  Ta82  1  0.52301881  0.70072003  0.11853770  1
  Ta  Ta83  1  0.30883942  0.28597354  0.38721850  1
  Ta  Ta84  1  0.11474376  0.49234865  0.85153132  1
  Ta  Ta85  1  0.69563836  0.09783644  0.38310232  1
  Ta  Ta86  1  0.00377957  0.20667310  -0.01760341  1
  Ta  Ta87  1  0.10402941  0.10556514  0.62196049  1
  Ta  Ta88  1  0.00107083  0.00955878  0.50148748  1
  Ta  Ta89  1  0.68068945  0.30825821  0.86378386  1
  Ta  Ta90  1  0.89941629  0.30035019  0.61891995  1
  Ta  Ta91  1  0.69385192  0.10241254  0.61647847  1
  Ta  Ta92  1  0.59113999  0.00651942  0.74808805  1
  Ta  Ta93  1  0.20107423  0.59377278  -0.01127720  1
  Ta  Ta94  1  0.09875125  0.69180893  0.86219581  1
  Ta  Ta95  1  0.30094187  0.90569668  0.10150044  1
  Ta  Ta96  1  0.59684344  0.00346101  0.25220369  1
  Ta  Ta97  1  0.61573303  0.20399254  0.25739966  1
  Ta  Ta98  1  0.49474382  0.91561553  0.37229323  1
  Ta  Ta99  1  0.89995559  0.70136240  0.37337283  1
  Ta  Ta100  1  0.48947122  0.09384929  0.62216617  1
  Ta  Ta101  1  0.90830047  0.50092016  0.63854177  1
  Ta  Ta102  1  0.10035319  0.68967807  0.65521577  1
  Ta  Ta103  1  0.10613685  0.49583899  0.37423972  1
  Ta  Ta104  1  0.59818082  0.38266689  0.72608270  1
  Ta  Ta105  1  0.30514780  0.49452768  0.12419940  1
  Ta  Ta106  1  0.60154491  0.40108317  0.26455024  1
  Ta  Ta107  1  0.19759609  0.58735086  0.51501158  1
  Ta  Ta108  1  0.79516763  0.59256491  0.74730202  1
  Ta  Ta109  1  0.09537991  0.10523074  0.38308024  1
  Ta  Ta110  1  0.11498361  0.49626478  0.64629941  1
  Ta  Ta111  1  0.00517702  0.20235162  0.50870209  1
  Ta  Ta112  1  0.79379484  0.00240030  0.74312166  1
  Ta  Ta113  1  0.01131914  0.01696528  0.24912205  1
  Ta  Ta114  1  0.20138248  0.39689985  0.25572815  1
  Ta  Ta115  1  0.58469405  0.00095966  0.49995296  1
  Ta  Ta116  1  -0.00454379  0.79619211  -0.00887524  1
  Ta  Ta117  1  0.80415998  0.79565875  0.50579030  1
  Ta  Ta118  1  0.08384343  0.29348962  0.12476292  1
  Ta  Ta119  1  0.39672314  0.00306862  0.75245107  1
  Ti  Ti120  1  0.51126891  0.46942538  0.85985685  1
  Ti  Ti121  1  0.59497966  -0.00964074  -0.00397987  1
  Ti  Ti122  1  0.90433578  0.50167541  0.85216952  1
  Ti  Ti123  1  0.59489036  0.39908501  0.51549811  1
  Ti  Ti124  1  0.10733030  0.29580548  0.38389631  1
  Ti  Ti125  1  0.78404650  0.79475521  0.01218335  1
  Ti  Ti126  1  0.70314244  0.49123352  0.85496454  1
  Ti  Ti127  1  0.90305920  0.30328879  0.39905728  1
  Ti  Ti128  1  0.38037389  -0.00025869  0.24569489  1
  Ti  Ti129  1  0.80054735  0.00719047  0.50162329  1
  Ti  Ti130  1  0.80965823  0.59863650  0.51354561  1
  Ti  Ti131  1  0.89706986  0.69350495  0.11450200  1
  Ti  Ti132  1  0.11042912  0.09758544  0.88055621  1
  Ti  Ti133  1  0.18969882  0.78971957  -0.00149116  1
  Ti  Ti134  1  0.89913320  0.10043062  0.62321685  1
  Ti  Ti135  1  0.69306939  0.09120161  0.11958394  1
  Ti  Ti136  1  -0.00363321  0.00485194  -0.01096862  1
  Ti  Ti137  1  0.79430931  0.39822171  0.72976897  1
  Ti  Ti138  1  0.40892200  0.81763458  0.75295363  1
  Ti  Ti139  1  0.59691154  0.81272615  0.74928817  1
  Ti  Ti140  1  0.19454371  0.20324124  -0.00990697  1
  Ti  Ti141  1  0.41058611  0.38884566  -0.00528464  1
  Ti  Ti142  1  0.50316206  0.70270956  0.64282078  1
  Ti  Ti143  1  0.29570661  0.29266711  0.61452865  1
  Ti  Ti144  1  0.49657141  0.50539537  0.62608780  1
  Ti  Ti145  1  0.20320596  0.39119653  0.51005550  1
  Ti  Ti146  1  0.09711156  0.90014914  0.88570713  1
  Ti  Ti147  1  0.20585861  0.00979209  0.74918187  1
  Ti  Ti148  1  0.69398753  0.50825301  0.13320105  1
  Ti  Ti149  1  0.31087519  0.10713606  0.88903007  1
  Ti  Ti150  1  0.41614964  0.19506406  0.75207840  1
  Ti  Ti151  1  0.40067101  0.82752727  0.52042808  1
  Ti  Ti152  1  0.40838809  0.39275110  0.50623290  1
  Ti  Ti153  1  0.51324675  0.70835653  0.85771251  1
  Ti  Ti154  1  0.20756952  0.59295625  0.24705592  1
  Ti  Ti155  1  0.69504693  0.69619555  0.86019058  1
  Ti  Ti156  1  0.30431850  0.10107570  0.61843828  1
  Ti  Ti157  1  0.69961544  0.49824579  0.62248442  1
  Ti  Ti158  1  0.01179729  0.38938215  0.74390332  1
  Ti  Ti159  1  0.79891852  0.60355391  0.24646608  1
  Mo  Mo160  1  0.30986562  0.91268825  0.63642243  1
  Mo  Mo161  1  0.21001794  0.59294548  0.75382317  1
  Mo  Mo162  1  0.79142107  0.40604117  -0.01259142  1
  Mo  Mo163  1  0.39631539  0.20323658  0.25433898  1
  Mo  Mo164  1  0.00002092  0.20652736  0.26213003  1
  Mo  Mo165  1  0.10199626  0.69638933  0.10985146  1
  Mo  Mo166  1  0.90646973  0.30295789  0.12107740  1
  Mo  Mo167  1  0.70320965  0.69407097  0.12862052  1
  Mo  Mo168  1  0.20406782  0.39375847  0.73993889  1
  Mo  Mo169  1  0.50038091  0.48081132  0.38671722  1
  Mo  Mo170  1  0.89937879  0.89933666  0.89319643  1
  Mo  Mo171  1  0.80530962  0.19351019  0.51608516  1
  Mo  Mo172  1  0.19657192  -0.00986183  0.24881730  1
  Mo  Mo173  1  0.41383716  0.01405214  -0.00313897  1
  Mo  Mo174  1  0.69963848  0.30300499  0.61016841  1
  Mo  Mo175  1  0.40340983  0.00266362  0.50343068  1
  Mo  Mo176  1  0.48980673  0.29302011  0.62261396  1
  Mo  Mo177  1  0.51177648  0.90744730  0.86634323  1
  Mo  Mo178  1  0.48510368  0.73726215  0.38060016  1
  Mo  Mo179  1  0.80723173  0.40570728  0.52398510  1
  Mo  Mo180  1  0.30365094  0.49572899  0.87607458  1
  Mo  Mo181  1  0.60055993  0.58784949  0.75333625  1
  Mo  Mo182  1  0.38808022  0.20166972  0.50582326  1
  Mo  Mo183  1  0.79661897  0.20381682  0.25611149  1
  Mo  Mo184  1  0.09786928  0.29724855  0.87097275  1
  Mo  Mo185  1  -0.00125657  0.59517628  0.75783532  1
  Mo  Mo186  1  0.50116516  0.30970128  0.37549709  1
  Mo  Mo187  1  0.30476384  0.49670811  0.61080570  1
  Mo  Mo188  1  0.49758616  0.90230201  0.63425895  1
  Mo  Mo189  1  0.58833289  0.19805936  0.73466204  1
  Mo  Mo190  1  0.29041456  0.69566865  0.37624915  1
  Mo  Mo191  1  0.60635882  0.79548833  -0.00743242  1
  Mo  Mo192  1  0.19526098  0.19930418  0.50296207  1
  Mo  Mo193  1  0.19410284  0.00560986  -0.01060934  1
  Mo  Mo194  1  0.69082217  0.89886396  0.11592195  1
  Mo  Mo195  1  0.50473770  0.29297709  0.86846077  1
  Mo  Mo196  1  0.78744083  0.00284140  0.01124121  1
  Mo  Mo197  1  0.48893268  0.09351169  0.87346888  1
  Mo  Mo198  1  0.39803747  0.20665211  -0.00520802  1
  Mo  Mo199  1  0.10251000  0.29754508  0.62216345  1
