# generated using pymatgen
data_HfZrTaTiMo
_symmetry_space_group_name_H-M   'P 1'
_cell_length_a   15.22216043
_cell_length_b   15.21162406
_cell_length_c   16.85588776
_cell_angle_alpha   89.94397664
_cell_angle_beta   90.00467264
_cell_angle_gamma   90.01795179
_symmetry_Int_Tables_number   1
_chemical_formula_structural   HfZrTaTiMo
_chemical_formula_sum   'Hf40 Zr40 Ta40 Ti40 Mo40'
_cell_volume   3903.04248510
_cell_formula_units_Z   40
loop_
 _symmetry_equiv_pos_site_id
 _symmetry_equiv_pos_as_xyz
  1  'x, y, z'
loop_
 _atom_site_type_symbol
 _atom_site_label
 _atom_site_symmetry_multiplicity
 _atom_site_fract_x
 _atom_site_fract_y
 _atom_site_fract_z
 _atom_site_occupancy
  Hf  Hf0  1  0.20502698  -0.00725431  0.74686660  1
  Hf  Hf1  1  0.39130444  0.78868392  0.26571478  1
  Hf  Hf2  1  0.78310072  0.41905576  0.48637667  1
  Hf  Hf3  1  0.11307555  0.71044432  0.10896974  1
  Hf  Hf4  1  0.80989562  0.40296507  0.00411464  1
  Hf  Hf5  1  0.40954976  0.40004264  0.26366173  1
  Hf  Hf6  1  0.30364447  0.88765056  0.61878608  1
  Hf  Hf7  1  0.31124838  0.29536695  0.12964392  1
  Hf  Hf8  1  0.00939934  0.40753809  0.25393330  1
  Hf  Hf9  1  0.70046320  0.70894830  0.87772444  1
  Hf  Hf10  1  0.79969254  0.61101039  0.75112643  1
  Hf  Hf11  1  0.10021852  0.70410326  0.89197049  1
  Hf  Hf12  1  0.19416734  -0.00718688  0.01110631  1
  Hf  Hf13  1  0.39149252  0.79454226  0.47990125  1
  Hf  Hf14  1  0.51780774  0.09968413  0.36625713  1
  Hf  Hf15  1  0.39501060  0.00370796  0.49081696  1
  Hf  Hf16  1  0.38059604  0.00775551  0.25111972  1
  Hf  Hf17  1  0.90126895  0.70929189  0.88678757  1
  Hf  Hf18  1  0.70357020  0.50336085  0.14581565  1
  Hf  Hf19  1  0.70242022  0.30643018  0.61887505  1
  Hf  Hf20  1  0.09210487  0.69771722  0.62664607  1
  Hf  Hf21  1  0.30044498  0.49372866  0.86900664  1
  Hf  Hf22  1  0.31153290  0.50785688  0.62872306  1
  Hf  Hf23  1  0.68835091  0.30762931  0.35855452  1
  Hf  Hf24  1  0.50596398  0.08914962  0.62534374  1
  Hf  Hf25  1  0.91084803  0.10221364  0.36131439  1
  Hf  Hf26  1  -0.00709174  0.39247169  0.75684680  1
  Hf  Hf27  1  0.00379271  0.39566030  0.01641043  1
  Hf  Hf28  1  0.51239799  0.48516489  0.60774535  1
  Hf  Hf29  1  0.00293309  0.19954015  0.49160597  1
  Hf  Hf30  1  0.21047283  0.18933811  0.50879907  1
  Hf  Hf31  1  0.29062640  0.88131411  0.12935177  1
  Hf  Hf32  1  0.69306361  0.90851078  0.12934497  1
  Hf  Hf33  1  -0.00835130  0.01340358  0.74694786  1
  Hf  Hf34  1  0.08700447  0.90093910  0.88371122  1
  Hf  Hf35  1  0.49237358  0.29518751  0.39614770  1
  Hf  Hf36  1  0.39905348  0.00221305  0.00536656  1
  Hf  Hf37  1  0.88953531  0.89690785  0.36808706  1
  Hf  Hf38  1  0.09658021  0.50050555  0.88050189  1
  Hf  Hf39  1  0.80427135  0.19660442  0.01655454  1
  Zr  Zr40  1  0.80144503  0.60026814  0.00889584  1
  Zr  Zr41  1  0.71134520  0.09495143  0.87065554  1
  Zr  Zr42  1  0.50545365  0.49949619  0.87517618  1
  Zr  Zr43  1  0.90009855  0.51497767  0.61336611  1
  Zr  Zr44  1  0.49802677  0.70430584  0.87235632  1
  Zr  Zr45  1  0.51187303  0.09425616  0.86712323  1
  Zr  Zr46  1  0.50014652  0.28848812  0.60885022  1
  Zr  Zr47  1  0.59796970  0.60889188  0.01191676  1
  Zr  Zr48  1  0.09271984  0.29184599  0.62707375  1
  Zr  Zr49  1  0.39666021  0.79911165  0.00103552  1
  Zr  Zr50  1  0.11341765  0.07944241  0.36785796  1
  Zr  Zr51  1  0.90591111  0.10838885  0.61471407  1
  Zr  Zr52  1  0.21635899  0.19724134  0.00786725  1
  Zr  Zr53  1  0.11809521  0.30100226  0.87816392  1
  Zr  Zr54  1  0.10348396  0.49633738  0.62991794  1
  Zr  Zr55  1  0.88867461  0.52130269  0.35738680  1
  Zr  Zr56  1  0.18704142  0.79896661  0.49220835  1
  Zr  Zr57  1  0.39987888  0.38860837  -0.00609498  1
  Zr  Zr58  1  0.50303492  0.89784246  0.36540162  1
  Zr  Zr59  1  0.18837073  0.79705662  0.75098207  1
  Zr  Zr60  1  0.70683279  0.08519967  0.63658535  1
  Zr  Zr61  1  -0.02369410  0.79488221  0.50242600  1
  Zr  Zr62  1  0.49411019  0.50284900  0.12874642  1
  Zr  Zr63  1  -0.00180713  0.40755676  0.47859397  1
  Zr  Zr64  1  0.70024699  0.29827354  0.87701053  1
  Zr  Zr65  1  0.20868305  0.40285569  0.25847741  1
  Zr  Zr66  1  0.59328860  0.81849362  0.74509888  1
  Zr  Zr67  1  0.70208263  0.30486130  0.14115527  1
  Zr  Zr68  1  0.10847728  0.27987848  0.36049929  1
  Zr  Zr69  1  0.82403334  0.20239518  0.75244236  1
  Zr  Zr70  1  0.20430355  0.19583383  0.74021303  1
  Zr  Zr71  1  0.68302301  0.90674757  0.88525635  1
  Zr  Zr72  1  0.90568409  0.07727175  0.13306791  1
  Zr  Zr73  1  0.60003144  0.59478858  0.74035990  1
  Zr  Zr74  1  0.79982749  0.41356781  0.75447086  1
  Zr  Zr75  1  -0.00136633  0.60417866  0.75930916  1
  Zr  Zr76  1  0.20035451  0.40205881  0.49088157  1
  Zr  Zr77  1  0.09740336  0.10536850  0.87920506  1
  Zr  Zr78  1  0.48162445  0.69497671  0.61964233  1
  Zr  Zr79  1  0.39898777  0.59449011  0.48315433  1
  Ta  Ta80  1  0.52247399  0.69456796  0.37754697  1
  Ta  Ta81  1  0.00627267  0.19553617  0.02204633  1
  Ta  Ta82  1  0.50925978  0.29829160  0.13158564  1
  Ta  Ta83  1  0.30034014  0.50048317  0.12776200  1
  Ta  Ta84  1  0.90482965  0.50087097  0.14409951  1
  Ta  Ta85  1  0.78945432  -0.00108227  0.25790991  1
  Ta  Ta86  1  0.40997709  -0.01718710  0.75141610  1
  Ta  Ta87  1  -0.02393472  0.81350587  0.74820372  1
  Ta  Ta88  1  0.49849672  0.10560722  0.13587229  1
  Ta  Ta89  1  0.31209595  0.30437689  0.61554145  1
  Ta  Ta90  1  0.49739334  0.90494402  0.14348857  1
  Ta  Ta91  1  0.88261582  0.90786040  0.88310561  1
  Ta  Ta92  1  0.90524434  0.09544500  0.89189488  1
  Ta  Ta93  1  0.50878171  0.89390441  0.61001731  1
  Ta  Ta94  1  0.30808023  0.09312604  0.86986559  1
  Ta  Ta95  1  0.60503584  0.39701596  0.00329625  1
  Ta  Ta96  1  0.30441023  0.68510635  0.13302867  1
  Ta  Ta97  1  0.08182477  0.90403387  0.62469836  1
  Ta  Ta98  1  0.17825411  -0.01542252  0.23069304  1
  Ta  Ta99  1  -0.00278668  -0.00424882  0.50178560  1
  Ta  Ta100  1  0.69555560  0.71241034  0.61756048  1
  Ta  Ta101  1  0.89529720  0.30218572  0.35389567  1
  Ta  Ta102  1  0.62000633  0.18312333  0.49542174  1
  Ta  Ta103  1  0.80046352  0.19666694  0.24638925  1
  Ta  Ta104  1  0.89805303  0.31094861  0.61333247  1
  Ta  Ta105  1  0.79219035  0.01093790  0.48321261  1
  Ta  Ta106  1  0.29755011  0.69711770  0.87807503  1
  Ta  Ta107  1  0.40707754  0.39263680  0.75012610  1
  Ta  Ta108  1  0.18537115  0.78896463  0.25603913  1
  Ta  Ta109  1  0.10431348  0.29387315  0.13774699  1
  Ta  Ta110  1  0.71243996  0.69969508  0.36939337  1
  Ta  Ta111  1  0.91537365  0.29078996  0.88657575  1
  Ta  Ta112  1  0.60245937  0.61044725  0.24948588  1
  Ta  Ta113  1  -0.00050440  0.81328966  0.23431494  1
  Ta  Ta114  1  0.60167573  0.39547458  0.74753881  1
  Ta  Ta115  1  0.38656574  0.79385069  0.75353145  1
  Ta  Ta116  1  -0.00343110  0.59267952  0.01011505  1
  Ta  Ta117  1  0.79444498  0.80709985  0.01688866  1
  Ta  Ta118  1  0.02241252  0.61624498  0.24523550  1
  Ta  Ta119  1  0.59624732  0.20164662  0.00680916  1
  Ti  Ti120  1  0.77615047  0.81376535  0.49605339  1
  Ti  Ti121  1  0.60114111  0.20195673  0.74593642  1
  Ti  Ti122  1  0.31107738  0.09651879  0.62813900  1
  Ti  Ti123  1  0.58959422  0.80769491  0.01064533  1
  Ti  Ti124  1  0.30531104  0.11638152  0.37777218  1
  Ti  Ti125  1  0.19182239  -0.00211677  0.51256567  1
  Ti  Ti126  1  0.29978482  0.49450111  0.37792529  1
  Ti  Ti127  1  0.50293627  0.29657955  0.87244891  1
  Ti  Ti128  1  0.68748519  0.89684614  0.36030714  1
  Ti  Ti129  1  0.19785041  0.60453212  0.50217625  1
  Ti  Ti130  1  0.40127137  0.20504437  0.25524196  1
  Ti  Ti131  1  0.00765400  0.60519689  0.48440733  1
  Ti  Ti132  1  0.21196783  0.60537736  0.74943388  1
  Ti  Ti133  1  0.87325094  0.90961387  0.62338045  1
  Ti  Ti134  1  0.40151592  0.59520722  0.26466954  1
  Ti  Ti135  1  -0.00871334  0.81395295  0.01510617  1
  Ti  Ti136  1  0.49976631  0.70959409  0.13837008  1
  Ti  Ti137  1  0.90449108  0.70917437  0.35725353  1
  Ti  Ti138  1  0.40034833  0.20018274  0.75199950  1
  Ti  Ti139  1  0.27452103  0.68399448  0.36596629  1
  Ti  Ti140  1  0.88697830  0.71763825  0.63034311  1
  Ti  Ti141  1  0.79072289  0.79368064  0.23600033  1
  Ti  Ti142  1  0.80280967  0.20832997  0.48384653  1
  Ti  Ti143  1  0.20843086  0.59555553  0.00080922  1
  Ti  Ti144  1  0.52299083  0.49303614  0.38382073  1
  Ti  Ti145  1  0.11023904  0.50567713  0.12521340  1
  Ti  Ti146  1  0.39767088  0.59901955  0.00215595  1
  Ti  Ti147  1  0.21179565  0.18004706  0.23898339  1
  Ti  Ti148  1  0.61171961  -0.01554586  0.49460307  1
  Ti  Ti149  1  0.80889119  0.62165917  0.49905228  1
  Ti  Ti150  1  0.20427804  0.39849335  0.00818303  1
  Ti  Ti151  1  0.70329408  0.50135062  0.88075840  1
  Ti  Ti152  1  0.27522465  0.91147499  0.37023071  1
  Ti  Ti153  1  0.68832030  0.10251334  0.13423581  1
  Ti  Ti154  1  0.89935746  0.69951456  0.12873495  1
  Ti  Ti155  1  0.40866105  0.19559436  -0.00352535  1
  Ti  Ti156  1  0.59318907  0.00620397  0.00978814  1
  Ti  Ti157  1  0.21220728  0.39323032  0.74758582  1
  Ti  Ti158  1  0.08502941  0.89205859  0.37396270  1
  Ti  Ti159  1  0.62436044  0.59318872  0.49855003  1
  Mo  Mo160  1  -0.00216578  0.20394023  0.75186457  1
  Mo  Mo161  1  0.10406299  0.09904756  0.12890457  1
  Mo  Mo162  1  0.70759643  0.10007420  0.36974014  1
  Mo  Mo163  1  0.70337583  0.51488229  0.61987919  1
  Mo  Mo164  1  0.90102212  0.49829060  0.88559320  1
  Mo  Mo165  1  0.79695807  0.80652095  0.74942173  1
  Mo  Mo166  1  0.40222683  0.18778617  0.50388565  1
  Mo  Mo167  1  -0.00238037  -0.00784064  0.25280713  1
  Mo  Mo168  1  0.29252767  0.69687046  0.62446299  1
  Mo  Mo169  1  0.59298317  0.20170610  0.24747134  1
  Mo  Mo170  1  0.31645614  0.28828413  0.86525477  1
  Mo  Mo171  1  0.30406692  0.29175318  0.38106251  1
  Mo  Mo172  1  0.59845757  0.00438960  0.24500165  1
  Mo  Mo173  1  0.60225252  0.79166033  0.49560379  1
  Mo  Mo174  1  0.59753741  -0.00262603  0.74289148  1
  Mo  Mo175  1  0.20354170  0.79496409  -0.00539132  1
  Mo  Mo176  1  0.88965290  0.89324759  0.13091735  1
  Mo  Mo177  1  0.69941396  0.89863361  0.61675144  1
  Mo  Mo178  1  0.39513800  0.39758753  0.49015234  1
  Mo  Mo179  1  -0.01086465  0.00035086  0.00020661  1
  Mo  Mo180  1  0.59901583  0.79669194  0.24527109  1
  Mo  Mo181  1  0.00606315  0.19690624  0.23485197  1
  Mo  Mo182  1  0.08466413  0.90217002  0.11572438  1
  Mo  Mo183  1  0.10234176  0.08845814  0.62124348  1
  Mo  Mo184  1  0.80359153  0.40506054  0.25655001  1
  Mo  Mo185  1  0.60828077  0.39989177  0.49623043  1
  Mo  Mo186  1  0.69311182  0.70861100  0.12701072  1
  Mo  Mo187  1  0.48412299  0.90528949  0.87723456  1
  Mo  Mo188  1  0.59173276  0.40525307  0.25491151  1
  Mo  Mo189  1  0.80646298  -0.01953300  0.75262144  1
  Mo  Mo190  1  0.79443489  -0.00039214  0.00610050  1
  Mo  Mo191  1  0.69207291  0.51863448  0.35986838  1
  Mo  Mo192  1  0.20904352  0.60062335  0.24494205  1
  Mo  Mo193  1  0.30167053  0.90012476  0.87379315  1
  Mo  Mo194  1  0.30686965  0.09641938  0.13068141  1
  Mo  Mo195  1  0.11064549  0.52714044  0.37268451  1
  Mo  Mo196  1  0.39172775  0.59903160  0.74999958  1
  Mo  Mo197  1  0.80866684  0.61504202  0.23891882  1
  Mo  Mo198  1  0.90697698  0.29834596  0.14668646  1
  Mo  Mo199  1  0.08857168  0.70166434  0.37148946  1
