# generated using pymatgen
data_HfZrTaTiMo
_symmetry_space_group_name_H-M   'P 1'
_cell_length_a   15.19748078
_cell_length_b   15.21957594
_cell_length_c   16.83713876
_cell_angle_alpha   89.98931236
_cell_angle_beta   89.98560479
_cell_angle_gamma   90.07348747
_symmetry_Int_Tables_number   1
_chemical_formula_structural   HfZrTaTiMo
_chemical_formula_sum   'Hf40 Zr40 Ta40 Ti40 Mo40'
_cell_volume   3894.41354721
_cell_formula_units_Z   40
loop_
 _symmetry_equiv_pos_site_id
 _symmetry_equiv_pos_as_xyz
  1  'x, y, z'
loop_
 _atom_site_type_symbol
 _atom_site_label
 _atom_site_symmetry_multiplicity
 _atom_site_fract_x
 _atom_site_fract_y
 _atom_site_fract_z
 _atom_site_occupancy
  Hf  Hf0  1  0.69299225  0.10914681  0.63257135  1
  Hf  Hf1  1  0.38811453  -0.00294451  0.50503672  1
  Hf  Hf2  1  0.49673960  0.09907699  0.36286103  1
  Hf  Hf3  1  0.91234310  0.10316632  0.87388464  1
  Hf  Hf4  1  0.58672397  0.39550808  0.25949654  1
  Hf  Hf5  1  0.81165254  0.40509067  0.75104350  1
  Hf  Hf6  1  0.27606809  0.90178385  0.89592840  1
  Hf  Hf7  1  0.47678916  0.11049117  0.64189256  1
  Hf  Hf8  1  0.59836827  0.80942779  -0.00673565  1
  Hf  Hf9  1  0.59335948  0.59253521  -0.00524615  1
  Hf  Hf10  1  0.28902631  0.90296896  0.11066793  1
  Hf  Hf11  1  -0.00600733  -0.00748585  0.74152490  1
  Hf  Hf12  1  0.39866474  0.79958971  0.50373565  1
  Hf  Hf13  1  0.88994095  0.89770205  0.87812105  1
  Hf  Hf14  1  0.30134864  0.32063680  0.12397861  1
  Hf  Hf15  1  0.00378377  0.58730159  0.73814996  1
  Hf  Hf16  1  0.81012523  0.59930755  0.00443138  1
  Hf  Hf17  1  0.30889216  0.50413462  0.62940216  1
  Hf  Hf18  1  0.69693002  0.69279603  0.61680501  1
  Hf  Hf19  1  0.30347102  0.49867620  0.86263134  1
  Hf  Hf20  1  0.51480960  0.49801610  0.63100448  1
  Hf  Hf21  1  0.81057115  0.60476109  0.74384442  1
  Hf  Hf22  1  0.71168568  0.70644456  0.87818831  1
  Hf  Hf23  1  0.58848733  0.79988675  0.50282569  1
  Hf  Hf24  1  0.49443274  0.69888962  0.12205928  1
  Hf  Hf25  1  0.79841476  0.80512733  0.50206626  1
  Hf  Hf26  1  0.68047379  0.68605345  0.38850148  1
  Hf  Hf27  1  0.90845743  0.49978694  0.87843535  1
  Hf  Hf28  1  0.10170541  0.68868875  0.60884949  1
  Hf  Hf29  1  0.80042926  0.20993700  0.75204842  1
  Hf  Hf30  1  0.59410788  0.59655306  0.24671085  1
  Hf  Hf31  1  0.28227077  0.69417774  0.12007723  1
  Hf  Hf32  1  0.29394892  0.90680676  0.36479197  1
  Hf  Hf33  1  0.39771316  0.22159365  0.24731278  1
  Hf  Hf34  1  0.90774993  0.49543512  0.13865462  1
  Hf  Hf35  1  -0.00191489  0.00374522  0.01011085  1
  Hf  Hf36  1  0.39709829  0.01844125  0.01243861  1
  Hf  Hf37  1  0.20710167  0.59595143  0.26498191  1
  Hf  Hf38  1  0.61488861  0.41260797  0.48688686  1
  Hf  Hf39  1  0.91205585  0.70870446  0.87566381  1
  Zr  Zr40  1  0.61098486  0.59160779  0.76142107  1
  Zr  Zr41  1  0.49419128  0.89635593  0.36455373  1
  Zr  Zr42  1  0.90751445  0.69723785  0.38833716  1
  Zr  Zr43  1  0.48907934  0.91960432  0.86778852  1
  Zr  Zr44  1  0.80247633  0.59105460  0.26315792  1
  Zr  Zr45  1  0.49290289  0.69429908  0.64154926  1
  Zr  Zr46  1  0.00076236  0.39865935  0.01314838  1
  Zr  Zr47  1  0.59347583  -0.00212209  0.50803269  1
  Zr  Zr48  1  0.09772095  0.87357694  0.10682703  1
  Zr  Zr49  1  0.48416727  0.30842223  0.38285480  1
  Zr  Zr50  1  0.00115190  -0.00285999  0.23301826  1
  Zr  Zr51  1  0.78953752  0.38902204  0.00334784  1
  Zr  Zr52  1  0.59550848  0.00487372  0.74666399  1
  Zr  Zr53  1  0.38437760  0.80677566  0.75867051  1
  Zr  Zr54  1  0.68774306  0.49067332  0.12494332  1
  Zr  Zr55  1  0.02201347  0.20147250  0.02333153  1
  Zr  Zr56  1  0.80479267  0.80009968  0.26475828  1
  Zr  Zr57  1  0.01867596  0.38301808  0.25369622  1
  Zr  Zr58  1  0.59802100  0.19824689  0.49293213  1
  Zr  Zr59  1  0.61234679  0.20961056  -0.01099926  1
  Zr  Zr60  1  0.19316727  -0.00126664  0.75408934  1
  Zr  Zr61  1  0.28808637  0.10863458  0.37724474  1
  Zr  Zr62  1  0.70185548  0.10441816  0.86672762  1
  Zr  Zr63  1  0.59610975  0.80387770  0.24910397  1
  Zr  Zr64  1  0.51359951  0.12355659  0.13695601  1
  Zr  Zr65  1  0.27112964  0.10383858  0.61528891  1
  Zr  Zr66  1  0.18178859  0.20941190  0.24259836  1
  Zr  Zr67  1  0.20296354  0.82858702  0.51362683  1
  Zr  Zr68  1  0.39949419  0.79657747  -0.00568521  1
  Zr  Zr69  1  0.79844282  -0.00596259  0.24219565  1
  Zr  Zr70  1  0.02541098  0.60763156  0.00877439  1
  Zr  Zr71  1  0.91945198  0.70596180  0.13393460  1
  Zr  Zr72  1  0.80643434  0.01138975  0.50242209  1
  Zr  Zr73  1  0.78878818  0.00181676  0.00828828  1
  Zr  Zr74  1  0.71102224  0.70729950  0.11886172  1
  Zr  Zr75  1  -0.01893194  0.19490203  0.50801147  1
  Zr  Zr76  1  0.40740117  0.21601423  0.00307645  1
  Zr  Zr77  1  0.20176510  0.60090290  0.74522275  1
  Zr  Zr78  1  0.11034005  0.70751218  0.39299402  1
  Zr  Zr79  1  0.71058563  0.30470330  0.61444190  1
  Ta  Ta80  1  0.00351652  0.20214435  0.74080450  1
  Ta  Ta81  1  0.08517192  0.10209892  0.37422826  1
  Ta  Ta82  1  0.30422988  0.29940093  0.87315564  1
  Ta  Ta83  1  0.70302435  0.10243317  0.36541827  1
  Ta  Ta84  1  0.18630237  0.80540621  0.73982202  1
  Ta  Ta85  1  0.50092889  0.30021770  0.62258199  1
  Ta  Ta86  1  0.40239042  0.40667017  0.50855405  1
  Ta  Ta87  1  0.08576383  0.89051368  0.88497681  1
  Ta  Ta88  1  0.91431099  0.90667583  0.38242028  1
  Ta  Ta89  1  0.39415297  0.00275717  0.22796239  1
  Ta  Ta90  1  0.30147276  0.70390095  0.62593611  1
  Ta  Ta91  1  0.49765333  0.49184611  0.86644133  1
  Ta  Ta92  1  0.10316928  0.48840076  0.87145490  1
  Ta  Ta93  1  0.19631372  0.80159489  0.25234374  1
  Ta  Ta94  1  0.70082203  0.90808676  0.37819518  1
  Ta  Ta95  1  0.69073824  0.28864273  0.13829695  1
  Ta  Ta96  1  0.29499808  0.10723247  0.87437431  1
  Ta  Ta97  1  0.10670225  0.29253953  0.61489101  1
  Ta  Ta98  1  0.31419135  0.49900863  0.38512711  1
  Ta  Ta99  1  0.19936730  0.39228712  -0.00570121  1
  Ta  Ta100  1  0.19131490  0.20263267  0.75294564  1
  Ta  Ta101  1  0.70017532  0.90263346  0.86760870  1
  Ta  Ta102  1  0.79949222  0.38772056  0.25522167  1
  Ta  Ta103  1  -0.00332426  0.81235212  0.51730271  1
  Ta  Ta104  1  0.90715192  0.29746583  0.87867472  1
  Ta  Ta105  1  0.01658379  0.59086682  0.26634745  1
  Ta  Ta106  1  0.79670553  0.57448403  0.49117028  1
  Ta  Ta107  1  0.81633722  0.20192827  0.01345323  1
  Ta  Ta108  1  0.19853044  0.38887248  0.74738151  1
  Ta  Ta109  1  0.10433644  0.70081248  0.86784497  1
  Ta  Ta110  1  0.59008484  0.00721847  0.00142912  1
  Ta  Ta111  1  0.19725666  0.00191166  0.24031846  1
  Ta  Ta112  1  0.29918237  0.30178501  0.61916081  1
  Ta  Ta113  1  -0.00148846  0.79421617  0.72887904  1
  Ta  Ta114  1  0.71286124  0.49837657  0.62069401  1
  Ta  Ta115  1  0.10731111  0.48283715  0.61010081  1
  Ta  Ta116  1  0.40866845  0.38714833  0.74641075  1
  Ta  Ta117  1  0.80605865  0.80883440  0.73469365  1
  Ta  Ta118  1  0.39883933  0.59170975  -0.00273548  1
  Ta  Ta119  1  0.60494054  0.80064890  0.75354255  1
  Ti  Ti120  1  0.41436976  0.60661094  0.49884195  1
  Ti  Ti121  1  0.21085251  0.40563013  0.26106950  1
  Ti  Ti122  1  0.01004215  -0.00240075  0.51698619  1
  Ti  Ti123  1  0.49348962  0.69235127  0.86632964  1
  Ti  Ti124  1  0.89803668  0.68618093  0.60736431  1
  Ti  Ti125  1  0.91046102  0.27868116  0.36304104  1
  Ti  Ti126  1  0.28406168  0.30982369  0.38941729  1
  Ti  Ti127  1  0.10201042  0.28604708  0.87673068  1
  Ti  Ti128  1  0.88712669  0.88896903  0.11358281  1
  Ti  Ti129  1  0.39389616  0.79869466  0.24113643  1
  Ti  Ti130  1  0.29535888  0.69697519  0.87541379  1
  Ti  Ti131  1  0.48687566  0.12113435  0.85696187  1
  Ti  Ti132  1  0.39989333  0.58933930  0.24564639  1
  Ti  Ti133  1  0.48645611  0.90217124  0.64097973  1
  Ti  Ti134  1  0.12499996  0.49715738  0.13062420  1
  Ti  Ti135  1  0.90987175  0.48117601  0.61039690  1
  Ti  Ti136  1  0.81972717  0.38205132  0.48803659  1
  Ti  Ti137  1  0.39050385  0.20529727  0.49997293  1
  Ti  Ti138  1  0.09839728  0.91244367  0.37710679  1
  Ti  Ti139  1  0.58588178  0.39420228  -0.00394489  1
  Ti  Ti140  1  0.50592165  0.51759355  0.38183962  1
  Ti  Ti141  1  0.59800319  0.00245256  0.24391159  1
  Ti  Ti142  1  0.80930723  0.19566479  0.24024116  1
  Ti  Ti143  1  0.00812623  0.38718771  0.74488486  1
  Ti  Ti144  1  0.61263515  0.38557252  0.75690542  1
  Ti  Ti145  1  0.70146258  0.90408642  0.63151839  1
  Ti  Ti146  1  0.68533594  0.90250218  0.12143586  1
  Ti  Ti147  1  0.70158757  0.49069574  0.88026363  1
  Ti  Ti148  1  0.89073065  0.10055756  0.63296121  1
  Ti  Ti149  1  0.00498310  0.58169327  0.49032416  1
  Ti  Ti150  1  0.01072452  0.79486196  0.26095305  1
  Ti  Ti151  1  0.01630309  0.38855113  0.48465901  1
  Ti  Ti152  1  0.70366144  0.10278807  0.12970910  1
  Ti  Ti153  1  0.40068080  0.40895188  -0.00388475  1
  Ti  Ti154  1  0.71136201  0.29152207  0.37150134  1
  Ti  Ti155  1  0.20754847  0.58677942  -0.00585191  1
  Ti  Ti156  1  0.89784084  0.09535710  0.36815186  1
  Ti  Ti157  1  0.31443577  0.70288582  0.37417334  1
  Ti  Ti158  1  0.21581823  0.59442477  0.49540582  1
  Ti  Ti159  1  0.90713467  0.48409703  0.37200701  1
  Mo  Mo160  1  0.79478192  0.80474302  0.00332561  1
  Mo  Mo161  1  0.59825128  0.59685650  0.50289798  1
  Mo  Mo162  1  0.10353974  0.09921202  0.87663437  1
  Mo  Mo163  1  0.21093611  0.20306592  -0.00089840  1
  Mo  Mo164  1  0.39079565  0.41732778  0.25816308  1
  Mo  Mo165  1  0.61233037  0.20216889  0.25898829  1
  Mo  Mo166  1  0.18584375  0.77025725  -0.00913488  1
  Mo  Mo167  1  0.89415958  0.90045326  0.62254515  1
  Mo  Mo168  1  0.11685611  0.09271442  0.12501316  1
  Mo  Mo169  1  0.50776223  0.32094279  0.12742245  1
  Mo  Mo170  1  0.09934785  0.90582909  0.62618306  1
  Mo  Mo171  1  0.91054387  0.30809421  0.62390156  1
  Mo  Mo172  1  0.89854704  0.10026148  0.12713105  1
  Mo  Mo173  1  0.29592282  0.10809690  0.12812793  1
  Mo  Mo174  1  0.38044929  0.20889865  0.74927788  1
  Mo  Mo175  1  -0.00581301  0.19065565  0.23662574  1
  Mo  Mo176  1  0.89449722  0.29662885  0.13906099  1
  Mo  Mo177  1  0.08755339  0.10406838  0.62579431  1
  Mo  Mo178  1  0.79876475  0.20068477  0.48814762  1
  Mo  Mo179  1  0.20677473  0.40315488  0.50070023  1
  Mo  Mo180  1  0.48338915  0.69237753  0.36616399  1
  Mo  Mo181  1  -0.00574869  0.79590313  -0.00324827  1
  Mo  Mo182  1  0.11149712  0.49253236  0.38955408  1
  Mo  Mo183  1  0.40154519  0.59809595  0.75935866  1
  Mo  Mo184  1  0.18348307  0.01128433  0.49515550  1
  Mo  Mo185  1  0.79840915  -0.00269636  0.74559750  1
  Mo  Mo186  1  0.50098321  0.30628702  0.86743746  1
  Mo  Mo187  1  0.58589445  0.21872000  0.75405568  1
  Mo  Mo188  1  0.10348445  0.68520293  0.14196671  1
  Mo  Mo189  1  0.29997757  0.50394651  0.12093218  1
  Mo  Mo190  1  0.49997467  0.90796287  0.12721660  1
  Mo  Mo191  1  0.10165202  0.28839212  0.38398426  1
  Mo  Mo192  1  0.70990377  0.48786579  0.37308310  1
  Mo  Mo193  1  0.18938810  0.02646786  -0.00290829  1
  Mo  Mo194  1  0.30229602  0.90580587  0.63206882  1
  Mo  Mo195  1  0.38489219  0.00729509  0.75369046  1
  Mo  Mo196  1  0.48186245  0.48968197  0.12078839  1
  Mo  Mo197  1  0.70999615  0.30590334  0.87621546  1
  Mo  Mo198  1  0.10785137  0.31093845  0.12532053  1
  Mo  Mo199  1  0.18510687  0.20689009  0.49328697  1
