# generated using pymatgen
data_HfZrTaTiMo
_symmetry_space_group_name_H-M   'P 1'
_cell_length_a   15.21048656
_cell_length_b   15.20681403
_cell_length_c   16.82140683
_cell_angle_alpha   89.99198485
_cell_angle_beta   90.03129565
_cell_angle_gamma   90.10085807
_symmetry_Int_Tables_number   1
_chemical_formula_structural   HfZrTaTiMo
_chemical_formula_sum   'Hf40 Zr40 Ta40 Ti40 Mo40'
_cell_volume   3890.83589810
_cell_formula_units_Z   40
loop_
 _symmetry_equiv_pos_site_id
 _symmetry_equiv_pos_as_xyz
  1  'x, y, z'
loop_
 _atom_site_type_symbol
 _atom_site_label
 _atom_site_symmetry_multiplicity
 _atom_site_fract_x
 _atom_site_fract_y
 _atom_site_fract_z
 _atom_site_occupancy
  Hf  Hf0  1  0.39817441  0.58903475  0.23202535  1
  Hf  Hf1  1  0.11705397  0.89386769  0.62354823  1
  Hf  Hf2  1  0.61640517  0.40467112  0.75646492  1
  Hf  Hf3  1  0.81846633  0.19170365  0.26011237  1
  Hf  Hf4  1  0.79802964  0.39673484  0.49507228  1
  Hf  Hf5  1  0.09366790  0.68963794  0.86158570  1
  Hf  Hf6  1  0.01308631  0.79967206  0.48917203  1
  Hf  Hf7  1  0.19776312  0.00312375  -0.00815171  1
  Hf  Hf8  1  0.49863189  0.10063095  0.36300353  1
  Hf  Hf9  1  0.10622716  0.89162146  0.12133473  1
  Hf  Hf10  1  0.51400896  0.31985239  0.12149565  1
  Hf  Hf11  1  0.70272701  0.09094437  0.37109628  1
  Hf  Hf12  1  0.00627246  0.00298135  0.74162589  1
  Hf  Hf13  1  0.49441534  0.49876892  0.37959700  1
  Hf  Hf14  1  0.81795883  0.00837990  -0.00294806  1
  Hf  Hf15  1  0.71452653  0.10731771  0.12533389  1
  Hf  Hf16  1  0.01232720  0.81682044  0.26348425  1
  Hf  Hf17  1  0.78328231  0.38955165  0.25157744  1
  Hf  Hf18  1  0.11717164  0.70165029  0.36274726  1
  Hf  Hf19  1  0.50463842  0.51163917  0.63520167  1
  Hf  Hf20  1  0.89334125  0.10694440  0.60867781  1
  Hf  Hf21  1  0.58224366  -0.00906613  0.50223441  1
  Hf  Hf22  1  0.29830780  0.71838266  0.64385313  1
  Hf  Hf23  1  0.60557505  0.00408906  -0.00010415  1
  Hf  Hf24  1  0.91154492  0.69749400  0.14133888  1
  Hf  Hf25  1  0.90936157  0.92059375  0.12610155  1
  Hf  Hf26  1  0.91335899  0.10539820  0.86702305  1
  Hf  Hf27  1  0.41167917  0.80189212  0.50249259  1
  Hf  Hf28  1  0.20362090  0.20627935  -0.00012573  1
  Hf  Hf29  1  0.77617448  0.59631559  0.50964672  1
  Hf  Hf30  1  0.38805787  0.82157514  0.77808723  1
  Hf  Hf31  1  0.60165988  0.00004787  0.76777425  1
  Hf  Hf32  1  0.00879947  0.39662226  0.25290264  1
  Hf  Hf33  1  0.60396530  -0.00936777  0.23317939  1
  Hf  Hf34  1  0.89121400  0.50750531  0.36347620  1
  Hf  Hf35  1  0.10209551  0.29512841  0.87178108  1
  Hf  Hf36  1  0.51553296  0.10992004  0.64315893  1
  Hf  Hf37  1  0.47989411  0.90452474  0.63814706  1
  Hf  Hf38  1  0.40033804  0.60294212  0.51280696  1
  Hf  Hf39  1  0.69098623  0.46183132  0.10198815  1
  Zr  Zr40  1  0.29551346  0.49633903  0.38178491  1
  Zr  Zr41  1  0.70232191  0.28910897  0.62793736  1
  Zr  Zr42  1  -0.00600056  0.39533258  0.74758679  1
  Zr  Zr43  1  0.60000120  0.57611177  0.22764934  1
  Zr  Zr44  1  0.19576499  0.60945447  0.50973922  1
  Zr  Zr45  1  0.18727320  -0.00679283  0.25442961  1
  Zr  Zr46  1  0.59553021  0.41106656  0.50970712  1
  Zr  Zr47  1  0.70356298  0.69183199  0.36582870  1
  Zr  Zr48  1  0.79185266  0.80847174  0.24059686  1
  Zr  Zr49  1  0.89830511  0.50462577  0.87834787  1
  Zr  Zr50  1  0.88634646  0.90584413  0.39045851  1
  Zr  Zr51  1  0.29561734  0.88771762  0.36474640  1
  Zr  Zr52  1  0.20659868  0.78588769  -0.00870104  1
  Zr  Zr53  1  0.89688088  0.90204050  0.60782382  1
  Zr  Zr54  1  0.30200721  0.10244955  0.37427809  1
  Zr  Zr55  1  0.20056840  0.20398817  0.25459139  1
  Zr  Zr56  1  0.89465072  0.50171932  0.13104932  1
  Zr  Zr57  1  0.58035249  0.79561806  0.00080847  1
  Zr  Zr58  1  0.00884324  0.39901669  0.00207234  1
  Zr  Zr59  1  0.21635650  0.20623372  0.50836077  1
  Zr  Zr60  1  0.38154540  0.61035221  -0.00572556  1
  Zr  Zr61  1  0.40094578  0.00071623  -0.01833992  1
  Zr  Zr62  1  0.57506817  0.57852471  -0.00364588  1
  Zr  Zr63  1  0.59125169  0.79197584  0.22158007  1
  Zr  Zr64  1  -0.01239170  0.79971053  0.74829685  1
  Zr  Zr65  1  0.31572212  0.09112775  0.62929400  1
  Zr  Zr66  1  0.79998129  -0.00446269  0.74688249  1
  Zr  Zr67  1  0.89399674  0.70038645  0.62091620  1
  Zr  Zr68  1  0.58970880  0.79683817  0.76772269  1
  Zr  Zr69  1  -0.00403518  0.59588409  0.49702746  1
  Zr  Zr70  1  0.71050179  0.69107706  0.89585096  1
  Zr  Zr71  1  0.31208023  0.30375387  0.11719635  1
  Zr  Zr72  1  0.71150141  0.67714961  0.10932015  1
  Zr  Zr73  1  -0.00524412  0.80114245  -0.00369754  1
  Zr  Zr74  1  0.80495048  0.20782760  0.75133337  1
  Zr  Zr75  1  0.08622630  0.09789013  0.12553431  1
  Zr  Zr76  1  0.60984633  0.19665494  0.49773475  1
  Zr  Zr77  1  0.59845585  0.60380481  0.76914961  1
  Zr  Zr78  1  0.49438756  0.11119869  0.12815241  1
  Zr  Zr79  1  0.50611263  0.69992022  0.36916533  1
  Ta  Ta80  1  0.10751772  0.09236436  0.61332965  1
  Ta  Ta81  1  -0.01231104  0.01727835  0.27000168  1
  Ta  Ta82  1  0.80493732  0.20911173  -0.00294334  1
  Ta  Ta83  1  0.21275615  -0.00767588  0.75790777  1
  Ta  Ta84  1  0.49755093  0.89921745  0.36486167  1
  Ta  Ta85  1  0.29847173  0.30744417  0.87110783  1
  Ta  Ta86  1  0.30260829  0.09576818  0.12602954  1
  Ta  Ta87  1  0.20870828  0.19726275  0.73963385  1
  Ta  Ta88  1  0.90549456  0.30380323  0.61233394  1
  Ta  Ta89  1  0.10946418  0.49684192  0.86690121  1
  Ta  Ta90  1  0.68599951  0.89339060  0.62517441  1
  Ta  Ta91  1  0.29688594  0.50681608  0.63876370  1
  Ta  Ta92  1  0.19820440  0.39097852  0.73368831  1
  Ta  Ta93  1  0.00805097  0.20269857  0.26515706  1
  Ta  Ta94  1  0.39687395  0.40392047  0.75227575  1
  Ta  Ta95  1  0.60468024  0.21001424  -0.00792844  1
  Ta  Ta96  1  0.91016708  0.29967336  0.38670065  1
  Ta  Ta97  1  0.90068156  0.29018750  0.12523449  1
  Ta  Ta98  1  0.40755572  0.20388013  -0.01859311  1
  Ta  Ta99  1  0.70928467  0.89677968  0.88615039  1
  Ta  Ta100  1  0.09835534  0.90035844  0.86992682  1
  Ta  Ta101  1  0.30361061  0.89719691  0.12249261  1
  Ta  Ta102  1  0.19946287  0.59045039  0.24384530  1
  Ta  Ta103  1  0.00322557  0.60347074  0.00107214  1
  Ta  Ta104  1  0.61170028  0.21489865  0.25189699  1
  Ta  Ta105  1  0.88928267  0.49281405  0.62751728  1
  Ta  Ta106  1  0.40890328  0.40763965  -0.02000755  1
  Ta  Ta107  1  0.49882123  0.30629526  0.37225526  1
  Ta  Ta108  1  0.78541371  0.79262431  0.74941956  1
  Ta  Ta109  1  0.10283042  0.69110428  0.13536286  1
  Ta  Ta110  1  -0.00241476  0.19082900  0.00089000  1
  Ta  Ta111  1  0.68312033  0.89205119  0.37894863  1
  Ta  Ta112  1  0.01398888  0.20154151  0.72942145  1
  Ta  Ta113  1  0.01231017  0.20903091  0.50486671  1
  Ta  Ta114  1  0.79023639  0.59157864  0.74345397  1
  Ta  Ta115  1  0.20963657  0.40022841  0.24901715  1
  Ta  Ta116  1  0.10366587  0.30528441  0.12372115  1
  Ta  Ta117  1  0.49485834  0.29901912  0.64375840  1
  Ta  Ta118  1  0.19797516  0.40201398  0.52127465  1
  Ta  Ta119  1  0.41514581  0.20612197  0.50272376  1
  Ti  Ti120  1  0.21414990  0.80681332  0.49868594  1
  Ti  Ti121  1  0.31057827  0.30930225  0.37831775  1
  Ti  Ti122  1  0.90073598  0.30405397  0.87654066  1
  Ti  Ti123  1  0.69874058  0.29899322  0.37973409  1
  Ti  Ti124  1  0.38769891  -0.00064482  0.49540587  1
  Ti  Ti125  1  0.39721159  -0.00261809  0.24400183  1
  Ti  Ti126  1  0.10307472  0.69594156  0.64096306  1
  Ti  Ti127  1  0.89933929  0.69810361  0.36230909  1
  Ti  Ti128  1  0.90303735  0.10452467  0.40147461  1
  Ti  Ti129  1  0.68708974  0.49936933  0.37002315  1
  Ti  Ti130  1  0.11199663  0.30497187  0.38285555  1
  Ti  Ti131  1  0.29171010  0.50150448  0.86183849  1
  Ti  Ti132  1  0.09285504  0.50065530  0.63073809  1
  Ti  Ti133  1  0.40022964  0.01832221  0.78091867  1
  Ti  Ti134  1  0.18829700  0.58454821  0.00091922  1
  Ti  Ti135  1  0.48467697  0.89722459  0.11583366  1
  Ti  Ti136  1  0.70443327  0.10802348  0.87784326  1
  Ti  Ti137  1  0.30907876  0.69313813  0.36564143  1
  Ti  Ti138  1  0.71080315  0.30389657  0.87395130  1
  Ti  Ti139  1  -0.00848830  0.59541830  0.74535608  1
  Ti  Ti140  1  0.29483202  0.48954180  0.11513541  1
  Ti  Ti141  1  0.71070983  0.48980275  0.89350730  1
  Ti  Ti142  1  0.29447960  0.70354103  0.12634496  1
  Ti  Ti143  1  0.10155656  0.49774136  0.37400529  1
  Ti  Ti144  1  0.39188884  0.39214028  0.51860677  1
  Ti  Ti145  1  0.80045217  -0.00348547  0.24940449  1
  Ti  Ti146  1  0.39790371  0.79661685  0.24086017  1
  Ti  Ti147  1  0.28371740  0.69541013  0.86001547  1
  Ti  Ti148  1  0.10029611  0.49990754  0.12828442  1
  Ti  Ti149  1  0.77771749  0.79574748  0.50458379  1
  Ti  Ti150  1  0.00665953  0.40398134  0.50119534  1
  Ti  Ti151  1  0.10612700  0.10098944  0.86746532  1
  Ti  Ti152  1  0.40256129  0.61132310  0.75728368  1
  Ti  Ti153  1  0.89278961  0.69937431  0.87609823  1
  Ti  Ti154  1  0.40270425  0.21414605  0.24968686  1
  Ti  Ti155  1  0.80007147  0.80594168  0.01286670  1
  Ti  Ti156  1  0.89965570  0.89655977  0.87565060  1
  Ti  Ti157  1  0.77775530  0.00442068  0.50717163  1
  Ti  Ti158  1  0.09773414  0.09558474  0.39564974  1
  Ti  Ti159  1  0.50501834  0.29857872  0.85869004  1
  Mo  Mo160  1  0.19482636  0.59179012  0.74277937  1
  Mo  Mo161  1  0.60499627  0.20035108  0.76501318  1
  Mo  Mo162  1  0.80560903  0.38647140  -0.00071533  1
  Mo  Mo163  1  0.48033568  0.70298659  0.12132423  1
  Mo  Mo164  1  0.39672614  0.39743910  0.25187576  1
  Mo  Mo165  1  0.00990814  0.59791389  0.25672122  1
  Mo  Mo166  1  0.48588769  0.49336564  0.86077751  1
  Mo  Mo167  1  0.20738443  0.41067809  -0.00622010  1
  Mo  Mo168  1  0.59308094  0.39269640  0.25673517  1
  Mo  Mo169  1  0.81357968  0.59608360  0.00124146  1
  Mo  Mo170  1  0.39945058  0.20643738  0.76499313  1
  Mo  Mo171  1  0.80436987  0.20149234  0.49128030  1
  Mo  Mo172  1  0.70545508  0.90192026  0.10877679  1
  Mo  Mo173  1  0.39222019  0.80159110  -0.01362546  1
  Mo  Mo174  1  0.29359514  0.11631915  0.86791312  1
  Mo  Mo175  1  0.70160898  0.50309805  0.62976596  1
  Mo  Mo176  1  0.50017461  0.70788718  0.63162020  1
  Mo  Mo177  1  0.59574441  0.38489358  -0.02505343  1
  Mo  Mo178  1  0.70021837  0.08683203  0.62564383  1
  Mo  Mo179  1  0.50408745  0.90612054  0.88219573  1
  Mo  Mo180  1  0.79848636  0.59333560  0.25246533  1
  Mo  Mo181  1  0.31099518  0.30305715  0.63016112  1
  Mo  Mo182  1  0.70463289  0.28758790  0.12200443  1
  Mo  Mo183  1  0.21159299  0.79074596  0.24024133  1
  Mo  Mo184  1  0.48085722  0.69700854  0.88128832  1
  Mo  Mo185  1  0.00645102  0.00292728  -0.01462310  1
  Mo  Mo186  1  0.68513100  0.70089679  0.62979639  1
  Mo  Mo187  1  0.80323919  0.40522142  0.74943420  1
  Mo  Mo188  1  0.10229610  0.90688420  0.38548470  1
  Mo  Mo189  1  0.90924349  0.10803014  0.13012400  1
  Mo  Mo190  1  0.59040060  0.62162733  0.51184549  1
  Mo  Mo191  1  0.28821934  0.90734224  0.88133315  1
  Mo  Mo192  1  0.48205313  0.48942921  0.11554779  1
  Mo  Mo193  1  0.19280513  0.80304633  0.75888457  1
  Mo  Mo194  1  0.00493851  0.00421936  0.49854369  1
  Mo  Mo195  1  0.50903731  0.11352531  0.87307875  1
  Mo  Mo196  1  0.19960193  -0.00795630  0.49559284  1
  Mo  Mo197  1  0.10112412  0.30012381  0.62144754  1
  Mo  Mo198  1  0.59995500  0.79928118  0.50463083  1
  Mo  Mo199  1  0.29854617  0.90839099  0.62551104  1
