# generated using pymatgen
data_HfZrTaTiMo
_symmetry_space_group_name_H-M   'P 1'
_cell_length_a   15.20710227
_cell_length_b   15.22264470
_cell_length_c   16.84402967
_cell_angle_alpha   89.98995579
_cell_angle_beta   89.97479896
_cell_angle_gamma   90.04512702
_symmetry_Int_Tables_number   1
_chemical_formula_structural   HfZrTaTiMo
_chemical_formula_sum   'Hf40 Zr40 Ta40 Ti40 Mo40'
_cell_volume   3899.26177259
_cell_formula_units_Z   40
loop_
 _symmetry_equiv_pos_site_id
 _symmetry_equiv_pos_as_xyz
  1  'x, y, z'
loop_
 _atom_site_type_symbol
 _atom_site_label
 _atom_site_symmetry_multiplicity
 _atom_site_fract_x
 _atom_site_fract_y
 _atom_site_fract_z
 _atom_site_occupancy
  Hf  Hf0  1  0.58755937  0.18942143  0.00321501  1
  Hf  Hf1  1  0.90098114  0.90581835  0.61678178  1
  Hf  Hf2  1  -0.00977078  0.36044708  0.01289625  1
  Hf  Hf3  1  0.09324067  0.29463299  0.36125311  1
  Hf  Hf4  1  0.12218412  0.87602766  0.37189391  1
  Hf  Hf5  1  0.10183554  0.09319690  0.37623060  1
  Hf  Hf6  1  0.00950245  0.79241052  0.50535528  1
  Hf  Hf7  1  0.51217170  0.30368821  0.37353927  1
  Hf  Hf8  1  0.69105741  0.50376276  0.13006577  1
  Hf  Hf9  1  0.50184865  0.70088999  0.11209163  1
  Hf  Hf10  1  0.92323609  0.09985554  0.11995753  1
  Hf  Hf11  1  0.38625504  0.21398677  0.00485903  1
  Hf  Hf12  1  0.19635386  -0.00336128  0.74941151  1
  Hf  Hf13  1  0.78957348  0.39463962  0.75108751  1
  Hf  Hf14  1  0.59669867  0.39607628  -0.00613783  1
  Hf  Hf15  1  0.81528495  0.20574491  0.00121263  1
  Hf  Hf16  1  0.49649317  0.51465859  0.62954072  1
  Hf  Hf17  1  0.89240283  0.29137880  0.38273451  1
  Hf  Hf18  1  0.08791924  0.09831924  0.61552629  1
  Hf  Hf19  1  0.40862458  0.41996475  0.48538611  1
  Hf  Hf20  1  0.79393392  0.80829362  0.74197556  1
  Hf  Hf21  1  0.69855821  0.48492477  0.37397416  1
  Hf  Hf22  1  0.08067067  0.49205519  0.89156482  1
  Hf  Hf23  1  0.41601397  0.20160068  0.50794272  1
  Hf  Hf24  1  0.19713469  0.38592308  0.01128268  1
  Hf  Hf25  1  0.29692938  0.11195410  0.87145177  1
  Hf  Hf26  1  0.57693609  0.79968792  0.51165475  1
  Hf  Hf27  1  0.21692291  -0.00805737  0.24932003  1
  Hf  Hf28  1  0.89105838  0.51142122  0.86657165  1
  Hf  Hf29  1  0.29790099  0.32119704  0.60883619  1
  Hf  Hf30  1  0.19826050  0.79940857  0.76650466  1
  Hf  Hf31  1  0.09845656  0.89503084  0.12387895  1
  Hf  Hf32  1  0.69273278  0.69213011  0.37708058  1
  Hf  Hf33  1  0.30943583  0.91238624  0.88906901  1
  Hf  Hf34  1  0.29814956  0.29801816  0.37332470  1
  Hf  Hf35  1  0.59150611  0.59315793  0.49804596  1
  Hf  Hf36  1  0.38555082  0.61863031  0.49059588  1
  Hf  Hf37  1  0.30707151  0.90485611  0.10213358  1
  Hf  Hf38  1  0.00429240  0.59919935  0.50883027  1
  Hf  Hf39  1  0.41360167  0.01825274  0.23513618  1
  Zr  Zr40  1  0.28751246  0.28239867  0.15627390  1
  Zr  Zr41  1  0.80696209  0.80053307  0.25074577  1
  Zr  Zr42  1  0.90571912  0.89830039  0.38630146  1
  Zr  Zr43  1  0.00367902  0.39445496  0.50205923  1
  Zr  Zr44  1  0.18916209  0.62281287  0.23958092  1
  Zr  Zr45  1  0.89459262  0.08275443  0.87665368  1
  Zr  Zr46  1  0.29641993  0.50537281  0.88945352  1
  Zr  Zr47  1  0.52863366  0.90688847  0.87869992  1
  Zr  Zr48  1  0.60826013  -0.00359868  0.25153969  1
  Zr  Zr49  1  0.69249700  0.08162104  0.86915455  1
  Zr  Zr50  1  0.40680937  0.40775159  -0.00286191  1
  Zr  Zr51  1  0.71526010  0.89691415  0.11528944  1
  Zr  Zr52  1  0.19690598  0.60139999  0.76190477  1
  Zr  Zr53  1  0.81093732  0.01109060  0.25996642  1
  Zr  Zr54  1  0.40535908  0.21427814  0.73490196  1
  Zr  Zr55  1  0.41489085  0.00909860  0.73396739  1
  Zr  Zr56  1  0.69419710  0.28827638  0.86769128  1
  Zr  Zr57  1  0.19139543  0.40187908  0.75269368  1
  Zr  Zr58  1  0.58946378  0.79537068  0.25071091  1
  Zr  Zr59  1  0.49534733  0.29594089  0.14346616  1
  Zr  Zr60  1  0.79102815  0.40795409  -0.01164109  1
  Zr  Zr61  1  0.10389931  0.50959350  0.36890221  1
  Zr  Zr62  1  0.41668366  0.02549048  0.00425480  1
  Zr  Zr63  1  0.69276933  0.90276244  0.39012064  1
  Zr  Zr64  1  0.21145526  -0.02018326  0.50295062  1
  Zr  Zr65  1  0.89593350  0.49362182  0.63316080  1
  Zr  Zr66  1  0.40066120  0.41145735  0.75293771  1
  Zr  Zr67  1  0.70498639  0.09710874  0.11509382  1
  Zr  Zr68  1  0.29516948  0.10578393  0.61811624  1
  Zr  Zr69  1  0.09004683  0.49273169  0.12272608  1
  Zr  Zr70  1  0.88971258  0.50504998  0.11365072  1
  Zr  Zr71  1  0.19457850  0.20654014  0.74573914  1
  Zr  Zr72  1  0.89532467  0.49246788  0.37775073  1
  Zr  Zr73  1  0.30240329  0.70966391  0.10344345  1
  Zr  Zr74  1  -0.00591536  0.19878753  0.74751706  1
  Zr  Zr75  1  0.31366579  0.70542173  0.89648732  1
  Zr  Zr76  1  0.00838342  0.78730523  0.24673997  1
  Zr  Zr77  1  0.49977534  0.50873868  0.14003976  1
  Zr  Zr78  1  0.30172599  0.50665230  0.12265628  1
  Zr  Zr79  1  0.40740478  0.80974850  0.74685170  1
  Ta  Ta80  1  -0.01412515  0.59998888  0.24538837  1
  Ta  Ta81  1  0.50469331  0.51699658  0.35897308  1
  Ta  Ta82  1  0.09233665  0.09275768  0.87664114  1
  Ta  Ta83  1  0.51594571  0.10274078  0.38396844  1
  Ta  Ta84  1  0.39325805  0.41179424  0.26588353  1
  Ta  Ta85  1  0.70096133  0.89827140  0.61369434  1
  Ta  Ta86  1  0.70535747  0.69229434  0.12518876  1
  Ta  Ta87  1  0.83193393  0.80296879  0.00190860  1
  Ta  Ta88  1  0.18518600  0.19742564  0.00822396  1
  Ta  Ta89  1  0.60398270  0.18977007  0.24953311  1
  Ta  Ta90  1  0.48326993  0.91257339  0.38150237  1
  Ta  Ta91  1  0.31795607  0.09151205  0.38371950  1
  Ta  Ta92  1  0.41282676  -0.00467216  0.51966942  1
  Ta  Ta93  1  0.10753467  0.89033671  0.62779199  1
  Ta  Ta94  1  0.68757565  0.48644737  0.62869407  1
  Ta  Ta95  1  0.18616517  0.01289933  0.00242404  1
  Ta  Ta96  1  0.89299363  0.71003301  0.86183702  1
  Ta  Ta97  1  0.89406615  0.28550327  0.61614754  1
  Ta  Ta98  1  0.89883945  0.69086289  0.38264081  1
  Ta  Ta99  1  0.62748487  0.78606906  -0.00754311  1
  Ta  Ta100  1  0.69090130  0.68650635  0.62814885  1
  Ta  Ta101  1  0.40620548  0.61383559  0.75499363  1
  Ta  Ta102  1  0.09746390  0.30194879  0.61314143  1
  Ta  Ta103  1  0.17561162  0.61047914  0.00194904  1
  Ta  Ta104  1  0.08374290  0.26678756  0.15217972  1
  Ta  Ta105  1  0.29741974  0.70607051  0.62895866  1
  Ta  Ta106  1  0.18387929  0.80931605  -0.01380165  1
  Ta  Ta107  1  0.59873055  0.01143914  0.51299565  1
  Ta  Ta108  1  0.38587059  0.81627151  0.24764001  1
  Ta  Ta109  1  0.39320214  0.62125037  0.26062416  1
  Ta  Ta110  1  0.59987333  0.59010857  -0.01668500  1
  Ta  Ta111  1  0.79548823  0.59322160  0.50963262  1
  Ta  Ta112  1  0.27684910  0.71840798  0.37724785  1
  Ta  Ta113  1  0.51209283  0.90072950  0.10601881  1
  Ta  Ta114  1  0.70391564  0.30081719  0.12807410  1
  Ta  Ta115  1  0.19441578  0.20575258  0.49318795  1
  Ta  Ta116  1  0.60129522  0.20111889  0.73329150  1
  Ta  Ta117  1  0.79590153  0.78594713  0.50832230  1
  Ta  Ta118  1  0.78512507  0.61946540  -0.01299159  1
  Ta  Ta119  1  0.79773276  0.60064066  0.25096470  1
  Ti  Ti120  1  0.79989597  0.39448085  0.24521948  1
  Ti  Ti121  1  0.61277764  -0.00812700  0.72895375  1
  Ti  Ti122  1  0.38287941  0.81488202  0.51398690  1
  Ti  Ti123  1  0.61964694  0.20776544  0.51041693  1
  Ti  Ti124  1  0.00160829  0.39443295  0.74543031  1
  Ti  Ti125  1  0.00132445  0.79805935  0.74343182  1
  Ti  Ti126  1  0.59930475  0.79071429  0.74056348  1
  Ti  Ti127  1  -0.00237172  0.59879637  0.74430651  1
  Ti  Ti128  1  0.80499287  0.20224329  0.24561584  1
  Ti  Ti129  1  0.20484148  0.42148529  0.48987590  1
  Ti  Ti130  1  0.77937773  0.38693661  0.51111554  1
  Ti  Ti131  1  0.89517799  0.09748663  0.61569683  1
  Ti  Ti132  1  0.60708285  0.59221608  0.76243293  1
  Ti  Ti133  1  0.50397491  0.10861721  0.86292045  1
  Ti  Ti134  1  -0.01076716  -0.02259090  0.00065298  1
  Ti  Ti135  1  0.10635424  0.69480454  0.63180424  1
  Ti  Ti136  1  0.49614770  0.30185950  0.86604299  1
  Ti  Ti137  1  0.79957774  0.18871552  0.74547581  1
  Ti  Ti138  1  0.73059075  0.89649767  0.88353857  1
  Ti  Ti139  1  0.19668972  0.40712212  0.25298914  1
  Ti  Ti140  1  0.00398136  -0.00148783  0.49700936  1
  Ti  Ti141  1  0.10834442  0.49902484  0.62538800  1
  Ti  Ti142  1  0.79338887  0.00849169  0.49633445  1
  Ti  Ti143  1  0.09639726  0.28804838  0.87867556  1
  Ti  Ti144  1  0.29496239  0.51674063  0.62459899  1
  Ti  Ti145  1  0.90560621  0.29764033  0.86817645  1
  Ti  Ti146  1  0.70281674  0.28475105  0.37467732  1
  Ti  Ti147  1  -0.01280676  0.39405317  0.24264592  1
  Ti  Ti148  1  0.29286853  0.30425111  0.87445527  1
  Ti  Ti149  1  0.89357861  0.69495590  0.63294599  1
  Ti  Ti150  1  0.48421413  0.71792499  0.37379055  1
  Ti  Ti151  1  0.08221524  0.89967783  0.87527650  1
  Ti  Ti152  1  0.07849182  0.69559877  0.87778455  1
  Ti  Ti153  1  0.51074188  0.70037176  0.88074958  1
  Ti  Ti154  1  0.60506929  0.39593328  0.25070470  1
  Ti  Ti155  1  0.71098965  0.10292648  0.62661598  1
  Ti  Ti156  1  0.89868927  0.10542941  0.38713058  1
  Ti  Ti157  1  0.52598185  0.32182517  0.61723002  1
  Ti  Ti158  1  0.00503978  -0.00270202  0.25110138  1
  Ti  Ti159  1  -0.00970076  -0.00862043  0.74743289  1
  Mo  Mo160  1  0.20377552  0.78257307  0.50947322  1
  Mo  Mo161  1  0.09143746  0.69715940  0.11185155  1
  Mo  Mo162  1  0.20256413  0.18436224  0.26969594  1
  Mo  Mo163  1  0.29592052  0.89465407  0.63315694  1
  Mo  Mo164  1  0.42327260  0.81015337  -0.00812708  1
  Mo  Mo165  1  -0.01217688  0.18305873  0.26143205  1
  Mo  Mo166  1  0.11397775  0.09331955  0.13781413  1
  Mo  Mo167  1  0.69563526  0.50658432  0.86577747  1
  Mo  Mo168  1  0.08808247  0.69502359  0.37648859  1
  Mo  Mo169  1  0.00116357  0.19272563  0.50207157  1
  Mo  Mo170  1  0.00783040  0.78838762  -0.00075509  1
  Mo  Mo171  1  0.59370064  0.39695431  0.75425975  1
  Mo  Mo172  1  0.50794380  0.89890726  0.62655682  1
  Mo  Mo173  1  0.49712080  0.69605135  0.63247425  1
  Mo  Mo174  1  0.41099562  0.60287009  -0.00864042  1
  Mo  Mo175  1  0.29286797  0.10592269  0.12484781  1
  Mo  Mo176  1  0.60936586  -0.00877331  -0.00463070  1
  Mo  Mo177  1  0.60165645  0.40002242  0.49603902  1
  Mo  Mo178  1  0.30088598  0.51144210  0.36607580  1
  Mo  Mo179  1  0.80744355  -0.00823048  0.00108317  1
  Mo  Mo180  1  -0.02319720  0.61671208  -0.00424198  1
  Mo  Mo181  1  0.70528457  0.29705984  0.63003169  1
  Mo  Mo182  1  0.89425921  0.69948549  0.12352604  1
  Mo  Mo183  1  0.01300360  0.17862058  -0.00163909  1
  Mo  Mo184  1  0.70048674  0.70876312  0.86594670  1
  Mo  Mo185  1  0.89410099  0.29398981  0.13683751  1
  Mo  Mo186  1  0.50495069  0.10432944  0.12634371  1
  Mo  Mo187  1  0.21091011  0.79744106  0.24133644  1
  Mo  Mo188  1  0.79914406  0.19447011  0.50375712  1
  Mo  Mo189  1  0.70367330  0.11277484  0.38184262  1
  Mo  Mo190  1  0.51730407  0.10895904  0.62083189  1
  Mo  Mo191  1  0.60065964  0.60614331  0.25573901  1
  Mo  Mo192  1  0.79383796  0.60621174  0.74061483  1
  Mo  Mo193  1  0.40630692  0.19529100  0.26866575  1
  Mo  Mo194  1  0.19699281  0.60523725  0.50591735  1
  Mo  Mo195  1  0.90678146  0.90160715  0.12811926  1
  Mo  Mo196  1  0.91033769  0.89289174  0.86566956  1
  Mo  Mo197  1  0.50212678  0.50713108  0.86551787  1
  Mo  Mo198  1  0.79938557  -0.00002807  0.73577901  1
  Mo  Mo199  1  0.31398616  0.89995669  0.37732035  1
