# generated using pymatgen
data_HfZrTaTiMo
_symmetry_space_group_name_H-M   'P 1'
_cell_length_a   15.21688952
_cell_length_b   15.21240454
_cell_length_c   16.87072009
_cell_angle_alpha   90.02196623
_cell_angle_beta   90.01505424
_cell_angle_gamma   90.01710545
_symmetry_Int_Tables_number   1
_chemical_formula_structural   HfZrTaTiMo
_chemical_formula_sum   'Hf40 Zr40 Ta40 Ti40 Mo40'
_cell_volume   3905.32612856
_cell_formula_units_Z   40
loop_
 _symmetry_equiv_pos_site_id
 _symmetry_equiv_pos_as_xyz
  1  'x, y, z'
loop_
 _atom_site_type_symbol
 _atom_site_label
 _atom_site_symmetry_multiplicity
 _atom_site_fract_x
 _atom_site_fract_y
 _atom_site_fract_z
 _atom_site_occupancy
  Hf  Hf0  1  0.79497024  0.79581140  0.25312841  1
  Hf  Hf1  1  0.90208967  0.30286120  0.86783844  1
  Hf  Hf2  1  0.70291408  0.06864120  0.12905018  1
  Hf  Hf3  1  0.29886450  0.49927763  0.63369352  1
  Hf  Hf4  1  0.30085143  0.90140092  0.37183351  1
  Hf  Hf5  1  0.58742617  0.37714415  0.23796534  1
  Hf  Hf6  1  0.10432136  0.30682435  0.13035178  1
  Hf  Hf7  1  0.30541463  0.28265665  0.63027505  1
  Hf  Hf8  1  0.20345952  0.00283389  0.01174688  1
  Hf  Hf9  1  0.20239293  0.80067553  0.50616807  1
  Hf  Hf10  1  0.69548664  0.51344068  0.34859975  1
  Hf  Hf11  1  0.39914313  -0.00206046  0.74569031  1
  Hf  Hf12  1  0.10470673  0.69687649  0.87171557  1
  Hf  Hf13  1  0.20557375  0.20830601  0.25811475  1
  Hf  Hf14  1  0.19932165  0.40950667  0.25934568  1
  Hf  Hf15  1  0.27411640  0.30572805  0.85501720  1
  Hf  Hf16  1  0.90067851  0.89784397  0.39033810  1
  Hf  Hf17  1  0.50562987  0.90191188  0.38635371  1
  Hf  Hf18  1  0.41765185  0.00718027  0.25079523  1
  Hf  Hf19  1  0.39054946  0.40720659  -0.00781457  1
  Hf  Hf20  1  0.41091280  0.40015984  0.74819442  1
  Hf  Hf21  1  0.08834708  0.89811458  0.88214354  1
  Hf  Hf22  1  0.59375498  0.38691507  0.01539138  1
  Hf  Hf23  1  0.38384841  0.01132616  0.49780165  1
  Hf  Hf24  1  0.18273094  0.79486105  0.25264041  1
  Hf  Hf25  1  0.40404865  0.80491237  0.00195210  1
  Hf  Hf26  1  0.20406857  0.00148696  0.24006542  1
  Hf  Hf27  1  0.40824850  0.60308065  0.49905415  1
  Hf  Hf28  1  0.31561417  0.11795489  0.12908463  1
  Hf  Hf29  1  0.09201845  0.87046513  0.10530364  1
  Hf  Hf30  1  0.78763331  0.19625085  0.49411931  1
  Hf  Hf31  1  0.90248448  0.49937240  0.36104770  1
  Hf  Hf32  1  -0.00272173  0.40356074  0.74975826  1
  Hf  Hf33  1  -0.02360947  0.00883290  -0.00193411  1
  Hf  Hf34  1  -0.00562500  0.21267274  0.50732806  1
  Hf  Hf35  1  0.09623103  0.51698456  0.13071461  1
  Hf  Hf36  1  0.88360963  0.31198717  0.62575007  1
  Hf  Hf37  1  0.51615292  0.50046630  0.87724726  1
  Hf  Hf38  1  0.53096148  0.50215417  0.62958717  1
  Hf  Hf39  1  0.50744559  0.89809954  0.60812307  1
  Zr  Zr40  1  0.70301795  0.51042555  0.14078332  1
  Zr  Zr41  1  0.49486193  0.51018213  0.12652781  1
  Zr  Zr42  1  0.61222588  0.77634084  0.49965303  1
  Zr  Zr43  1  0.88131491  0.90893034  0.12002705  1
  Zr  Zr44  1  0.29669479  0.51321461  0.85624135  1
  Zr  Zr45  1  0.41169253  0.39401891  0.50851749  1
  Zr  Zr46  1  0.38880661  0.39684435  0.24679802  1
  Zr  Zr47  1  0.19885070  0.60531970  0.49873972  1
  Zr  Zr48  1  0.69426344  0.67117324  0.64230252  1
  Zr  Zr49  1  0.80171602  0.40115069  0.01255328  1
  Zr  Zr50  1  0.09161054  0.10304237  0.12609648  1
  Zr  Zr51  1  -0.00453448  0.41129619  0.00220174  1
  Zr  Zr52  1  0.80361296  0.39903867  0.48165003  1
  Zr  Zr53  1  0.29314087  0.89963150  0.88013404  1
  Zr  Zr54  1  0.59941287  0.78923638  0.75279694  1
  Zr  Zr55  1  0.29538402  0.09784832  0.86704454  1
  Zr  Zr56  1  0.00448248  0.21195155  -0.00180440  1
  Zr  Zr57  1  0.60391268  -0.00349049  0.73965211  1
  Zr  Zr58  1  0.09901159  0.90867777  0.38845792  1
  Zr  Zr59  1  0.88694149  0.69937481  0.38321108  1
  Zr  Zr60  1  0.20297145  0.18017707  0.50068944  1
  Zr  Zr61  1  0.89046787  0.70190437  0.62081931  1
  Zr  Zr62  1  0.00121937  0.01835781  0.51773510  1
  Zr  Zr63  1  0.42048217  0.00970461  0.00649259  1
  Zr  Zr64  1  -0.00266011  0.58942571  0.50167603  1
  Zr  Zr65  1  0.59284820  0.17541676  0.00452925  1
  Zr  Zr66  1  0.40138085  0.21234244  -0.01553120  1
  Zr  Zr67  1  0.29067767  0.70665798  0.12250889  1
  Zr  Zr68  1  0.49218727  0.11173529  0.61056415  1
  Zr  Zr69  1  -0.00197864  -0.01019513  0.24737244  1
  Zr  Zr70  1  0.19643308  0.80171681  0.74189680  1
  Zr  Zr71  1  0.50062485  0.49635378  0.36735143  1
  Zr  Zr72  1  0.80989880  0.17952499  0.00778547  1
  Zr  Zr73  1  0.91143948  0.70287569  0.12556298  1
  Zr  Zr74  1  0.69714240  0.29109601  0.88412760  1
  Zr  Zr75  1  0.09903232  0.11277863  0.86500409  1
  Zr  Zr76  1  0.79324777  0.80041047  -0.01157479  1
  Zr  Zr77  1  -0.00653293  0.00050211  0.74058474  1
  Zr  Zr78  1  0.40446189  0.80209253  0.74957419  1
  Zr  Zr79  1  0.42705718  0.20054777  0.76577024  1
  Ta  Ta80  1  0.69993232  0.27765410  0.13616180  1
  Ta  Ta81  1  0.68228851  0.28069212  0.36092066  1
  Ta  Ta82  1  0.51174770  0.90706141  0.87788198  1
  Ta  Ta83  1  -0.00005754  0.60980754  -0.00493256  1
  Ta  Ta84  1  0.88710687  0.50678794  0.62684445  1
  Ta  Ta85  1  0.19364539  0.39886046  0.49907200  1
  Ta  Ta86  1  0.60679208  0.38148928  0.75679908  1
  Ta  Ta87  1  0.40492002  0.60839703  -0.00227160  1
  Ta  Ta88  1  0.39788098  0.79573557  0.50083392  1
  Ta  Ta89  1  -0.00553203  0.20188442  0.73304290  1
  Ta  Ta90  1  -0.00687041  0.80116226  0.74108695  1
  Ta  Ta91  1  0.30388877  0.69966276  0.87652752  1
  Ta  Ta92  1  0.10256697  0.49393601  0.86471894  1
  Ta  Ta93  1  0.79646511  0.81039150  0.75289402  1
  Ta  Ta94  1  0.10323933  0.30673790  0.62321195  1
  Ta  Ta95  1  0.00373200  0.60663496  0.74394645  1
  Ta  Ta96  1  0.89645948  0.51807042  0.87170159  1
  Ta  Ta97  1  0.77090733  0.59811091  0.49617373  1
  Ta  Ta98  1  0.29704086  0.50284255  0.38130049  1
  Ta  Ta99  1  -0.00068765  0.39633934  0.25006514  1
  Ta  Ta100  1  0.10237330  0.90458101  0.62243504  1
  Ta  Ta101  1  0.20023847  0.59855525  -0.00410974  1
  Ta  Ta102  1  0.78733016  0.42078744  0.75690738  1
  Ta  Ta103  1  0.30736289  0.30002513  0.38566547  1
  Ta  Ta104  1  0.00276121  0.79725743  0.51672646  1
  Ta  Ta105  1  0.29209416  0.50871979  0.12065137  1
  Ta  Ta106  1  0.80073638  0.38491790  0.24977002  1
  Ta  Ta107  1  0.30288254  0.69890054  0.62924236  1
  Ta  Ta108  1  0.90027528  0.09814440  0.37519426  1
  Ta  Ta109  1  0.59953786  0.79043077  -0.00708626  1
  Ta  Ta110  1  0.79623050  0.00059876  0.51360036  1
  Ta  Ta111  1  0.39185289  0.60779206  0.25318879  1
  Ta  Ta112  1  0.79461027  -0.00461707  0.26498669  1
  Ta  Ta113  1  0.69380698  0.11753482  0.62541744  1
  Ta  Ta114  1  0.09387769  0.30560811  0.38017419  1
  Ta  Ta115  1  0.70386513  0.07870505  0.86927573  1
  Ta  Ta116  1  0.51518118  0.11951946  0.38506888  1
  Ta  Ta117  1  0.09691244  0.50191680  0.62924227  1
  Ta  Ta118  1  0.52016131  0.89975714  0.12958786  1
  Ta  Ta119  1  0.19292422  0.40301793  -0.00440600  1
  Ti  Ti120  1  0.08900942  0.70594095  0.37841453  1
  Ti  Ti121  1  0.30491391  0.70293870  0.37220862  1
  Ti  Ti122  1  0.19935034  0.60398264  0.25950916  1
  Ti  Ti123  1  0.00363636  0.61686005  0.25340354  1
  Ti  Ti124  1  0.40676949  0.80021951  0.24921520  1
  Ti  Ti125  1  0.89847561  0.50362384  0.14239115  1
  Ti  Ti126  1  0.78613572  0.20855546  0.74483579  1
  Ti  Ti127  1  0.61532522  0.39782073  0.49133363  1
  Ti  Ti128  1  -0.00388079  0.19824634  0.25544280  1
  Ti  Ti129  1  0.42330074  0.21007950  0.25233633  1
  Ti  Ti130  1  0.61342466  0.01176336  0.49995778  1
  Ti  Ti131  1  0.88235026  0.91101359  0.86965592  1
  Ti  Ti132  1  0.30041349  0.31092377  0.11987027  1
  Ti  Ti133  1  0.69609935  0.70413850  0.12704514  1
  Ti  Ti134  1  0.79571117  0.00434405  0.72961553  1
  Ti  Ti135  1  0.61904831  -0.02263492  -0.00289019  1
  Ti  Ti136  1  0.90485794  0.71072607  0.86972949  1
  Ti  Ti137  1  0.70535375  0.89332485  0.39066705  1
  Ti  Ti138  1  0.50612208  0.69560313  0.37040694  1
  Ti  Ti139  1  0.50453332  0.70503258  0.12790037  1
  Ti  Ti140  1  0.89114769  0.10460730  0.85908876  1
  Ti  Ti141  1  0.70820369  0.67750493  0.86637060  1
  Ti  Ti142  1  0.90102129  0.29456298  0.36823893  1
  Ti  Ti143  1  0.09609495  0.50094015  0.37554784  1
  Ti  Ti144  1  0.52535125  0.29421544  0.62299773  1
  Ti  Ti145  1  0.60968295  -0.00153256  0.26415655  1
  Ti  Ti146  1  0.41512324  0.60820036  0.74934462  1
  Ti  Ti147  1  0.89915216  0.29093237  0.13733681  1
  Ti  Ti148  1  0.89125344  0.89923999  0.62045686  1
  Ti  Ti149  1  0.30811008  0.10637698  0.36851973  1
  Ti  Ti150  1  0.30814886  0.90007695  0.12766511  1
  Ti  Ti151  1  0.79629804  0.18496258  0.25646836  1
  Ti  Ti152  1  0.29963654  0.90622700  0.62038042  1
  Ti  Ti153  1  0.60044789  0.80244671  0.25879680  1
  Ti  Ti154  1  0.80418481  0.59712011  0.00119743  1
  Ti  Ti155  1  0.49871150  0.69456648  0.62371465  1
  Ti  Ti156  1  0.19930625  0.21075650  -0.00207821  1
  Ti  Ti157  1  0.10045062  0.10328767  0.37322660  1
  Ti  Ti158  1  0.50488326  0.69573815  0.87671874  1
  Ti  Ti159  1  0.60973508  0.60137818  -0.00013474  1
  Mo  Mo160  1  0.50862860  0.09480148  0.13593748  1
  Mo  Mo161  1  0.70810891  0.49961069  0.88760382  1
  Mo  Mo162  1  0.61263204  0.19349914  0.75454149  1
  Mo  Mo163  1  0.88632675  0.10773703  0.63309005  1
  Mo  Mo164  1  0.10229292  0.10715703  0.63389628  1
  Mo  Mo165  1  0.59833520  0.58493354  0.49491643  1
  Mo  Mo166  1  0.50322816  0.30200188  0.87677522  1
  Mo  Mo167  1  0.00208464  0.79521380  0.25588680  1
  Mo  Mo168  1  0.51724264  0.09058953  0.87514456  1
  Mo  Mo169  1  0.69209916  0.70261312  0.37112019  1
  Mo  Mo170  1  0.61079905  0.57869968  0.76499907  1
  Mo  Mo171  1  0.71035057  0.48220714  0.62359937  1
  Mo  Mo172  1  0.79808300  0.80261142  0.50819833  1
  Mo  Mo173  1  0.70472763  0.08666553  0.37804118  1
  Mo  Mo174  1  0.89001769  0.10785162  0.14284359  1
  Mo  Mo175  1  0.19711146  0.00246831  0.73373610  1
  Mo  Mo176  1  -0.00623234  0.79602751  -0.01650463  1
  Mo  Mo177  1  0.59960273  0.18076205  0.24397292  1
  Mo  Mo178  1  0.29376806  0.09451365  0.63754743  1
  Mo  Mo179  1  0.70606320  0.89660774  0.61625707  1
  Mo  Mo180  1  0.58998466  0.62481353  0.24375728  1
  Mo  Mo181  1  0.18833945  0.19856929  0.73748870  1
  Mo  Mo182  1  0.60154158  0.21187207  0.49690669  1
  Mo  Mo183  1  0.10188847  0.69067402  0.11900377  1
  Mo  Mo184  1  0.69606009  0.30958249  0.62552472  1
  Mo  Mo185  1  0.00645303  0.40192412  0.49988574  1
  Mo  Mo186  1  0.79269818  -0.00115987  -0.00795349  1
  Mo  Mo187  1  0.19874386  0.00056949  0.50865899  1
  Mo  Mo188  1  0.40076815  0.20401217  0.49511311  1
  Mo  Mo189  1  0.69097553  0.88197623  0.12998178  1
  Mo  Mo190  1  0.70053601  0.88944407  0.86782821  1
  Mo  Mo191  1  0.20118478  0.79122035  -0.00599729  1
  Mo  Mo192  1  0.80165088  0.60109962  0.24413025  1
  Mo  Mo193  1  0.19238997  0.40215717  0.73645028  1
  Mo  Mo194  1  0.81016867  0.60413847  0.75811661  1
  Mo  Mo195  1  0.48816289  0.28536442  0.12329495  1
  Mo  Mo196  1  0.09988389  0.69967694  0.63197121  1
  Mo  Mo197  1  0.19884402  0.60299737  0.74188794  1
  Mo  Mo198  1  0.09800282  0.30634463  0.86842825  1
  Mo  Mo199  1  0.49954007  0.29827107  0.37924245  1
