# generated using pymatgen
data_HfZrTaTiMo
_symmetry_space_group_name_H-M   'P 1'
_cell_length_a   15.21643132
_cell_length_b   15.21924174
_cell_length_c   16.80548805
_cell_angle_alpha   89.98558331
_cell_angle_beta   89.94176644
_cell_angle_gamma   90.08794502
_symmetry_Int_Tables_number   1
_chemical_formula_structural   HfZrTaTiMo
_chemical_formula_sum   'Hf40 Zr40 Ta40 Ti40 Mo40'
_cell_volume   3891.85100044
_cell_formula_units_Z   40
loop_
 _symmetry_equiv_pos_site_id
 _symmetry_equiv_pos_as_xyz
  1  'x, y, z'
loop_
 _atom_site_type_symbol
 _atom_site_label
 _atom_site_symmetry_multiplicity
 _atom_site_fract_x
 _atom_site_fract_y
 _atom_site_fract_z
 _atom_site_occupancy
  Hf  Hf0  1  0.91573912  0.12260136  0.13722330  1
  Hf  Hf1  1  0.49366778  0.91228280  0.90017875  1
  Hf  Hf2  1  0.81093018  0.60908717  0.00981665  1
  Hf  Hf3  1  0.18817719  -0.00394246  0.75729627  1
  Hf  Hf4  1  0.18767426  0.39918997  0.24939867  1
  Hf  Hf5  1  0.80088823  0.41096231  0.01210830  1
  Hf  Hf6  1  0.71389603  0.49603747  0.87312950  1
  Hf  Hf7  1  0.39653345  0.80453752  0.77703927  1
  Hf  Hf8  1  0.80375122  0.80812417  0.00360782  1
  Hf  Hf9  1  0.29917405  0.49747752  0.63600291  1
  Hf  Hf10  1  0.31386517  0.29818927  0.64411933  1
  Hf  Hf11  1  0.00092068  0.00836865  0.01050692  1
  Hf  Hf12  1  0.69704595  0.91581490  0.88877472  1
  Hf  Hf13  1  0.78493707  0.00872287  0.23376793  1
  Hf  Hf14  1  0.48831330  0.30181601  0.86383301  1
  Hf  Hf15  1  0.18619848  -0.00052140  0.49278375  1
  Hf  Hf16  1  0.27805958  0.10732858  0.62617736  1
  Hf  Hf17  1  0.69566574  0.91418443  0.37543367  1
  Hf  Hf18  1  0.21589974  0.80313870  0.49428845  1
  Hf  Hf19  1  0.61116509  0.60640008  0.25605998  1
  Hf  Hf20  1  0.23077072  0.79989209  0.24182199  1
  Hf  Hf21  1  0.51229880  0.29598949  0.63418458  1
  Hf  Hf22  1  0.88559384  0.10135251  0.36718057  1
  Hf  Hf23  1  0.00518058  0.57945881  0.25373374  1
  Hf  Hf24  1  0.51704138  0.49550308  0.87497231  1
  Hf  Hf25  1  0.18414729  0.17991368  0.00151520  1
  Hf  Hf26  1  0.88461101  0.10239235  0.60874631  1
  Hf  Hf27  1  -0.00938095  -0.00676970  0.48136876  1
  Hf  Hf28  1  0.09310227  0.89412610  0.88310940  1
  Hf  Hf29  1  0.00287137  0.59775996  0.00643201  1
  Hf  Hf30  1  0.61291955  0.60301470  0.74740337  1
  Hf  Hf31  1  0.40702355  0.60943257  0.76095903  1
  Hf  Hf32  1  0.39056159  -0.00429578  0.50064723  1
  Hf  Hf33  1  0.19561123  0.59089939  0.49222456  1
  Hf  Hf34  1  0.68259318  0.31789651  0.12843852  1
  Hf  Hf35  1  0.30520195  0.90002866  0.63470514  1
  Hf  Hf36  1  0.19054917  0.19351555  0.25528015  1
  Hf  Hf37  1  0.51265116  0.70729766  0.39018170  1
  Hf  Hf38  1  0.19282569  0.39303182  0.76038870  1
  Hf  Hf39  1  0.38581899  0.20081114  -0.00222274  1
  Zr  Zr40  1  0.11264932  0.69024803  0.13112288  1
  Zr  Zr41  1  0.49587080  0.10052500  0.36789845  1
  Zr  Zr42  1  0.30859895  0.70366510  0.63041596  1
  Zr  Zr43  1  -0.00144391  0.19368564  0.74439503  1
  Zr  Zr44  1  -0.00697006  0.79818841  0.01327984  1
  Zr  Zr45  1  0.01159135  0.39990547  0.48556789  1
  Zr  Zr46  1  0.78996470  0.22419506  0.73894111  1
  Zr  Zr47  1  0.01326154  0.79960025  0.48175339  1
  Zr  Zr48  1  0.90556677  0.70083950  0.62291923  1
  Zr  Zr49  1  0.79552025  0.80181707  0.75344786  1
  Zr  Zr50  1  0.79330232  0.01836936  0.01527302  1
  Zr  Zr51  1  0.39334667  0.20650105  0.49130630  1
  Zr  Zr52  1  0.79206277  0.02080102  0.75345366  1
  Zr  Zr53  1  0.50304553  0.49076088  0.36926141  1
  Zr  Zr54  1  0.80276290  0.22062182  0.24282712  1
  Zr  Zr55  1  0.48863919  0.10322548  0.62366445  1
  Zr  Zr56  1  0.69420207  0.70325297  0.12634158  1
  Zr  Zr57  1  0.50895810  0.48854162  0.13299073  1
  Zr  Zr58  1  0.59346381  0.19758874  0.00757728  1
  Zr  Zr59  1  0.91656781  0.90763258  0.63594027  1
  Zr  Zr60  1  0.10361162  0.69882382  0.62528828  1
  Zr  Zr61  1  0.69882911  0.70903106  0.60364099  1
  Zr  Zr62  1  0.10481036  0.49782079  0.89150275  1
  Zr  Zr63  1  0.70593880  0.49948741  0.60871849  1
  Zr  Zr64  1  0.39431144  0.01786601  0.76864548  1
  Zr  Zr65  1  0.71239773  0.71464568  0.38134126  1
  Zr  Zr66  1  0.69288734  0.30431969  0.36675303  1
  Zr  Zr67  1  0.20697526  0.37865444  0.00456767  1
  Zr  Zr68  1  0.39907039  0.59504592  0.49757529  1
  Zr  Zr69  1  0.21122406  0.38778278  0.49364908  1
  Zr  Zr70  1  0.39891276  0.61019123  0.24661097  1
  Zr  Zr71  1  0.00416012  0.59787128  0.75958880  1
  Zr  Zr72  1  0.10518320  0.28393804  0.62337838  1
  Zr  Zr73  1  0.59644633  -0.00451350  0.74386002  1
  Zr  Zr74  1  0.89361519  0.11647798  0.88046153  1
  Zr  Zr75  1  0.31471536  0.48346436  0.88023691  1
  Zr  Zr76  1  0.50279769  0.49772748  0.62449328  1
  Zr  Zr77  1  0.59278952  0.79843767  0.75426526  1
  Zr  Zr78  1  0.11545764  0.70061968  0.35942470  1
  Zr  Zr79  1  0.49948341  0.89862822  0.38008869  1
  Ta  Ta80  1  0.81631410  0.61128344  0.25165060  1
  Ta  Ta81  1  0.30855617  0.29727855  0.35764840  1
  Ta  Ta82  1  -0.00810796  0.78912527  0.24552519  1
  Ta  Ta83  1  0.31434219  0.70295355  0.10679172  1
  Ta  Ta84  1  0.90942809  0.50103253  0.61515495  1
  Ta  Ta85  1  0.30026392  0.89897373  0.10301056  1
  Ta  Ta86  1  0.20106137  0.79114817  0.76989200  1
  Ta  Ta87  1  0.09583417  0.48175857  0.11813781  1
  Ta  Ta88  1  0.89474415  0.89528989  0.35228837  1
  Ta  Ta89  1  0.08478561  0.28976147  0.87895206  1
  Ta  Ta90  1  0.49710667  0.29944410  0.34905315  1
  Ta  Ta91  1  0.48726701  0.88878697  0.10741347  1
  Ta  Ta92  1  0.80385451  0.42136292  0.24904718  1
  Ta  Ta93  1  0.81787663  0.82118947  0.49322104  1
  Ta  Ta94  1  0.09758835  0.49676636  0.62875579  1
  Ta  Ta95  1  0.07797582  0.28335221  0.12962958  1
  Ta  Ta96  1  0.68248953  0.90090091  0.11605666  1
  Ta  Ta97  1  0.71152779  0.91678599  0.60944488  1
  Ta  Ta98  1  0.29141879  0.08585309  0.12648734  1
  Ta  Ta99  1  0.10613438  0.90347766  0.13775594  1
  Ta  Ta100  1  0.29868444  0.50250784  0.11707972  1
  Ta  Ta101  1  0.20133126  0.60284460  0.76189056  1
  Ta  Ta102  1  0.90268152  0.90950452  0.86961841  1
  Ta  Ta103  1  0.69717709  0.29883792  0.88593431  1
  Ta  Ta104  1  0.30086337  0.49511505  0.36525207  1
  Ta  Ta105  1  0.70311775  0.50710217  0.38509675  1
  Ta  Ta106  1  0.29388255  0.08781191  0.36274849  1
  Ta  Ta107  1  0.60823094  0.02055779  0.50571337  1
  Ta  Ta108  1  0.70160330  0.69657835  0.88134409  1
  Ta  Ta109  1  0.58510575  -0.00634305  0.23229651  1
  Ta  Ta110  1  0.90307282  0.49806420  0.87427251  1
  Ta  Ta111  1  0.60069937  0.18717007  0.76216783  1
  Ta  Ta112  1  0.61998003  0.38782882  0.74610201  1
  Ta  Ta113  1  0.80530280  0.39549181  0.49612517  1
  Ta  Ta114  1  0.41321951  0.60029507  -0.00138547  1
  Ta  Ta115  1  -0.00353431  0.19907388  0.48076783  1
  Ta  Ta116  1  0.59335467  0.78679655  -0.00763476  1
  Ta  Ta117  1  0.00169880  0.59730696  0.48279150  1
  Ta  Ta118  1  0.80554836  0.21659373  0.01493610  1
  Ta  Ta119  1  0.59416938  0.19183164  0.23121402  1
  Ti  Ti120  1  0.29982680  0.29729408  0.13673249  1
  Ti  Ti121  1  0.31813150  0.70361992  0.37543039  1
  Ti  Ti122  1  0.10456332  0.90999580  0.34471824  1
  Ti  Ti123  1  -0.00638413  0.39621243  0.74701384  1
  Ti  Ti124  1  0.81481944  0.60603510  0.49111641  1
  Ti  Ti125  1  0.79067477  0.80251518  0.24082837  1
  Ti  Ti126  1  0.40312917  0.39343346  0.49364471  1
  Ti  Ti127  1  0.89318114  0.31216910  0.87582907  1
  Ti  Ti128  1  0.41691286  0.39194019  0.01236162  1
  Ti  Ti129  1  0.29221346  0.69049236  0.89638352  1
  Ti  Ti130  1  0.60710111  0.58907323  0.00117155  1
  Ti  Ti131  1  0.50588268  0.70252397  0.60671451  1
  Ti  Ti132  1  0.80792393  0.40984500  0.73857877  1
  Ti  Ti133  1  0.70371369  0.50781038  0.13254530  1
  Ti  Ti134  1  0.10029838  0.08713500  0.14233572  1
  Ti  Ti135  1  -0.00831462  0.38221515  0.26329381  1
  Ti  Ti136  1  0.30732784  0.89484803  0.36991343  1
  Ti  Ti137  1  0.19054026  0.19505763  0.47645928  1
  Ti  Ti138  1  0.28904529  0.90814547  0.90122305  1
  Ti  Ti139  1  0.90458541  0.90498098  0.14167051  1
  Ti  Ti140  1  0.39717010  0.18879881  0.23864716  1
  Ti  Ti141  1  0.20834556  0.59145142  0.24682677  1
  Ti  Ti142  1  0.39099505  -0.01676015  0.24063188  1
  Ti  Ti143  1  0.90084241  0.30522133  0.61126584  1
  Ti  Ti144  1  0.20746967  0.19171424  0.77314547  1
  Ti  Ti145  1  0.50644872  0.88987819  0.61115403  1
  Ti  Ti146  1  0.68489894  0.10684816  0.36749172  1
  Ti  Ti147  1  0.89723465  0.49853728  0.37703186  1
  Ti  Ti148  1  0.09218192  0.09070731  0.87639418  1
  Ti  Ti149  1  0.90360352  0.70410688  0.87295333  1
  Ti  Ti150  1  0.48880319  0.08736039  0.11823884  1
  Ti  Ti151  1  0.10642031  0.89379053  0.63306635  1
  Ti  Ti152  1  0.08239862  0.08560854  0.62304959  1
  Ti  Ti153  1  0.80894764  0.60129794  0.74787610  1
  Ti  Ti154  1  0.77620075  0.19910486  0.49850491  1
  Ti  Ti155  1  0.19175753  0.78940891  0.00017354  1
  Ti  Ti156  1  0.50208471  0.70430530  0.12219360  1
  Ti  Ti157  1  0.60032672  0.38656611  0.49711378  1
  Ti  Ti158  1  -0.00918798  0.38765690  0.00531599  1
  Ti  Ti159  1  0.00811354  0.79909415  0.75871602  1
  Mo  Mo160  1  0.89112167  0.30346656  0.38542290  1
  Mo  Mo161  1  0.20898313  -0.00610155  0.24883915  1
  Mo  Mo162  1  0.50962126  0.10294140  0.88423008  1
  Mo  Mo163  1  0.40286517  0.80286997  0.50446555  1
  Mo  Mo164  1  0.68890052  0.11354061  0.61783119  1
  Mo  Mo165  1  0.29204023  0.29076923  0.87087555  1
  Mo  Mo166  1  0.18924230  -0.00694984  0.00564815  1
  Mo  Mo167  1  0.69456917  0.10515840  0.13032238  1
  Mo  Mo168  1  0.79782785  0.00619473  0.49025088  1
  Mo  Mo169  1  0.69055847  0.11267352  0.88299912  1
  Mo  Mo170  1  0.90707456  0.49862769  0.13329297  1
  Mo  Mo171  1  0.60901306  0.81410398  0.50690437  1
  Mo  Mo172  1  0.48614528  0.29435956  0.14082189  1
  Mo  Mo173  1  0.59935988  0.40176376  -0.00201076  1
  Mo  Mo174  1  0.60553679  0.40204284  0.25470990  1
  Mo  Mo175  1  -0.00155846  -0.00212199  0.25243023  1
  Mo  Mo176  1  0.40837625  0.40311560  0.75013360  1
  Mo  Mo177  1  0.10281525  0.69996405  0.88073976  1
  Mo  Mo178  1  -0.00593751  0.20638203  -0.00193574  1
  Mo  Mo179  1  -0.00218804  -0.00505047  0.75234352  1
  Mo  Mo180  1  0.39377686  0.79189638  -0.01398817  1
  Mo  Mo181  1  0.90061496  0.70356950  0.13615593  1
  Mo  Mo182  1  0.38941956  0.39465969  0.23921266  1
  Mo  Mo183  1  0.60865433  0.59659739  0.49366395  1
  Mo  Mo184  1  0.00152821  0.20662704  0.27107037  1
  Mo  Mo185  1  0.29435494  0.09431102  0.88437354  1
  Mo  Mo186  1  0.10109578  0.29494638  0.37365564  1
  Mo  Mo187  1  0.59282384  0.20785266  0.49127819  1
  Mo  Mo188  1  0.90208478  0.70159691  0.37102086  1
  Mo  Mo189  1  0.10683722  0.49784628  0.36870268  1
  Mo  Mo190  1  0.41778454  0.80563131  0.24111926  1
  Mo  Mo191  1  0.50571117  0.69439143  0.88466864  1
  Mo  Mo192  1  0.59289545  0.80889782  0.24243141  1
  Mo  Mo193  1  0.90467020  0.31819148  0.12958355  1
  Mo  Mo194  1  0.59439095  0.00163324  0.01658958  1
  Mo  Mo195  1  0.70338185  0.29797901  0.61490279  1
  Mo  Mo196  1  0.39541628  0.19957345  0.76478828  1
  Mo  Mo197  1  0.39074328  0.00976803  0.00036623  1
  Mo  Mo198  1  0.20808539  0.59296159  0.00915846  1
  Mo  Mo199  1  0.09541220  0.09444937  0.36784284  1
