# generated using pymatgen
data_HfZrTaTiMo
_symmetry_space_group_name_H-M   'P 1'
_cell_length_a   15.21194381
_cell_length_b   15.21312121
_cell_length_c   16.82619360
_cell_angle_alpha   90.09978312
_cell_angle_beta   90.16644437
_cell_angle_gamma   89.93036510
_symmetry_Int_Tables_number   1
_chemical_formula_structural   HfZrTaTiMo
_chemical_formula_sum   'Hf40 Zr40 Ta40 Ti40 Mo40'
_cell_volume   3893.91180033
_cell_formula_units_Z   40
loop_
 _symmetry_equiv_pos_site_id
 _symmetry_equiv_pos_as_xyz
  1  'x, y, z'
loop_
 _atom_site_type_symbol
 _atom_site_label
 _atom_site_symmetry_multiplicity
 _atom_site_fract_x
 _atom_site_fract_y
 _atom_site_fract_z
 _atom_site_occupancy
  Hf  Hf0  1  0.19763060  0.41306908  0.50761197  1
  Hf  Hf1  1  0.09242138  0.69364392  0.88957104  1
  Hf  Hf2  1  0.68830188  0.48701265  0.60968653  1
  Hf  Hf3  1  0.11128945  0.09097125  0.62338260  1
  Hf  Hf4  1  0.39871838  0.41087625  0.24596503  1
  Hf  Hf5  1  0.50453668  0.10265918  0.37330592  1
  Hf  Hf6  1  0.10140617  0.09084280  0.39337632  1
  Hf  Hf7  1  0.60795928  0.20750239  0.24043696  1
  Hf  Hf8  1  0.42560634  0.21855743  0.51031652  1
  Hf  Hf9  1  0.70504685  0.31201487  0.11447324  1
  Hf  Hf10  1  0.61302479  -0.02293037  0.23941910  1
  Hf  Hf11  1  0.69853205  0.90347812  0.64494316  1
  Hf  Hf12  1  0.30080716  0.11147707  0.37561058  1
  Hf  Hf13  1  0.79239150  0.60978533  0.26003071  1
  Hf  Hf14  1  0.48819787  0.49079030  0.39432099  1
  Hf  Hf15  1  0.29046936  0.71701471  0.11539935  1
  Hf  Hf16  1  0.39972725  0.82082499  0.50233069  1
  Hf  Hf17  1  0.60959998  0.80786858  -0.01134460  1
  Hf  Hf18  1  0.00677751  0.19714196  -0.01601125  1
  Hf  Hf19  1  0.00225667  0.39068867  0.25294318  1
  Hf  Hf20  1  -0.00636070  0.39322310  0.75293721  1
  Hf  Hf21  1  0.01292086  0.59529902  0.50640564  1
  Hf  Hf22  1  0.50841329  0.91427835  0.85812777  1
  Hf  Hf23  1  0.21166772  -0.00762250  -0.00762582  1
  Hf  Hf24  1  0.91330213  0.08817336  0.12635629  1
  Hf  Hf25  1  0.49784854  0.11028931  0.86771042  1
  Hf  Hf26  1  -0.00927536  0.80059833  0.23875023  1
  Hf  Hf27  1  0.80130368  -0.02213162  -0.00010326  1
  Hf  Hf28  1  0.78796425  0.39580756  0.26412521  1
  Hf  Hf29  1  0.10942111  0.89868376  0.12146878  1
  Hf  Hf30  1  0.31045569  0.90873022  0.85187766  1
  Hf  Hf31  1  0.00354063  0.78359891  0.74669109  1
  Hf  Hf32  1  0.89630722  0.88106322  0.87212971  1
  Hf  Hf33  1  0.10505897  0.88103462  0.61440058  1
  Hf  Hf34  1  0.28680668  0.50560018  0.88035921  1
  Hf  Hf35  1  0.49165813  0.50313963  0.88106405  1
  Hf  Hf36  1  0.40383712  0.21602652  0.25175866  1
  Hf  Hf37  1  0.60130288  0.19359542  0.00206478  1
  Hf  Hf38  1  0.29109924  0.92195051  0.63480803  1
  Hf  Hf39  1  0.11259884  0.09514795  0.85844472  1
  Zr  Zr40  1  0.29222797  0.51293524  0.11800297  1
  Zr  Zr41  1  0.78388349  0.20093261  0.49065759  1
  Zr  Zr42  1  0.68694222  0.27794053  0.63766508  1
  Zr  Zr43  1  0.79599902  0.61106683  0.49282484  1
  Zr  Zr44  1  0.50653502  0.70065409  0.37677358  1
  Zr  Zr45  1  0.39540550  0.60955542  0.74410130  1
  Zr  Zr46  1  0.28605248  0.51468341  0.37229119  1
  Zr  Zr47  1  0.00222267  0.59925151  0.23565760  1
  Zr  Zr48  1  0.68741213  0.50172985  0.39293891  1
  Zr  Zr49  1  0.09232812  0.49903085  0.88174469  1
  Zr  Zr50  1  0.60362896  0.59055381  0.75564857  1
  Zr  Zr51  1  0.50213024  0.50428650  0.11568966  1
  Zr  Zr52  1  0.79467978  0.40243630  0.76031833  1
  Zr  Zr53  1  -0.00814015  0.59079240  0.74024999  1
  Zr  Zr54  1  0.19541084  0.21227397  0.24919994  1
  Zr  Zr55  1  0.70201302  0.08261427  0.36384882  1
  Zr  Zr56  1  0.29689764  0.10284226  0.13186690  1
  Zr  Zr57  1  0.30291007  0.30114232  0.87186997  1
  Zr  Zr58  1  0.09869428  0.29496513  0.62426176  1
  Zr  Zr59  1  0.60638771  0.79393675  0.50683785  1
  Zr  Zr60  1  0.49805898  0.09689730  0.12502530  1
  Zr  Zr61  1  -0.01253923  -0.00988024  0.51056783  1
  Zr  Zr62  1  0.88970918  0.49140849  0.61184468  1
  Zr  Zr63  1  0.49331082  0.90240839  0.64707512  1
  Zr  Zr64  1  0.11082474  0.29293350  0.38658040  1
  Zr  Zr65  1  0.80908203  0.19082759  -0.01532871  1
  Zr  Zr66  1  0.90094060  0.29094230  0.12417414  1
  Zr  Zr67  1  0.80897276  0.80848223  0.50868808  1
  Zr  Zr68  1  0.88830463  0.49066442  0.11750833  1
  Zr  Zr69  1  0.60635789  0.61456359  -0.00728857  1
  Zr  Zr70  1  -0.00455662  -0.00764462  0.74362486  1
  Zr  Zr71  1  0.28980011  0.70907425  0.88131514  1
  Zr  Zr72  1  0.39299496  0.61292867  0.50793563  1
  Zr  Zr73  1  0.59320114  0.59760291  0.24777312  1
  Zr  Zr74  1  0.20801028  0.19736375  -0.00322147  1
  Zr  Zr75  1  0.78876707  0.00029164  0.50873049  1
  Zr  Zr76  1  0.30000189  0.91130199  0.37764366  1
  Zr  Zr77  1  0.31372464  0.90591220  0.13353625  1
  Zr  Zr78  1  -0.01030347  0.79749923  0.01218529  1
  Zr  Zr79  1  0.89398767  0.28891295  0.61657811  1
  Ta  Ta80  1  0.81254496  -0.01715840  0.24018058  1
  Ta  Ta81  1  0.58633387  0.39316835  0.75866877  1
  Ta  Ta82  1  0.49657095  0.30468302  0.88739516  1
  Ta  Ta83  1  0.10561398  0.30076566  0.86477815  1
  Ta  Ta84  1  0.09685213  0.50239223  0.37158836  1
  Ta  Ta85  1  0.90162132  0.28944020  0.37960413  1
  Ta  Ta86  1  0.19441461  0.79610134  0.25637103  1
  Ta  Ta87  1  0.39726888  0.02478923  0.51560528  1
  Ta  Ta88  1  0.59302005  0.36319618  0.49449563  1
  Ta  Ta89  1  0.90600068  0.09425419  0.37172518  1
  Ta  Ta90  1  0.49387924  0.71076708  0.12550097  1
  Ta  Ta91  1  0.40866904  0.00055978  0.25387121  1
  Ta  Ta92  1  0.59164420  0.00136612  0.50856862  1
  Ta  Ta93  1  0.69703086  0.08271261  0.87028195  1
  Ta  Ta94  1  0.18744878  0.60315988  0.73889442  1
  Ta  Ta95  1  0.09632850  0.88832354  0.38187316  1
  Ta  Ta96  1  0.52129554  0.11162701  0.64155981  1
  Ta  Ta97  1  0.30104114  0.30688945  0.11642658  1
  Ta  Ta98  1  0.90355685  0.49847169  0.37856672  1
  Ta  Ta99  1  0.70041132  0.69171554  0.63454834  1
  Ta  Ta100  1  0.39886453  0.61598410  -0.00286043  1
  Ta  Ta101  1  0.22138892  0.19193696  0.51434701  1
  Ta  Ta102  1  0.29100716  0.51103352  0.62430041  1
  Ta  Ta103  1  0.89174963  0.89625032  0.37035322  1
  Ta  Ta104  1  0.40461842  0.81657653  -0.00478392  1
  Ta  Ta105  1  0.00376943  0.00020681  -0.01124383  1
  Ta  Ta106  1  0.60709967  -0.00476131  0.00501123  1
  Ta  Ta107  1  0.71273098  0.09207452  0.12637148  1
  Ta  Ta108  1  0.86651098  0.70819470  0.12311821  1
  Ta  Ta109  1  0.69612999  0.29887736  0.87809424  1
  Ta  Ta110  1  0.80660004  0.19286505  0.25382199  1
  Ta  Ta111  1  0.28686598  0.71871347  0.62130628  1
  Ta  Ta112  1  0.80777236  0.19198859  0.76953490  1
  Ta  Ta113  1  0.60555314  0.79063872  0.75962236  1
  Ta  Ta114  1  0.90753320  0.70393992  0.37295260  1
  Ta  Ta115  1  0.18545541  0.40046876  0.00658533  1
  Ta  Ta116  1  0.10826545  0.89107047  0.87537486  1
  Ta  Ta117  1  0.49504783  0.30475267  0.10884034  1
  Ta  Ta118  1  -0.00526677  0.39312734  0.49232352  1
  Ta  Ta119  1  0.49277226  0.48646834  0.61375602  1
  Ti  Ti120  1  0.70555382  0.50142052  0.88481226  1
  Ti  Ti121  1  0.19607628  -0.00132208  0.25477372  1
  Ti  Ti122  1  0.21244486  0.20068730  0.73821230  1
  Ti  Ti123  1  0.40939976  0.01165684  -0.00347740  1
  Ti  Ti124  1  0.19796267  0.40569278  0.74005585  1
  Ti  Ti125  1  0.51134310  0.90310804  0.37370630  1
  Ti  Ti126  1  0.80356189  -0.00142730  0.75633005  1
  Ti  Ti127  1  0.00412311  0.19071118  0.25320966  1
  Ti  Ti128  1  0.89346142  0.50601803  0.89054947  1
  Ti  Ti129  1  0.70535974  0.51481423  0.11165565  1
  Ti  Ti130  1  0.31517908  0.31549850  0.38749524  1
  Ti  Ti131  1  0.60303979  0.40458208  -0.00486785  1
  Ti  Ti132  1  0.48976025  0.71204200  0.86836829  1
  Ti  Ti133  1  0.10592566  0.69456820  0.37546857  1
  Ti  Ti134  1  0.00003900  0.59543302  0.02021414  1
  Ti  Ti135  1  0.39159224  0.40169021  0.00086163  1
  Ti  Ti136  1  0.18914124  0.60595036  0.23763703  1
  Ti  Ti137  1  0.38887293  0.61485025  0.25089342  1
  Ti  Ti138  1  0.30931027  0.10233802  0.85721752  1
  Ti  Ti139  1  0.09878534  0.29828461  0.12172339  1
  Ti  Ti140  1  -0.00672476  0.19603857  0.75992279  1
  Ti  Ti141  1  0.00747800  -0.00546581  0.25405248  1
  Ti  Ti142  1  0.39617691  0.40804209  0.74884793  1
  Ti  Ti143  1  0.72330466  0.70391226  0.87162277  1
  Ti  Ti144  1  0.31229175  0.31274458  0.62496279  1
  Ti  Ti145  1  0.80373219  0.60027136  0.75169630  1
  Ti  Ti146  1  0.10307663  0.09849738  0.12411369  1
  Ti  Ti147  1  0.90154648  0.70304719  0.62103423  1
  Ti  Ti148  1  0.40605259  0.80477510  0.25622948  1
  Ti  Ti149  1  -0.00917634  0.39073258  -0.00643950  1
  Ti  Ti150  1  0.89094804  0.10084016  0.62823869  1
  Ti  Ti151  1  0.59228485  0.39563618  0.25574527  1
  Ti  Ti152  1  0.00293099  0.78886752  0.49898430  1
  Ti  Ti153  1  0.29358675  0.71020968  0.37683332  1
  Ti  Ti154  1  0.19550209  0.40806509  0.24037996  1
  Ti  Ti155  1  0.41449921  0.21846503  0.74014023  1
  Ti  Ti156  1  0.50807262  0.89286640  0.12395088  1
  Ti  Ti157  1  0.80697763  0.79111897  0.74568583  1
  Ti  Ti158  1  0.19838173  0.79581966  0.74913152  1
  Ti  Ti159  1  0.50278874  0.69788489  0.62997047  1
  Mo  Mo160  1  0.31010769  0.11647664  0.63540836  1
  Mo  Mo161  1  0.09343022  0.48732369  0.11728858  1
  Mo  Mo162  1  0.19612371  0.61296866  0.50313088  1
  Mo  Mo163  1  0.70543687  0.09691820  0.64395028  1
  Mo  Mo164  1  0.50322964  0.30850617  0.63502968  1
  Mo  Mo165  1  0.79492016  0.40301861  -0.01388515  1
  Mo  Mo166  1  0.79831940  0.39545299  0.47805077  1
  Mo  Mo167  1  0.79270360  0.78974511  -0.00428568  1
  Mo  Mo168  1  0.20015454  0.79672598  0.48842001  1
  Mo  Mo169  1  0.69487005  0.29255731  0.36847899  1
  Mo  Mo170  1  0.39908075  0.02372758  0.74074147  1
  Mo  Mo171  1  0.80501184  0.60756341  -0.00319072  1
  Mo  Mo172  1  0.60131297  0.17756315  0.50242020  1
  Mo  Mo173  1  0.19653787  0.00016253  0.75375201  1
  Mo  Mo174  1  0.40043545  0.79681896  0.74197301  1
  Mo  Mo175  1  0.10552294  0.69440877  0.62028501  1
  Mo  Mo176  1  0.90258023  0.90000598  0.12647899  1
  Mo  Mo177  1  0.90346413  0.09059370  0.87293665  1
  Mo  Mo178  1  0.10194493  0.69452620  0.11637586  1
  Mo  Mo179  1  0.39208617  0.40212663  0.50482340  1
  Mo  Mo180  1  0.60629529  0.20736015  0.76967893  1
  Mo  Mo181  1  0.20261047  0.80757532  -0.00667367  1
  Mo  Mo182  1  0.89818652  0.68262965  0.87989914  1
  Mo  Mo183  1  0.20799547  0.00111656  0.49839935  1
  Mo  Mo184  1  0.69647524  0.89019272  0.37531702  1
  Mo  Mo185  1  0.89865492  0.89341271  0.63986227  1
  Mo  Mo186  1  0.78539150  0.80337911  0.25561697  1
  Mo  Mo187  1  0.10220996  0.49270905  0.62640841  1
  Mo  Mo188  1  0.19100678  0.60244422  0.01087378  1
  Mo  Mo189  1  -0.00225873  0.19361491  0.49890584  1
  Mo  Mo190  1  0.40170761  0.20538739  0.00009817  1
  Mo  Mo191  1  0.71295052  0.87883273  0.12263961  1
  Mo  Mo192  1  0.59562136  0.59977372  0.51621592  1
  Mo  Mo193  1  0.68582651  0.70303446  0.12628478  1
  Mo  Mo194  1  0.70603641  0.71738784  0.37463754  1
  Mo  Mo195  1  0.59515590  0.79455047  0.24746889  1
  Mo  Mo196  1  0.90531899  0.30370199  0.87435850  1
  Mo  Mo197  1  0.60863733  0.00731557  0.75105973  1
  Mo  Mo198  1  0.70300835  0.89391688  0.85786169  1
  Mo  Mo199  1  0.50437457  0.30198754  0.37071574  1
