# generated using pymatgen
data_HfZrTaTiMo
_symmetry_space_group_name_H-M   'P 1'
_cell_length_a   15.17725970
_cell_length_b   15.16147007
_cell_length_c   16.82526283
_cell_angle_alpha   89.99918155
_cell_angle_beta   90.00799196
_cell_angle_gamma   90.02566703
_symmetry_Int_Tables_number   1
_chemical_formula_structural   HfZrTaTiMo
_chemical_formula_sum   'Hf40 Zr40 Ta40 Ti40 Mo40'
_cell_volume   3871.65354554
_cell_formula_units_Z   40
loop_
 _symmetry_equiv_pos_site_id
 _symmetry_equiv_pos_as_xyz
  1  'x, y, z'
loop_
 _atom_site_type_symbol
 _atom_site_label
 _atom_site_symmetry_multiplicity
 _atom_site_fract_x
 _atom_site_fract_y
 _atom_site_fract_z
 _atom_site_occupancy
  Hf  Hf0  1  0.28952043  0.30054047  0.35313630  1
  Hf  Hf1  1  0.19504658  0.18862605  0.50610891  1
  Hf  Hf2  1  0.60186201  0.39435922  -0.00654904  1
  Hf  Hf3  1  0.20519246  -0.00113768  0.00254084  1
  Hf  Hf4  1  0.40101091  0.57960582  0.48497750  1
  Hf  Hf5  1  0.21072414  0.58679224  0.75137869  1
  Hf  Hf6  1  0.91569393  0.12229699  0.37840231  1
  Hf  Hf7  1  0.08708009  0.68851857  0.87492368  1
  Hf  Hf8  1  0.89904458  0.10255731  0.86898124  1
  Hf  Hf9  1  0.09842493  0.07962352  0.38020906  1
  Hf  Hf10  1  0.28993758  0.69862034  0.10516086  1
  Hf  Hf11  1  0.70624021  0.11087132  0.36891359  1
  Hf  Hf12  1  0.79965894  0.02348155  0.51016132  1
  Hf  Hf13  1  0.80753735  0.81934423  0.00704231  1
  Hf  Hf14  1  0.71989935  0.72230599  0.86669338  1
  Hf  Hf15  1  0.80973502  0.62431515  0.00603363  1
  Hf  Hf16  1  0.68045930  0.11680920  0.86353987  1
  Hf  Hf17  1  0.89154055  0.49858188  0.38540339  1
  Hf  Hf18  1  0.31338306  0.90860529  0.87215333  1
  Hf  Hf19  1  0.41118621  0.79180527  0.76035533  1
  Hf  Hf20  1  0.09812443  0.49799692  0.36907399  1
  Hf  Hf21  1  0.49384426  0.29713855  0.62386071  1
  Hf  Hf22  1  0.80953663  0.01359579  0.24288695  1
  Hf  Hf23  1  0.80434756  0.60615098  0.51540539  1
  Hf  Hf24  1  0.39787236  0.17494488  0.01897804  1
  Hf  Hf25  1  0.19302403  -0.02324070  0.50838618  1
  Hf  Hf26  1  0.31218631  0.88797775  0.12875739  1
  Hf  Hf27  1  0.11564494  0.88238912  0.13196939  1
  Hf  Hf28  1  -0.00350120  -0.00650902  0.00432629  1
  Hf  Hf29  1  0.10265232  0.87559212  0.35591711  1
  Hf  Hf30  1  0.90981950  0.11920944  0.11671733  1
  Hf  Hf31  1  0.69807488  0.50013152  0.64010950  1
  Hf  Hf32  1  0.07849684  0.28601575  0.38397508  1
  Hf  Hf33  1  0.69007487  0.72445065  0.62126377  1
  Hf  Hf34  1  0.00368461  0.60551125  0.72801194  1
  Hf  Hf35  1  0.70110063  0.31649638  0.13541463  1
  Hf  Hf36  1  0.59477301  0.40655262  0.49723424  1
  Hf  Hf37  1  0.58225597  0.00091047  -0.00991952  1
  Hf  Hf38  1  0.41395157  -0.01408352  0.25070660  1
  Hf  Hf39  1  0.81798618  0.22416469  0.25036410  1
  Zr  Zr40  1  0.81243120  0.62499510  0.73100495  1
  Zr  Zr41  1  0.30384430  0.10770794  0.87128760  1
  Zr  Zr42  1  0.58492692  -0.00675531  0.75848597  1
  Zr  Zr43  1  0.39870023  -0.01180278  0.49318899  1
  Zr  Zr44  1  0.09526474  0.48230321  0.13963814  1
  Zr  Zr45  1  0.30877499  0.68688431  0.62408261  1
  Zr  Zr46  1  0.50258106  0.67945423  0.62345993  1
  Zr  Zr47  1  0.59841450  0.38455227  0.76797311  1
  Zr  Zr48  1  0.80509606  0.23000236  0.50438826  1
  Zr  Zr49  1  0.38807220  0.37637418  0.77161318  1
  Zr  Zr50  1  0.79416143  0.22107496  -0.00815361  1
  Zr  Zr51  1  0.20428045  0.39869485  0.49737997  1
  Zr  Zr52  1  -0.00984522  0.40342156  0.74213963  1
  Zr  Zr53  1  0.29307446  0.08945888  0.36556980  1
  Zr  Zr54  1  0.50695110  0.88227842  0.61425668  1
  Zr  Zr55  1  0.09776223  0.89393559  0.87254338  1
  Zr  Zr56  1  0.80147537  0.83103129  0.50534594  1
  Zr  Zr57  1  0.39385853  0.61291747  0.24311474  1
  Zr  Zr58  1  0.40095224  0.20628430  0.48682198  1
  Zr  Zr59  1  0.90673342  0.91276126  0.36317330  1
  Zr  Zr60  1  0.39531625  0.37733909  0.00225029  1
  Zr  Zr61  1  0.51327825  0.09180327  0.61033515  1
  Zr  Zr62  1  0.69597181  0.52021072  0.86084680  1
  Zr  Zr63  1  0.30710092  0.08910903  0.63081326  1
  Zr  Zr64  1  0.31462181  0.48331652  0.62543395  1
  Zr  Zr65  1  0.79277562  0.23214156  0.75661155  1
  Zr  Zr66  1  0.29950699  0.69391729  0.89356211  1
  Zr  Zr67  1  0.69808035  0.90775774  0.12881387  1
  Zr  Zr68  1  0.70078018  0.32515729  0.36578891  1
  Zr  Zr69  1  0.69668306  0.71863165  0.38270812  1
  Zr  Zr70  1  0.20370832  0.20346361  0.74752357  1
  Zr  Zr71  1  0.00170585  0.77842488  0.01189081  1
  Zr  Zr72  1  0.50464427  0.29800829  0.14240712  1
  Zr  Zr73  1  0.29957658  0.48833740  0.12944806  1
  Zr  Zr74  1  0.30442506  0.88016528  0.36031311  1
  Zr  Zr75  1  0.91772005  0.70917627  0.38254487  1
  Zr  Zr76  1  0.40338758  0.18778158  0.24397034  1
  Zr  Zr77  1  0.09919988  0.48438982  0.87274507  1
  Zr  Zr78  1  0.79056604  0.01346528  0.00061672  1
  Zr  Zr79  1  0.79996057  0.42425817  -0.00396958  1
  Ta  Ta80  1  0.19230298  0.38739814  0.74861036  1
  Ta  Ta81  1  0.28635285  0.68997740  0.37176021  1
  Ta  Ta82  1  0.60573313  0.20151605  0.49301096  1
  Ta  Ta83  1  0.41452574  0.80815998  -0.00861163  1
  Ta  Ta84  1  0.50577154  0.50272866  0.12592462  1
  Ta  Ta85  1  0.80267265  0.61737635  0.25011745  1
  Ta  Ta86  1  0.90370035  0.52662927  0.87147992  1
  Ta  Ta87  1  0.29726993  0.49294496  0.89314259  1
  Ta  Ta88  1  0.00396940  0.20629792  0.75445015  1
  Ta  Ta89  1  0.09056506  0.88611530  0.63680280  1
  Ta  Ta90  1  0.90716105  0.31931436  0.11822988  1
  Ta  Ta91  1  0.51400452  0.69065943  0.88718128  1
  Ta  Ta92  1  0.41121312  0.58587726  0.76584417  1
  Ta  Ta93  1  0.29548407  0.88290727  0.63375914  1
  Ta  Ta94  1  0.08694635  0.29205414  0.61725664  1
  Ta  Ta95  1  0.50211692  0.70289357  0.10919372  1
  Ta  Ta96  1  -0.01347801  0.38617148  0.25647119  1
  Ta  Ta97  1  0.60479332  0.00228700  0.25702746  1
  Ta  Ta98  1  0.01389500  0.60565051  0.51116508  1
  Ta  Ta99  1  0.59134687  0.80232111  0.24787080  1
  Ta  Ta100  1  0.11429772  0.70071068  0.62531438  1
  Ta  Ta101  1  0.50354289  0.49369660  0.35315100  1
  Ta  Ta102  1  0.90063269  0.11686625  0.63831859  1
  Ta  Ta103  1  0.19048455  0.37978747  0.00337450  1
  Ta  Ta104  1  0.60104368  0.61072229  0.24462066  1
  Ta  Ta105  1  0.01944571  0.01454695  0.23291164  1
  Ta  Ta106  1  0.51472869  0.88915237  0.38056698  1
  Ta  Ta107  1  0.90533681  0.51817394  0.13185901  1
  Ta  Ta108  1  0.89046439  0.89435928  0.86547224  1
  Ta  Ta109  1  0.68573041  0.11732906  0.13470003  1
  Ta  Ta110  1  0.19825854  0.79228215  0.75412770  1
  Ta  Ta111  1  0.51026199  0.09778541  0.37877990  1
  Ta  Ta112  1  0.00074373  0.40391215  -0.00202298  1
  Ta  Ta113  1  -0.00643320  -0.00670201  0.51393634  1
  Ta  Ta114  1  0.49329936  0.50092856  0.88991741  1
  Ta  Ta115  1  0.49421256  0.69869821  0.37543852  1
  Ta  Ta116  1  0.09094738  0.09097771  0.63230915  1
  Ta  Ta117  1  0.17974430  0.58779913  0.00587444  1
  Ta  Ta118  1  0.19460813  0.78484286  0.49922958  1
  Ta  Ta119  1  -0.00902400  -0.00460221  0.74769336  1
  Ti  Ti120  1  0.61618574  -0.01238613  0.49095568  1
  Ti  Ti121  1  0.29781355  0.49205853  0.34816321  1
  Ti  Ti122  1  0.28262868  0.29496488  0.14480827  1
  Ti  Ti123  1  0.68951581  0.30515992  0.62553293  1
  Ti  Ti124  1  0.61136301  0.80426557  -0.00896139  1
  Ti  Ti125  1  0.69537496  0.51751454  0.37086388  1
  Ti  Ti126  1  0.59435434  0.19717372  0.00637737  1
  Ti  Ti127  1  0.19951397  -0.00623556  0.74718547  1
  Ti  Ti128  1  0.41787570  0.17745108  0.75023949  1
  Ti  Ti129  1  0.00978895  0.20868635  -0.01243481  1
  Ti  Ti130  1  0.60641357  0.60228045  0.00581848  1
  Ti  Ti131  1  0.69913478  0.51580110  0.13027413  1
  Ti  Ti132  1  0.10422941  0.49160915  0.61815034  1
  Ti  Ti133  1  0.39634921  0.78699223  0.49645159  1
  Ti  Ti134  1  0.28722604  0.08723205  0.13741651  1
  Ti  Ti135  1  0.20423679  0.59164916  0.49563348  1
  Ti  Ti136  1  0.49933314  0.26686761  0.88013906  1
  Ti  Ti137  1  0.17305053  0.18069461  0.24435185  1
  Ti  Ti138  1  0.29799975  0.29490208  0.62143082  1
  Ti  Ti139  1  0.79554144  0.80818456  0.25219340  1
  Ti  Ti140  1  0.69829299  0.70978682  0.12850363  1
  Ti  Ti141  1  0.59729199  0.60109481  0.49403241  1
  Ti  Ti142  1  0.50358671  0.49204703  0.63701742  1
  Ti  Ti143  1  0.08955537  0.28227841  0.12958365  1
  Ti  Ti144  1  0.92234653  0.73518445  0.61259046  1
  Ti  Ti145  1  0.17911045  0.61026632  0.24476836  1
  Ti  Ti146  1  0.88570956  0.32144632  0.62995148  1
  Ti  Ti147  1  0.50596476  0.30011767  0.35311244  1
  Ti  Ti148  1  0.60667488  0.80034101  0.75954760  1
  Ti  Ti149  1  0.09920139  0.09733824  0.86973396  1
  Ti  Ti150  1  0.01133256  0.76542124  0.23778322  1
  Ti  Ti151  1  0.40079724  0.39325143  0.47994071  1
  Ti  Ti152  1  0.69868090  0.10991409  0.63904850  1
  Ti  Ti153  1  0.80345256  0.83466270  0.73228033  1
  Ti  Ti154  1  0.80172634  0.42602208  0.24609432  1
  Ti  Ti155  1  0.19753292  0.19911228  0.00354231  1
  Ti  Ti156  1  0.90984798  0.89577235  0.14071194  1
  Ti  Ti157  1  -0.01664173  0.39801930  0.50815023  1
  Ti  Ti158  1  0.90341877  0.31999166  0.87477497  1
  Ti  Ti159  1  0.50618353  0.89802995  0.12204445  1
  Mo  Mo160  1  0.70734630  0.90758572  0.87130798  1
  Mo  Mo161  1  -0.01092297  0.58990168  0.25702590  1
  Mo  Mo162  1  0.39241772  -0.01274215  0.74150024  1
  Mo  Mo163  1  0.90562311  0.71221305  0.86658325  1
  Mo  Mo164  1  0.69336883  0.30699331  0.88428872  1
  Mo  Mo165  1  0.18663873  0.38253198  0.25019264  1
  Mo  Mo166  1  -0.00735111  0.79646315  0.74872428  1
  Mo  Mo167  1  0.40909950  0.59211324  0.00418884  1
  Mo  Mo168  1  -0.00972053  0.58746806  0.00182539  1
  Mo  Mo169  1  0.09517466  0.28733002  0.87753485  1
  Mo  Mo170  1  0.48299954  0.08807403  0.87507184  1
  Mo  Mo171  1  0.20231404  -0.00686886  0.24096267  1
  Mo  Mo172  1  0.90156718  0.92036638  0.63125696  1
  Mo  Mo173  1  0.09217068  0.67894088  0.12074489  1
  Mo  Mo174  1  0.79603296  0.01241775  0.74622204  1
  Mo  Mo175  1  0.60588402  0.19986303  0.26050370  1
  Mo  Mo176  1  0.80576878  0.41602511  0.75988045  1
  Mo  Mo177  1  0.00165108  0.20171598  0.24483700  1
  Mo  Mo178  1  0.41500040  0.78722019  0.24424518  1
  Mo  Mo179  1  0.60489885  0.41811351  0.24664469  1
  Mo  Mo180  1  0.50919510  0.08611501  0.13206261  1
  Mo  Mo181  1  0.39757007  0.40246863  0.24645710  1
  Mo  Mo182  1  0.20945054  0.77882163  0.24569071  1
  Mo  Mo183  1  0.20176024  0.79441228  -0.00769734  1
  Mo  Mo184  1  0.59168756  0.60912715  0.75626161  1
  Mo  Mo185  1  -0.00548754  0.19493236  0.51821759  1
  Mo  Mo186  1  0.10336160  0.68861960  0.37888379  1
  Mo  Mo187  1  0.69388609  0.92164154  0.62611564  1
  Mo  Mo188  1  0.90358251  0.50498974  0.60983941  1
  Mo  Mo189  1  0.70221357  0.91109816  0.36528371  1
  Mo  Mo190  1  0.10309059  0.09968929  0.11171190  1
  Mo  Mo191  1  0.39969743  -0.00397147  0.01184512  1
  Mo  Mo192  1  0.78837902  0.41552909  0.50763274  1
  Mo  Mo193  1  0.01555283  0.81059302  0.50178476  1
  Mo  Mo194  1  0.50599532  0.88745660  0.87729523  1
  Mo  Mo195  1  0.89260688  0.70630669  0.13987717  1
  Mo  Mo196  1  0.90049092  0.31546791  0.38109063  1
  Mo  Mo197  1  0.59048093  0.20202257  0.74697908  1
  Mo  Mo198  1  0.59413003  0.79880519  0.49362885  1
  Mo  Mo199  1  0.28807924  0.30029070  0.88446256  1
