# generated using pymatgen
data_HfZrTaTiMo
_symmetry_space_group_name_H-M   'P 1'
_cell_length_a   15.22295077
_cell_length_b   15.21178597
_cell_length_c   16.86397890
_cell_angle_alpha   90.05664978
_cell_angle_beta   89.97091334
_cell_angle_gamma   90.06270888
_symmetry_Int_Tables_number   1
_chemical_formula_structural   HfZrTaTiMo
_chemical_formula_sum   'Hf40 Zr40 Ta40 Ti40 Mo40'
_cell_volume   3905.15765571
_cell_formula_units_Z   40
loop_
 _symmetry_equiv_pos_site_id
 _symmetry_equiv_pos_as_xyz
  1  'x, y, z'
loop_
 _atom_site_type_symbol
 _atom_site_label
 _atom_site_symmetry_multiplicity
 _atom_site_fract_x
 _atom_site_fract_y
 _atom_site_fract_z
 _atom_site_occupancy
  Hf  Hf0  1  0.79470675  0.59829578  0.74427547  1
  Hf  Hf1  1  0.89965032  0.50055737  0.61493710  1
  Hf  Hf2  1  0.37870914  -0.01723951  0.74782331  1
  Hf  Hf3  1  0.40640791  -0.00249678  0.24992409  1
  Hf  Hf4  1  -0.00132822  0.61564025  0.49452813  1
  Hf  Hf5  1  0.51229165  0.89971399  0.11726123  1
  Hf  Hf6  1  0.21254552  0.19342554  0.49591908  1
  Hf  Hf7  1  0.71880328  0.90012577  0.12052577  1
  Hf  Hf8  1  0.28699475  0.47633619  0.38817769  1
  Hf  Hf9  1  0.00005948  0.20252829  0.27724920  1
  Hf  Hf10  1  0.19235200  0.19012245  0.75448623  1
  Hf  Hf11  1  0.40944148  0.78965656  0.00592702  1
  Hf  Hf12  1  0.90129793  0.10508396  0.61341803  1
  Hf  Hf13  1  0.20381680  0.60258200  0.74265796  1
  Hf  Hf14  1  0.37997055  0.40171251  0.24677049  1
  Hf  Hf15  1  0.60009103  0.40643193  0.01308026  1
  Hf  Hf16  1  0.81095402  0.40234553  0.01957301  1
  Hf  Hf17  1  0.19493028  0.39012160  -0.00764015  1
  Hf  Hf18  1  0.80329448  0.00070440  0.25307349  1
  Hf  Hf19  1  0.30354611  0.50092781  0.87004602  1
  Hf  Hf20  1  0.38725710  0.59980057  0.26941655  1
  Hf  Hf21  1  0.29102045  0.08484998  0.87607491  1
  Hf  Hf22  1  0.00300348  0.60968022  0.74631633  1
  Hf  Hf23  1  0.50867985  0.49458387  0.61937028  1
  Hf  Hf24  1  0.29817662  0.89785168  0.12373621  1
  Hf  Hf25  1  0.00772099  0.82111957  0.00848267  1
  Hf  Hf26  1  0.39092344  0.79509016  0.48594426  1
  Hf  Hf27  1  0.89524068  0.50271718  0.37586831  1
  Hf  Hf28  1  0.79476371  0.59685969  0.49881434  1
  Hf  Hf29  1  0.20721539  0.61266356  0.49497438  1
  Hf  Hf30  1  0.40598421  0.39038591  0.74349670  1
  Hf  Hf31  1  0.59680707  0.02234045  0.51180849  1
  Hf  Hf32  1  0.11178985  0.71524538  0.62051501  1
  Hf  Hf33  1  0.89571103  0.50076213  0.87711889  1
  Hf  Hf34  1  0.10209993  0.28803235  0.13039909  1
  Hf  Hf35  1  0.79277779  -0.00345382  0.50883155  1
  Hf  Hf36  1  0.00163623  0.40057908  0.26421181  1
  Hf  Hf37  1  0.60665158  0.59337130  0.49011666  1
  Hf  Hf38  1  0.61513719  0.38273107  0.49546217  1
  Hf  Hf39  1  0.87693574  0.11144630  0.38651785  1
  Zr  Zr40  1  0.72408976  0.69942562  0.35606900  1
  Zr  Zr41  1  0.49855121  0.90651307  0.87476114  1
  Zr  Zr42  1  0.00142917  0.39786032  0.74768363  1
  Zr  Zr43  1  0.10002887  0.71277411  0.87840210  1
  Zr  Zr44  1  0.79184907  0.60800654  0.01782460  1
  Zr  Zr45  1  0.60650188  0.00552625  -0.00445799  1
  Zr  Zr46  1  0.40005411  0.37230821  0.50702806  1
  Zr  Zr47  1  0.92675378  0.91178707  0.86263772  1
  Zr  Zr48  1  0.50263526  0.69734488  0.87150836  1
  Zr  Zr49  1  0.80449408  0.19501817  0.01128682  1
  Zr  Zr50  1  0.49136392  0.29895571  0.12613958  1
  Zr  Zr51  1  0.51377418  0.70832136  0.37876281  1
  Zr  Zr52  1  0.10630019  0.69442754  0.13004984  1
  Zr  Zr53  1  0.59865102  0.79885054  0.74822175  1
  Zr  Zr54  1  0.81573256  0.79864764  0.49600457  1
  Zr  Zr55  1  0.50236659  0.69868822  0.61817832  1
  Zr  Zr56  1  0.00692969  0.00755793  0.47794588  1
  Zr  Zr57  1  0.19531328  0.38795777  0.74335390  1
  Zr  Zr58  1  0.30161899  0.49988512  0.61902216  1
  Zr  Zr59  1  0.70247287  0.89927581  0.63453044  1
  Zr  Zr60  1  -0.00910192  0.60378197  0.01126420  1
  Zr  Zr61  1  0.07446519  0.90682790  0.62136743  1
  Zr  Zr62  1  0.08395564  0.08684920  0.14854034  1
  Zr  Zr63  1  0.50085641  0.50169519  0.87756868  1
  Zr  Zr64  1  0.21245515  0.78266833  0.25685542  1
  Zr  Zr65  1  0.71497623  0.90169883  0.87395141  1
  Zr  Zr66  1  0.68671494  0.27793067  0.35359052  1
  Zr  Zr67  1  0.29141655  0.10487418  0.13009404  1
  Zr  Zr68  1  0.30004305  0.10241705  0.36482651  1
  Zr  Zr69  1  0.69798564  0.50165875  0.88386716  1
  Zr  Zr70  1  0.00747213  0.23087812  0.48009875  1
  Zr  Zr71  1  0.41250306  0.79842411  0.25308828  1
  Zr  Zr72  1  0.18618885  0.18325426  -0.00755966  1
  Zr  Zr73  1  0.89107017  0.30688187  0.62041728  1
  Zr  Zr74  1  0.59161668  0.59834875  0.24705030  1
  Zr  Zr75  1  0.90787982  0.72563340  0.63104935  1
  Zr  Zr76  1  0.70174002  0.11098221  0.86251011  1
  Zr  Zr77  1  0.59521435  0.20244729  -0.00037613  1
  Zr  Zr78  1  0.09579292  0.49951639  0.88424919  1
  Zr  Zr79  1  0.48131751  0.89992505  0.62022480  1
  Ta  Ta80  1  0.76234625  0.20439570  0.50669042  1
  Ta  Ta81  1  -0.00105502  0.80211158  0.25944835  1
  Ta  Ta82  1  0.69888299  0.70693975  0.13788755  1
  Ta  Ta83  1  0.30328194  0.69930341  0.87530439  1
  Ta  Ta84  1  0.81043408  0.01617173  0.73927352  1
  Ta  Ta85  1  0.61372842  0.39558123  0.74983725  1
  Ta  Ta86  1  0.61060475  0.81610267  0.25047192  1
  Ta  Ta87  1  0.89562996  0.70812407  0.87271105  1
  Ta  Ta88  1  0.20582897  0.79243621  0.00647401  1
  Ta  Ta89  1  0.48859717  0.29299562  0.36589343  1
  Ta  Ta90  1  0.69806318  0.29870600  0.14107554  1
  Ta  Ta91  1  0.70612846  0.48062480  0.35686866  1
  Ta  Ta92  1  0.29526032  0.90223815  0.38144037  1
  Ta  Ta93  1  0.91922386  0.91793706  0.13685232  1
  Ta  Ta94  1  0.39615713  0.00684002  0.00034877  1
  Ta  Ta95  1  0.89037410  0.30028790  0.87069930  1
  Ta  Ta96  1  0.09473911  0.49555075  0.60945129  1
  Ta  Ta97  1  0.27455505  0.89655643  0.60626383  1
  Ta  Ta98  1  0.31698524  0.67667935  0.12158980  1
  Ta  Ta99  1  0.70410452  0.69897192  0.87655142  1
  Ta  Ta100  1  0.50974531  0.10916363  0.37230892  1
  Ta  Ta101  1  0.39280412  0.40112425  0.00062986  1
  Ta  Ta102  1  0.09435807  0.48510164  0.11933322  1
  Ta  Ta103  1  0.10252854  0.10862957  0.61762698  1
  Ta  Ta104  1  0.60437823  0.59289775  0.74270564  1
  Ta  Ta105  1  0.69627378  0.90677674  0.37579901  1
  Ta  Ta106  1  -0.00275372  0.19646759  0.74459626  1
  Ta  Ta107  1  0.80198331  0.19718029  0.24053441  1
  Ta  Ta108  1  0.61207632  0.80808000  0.49787171  1
  Ta  Ta109  1  0.40249696  0.59372119  0.48648020  1
  Ta  Ta110  1  0.30796334  0.71113665  0.62324596  1
  Ta  Ta111  1  0.47419548  0.51543347  0.11994734  1
  Ta  Ta112  1  0.90650570  0.11281568  0.87037096  1
  Ta  Ta113  1  0.51757179  0.28539349  0.63429749  1
  Ta  Ta114  1  0.50213958  0.29943926  0.87327232  1
  Ta  Ta115  1  0.60354972  0.00859945  0.24931744  1
  Ta  Ta116  1  0.48551440  0.10690449  0.64085502  1
  Ta  Ta117  1  0.30748478  0.29097022  0.87352724  1
  Ta  Ta118  1  0.90991534  0.30025248  0.13342276  1
  Ta  Ta119  1  0.20719721  0.81096707  0.75267327  1
  Ti  Ti120  1  0.70494863  0.30569609  0.87122549  1
  Ti  Ti121  1  0.40008163  0.20230317  0.24539595  1
  Ti  Ti122  1  0.00486941  0.59955628  0.24755656  1
  Ti  Ti123  1  0.61587223  0.79390781  0.00091336  1
  Ti  Ti124  1  0.10569769  0.69387844  0.36614930  1
  Ti  Ti125  1  0.01257452  0.80615759  0.47336417  1
  Ti  Ti126  1  0.81260428  0.80114269  0.00012477  1
  Ti  Ti127  1  0.40481872  0.60701471  0.74371548  1
  Ti  Ti128  1  0.19694916  0.57188607  0.25005042  1
  Ti  Ti129  1  0.50289816  0.48500542  0.37756226  1
  Ti  Ti130  1  0.29675838  0.88837046  0.88563682  1
  Ti  Ti131  1  0.70102984  0.09884001  0.12582917  1
  Ti  Ti132  1  0.70810010  0.47899946  0.62353634  1
  Ti  Ti133  1  0.09769552  0.49152268  0.38979449  1
  Ti  Ti134  1  0.58847276  0.61106938  0.01806702  1
  Ti  Ti135  1  0.21052395  0.59595293  0.00423767  1
  Ti  Ti136  1  0.18728128  0.38046789  0.51475597  1
  Ti  Ti137  1  0.31048028  0.27157946  0.63243815  1
  Ti  Ti138  1  0.81477385  0.59396396  0.23902815  1
  Ti  Ti139  1  0.17664674  -0.00591756  0.75296454  1
  Ti  Ti140  1  0.80910088  0.80402905  0.75299754  1
  Ti  Ti141  1  0.69965793  0.49749833  0.14164132  1
  Ti  Ti142  1  0.39456835  0.20123976  -0.00204887  1
  Ti  Ti143  1  0.89723049  0.71686278  0.13873789  1
  Ti  Ti144  1  0.29358802  0.08550562  0.62611924  1
  Ti  Ti145  1  0.11210623  0.91442520  0.35966432  1
  Ti  Ti146  1  0.69970381  0.69617780  0.62250898  1
  Ti  Ti147  1  0.59815022  0.01106109  0.74322886  1
  Ti  Ti148  1  0.00316820  0.02457751  0.00172765  1
  Ti  Ti149  1  0.81922413  0.00089105  0.00372968  1
  Ti  Ti150  1  0.89600340  0.89311349  0.36510892  1
  Ti  Ti151  1  0.48703259  0.10859840  0.86216015  1
  Ti  Ti152  1  0.58674999  0.39815386  0.24302449  1
  Ti  Ti153  1  0.07961931  0.28399402  0.88350985  1
  Ti  Ti154  1  0.18629963  -0.01596555  -0.00020039  1
  Ti  Ti155  1  0.50519083  0.91406992  0.38376750  1
  Ti  Ti156  1  0.49864708  0.10040507  0.12300198  1
  Ti  Ti157  1  0.10578929  0.89954627  0.14559250  1
  Ti  Ti158  1  0.29203500  0.30503410  0.12238015  1
  Ti  Ti159  1  0.39079773  0.01163351  0.49905545  1
  Mo  Mo160  1  0.13524902  0.30886070  0.36928310  1
  Mo  Mo161  1  0.39677274  0.59639876  -0.00239060  1
  Mo  Mo162  1  0.08516922  0.09086243  0.87558605  1
  Mo  Mo163  1  0.01037777  0.80829878  0.75832036  1
  Mo  Mo164  1  0.38243385  0.79429611  0.74903588  1
  Mo  Mo165  1  0.89816341  0.91107873  0.63782979  1
  Mo  Mo166  1  0.79986708  0.20913084  0.74912326  1
  Mo  Mo167  1  0.70040453  0.29685695  0.63344279  1
  Mo  Mo168  1  0.69011088  0.09111348  0.37415591  1
  Mo  Mo169  1  0.89771546  0.10165079  0.13203107  1
  Mo  Mo170  1  0.30845815  0.29441803  0.37416423  1
  Mo  Mo171  1  0.58306889  0.20126764  0.50236981  1
  Mo  Mo172  1  0.00604087  0.01731427  0.74618135  1
  Mo  Mo173  1  0.29635060  0.69279115  0.37499320  1
  Mo  Mo174  1  0.86768462  0.31259562  0.37751678  1
  Mo  Mo175  1  -0.00349921  0.38849129  0.00329332  1
  Mo  Mo176  1  -0.01005934  0.20779811  0.00178481  1
  Mo  Mo177  1  0.00243435  0.40556920  0.49050914  1
  Mo  Mo178  1  0.39309992  0.19422641  0.75682849  1
  Mo  Mo179  1  0.11701264  0.90806364  0.87948425  1
  Mo  Mo180  1  0.18900371  0.80526143  0.48229148  1
  Mo  Mo181  1  0.20903987  0.21396995  0.25507953  1
  Mo  Mo182  1  0.10579196  0.10047675  0.36094512  1
  Mo  Mo183  1  0.20567572  -0.00495479  0.25039420  1
  Mo  Mo184  1  0.80677681  0.80195417  0.24601364  1
  Mo  Mo185  1  0.79662522  0.40237159  0.75422386  1
  Mo  Mo186  1  -0.00142178  -0.00075403  0.27177537  1
  Mo  Mo187  1  0.79769139  0.39373728  0.49101001  1
  Mo  Mo188  1  0.10144415  0.29347088  0.62459880  1
  Mo  Mo189  1  0.50679908  0.70186887  0.12725488  1
  Mo  Mo190  1  0.59354783  0.20478413  0.76098198  1
  Mo  Mo191  1  0.19351536  0.39968948  0.24688375  1
  Mo  Mo192  1  0.59199881  0.18914759  0.23578255  1
  Mo  Mo193  1  0.90807370  0.50232825  0.13731635  1
  Mo  Mo194  1  0.79998025  0.39985082  0.23681621  1
  Mo  Mo195  1  0.28556022  0.49616836  0.11903480  1
  Mo  Mo196  1  0.91480229  0.69856572  0.36050625  1
  Mo  Mo197  1  0.19894324  -0.00039990  0.49671575  1
  Mo  Mo198  1  0.68702910  0.11641027  0.64371264  1
  Mo  Mo199  1  0.41118820  0.18405517  0.50599681  1
