# generated using pymatgen
data_HfZrTaTiMo
_symmetry_space_group_name_H-M   'P 1'
_cell_length_a   15.20458317
_cell_length_b   15.22381004
_cell_length_c   16.85902478
_cell_angle_alpha   89.94339395
_cell_angle_beta   90.01976489
_cell_angle_gamma   90.12933667
_symmetry_Int_Tables_number   1
_chemical_formula_structural   HfZrTaTiMo
_chemical_formula_sum   'Hf40 Zr40 Ta40 Ti40 Mo40'
_cell_volume   3902.37481384
_cell_formula_units_Z   40
loop_
 _symmetry_equiv_pos_site_id
 _symmetry_equiv_pos_as_xyz
  1  'x, y, z'
loop_
 _atom_site_type_symbol
 _atom_site_label
 _atom_site_symmetry_multiplicity
 _atom_site_fract_x
 _atom_site_fract_y
 _atom_site_fract_z
 _atom_site_occupancy
  Hf  Hf0  1  0.90919800  0.30331734  0.12885817  1
  Hf  Hf1  1  0.51934763  0.50555478  0.61799425  1
  Hf  Hf2  1  0.39320694  0.19751062  0.50499336  1
  Hf  Hf3  1  0.60825884  0.19797655  0.72715214  1
  Hf  Hf4  1  0.51417861  0.09815938  0.38052983  1
  Hf  Hf5  1  0.79734740  0.00359133  0.23812573  1
  Hf  Hf6  1  0.79463543  0.40616863  0.25530801  1
  Hf  Hf7  1  0.00663727  0.19195084  0.49236363  1
  Hf  Hf8  1  0.20640481  0.40895206  0.74381427  1
  Hf  Hf9  1  0.69819387  0.50389289  0.12455758  1
  Hf  Hf10  1  0.17990633  0.59851072  0.73527478  1
  Hf  Hf11  1  0.49276751  0.49190982  0.12389722  1
  Hf  Hf12  1  -0.00638365  0.79235213  0.74880561  1
  Hf  Hf13  1  -0.02670567  0.00214682  0.01519428  1
  Hf  Hf14  1  0.80558088  0.20161853  0.73412448  1
  Hf  Hf15  1  0.80784604  0.39437119  0.00047148  1
  Hf  Hf16  1  0.60065486  0.79035113  0.49261065  1
  Hf  Hf17  1  0.67546135  0.89384081  0.88511457  1
  Hf  Hf18  1  0.19875638  0.78888320  -0.00094879  1
  Hf  Hf19  1  0.39188285  0.60302701  -0.00159599  1
  Hf  Hf20  1  0.19273111  0.59745935  0.01214212  1
  Hf  Hf21  1  0.39923646  0.59679570  0.50231569  1
  Hf  Hf22  1  0.80758229  0.19304665  0.51385403  1
  Hf  Hf23  1  0.10291995  0.49686780  0.14945000  1
  Hf  Hf24  1  0.91646344  0.30658184  0.62038422  1
  Hf  Hf25  1  0.60022346  0.62133864  -0.01031262  1
  Hf  Hf26  1  0.90758466  0.29515010  0.87662921  1
  Hf  Hf27  1  0.20052776  0.39829999  0.01125343  1
  Hf  Hf28  1  0.30068363  0.30791912  0.61605292  1
  Hf  Hf29  1  0.91122005  0.50714837  0.12984963  1
  Hf  Hf30  1  0.10125295  0.70148083  0.36454028  1
  Hf  Hf31  1  0.59996429  0.39647424  -0.00677495  1
  Hf  Hf32  1  0.01051532  0.39903884  0.74862832  1
  Hf  Hf33  1  0.08222469  0.09838684  0.63314858  1
  Hf  Hf34  1  0.69553512  0.29319230  0.12273668  1
  Hf  Hf35  1  0.39310414  0.59713342  0.74353605  1
  Hf  Hf36  1  0.40820459  0.18371315  0.72848216  1
  Hf  Hf37  1  0.09188680  0.89316251  0.12372838  1
  Hf  Hf38  1  0.48630871  0.70371100  0.13606671  1
  Hf  Hf39  1  0.29344027  0.90338173  0.61553539  1
  Zr  Zr40  1  0.81113589  0.61104977  -0.00254591  1
  Zr  Zr41  1  0.49680231  0.89219561  0.61969766  1
  Zr  Zr42  1  0.00972423  0.20260475  0.01118635  1
  Zr  Zr43  1  0.29273181  0.69774927  0.86353179  1
  Zr  Zr44  1  0.78236228  0.60204369  0.49016447  1
  Zr  Zr45  1  0.69083174  0.70310513  0.35891363  1
  Zr  Zr46  1  0.41012709  0.39679662  0.74356335  1
  Zr  Zr47  1  0.29200070  0.89796058  0.37703993  1
  Zr  Zr48  1  0.09020468  0.08569857  0.36386722  1
  Zr  Zr49  1  0.19665883  0.00342739  -0.00020974  1
  Zr  Zr50  1  0.19933940  0.19952635  0.75296480  1
  Zr  Zr51  1  0.79781307  0.80412813  0.00134400  1
  Zr  Zr52  1  0.49946986  0.91427775  0.12412365  1
  Zr  Zr53  1  0.20379240  0.40141396  0.48622037  1
  Zr  Zr54  1  0.49760590  0.49828426  0.87540557  1
  Zr  Zr55  1  0.31812808  0.09847041  0.13275773  1
  Zr  Zr56  1  0.29599011  0.71016112  0.62828648  1
  Zr  Zr57  1  0.59178133  0.00218925  0.74637841  1
  Zr  Zr58  1  -0.00818962  0.59826287  0.50090716  1
  Zr  Zr59  1  0.21452476  0.19966982  0.00607811  1
  Zr  Zr60  1  0.49763350  0.31971219  0.40308503  1
  Zr  Zr61  1  0.29971238  0.88515140  0.13315854  1
  Zr  Zr62  1  0.60778293  0.17688960  0.52500750  1
  Zr  Zr63  1  0.61509464  0.60567690  0.76338254  1
  Zr  Zr64  1  0.10338691  0.49293738  0.35809316  1
  Zr  Zr65  1  0.30151779  0.09729393  0.37220710  1
  Zr  Zr66  1  0.51056990  0.27777490  0.87356643  1
  Zr  Zr67  1  0.90087067  0.71202343  0.36481791  1
  Zr  Zr68  1  0.79372927  0.19904188  0.25237141  1
  Zr  Zr69  1  0.09119657  0.90054806  0.87835471  1
  Zr  Zr70  1  0.81619583  0.80576330  0.50796087  1
  Zr  Zr71  1  0.30871764  0.29545857  0.87641213  1
  Zr  Zr72  1  0.58564893  0.38626335  0.25382941  1
  Zr  Zr73  1  0.92137508  0.50596612  0.88851998  1
  Zr  Zr74  1  0.69111962  0.70787628  0.13538002  1
  Zr  Zr75  1  0.91898136  0.30454710  0.37323812  1
  Zr  Zr76  1  0.69817487  0.29414261  0.39109122  1
  Zr  Zr77  1  0.88946745  0.90433976  0.87230092  1
  Zr  Zr78  1  0.78565350  0.78509464  0.75660258  1
  Zr  Zr79  1  0.09381126  0.89916330  0.62530940  1
  Ta  Ta80  1  0.81797943  0.41186148  0.49568345  1
  Ta  Ta81  1  0.40327091  0.80248226  -0.00382069  1
  Ta  Ta82  1  0.19502944  0.19796864  0.49130807  1
  Ta  Ta83  1  0.19818329  -0.00000529  0.75734194  1
  Ta  Ta84  1  0.31760454  0.08863965  0.87517976  1
  Ta  Ta85  1  0.19976662  0.59984871  0.50342659  1
  Ta  Ta86  1  0.90780371  0.70600320  0.13848988  1
  Ta  Ta87  1  0.50382026  0.89870620  0.37695752  1
  Ta  Ta88  1  0.08029879  0.68643053  0.87492413  1
  Ta  Ta89  1  0.31271935  0.30724874  0.14121263  1
  Ta  Ta90  1  0.69258731  0.91075668  0.10902499  1
  Ta  Ta91  1  0.50898128  0.31087023  0.60885233  1
  Ta  Ta92  1  0.29421958  0.49632540  0.87748392  1
  Ta  Ta93  1  0.41907102  0.21028603  0.25815549  1
  Ta  Ta94  1  0.80867692  0.41415969  0.74993378  1
  Ta  Ta95  1  0.10462931  0.29718715  0.61789499  1
  Ta  Ta96  1  0.61790939  0.39668298  0.74870917  1
  Ta  Ta97  1  0.68636556  0.69669116  0.62481984  1
  Ta  Ta98  1  0.10142305  0.30786438  0.88052095  1
  Ta  Ta99  1  0.19544389  -0.00849419  0.24493544  1
  Ta  Ta100  1  0.10421607  0.69913724  0.14528735  1
  Ta  Ta101  1  0.11141420  0.30277554  0.15021000  1
  Ta  Ta102  1  0.50073885  0.28105591  0.11850807  1
  Ta  Ta103  1  0.89808705  0.10054633  0.86782063  1
  Ta  Ta104  1  0.70014181  0.10403583  0.87463977  1
  Ta  Ta105  1  0.50247447  0.72787089  0.86327185  1
  Ta  Ta106  1  0.90359877  0.50613782  0.36187279  1
  Ta  Ta107  1  0.41422964  -0.00054830  0.25808988  1
  Ta  Ta108  1  0.67817130  0.10092213  0.12265760  1
  Ta  Ta109  1  0.69959367  0.89451368  0.62448967  1
  Ta  Ta110  1  0.30171617  0.89705711  0.87105682  1
  Ta  Ta111  1  0.71104305  0.29655102  0.87102289  1
  Ta  Ta112  1  -0.01654170  0.59292700  0.73807369  1
  Ta  Ta113  1  0.58054137  0.02170366  -0.00917199  1
  Ta  Ta114  1  0.00004553  0.19170276  0.24464948  1
  Ta  Ta115  1  0.70442204  0.90865820  0.37845282  1
  Ta  Ta116  1  0.39718514  0.79448854  0.48817132  1
  Ta  Ta117  1  0.79810368  0.81732304  0.24173050  1
  Ta  Ta118  1  0.19026943  0.79461440  0.49482821  1
  Ta  Ta119  1  0.90384797  0.91339268  0.37606802  1
  Ti  Ti120  1  0.20732347  0.19831269  0.25504988  1
  Ti  Ti121  1  0.38923246  0.79291220  0.26044216  1
  Ti  Ti122  1  0.49976197  0.70577809  0.63373654  1
  Ti  Ti123  1  0.10333163  0.10173037  0.13436937  1
  Ti  Ti124  1  0.68577190  0.49746500  0.37879685  1
  Ti  Ti125  1  0.80107364  0.18392153  0.00395772  1
  Ti  Ti126  1  0.59585147  0.82030803  0.25375615  1
  Ti  Ti127  1  0.19663055  0.80320011  0.75244975  1
  Ti  Ti128  1  -0.00422228  0.81179822  0.24727502  1
  Ti  Ti129  1  0.42377105  0.17787449  0.00043645  1
  Ti  Ti130  1  0.70747997  0.32358816  0.61420063  1
  Ti  Ti131  1  0.71182038  0.49963621  0.87602259  1
  Ti  Ti132  1  0.90423074  0.91314842  0.63114729  1
  Ti  Ti133  1  0.40867961  -0.00149399  0.50115164  1
  Ti  Ti134  1  0.09037689  0.89530768  0.37171215  1
  Ti  Ti135  1  0.32438104  0.49684973  0.36462147  1
  Ti  Ti136  1  0.49349677  0.69162846  0.36623309  1
  Ti  Ti137  1  0.71726249  0.51060837  0.62736499  1
  Ti  Ti138  1  0.48185103  0.91526373  0.87432571  1
  Ti  Ti139  1  0.89362519  0.09433755  0.37500427  1
  Ti  Ti140  1  0.08834779  0.49033613  0.60958394  1
  Ti  Ti141  1  -0.01322418  -0.00032601  0.23156641  1
  Ti  Ti142  1  0.79823160  0.00377195  0.51032407  1
  Ti  Ti143  1  0.70165255  0.09037697  0.37806567  1
  Ti  Ti144  1  0.79794162  0.60562451  0.25089884  1
  Ti  Ti145  1  0.28558552  0.09397513  0.61599559  1
  Ti  Ti146  1  0.39603322  0.39162277  0.00148675  1
  Ti  Ti147  1  0.29719302  0.69422074  0.37663421  1
  Ti  Ti148  1  0.21997235  0.60985064  0.24877793  1
  Ti  Ti149  1  0.79688074  0.00248810  0.74314771  1
  Ti  Ti150  1  0.09143753  0.10641131  0.86821012  1
  Ti  Ti151  1  0.39066622  -0.00463585  0.74034897  1
  Ti  Ti152  1  -0.00649174  0.78092867  0.00401896  1
  Ti  Ti153  1  0.30609730  0.50145630  0.14243528  1
  Ti  Ti154  1  0.08584922  0.70308319  0.61452777  1
  Ti  Ti155  1  0.88575139  0.68752102  0.62614760  1
  Ti  Ti156  1  0.10559273  0.49943957  0.88168541  1
  Ti  Ti157  1  0.17761073  0.00115881  0.49560503  1
  Ti  Ti158  1  0.30110396  0.30484144  0.36675596  1
  Ti  Ti159  1  0.58960985  0.59034569  0.25243205  1
  Mo  Mo160  1  0.30089793  0.69317687  0.13178676  1
  Mo  Mo161  1  0.58459254  0.80957792  -0.00043712  1
  Mo  Mo162  1  0.01891817  0.40260534  0.00615482  1
  Mo  Mo163  1  0.59800635  0.18798824  0.25737007  1
  Mo  Mo164  1  0.60685324  -0.00418325  0.25498919  1
  Mo  Mo165  1  -0.00350321  0.60673061  0.25263736  1
  Mo  Mo166  1  -0.00766209  0.00522638  0.75766307  1
  Mo  Mo167  1  0.40462129  0.40020344  0.25065066  1
  Mo  Mo168  1  0.00042664  0.39473619  0.25312457  1
  Mo  Mo169  1  0.40350046  0.59924867  0.25814618  1
  Mo  Mo170  1  0.39582412  0.81010823  0.75380906  1
  Mo  Mo171  1  0.80523428  0.59504239  0.75517854  1
  Mo  Mo172  1  0.50032270  0.09614957  0.86618541  1
  Mo  Mo173  1  0.19735031  0.80044163  0.25417210  1
  Mo  Mo174  1  -0.01557027  -0.00749064  0.49661869  1
  Mo  Mo175  1  0.60940961  -0.01468380  0.50080273  1
  Mo  Mo176  1  0.90214112  0.09199411  0.63172364  1
  Mo  Mo177  1  0.21423282  0.39637724  0.25920649  1
  Mo  Mo178  1  0.89265772  0.89455815  0.12329236  1
  Mo  Mo179  1  0.89068183  0.10452186  0.12520843  1
  Mo  Mo180  1  0.62060112  0.41734374  0.50785303  1
  Mo  Mo181  1  0.48883670  0.08971445  0.61491713  1
  Mo  Mo182  1  0.39290728  -0.00202317  -0.00387550  1
  Mo  Mo183  1  0.70911924  0.07975101  0.62719259  1
  Mo  Mo184  1  0.59207731  0.80299053  0.74477920  1
  Mo  Mo185  1  0.50385352  0.10444890  0.13379522  1
  Mo  Mo186  1  0.01337428  0.60931735  0.01243735  1
  Mo  Mo187  1  0.00729724  0.39935010  0.49446482  1
  Mo  Mo188  1  0.40110046  0.40781979  0.50617841  1
  Mo  Mo189  1  0.00396995  0.20158124  0.75810893  1
  Mo  Mo190  1  0.11211926  0.28847845  0.35686392  1
  Mo  Mo191  1  0.29321603  0.50478721  0.61720668  1
  Mo  Mo192  1  0.78389355  0.01269804  0.00185014  1
  Mo  Mo193  1  0.59553004  0.60656688  0.49619852  1
  Mo  Mo194  1  0.90559683  0.69863141  0.87346661  1
  Mo  Mo195  1  0.00459222  0.80828001  0.49766521  1
  Mo  Mo196  1  0.50772554  0.51055725  0.38271887  1
  Mo  Mo197  1  0.69685180  0.70049171  0.87908975  1
  Mo  Mo198  1  0.61265317  0.19947115  -0.00679350  1
  Mo  Mo199  1  0.89683499  0.49732136  0.62187851  1
