# generated using pymatgen
data_HfZrTaTiMo
_symmetry_space_group_name_H-M   'P 1'
_cell_length_a   15.19837847
_cell_length_b   15.21220198
_cell_length_c   16.86106365
_cell_angle_alpha   90.06276716
_cell_angle_beta   89.97496924
_cell_angle_gamma   89.90027765
_symmetry_Int_Tables_number   1
_chemical_formula_structural   HfZrTaTiMo
_chemical_formula_sum   'Hf40 Zr40 Ta40 Ti40 Mo40'
_cell_volume   3898.28283580
_cell_formula_units_Z   40
loop_
 _symmetry_equiv_pos_site_id
 _symmetry_equiv_pos_as_xyz
  1  'x, y, z'
loop_
 _atom_site_type_symbol
 _atom_site_label
 _atom_site_symmetry_multiplicity
 _atom_site_fract_x
 _atom_site_fract_y
 _atom_site_fract_z
 _atom_site_occupancy
  Hf  Hf0  1  0.61364772  0.59593804  -0.00295000  1
  Hf  Hf1  1  0.58873602  0.39117745  0.26193326  1
  Hf  Hf2  1  0.08737397  0.70635319  0.88244788  1
  Hf  Hf3  1  0.70733868  0.28887021  0.36940565  1
  Hf  Hf4  1  0.10567520  0.09657640  0.89321562  1
  Hf  Hf5  1  0.47081358  0.71070084  0.36212676  1
  Hf  Hf6  1  0.78610889  0.58554523  0.74359200  1
  Hf  Hf7  1  0.19569899  0.20337875  0.75103541  1
  Hf  Hf8  1  0.59869614  -0.00187851  0.73559060  1
  Hf  Hf9  1  0.60250712  0.18836374  0.25267234  1
  Hf  Hf10  1  0.60228473  0.79740565  -0.00475228  1
  Hf  Hf11  1  0.92025861  0.08468165  0.11677158  1
  Hf  Hf12  1  0.39937763  0.01429849  0.25710985  1
  Hf  Hf13  1  0.40566567  0.60796336  0.00134822  1
  Hf  Hf14  1  0.80791982  0.39542324  0.25095151  1
  Hf  Hf15  1  0.79507929  0.59481184  0.49128169  1
  Hf  Hf16  1  0.29712633  0.32082258  0.39256721  1
  Hf  Hf17  1  0.90991413  0.29719882  0.12423512  1
  Hf  Hf18  1  0.01594669  0.58685011  0.49219540  1
  Hf  Hf19  1  0.00511705  0.00247183  0.75975053  1
  Hf  Hf20  1  0.69070050  0.70359198  0.13618975  1
  Hf  Hf21  1  0.01901486  0.38721011  0.25811692  1
  Hf  Hf22  1  -0.00628295  0.38680374  0.75196217  1
  Hf  Hf23  1  0.92386397  0.08555515  0.36420614  1
  Hf  Hf24  1  0.19023414  0.02724402  0.25622825  1
  Hf  Hf25  1  0.61182792  -0.00835697  0.51917937  1
  Hf  Hf26  1  0.11026523  0.69883233  0.36555508  1
  Hf  Hf27  1  0.18997673  0.81896609  0.23373733  1
  Hf  Hf28  1  0.40070944  0.02875902  -0.00329156  1
  Hf  Hf29  1  -0.01350586  0.60011667  0.75282092  1
  Hf  Hf30  1  0.29969259  0.70150043  0.14039229  1
  Hf  Hf31  1  0.30070048  0.89201897  0.37301939  1
  Hf  Hf32  1  0.70858190  0.50052739  0.13479382  1
  Hf  Hf33  1  0.59934148  0.79294988  0.73788554  1
  Hf  Hf34  1  0.29674535  0.11660960  0.39629064  1
  Hf  Hf35  1  0.50746253  0.89875434  0.37088056  1
  Hf  Hf36  1  0.28161444  0.31303179  0.61579945  1
  Hf  Hf37  1  0.23779012  0.20065117  -0.01143204  1
  Hf  Hf38  1  0.68579716  0.68089031  0.61987163  1
  Hf  Hf39  1  0.58352785  0.39233579  0.49705573  1
  Zr  Zr40  1  0.39861883  0.20583103  0.73753183  1
  Zr  Zr41  1  0.59408150  0.59365503  0.26534499  1
  Zr  Zr42  1  0.89816615  0.29225254  0.88317070  1
  Zr  Zr43  1  0.68460269  0.71038503  0.37771083  1
  Zr  Zr44  1  0.20009481  0.39690476  -0.01527061  1
  Zr  Zr45  1  0.31003420  0.51385750  0.87046794  1
  Zr  Zr46  1  0.89561249  0.48383251  0.61403778  1
  Zr  Zr47  1  0.20383229  0.00817182  0.74902352  1
  Zr  Zr48  1  0.72354063  0.11541906  0.63237134  1
  Zr  Zr49  1  0.19654600  0.60945932  0.75842534  1
  Zr  Zr50  1  0.40767139  0.41236382  0.73246408  1
  Zr  Zr51  1  0.37775518  0.61586401  0.49880676  1
  Zr  Zr52  1  0.79273082  0.80619885  0.51258994  1
  Zr  Zr53  1  0.49970441  0.90785191  0.87117817  1
  Zr  Zr54  1  0.50812640  0.90326744  0.13593415  1
  Zr  Zr55  1  0.19997992  0.80895874  0.01756450  1
  Zr  Zr56  1  0.19023534  0.60852647  0.00097687  1
  Zr  Zr57  1  0.51386046  0.10477437  0.38986873  1
  Zr  Zr58  1  0.82184497  0.01117223  0.50756555  1
  Zr  Zr59  1  0.90679159  0.88223749  0.88249615  1
  Zr  Zr60  1  0.70434102  0.90840793  0.37451129  1
  Zr  Zr61  1  0.79644612  -0.01525797  -0.00063118  1
  Zr  Zr62  1  0.80772447  -0.00709725  0.75465608  1
  Zr  Zr63  1  0.49866065  0.49822545  0.12515589  1
  Zr  Zr64  1  0.51682246  0.49299444  0.87160431  1
  Zr  Zr65  1  -0.00733904  0.80401766  0.23176129  1
  Zr  Zr66  1  0.00120970  0.79686154  0.50197873  1
  Zr  Zr67  1  0.79059603  0.40406701  0.00642732  1
  Zr  Zr68  1  0.10278713  0.49255826  0.63346514  1
  Zr  Zr69  1  0.10528224  0.90942125  0.61744737  1
  Zr  Zr70  1  0.40037747  0.81221202  0.00572057  1
  Zr  Zr71  1  0.29566048  0.48491292  0.12152585  1
  Zr  Zr72  1  0.00525800  0.79778132  0.74267363  1
  Zr  Zr73  1  0.48468440  0.29146910  0.12847784  1
  Zr  Zr74  1  0.08311123  0.49983054  0.11862055  1
  Zr  Zr75  1  0.69546260  0.09946853  0.86970401  1
  Zr  Zr76  1  0.90140958  0.48182816  0.38507593  1
  Zr  Zr77  1  0.49891365  0.10706063  0.61558812  1
  Zr  Zr78  1  0.59388578  0.19292988  -0.00229576  1
  Zr  Zr79  1  0.21199724  0.78933935  0.49793400  1
  Ta  Ta80  1  0.79972348  0.77557558  0.00378662  1
  Ta  Ta81  1  0.90168360  0.89390203  0.37097915  1
  Ta  Ta82  1  0.30567224  0.72079457  0.87087135  1
  Ta  Ta83  1  0.18788564  0.42324517  0.49701395  1
  Ta  Ta84  1  0.41449530  0.22529857  0.50753938  1
  Ta  Ta85  1  0.39845737  0.38142303  -0.01092809  1
  Ta  Ta86  1  0.12638297  0.10736511  0.10894859  1
  Ta  Ta87  1  0.19942212  0.39830824  0.76489858  1
  Ta  Ta88  1  -0.00743614  0.59179581  0.25557189  1
  Ta  Ta89  1  0.10821795  0.89917264  0.89162110  1
  Ta  Ta90  1  0.70383678  0.09290827  0.12432546  1
  Ta  Ta91  1  0.79396859  0.80165700  0.24316972  1
  Ta  Ta92  1  0.69146699  0.30857955  0.87063208  1
  Ta  Ta93  1  0.62383563  0.20811837  0.50653781  1
  Ta  Ta94  1  0.89848099  0.70310627  0.37079787  1
  Ta  Ta95  1  0.00641188  0.36588552  0.49886179  1
  Ta  Ta96  1  0.80265100  0.78667794  0.74098077  1
  Ta  Ta97  1  -0.00524248  0.40173600  -0.00284072  1
  Ta  Ta98  1  0.88288694  0.50297741  0.87612089  1
  Ta  Ta99  1  0.49665021  0.70338485  0.14374355  1
  Ta  Ta100  1  0.90064162  0.69088410  0.61905699  1
  Ta  Ta101  1  0.47454871  0.49098199  0.37819914  1
  Ta  Ta102  1  0.68682691  0.48725610  0.61198508  1
  Ta  Ta103  1  0.20511805  0.81227152  0.75505276  1
  Ta  Ta104  1  0.89159539  0.67565508  0.13145954  1
  Ta  Ta105  1  0.02510107  0.18514720  0.24171918  1
  Ta  Ta106  1  0.28902349  0.10577514  0.60340822  1
  Ta  Ta107  1  0.79964845  0.19344649  0.00227539  1
  Ta  Ta108  1  0.58554431  0.79843335  0.51966561  1
  Ta  Ta109  1  0.39570700  0.00508462  0.74302674  1
  Ta  Ta110  1  0.81485353  -0.01036533  0.23595733  1
  Ta  Ta111  1  0.00024075  0.18968552  0.74990962  1
  Ta  Ta112  1  0.08354627  0.49800799  0.87735164  1
  Ta  Ta113  1  0.79234281  0.37519361  0.50200406  1
  Ta  Ta114  1  0.80100583  0.59821613  0.26593964  1
  Ta  Ta115  1  0.79150185  0.38784069  0.74477049  1
  Ta  Ta116  1  -0.00475857  0.79167981  0.02109326  1
  Ta  Ta117  1  0.38262161  0.39593645  0.25685670  1
  Ta  Ta118  1  0.08897546  0.91666037  0.37390473  1
  Ta  Ta119  1  0.49903382  0.69576751  0.86140743  1
  Ti  Ti120  1  0.40052345  -0.00168213  0.50305890  1
  Ti  Ti121  1  0.60449455  0.40490744  0.73732792  1
  Ti  Ti122  1  0.89716542  0.27433726  0.62119827  1
  Ti  Ti123  1  0.69215707  0.49331332  0.38274831  1
  Ti  Ti124  1  0.29979237  0.71027781  0.63887787  1
  Ti  Ti125  1  0.40636002  0.80862900  0.51482955  1
  Ti  Ti126  1  0.29612472  0.52100313  0.63246726  1
  Ti  Ti127  1  0.69947705  0.28968684  0.13021156  1
  Ti  Ti128  1  0.10604235  0.69598594  0.62450288  1
  Ti  Ti129  1  -0.02615020  0.59994793  -0.00144183  1
  Ti  Ti130  1  0.72075613  0.09768066  0.37360018  1
  Ti  Ti131  1  0.08407057  0.92669853  0.11058624  1
  Ti  Ti132  1  0.57692271  0.59941016  0.49134910  1
  Ti  Ti133  1  0.30345063  0.90839380  0.62195172  1
  Ti  Ti134  1  0.70235206  0.88277639  0.86918038  1
  Ti  Ti135  1  0.60346948  0.21452302  0.74072963  1
  Ti  Ti136  1  0.39566603  0.42030109  0.51817674  1
  Ti  Ti137  1  0.21027882  0.22343056  0.25378784  1
  Ti  Ti138  1  0.27855909  0.52068608  0.37202498  1
  Ti  Ti139  1  0.91263767  0.27574234  0.37556672  1
  Ti  Ti140  1  0.17033223  0.21602996  0.50362143  1
  Ti  Ti141  1  0.90186055  0.90073589  0.62760397  1
  Ti  Ti142  1  0.29798496  0.91573435  0.87836495  1
  Ti  Ti143  1  0.61847333  -0.00468212  0.24601691  1
  Ti  Ti144  1  0.81166845  0.18823187  0.24038472  1
  Ti  Ti145  1  0.09862510  0.29763467  0.87861759  1
  Ti  Ti146  1  0.60207537  -0.00372159  0.00154829  1
  Ti  Ti147  1  0.18580795  0.58970121  0.24104522  1
  Ti  Ti148  1  0.59646936  0.38981063  0.00213169  1
  Ti  Ti149  1  0.49864156  0.10086062  0.13015345  1
  Ti  Ti150  1  0.39946642  0.20812869  0.26537974  1
  Ti  Ti151  1  0.70469776  0.68332547  0.86739649  1
  Ti  Ti152  1  0.49644802  0.28944353  0.86693003  1
  Ti  Ti153  1  0.00725140  0.20149481  0.00375110  1
  Ti  Ti154  1  0.81061661  0.19795656  0.76128582  1
  Ti  Ti155  1  0.38786684  0.59242061  0.25228614  1
  Ti  Ti156  1  0.39987704  0.81011206  0.74445499  1
  Ti  Ti157  1  0.29563281  0.93515261  0.12584121  1
  Ti  Ti158  1  0.11950173  0.30015346  0.11968539  1
  Ti  Ti159  1  0.18894360  0.00829931  0.49460406  1
  Mo  Mo160  1  0.10511310  0.11097753  0.37677368  1
  Mo  Mo161  1  0.38960487  0.81045286  0.23919343  1
  Mo  Mo162  1  0.08942709  0.69396821  0.12900043  1
  Mo  Mo163  1  0.49225338  0.29994019  0.37918932  1
  Mo  Mo164  1  0.79817768  0.60025597  -0.00095293  1
  Mo  Mo165  1  0.31333695  0.12158252  0.13572780  1
  Mo  Mo166  1  0.69960703  0.48931096  0.87012929  1
  Mo  Mo167  1  0.59491290  0.59152280  0.74858880  1
  Mo  Mo168  1  0.41345495  0.20808641  -0.00922884  1
  Mo  Mo169  1  0.70641040  0.89152104  0.63002102  1
  Mo  Mo170  1  0.20300687  0.40232836  0.25433721  1
  Mo  Mo171  1  0.91810006  0.09509647  0.63103070  1
  Mo  Mo172  1  0.81455973  0.20189417  0.49315213  1
  Mo  Mo173  1  0.40431061  0.61887947  0.74724429  1
  Mo  Mo174  1  0.09917258  0.10928411  0.62122713  1
  Mo  Mo175  1  0.59641112  0.80551591  0.25008560  1
  Mo  Mo176  1  0.29758407  0.29226364  0.12979691  1
  Mo  Mo177  1  0.49052780  0.89915055  0.62698021  1
  Mo  Mo178  1  0.90022354  0.49590456  0.13172698  1
  Mo  Mo179  1  0.19953978  0.60480041  0.50303325  1
  Mo  Mo180  1  0.50197337  0.10375137  0.85763399  1
  Mo  Mo181  1  0.50665474  0.52000962  0.62068912  1
  Mo  Mo182  1  0.21148170  0.00201376  0.00289938  1
  Mo  Mo183  1  0.01136062  -0.00390891  0.24105513  1
  Mo  Mo184  1  0.31872995  0.10129175  0.86452200  1
  Mo  Mo185  1  0.89333850  0.88799413  0.11477587  1
  Mo  Mo186  1  0.70236944  0.90007867  0.12550192  1
  Mo  Mo187  1  0.00799216  -0.00583065  0.50099870  1
  Mo  Mo188  1  0.70749886  0.30277153  0.62961278  1
  Mo  Mo189  1  0.88963462  0.69542311  0.87625765  1
  Mo  Mo190  1  0.10171603  0.28966402  0.37586336  1
  Mo  Mo191  1  0.10493505  0.49172155  0.37149924  1
  Mo  Mo192  1  0.00367212  -0.00184370  -0.00728645  1
  Mo  Mo193  1  -0.00585002  0.18004843  0.50580793  1
  Mo  Mo194  1  0.09021532  0.29940662  0.62990449  1
  Mo  Mo195  1  0.28756179  0.70074544  0.34555034  1
  Mo  Mo196  1  0.50881726  0.31242902  0.62266981  1
  Mo  Mo197  1  0.48610891  0.69616522  0.63184737  1
  Mo  Mo198  1  0.90522708  0.10267682  0.89210012  1
  Mo  Mo199  1  0.30740204  0.30735463  0.86007881  1
