# generated using pymatgen
data_HfZrTaTiMo
_symmetry_space_group_name_H-M   'P 1'
_cell_length_a   15.19159213
_cell_length_b   15.20228068
_cell_length_c   16.85838049
_cell_angle_alpha   89.94914208
_cell_angle_beta   89.98435318
_cell_angle_gamma   89.95910779
_symmetry_Int_Tables_number   1
_chemical_formula_structural   HfZrTaTiMo
_chemical_formula_sum   'Hf40 Zr40 Ta40 Ti40 Mo40'
_cell_volume   3893.38716115
_cell_formula_units_Z   40
loop_
 _symmetry_equiv_pos_site_id
 _symmetry_equiv_pos_as_xyz
  1  'x, y, z'
loop_
 _atom_site_type_symbol
 _atom_site_label
 _atom_site_symmetry_multiplicity
 _atom_site_fract_x
 _atom_site_fract_y
 _atom_site_fract_z
 _atom_site_occupancy
  Hf  Hf0  1  0.50612201  0.09405386  0.61927203  1
  Hf  Hf1  1  0.00081418  0.79962728  0.74942683  1
  Hf  Hf2  1  0.70833525  0.88460701  0.12406443  1
  Hf  Hf3  1  0.81487980  0.40610064  0.75653564  1
  Hf  Hf4  1  0.71132028  0.46905660  0.37170666  1
  Hf  Hf5  1  0.09918564  0.90261903  0.61243992  1
  Hf  Hf6  1  0.21071910  0.61591233  0.00319590  1
  Hf  Hf7  1  0.89979095  0.11084604  0.36546077  1
  Hf  Hf8  1  0.10575366  0.11497800  0.62530097  1
  Hf  Hf9  1  -0.00684820  0.00880140  0.73915193  1
  Hf  Hf10  1  0.38808246  0.78445573  0.00626907  1
  Hf  Hf11  1  0.27450877  0.90839088  0.11063554  1
  Hf  Hf12  1  0.10881222  0.29873682  0.86490320  1
  Hf  Hf13  1  0.21816623  0.21853806  0.25363057  1
  Hf  Hf14  1  0.69801317  0.68828123  0.37356521  1
  Hf  Hf15  1  0.48735448  0.66826690  0.87393657  1
  Hf  Hf16  1  0.39179504  0.00450542  0.24040684  1
  Hf  Hf17  1  0.10392308  0.09753940  0.87136375  1
  Hf  Hf18  1  0.40381067  0.61296070  0.51419040  1
  Hf  Hf19  1  0.81373241  0.19776687  0.74289748  1
  Hf  Hf20  1  0.90411998  0.90341661  0.87675674  1
  Hf  Hf21  1  0.71138364  0.49061666  0.62963904  1
  Hf  Hf22  1  0.20366965  -0.00255830  0.74531133  1
  Hf  Hf23  1  -0.00800344  0.43018902  0.49091914  1
  Hf  Hf24  1  0.60398445  0.78194350  0.76396212  1
  Hf  Hf25  1  0.71195178  0.09421770  0.88086071  1
  Hf  Hf26  1  0.49574827  0.49096941  0.36471489  1
  Hf  Hf27  1  0.59658854  0.57552322  0.49670466  1
  Hf  Hf28  1  0.89346823  0.90756428  0.38750523  1
  Hf  Hf29  1  0.29054846  0.49972322  0.36841675  1
  Hf  Hf30  1  0.07984144  0.51227853  0.63782736  1
  Hf  Hf31  1  0.79659497  0.38636218  0.22740451  1
  Hf  Hf32  1  0.60883324  0.00156477  0.24405322  1
  Hf  Hf33  1  0.90411556  0.70367196  0.12987763  1
  Hf  Hf34  1  0.20427867  0.20905171  0.48316780  1
  Hf  Hf35  1  0.60382248  0.36292406  0.50480019  1
  Hf  Hf36  1  0.68391471  0.69301114  0.62188937  1
  Hf  Hf37  1  0.29030437  0.91315149  0.89536888  1
  Hf  Hf38  1  0.69938387  0.30266466  0.87924847  1
  Hf  Hf39  1  0.50019947  0.88053114  0.62414273  1
  Zr  Zr40  1  0.40412734  -0.00309188  0.49523955  1
  Zr  Zr41  1  -0.02099424  0.59065180  0.77022519  1
  Zr  Zr42  1  0.30551196  0.10379289  0.37278337  1
  Zr  Zr43  1  0.59005343  0.38697613  0.00605888  1
  Zr  Zr44  1  0.09203137  0.31192093  0.63969417  1
  Zr  Zr45  1  0.39359627  0.78955756  0.23466761  1
  Zr  Zr46  1  0.71212124  0.08480447  0.61899250  1
  Zr  Zr47  1  0.60772175  0.19705673  0.74756319  1
  Zr  Zr48  1  0.19461539  0.80577314  0.25715417  1
  Zr  Zr49  1  0.39617644  0.40729272  0.01091191  1
  Zr  Zr50  1  0.29509888  0.29616624  0.63403944  1
  Zr  Zr51  1  0.89293999  0.69549208  0.62620025  1
  Zr  Zr52  1  0.19028126  0.60851408  0.50143045  1
  Zr  Zr53  1  0.40654286  0.20555923  0.74867934  1
  Zr  Zr54  1  0.57843433  0.78291758  0.48715544  1
  Zr  Zr55  1  0.10643431  0.50375423  0.88107076  1
  Zr  Zr56  1  0.60232935  0.77662640  -0.01032085  1
  Zr  Zr57  1  -0.00029513  0.39384515  0.00901573  1
  Zr  Zr58  1  0.09368174  0.91149927  0.37867076  1
  Zr  Zr59  1  0.00446054  0.19946484  0.01438309  1
  Zr  Zr60  1  0.29725869  0.11763809  0.88326874  1
  Zr  Zr61  1  0.19700193  0.62614234  0.74938111  1
  Zr  Zr62  1  0.19842261  0.40926488  0.50576430  1
  Zr  Zr63  1  0.09382481  0.32661836  0.35890655  1
  Zr  Zr64  1  0.60906915  -0.00838874  -0.00386610  1
  Zr  Zr65  1  0.70039665  0.67733272  0.13226242  1
  Zr  Zr66  1  0.40492052  0.41194324  0.51576695  1
  Zr  Zr67  1  0.40416124  -0.00238156  0.75407306  1
  Zr  Zr68  1  0.91463562  0.69617604  0.37425789  1
  Zr  Zr69  1  0.81887452  0.58441908  0.49323217  1
  Zr  Zr70  1  0.80646974  -0.00710985  0.24193357  1
  Zr  Zr71  1  0.80138862  -0.01019325  0.75135550  1
  Zr  Zr72  1  0.49109603  0.89096361  0.36715851  1
  Zr  Zr73  1  0.10027132  0.51154496  0.11817889  1
  Zr  Zr74  1  0.51525889  0.11647945  0.36995853  1
  Zr  Zr75  1  0.31154158  0.32191359  0.87039230  1
  Zr  Zr76  1  -0.00556035  0.21907214  0.49472849  1
  Zr  Zr77  1  0.01781393  -0.00357259  0.00588802  1
  Zr  Zr78  1  0.50029377  0.89381332  0.11955257  1
  Zr  Zr79  1  0.38611645  0.79699942  0.75800574  1
  Ta  Ta80  1  0.30088206  0.09975050  0.61655059  1
  Ta  Ta81  1  0.79079045  0.59940602  -0.00441589  1
  Ta  Ta82  1  0.21017254  0.41915329  0.74730784  1
  Ta  Ta83  1  0.89169571  0.50854380  0.11865528  1
  Ta  Ta84  1  0.50441725  0.49094402  0.14490176  1
  Ta  Ta85  1  0.59992954  -0.01328142  0.76146087  1
  Ta  Ta86  1  0.51079241  0.10820089  0.12436047  1
  Ta  Ta87  1  0.78917291  0.40152546  0.01483612  1
  Ta  Ta88  1  0.41518921  0.21630758  0.50103479  1
  Ta  Ta89  1  0.89083491  0.90499221  0.60841686  1
  Ta  Ta90  1  0.09542644  0.10698013  0.35334280  1
  Ta  Ta91  1  0.49728164  0.47670608  0.86322835  1
  Ta  Ta92  1  0.19987994  0.21344457  0.01442926  1
  Ta  Ta93  1  0.80449869  0.38583874  0.50363338  1
  Ta  Ta94  1  0.79301307  0.20143709  0.50522050  1
  Ta  Ta95  1  0.40509784  0.01229764  0.00495370  1
  Ta  Ta96  1  0.79791029  0.79281629  0.25689575  1
  Ta  Ta97  1  0.11499838  0.10233368  0.14573611  1
  Ta  Ta98  1  0.90822336  0.09289921  0.13300319  1
  Ta  Ta99  1  0.61442481  -0.01101227  0.49418609  1
  Ta  Ta100  1  0.00276321  0.79197549  0.49936325  1
  Ta  Ta101  1  0.31309868  0.70423315  0.37774203  1
  Ta  Ta102  1  0.88136807  0.30853333  0.36480628  1
  Ta  Ta103  1  0.81277474  -0.00210329  0.01209239  1
  Ta  Ta104  1  0.00170990  0.79756955  -0.00029383  1
  Ta  Ta105  1  0.80004576  0.19953310  0.01525716  1
  Ta  Ta106  1  0.38812535  0.38529163  0.25018595  1
  Ta  Ta107  1  0.80617248  0.79643475  0.00063076  1
  Ta  Ta108  1  0.50354808  0.10146156  0.88059008  1
  Ta  Ta109  1  0.31481077  0.52250796  0.86646799  1
  Ta  Ta110  1  0.10545534  0.71732744  0.12359673  1
  Ta  Ta111  1  0.68946945  0.50410997  0.87148418  1
  Ta  Ta112  1  0.70059625  0.88568932  0.62579240  1
  Ta  Ta113  1  0.59943201  0.78770966  0.25567527  1
  Ta  Ta114  1  0.01307790  0.60153533  0.25000629  1
  Ta  Ta115  1  0.59417601  0.57616036  0.00485504  1
  Ta  Ta116  1  -0.00754867  0.22097570  0.23439134  1
  Ta  Ta117  1  0.30946578  0.11366292  0.12006660  1
  Ta  Ta118  1  0.29525654  0.90091753  0.61369555  1
  Ta  Ta119  1  0.81178699  0.58483294  0.25567573  1
  Ti  Ti120  1  0.29683051  0.30872715  0.12437075  1
  Ti  Ti121  1  0.29918527  0.71689739  0.62345029  1
  Ti  Ti122  1  0.71027788  0.88324802  0.87545785  1
  Ti  Ti123  1  -0.00750685  0.01868290  0.50459528  1
  Ti  Ti124  1  0.19599822  0.00952907  0.49575001  1
  Ti  Ti125  1  0.40850519  0.21113737  -0.00155588  1
  Ti  Ti126  1  0.59689234  0.19257253  -0.00320869  1
  Ti  Ti127  1  0.90051820  0.31439244  0.62784627  1
  Ti  Ti128  1  0.41140847  0.40872251  0.73000560  1
  Ti  Ti129  1  -0.00634939  0.80947947  0.25248904  1
  Ti  Ti130  1  0.10718014  0.88745132  0.87505222  1
  Ti  Ti131  1  0.59718212  0.37357729  0.25455986  1
  Ti  Ti132  1  0.09861169  0.71085936  0.62201590  1
  Ti  Ti133  1  0.50405794  0.68588326  0.12964557  1
  Ti  Ti134  1  0.20540261  0.40873207  0.00716708  1
  Ti  Ti135  1  0.49039504  0.28781511  0.13592669  1
  Ti  Ti136  1  0.79028938  0.80144783  0.49570093  1
  Ti  Ti137  1  0.18984088  0.41725284  0.23834664  1
  Ti  Ti138  1  0.60443808  0.58635142  0.25428250  1
  Ti  Ti139  1  0.88987303  0.49394926  0.89415838  1
  Ti  Ti140  1  0.27523505  0.71849844  0.87504670  1
  Ti  Ti141  1  0.88629457  0.70633083  0.87574557  1
  Ti  Ti142  1  0.68386986  0.28416905  0.12109652  1
  Ti  Ti143  1  0.90053822  0.29748764  0.88306987  1
  Ti  Ti144  1  0.40422212  0.59623731  0.72791593  1
  Ti  Ti145  1  -0.00458337  0.61090322  -0.00743622  1
  Ti  Ti146  1  0.40170340  0.59062752  0.01638438  1
  Ti  Ti147  1  -0.00186425  0.20617371  0.75114346  1
  Ti  Ti148  1  0.69857692  0.89735482  0.37302568  1
  Ti  Ti149  1  0.29545473  0.90363239  0.37697852  1
  Ti  Ti150  1  0.20625578  0.61284285  0.24650440  1
  Ti  Ti151  1  0.20274765  0.80168870  0.48924459  1
  Ti  Ti152  1  0.49628726  0.89601223  0.88423594  1
  Ti  Ti153  1  0.90490935  0.10558606  0.88409635  1
  Ti  Ti154  1  0.78613977  0.19279702  0.23515355  1
  Ti  Ti155  1  0.39578867  0.59464826  0.24212597  1
  Ti  Ti156  1  0.59942695  0.39113676  0.73908445  1
  Ti  Ti157  1  0.08391294  0.91100387  0.13770697  1
  Ti  Ti158  1  0.70819764  0.09907638  0.38115343  1
  Ti  Ti159  1  0.78027726  0.61293209  0.76215657  1
  Mo  Mo160  1  0.40857942  0.20295788  0.24217171  1
  Mo  Mo161  1  0.18364127  0.80947664  0.00454438  1
  Mo  Mo162  1  0.49419922  0.68386507  0.36044882  1
  Mo  Mo163  1  0.19724748  0.01987468  0.00805292  1
  Mo  Mo164  1  0.38490606  0.79773835  0.49764929  1
  Mo  Mo165  1  0.30320985  0.50381920  0.13817892  1
  Mo  Mo166  1  0.90898585  0.10827893  0.61556953  1
  Mo  Mo167  1  -0.01024294  0.41375641  0.23672129  1
  Mo  Mo168  1  0.59316687  0.58305039  0.75033482  1
  Mo  Mo169  1  0.00134164  0.00585324  0.24860299  1
  Mo  Mo170  1  0.50402549  0.29517628  0.87362924  1
  Mo  Mo171  1  0.10938176  0.70402266  0.37080723  1
  Mo  Mo172  1  0.70136309  0.27404796  0.36889504  1
  Mo  Mo173  1  0.89394386  0.29715441  0.12272619  1
  Mo  Mo174  1  0.80087115  -0.00452105  0.49521123  1
  Mo  Mo175  1  0.19986004  0.00712680  0.25118663  1
  Mo  Mo176  1  0.49825445  0.29853009  0.36897569  1
  Mo  Mo177  1  0.29537654  0.50947321  0.63691241  1
  Mo  Mo178  1  0.70245547  0.09729115  0.11439423  1
  Mo  Mo179  1  0.90605868  0.88991309  0.12413461  1
  Mo  Mo180  1  0.69243482  0.49295127  0.13110078  1
  Mo  Mo181  1  0.31641731  0.30963206  0.37752687  1
  Mo  Mo182  1  0.19474461  0.81072922  0.74399680  1
  Mo  Mo183  1  0.60941065  0.19793168  0.24341133  1
  Mo  Mo184  1  0.00816095  0.60920520  0.49722298  1
  Mo  Mo185  1  0.09922663  0.51987448  0.36110679  1
  Mo  Mo186  1  0.60426666  0.18562264  0.50304430  1
  Mo  Mo187  1  0.71113554  0.29465203  0.62956480  1
  Mo  Mo188  1  0.50626657  0.29475482  0.62541239  1
  Mo  Mo189  1  0.69938918  0.69010461  0.88085147  1
  Mo  Mo190  1  0.29681442  0.69627918  0.12586722  1
  Mo  Mo191  1  0.79889102  0.79739738  0.74867509  1
  Mo  Mo192  1  -0.00582049  0.39497351  0.76595134  1
  Mo  Mo193  1  0.49708443  0.69941453  0.63283467  1
  Mo  Mo194  1  0.51216502  0.50216147  0.63363240  1
  Mo  Mo195  1  0.10648185  0.30453806  0.13442923  1
  Mo  Mo196  1  0.20067521  0.20223835  0.74840805  1
  Mo  Mo197  1  0.08754392  0.70941244  0.88304968  1
  Mo  Mo198  1  0.90030491  0.49949886  0.63073672  1
  Mo  Mo199  1  0.90999984  0.48814306  0.35898340  1
