# generated using pymatgen
data_HfZrTaTiMo
_symmetry_space_group_name_H-M   'P 1'
_cell_length_a   15.20680762
_cell_length_b   15.21138291
_cell_length_c   16.83933702
_cell_angle_alpha   89.93152687
_cell_angle_beta   89.97017544
_cell_angle_gamma   89.96472707
_symmetry_Int_Tables_number   1
_chemical_formula_structural   HfZrTaTiMo
_chemical_formula_sum   'Hf40 Zr40 Ta40 Ti40 Mo40'
_cell_volume   3895.21369499
_cell_formula_units_Z   40
loop_
 _symmetry_equiv_pos_site_id
 _symmetry_equiv_pos_as_xyz
  1  'x, y, z'
loop_
 _atom_site_type_symbol
 _atom_site_label
 _atom_site_symmetry_multiplicity
 _atom_site_fract_x
 _atom_site_fract_y
 _atom_site_fract_z
 _atom_site_occupancy
  Hf  Hf0  1  0.91436504  0.69221811  0.87381376  1
  Hf  Hf1  1  0.00232484  0.00180454  0.26628020  1
  Hf  Hf2  1  0.18641693  0.61671455  -0.00075925  1
  Hf  Hf3  1  0.68748739  0.08139795  0.62121595  1
  Hf  Hf4  1  0.49929731  0.10036205  0.13035513  1
  Hf  Hf5  1  0.61898190  0.79928377  0.51389356  1
  Hf  Hf6  1  0.31218334  0.89746819  0.85958159  1
  Hf  Hf7  1  0.59236389  0.19187713  0.74961006  1
  Hf  Hf8  1  0.00696796  0.40915901  0.49874791  1
  Hf  Hf9  1  0.89784466  0.69342245  0.36948733  1
  Hf  Hf10  1  0.59617437  0.39495809  0.74811295  1
  Hf  Hf11  1  0.91488394  0.89652786  0.62773470  1
  Hf  Hf12  1  0.20485279  0.59407201  0.25487502  1
  Hf  Hf13  1  -0.01072655  0.20566862  0.25989383  1
  Hf  Hf14  1  0.29886510  0.91429097  0.62089869  1
  Hf  Hf15  1  0.69742351  0.69268961  0.37070116  1
  Hf  Hf16  1  0.61967637  0.79403959  0.73378598  1
  Hf  Hf17  1  0.30537655  0.50497702  0.39323410  1
  Hf  Hf18  1  0.40626989  0.21123204  0.25247730  1
  Hf  Hf19  1  0.70230494  0.09095936  0.12314509  1
  Hf  Hf20  1  0.11280256  0.31597324  0.36935857  1
  Hf  Hf21  1  0.40746588  0.00795875  0.48734040  1
  Hf  Hf22  1  0.40209560  0.60182038  0.74893852  1
  Hf  Hf23  1  0.00329719  0.20179611  0.75433530  1
  Hf  Hf24  1  0.88228279  0.10017356  0.88188386  1
  Hf  Hf25  1  0.59576563  0.59184163  0.49369003  1
  Hf  Hf26  1  0.41192910  0.00976671  0.74573891  1
  Hf  Hf27  1  0.39647212  0.61682374  -0.00683259  1
  Hf  Hf28  1  0.81210144  0.37696026  0.01467320  1
  Hf  Hf29  1  0.87872339  0.49636992  0.37890959  1
  Hf  Hf30  1  0.10756425  0.30705718  0.13563067  1
  Hf  Hf31  1  0.11558561  0.89276517  0.14337212  1
  Hf  Hf32  1  0.51336988  0.31527871  0.36479792  1
  Hf  Hf33  1  0.87374488  0.10495373  0.37690735  1
  Hf  Hf34  1  0.89962983  0.50603372  0.62959244  1
  Hf  Hf35  1  0.19158276  0.01175598  0.75289960  1
  Hf  Hf36  1  0.78696514  0.60370168  0.75125223  1
  Hf  Hf37  1  -0.01061231  0.59978148  0.23870937  1
  Hf  Hf38  1  0.09036784  0.51539348  0.86837915  1
  Hf  Hf39  1  0.89356878  0.11099951  0.12132361  1
  Zr  Zr40  1  0.21560215  -0.00857777  0.27559604  1
  Zr  Zr41  1  0.51273016  0.70621008  0.86875725  1
  Zr  Zr42  1  0.19957128  0.00168428  -0.00646358  1
  Zr  Zr43  1  0.11686306  0.29720687  0.62010744  1
  Zr  Zr44  1  0.89363708  0.49062419  0.87956282  1
  Zr  Zr45  1  0.39571481  0.39889747  0.75332549  1
  Zr  Zr46  1  0.79609747  0.19145275  0.74075751  1
  Zr  Zr47  1  0.29151010  0.50042009  0.88186107  1
  Zr  Zr48  1  0.09811461  0.71806254  0.35979863  1
  Zr  Zr49  1  0.78699233  -0.01600027  0.49420077  1
  Zr  Zr50  1  0.79105176  0.36763227  0.23146372  1
  Zr  Zr51  1  0.41209409  0.79613160  0.51179104  1
  Zr  Zr52  1  0.78470331  0.57717400  0.23286771  1
  Zr  Zr53  1  0.00993971  0.79187576  0.00271759  1
  Zr  Zr54  1  0.30371496  0.11089571  0.87931152  1
  Zr  Zr55  1  0.39289977  0.21310946  0.74930179  1
  Zr  Zr56  1  -0.00736237  0.40723025  0.24861365  1
  Zr  Zr57  1  0.20180176  0.23269676  -0.00834324  1
  Zr  Zr58  1  0.70538120  0.28620849  0.88477354  1
  Zr  Zr59  1  0.21277841  0.80778066  -0.00502815  1
  Zr  Zr60  1  0.68850806  0.50250222  0.63287943  1
  Zr  Zr61  1  0.48179109  0.50022837  0.61419948  1
  Zr  Zr62  1  0.28770879  0.11835508  0.61661456  1
  Zr  Zr63  1  0.40497587  -0.00577723  0.00226898  1
  Zr  Zr64  1  0.00396802  0.19345109  0.49026058  1
  Zr  Zr65  1  0.69402889  0.49785940  0.88812205  1
  Zr  Zr66  1  0.39709323  0.81628910  0.26548830  1
  Zr  Zr67  1  0.78838526  0.79318660  0.23496070  1
  Zr  Zr68  1  -0.00531215  -0.00331721  0.75733105  1
  Zr  Zr69  1  0.90084719  0.90130994  0.12902638  1
  Zr  Zr70  1  0.29455681  0.10673735  0.13137659  1
  Zr  Zr71  1  0.90160901  0.29548053  0.61863071  1
  Zr  Zr72  1  0.49088545  0.69742544  0.13359186  1
  Zr  Zr73  1  0.78475797  0.39901539  0.50575940  1
  Zr  Zr74  1  0.18604256  0.61570333  0.50343860  1
  Zr  Zr75  1  -0.00118698  -0.00376554  -0.00744154  1
  Zr  Zr76  1  0.60149494  0.80400664  0.01630754  1
  Zr  Zr77  1  0.00976804  -0.00996380  0.48306937  1
  Zr  Zr78  1  0.09695440  0.10558088  0.12257435  1
  Zr  Zr79  1  0.30270273  0.50971255  0.11999763  1
  Ta  Ta80  1  0.09623150  0.50903395  0.37559600  1
  Ta  Ta81  1  0.61511859  0.20066958  0.24621690  1
  Ta  Ta82  1  0.20025556  0.40070187  0.74818262  1
  Ta  Ta83  1  0.49754599  0.69548330  0.37436708  1
  Ta  Ta84  1  0.00658337  0.79579402  0.50003444  1
  Ta  Ta85  1  0.70239991  0.88782400  0.87717700  1
  Ta  Ta86  1  0.41273309  0.21601520  0.48917367  1
  Ta  Ta87  1  0.41116309  0.80084183  0.72930777  1
  Ta  Ta88  1  0.09682360  0.50720441  0.63293188  1
  Ta  Ta89  1  0.52757783  0.90194232  0.38029614  1
  Ta  Ta90  1  0.89013726  0.88794596  0.87564901  1
  Ta  Ta91  1  0.40778236  0.21079908  0.00808689  1
  Ta  Ta92  1  0.81275145  0.79048327  0.50506670  1
  Ta  Ta93  1  0.49415423  0.10756990  0.61611954  1
  Ta  Ta94  1  -0.01338661  0.21927559  -0.01021335  1
  Ta  Ta95  1  0.30908439  0.11465640  0.37636070  1
  Ta  Ta96  1  0.10369244  0.50069446  0.12385937  1
  Ta  Ta97  1  0.29479161  0.70750493  0.85777492  1
  Ta  Ta98  1  0.19496827  0.81803542  0.50331324  1
  Ta  Ta99  1  0.70548466  0.28300726  0.37519316  1
  Ta  Ta100  1  0.80013279  0.38822364  0.74815278  1
  Ta  Ta101  1  0.19826057  0.80363344  0.73704432  1
  Ta  Ta102  1  0.78622893  -0.01419901  0.75093725  1
  Ta  Ta103  1  -0.00990483  0.59345867  0.01527090  1
  Ta  Ta104  1  0.68528440  0.48282464  0.10838659  1
  Ta  Ta105  1  0.09346864  0.11272845  0.88235911  1
  Ta  Ta106  1  0.89918286  0.88342356  0.36604505  1
  Ta  Ta107  1  0.50293412  0.49912574  0.88533769  1
  Ta  Ta108  1  0.39456227  0.39512346  -0.00139159  1
  Ta  Ta109  1  0.20681790  0.20605351  0.48405500  1
  Ta  Ta110  1  0.51624393  0.90869942  0.86453563  1
  Ta  Ta111  1  0.68624743  0.07880678  0.88176629  1
  Ta  Ta112  1  0.28704076  0.49941557  0.61003410  1
  Ta  Ta113  1  0.29044997  0.71573086  0.13430422  1
  Ta  Ta114  1  0.00275363  0.39828791  0.75107954  1
  Ta  Ta115  1  0.58785057  0.57738900  0.25224158  1
  Ta  Ta116  1  0.41161630  0.42246584  0.25042271  1
  Ta  Ta117  1  0.30721772  0.31559418  0.13610994  1
  Ta  Ta118  1  0.50504094  0.10495452  0.88587835  1
  Ta  Ta119  1  0.59123130  0.37938033  0.50715982  1
  Ti  Ti120  1  0.09667413  0.88606448  0.86707855  1
  Ti  Ti121  1  0.60097226  -0.01703072  0.24226340  1
  Ti  Ti122  1  0.60376922  0.20143846  0.00695654  1
  Ti  Ti123  1  0.30352455  0.69595071  0.62275146  1
  Ti  Ti124  1  0.30644311  0.31662701  0.37279888  1
  Ti  Ti125  1  0.59610879  -0.00938446  0.00887759  1
  Ti  Ti126  1  0.31530145  0.90513617  0.13252691  1
  Ti  Ti127  1  0.81244190  0.79708885  0.74606730  1
  Ti  Ti128  1  0.59919147  0.79429711  0.24162503  1
  Ti  Ti129  1  0.19749278  0.00734906  0.48005082  1
  Ti  Ti130  1  0.52297838  0.91627723  0.62497142  1
  Ti  Ti131  1  0.49904039  0.49677202  0.11256608  1
  Ti  Ti132  1  -0.00807548  0.60686860  0.50048529  1
  Ti  Ti133  1  0.49810256  0.30176386  0.88628270  1
  Ti  Ti134  1  0.78927699  -0.00618398  0.25459439  1
  Ti  Ti135  1  0.79666377  0.78797770  0.01103787  1
  Ti  Ti136  1  0.60478788  0.60398885  0.00742451  1
  Ti  Ti137  1  0.41496866  0.00557451  0.27054935  1
  Ti  Ti138  1  0.71090855  0.69805046  0.88407501  1
  Ti  Ti139  1  0.40544521  0.80742870  0.00050929  1
  Ti  Ti140  1  0.90675936  0.69766677  0.63181644  1
  Ti  Ti141  1  0.67617656  0.07957168  0.37122462  1
  Ti  Ti142  1  0.01402046  0.39929547  0.00169631  1
  Ti  Ti143  1  0.51484026  0.31327380  0.12843302  1
  Ti  Ti144  1  0.89775484  0.09245061  0.61909235  1
  Ti  Ti145  1  0.20252603  0.20340615  0.26099006  1
  Ti  Ti146  1  0.79293420  0.60463806  0.50659081  1
  Ti  Ti147  1  0.31235148  0.31555277  0.60584275  1
  Ti  Ti148  1  0.79039692  -0.01609187  0.00081363  1
  Ti  Ti149  1  0.30000507  0.71131441  0.38419853  1
  Ti  Ti150  1  0.09862238  0.70259653  0.13960459  1
  Ti  Ti151  1  0.89324117  0.30110946  0.38447134  1
  Ti  Ti152  1  0.09543672  0.08922090  0.61808698  1
  Ti  Ti153  1  0.89317500  0.69309920  0.12179538  1
  Ti  Ti154  1  0.78496025  0.19998823  0.51196005  1
  Ti  Ti155  1  0.39845062  0.60797434  0.25873751  1
  Ti  Ti156  1  0.19673533  0.21743742  0.76752250  1
  Ti  Ti157  1  0.09159357  0.71063475  0.63356048  1
  Ti  Ti158  1  0.59750780  0.18641431  0.49462952  1
  Ti  Ti159  1  0.19575793  0.60440050  0.74225586  1
  Mo  Mo160  1  0.69665807  0.89646464  0.12358979  1
  Mo  Mo161  1  0.68748455  0.28872344  0.62230602  1
  Mo  Mo162  1  0.10730619  0.90211583  0.62422709  1
  Mo  Mo163  1  0.90463731  0.29952073  0.86766411  1
  Mo  Mo164  1  0.90977457  0.28860834  0.12284458  1
  Mo  Mo165  1  -0.00644455  0.80079009  0.24031767  1
  Mo  Mo166  1  0.60330316  0.40092005  0.24248303  1
  Mo  Mo167  1  0.49863823  0.90612377  0.13580536  1
  Mo  Mo168  1  0.39722695  0.61222563  0.50075419  1
  Mo  Mo169  1  0.30230678  0.30905653  0.87931288  1
  Mo  Mo170  1  0.10732550  0.70423431  0.85944958  1
  Mo  Mo171  1  0.59471482  -0.00385609  0.49769105  1
  Mo  Mo172  1  0.79507529  0.18318980  0.25554643  1
  Mo  Mo173  1  0.19544413  0.41256254  0.00351287  1
  Mo  Mo174  1  0.30847456  0.89969266  0.39409643  1
  Mo  Mo175  1  0.40145693  0.40145501  0.49517161  1
  Mo  Mo176  1  0.10305726  0.89685625  0.37000252  1
  Mo  Mo177  1  0.19841439  0.40337696  0.50269323  1
  Mo  Mo178  1  0.67724519  0.47538696  0.37152568  1
  Mo  Mo179  1  0.58854953  0.39106136  0.00021557  1
  Mo  Mo180  1  0.59359616  0.60025721  0.75623442  1
  Mo  Mo181  1  0.70454146  0.88910561  0.36863795  1
  Mo  Mo182  1  0.90248404  0.49201427  0.11352591  1
  Mo  Mo183  1  0.69233679  0.68311904  0.12393063  1
  Mo  Mo184  1  0.10562315  0.11039072  0.37232729  1
  Mo  Mo185  1  0.09652997  0.31637128  0.87051696  1
  Mo  Mo186  1  0.00440785  0.79608286  0.75245614  1
  Mo  Mo187  1  0.69681029  0.28142614  0.11576262  1
  Mo  Mo188  1  0.71661556  0.69404221  0.62173000  1
  Mo  Mo189  1  0.50823298  0.10713039  0.36491412  1
  Mo  Mo190  1  0.00067020  0.60129152  0.74256420  1
  Mo  Mo191  1  0.79571197  0.60099733  0.01437757  1
  Mo  Mo192  1  0.50083227  0.29241256  0.61753590  1
  Mo  Mo193  1  0.20890234  0.79767777  0.25297556  1
  Mo  Mo194  1  0.21352716  0.40327609  0.25277967  1
  Mo  Mo195  1  0.71639563  0.89419670  0.62827286  1
  Mo  Mo196  1  0.50791389  0.69322958  0.63275825  1
  Mo  Mo197  1  0.59991610  -0.00283893  0.75258434  1
  Mo  Mo198  1  0.79494125  0.18469624  -0.00528155  1
  Mo  Mo199  1  0.50009542  0.50493811  0.37973550  1
