# generated using pymatgen
data_HfZrTaTiMo
_symmetry_space_group_name_H-M   'P 1'
_cell_length_a   15.20978060
_cell_length_b   15.20547516
_cell_length_c   16.85975505
_cell_angle_alpha   89.98806082
_cell_angle_beta   89.95566390
_cell_angle_gamma   89.89490398
_symmetry_Int_Tables_number   1
_chemical_formula_structural   HfZrTaTiMo
_chemical_formula_sum   'Hf40 Zr40 Ta40 Ti40 Mo40'
_cell_volume   3899.18046595
_cell_formula_units_Z   40
loop_
 _symmetry_equiv_pos_site_id
 _symmetry_equiv_pos_as_xyz
  1  'x, y, z'
loop_
 _atom_site_type_symbol
 _atom_site_label
 _atom_site_symmetry_multiplicity
 _atom_site_fract_x
 _atom_site_fract_y
 _atom_site_fract_z
 _atom_site_occupancy
  Hf  Hf0  1  0.00755458  0.80974498  0.50277241  1
  Hf  Hf1  1  0.29299508  0.89752703  0.64718729  1
  Hf  Hf2  1  0.70852462  0.89014884  0.62008613  1
  Hf  Hf3  1  0.00512338  0.60315276  0.00466583  1
  Hf  Hf4  1  0.59372614  0.79408939  0.25861678  1
  Hf  Hf5  1  0.50014838  0.89333677  0.11669398  1
  Hf  Hf6  1  0.61677629  0.19847267  0.25288208  1
  Hf  Hf7  1  0.70693093  0.90044819  0.13448280  1
  Hf  Hf8  1  0.80547960  0.81315901  -0.00216104  1
  Hf  Hf9  1  0.29976410  0.90861458  0.10498060  1
  Hf  Hf10  1  0.70132673  0.10664762  0.11222501  1
  Hf  Hf11  1  0.49308101  0.50385295  0.13227795  1
  Hf  Hf12  1  0.81409222  0.38682040  0.76368111  1
  Hf  Hf13  1  0.71189310  0.29769741  0.38592191  1
  Hf  Hf14  1  0.31339701  0.08909720  0.62540477  1
  Hf  Hf15  1  0.80748340  0.01888100  0.25342655  1
  Hf  Hf16  1  0.59181504  0.19613753  0.74462518  1
  Hf  Hf17  1  0.51853674  0.09235834  0.37981665  1
  Hf  Hf18  1  0.79356430  0.61209316  -0.01190232  1
  Hf  Hf19  1  0.80279521  0.40542989  -0.01881407  1
  Hf  Hf20  1  0.29178374  0.67974168  0.87102304  1
  Hf  Hf21  1  0.09986121  0.50393705  0.35341985  1
  Hf  Hf22  1  0.80766210  0.41585343  0.50904193  1
  Hf  Hf23  1  0.11240345  0.10828261  0.61886272  1
  Hf  Hf24  1  0.08404094  0.70384419  0.63456659  1
  Hf  Hf25  1  0.29712866  0.29608366  0.12438900  1
  Hf  Hf26  1  0.92058986  0.50930573  0.86357891  1
  Hf  Hf27  1  0.60855775  0.79193925  0.00152939  1
  Hf  Hf28  1  0.28771207  0.50815865  0.13920142  1
  Hf  Hf29  1  0.18790326  0.39237016  0.51392692  1
  Hf  Hf30  1  -0.01991380  0.60665895  0.49611522  1
  Hf  Hf31  1  0.68550350  0.51072339  0.85658754  1
  Hf  Hf32  1  0.49045821  0.09299201  0.10012136  1
  Hf  Hf33  1  0.50939305  0.10680561  0.88633817  1
  Hf  Hf34  1  0.39530538  0.39989895  0.51346727  1
  Hf  Hf35  1  0.80405792  0.78428514  0.48642871  1
  Hf  Hf36  1  0.88676624  0.50562008  0.36951496  1
  Hf  Hf37  1  0.40095553  0.39398462  0.25399308  1
  Hf  Hf38  1  0.39960308  -0.01026274  0.25647474  1
  Hf  Hf39  1  0.18790368  0.57977464  0.73896954  1
  Zr  Zr40  1  0.28141289  0.70749880  0.38265437  1
  Zr  Zr41  1  0.51369512  0.89528844  0.87058921  1
  Zr  Zr42  1  0.68508566  0.28589550  0.87701974  1
  Zr  Zr43  1  0.10945896  0.89935131  0.36600228  1
  Zr  Zr44  1  0.70830645  0.51114746  0.64812932  1
  Zr  Zr45  1  0.68681748  0.50790288  0.11171408  1
  Zr  Zr46  1  0.00313781  0.17207903  0.23787753  1
  Zr  Zr47  1  0.71743590  0.08985780  0.62201225  1
  Zr  Zr48  1  0.49252844  0.70013752  0.38281733  1
  Zr  Zr49  1  0.68634884  0.71885826  0.85654006  1
  Zr  Zr50  1  0.80763467  0.78809847  0.26061178  1
  Zr  Zr51  1  0.19845498  0.01181313  0.24450454  1
  Zr  Zr52  1  0.20203639  0.40419866  -0.00104489  1
  Zr  Zr53  1  -0.00575021  0.39230861  0.01127738  1
  Zr  Zr54  1  0.58174943  0.40732766  -0.01725112  1
  Zr  Zr55  1  0.69326179  0.91383934  0.37259769  1
  Zr  Zr56  1  0.40415277  0.78718702  -0.01571686  1
  Zr  Zr57  1  0.50612276  0.29763821  0.37899952  1
  Zr  Zr58  1  0.59115609  0.79995886  0.50270843  1
  Zr  Zr59  1  0.60042004  0.39695470  0.51594034  1
  Zr  Zr60  1  0.29225704  0.28153380  0.62613293  1
  Zr  Zr61  1  0.30010783  0.70097386  0.11817259  1
  Zr  Zr62  1  0.91901100  0.51092268  0.64541802  1
  Zr  Zr63  1  0.50992744  0.50807849  0.38258102  1
  Zr  Zr64  1  0.29684201  0.50264852  0.36830511  1
  Zr  Zr65  1  0.09976236  0.70102949  0.12481425  1
  Zr  Zr66  1  0.30020627  0.69815940  0.62825986  1
  Zr  Zr67  1  0.09763031  0.29495140  0.37056463  1
  Zr  Zr68  1  0.19448083  0.18305312  0.76652796  1
  Zr  Zr69  1  0.29534016  0.29265705  0.37984698  1
  Zr  Zr70  1  0.70471047  0.30651140  0.11144182  1
  Zr  Zr71  1  0.20368683  -0.02871698  0.50349045  1
  Zr  Zr72  1  0.50714458  0.29482636  0.11861050  1
  Zr  Zr73  1  0.00536171  0.01831845  0.74745461  1
  Zr  Zr74  1  -0.00560005  0.01039347  0.50735691  1
  Zr  Zr75  1  -0.01206751  0.38309595  0.23644381  1
  Zr  Zr76  1  0.18773367  0.59435972  0.51129589  1
  Zr  Zr77  1  0.70797108  0.29682359  0.62940915  1
  Zr  Zr78  1  0.40200531  0.18427467  0.24788286  1
  Zr  Zr79  1  0.81263084  0.18174630  0.75703102  1
  Ta  Ta80  1  0.09045657  0.69590286  0.87192912  1
  Ta  Ta81  1  0.50120152  0.69100878  0.12834129  1
  Ta  Ta82  1  0.57790309  0.39975731  0.74482274  1
  Ta  Ta83  1  0.90329863  0.71662865  0.87005095  1
  Ta  Ta84  1  0.78126339  0.58944979  0.24716391  1
  Ta  Ta85  1  0.08860962  0.29238294  0.88378560  1
  Ta  Ta86  1  0.39191985  0.21343644  -0.01498298  1
  Ta  Ta87  1  0.09733526  0.90726518  0.87275423  1
  Ta  Ta88  1  0.41141294  0.19142594  0.50380398  1
  Ta  Ta89  1  0.18894075  0.79670481  -0.01546416  1
  Ta  Ta90  1  0.91206181  0.90886590  0.13273100  1
  Ta  Ta91  1  0.29864216  0.89976444  0.87022566  1
  Ta  Ta92  1  0.81236770  0.21036775  0.24671151  1
  Ta  Ta93  1  0.29804167  0.09373724  0.38857951  1
  Ta  Ta94  1  0.41196535  -0.00899739  0.49611675  1
  Ta  Ta95  1  0.20777816  0.80368045  0.24527308  1
  Ta  Ta96  1  0.10105858  0.90177931  0.12159377  1
  Ta  Ta97  1  0.81823625  0.20231291  -0.00703577  1
  Ta  Ta98  1  0.79506236  0.39724086  0.24831013  1
  Ta  Ta99  1  0.61830776  -0.00620071  0.75316352  1
  Ta  Ta100  1  0.61219570  0.41247732  0.25721445  1
  Ta  Ta101  1  -0.00095995  -0.00027466  -0.00240300  1
  Ta  Ta102  1  0.20278818  0.19943404  0.24508652  1
  Ta  Ta103  1  0.30866147  0.47594065  0.85872660  1
  Ta  Ta104  1  0.90927029  0.90492317  0.36680343  1
  Ta  Ta105  1  0.69466879  0.69645860  0.12833328  1
  Ta  Ta106  1  0.39474299  0.58274969  -0.00996807  1
  Ta  Ta107  1  0.49561698  0.90311038  0.63851783  1
  Ta  Ta108  1  0.38522994  0.81089531  0.50381438  1
  Ta  Ta109  1  -0.01917062  0.61043946  0.24453257  1
  Ta  Ta110  1  0.41181678  0.78743281  0.75706748  1
  Ta  Ta111  1  0.88865061  0.50582960  0.12642301  1
  Ta  Ta112  1  0.40054651  0.58806086  0.74458608  1
  Ta  Ta113  1  0.49385089  0.50227712  0.62700231  1
  Ta  Ta114  1  0.61451422  0.60422347  0.52056304  1
  Ta  Ta115  1  0.29411924  0.09130104  0.89250476  1
  Ta  Ta116  1  0.40451966  0.00799557  0.76404408  1
  Ta  Ta117  1  0.09853821  0.50103183  0.14093236  1
  Ta  Ta118  1  0.19061828  0.79904259  0.76282050  1
  Ta  Ta119  1  0.60018270  0.00031922  0.50668981  1
  Ti  Ti120  1  0.00317688  0.21937866  0.74833922  1
  Ti  Ti121  1  0.39369579  0.40315222  -0.00083770  1
  Ti  Ti122  1  0.91681245  0.30381936  0.62636561  1
  Ti  Ti123  1  0.80727310  0.61899944  0.75883664  1
  Ti  Ti124  1  0.58237181  0.62194567  0.73370089  1
  Ti  Ti125  1  0.11210037  0.49975281  0.87648479  1
  Ti  Ti126  1  0.88104404  0.71386848  0.63487030  1
  Ti  Ti127  1  0.59586229  0.00326124  0.24389466  1
  Ti  Ti128  1  0.40436917  0.60370790  0.51440495  1
  Ti  Ti129  1  0.61279018  -0.00688213  -0.00418386  1
  Ti  Ti130  1  0.10431261  0.10296310  0.38382824  1
  Ti  Ti131  1  0.81172990  0.00431649  0.00371487  1
  Ti  Ti132  1  0.39576857  0.20531803  0.76098593  1
  Ti  Ti133  1  0.90445021  0.29921020  0.37902391  1
  Ti  Ti134  1  -0.00843565  0.81090225  0.75080478  1
  Ti  Ti135  1  0.92198107  0.11243664  0.88232457  1
  Ti  Ti136  1  0.39773128  0.80210344  0.25364593  1
  Ti  Ti137  1  0.10321896  0.09465645  0.10489518  1
  Ti  Ti138  1  0.00957324  0.21295916  0.50479940  1
  Ti  Ti139  1  0.10271785  0.28924328  0.11973412  1
  Ti  Ti140  1  0.90498001  0.10756933  0.37862328  1
  Ti  Ti141  1  0.29242970  0.10180345  0.09666050  1
  Ti  Ti142  1  0.19298546  0.38338319  0.74392744  1
  Ti  Ti143  1  0.00168545  0.40720253  0.50014166  1
  Ti  Ti144  1  0.39716362  0.61159083  0.25478446  1
  Ti  Ti145  1  0.60764113  0.19278477  0.50939592  1
  Ti  Ti146  1  0.80360254  0.00067123  0.48836249  1
  Ti  Ti147  1  0.08781716  0.70229334  0.36729871  1
  Ti  Ti148  1  0.89583536  0.91580390  0.87009083  1
  Ti  Ti149  1  0.00300395  0.80528494  0.24742653  1
  Ti  Ti150  1  0.81804283  0.19611494  0.50583472  1
  Ti  Ti151  1  0.79357472  0.82240559  0.75610692  1
  Ti  Ti152  1  0.71317717  0.08625160  0.88140233  1
  Ti  Ti153  1  -0.00264797  0.80798771  -0.00270440  1
  Ti  Ti154  1  0.89125449  0.70485469  0.12247999  1
  Ti  Ti155  1  0.58084789  0.60534564  -0.01441362  1
  Ti  Ti156  1  0.47787996  0.31615011  0.86809800  1
  Ti  Ti157  1  0.50345974  0.09663550  0.62792470  1
  Ti  Ti158  1  0.90171517  0.91624888  0.63020800  1
  Ti  Ti159  1  0.70035460  0.66926687  0.37676391  1
  Mo  Mo160  1  0.69809506  0.49672556  0.38096781  1
  Mo  Mo161  1  0.09977238  0.09680708  0.89169335  1
  Mo  Mo162  1  0.19430484  0.20043577  -0.00747081  1
  Mo  Mo163  1  0.79485844  0.60560876  0.50805328  1
  Mo  Mo164  1  0.70858973  0.91297971  0.87714966  1
  Mo  Mo165  1  0.00176233  -0.00432698  0.24851348  1
  Mo  Mo166  1  0.09343991  0.49233391  0.62737053  1
  Mo  Mo167  1  0.71513658  0.10705726  0.38972765  1
  Mo  Mo168  1  0.08833703  0.29927187  0.62561755  1
  Mo  Mo169  1  0.20123696  0.18789961  0.49717502  1
  Mo  Mo170  1  0.29914805  0.49128134  0.63434214  1
  Mo  Mo171  1  0.09614025  0.89539448  0.64399481  1
  Mo  Mo172  1  0.30782404  0.89737641  0.37370399  1
  Mo  Mo173  1  0.90088211  0.09707529  0.11492222  1
  Mo  Mo174  1  0.49666061  0.68598341  0.86834293  1
  Mo  Mo175  1  0.60503394  0.19381823  -0.00895203  1
  Mo  Mo176  1  0.81188700  -0.00262393  0.75406274  1
  Mo  Mo177  1  0.90887775  0.11502840  0.61861937  1
  Mo  Mo178  1  0.39994841  -0.00094063  -0.01587116  1
  Mo  Mo179  1  -0.00149428  0.19606421  0.01046128  1
  Mo  Mo180  1  0.70714519  0.70484325  0.63880614  1
  Mo  Mo181  1  0.19394550  -0.01012152  -0.00249814  1
  Mo  Mo182  1  0.20507342  -0.00556414  0.75930419  1
  Mo  Mo183  1  0.49544863  0.90079007  0.37585347  1
  Mo  Mo184  1  0.39218791  0.39181491  0.73380894  1
  Mo  Mo185  1  0.59618512  0.60200735  0.25018475  1
  Mo  Mo186  1  0.00044445  0.61674826  0.75765372  1
  Mo  Mo187  1  0.90303185  0.70152668  0.36746489  1
  Mo  Mo188  1  0.49198062  0.50472405  0.85902475  1
  Mo  Mo189  1  0.29362292  0.29691267  0.87088071  1
  Mo  Mo190  1  0.19495974  0.79482749  0.50663551  1
  Mo  Mo191  1  0.90739755  0.29893335  0.87343383  1
  Mo  Mo192  1  0.20147957  0.59448829  -0.00979935  1
  Mo  Mo193  1  0.02225102  0.40278073  0.75785186  1
  Mo  Mo194  1  0.89380685  0.29750567  0.12401591  1
  Mo  Mo195  1  0.49603533  0.70555098  0.61963418  1
  Mo  Mo196  1  0.59872914  0.80630666  0.73709646  1
  Mo  Mo197  1  0.49603643  0.28638716  0.62744622  1
  Mo  Mo198  1  0.19322714  0.39080015  0.23942698  1
  Mo  Mo199  1  0.18766701  0.60985572  0.25269786  1
