# generated using pymatgen
data_HfZrTaTiMo
_symmetry_space_group_name_H-M   'P 1'
_cell_length_a   15.21366435
_cell_length_b   15.21742454
_cell_length_c   16.87001593
_cell_angle_alpha   89.99789718
_cell_angle_beta   89.97523747
_cell_angle_gamma   89.90840029
_symmetry_Int_Tables_number   1
_chemical_formula_structural   HfZrTaTiMo
_chemical_formula_sum   'Hf40 Zr40 Ta40 Ti40 Mo40'
_cell_volume   3905.61908424
_cell_formula_units_Z   40
loop_
 _symmetry_equiv_pos_site_id
 _symmetry_equiv_pos_as_xyz
  1  'x, y, z'
loop_
 _atom_site_type_symbol
 _atom_site_label
 _atom_site_symmetry_multiplicity
 _atom_site_fract_x
 _atom_site_fract_y
 _atom_site_fract_z
 _atom_site_occupancy
  Hf  Hf0  1  0.60661910  0.79471542  0.25026530  1
  Hf  Hf1  1  -0.00331890  0.00404879  0.74846393  1
  Hf  Hf2  1  0.77905810  0.61383105  0.00089996  1
  Hf  Hf3  1  0.19932469  0.21380469  0.49390131  1
  Hf  Hf4  1  0.49054362  0.30701002  0.63014922  1
  Hf  Hf5  1  -0.01091959  0.21428363  0.75278481  1
  Hf  Hf6  1  0.08407417  0.71606710  0.36971847  1
  Hf  Hf7  1  0.81141372  0.37495315  0.75077752  1
  Hf  Hf8  1  0.51272827  0.89880361  0.37922332  1
  Hf  Hf9  1  0.61412001  0.00239226  0.23879290  1
  Hf  Hf10  1  0.80857876  0.18565509  0.50139573  1
  Hf  Hf11  1  0.49357431  0.50092001  0.63822125  1
  Hf  Hf12  1  0.00320330  -0.00105302  0.50048222  1
  Hf  Hf13  1  0.80061572  0.40819132  0.00373188  1
  Hf  Hf14  1  0.60800625  0.00091717  0.00496014  1
  Hf  Hf15  1  -0.01069096  0.81346004  0.22971766  1
  Hf  Hf16  1  -0.01507520  0.60923826  0.01295401  1
  Hf  Hf17  1  0.59545705  0.60064304  0.49553339  1
  Hf  Hf18  1  0.11830668  0.70953833  0.12025273  1
  Hf  Hf19  1  0.38772994  0.80825966  0.74640447  1
  Hf  Hf20  1  0.59560140  0.41954246  -0.00219534  1
  Hf  Hf21  1  0.39219980  0.59797811  0.27140350  1
  Hf  Hf22  1  0.90592620  0.28934651  0.36971859  1
  Hf  Hf23  1  0.49336752  0.49841300  0.13516662  1
  Hf  Hf24  1  0.30235528  0.30142818  0.11297520  1
  Hf  Hf25  1  0.09113095  0.51663215  0.62528843  1
  Hf  Hf26  1  0.18003235  0.60898940  0.75879295  1
  Hf  Hf27  1  0.11150080  0.31655437  0.36696624  1
  Hf  Hf28  1  0.01755255  0.79208843  0.75595142  1
  Hf  Hf29  1  0.30148092  0.09224536  0.13055938  1
  Hf  Hf30  1  0.00988345  0.41563733  0.75718008  1
  Hf  Hf31  1  0.61555338  0.19734152  0.73884099  1
  Hf  Hf32  1  0.20650183  0.20968676  0.25086966  1
  Hf  Hf33  1  0.90773479  0.30296547  0.12430170  1
  Hf  Hf34  1  0.70032233  0.49672092  0.63837952  1
  Hf  Hf35  1  0.39299218  0.59186394  0.48575876  1
  Hf  Hf36  1  0.10001537  0.49207086  0.11714151  1
  Hf  Hf37  1  0.10361874  0.09184403  0.87389126  1
  Hf  Hf38  1  0.80238141  0.80963358  0.75166198  1
  Hf  Hf39  1  0.28491859  0.08815669  0.63021537  1
  Zr  Zr40  1  0.12895189  0.90721190  0.63512718  1
  Zr  Zr41  1  0.59069739  0.20640472  -0.00388177  1
  Zr  Zr42  1  0.00118303  0.19306934  0.00952358  1
  Zr  Zr43  1  0.49740410  0.10805520  0.12384192  1
  Zr  Zr44  1  0.59476234  0.79760249  0.74834870  1
  Zr  Zr45  1  0.68743032  0.30519076  0.12592090  1
  Zr  Zr46  1  0.49684993  0.51922498  0.85416878  1
  Zr  Zr47  1  0.90732608  0.68710726  0.63768847  1
  Zr  Zr48  1  0.79435234  0.40160791  0.25161115  1
  Zr  Zr49  1  0.49900566  0.29269877  0.37824988  1
  Zr  Zr50  1  0.19128755  0.58980906  0.48859620  1
  Zr  Zr51  1  0.48948604  0.10025629  0.87065277  1
  Zr  Zr52  1  0.69764248  0.09157728  0.37893337  1
  Zr  Zr53  1  0.29702047  0.88781304  0.12115709  1
  Zr  Zr54  1  0.49141787  0.70130130  0.62231982  1
  Zr  Zr55  1  0.60272696  -0.01032055  0.74876844  1
  Zr  Zr56  1  0.69585463  0.49745516  0.85715671  1
  Zr  Zr57  1  0.31092168  0.29040743  0.88727859  1
  Zr  Zr58  1  0.79647082  0.18672507  0.24866272  1
  Zr  Zr59  1  0.00735336  0.41267950  0.49069077  1
  Zr  Zr60  1  0.59025710  0.60463682  0.25902293  1
  Zr  Zr61  1  0.30201839  0.89590132  0.88753358  1
  Zr  Zr62  1  0.39496271  0.19131520  0.50207414  1
  Zr  Zr63  1  0.81610756  0.79630917  0.50734634  1
  Zr  Zr64  1  0.50760163  0.31543360  0.85245356  1
  Zr  Zr65  1  0.29423878  0.50208739  0.13444141  1
  Zr  Zr66  1  0.28289015  0.70308281  0.61926646  1
  Zr  Zr67  1  0.19667942  0.19980422  0.75098410  1
  Zr  Zr68  1  0.88882418  0.11116351  0.87387652  1
  Zr  Zr69  1  0.49747034  0.08885079  0.62942604  1
  Zr  Zr70  1  -0.00689214  0.60883105  0.23632159  1
  Zr  Zr71  1  0.72153735  0.87422585  0.11542694  1
  Zr  Zr72  1  0.69942780  0.49734047  0.36786563  1
  Zr  Zr73  1  0.10868800  0.30907432  0.89775899  1
  Zr  Zr74  1  0.50097864  0.88495417  0.11690170  1
  Zr  Zr75  1  0.81328587  -0.00149320  0.00502654  1
  Zr  Zr76  1  0.20044456  0.01197915  0.48327979  1
  Zr  Zr77  1  0.91450512  0.29681161  0.61360320  1
  Zr  Zr78  1  0.71781541  0.28499836  0.87423586  1
  Zr  Zr79  1  0.79943873  0.59310223  0.50079802  1
  Ta  Ta80  1  0.11813353  0.31622951  0.62287590  1
  Ta  Ta81  1  0.90665680  0.09167387  0.13803933  1
  Ta  Ta82  1  0.69562723  0.70890779  0.38135583  1
  Ta  Ta83  1  0.40031865  -0.01151341  0.49907303  1
  Ta  Ta84  1  0.70929429  0.89431229  0.88373360  1
  Ta  Ta85  1  0.19727009  0.81217497  0.48641260  1
  Ta  Ta86  1  -0.00564301  0.81052047  0.01073722  1
  Ta  Ta87  1  -0.01016724  0.61276820  0.48778116  1
  Ta  Ta88  1  0.57835037  0.62255769  0.00473069  1
  Ta  Ta89  1  0.20723135  0.40426811  0.75867817  1
  Ta  Ta90  1  0.21222397  0.60550996  -0.00367704  1
  Ta  Ta91  1  0.59798724  0.20612775  0.25098055  1
  Ta  Ta92  1  0.59667890  0.39817032  0.50606512  1
  Ta  Ta93  1  0.91144918  0.90017606  0.62720094  1
  Ta  Ta94  1  0.09860998  0.70617684  0.89416794  1
  Ta  Ta95  1  0.60379699  0.19656735  0.50948339  1
  Ta  Ta96  1  0.28965239  0.70318685  0.37427130  1
  Ta  Ta97  1  0.70242483  0.08964622  0.86957733  1
  Ta  Ta98  1  0.69148435  0.51136111  0.13273155  1
  Ta  Ta99  1  0.08306125  0.10185167  0.35285103  1
  Ta  Ta100  1  0.20237866  0.80933008  0.25688806  1
  Ta  Ta101  1  0.19553373  -0.00470798  0.00554268  1
  Ta  Ta102  1  0.69373735  0.29783326  0.38316102  1
  Ta  Ta103  1  0.41077696  0.77302579  -0.00374435  1
  Ta  Ta104  1  0.91798801  0.90137692  0.37445605  1
  Ta  Ta105  1  0.29153413  0.48555244  0.62842368  1
  Ta  Ta106  1  0.89762416  0.70536025  0.87570103  1
  Ta  Ta107  1  0.60414030  0.80456612  0.50701086  1
  Ta  Ta108  1  0.09853001  0.50543353  0.89660649  1
  Ta  Ta109  1  0.40485544  0.79303989  0.26121127  1
  Ta  Ta110  1  0.70400726  0.29777622  0.61723908  1
  Ta  Ta111  1  0.37805418  0.39598055  0.49295557  1
  Ta  Ta112  1  0.40231518  -0.00680092  0.25512355  1
  Ta  Ta113  1  0.10300776  0.09086864  0.14408087  1
  Ta  Ta114  1  0.79832847  0.39557476  0.49462086  1
  Ta  Ta115  1  0.90543106  0.50641350  0.36367551  1
  Ta  Ta116  1  0.71675699  0.89508499  0.37876821  1
  Ta  Ta117  1  0.70620564  0.90663915  0.62051743  1
  Ta  Ta118  1  0.00969444  -0.00353565  0.00743762  1
  Ta  Ta119  1  0.88870070  0.50637362  0.13027715  1
  Ti  Ti120  1  0.80858045  -0.00333447  0.50070410  1
  Ti  Ti121  1  0.50694013  0.88937760  0.88809445  1
  Ti  Ti122  1  0.68323726  0.69926552  0.86903336  1
  Ti  Ti123  1  0.81512320  -0.01769520  0.24872399  1
  Ti  Ti124  1  0.89808326  0.49614874  0.62711078  1
  Ti  Ti125  1  0.30415169  0.10121381  0.36542168  1
  Ti  Ti126  1  0.29772954  0.09307013  0.87670232  1
  Ti  Ti127  1  0.40474223  0.19588406  0.25511694  1
  Ti  Ti128  1  0.80363656  0.60077076  0.75693470  1
  Ti  Ti129  1  0.39892852  0.79995563  0.49372102  1
  Ti  Ti130  1  0.30264509  0.90361880  0.36913290  1
  Ti  Ti131  1  0.49196304  0.30511427  0.13116382  1
  Ti  Ti132  1  0.10633852  0.51248923  0.35235650  1
  Ti  Ti133  1  0.10631527  0.30030019  0.12187194  1
  Ti  Ti134  1  0.90848412  0.90350273  0.87540204  1
  Ti  Ti135  1  0.49826777  0.48404796  0.37405314  1
  Ti  Ti136  1  0.91305350  0.31319153  0.89748473  1
  Ti  Ti137  1  0.69908376  0.69675948  0.63179116  1
  Ti  Ti138  1  0.38130085  0.60197640  0.74965909  1
  Ti  Ti139  1  0.31282114  0.69618301  0.13192786  1
  Ti  Ti140  1  0.60425778  -0.00055913  0.50779727  1
  Ti  Ti141  1  0.39069282  -0.00477007  0.74737621  1
  Ti  Ti142  1  0.90362801  0.50717385  0.87984569  1
  Ti  Ti143  1  0.39081319  0.20301033  0.74336285  1
  Ti  Ti144  1  0.10981854  0.89420748  0.87657775  1
  Ti  Ti145  1  0.29654546  0.49428431  0.87709636  1
  Ti  Ti146  1  0.29732489  0.69803702  0.87565225  1
  Ti  Ti147  1  0.00661956  0.19226354  0.49408173  1
  Ti  Ti148  1  0.40029430  0.00379872  -0.00039132  1
  Ti  Ti149  1  0.09205739  0.71302590  0.61106849  1
  Ti  Ti150  1  0.78905856  0.18931495  0.01710713  1
  Ti  Ti151  1  0.20471436  0.18712297  0.00777255  1
  Ti  Ti152  1  0.38726476  0.38751165  0.26186021  1
  Ti  Ti153  1  0.40287870  0.39983157  -0.00311097  1
  Ti  Ti154  1  0.79237105  0.62361314  0.24160993  1
  Ti  Ti155  1  0.00390544  0.39923196  0.24570501  1
  Ti  Ti156  1  0.39841206  0.59084500  -0.00333459  1
  Ti  Ti157  1  0.88841435  0.70745909  0.36860810  1
  Ti  Ti158  1  0.08829620  0.11277762  0.62824796  1
  Ti  Ti159  1  0.50149938  0.09347106  0.37602777  1
  Mo  Mo160  1  0.31150420  0.89838522  0.61584514  1
  Mo  Mo161  1  0.68908449  0.69735208  0.12302849  1
  Mo  Mo162  1  0.90313323  0.08851422  0.62392306  1
  Mo  Mo163  1  0.58831027  0.39357286  0.25116608  1
  Mo  Mo164  1  0.48685175  0.70345666  0.86794801  1
  Mo  Mo165  1  0.28657047  0.48612793  0.36256923  1
  Mo  Mo166  1  0.00591965  0.80506173  0.50225614  1
  Mo  Mo167  1  0.70567128  0.09700252  0.13113471  1
  Mo  Mo168  1  0.10807760  0.90803420  0.12408446  1
  Mo  Mo169  1  0.60544026  0.39449674  0.73546121  1
  Mo  Mo170  1  0.29586702  0.30286882  0.62906517  1
  Mo  Mo171  1  0.39624714  0.19453574  -0.00216161  1
  Mo  Mo172  1  0.19999334  0.61413334  0.25496007  1
  Mo  Mo173  1  0.90713488  0.90338363  0.12065233  1
  Mo  Mo174  1  0.20776368  0.40699248  -0.00405848  1
  Mo  Mo175  1  0.80072794  0.17298554  0.72560718  1
  Mo  Mo176  1  0.60458807  0.79272825  -0.01099381  1
  Mo  Mo177  1  0.20666695  -0.00224085  0.26210141  1
  Mo  Mo178  1  0.49701187  0.70694821  0.38905365  1
  Mo  Mo179  1  0.00307227  0.20594073  0.24045256  1
  Mo  Mo180  1  0.90186717  0.08819880  0.36595029  1
  Mo  Mo181  1  0.20151115  0.79460590  -0.00155196  1
  Mo  Mo182  1  0.30315179  0.29603570  0.37031539  1
  Mo  Mo183  1  0.20246314  0.40680322  0.49878238  1
  Mo  Mo184  1  0.87602755  0.71174674  0.11986176  1
  Mo  Mo185  1  -0.00654239  0.59982526  0.76886826  1
  Mo  Mo186  1  0.60409694  0.60818844  0.74267310  1
  Mo  Mo187  1  0.49746047  0.89784561  0.61065347  1
  Mo  Mo188  1  0.70675895  0.09184963  0.61551654  1
  Mo  Mo189  1  -0.00381833  0.41063003  0.00710344  1
  Mo  Mo190  1  0.48645854  0.69680591  0.12852829  1
  Mo  Mo191  1  0.80782145  0.79429909  -0.01645321  1
  Mo  Mo192  1  0.38674309  0.40383420  0.74991653  1
  Mo  Mo193  1  0.79995462  0.79875584  0.25892290  1
  Mo  Mo194  1  0.00115820  0.00137524  0.24918433  1
  Mo  Mo195  1  0.19894009  0.40568995  0.24517803  1
  Mo  Mo196  1  0.20233286  0.79568199  0.75844544  1
  Mo  Mo197  1  0.20688197  -0.01070860  0.75821907  1
  Mo  Mo198  1  0.10527907  0.90402847  0.36928933  1
  Mo  Mo199  1  0.80063967  -0.00422581  0.74815571  1
