# generated using pymatgen
data_HfZrTaTiMo
_symmetry_space_group_name_H-M   'P 1'
_cell_length_a   15.20766286
_cell_length_b   15.22755163
_cell_length_c   16.85983566
_cell_angle_alpha   90.00662497
_cell_angle_beta   90.01528327
_cell_angle_gamma   89.99588484
_symmetry_Int_Tables_number   1
_chemical_formula_structural   HfZrTaTiMo
_chemical_formula_sum   'Hf40 Zr40 Ta40 Ti40 Mo40'
_cell_volume   3904.32421595
_cell_formula_units_Z   40
loop_
 _symmetry_equiv_pos_site_id
 _symmetry_equiv_pos_as_xyz
  1  'x, y, z'
loop_
 _atom_site_type_symbol
 _atom_site_label
 _atom_site_symmetry_multiplicity
 _atom_site_fract_x
 _atom_site_fract_y
 _atom_site_fract_z
 _atom_site_occupancy
  Hf  Hf0  1  0.60317871  0.80187127  0.49224323  1
  Hf  Hf1  1  0.09512358  0.51484541  0.13992491  1
  Hf  Hf2  1  0.31101874  0.30091011  0.62218282  1
  Hf  Hf3  1  0.80308397  0.81195114  -0.00620538  1
  Hf  Hf4  1  0.59426830  0.38701720  0.75453487  1
  Hf  Hf5  1  0.31052399  0.89245229  0.87858319  1
  Hf  Hf6  1  0.90466985  0.49247149  0.86535963  1
  Hf  Hf7  1  0.48803262  0.68861491  0.12688986  1
  Hf  Hf8  1  0.21479385  0.20420608  0.01270468  1
  Hf  Hf9  1  0.21517592  0.21220901  0.23621603  1
  Hf  Hf10  1  0.29894685  0.28495709  0.86887590  1
  Hf  Hf11  1  0.00291688  0.80719510  0.77449790  1
  Hf  Hf12  1  0.28724893  0.49497189  0.86738402  1
  Hf  Hf13  1  0.40883283  0.39281684  0.47668973  1
  Hf  Hf14  1  0.69025550  0.70133480  0.11112199  1
  Hf  Hf15  1  0.40240951  0.59861332  0.74565184  1
  Hf  Hf16  1  0.10489434  0.28581328  0.37798089  1
  Hf  Hf17  1  0.19740907  0.41077801  0.00881885  1
  Hf  Hf18  1  0.00257217  0.19529620  0.51598351  1
  Hf  Hf19  1  0.91692315  0.70729555  0.10956455  1
  Hf  Hf20  1  0.38217522  0.39629684  0.27020761  1
  Hf  Hf21  1  0.90058303  0.50048504  0.13307107  1
  Hf  Hf22  1  0.29168589  0.89364878  0.37309390  1
  Hf  Hf23  1  0.40997140  0.19690982  0.27016811  1
  Hf  Hf24  1  0.59859936  0.59215931  0.48617269  1
  Hf  Hf25  1  0.50722512  0.48538853  0.62085757  1
  Hf  Hf26  1  0.53159969  0.09170009  0.87521952  1
  Hf  Hf27  1  0.80400309  0.61604266  0.24383611  1
  Hf  Hf28  1  0.19063079  0.00672026  0.24417262  1
  Hf  Hf29  1  0.19285057  0.00781331  0.50008786  1
  Hf  Hf30  1  0.30230498  0.49982677  0.62173512  1
  Hf  Hf31  1  0.79690952  -0.00021309  0.74954127  1
  Hf  Hf32  1  0.68597711  0.91956145  0.88183412  1
  Hf  Hf33  1  0.39069570  0.79319504  0.50806350  1
  Hf  Hf34  1  0.00081994  0.40762560  0.00237246  1
  Hf  Hf35  1  -0.00975585  0.61459195  0.50512022  1
  Hf  Hf36  1  0.40207796  0.18772742  0.48646757  1
  Hf  Hf37  1  0.20918507  0.60753508  0.26294364  1
  Hf  Hf38  1  0.09586475  0.89607323  0.10944285  1
  Hf  Hf39  1  0.79965216  0.39877395  0.74339667  1
  Zr  Zr40  1  0.49094322  0.89918892  0.14134347  1
  Zr  Zr41  1  0.29602131  0.91610777  0.62747924  1
  Zr  Zr42  1  0.91291346  0.09585839  0.38094569  1
  Zr  Zr43  1  0.20185620  0.61021591  0.49664097  1
  Zr  Zr44  1  0.68358767  0.70039652  0.89623326  1
  Zr  Zr45  1  0.41131114  0.18814234  0.75256631  1
  Zr  Zr46  1  0.69907005  0.69313648  0.62833590  1
  Zr  Zr47  1  0.69475350  0.29308666  0.13245945  1
  Zr  Zr48  1  0.49767116  0.89499145  0.35888229  1
  Zr  Zr49  1  0.10266902  0.48974284  0.37025751  1
  Zr  Zr50  1  0.09587719  0.31205110  0.86971597  1
  Zr  Zr51  1  -0.01156072  0.20013642  0.01177778  1
  Zr  Zr52  1  0.68914559  0.11060475  0.36269485  1
  Zr  Zr53  1  0.90627262  0.50986877  0.36636829  1
  Zr  Zr54  1  0.31935299  0.09030092  0.11732155  1
  Zr  Zr55  1  0.51115480  0.90854955  0.62178758  1
  Zr  Zr56  1  0.81355709  0.20932574  0.25946647  1
  Zr  Zr57  1  0.70419202  0.70759608  0.36612372  1
  Zr  Zr58  1  0.19348744  0.60194349  0.74173952  1
  Zr  Zr59  1  0.71113526  0.89179036  0.63020983  1
  Zr  Zr60  1  0.08504209  0.71180920  0.37617727  1
  Zr  Zr61  1  0.39117816  0.39135273  0.00155965  1
  Zr  Zr62  1  0.89264803  0.51301020  0.63356875  1
  Zr  Zr63  1  0.79543217  0.00307804  0.49846505  1
  Zr  Zr64  1  0.40066459  0.79268478  0.73908376  1
  Zr  Zr65  1  0.80642058  0.59419119  -0.00617006  1
  Zr  Zr66  1  0.39947561  0.59867421  0.48301134  1
  Zr  Zr67  1  0.01352463  0.18862246  0.24098064  1
  Zr  Zr68  1  0.89150050  0.11658827  0.86764757  1
  Zr  Zr69  1  0.19222017  0.20750688  0.73253903  1
  Zr  Zr70  1  0.68580653  0.49784889  0.12475802  1
  Zr  Zr71  1  0.70051602  0.27485092  0.87166936  1
  Zr  Zr72  1  0.49240797  0.70292902  0.88917462  1
  Zr  Zr73  1  0.82143714  0.79869448  0.49392651  1
  Zr  Zr74  1  0.20831233  0.00794389  0.76527910  1
  Zr  Zr75  1  0.09934675  0.10515115  0.88227637  1
  Zr  Zr76  1  0.58598500  0.37967208  -0.00561478  1
  Zr  Zr77  1  0.80203320  0.38436805  -0.00189275  1
  Zr  Zr78  1  0.89627060  0.71594949  0.64462661  1
  Zr  Zr79  1  0.67102352  0.10108741  0.62227381  1
  Ta  Ta80  1  0.58547124  0.00768032  0.48492307  1
  Ta  Ta81  1  0.29950527  0.50380619  0.13540710  1
  Ta  Ta82  1  0.19761927  0.79964641  0.75174241  1
  Ta  Ta83  1  0.08869904  0.91065795  0.37341431  1
  Ta  Ta84  1  0.60401510  0.80143519  0.75843280  1
  Ta  Ta85  1  0.41556985  -0.00331249  0.76025219  1
  Ta  Ta86  1  0.59840160  0.59643494  0.75363117  1
  Ta  Ta87  1  0.49767700  0.49949309  0.87755336  1
  Ta  Ta88  1  0.79581765  0.59878802  0.49250490  1
  Ta  Ta89  1  0.29337218  0.69596324  0.87861704  1
  Ta  Ta90  1  0.79294992  0.20413720  0.72572945  1
  Ta  Ta91  1  0.19516833  0.80349029  0.24817533  1
  Ta  Ta92  1  0.59438086  0.59168695  0.25671032  1
  Ta  Ta93  1  0.79442340  0.02584460  0.00413283  1
  Ta  Ta94  1  0.70228937  0.90661299  0.36069755  1
  Ta  Ta95  1  0.40061853  0.39370956  0.75541962  1
  Ta  Ta96  1  0.20807890  -0.00852140  -0.00714325  1
  Ta  Ta97  1  0.70484937  0.49550255  0.36757035  1
  Ta  Ta98  1  0.79635274  0.21361899  0.50720548  1
  Ta  Ta99  1  0.70884052  0.09526866  0.14347491  1
  Ta  Ta100  1  -0.01143591  0.20984066  0.72431877  1
  Ta  Ta101  1  -0.00139711  -0.01304228  0.50752635  1
  Ta  Ta102  1  0.01554312  0.40178339  0.73209464  1
  Ta  Ta103  1  0.01526757  0.60636315  -0.02152583  1
  Ta  Ta104  1  0.59209836  0.38656231  0.26781847  1
  Ta  Ta105  1  0.89988996  0.91439507  0.11065646  1
  Ta  Ta106  1  0.20251488  0.19920338  0.51277470  1
  Ta  Ta107  1  0.69012733  0.49656427  0.87870658  1
  Ta  Ta108  1  -0.00548893  0.80059075  0.24254136  1
  Ta  Ta109  1  0.39913159  0.59644800  0.26587624  1
  Ta  Ta110  1  0.51741582  0.09881904  0.13573369  1
  Ta  Ta111  1  0.49198248  0.29069622  0.13612372  1
  Ta  Ta112  1  -0.00436085  -0.00790012  0.24296831  1
  Ta  Ta113  1  0.39102983  0.59034005  0.00436961  1
  Ta  Ta114  1  0.79299250  0.61372814  0.77187217  1
  Ta  Ta115  1  0.90422616  0.91828915  0.88590941  1
  Ta  Ta116  1  0.11274513  0.70518264  0.12075464  1
  Ta  Ta117  1  -0.00120132  0.39880096  0.51305928  1
  Ta  Ta118  1  0.00332661  0.60620180  0.76731007  1
  Ta  Ta119  1  0.42430600  0.19539548  -0.00592709  1
  Ti  Ti120  1  0.79692375  0.40104774  0.25554992  1
  Ti  Ti121  1  -0.00052910  0.39162167  0.25086435  1
  Ti  Ti122  1  0.89468883  0.09395984  0.62348039  1
  Ti  Ti123  1  0.39250686  -0.00051262  0.25457206  1
  Ti  Ti124  1  0.60821291  0.39257647  0.47960460  1
  Ti  Ti125  1  0.18839600  0.80564979  0.50681934  1
  Ti  Ti126  1  0.00533084  0.00778127  0.75366206  1
  Ti  Ti127  1  0.69740136  0.50349155  0.62501962  1
  Ti  Ti128  1  0.10038559  0.09070442  0.63049497  1
  Ti  Ti129  1  0.90298534  0.29924669  0.86343061  1
  Ti  Ti130  1  0.90059317  0.30965598  0.38530768  1
  Ti  Ti131  1  0.90304923  0.88989340  0.37029239  1
  Ti  Ti132  1  0.42099997  -0.00716650  -0.00514726  1
  Ti  Ti133  1  0.60575378  0.79599238  0.24304677  1
  Ti  Ti134  1  0.61986250  0.17710993  0.00670691  1
  Ti  Ti135  1  0.58096524  0.82074041  0.00734895  1
  Ti  Ti136  1  0.20297811  0.39775862  0.49771895  1
  Ti  Ti137  1  0.80857923  -0.00373390  0.24896695  1
  Ti  Ti138  1  0.01525886  0.80272326  -0.02240522  1
  Ti  Ti139  1  0.10169295  0.50152087  0.61991672  1
  Ti  Ti140  1  0.90940804  0.90236093  0.63583373  1
  Ti  Ti141  1  0.38349765  0.79344060  0.00909270  1
  Ti  Ti142  1  0.28104994  0.10398765  0.37286430  1
  Ti  Ti143  1  0.20085016  0.60739427  0.00033264  1
  Ti  Ti144  1  0.50502783  0.69289676  0.62298009  1
  Ti  Ti145  1  0.10450389  0.31057938  0.13071695  1
  Ti  Ti146  1  0.69388966  0.30875263  0.61616316  1
  Ti  Ti147  1  0.59420506  0.20365336  0.48792369  1
  Ti  Ti148  1  0.09448187  0.89897155  0.63307729  1
  Ti  Ti149  1  0.09635469  0.70961850  0.62700225  1
  Ti  Ti150  1  0.89950488  0.29845580  0.13073631  1
  Ti  Ti151  1  0.69687670  0.90981655  0.12543108  1
  Ti  Ti152  1  0.49303104  0.48910728  0.13472061  1
  Ti  Ti153  1  0.39652403  0.00158692  0.49189981  1
  Ti  Ti154  1  0.80045905  0.40736881  0.50065465  1
  Ti  Ti155  1  0.50864426  0.28357421  0.62071165  1
  Ti  Ti156  1  0.49317449  0.70595094  0.36243370  1
  Ti  Ti157  1  0.29351681  0.88298267  0.12611510  1
  Ti  Ti158  1  0.80521410  0.81041322  0.23759988  1
  Ti  Ti159  1  0.09478209  0.09003699  0.10909466  1
  Mo  Mo160  1  0.10223419  0.31035398  0.61406916  1
  Mo  Mo161  1  0.10540705  0.90548717  0.88303675  1
  Mo  Mo162  1  0.89884426  0.70621717  0.87823234  1
  Mo  Mo163  1  0.49957536  0.29604830  0.87477798  1
  Mo  Mo164  1  0.20205967  0.40226920  0.73805655  1
  Mo  Mo165  1  0.11209156  0.70120388  0.87667828  1
  Mo  Mo166  1  0.90136033  0.70952837  0.36747519  1
  Mo  Mo167  1  0.89175218  0.30517326  0.61622533  1
  Mo  Mo168  1  0.38087267  0.78561635  0.24821876  1
  Mo  Mo169  1  0.28884744  0.70799418  0.62387020  1
  Mo  Mo170  1  0.48231859  0.09610309  0.61893947  1
  Mo  Mo171  1  0.00118616  0.61517044  0.24376102  1
  Mo  Mo172  1  0.51183994  0.28838879  0.37558934  1
  Mo  Mo173  1  0.71054664  0.10011536  0.86896951  1
  Mo  Mo174  1  0.31100022  0.30423674  0.12510455  1
  Mo  Mo175  1  0.30766003  0.09674644  0.62186761  1
  Mo  Mo176  1  0.20471719  0.79470936  -0.00130936  1
  Mo  Mo177  1  0.58172038  0.58000597  0.00602955  1
  Mo  Mo178  1  0.31817367  0.09136617  0.89998649  1
  Mo  Mo179  1  0.89938218  0.09468953  0.13003231  1
  Mo  Mo180  1  0.29561238  0.69259210  0.12506817  1
  Mo  Mo181  1  0.29950967  0.71129789  0.37260640  1
  Mo  Mo182  1  0.60144557  0.20052407  0.25149014  1
  Mo  Mo183  1  0.19468576  0.39735918  0.24218887  1
  Mo  Mo184  1  0.28636259  0.29700568  0.38632589  1
  Mo  Mo185  1  0.60293334  0.19792295  0.73838566  1
  Mo  Mo186  1  0.00813109  0.81230552  0.50821999  1
  Mo  Mo187  1  0.50713644  0.50039053  0.36708171  1
  Mo  Mo188  1  0.50259513  0.89191839  0.87997127  1
  Mo  Mo189  1  0.49485541  0.08570369  0.36664095  1
  Mo  Mo190  1  0.60633617  -0.00625837  0.24699445  1
  Mo  Mo191  1  0.10115721  0.50051141  0.87006174  1
  Mo  Mo192  1  0.29469882  0.49717203  0.37792659  1
  Mo  Mo193  1  0.59269822  -0.00302150  0.74721363  1
  Mo  Mo194  1  -0.00287654  -0.00158016  -0.00269770  1
  Mo  Mo195  1  0.10224656  0.09283499  0.37677258  1
  Mo  Mo196  1  0.60377801  0.00359002  0.01703830  1
  Mo  Mo197  1  0.80101949  0.20227354  0.01030720  1
  Mo  Mo198  1  0.71131969  0.30625572  0.38344336  1
  Mo  Mo199  1  0.80092944  0.80203221  0.78080526  1
