# generated using pymatgen
data_HfZrTaTiMo
_symmetry_space_group_name_H-M   'P 1'
_cell_length_a   15.21798632
_cell_length_b   15.21112206
_cell_length_c   16.81076121
_cell_angle_alpha   89.99440860
_cell_angle_beta   90.01728388
_cell_angle_gamma   89.93303566
_symmetry_Int_Tables_number   1
_chemical_formula_structural   HfZrTaTiMo
_chemical_formula_sum   'Hf40 Zr40 Ta40 Ti40 Mo40'
_cell_volume   3891.39665737
_cell_formula_units_Z   40
loop_
 _symmetry_equiv_pos_site_id
 _symmetry_equiv_pos_as_xyz
  1  'x, y, z'
loop_
 _atom_site_type_symbol
 _atom_site_label
 _atom_site_symmetry_multiplicity
 _atom_site_fract_x
 _atom_site_fract_y
 _atom_site_fract_z
 _atom_site_occupancy
  Hf  Hf0  1  0.30393595  0.09347057  0.38949858  1
  Hf  Hf1  1  0.80599615  0.40395513  0.74334664  1
  Hf  Hf2  1  0.21128377  0.39456972  -0.00395954  1
  Hf  Hf3  1  0.29265765  0.69853900  0.37698706  1
  Hf  Hf4  1  0.49799573  0.89603466  0.62982364  1
  Hf  Hf5  1  0.70801525  0.28986407  0.85476235  1
  Hf  Hf6  1  0.09362751  0.11679180  0.63312569  1
  Hf  Hf7  1  0.29528073  0.10192562  0.10915126  1
  Hf  Hf8  1  0.90019920  0.30376378  0.36731686  1
  Hf  Hf9  1  0.80394676  0.20065587  0.50761060  1
  Hf  Hf10  1  0.89218106  0.51455140  0.87463124  1
  Hf  Hf11  1  0.40242108  0.39534641  0.51988506  1
  Hf  Hf12  1  -0.00160314  0.01094699  0.77033873  1
  Hf  Hf13  1  0.40354201  0.79692907  -0.00209596  1
  Hf  Hf14  1  -0.00737234  0.01455713  0.49899790  1
  Hf  Hf15  1  0.30885565  0.89059941  0.39348240  1
  Hf  Hf16  1  0.79790362  0.40749848  0.24868501  1
  Hf  Hf17  1  0.69214203  0.10787779  0.12429158  1
  Hf  Hf18  1  -0.00058693  0.59647059  0.49531270  1
  Hf  Hf19  1  0.20036387  0.60006519  0.00146110  1
  Hf  Hf20  1  0.39010783  -0.00184634  0.76160517  1
  Hf  Hf21  1  0.20274048  0.38049417  0.73162655  1
  Hf  Hf22  1  -0.00646867  0.80543980  0.50837259  1
  Hf  Hf23  1  0.49238683  0.47969042  0.13991904  1
  Hf  Hf24  1  0.89991047  0.50820986  0.63177866  1
  Hf  Hf25  1  0.00369112  0.80843214  0.75011653  1
  Hf  Hf26  1  0.69907557  0.49046023  0.88508558  1
  Hf  Hf27  1  0.49710247  0.69462062  0.14339637  1
  Hf  Hf28  1  0.49176901  0.50132026  0.86486978  1
  Hf  Hf29  1  0.90027360  0.70088622  0.11993993  1
  Hf  Hf30  1  0.89193327  0.90561244  0.62683340  1
  Hf  Hf31  1  0.09259974  0.08973652  0.11443330  1
  Hf  Hf32  1  0.91128448  0.91130766  0.12085493  1
  Hf  Hf33  1  0.49154637  0.90063821  0.12807745  1
  Hf  Hf34  1  -0.00367100  0.21046723  0.49584569  1
  Hf  Hf35  1  0.51181797  0.28544530  0.12892527  1
  Hf  Hf36  1  0.49239545  0.09267075  0.11203273  1
  Hf  Hf37  1  0.58658810  0.59183745  0.00545360  1
  Hf  Hf38  1  0.00087956  0.39329990  -0.01854580  1
  Hf  Hf39  1  0.19988038  0.20981755  0.50432739  1
  Zr  Zr40  1  0.70599438  0.09701461  0.36451315  1
  Zr  Zr41  1  0.79966023  0.78233952  0.75372398  1
  Zr  Zr42  1  0.20275182  0.19813193  0.25241782  1
  Zr  Zr43  1  0.40460744  0.18099283  0.25710014  1
  Zr  Zr44  1  0.59708533  0.39973321  0.72659514  1
  Zr  Zr45  1  0.09907919  0.70667489  0.38145627  1
  Zr  Zr46  1  0.20629572  -0.01445690  0.25159808  1
  Zr  Zr47  1  0.09609603  0.49765124  0.12076807  1
  Zr  Zr48  1  0.88629160  0.70377117  0.37452276  1
  Zr  Zr49  1  0.39058903  0.59338146  0.00815956  1
  Zr  Zr50  1  0.79163262  0.21688459  0.00247452  1
  Zr  Zr51  1  0.69582678  0.30853364  0.37705765  1
  Zr  Zr52  1  0.10979554  0.31262734  0.36736626  1
  Zr  Zr53  1  0.79105797  0.00532803  0.50645671  1
  Zr  Zr54  1  0.30891501  0.68916989  0.85985306  1
  Zr  Zr55  1  0.00030971  0.18931749  -0.01780827  1
  Zr  Zr56  1  0.49966472  0.09852077  0.64086248  1
  Zr  Zr57  1  0.11051399  0.70711800  0.86610096  1
  Zr  Zr58  1  0.20054383  0.59620370  0.73012061  1
  Zr  Zr59  1  0.59690189  0.60079900  0.49444904  1
  Zr  Zr60  1  -0.00144095  0.81035817  -0.01187865  1
  Zr  Zr61  1  0.80355761  0.80501378  0.24835774  1
  Zr  Zr62  1  0.01827153  0.80587600  0.25019844  1
  Zr  Zr63  1  0.49665918  0.29334763  0.85369678  1
  Zr  Zr64  1  0.48899501  0.71007797  0.36648128  1
  Zr  Zr65  1  0.49908817  0.48249441  0.37529352  1
  Zr  Zr66  1  0.37814634  0.57293234  0.25653937  1
  Zr  Zr67  1  0.59209962  -0.00451725  -0.01772132  1
  Zr  Zr68  1  0.71980190  0.69005537  0.89583961  1
  Zr  Zr69  1  0.61900064  0.60568453  0.74548420  1
  Zr  Zr70  1  0.60274694  0.19457196  0.51206695  1
  Zr  Zr71  1  0.90975468  0.29982003  0.13014364  1
  Zr  Zr72  1  0.29039217  0.71531741  0.14374771  1
  Zr  Zr73  1  0.70590897  0.90816254  0.12000117  1
  Zr  Zr74  1  0.79720053  -0.00908728  0.76516724  1
  Zr  Zr75  1  0.29522229  0.88997936  0.86903944  1
  Zr  Zr76  1  0.89664299  0.50333634  0.11371490  1
  Zr  Zr77  1  0.17441882  0.59783558  0.25252591  1
  Zr  Zr78  1  0.59963809  0.80234962  0.25187142  1
  Zr  Zr79  1  0.60499646  0.36974669  -0.00142544  1
  Ta  Ta80  1  0.19910724  0.40778780  0.51463935  1
  Ta  Ta81  1  0.20422749  0.80633701  0.72583657  1
  Ta  Ta82  1  0.39310477  0.40297021  0.72461752  1
  Ta  Ta83  1  0.10545831  0.91600353  0.62001086  1
  Ta  Ta84  1  0.59833084  0.79366741  0.00342191  1
  Ta  Ta85  1  0.89457353  0.09539987  0.12668678  1
  Ta  Ta86  1  0.80614038  0.40247403  0.50717916  1
  Ta  Ta87  1  0.31312178  0.30693415  0.12693173  1
  Ta  Ta88  1  0.50582844  0.70750029  0.62321331  1
  Ta  Ta89  1  0.00066352  0.21190064  0.76830992  1
  Ta  Ta90  1  0.70240961  0.69115466  0.11709112  1
  Ta  Ta91  1  0.40816949  0.60037302  0.73480938  1
  Ta  Ta92  1  0.50569314  0.70735961  0.86708052  1
  Ta  Ta93  1  0.40227198  0.39734698  -0.00424090  1
  Ta  Ta94  1  0.68844369  0.89507706  0.62672669  1
  Ta  Ta95  1  0.08985968  0.49827891  0.63017485  1
  Ta  Ta96  1  0.22047653  0.40851533  0.24737571  1
  Ta  Ta97  1  0.50154797  0.28902523  0.37726185  1
  Ta  Ta98  1  0.69395014  0.10472410  0.87109719  1
  Ta  Ta99  1  0.29362152  0.09203936  0.61796211  1
  Ta  Ta100  1  0.00188219  0.60564385  -0.01357863  1
  Ta  Ta101  1  0.70891929  0.50259564  0.38156654  1
  Ta  Ta102  1  0.59616645  -0.01132026  0.76919903  1
  Ta  Ta103  1  0.89609135  0.91603085  0.37321655  1
  Ta  Ta104  1  0.69715566  0.89941082  0.37213603  1
  Ta  Ta105  1  0.12774029  0.28762814  0.87165852  1
  Ta  Ta106  1  -0.00299627  0.00773641  0.25877996  1
  Ta  Ta107  1  0.19667816  0.59769633  0.51440522  1
  Ta  Ta108  1  0.10750316  0.90732168  0.39248717  1
  Ta  Ta109  1  0.69722112  0.48802878  0.11747896  1
  Ta  Ta110  1  0.91491753  0.30373648  0.63250350  1
  Ta  Ta111  1  0.70267949  0.70713429  0.61283316  1
  Ta  Ta112  1  0.30532733  0.90397791  0.61595265  1
  Ta  Ta113  1  0.81508089  0.00408125  -0.01745862  1
  Ta  Ta114  1  0.11274027  0.29417080  0.12554823  1
  Ta  Ta115  1  0.40567528  0.19905119  0.50712295  1
  Ta  Ta116  1  0.19819029  0.79460230  0.52150580  1
  Ta  Ta117  1  0.31222552  0.31271380  0.38138363  1
  Ta  Ta118  1  0.09799729  0.09866866  0.37753151  1
  Ta  Ta119  1  0.00260383  0.40633825  0.49716512  1
  Ti  Ti120  1  0.78937960  0.80535753  0.49645523  1
  Ti  Ti121  1  0.79237079  0.59985587  0.25045101  1
  Ti  Ti122  1  0.10728964  0.50218670  0.86698833  1
  Ti  Ti123  1  0.69945711  0.09041780  0.64710773  1
  Ti  Ti124  1  0.89707856  0.69912319  0.62245649  1
  Ti  Ti125  1  0.70616143  0.50927280  0.61526369  1
  Ti  Ti126  1  0.60831715  0.58528918  0.25227228  1
  Ti  Ti127  1  0.31385535  0.70451324  0.62130964  1
  Ti  Ti128  1  0.58561580  0.00706245  0.26002109  1
  Ti  Ti129  1  0.01185758  0.40941916  0.25440028  1
  Ti  Ti130  1  0.30010083  0.48576364  0.86215709  1
  Ti  Ti131  1  0.37520411  0.20699960  0.74164838  1
  Ti  Ti132  1  0.00715187  0.40238724  0.76244515  1
  Ti  Ti133  1  0.60569799  0.39058428  0.51725622  1
  Ti  Ti134  1  0.11142414  0.89996458  0.11566139  1
  Ti  Ti135  1  0.50256951  0.51192334  0.61793325  1
  Ti  Ti136  1  0.80214327  0.60123791  0.49536800  1
  Ti  Ti137  1  0.19664104  0.00694848  0.75060730  1
  Ti  Ti138  1  0.49473503  0.10556183  0.86865702  1
  Ti  Ti139  1  0.20467007  0.80166906  -0.00028105  1
  Ti  Ti140  1  0.39787700  0.21006176  -0.01204309  1
  Ti  Ti141  1  0.80406813  0.19619815  0.24431676  1
  Ti  Ti142  1  0.89492961  0.11004469  0.64082407  1
  Ti  Ti143  1  -0.01748580  0.59112923  0.26509108  1
  Ti  Ti144  1  0.41306180  -0.00126560  0.50165990  1
  Ti  Ti145  1  0.39182763  0.60038373  0.50080995  1
  Ti  Ti146  1  0.70744206  0.28540213  0.63708098  1
  Ti  Ti147  1  0.09545762  0.70631747  0.12043791  1
  Ti  Ti148  1  0.10817859  0.91335383  0.88081884  1
  Ti  Ti149  1  0.38985050  -0.00244975  -0.02067315  1
  Ti  Ti150  1  0.60378367  0.20403758  0.25642541  1
  Ti  Ti151  1  0.27756088  0.11696558  0.88396765  1
  Ti  Ti152  1  0.59177588  0.80845772  0.49126065  1
  Ti  Ti153  1  0.70142583  0.88662107  0.88740664  1
  Ti  Ti154  1  0.59932163  -0.00151010  0.49521731  1
  Ti  Ti155  1  -0.00700034  0.61169443  0.75310344  1
  Ti  Ti156  1  0.60038643  0.80130266  0.75580164  1
  Ti  Ti157  1  0.30036753  0.90854975  0.12002191  1
  Ti  Ti158  1  0.69412359  0.69922513  0.37699694  1
  Ti  Ti159  1  0.00175640  0.19764663  0.25054318  1
  Mo  Mo160  1  0.19820461  -0.00562881  -0.00333338  1
  Mo  Mo161  1  0.40401698  0.79353317  0.74191221  1
  Mo  Mo162  1  0.28602045  0.49286429  0.39314500  1
  Mo  Mo163  1  0.89597613  0.89651741  0.87923185  1
  Mo  Mo164  1  0.19633895  0.80880168  0.25117478  1
  Mo  Mo165  1  0.38714095  0.82453366  0.25206852  1
  Mo  Mo166  1  0.50269284  0.91240931  0.38012795  1
  Mo  Mo167  1  0.79947952  0.59582652  0.00954560  1
  Mo  Mo168  1  0.88833174  0.11241405  0.86895528  1
  Mo  Mo169  1  0.80190910  0.00581073  0.24888889  1
  Mo  Mo170  1  0.60423004  0.39785159  0.25251600  1
  Mo  Mo171  1  0.30284825  0.50646409  0.61830969  1
  Mo  Mo172  1  0.10042429  0.49793275  0.37825372  1
  Mo  Mo173  1  0.59202977  0.19124727  -0.00863257  1
  Mo  Mo174  1  0.60135087  0.18621266  0.74381361  1
  Mo  Mo175  1  0.30866730  0.30259415  0.86971172  1
  Mo  Mo176  1  0.40185300  -0.00740779  0.25413325  1
  Mo  Mo177  1  0.80860647  0.19645179  0.74513637  1
  Mo  Mo178  1  0.08955133  0.30778165  0.62726696  1
  Mo  Mo179  1  0.50269377  0.09649666  0.38403522  1
  Mo  Mo180  1  0.90398237  0.10587237  0.36385726  1
  Mo  Mo181  1  0.80229060  0.60208166  0.74163096  1
  Mo  Mo182  1  0.79523704  0.80487206  0.00738081  1
  Mo  Mo183  1  0.50010236  0.29538736  0.63514197  1
  Mo  Mo184  1  0.90683128  0.70141550  0.88001333  1
  Mo  Mo185  1  0.20664000  0.20430072  0.00511540  1
  Mo  Mo186  1  0.29739096  0.48999338  0.12348570  1
  Mo  Mo187  1  0.89683166  0.49707448  0.37581377  1
  Mo  Mo188  1  0.90503749  0.30947524  0.86688333  1
  Mo  Mo189  1  0.19756207  0.00188762  0.50546072  1
  Mo  Mo190  1  0.10602467  0.09847597  0.87600811  1
  Mo  Mo191  1  0.40514197  0.79141517  0.50765189  1
  Mo  Mo192  1  0.39956298  0.38090741  0.25778175  1
  Mo  Mo193  1  0.70048541  0.29972518  0.13739667  1
  Mo  Mo194  1  0.80135507  0.39704761  -0.00083130  1
  Mo  Mo195  1  0.49992021  0.89069584  0.87102715  1
  Mo  Mo196  1  0.09247107  0.70370575  0.62633014  1
  Mo  Mo197  1  0.20067817  0.18806463  0.74446422  1
  Mo  Mo198  1  -0.00093822  0.00344506  -0.01710748  1
  Mo  Mo199  1  0.29845536  0.28758516  0.61683247  1
