# generated using pymatgen
data_HfZrTaTiMo
_symmetry_space_group_name_H-M   'P 1'
_cell_length_a   15.20533275
_cell_length_b   15.22751126
_cell_length_c   16.82885916
_cell_angle_alpha   89.97012501
_cell_angle_beta   90.03897885
_cell_angle_gamma   89.86119981
_symmetry_Int_Tables_number   1
_chemical_formula_structural   HfZrTaTiMo
_chemical_formula_sum   'Hf40 Zr40 Ta40 Ti40 Mo40'
_cell_volume   3896.53067625
_cell_formula_units_Z   40
loop_
 _symmetry_equiv_pos_site_id
 _symmetry_equiv_pos_as_xyz
  1  'x, y, z'
loop_
 _atom_site_type_symbol
 _atom_site_label
 _atom_site_symmetry_multiplicity
 _atom_site_fract_x
 _atom_site_fract_y
 _atom_site_fract_z
 _atom_site_occupancy
  Hf  Hf0  1  0.60736645  0.79350817  0.26685535  1
  Hf  Hf1  1  0.38940661  0.40272274  0.24760236  1
  Hf  Hf2  1  0.69710077  0.50616641  0.34777609  1
  Hf  Hf3  1  0.68570958  0.30589436  0.88952395  1
  Hf  Hf4  1  0.78716057  0.21071559  0.51462341  1
  Hf  Hf5  1  0.18979813  0.39465088  0.24476062  1
  Hf  Hf6  1  0.59271698  0.00407246  0.49366295  1
  Hf  Hf7  1  0.09135187  0.48919410  0.12122241  1
  Hf  Hf8  1  0.79513732  0.01305317  0.24713402  1
  Hf  Hf9  1  0.79154510  0.40665281  0.49742641  1
  Hf  Hf10  1  0.21333873  0.79177562  0.01036199  1
  Hf  Hf11  1  0.29781356  0.89649314  0.61720654  1
  Hf  Hf12  1  0.00946127  0.80675789  0.75498111  1
  Hf  Hf13  1  0.39738439  0.20182113  0.00539498  1
  Hf  Hf14  1  0.10765677  0.70725034  0.63260900  1
  Hf  Hf15  1  0.39410060  0.00912606  0.48638183  1
  Hf  Hf16  1  0.71045568  0.90597384  0.38754043  1
  Hf  Hf17  1  0.60416064  0.58091748  0.75309644  1
  Hf  Hf18  1  0.39597247  0.20607120  0.75580444  1
  Hf  Hf19  1  0.60070322  0.78923689  0.74521127  1
  Hf  Hf20  1  0.30006584  0.30301887  0.88075266  1
  Hf  Hf21  1  0.02134178  0.00536318  0.51725437  1
  Hf  Hf22  1  0.51031040  0.11019606  0.87848044  1
  Hf  Hf23  1  0.80057292  0.80434021  0.74480525  1
  Hf  Hf24  1  0.80623448  0.01162659  0.73268879  1
  Hf  Hf25  1  0.89087071  0.51383327  0.11370974  1
  Hf  Hf26  1  0.89844588  0.92118541  0.87698361  1
  Hf  Hf27  1  0.72599652  0.10716518  0.87707765  1
  Hf  Hf28  1  0.40214636  0.40764540  0.01695105  1
  Hf  Hf29  1  0.10559679  0.68987596  0.12708584  1
  Hf  Hf30  1  0.60475838  0.19727819  0.01982199  1
  Hf  Hf31  1  0.51150424  0.69211142  0.61795461  1
  Hf  Hf32  1  0.09377822  0.50697822  0.64519341  1
  Hf  Hf33  1  0.31533294  0.89661123  0.13510428  1
  Hf  Hf34  1  0.40420141  0.19675596  0.24912600  1
  Hf  Hf35  1  -0.00542710  0.42360199  0.50365877  1
  Hf  Hf36  1  0.77989860  0.40278681  0.75479095  1
  Hf  Hf37  1  -0.00639333  0.01184401  0.01204665  1
  Hf  Hf38  1  0.30875383  0.69650902  0.61548700  1
  Hf  Hf39  1  -0.00123549  0.80667241  0.23002710  1
  Zr  Zr40  1  0.10660436  0.89474124  0.88082023  1
  Zr  Zr41  1  0.91115200  0.90824620  0.37923989  1
  Zr  Zr42  1  0.69398901  0.89550858  0.61324497  1
  Zr  Zr43  1  0.58569419  0.59487638  0.00794842  1
  Zr  Zr44  1  0.19506048  0.20098105  0.24797983  1
  Zr  Zr45  1  0.09316649  0.09325780  0.36112657  1
  Zr  Zr46  1  0.30021620  0.29312206  0.38940455  1
  Zr  Zr47  1  0.89391389  0.11562662  0.37925198  1
  Zr  Zr48  1  0.18609338  0.59238680  0.50255724  1
  Zr  Zr49  1  0.62190157  -0.01329638  0.01061909  1
  Zr  Zr50  1  0.19671018  0.00225095  0.00706598  1
  Zr  Zr51  1  -0.00017155  0.79969393  0.01124368  1
  Zr  Zr52  1  0.50735134  0.87967210  0.88161871  1
  Zr  Zr53  1  0.69303745  0.70832268  0.89065915  1
  Zr  Zr54  1  0.80085493  0.78497208  0.50265421  1
  Zr  Zr55  1  0.08509204  0.10476153  0.86375258  1
  Zr  Zr56  1  0.30383352  0.50513364  0.87302360  1
  Zr  Zr57  1  0.71970804  0.29802166  0.13163266  1
  Zr  Zr58  1  0.91193187  0.68471407  0.63411499  1
  Zr  Zr59  1  0.39788761  -0.00834283  0.75799492  1
  Zr  Zr60  1  0.39938980  -0.01016083  -0.00747548  1
  Zr  Zr61  1  0.19504672  -0.00567499  0.74459141  1
  Zr  Zr62  1  0.49187395  0.10089482  0.62687453  1
  Zr  Zr63  1  0.09602618  0.30400127  0.86241546  1
  Zr  Zr64  1  0.29331669  0.69676345  0.37250175  1
  Zr  Zr65  1  0.41012543  0.59187110  0.49065946  1
  Zr  Zr66  1  0.60188762  0.00208576  0.74804638  1
  Zr  Zr67  1  0.90729040  0.31680049  0.11024561  1
  Zr  Zr68  1  0.80067957  0.60262206  0.76196301  1
  Zr  Zr69  1  -0.01494032  0.21181060  0.52621085  1
  Zr  Zr70  1  0.49184362  0.08247198  0.12575891  1
  Zr  Zr71  1  0.19226324  0.18362995  0.51136523  1
  Zr  Zr72  1  0.70949164  0.30186493  0.35717591  1
  Zr  Zr73  1  0.59061122  -0.00800577  0.25536241  1
  Zr  Zr74  1  0.61636238  0.58269775  0.49528086  1
  Zr  Zr75  1  0.09289089  0.70101226  0.36422764  1
  Zr  Zr76  1  0.08960193  0.30331114  0.38744500  1
  Zr  Zr77  1  0.70587840  0.70205825  0.11894607  1
  Zr  Zr78  1  0.10453052  0.90411967  0.36154243  1
  Zr  Zr79  1  0.80616118  0.79372858  0.25207433  1
  Ta  Ta80  1  0.40645296  0.80184759  0.48014720  1
  Ta  Ta81  1  0.40493633  0.58986242  0.74312352  1
  Ta  Ta82  1  0.19793791  0.20303138  0.73577468  1
  Ta  Ta83  1  0.70646804  0.90430957  0.87325604  1
  Ta  Ta84  1  0.49133152  0.88856639  0.61544223  1
  Ta  Ta85  1  0.90762882  0.70678154  0.87876780  1
  Ta  Ta86  1  -0.01397316  0.21122273  0.24310430  1
  Ta  Ta87  1  0.29093667  0.29888283  0.11991885  1
  Ta  Ta88  1  0.60098731  0.21942182  0.75093556  1
  Ta  Ta89  1  0.00642306  0.79325798  0.50246628  1
  Ta  Ta90  1  0.79985255  0.21089837  0.73174964  1
  Ta  Ta91  1  0.88515118  0.91172131  0.12116050  1
  Ta  Ta92  1  0.48786607  0.67989088  0.87428661  1
  Ta  Ta93  1  0.59534326  0.78857004  0.48203202  1
  Ta  Ta94  1  0.48913333  0.29814653  0.61978844  1
  Ta  Ta95  1  0.41047795  0.80073788  0.26636891  1
  Ta  Ta96  1  0.29404513  0.90280099  0.36918746  1
  Ta  Ta97  1  0.29281305  0.49159283  0.38172935  1
  Ta  Ta98  1  0.88799161  0.29051683  0.87982630  1
  Ta  Ta99  1  0.69012750  0.11000618  0.37831913  1
  Ta  Ta100  1  -0.00967763  0.40458135  0.25521416  1
  Ta  Ta101  1  0.19487769  0.39647186  0.00513628  1
  Ta  Ta102  1  0.41757445  0.39471833  0.48942951  1
  Ta  Ta103  1  0.91094222  0.89610408  0.61825180  1
  Ta  Ta104  1  0.09353720  0.50652082  0.37028710  1
  Ta  Ta105  1  0.67674916  0.32480476  0.62205283  1
  Ta  Ta106  1  0.00124743  0.20403127  0.00166742  1
  Ta  Ta107  1  0.49465785  0.50974655  0.14815117  1
  Ta  Ta108  1  0.39994103  0.78557879  0.74985885  1
  Ta  Ta109  1  0.30815860  0.48616201  0.61973020  1
  Ta  Ta110  1  0.29178279  0.09669567  0.13136328  1
  Ta  Ta111  1  0.70022895  0.49978770  0.14095696  1
  Ta  Ta112  1  0.60769578  0.19053537  0.23849967  1
  Ta  Ta113  1  0.90058577  0.49557703  0.88161265  1
  Ta  Ta114  1  0.51343713  0.48102791  0.62373291  1
  Ta  Ta115  1  0.81495131  0.59148886  0.49830764  1
  Ta  Ta116  1  0.29036648  0.10285771  0.87500207  1
  Ta  Ta117  1  0.59452659  0.39828396  0.02652781  1
  Ta  Ta118  1  0.58246773  0.21273763  0.49233584  1
  Ta  Ta119  1  0.20525618  0.58702301  0.24651999  1
  Ti  Ti120  1  -0.01308209  0.20290249  0.73139114  1
  Ti  Ti121  1  0.88348655  0.11652840  0.12334119  1
  Ti  Ti122  1  0.29922620  0.10128407  0.62265119  1
  Ti  Ti123  1  0.51298200  0.87843846  0.12239104  1
  Ti  Ti124  1  0.39672190  -0.00180408  0.26594580  1
  Ti  Ti125  1  0.79469449  0.81616451  0.00368122  1
  Ti  Ti126  1  0.21243259  0.60222536  0.74999306  1
  Ti  Ti127  1  0.00649587  0.60054416  -0.01256242  1
  Ti  Ti128  1  0.28849288  0.09393698  0.37110950  1
  Ti  Ti129  1  0.39136966  0.59907038  0.00921669  1
  Ti  Ti130  1  0.09232485  0.10289292  0.13566102  1
  Ti  Ti131  1  0.00347939  0.40205779  -0.01460867  1
  Ti  Ti132  1  -0.01318662  0.39747145  0.75346841  1
  Ti  Ti133  1  -0.01449553  0.60140636  0.24402872  1
  Ti  Ti134  1  0.49944290  0.69814489  0.13991685  1
  Ti  Ti135  1  0.69691260  0.49782445  0.89444076  1
  Ti  Ti136  1  0.10992346  0.69090049  0.87257842  1
  Ti  Ti137  1  0.30309631  0.29982568  0.60960810  1
  Ti  Ti138  1  0.19674440  0.81312828  0.49652794  1
  Ti  Ti139  1  0.41156892  0.78266249  0.00404663  1
  Ti  Ti140  1  0.50411195  0.47736942  0.87867928  1
  Ti  Ti141  1  0.30327940  0.88831852  0.87726375  1
  Ti  Ti142  1  0.10193975  0.31307023  0.62934263  1
  Ti  Ti143  1  0.19111437  0.19885599  0.00648359  1
  Ti  Ti144  1  0.21386703  0.39777952  0.74322760  1
  Ti  Ti145  1  0.31485087  0.68737449  0.14001341  1
  Ti  Ti146  1  0.51032383  0.67548047  0.36516226  1
  Ti  Ti147  1  0.80551919  0.01191065  0.51301595  1
  Ti  Ti148  1  0.20316254  0.59047304  0.00151615  1
  Ti  Ti149  1  0.21231226  0.79595015  0.75397174  1
  Ti  Ti150  1  -0.00147997  0.00883819  0.72814277  1
  Ti  Ti151  1  0.68543848  0.11367184  0.62315454  1
  Ti  Ti152  1  0.10490374  0.49955442  0.86353304  1
  Ti  Ti153  1  0.20634818  0.80044721  0.24004880  1
  Ti  Ti154  1  0.51141103  0.30288858  0.36142779  1
  Ti  Ti155  1  0.89844822  0.68590074  0.37494123  1
  Ti  Ti156  1  0.41132389  0.39751452  0.74986239  1
  Ti  Ti157  1  0.80743672  0.60819475  -0.00748760  1
  Ti  Ti158  1  0.30434484  0.69762674  0.87622394  1
  Ti  Ti159  1  0.89438355  0.49661493  0.63767791  1
  Mo  Mo160  1  0.81426637  0.40702389  0.25094953  1
  Mo  Mo161  1  0.90292188  0.50316529  0.36845658  1
  Mo  Mo162  1  0.10459321  0.90931258  0.13531915  1
  Mo  Mo163  1  0.20408212  -0.00434255  0.50270923  1
  Mo  Mo164  1  0.49587600  0.49013970  0.35450102  1
  Mo  Mo165  1  0.00638812  0.59713989  0.77595584  1
  Mo  Mo166  1  0.90264181  0.30887826  0.37323244  1
  Mo  Mo167  1  0.39510175  0.60211158  0.25821331  1
  Mo  Mo168  1  0.59935706  0.60364884  0.24439036  1
  Mo  Mo169  1  0.49967657  0.30033286  0.13570220  1
  Mo  Mo170  1  0.89123020  0.31698791  0.63565536  1
  Mo  Mo171  1  0.49884912  0.11057739  0.36971159  1
  Mo  Mo172  1  0.90838744  0.11277545  0.86551144  1
  Mo  Mo173  1  0.70392792  0.50970556  0.62358655  1
  Mo  Mo174  1  0.70030686  0.89847651  0.12896327  1
  Mo  Mo175  1  0.49742645  0.30435481  0.88332446  1
  Mo  Mo176  1  0.70240734  0.68679675  0.62143752  1
  Mo  Mo177  1  0.59729722  0.39670404  0.48948689  1
  Mo  Mo178  1  0.58889678  0.39778640  0.75508631  1
  Mo  Mo179  1  0.89170213  0.10237325  0.62076448  1
  Mo  Mo180  1  0.80647076  0.20414068  0.25300185  1
  Mo  Mo181  1  0.49695119  0.89674229  0.37892966  1
  Mo  Mo182  1  0.70963054  0.09457882  0.12816435  1
  Mo  Mo183  1  0.20323101  -0.00383448  0.23741616  1
  Mo  Mo184  1  0.70819579  0.69578350  0.37403771  1
  Mo  Mo185  1  0.81010687  0.19794297  -0.00302504  1
  Mo  Mo186  1  0.80745657  0.60419748  0.24718927  1
  Mo  Mo187  1  0.59592412  0.79443385  0.00474593  1
  Mo  Mo188  1  0.90399629  0.70108134  0.10961481  1
  Mo  Mo189  1  0.20323367  0.40379063  0.51098468  1
  Mo  Mo190  1  0.79477950  0.41086943  -0.00901337  1
  Mo  Mo191  1  0.59426183  0.39251566  0.23188353  1
  Mo  Mo192  1  0.10267053  0.10557145  0.63913849  1
  Mo  Mo193  1  -0.00618541  0.00917308  0.22548163  1
  Mo  Mo194  1  0.10179249  0.89330270  0.62376667  1
  Mo  Mo195  1  0.40206445  0.20124182  0.49081088  1
  Mo  Mo196  1  0.80544376  0.00599527  0.00352664  1
  Mo  Mo197  1  0.29084794  0.50725090  0.12140021  1
  Mo  Mo198  1  0.09715902  0.29480203  0.11849504  1
  Mo  Mo199  1  -0.00572777  0.60622513  0.50010187  1
