# generated using pymatgen
data_HfZrTaTiMo
_symmetry_space_group_name_H-M   'P 1'
_cell_length_a   15.21356867
_cell_length_b   15.20494030
_cell_length_c   16.86210908
_cell_angle_alpha   89.97514983
_cell_angle_beta   90.03067647
_cell_angle_gamma   89.72010370
_symmetry_Int_Tables_number   1
_chemical_formula_structural   HfZrTaTiMo
_chemical_formula_sum   'Hf40 Zr40 Ta40 Ti40 Mo40'
_cell_volume   3900.51926617
_cell_formula_units_Z   40
loop_
 _symmetry_equiv_pos_site_id
 _symmetry_equiv_pos_as_xyz
  1  'x, y, z'
loop_
 _atom_site_type_symbol
 _atom_site_label
 _atom_site_symmetry_multiplicity
 _atom_site_fract_x
 _atom_site_fract_y
 _atom_site_fract_z
 _atom_site_occupancy
  Hf  Hf0  1  0.31482606  0.49496508  0.11131997  1
  Hf  Hf1  1  0.19111669  0.80106779  0.74397520  1
  Hf  Hf2  1  0.90123335  0.69454212  0.87198702  1
  Hf  Hf3  1  0.59699135  -0.00292122  0.75127973  1
  Hf  Hf4  1  0.08460002  0.10318081  0.38244804  1
  Hf  Hf5  1  0.90395186  0.29951203  0.13163336  1
  Hf  Hf6  1  0.71170280  0.50131635  0.87981705  1
  Hf  Hf7  1  0.59399190  0.40262699  0.50662464  1
  Hf  Hf8  1  0.50066487  0.50804457  0.37299774  1
  Hf  Hf9  1  0.71386452  0.07964089  0.62406250  1
  Hf  Hf10  1  0.39666097  -0.00408222  0.26746782  1
  Hf  Hf11  1  0.90362377  0.90008777  0.87056897  1
  Hf  Hf12  1  -0.02071198  0.80218057  0.50629486  1
  Hf  Hf13  1  0.79252724  0.18606742  -0.00181866  1
  Hf  Hf14  1  0.80154356  0.19380381  0.74573451  1
  Hf  Hf15  1  0.79256503  0.80519466  0.74062228  1
  Hf  Hf16  1  0.38372471  0.20162716  0.25991679  1
  Hf  Hf17  1  0.59874426  0.41156842  0.75069195  1
  Hf  Hf18  1  0.70032254  0.50217958  0.62337467  1
  Hf  Hf19  1  0.39885284  0.21164942  0.49528586  1
  Hf  Hf20  1  0.19702322  0.59939579  0.25975259  1
  Hf  Hf21  1  0.49407054  0.70330922  0.13212790  1
  Hf  Hf22  1  0.41351984  0.79468055  0.48951454  1
  Hf  Hf23  1  0.62012285  -0.01986232  0.49405358  1
  Hf  Hf24  1  0.47113353  0.91408773  0.88326864  1
  Hf  Hf25  1  0.10506173  0.90934689  0.60639579  1
  Hf  Hf26  1  0.19826987  0.39652891  0.75776841  1
  Hf  Hf27  1  0.89616719  0.49519551  0.38258308  1
  Hf  Hf28  1  0.39657241  0.18580359  -0.00665767  1
  Hf  Hf29  1  0.19988543  0.61108166  -0.00183294  1
  Hf  Hf30  1  0.40988331  -0.00312469  0.48922000  1
  Hf  Hf31  1  0.60889650  0.40086965  0.24378069  1
  Hf  Hf32  1  0.59853056  0.61850406  0.50048244  1
  Hf  Hf33  1  0.77888177  0.82035543  0.50439872  1
  Hf  Hf34  1  0.29097573  0.90128993  0.13122266  1
  Hf  Hf35  1  0.20143167  0.38946158  0.26571476  1
  Hf  Hf36  1  0.80915057  0.61892602  0.51360499  1
  Hf  Hf37  1  0.10335852  0.09559027  0.87532280  1
  Hf  Hf38  1  0.58546421  0.78789852  0.76574349  1
  Hf  Hf39  1  0.31709495  0.49622050  0.62727423  1
  Zr  Zr40  1  0.60163690  0.01525457  0.00412749  1
  Zr  Zr41  1  0.10192312  0.50236246  0.61960537  1
  Zr  Zr42  1  0.39675878  0.18718007  0.74826992  1
  Zr  Zr43  1  0.08669504  0.70887252  0.13099731  1
  Zr  Zr44  1  0.70610469  0.90267267  0.88357101  1
  Zr  Zr45  1  0.51103583  0.09756380  0.37136764  1
  Zr  Zr46  1  0.59537209  0.79559839  0.00157759  1
  Zr  Zr47  1  0.49132359  0.31189236  0.11165845  1
  Zr  Zr48  1  0.89631412  0.09300097  0.13872018  1
  Zr  Zr49  1  0.19126876  0.38978713  -0.00650649  1
  Zr  Zr50  1  0.00685438  0.00396364  0.74439202  1
  Zr  Zr51  1  0.00195829  -0.00895789  0.00458348  1
  Zr  Zr52  1  0.69810586  0.29195857  0.11752702  1
  Zr  Zr53  1  0.69508086  0.71427039  0.36789356  1
  Zr  Zr54  1  0.08792845  0.30680833  0.61958493  1
  Zr  Zr55  1  0.29508235  0.29736442  0.62910831  1
  Zr  Zr56  1  0.20101179  0.60163548  0.49184628  1
  Zr  Zr57  1  0.71054681  0.09781495  0.36508784  1
  Zr  Zr58  1  0.60789141  0.60161743  0.23512915  1
  Zr  Zr59  1  0.80181127  0.79038105  0.23454426  1
  Zr  Zr60  1  0.59721485  0.20897748  0.75126625  1
  Zr  Zr61  1  0.28651416  0.28676925  0.11909553  1
  Zr  Zr62  1  -0.00167693  0.21017106  -0.00571037  1
  Zr  Zr63  1  0.49832441  0.90901771  0.13261911  1
  Zr  Zr64  1  0.38798074  0.81224823  0.74831433  1
  Zr  Zr65  1  0.40093548  0.40255544  0.24892615  1
  Zr  Zr66  1  0.20024699  0.60425287  0.75410425  1
  Zr  Zr67  1  0.22745071  -0.00304003  0.75330045  1
  Zr  Zr68  1  0.80863122  0.80345384  0.01771751  1
  Zr  Zr69  1  0.08545075  0.89800259  0.39260339  1
  Zr  Zr70  1  0.10578366  0.09730951  0.13135156  1
  Zr  Zr71  1  0.29753851  0.70158739  0.37592321  1
  Zr  Zr72  1  0.30849383  0.49436752  0.88303726  1
  Zr  Zr73  1  0.81464575  0.59465694  0.73962579  1
  Zr  Zr74  1  0.90947275  0.49684118  0.11729607  1
  Zr  Zr75  1  0.70454275  0.50050641  0.38327435  1
  Zr  Zr76  1  0.41982495  0.60310948  0.75981669  1
  Zr  Zr77  1  0.10387997  0.49534892  0.12904877  1
  Zr  Zr78  1  0.50725103  0.30285372  0.37813012  1
  Zr  Zr79  1  -0.00904560  0.21151097  0.74895381  1
  Ta  Ta80  1  0.80579223  0.38888119  0.74739953  1
  Ta  Ta81  1  0.90708015  0.49238504  0.88452077  1
  Ta  Ta82  1  0.09180712  0.70017678  0.62089462  1
  Ta  Ta83  1  0.20594727  0.39339347  0.48679512  1
  Ta  Ta84  1  0.89037329  0.09258231  0.87849760  1
  Ta  Ta85  1  0.29578898  0.09278602  0.60965774  1
  Ta  Ta86  1  0.88542703  0.92115246  0.62738488  1
  Ta  Ta87  1  0.40743245  0.59260847  0.50326670  1
  Ta  Ta88  1  0.49849240  0.10889528  0.13527405  1
  Ta  Ta89  1  0.18681566  0.80864753  0.25689524  1
  Ta  Ta90  1  0.69624383  0.68996167  0.87593712  1
  Ta  Ta91  1  0.08867871  0.30727218  0.87026884  1
  Ta  Ta92  1  0.21584246  -0.00350502  -0.00650712  1
  Ta  Ta93  1  0.92536640  0.89356821  0.14430330  1
  Ta  Ta94  1  0.49595164  0.31135613  0.62199008  1
  Ta  Ta95  1  -0.01011398  0.41649906  0.75215397  1
  Ta  Ta96  1  0.80214744  0.39967010  0.25098000  1
  Ta  Ta97  1  0.30124195  0.71167064  0.88144974  1
  Ta  Ta98  1  0.00172580  0.39277612  0.26336080  1
  Ta  Ta99  1  0.39716428  0.59743943  0.24314527  1
  Ta  Ta100  1  0.38454868  0.80323685  0.00391350  1
  Ta  Ta101  1  0.41044841  0.60737125  -0.00097991  1
  Ta  Ta102  1  0.90317887  0.28459631  0.37155903  1
  Ta  Ta103  1  -0.00047066  0.60521403  0.49113360  1
  Ta  Ta104  1  0.10251115  0.88893499  0.87508080  1
  Ta  Ta105  1  0.19458757  0.20196896  0.49304482  1
  Ta  Ta106  1  0.80946658  0.18724182  0.50310659  1
  Ta  Ta107  1  0.19640963  0.00100953  0.26234232  1
  Ta  Ta108  1  0.49602966  0.69395592  0.62651275  1
  Ta  Ta109  1  0.70146848  0.09651358  0.87201541  1
  Ta  Ta110  1  0.51018244  0.89332363  0.62122059  1
  Ta  Ta111  1  0.70405983  0.49449217  0.10984842  1
  Ta  Ta112  1  0.29801343  0.28267293  0.87224878  1
  Ta  Ta113  1  0.29729732  0.70438364  0.61467689  1
  Ta  Ta114  1  0.70268313  0.29576377  0.61950310  1
  Ta  Ta115  1  -0.00646911  0.60398937  0.26329068  1
  Ta  Ta116  1  0.50204908  0.09817279  0.61547851  1
  Ta  Ta117  1  0.19357225  0.19190883  0.75221820  1
  Ta  Ta118  1  0.29453171  0.70234747  0.13182599  1
  Ta  Ta119  1  0.80392878  0.59274291  0.23699029  1
  Ti  Ti120  1  0.59324576  0.20637429  -0.01177374  1
  Ti  Ti121  1  0.53086817  0.88681055  0.35660887  1
  Ti  Ti122  1  -0.00966609  0.20840314  0.50505729  1
  Ti  Ti123  1  0.90080446  0.70997501  0.37097937  1
  Ti  Ti124  1  0.18953521  0.80520070  0.00367477  1
  Ti  Ti125  1  0.80959753  0.39004448  -0.00592815  1
  Ti  Ti126  1  0.30454913  0.90080679  0.60573512  1
  Ti  Ti127  1  0.00210605  0.79426053  0.00266247  1
  Ti  Ti128  1  0.70168586  0.29923845  0.87676296  1
  Ti  Ti129  1  0.49549798  0.10437808  0.87039531  1
  Ti  Ti130  1  0.39015838  0.79991825  0.25812966  1
  Ti  Ti131  1  0.09351949  0.29723973  0.13025632  1
  Ti  Ti132  1  0.51277322  0.51038050  0.88306738  1
  Ti  Ti133  1  0.80200847  0.60763195  0.01008620  1
  Ti  Ti134  1  0.09209530  0.50755451  0.87554405  1
  Ti  Ti135  1  0.09552202  0.49763232  0.38053611  1
  Ti  Ti136  1  0.00090999  0.60081503  -0.00072318  1
  Ti  Ti137  1  0.40954899  0.39152720  0.76455063  1
  Ti  Ti138  1  0.09383422  0.70202828  0.87182536  1
  Ti  Ti139  1  0.80080079  0.20430801  0.25167426  1
  Ti  Ti140  1  0.18435878  0.20157693  0.26687332  1
  Ti  Ti141  1  0.28995817  0.09952372  0.38594708  1
  Ti  Ti142  1  0.30915607  0.49195810  0.38061139  1
  Ti  Ti143  1  0.60833669  0.19808041  0.50526647  1
  Ti  Ti144  1  0.30223135  0.09349281  0.13068998  1
  Ti  Ti145  1  0.69633344  0.09493632  0.13724047  1
  Ti  Ti146  1  0.60388375  0.60089587  0.00945379  1
  Ti  Ti147  1  0.50063290  0.70080964  0.35694290  1
  Ti  Ti148  1  -0.00701734  0.79270355  0.73443780  1
  Ti  Ti149  1  0.91148967  0.49398227  0.61338047  1
  Ti  Ti150  1  0.59582420  0.40177742  -0.00839173  1
  Ti  Ti151  1  0.28487336  0.89993903  0.39004554  1
  Ti  Ti152  1  0.70962806  0.29964628  0.38086511  1
  Ti  Ti153  1  0.59877025  0.20349411  0.24777136  1
  Ti  Ti154  1  0.19963659  0.18943987  -0.00967003  1
  Ti  Ti155  1  0.10054164  0.10335317  0.61270996  1
  Ti  Ti156  1  0.90216477  0.08305687  0.36102637  1
  Ti  Ti157  1  0.81069861  0.38537047  0.50534979  1
  Ti  Ti158  1  0.70580431  0.90971577  0.13305563  1
  Ti  Ti159  1  0.68579496  0.71165814  0.63019782  1
  Mo  Mo160  1  0.00002014  0.20351811  0.25451341  1
  Mo  Mo161  1  -0.01778441  0.01549203  0.50592165  1
  Mo  Mo162  1  0.88864091  0.90454192  0.36177769  1
  Mo  Mo163  1  0.19825851  0.79862056  0.50862242  1
  Mo  Mo164  1  0.10684939  0.90343621  0.13117407  1
  Mo  Mo165  1  0.40889395  0.00080776  0.72741749  1
  Mo  Mo166  1  0.00598194  0.60313303  0.75201989  1
  Mo  Mo167  1  0.40641868  0.39625010  -0.01845859  1
  Mo  Mo168  1  0.60385555  0.00483509  0.24155213  1
  Mo  Mo169  1  -0.00143133  0.40079019  0.48676063  1
  Mo  Mo170  1  0.71010701  0.90508539  0.35427279  1
  Mo  Mo171  1  0.28809122  0.89346704  0.88397855  1
  Mo  Mo172  1  0.59871360  0.80536036  0.23695191  1
  Mo  Mo173  1  0.01172139  -0.00916489  0.25160111  1
  Mo  Mo174  1  0.69236176  0.89733702  0.63310146  1
  Mo  Mo175  1  0.80413481  -0.00449371  0.24488221  1
  Mo  Mo176  1  0.50586469  0.50321736  0.10780688  1
  Mo  Mo177  1  0.39731754  0.40563514  0.50061551  1
  Mo  Mo178  1  0.59219234  0.80023446  0.49646289  1
  Mo  Mo179  1  0.70345998  0.69276388  0.11912097  1
  Mo  Mo180  1  0.50254438  0.50181133  0.62760770  1
  Mo  Mo181  1  0.30891331  0.08713464  0.87331192  1
  Mo  Mo182  1  0.89179856  0.30821648  0.61884449  1
  Mo  Mo183  1  0.81360848  0.00031635  0.49243040  1
  Mo  Mo184  1  0.49866884  0.70006849  0.89077207  1
  Mo  Mo185  1  0.88952126  0.30519079  0.87520513  1
  Mo  Mo186  1  0.20127708  0.00753290  0.49694840  1
  Mo  Mo187  1  0.90749390  0.69134488  0.12534652  1
  Mo  Mo188  1  0.90994725  0.10611759  0.62039584  1
  Mo  Mo189  1  0.60728998  0.60474824  0.75242613  1
  Mo  Mo190  1  0.49686179  0.30787744  0.88168908  1
  Mo  Mo191  1  0.80242963  -0.00198486  0.01347963  1
  Mo  Mo192  1  0.29372040  0.29738140  0.37932738  1
  Mo  Mo193  1  -0.00000262  0.40121675  -0.00815120  1
  Mo  Mo194  1  0.39700703  0.00330139  0.00873970  1
  Mo  Mo195  1  0.80457138  0.00265798  0.75426235  1
  Mo  Mo196  1  0.90271676  0.70528698  0.62648190  1
  Mo  Mo197  1  0.08970595  0.69812605  0.37664370  1
  Mo  Mo198  1  0.00390121  0.79311222  0.26331735  1
  Mo  Mo199  1  0.09017518  0.30232695  0.38540066  1
