# generated using pymatgen
data_HfZrTaTiMo
_symmetry_space_group_name_H-M   'P 1'
_cell_length_a   15.20399383
_cell_length_b   15.20195626
_cell_length_c   16.87294573
_cell_angle_alpha   89.97268728
_cell_angle_beta   89.98788334
_cell_angle_gamma   89.93216354
_symmetry_Int_Tables_number   1
_chemical_formula_structural   HfZrTaTiMo
_chemical_formula_sum   'Hf40 Zr40 Ta40 Ti40 Mo40'
_cell_volume   3899.84826304
_cell_formula_units_Z   40
loop_
 _symmetry_equiv_pos_site_id
 _symmetry_equiv_pos_as_xyz
  1  'x, y, z'
loop_
 _atom_site_type_symbol
 _atom_site_label
 _atom_site_symmetry_multiplicity
 _atom_site_fract_x
 _atom_site_fract_y
 _atom_site_fract_z
 _atom_site_occupancy
  Hf  Hf0  1  0.39356913  0.00819465  0.76940720  1
  Hf  Hf1  1  0.28936789  0.89651382  0.37170905  1
  Hf  Hf2  1  0.50692203  0.28258260  0.37271359  1
  Hf  Hf3  1  -0.00672279  0.03211952  0.24952013  1
  Hf  Hf4  1  0.01135397  0.58615717  0.26110073  1
  Hf  Hf5  1  0.30003674  0.10393805  0.37344800  1
  Hf  Hf6  1  0.71819813  0.71616443  0.87132462  1
  Hf  Hf7  1  0.39328911  0.78475740  -0.00136674  1
  Hf  Hf8  1  0.00899015  0.60731915  0.48381546  1
  Hf  Hf9  1  0.69074650  0.11230338  0.62021065  1
  Hf  Hf10  1  0.59950857  0.00730818  -0.01148940  1
  Hf  Hf11  1  0.60203854  0.58320463  0.26998016  1
  Hf  Hf12  1  0.19558572  0.00909215  0.24366577  1
  Hf  Hf13  1  0.40343897  0.79981590  0.75464433  1
  Hf  Hf14  1  0.29198168  0.09750575  0.63307733  1
  Hf  Hf15  1  0.49374979  0.91188024  0.62364719  1
  Hf  Hf16  1  0.82145725  0.61719259  0.74462509  1
  Hf  Hf17  1  0.69754991  0.31702954  0.86986500  1
  Hf  Hf18  1  0.60827631  0.80144888  0.74730168  1
  Hf  Hf19  1  0.00652612  0.80739762  0.49673089  1
  Hf  Hf20  1  0.71018720  0.10859230  0.87227928  1
  Hf  Hf21  1  0.68254964  0.91143675  0.13999042  1
  Hf  Hf22  1  0.89696515  0.69504290  0.14854660  1
  Hf  Hf23  1  0.70666746  0.69917155  0.60647178  1
  Hf  Hf24  1  0.80578424  0.80382386  0.49066067  1
  Hf  Hf25  1  0.91055329  0.30347814  0.87189337  1
  Hf  Hf26  1  0.10827440  0.47898344  0.89466900  1
  Hf  Hf27  1  0.10519539  0.30419090  0.62187179  1
  Hf  Hf28  1  -0.00325604  0.39233883  0.25660152  1
  Hf  Hf29  1  0.90325768  0.91342754  0.37177976  1
  Hf  Hf30  1  0.31225718  0.51026682  0.11625275  1
  Hf  Hf31  1  0.39239809  0.78835635  0.23623526  1
  Hf  Hf32  1  0.00836590  0.80929768  0.25013844  1
  Hf  Hf33  1  0.70129437  0.51278601  0.87737328  1
  Hf  Hf34  1  0.48706327  0.11721461  0.63015740  1
  Hf  Hf35  1  0.29405646  0.30686183  0.37256307  1
  Hf  Hf36  1  0.29454462  0.68902673  0.63952393  1
  Hf  Hf37  1  0.61118651  0.36714873  0.51039155  1
  Hf  Hf38  1  0.38825935  0.80933937  0.50884242  1
  Hf  Hf39  1  0.89542129  0.89863177  0.87548186  1
  Zr  Zr40  1  0.60421923  0.79358526  -0.00038040  1
  Zr  Zr41  1  0.58691076  0.21436205  0.75466137  1
  Zr  Zr42  1  0.21029587  0.37544540  0.75893794  1
  Zr  Zr43  1  0.19658616  -0.02020398  0.50991261  1
  Zr  Zr44  1  0.41164125  0.40494664  0.24056066  1
  Zr  Zr45  1  0.19798667  0.39183273  0.24194950  1
  Zr  Zr46  1  0.39147714  0.59663448  0.48974064  1
  Zr  Zr47  1  0.71059331  0.50494574  0.60364593  1
  Zr  Zr48  1  0.81000691  0.21081179  0.25455728  1
  Zr  Zr49  1  0.81368499  0.40388054  0.73743032  1
  Zr  Zr50  1  0.40159330  -0.00712738  0.23774589  1
  Zr  Zr51  1  0.89356511  0.10773315  0.60357884  1
  Zr  Zr52  1  0.09518121  0.91212999  0.11291428  1
  Zr  Zr53  1  0.30756659  0.68824432  0.86353331  1
  Zr  Zr54  1  0.90507130  0.12093131  0.39514600  1
  Zr  Zr55  1  0.92306667  0.51266924  0.61392248  1
  Zr  Zr56  1  0.21335888  0.59968543  0.24663584  1
  Zr  Zr57  1  0.50247724  0.67449418  0.12944368  1
  Zr  Zr58  1  -0.02455870  0.79598291  0.00906122  1
  Zr  Zr59  1  0.80038411  0.21159970  -0.00132922  1
  Zr  Zr60  1  0.39169125  0.19935776  0.23382869  1
  Zr  Zr61  1  0.90155403  0.29969924  0.12240597  1
  Zr  Zr62  1  0.50203953  0.69724601  0.62129014  1
  Zr  Zr63  1  0.50410080  0.09100078  0.11854791  1
  Zr  Zr64  1  -0.02586579  -0.00110966  0.74081642  1
  Zr  Zr65  1  0.18365904  -0.00034964  0.75585084  1
  Zr  Zr66  1  0.19011070  0.57963475  0.76171320  1
  Zr  Zr67  1  0.71151388  0.10745847  0.12404587  1
  Zr  Zr68  1  0.29540019  0.70071158  0.37870418  1
  Zr  Zr69  1  0.70510122  0.50687194  0.12336654  1
  Zr  Zr70  1  0.88138065  0.91476940  0.13784253  1
  Zr  Zr71  1  0.29612725  0.48677960  0.62779183  1
  Zr  Zr72  1  0.50048963  0.49882568  0.61076782  1
  Zr  Zr73  1  0.21673787  0.59850820  -0.00859993  1
  Zr  Zr74  1  0.10661754  0.69214429  0.11764632  1
  Zr  Zr75  1  0.70011206  0.91232841  0.61498110  1
  Zr  Zr76  1  0.18017393  0.79561426  0.76011492  1
  Zr  Zr77  1  0.81481503  0.62112384  0.00118237  1
  Zr  Zr78  1  0.70181715  0.70906503  0.13934679  1
  Zr  Zr79  1  0.59596873  0.00489055  0.76031753  1
  Ta  Ta80  1  0.78998583  0.80396307  0.26863423  1
  Ta  Ta81  1  0.20691556  0.20427828  0.50304781  1
  Ta  Ta82  1  0.30447228  0.29533808  0.89081316  1
  Ta  Ta83  1  0.81526109  0.00581368  -0.00191286  1
  Ta  Ta84  1  0.10864682  0.70972909  0.36984805  1
  Ta  Ta85  1  0.28271954  0.11260173  0.87886644  1
  Ta  Ta86  1  0.38901975  -0.00038707  -0.01073482  1
  Ta  Ta87  1  0.79747895  0.40683068  0.25682345  1
  Ta  Ta88  1  0.81696972  0.81967767  0.73167217  1
  Ta  Ta89  1  0.60537765  0.18845733  0.25191496  1
  Ta  Ta90  1  0.90223489  0.70083641  0.36426756  1
  Ta  Ta91  1  0.49820027  0.89390567  0.88170698  1
  Ta  Ta92  1  0.68667602  0.90507584  0.37344086  1
  Ta  Ta93  1  0.07077711  0.68602564  0.88281751  1
  Ta  Ta94  1  0.51387098  0.68242403  0.86826147  1
  Ta  Ta95  1  0.61134277  0.38472424  0.24890442  1
  Ta  Ta96  1  0.10725548  0.27992570  0.88153325  1
  Ta  Ta97  1  0.09367931  0.10173800  0.61286327  1
  Ta  Ta98  1  0.69922381  0.69484527  0.38271242  1
  Ta  Ta99  1  0.10145361  0.10123831  0.39284806  1
  Ta  Ta100  1  0.59266769  0.41447199  0.00845427  1
  Ta  Ta101  1  0.50419115  0.48497594  0.38974272  1
  Ta  Ta102  1  0.10085443  0.48601390  0.10845597  1
  Ta  Ta103  1  0.81135856  0.19740974  0.74495590  1
  Ta  Ta104  1  0.09504260  0.28773805  0.38272037  1
  Ta  Ta105  1  0.58460357  0.01142623  0.48545478  1
  Ta  Ta106  1  0.78555010  0.01051202  0.48375654  1
  Ta  Ta107  1  0.59347717  0.21994155  -0.00030194  1
  Ta  Ta108  1  0.60366246  0.40506162  0.73361369  1
  Ta  Ta109  1  0.91605762  0.51436708  0.87888812  1
  Ta  Ta110  1  0.49247258  0.31595189  0.88076362  1
  Ta  Ta111  1  0.48882656  0.90021956  0.37424536  1
  Ta  Ta112  1  0.31453157  0.28477135  0.62730001  1
  Ta  Ta113  1  0.08394057  0.68318302  0.63301975  1
  Ta  Ta114  1  0.19392794  0.80066501  -0.01280764  1
  Ta  Ta115  1  0.60641908  0.59623246  0.74437246  1
  Ta  Ta116  1  0.59269833  0.80443825  0.48968783  1
  Ta  Ta117  1  0.43224839  0.58043106  -0.00905502  1
  Ta  Ta118  1  0.70712622  0.90737877  0.87292206  1
  Ta  Ta119  1  0.89519682  0.31282243  0.39515381  1
  Ti  Ti120  1  0.40474681  0.59199497  0.26622254  1
  Ti  Ti121  1  0.29213626  0.89671560  0.10789131  1
  Ti  Ti122  1  0.18857677  0.00273257  -0.00976983  1
  Ti  Ti123  1  0.29173613  0.90151224  0.87964713  1
  Ti  Ti124  1  0.01486635  0.40235822  0.49910727  1
  Ti  Ti125  1  0.12535318  0.48760320  0.38000485  1
  Ti  Ti126  1  0.49221568  0.89391659  0.11430400  1
  Ti  Ti127  1  0.50059778  0.70004378  0.38049989  1
  Ti  Ti128  1  0.32810093  0.48111668  0.87911405  1
  Ti  Ti129  1  0.08546510  0.89390320  0.88081888  1
  Ti  Ti130  1  0.19284942  0.78194343  0.51385483  1
  Ti  Ti131  1  0.00329310  0.20614065  0.74362808  1
  Ti  Ti132  1  0.41042561  0.19705818  0.49651374  1
  Ti  Ti133  1  0.58862107  0.80250049  0.26184937  1
  Ti  Ti134  1  0.78125164  0.01654541  0.27053957  1
  Ti  Ti135  1  0.01179388  0.40869724  0.74818840  1
  Ti  Ti136  1  0.19578398  0.58624758  0.50282982  1
  Ti  Ti137  1  0.28932336  0.89555210  0.63909544  1
  Ti  Ti138  1  0.41409541  0.39176137  0.74727969  1
  Ti  Ti139  1  0.19367482  0.19684388  0.00190530  1
  Ti  Ti140  1  0.10076232  0.90762589  0.37406374  1
  Ti  Ti141  1  0.39272894  0.38700036  0.50051389  1
  Ti  Ti142  1  0.08115241  0.09547885  0.87292513  1
  Ti  Ti143  1  0.80139736  0.40937288  0.00046498  1
  Ti  Ti144  1  0.20239777  0.80220842  0.23610912  1
  Ti  Ti145  1  0.41037079  0.38968127  0.01523025  1
  Ti  Ti146  1  0.29074552  0.29705432  0.11638150  1
  Ti  Ti147  1  0.48398991  0.11851720  0.88229008  1
  Ti  Ti148  1  0.39451909  0.00642045  0.49710479  1
  Ti  Ti149  1  0.39978028  0.20011784  0.01121294  1
  Ti  Ti150  1  -0.00807343  0.18169762  -0.00449734  1
  Ti  Ti151  1  0.09083047  0.11041055  0.11870006  1
  Ti  Ti152  1  -0.00151680  0.38969942  0.00182154  1
  Ti  Ti153  1  0.89668585  0.49944246  0.38845346  1
  Ti  Ti154  1  0.80134407  0.59139853  0.26712640  1
  Ti  Ti155  1  0.09978067  0.29267134  0.11888668  1
  Ti  Ti156  1  0.07950136  0.89216667  0.63102639  1
  Ti  Ti157  1  0.70756966  0.48412670  0.39435647  1
  Ti  Ti158  1  0.90882323  0.50001710  0.12475176  1
  Ti  Ti159  1  0.28714311  0.09558678  0.11234279  1
  Mo  Mo160  1  0.79452002  0.00725165  0.74747874  1
  Mo  Mo161  1  0.20907747  0.38443859  0.00598005  1
  Mo  Mo162  1  0.19014502  0.19206069  0.75507242  1
  Mo  Mo163  1  0.78224112  0.22140324  0.50043565  1
  Mo  Mo164  1  0.89646065  0.90647989  0.60784670  1
  Mo  Mo165  1  0.18217839  0.19375369  0.24511435  1
  Mo  Mo166  1  0.59773312  0.18964504  0.49674001  1
  Mo  Mo167  1  0.79169424  0.81913347  0.00617555  1
  Mo  Mo168  1  -0.00093260  0.00814603  -0.00493296  1
  Mo  Mo169  1  0.90612838  0.10245383  0.12451823  1
  Mo  Mo170  1  0.90243133  0.10652048  0.86646333  1
  Mo  Mo171  1  -0.01035926  0.78731523  0.74647975  1
  Mo  Mo172  1  -0.00113679  0.58668984  0.00860572  1
  Mo  Mo173  1  0.30482735  0.70341623  0.11500424  1
  Mo  Mo174  1  0.01445434  0.20999453  0.25422841  1
  Mo  Mo175  1  0.90425407  0.30410038  0.61185200  1
  Mo  Mo176  1  0.69203068  0.30925272  0.12361441  1
  Mo  Mo177  1  0.51179274  0.48972220  0.86467202  1
  Mo  Mo178  1  0.90041618  0.70526777  0.87338342  1
  Mo  Mo179  1  0.38330008  0.21273540  0.76307202  1
  Mo  Mo180  1  0.51050798  0.29474211  0.12472795  1
  Mo  Mo181  1  -0.00029289  -0.00187475  0.50437744  1
  Mo  Mo182  1  0.68942800  0.11266329  0.37856459  1
  Mo  Mo183  1  0.49274671  0.09367391  0.36979775  1
  Mo  Mo184  1  0.50982970  0.49273973  0.13095553  1
  Mo  Mo185  1  0.81242818  0.39891270  0.50966908  1
  Mo  Mo186  1  0.10705696  0.49909857  0.62028469  1
  Mo  Mo187  1  0.59428149  -0.00131169  0.26389437  1
  Mo  Mo188  1  0.70645193  0.30095355  0.37397653  1
  Mo  Mo189  1  0.90772260  0.71222218  0.61762263  1
  Mo  Mo190  1  0.00423667  0.59198615  0.75480935  1
  Mo  Mo191  1  0.49520576  0.29997346  0.62304610  1
  Mo  Mo192  1  0.00377395  0.21099413  0.50717381  1
  Mo  Mo193  1  0.70909425  0.29450354  0.63424088  1
  Mo  Mo194  1  0.30621457  0.49338620  0.38135283  1
  Mo  Mo195  1  0.20420543  0.39574062  0.49903872  1
  Mo  Mo196  1  0.60759836  0.59895460  -0.00589155  1
  Mo  Mo197  1  0.80927063  0.60412684  0.48213107  1
  Mo  Mo198  1  0.41611541  0.58248742  0.75834922  1
  Mo  Mo199  1  0.60007124  0.59681517  0.47833091  1
