# generated using pymatgen
data_HfZrTaTiMo
_symmetry_space_group_name_H-M   'P 1'
_cell_length_a   15.20949619
_cell_length_b   15.21120005
_cell_length_c   16.84740404
_cell_angle_alpha   90.01073202
_cell_angle_beta   90.00069665
_cell_angle_gamma   89.97517281
_symmetry_Int_Tables_number   1
_chemical_formula_structural   HfZrTaTiMo
_chemical_formula_sum   'Hf40 Zr40 Ta40 Ti40 Mo40'
_cell_volume   3897.72549307
_cell_formula_units_Z   40
loop_
 _symmetry_equiv_pos_site_id
 _symmetry_equiv_pos_as_xyz
  1  'x, y, z'
loop_
 _atom_site_type_symbol
 _atom_site_label
 _atom_site_symmetry_multiplicity
 _atom_site_fract_x
 _atom_site_fract_y
 _atom_site_fract_z
 _atom_site_occupancy
  Hf  Hf0  1  0.00814948  -0.00097076  0.50658301  1
  Hf  Hf1  1  0.60049719  0.78878730  0.25428023  1
  Hf  Hf2  1  0.30965589  0.68808961  0.88482409  1
  Hf  Hf3  1  -0.00965015  0.79318767  -0.01240455  1
  Hf  Hf4  1  0.40464635  0.00083351  0.75494447  1
  Hf  Hf5  1  0.60675895  -0.00898030  0.50756977  1
  Hf  Hf6  1  0.30768277  0.89162547  0.11220779  1
  Hf  Hf7  1  0.51091288  0.90085163  0.12121925  1
  Hf  Hf8  1  0.60646314  0.39596732  -0.00229686  1
  Hf  Hf9  1  -0.00588806  0.78607150  0.52524429  1
  Hf  Hf10  1  0.21128760  0.39392297  0.74266681  1
  Hf  Hf11  1  0.48783576  0.30457156  0.86495615  1
  Hf  Hf12  1  0.38734962  0.21065076  0.74347098  1
  Hf  Hf13  1  -0.02476335  0.58927705  0.24616378  1
  Hf  Hf14  1  0.09240741  0.10118479  0.88177406  1
  Hf  Hf15  1  0.17405146  0.21040519  0.25810259  1
  Hf  Hf16  1  0.00648161  0.40630099  0.01248104  1
  Hf  Hf17  1  0.08671622  0.70146637  0.13794060  1
  Hf  Hf18  1  0.28336601  0.09762267  0.61841414  1
  Hf  Hf19  1  0.38401882  -0.02305509  0.49748154  1
  Hf  Hf20  1  0.40643528  0.57330736  0.00262853  1
  Hf  Hf21  1  0.88589292  0.09978926  0.38166451  1
  Hf  Hf22  1  0.20774123  0.59641115  0.74594066  1
  Hf  Hf23  1  0.18923449  0.58936080  -0.00370665  1
  Hf  Hf24  1  0.49286314  0.09280412  0.62000737  1
  Hf  Hf25  1  0.89389266  0.27713237  0.10652301  1
  Hf  Hf26  1  0.81605201  0.40684796  0.23802141  1
  Hf  Hf27  1  0.08846214  0.50272655  0.86724257  1
  Hf  Hf28  1  -0.01036216  0.21049354  0.74913409  1
  Hf  Hf29  1  0.07619713  0.50655778  0.38928227  1
  Hf  Hf30  1  0.88918687  0.11881556  0.89796986  1
  Hf  Hf31  1  0.71109042  0.90123848  0.36959100  1
  Hf  Hf32  1  0.69960450  0.11338385  0.11581255  1
  Hf  Hf33  1  0.89905463  0.30331622  0.38259423  1
  Hf  Hf34  1  0.20980612  0.81389571  0.50062377  1
  Hf  Hf35  1  0.37948173  0.79436031  0.25777477  1
  Hf  Hf36  1  0.30616046  0.90363112  0.87952364  1
  Hf  Hf37  1  0.52237070  0.49386463  0.13726764  1
  Hf  Hf38  1  0.41558893  0.78619320  0.75490895  1
  Hf  Hf39  1  0.09989157  0.30660872  0.87436811  1
  Zr  Zr40  1  0.71381275  0.49434268  0.86266315  1
  Zr  Zr41  1  0.19739950  0.00625627  -0.00093997  1
  Zr  Zr42  1  0.20026219  0.79091238  0.75196459  1
  Zr  Zr43  1  0.51884216  0.29267952  0.37094559  1
  Zr  Zr44  1  0.19157067  0.79536682  -0.01213261  1
  Zr  Zr45  1  -0.00868892  0.00276339  0.24927695  1
  Zr  Zr46  1  0.41754406  0.01969386  0.00022038  1
  Zr  Zr47  1  0.89232975  0.90895157  0.11210475  1
  Zr  Zr48  1  0.18618574  0.19660301  0.48748150  1
  Zr  Zr49  1  0.09924095  0.91012095  0.64278690  1
  Zr  Zr50  1  0.48833857  0.70043052  0.11243028  1
  Zr  Zr51  1  0.20036689  -0.00090350  0.24037580  1
  Zr  Zr52  1  0.60187707  0.60785165  0.74294122  1
  Zr  Zr53  1  0.31170779  0.11098538  0.12889916  1
  Zr  Zr54  1  0.01062239  0.38330009  0.24045610  1
  Zr  Zr55  1  0.29190112  0.08786050  0.37353748  1
  Zr  Zr56  1  0.68454109  0.69004686  0.11786507  1
  Zr  Zr57  1  -0.00153413  0.61088834  0.72422586  1
  Zr  Zr58  1  0.61255953  -0.00766288  0.74413380  1
  Zr  Zr59  1  0.06721422  0.11711762  0.10584314  1
  Zr  Zr60  1  0.61400766  0.39656628  0.49727647  1
  Zr  Zr61  1  0.28917910  0.69227716  0.11859248  1
  Zr  Zr62  1  0.10980899  0.50257633  0.60735506  1
  Zr  Zr63  1  0.20518151  0.41021949  0.27606991  1
  Zr  Zr64  1  0.50053766  0.30525092  0.62356038  1
  Zr  Zr65  1  0.08889333  0.71991351  0.36851754  1
  Zr  Zr66  1  0.88687780  0.69097384  0.38377533  1
  Zr  Zr67  1  0.20904413  0.22000361  0.00529227  1
  Zr  Zr68  1  0.30077104  0.30974409  0.60325987  1
  Zr  Zr69  1  0.77851682  0.79769177  -0.01673354  1
  Zr  Zr70  1  0.49959995  0.89488641  0.37238112  1
  Zr  Zr71  1  0.52192202  0.69481308  0.89748285  1
  Zr  Zr72  1  0.60800439  0.59801092  0.50846581  1
  Zr  Zr73  1  0.30642316  0.89715144  0.63717367  1
  Zr  Zr74  1  0.20768761  0.61123573  0.26899673  1
  Zr  Zr75  1  0.50075808  0.09590049  0.38241966  1
  Zr  Zr76  1  0.30406478  0.30902605  0.14875775  1
  Zr  Zr77  1  0.09347749  0.89624123  0.12336480  1
  Zr  Zr78  1  0.89130631  0.91576383  0.87251383  1
  Zr  Zr79  1  0.90995952  0.89004594  0.37661730  1
  Ta  Ta80  1  0.78205533  0.21095466  0.24943277  1
  Ta  Ta81  1  0.51337683  0.28482198  0.13938463  1
  Ta  Ta82  1  0.30943559  0.47788106  0.87527800  1
  Ta  Ta83  1  0.58469447  0.19676367  -0.00353030  1
  Ta  Ta84  1  0.80093228  0.39708832  0.52179090  1
  Ta  Ta85  1  0.20402854  0.61117833  0.49135506  1
  Ta  Ta86  1  0.50777243  0.10513357  0.86707681  1
  Ta  Ta87  1  0.40157538  0.58861373  0.74898515  1
  Ta  Ta88  1  0.30981635  0.29840637  0.37451266  1
  Ta  Ta89  1  0.79461165  0.79778098  0.76045427  1
  Ta  Ta90  1  0.80118798  0.58984157  -0.00329289  1
  Ta  Ta91  1  0.20413347  0.40351126  0.47893474  1
  Ta  Ta92  1  0.80942485  0.39140562  0.73334266  1
  Ta  Ta93  1  0.69733952  0.11078070  0.37870444  1
  Ta  Ta94  1  0.88789032  0.69798685  0.12164539  1
  Ta  Ta95  1  0.31021611  0.49910041  0.13600453  1
  Ta  Ta96  1  0.80048478  -0.00419079  0.50647130  1
  Ta  Ta97  1  0.70164243  0.49735815  0.63575741  1
  Ta  Ta98  1  0.70854587  0.09243541  0.62785015  1
  Ta  Ta99  1  0.61038420  0.19672360  0.51222261  1
  Ta  Ta100  1  0.79506313  0.20426250  0.51527951  1
  Ta  Ta101  1  0.60907561  0.79916889  0.75411779  1
  Ta  Ta102  1  0.80535040  0.79397466  0.24441075  1
  Ta  Ta103  1  0.09199850  0.90278653  0.86437293  1
  Ta  Ta104  1  0.40724869  -0.00366647  0.24555421  1
  Ta  Ta105  1  0.51305167  0.89970995  0.88527496  1
  Ta  Ta106  1  0.79508068  0.19705677  0.74734069  1
  Ta  Ta107  1  0.52080579  0.50403648  0.36609722  1
  Ta  Ta108  1  0.89048443  0.32166876  0.87982289  1
  Ta  Ta109  1  0.49378333  0.50128025  0.62496170  1
  Ta  Ta110  1  0.30767493  0.12084576  0.87805547  1
  Ta  Ta111  1  0.09890280  0.29792583  0.61774316  1
  Ta  Ta112  1  0.87911693  0.90150525  0.63592619  1
  Ta  Ta113  1  -0.00448545  0.40571622  0.73438298  1
  Ta  Ta114  1  0.63097815  0.39457286  0.25760566  1
  Ta  Ta115  1  0.40254589  0.37902769  0.00944140  1
  Ta  Ta116  1  0.60254824  0.79193922  0.49681011  1
  Ta  Ta117  1  0.09036967  0.69880820  0.86884539  1
  Ta  Ta118  1  0.11278940  0.50051394  0.13263568  1
  Ta  Ta119  1  0.49497334  0.69098533  0.37657540  1
  Ti  Ti120  1  0.09469742  0.10472128  0.62977222  1
  Ti  Ti121  1  0.19387254  0.20046497  0.75064955  1
  Ti  Ti122  1  -0.02196962  0.19651597  0.24975637  1
  Ti  Ti123  1  0.11096985  0.90995610  0.37011199  1
  Ti  Ti124  1  0.79837978  0.01248398  0.24344367  1
  Ti  Ti125  1  0.31005522  0.69396731  0.61893158  1
  Ti  Ti126  1  0.80687720  0.60375313  0.51975432  1
  Ti  Ti127  1  0.70286698  0.90080328  0.12870115  1
  Ti  Ti128  1  0.40275924  0.20068944  0.49535838  1
  Ti  Ti129  1  0.20170427  0.01135386  0.76222544  1
  Ti  Ti130  1  0.30998808  0.50049689  0.60917476  1
  Ti  Ti131  1  0.69593403  0.28853535  0.86620974  1
  Ti  Ti132  1  0.50717926  0.87620497  0.62005357  1
  Ti  Ti133  1  0.59928133  0.39765611  0.74565359  1
  Ti  Ti134  1  0.50426876  0.49591361  0.87132355  1
  Ti  Ti135  1  0.41537197  0.40233635  0.26094128  1
  Ti  Ti136  1  0.60029380  0.19692651  0.74054657  1
  Ti  Ti137  1  0.41009557  0.40607358  0.48509779  1
  Ti  Ti138  1  -0.00879015  0.59621397  0.00366319  1
  Ti  Ti139  1  -0.00622322  0.39812842  0.51263332  1
  Ti  Ti140  1  -0.01064906  0.00917060  0.75070339  1
  Ti  Ti141  1  0.69803731  0.68738492  0.37715977  1
  Ti  Ti142  1  0.70659632  0.71647371  0.62300281  1
  Ti  Ti143  1  -0.00796216  0.79845748  0.74575584  1
  Ti  Ti144  1  0.21027582  0.40550189  0.00787756  1
  Ti  Ti145  1  0.40784364  0.60692684  0.50071404  1
  Ti  Ti146  1  0.61569885  -0.00459235  -0.00282768  1
  Ti  Ti147  1  0.32121101  0.51284570  0.38043146  1
  Ti  Ti148  1  0.60392147  0.01331139  0.24645755  1
  Ti  Ti149  1  0.80708248  0.59903043  0.73929128  1
  Ti  Ti150  1  0.40938755  0.59849815  0.25199767  1
  Ti  Ti151  1  0.77740020  0.59318447  0.24614503  1
  Ti  Ti152  1  0.88167677  0.49994920  0.39319631  1
  Ti  Ti153  1  0.89686001  0.67963120  0.86885638  1
  Ti  Ti154  1  0.80043081  0.40602327  0.00986224  1
  Ti  Ti155  1  0.08247672  0.10380587  0.37613180  1
  Ti  Ti156  1  0.41021018  0.19184337  0.25811632  1
  Ti  Ti157  1  -0.00860232  0.20367793  0.50777567  1
  Ti  Ti158  1  0.90013970  0.09869393  0.62609300  1
  Ti  Ti159  1  0.70007925  0.09219882  0.87642919  1
  Mo  Mo160  1  0.18694688  0.00082946  0.49789702  1
  Mo  Mo161  1  0.70965597  0.69464143  0.86942536  1
  Mo  Mo162  1  0.29232030  0.89348320  0.36808815  1
  Mo  Mo163  1  0.10326913  0.30914687  0.12510574  1
  Mo  Mo164  1  0.69461761  0.90363804  0.87225498  1
  Mo  Mo165  1  0.69168877  0.31062723  0.12187064  1
  Mo  Mo166  1  0.50643178  0.10006467  0.13395565  1
  Mo  Mo167  1  0.61450594  0.58843486  -0.00684867  1
  Mo  Mo168  1  0.41120133  0.20881597  0.00067224  1
  Mo  Mo169  1  0.90456608  0.29366097  0.62275807  1
  Mo  Mo170  1  0.19301391  0.80686650  0.25599730  1
  Mo  Mo171  1  0.09065018  0.30000390  0.39110959  1
  Mo  Mo172  1  0.71911330  0.29810061  0.38089127  1
  Mo  Mo173  1  0.89714766  0.50105628  0.61598926  1
  Mo  Mo174  1  0.40315554  0.41273642  0.74412057  1
  Mo  Mo175  1  0.69798994  0.29415866  0.63944995  1
  Mo  Mo176  1  0.70186635  0.89296582  0.62298834  1
  Mo  Mo177  1  0.70756270  0.49816187  0.12069956  1
  Mo  Mo178  1  0.60139147  0.59543468  0.25862196  1
  Mo  Mo179  1  -0.01389912  0.79624963  0.24484636  1
  Mo  Mo180  1  0.60054774  0.80749383  0.00165521  1
  Mo  Mo181  1  0.90188071  0.50978035  0.12063926  1
  Mo  Mo182  1  -0.00566106  0.21497725  -0.01213889  1
  Mo  Mo183  1  0.40822433  0.78659734  0.49993967  1
  Mo  Mo184  1  0.40396708  0.80473787  -0.00712018  1
  Mo  Mo185  1  0.88234923  0.09940771  0.10858002  1
  Mo  Mo186  1  0.90361350  0.49785449  0.86831688  1
  Mo  Mo187  1  -0.00385490  -0.00148391  -0.00826042  1
  Mo  Mo188  1  0.78618113  0.80072873  0.50328918  1
  Mo  Mo189  1  0.60694596  0.19672125  0.25280910  1
  Mo  Mo190  1  0.88963203  0.70794169  0.63004555  1
  Mo  Mo191  1  0.11651405  0.70247200  0.61872861  1
  Mo  Mo192  1  -0.00280518  0.59782451  0.51397110  1
  Mo  Mo193  1  0.29737706  0.30392451  0.87544151  1
  Mo  Mo194  1  0.71592682  0.50159253  0.37957781  1
  Mo  Mo195  1  0.78889091  0.00672645  0.00287170  1
  Mo  Mo196  1  0.30665817  0.70069173  0.38752892  1
  Mo  Mo197  1  0.49817725  0.69904120  0.62331543  1
  Mo  Mo198  1  0.80375569  0.00972506  0.74729351  1
  Mo  Mo199  1  0.77311328  0.21881638  -0.01419727  1
