# generated using pymatgen
data_HfZrTaTiMo
_symmetry_space_group_name_H-M   'P 1'
_cell_length_a   15.20443501
_cell_length_b   15.22402927
_cell_length_c   16.86311865
_cell_angle_alpha   90.03313803
_cell_angle_beta   90.06793896
_cell_angle_gamma   90.05215570
_symmetry_Int_Tables_number   1
_chemical_formula_structural   HfZrTaTiMo
_chemical_formula_sum   'Hf40 Zr40 Ta40 Ti40 Mo40'
_cell_volume   3903.34766070
_cell_formula_units_Z   40
loop_
 _symmetry_equiv_pos_site_id
 _symmetry_equiv_pos_as_xyz
  1  'x, y, z'
loop_
 _atom_site_type_symbol
 _atom_site_label
 _atom_site_symmetry_multiplicity
 _atom_site_fract_x
 _atom_site_fract_y
 _atom_site_fract_z
 _atom_site_occupancy
  Hf  Hf0  1  0.21395514  0.20021368  0.49634832  1
  Hf  Hf1  1  0.88723088  0.70455456  0.36112905  1
  Hf  Hf2  1  -0.00411973  0.40217357  0.49983529  1
  Hf  Hf3  1  0.28471209  0.89270361  0.87269611  1
  Hf  Hf4  1  0.30552008  0.89012593  0.37780532  1
  Hf  Hf5  1  0.29194442  0.69362635  0.37049685  1
  Hf  Hf6  1  0.41891811  0.19363362  0.50865198  1
  Hf  Hf7  1  0.70928555  0.29638894  0.87643884  1
  Hf  Hf8  1  0.79077558  0.40057503  0.49775613  1
  Hf  Hf9  1  0.80842233  0.00552036  0.50094971  1
  Hf  Hf10  1  0.60514054  0.00433739  0.24796698  1
  Hf  Hf11  1  0.08269857  0.70353080  0.63426931  1
  Hf  Hf12  1  0.41512070  0.39471511  -0.00461355  1
  Hf  Hf13  1  0.59445737  0.61261422  0.24870861  1
  Hf  Hf14  1  0.21740624  0.39936778  0.24913234  1
  Hf  Hf15  1  0.10033554  0.12018018  0.88177302  1
  Hf  Hf16  1  0.10544266  0.29594754  0.11390144  1
  Hf  Hf17  1  0.68513801  0.50489106  0.37853292  1
  Hf  Hf18  1  0.19220964  0.78503064  -0.00122025  1
  Hf  Hf19  1  0.09407515  0.90435393  0.37797057  1
  Hf  Hf20  1  0.90296602  0.29738292  0.36239317  1
  Hf  Hf21  1  0.30818857  0.08969816  0.37743785  1
  Hf  Hf22  1  0.08655654  0.69883416  0.36818762  1
  Hf  Hf23  1  0.60178745  0.78216498  0.75876557  1
  Hf  Hf24  1  0.79492686  0.80494709  0.50236029  1
  Hf  Hf25  1  0.67305682  0.50222931  0.62376819  1
  Hf  Hf26  1  0.09432406  0.91145379  0.11163092  1
  Hf  Hf27  1  0.51586074  0.09001731  0.38035752  1
  Hf  Hf28  1  0.42161652  0.18993508  0.73721027  1
  Hf  Hf29  1  0.41499376  0.20473082  0.25869235  1
  Hf  Hf30  1  0.20313853  0.19870804  0.25272065  1
  Hf  Hf31  1  0.58697099  0.80493125  -0.01600696  1
  Hf  Hf32  1  0.38393322  0.59448596  -0.00986621  1
  Hf  Hf33  1  0.48594721  0.71716508  0.12514473  1
  Hf  Hf34  1  0.41050192  -0.02780229  0.24744532  1
  Hf  Hf35  1  -0.02690547  0.80882642  0.75589265  1
  Hf  Hf36  1  0.28847536  0.69633499  0.63892924  1
  Hf  Hf37  1  0.11302078  0.10250458  0.62862958  1
  Hf  Hf38  1  0.91325134  0.29148111  0.87840813  1
  Hf  Hf39  1  0.89254210  0.51383510  0.62865226  1
  Zr  Zr40  1  0.80520844  0.60025007  -0.00834278  1
  Zr  Zr41  1  0.81322247  0.20405531  0.50212679  1
  Zr  Zr42  1  0.31123952  0.28602857  0.85868789  1
  Zr  Zr43  1  0.59520062  0.00688027  0.74964707  1
  Zr  Zr44  1  0.62011629  0.20632211  0.50046588  1
  Zr  Zr45  1  0.60778552  0.00833550  -0.00843543  1
  Zr  Zr46  1  0.31708977  0.07796908  0.62745480  1
  Zr  Zr47  1  0.79074689  0.61652548  0.75985932  1
  Zr  Zr48  1  0.81402770  -0.00539141  0.00671954  1
  Zr  Zr49  1  0.08197306  0.90975086  0.62100309  1
  Zr  Zr50  1  0.19521638  0.80364737  0.24180388  1
  Zr  Zr51  1  0.40192284  0.59757730  0.49823051  1
  Zr  Zr52  1  0.72412560  0.89203815  0.86186102  1
  Zr  Zr53  1  0.00433884  0.18834717  0.49291802  1
  Zr  Zr54  1  0.31009769  0.88515232  0.11339445  1
  Zr  Zr55  1  0.21962874  0.40274378  -0.00853853  1
  Zr  Zr56  1  0.18724830  -0.00347122  0.75998091  1
  Zr  Zr57  1  0.00336720  0.41266800  0.75563461  1
  Zr  Zr58  1  0.50871636  0.10494893  0.12293166  1
  Zr  Zr59  1  0.49791612  0.68290417  0.63086064  1
  Zr  Zr60  1  0.90184564  0.29208341  0.12256698  1
  Zr  Zr61  1  0.10277322  0.30115885  0.62014793  1
  Zr  Zr62  1  0.48213204  0.90570194  0.63393856  1
  Zr  Zr63  1  0.68905946  0.91225412  0.37898745  1
  Zr  Zr64  1  -0.02756840  0.80227253  0.00122192  1
  Zr  Zr65  1  0.01478886  0.40641298  0.24791850  1
  Zr  Zr66  1  0.71738130  0.11106219  0.13626699  1
  Zr  Zr67  1  0.70175986  0.51054409  0.12416479  1
  Zr  Zr68  1  0.40175910  -0.00128942  -0.00990221  1
  Zr  Zr69  1  0.30268995  0.09523059  0.12736386  1
  Zr  Zr70  1  0.20295681  0.39234271  0.75172570  1
  Zr  Zr71  1  0.21952799  0.19531316  -0.00074128  1
  Zr  Zr72  1  0.80400036  0.41585082  0.24404440  1
  Zr  Zr73  1  0.28738505  0.66896324  0.13301067  1
  Zr  Zr74  1  0.78095008  0.79161723  0.01583969  1
  Zr  Zr75  1  0.07493380  0.69153514  0.12696286  1
  Zr  Zr76  1  0.11609872  0.50706819  0.10965390  1
  Zr  Zr77  1  0.59094423  0.60593216  -0.00723207  1
  Zr  Zr78  1  0.91502123  0.08834319  0.63472642  1
  Zr  Zr79  1  0.07496352  0.69801348  0.87043989  1
  Ta  Ta80  1  0.19369370  0.60001278  0.50274493  1
  Ta  Ta81  1  0.19891265  0.00141950  0.24755829  1
  Ta  Ta82  1  0.59064154  0.40526662  0.24701207  1
  Ta  Ta83  1  0.71254166  0.30534758  0.63515626  1
  Ta  Ta84  1  0.69855375  0.30033433  0.13281116  1
  Ta  Ta85  1  0.90136153  0.51144159  0.37359229  1
  Ta  Ta86  1  0.21177640  0.40375224  0.50461749  1
  Ta  Ta87  1  0.70749511  0.10117065  0.63717317  1
  Ta  Ta88  1  -0.00061995  0.40440156  -0.00789895  1
  Ta  Ta89  1  -0.00807029  0.61012586  0.49891910  1
  Ta  Ta90  1  0.58789897  0.80130401  0.50589421  1
  Ta  Ta91  1  0.51980583  0.31486509  0.62306065  1
  Ta  Ta92  1  0.77470812  0.80132074  0.24372788  1
  Ta  Ta93  1  0.19108037  0.79378922  0.50317457  1
  Ta  Ta94  1  0.18221913  0.58938187  0.74757254  1
  Ta  Ta95  1  0.79509301  0.60523273  0.49899182  1
  Ta  Ta96  1  0.68271844  0.89790988  0.12903978  1
  Ta  Ta97  1  0.40921032  0.39874459  0.50490212  1
  Ta  Ta98  1  0.10144110  0.50039642  0.38540845  1
  Ta  Ta99  1  0.42348051  0.40895680  0.74414618  1
  Ta  Ta100  1  0.30032730  0.49360123  0.38157242  1
  Ta  Ta101  1  0.11256932  0.30362504  0.37942382  1
  Ta  Ta102  1  0.68614652  0.70655550  0.38118805  1
  Ta  Ta103  1  0.89484123  0.90596494  0.36001116  1
  Ta  Ta104  1  0.10545464  0.50638054  0.88542012  1
  Ta  Ta105  1  0.71745927  0.10196819  0.86400962  1
  Ta  Ta106  1  0.28121858  0.68817297  0.85822455  1
  Ta  Ta107  1  0.39339909  0.79329111  0.76039148  1
  Ta  Ta108  1  0.10047806  0.50657587  0.61661710  1
  Ta  Ta109  1  0.57444824  0.81171052  0.25762537  1
  Ta  Ta110  1  -0.01394422  0.80785088  0.49895832  1
  Ta  Ta111  1  0.72169636  0.11115615  0.35641846  1
  Ta  Ta112  1  0.09857322  0.10175811  0.11320177  1
  Ta  Ta113  1  0.69351039  0.49128218  0.87584358  1
  Ta  Ta114  1  0.69979378  0.69982967  0.61814236  1
  Ta  Ta115  1  0.61434536  0.20980663  0.74601960  1
  Ta  Ta116  1  0.31109107  0.29857825  0.63025345  1
  Ta  Ta117  1  0.79836510  0.40273102  0.75487505  1
  Ta  Ta118  1  0.70022141  0.30101658  0.35575686  1
  Ta  Ta119  1  0.50986419  0.30305301  0.12798914  1
  Ti  Ti120  1  0.51151256  0.31583053  0.38035402  1
  Ti  Ti121  1  0.90707455  0.51467824  0.87259965  1
  Ti  Ti122  1  0.59435048  0.00210039  0.51696224  1
  Ti  Ti123  1  0.90871503  0.09159311  0.36106819  1
  Ti  Ti124  1  -0.01481449  0.80662190  0.23877614  1
  Ti  Ti125  1  0.28356435  0.88885402  0.63858500  1
  Ti  Ti126  1  0.49265752  0.70610172  0.38174492  1
  Ti  Ti127  1  0.31167655  0.30258447  0.38081288  1
  Ti  Ti128  1  0.39897058  0.59085752  0.25922279  1
  Ti  Ti129  1  0.48805905  0.50189893  0.12623005  1
  Ti  Ti130  1  0.39754070  0.78797870  -0.02339766  1
  Ti  Ti131  1  0.90377948  0.30250156  0.63472507  1
  Ti  Ti132  1  0.31000986  0.09371249  0.86329512  1
  Ti  Ti133  1  0.57515707  0.58081085  0.76866166  1
  Ti  Ti134  1  0.01048505  0.19464528  0.25157857  1
  Ti  Ti135  1  0.10492345  0.09565610  0.37565047  1
  Ti  Ti136  1  -0.00089083  0.00893903  -0.01379703  1
  Ti  Ti137  1  0.38939066  0.80446808  0.51018964  1
  Ti  Ti138  1  0.49168197  0.90507954  0.86211969  1
  Ti  Ti139  1  0.60627473  0.40158874  0.00610561  1
  Ti  Ti140  1  0.40737720  0.40459809  0.25516531  1
  Ti  Ti141  1  0.01906527  0.20787873  0.75274088  1
  Ti  Ti142  1  0.18740671  0.58551827  0.25799507  1
  Ti  Ti143  1  0.80253145  0.39790719  0.00255543  1
  Ti  Ti144  1  0.41633848  0.20145635  -0.00263170  1
  Ti  Ti145  1  -0.01416093  0.00419695  0.77553593  1
  Ti  Ti146  1  0.91373993  0.09404580  0.13192875  1
  Ti  Ti147  1  0.81007578  0.19330305  -0.00192943  1
  Ti  Ti148  1  0.00743147  0.00018121  0.24450868  1
  Ti  Ti149  1  0.51722374  0.30942863  0.86810418  1
  Ti  Ti150  1  0.70326044  0.90114192  0.63285047  1
  Ti  Ti151  1  0.20578993  -0.00999106  0.50174190  1
  Ti  Ti152  1  0.87618855  0.68841073  0.14562967  1
  Ti  Ti153  1  0.51123686  0.11266881  0.87459317  1
  Ti  Ti154  1  0.60932922  0.20913189  -0.00151052  1
  Ti  Ti155  1  0.30551842  0.49878273  0.62973266  1
  Ti  Ti156  1  0.31817157  0.30258831  0.12668195  1
  Ti  Ti157  1  0.81756360  0.19451615  0.75122649  1
  Ti  Ti158  1  0.30957276  0.49859043  0.85929083  1
  Ti  Ti159  1  0.91428762  0.50878055  0.12183239  1
  Mo  Mo160  1  0.60357784  0.21209624  0.25649188  1
  Mo  Mo161  1  0.49668622  0.89569345  0.39390142  1
  Mo  Mo162  1  0.60044559  0.60999448  0.49403819  1
  Mo  Mo163  1  0.10189529  0.30804782  0.88355965  1
  Mo  Mo164  1  -0.00712410  0.59794904  0.74949483  1
  Mo  Mo165  1  -0.00952349  0.59542851  -0.00169647  1
  Mo  Mo166  1  -0.00372246  0.19718604  0.00592568  1
  Mo  Mo167  1  0.19887736  0.59794413  -0.01239257  1
  Mo  Mo168  1  0.68821480  0.69255107  0.87187188  1
  Mo  Mo169  1  0.48138885  0.69537291  0.86728255  1
  Mo  Mo170  1  0.51632939  0.10451518  0.62051925  1
  Mo  Mo171  1  0.50044496  0.48988444  0.88007641  1
  Mo  Mo172  1  0.20907741  0.19954484  0.74853339  1
  Mo  Mo173  1  0.18905589  0.79642651  0.75295277  1
  Mo  Mo174  1  0.79183212  0.80415164  0.73430557  1
  Mo  Mo175  1  0.50076968  0.89728176  0.11712736  1
  Mo  Mo176  1  0.89261018  0.90274720  0.14317979  1
  Mo  Mo177  1  0.81356743  0.20008784  0.24890929  1
  Mo  Mo178  1  0.40279899  0.78293849  0.25649950  1
  Mo  Mo179  1  0.38991714  0.59304650  0.75368173  1
  Mo  Mo180  1  -0.00857273  0.59310435  0.25377471  1
  Mo  Mo181  1  0.49459623  0.49729266  0.62442186  1
  Mo  Mo182  1  0.40329041  -0.01248580  0.49909824  1
  Mo  Mo183  1  0.59499956  0.40047775  0.49508501  1
  Mo  Mo184  1  0.68434039  0.70687226  0.13315457  1
  Mo  Mo185  1  0.09216666  0.90604244  0.89005314  1
  Mo  Mo186  1  0.89157259  0.89746129  0.62179324  1
  Mo  Mo187  1  0.49145785  0.50144307  0.37027126  1
  Mo  Mo188  1  0.89220669  0.70389038  0.61711386  1
  Mo  Mo189  1  0.89573564  0.10233361  0.87159418  1
  Mo  Mo190  1  0.40031939  -0.00400712  0.76400057  1
  Mo  Mo191  1  0.79178653  0.60738108  0.25603061  1
  Mo  Mo192  1  0.90095517  0.89987039  0.87839803  1
  Mo  Mo193  1  0.31458763  0.49259374  0.12999178  1
  Mo  Mo194  1  0.60942064  0.39774779  0.75479151  1
  Mo  Mo195  1  0.87718091  0.70861618  0.87510177  1
  Mo  Mo196  1  0.80793740  -0.00296999  0.74484091  1
  Mo  Mo197  1  0.81131339  -0.00539423  0.24486150  1
  Mo  Mo198  1  0.19036687  -0.00315363  -0.01179263  1
  Mo  Mo199  1  -0.00106080  -0.00376323  0.48742794  1
