# generated using pymatgen
data_HfZrTaTiMo
_symmetry_space_group_name_H-M   'P 1'
_cell_length_a   15.20678233
_cell_length_b   15.20800056
_cell_length_c   16.87668781
_cell_angle_alpha   89.99189170
_cell_angle_beta   90.03350185
_cell_angle_gamma   90.04046168
_symmetry_Int_Tables_number   1
_chemical_formula_structural   HfZrTaTiMo
_chemical_formula_sum   'Hf40 Zr40 Ta40 Ti40 Mo40'
_cell_volume   3902.98137895
_cell_formula_units_Z   40
loop_
 _symmetry_equiv_pos_site_id
 _symmetry_equiv_pos_as_xyz
  1  'x, y, z'
loop_
 _atom_site_type_symbol
 _atom_site_label
 _atom_site_symmetry_multiplicity
 _atom_site_fract_x
 _atom_site_fract_y
 _atom_site_fract_z
 _atom_site_occupancy
  Hf  Hf0  1  0.01058351  0.79055040  0.75112081  1
  Hf  Hf1  1  0.50016487  0.09368042  0.85989842  1
  Hf  Hf2  1  0.39684070  0.80033418  0.74857186  1
  Hf  Hf3  1  0.91265919  0.07946972  0.11670984  1
  Hf  Hf4  1  0.21396460  0.20810328  0.00328705  1
  Hf  Hf5  1  -0.01024682  0.39804723  0.49723578  1
  Hf  Hf6  1  0.50630684  0.88651778  0.12646039  1
  Hf  Hf7  1  0.90339167  0.89882385  0.87678723  1
  Hf  Hf8  1  0.71095125  0.68588704  0.62655562  1
  Hf  Hf9  1  0.59854734  0.58162877  0.51018749  1
  Hf  Hf10  1  0.40081560  0.81051825  0.50233238  1
  Hf  Hf11  1  0.61515561  0.78449664  0.25600104  1
  Hf  Hf12  1  0.68088294  0.52481427  0.12336070  1
  Hf  Hf13  1  0.19006460  0.40406428  0.25480375  1
  Hf  Hf14  1  0.71688613  0.68283972  0.38539801  1
  Hf  Hf15  1  0.91421762  0.91444381  0.38260820  1
  Hf  Hf16  1  0.61146300  0.19514808  -0.00342816  1
  Hf  Hf17  1  0.79265599  0.18950828  0.50214347  1
  Hf  Hf18  1  0.30184238  0.91208804  0.87456383  1
  Hf  Hf19  1  0.29011696  0.51825834  0.12756594  1
  Hf  Hf20  1  0.00248720  -0.00566386  0.73914187  1
  Hf  Hf21  1  0.40814933  0.00539234  0.49854855  1
  Hf  Hf22  1  0.49969541  0.68918884  0.38814838  1
  Hf  Hf23  1  0.49856410  0.48382921  0.64054514  1
  Hf  Hf24  1  0.68054984  0.28505977  0.63073750  1
  Hf  Hf25  1  0.81769389  0.79339197  0.50263940  1
  Hf  Hf26  1  0.29082235  0.69680609  0.88622833  1
  Hf  Hf27  1  0.61137743  -0.00978666  0.24840253  1
  Hf  Hf28  1  0.11614905  0.50571398  0.86498269  1
  Hf  Hf29  1  0.78450227  0.39182326  -0.00886910  1
  Hf  Hf30  1  0.89437562  0.10504150  0.63218795  1
  Hf  Hf31  1  0.40776244  0.78989139  0.25638964  1
  Hf  Hf32  1  0.77875296  0.60180251  -0.02082185  1
  Hf  Hf33  1  0.20249730  -0.01121623  0.49116277  1
  Hf  Hf34  1  0.50894046  0.90104532  0.86248521  1
  Hf  Hf35  1  0.10723851  0.09477177  0.86844718  1
  Hf  Hf36  1  0.18884669  0.41616926  0.01294870  1
  Hf  Hf37  1  0.61147403  0.80915825  0.50497767  1
  Hf  Hf38  1  0.87805236  0.52300871  0.36905596  1
  Hf  Hf39  1  -0.00289867  0.20882895  0.74364382  1
  Zr  Zr40  1  0.39683903  0.40683762  0.49815558  1
  Zr  Zr41  1  0.40836256  0.20973730  0.50154930  1
  Zr  Zr42  1  0.19241747  0.39496399  0.48744817  1
  Zr  Zr43  1  0.39249357  0.59630330  0.75694609  1
  Zr  Zr44  1  0.79428846  0.40457065  0.24943305  1
  Zr  Zr45  1  0.41264096  0.80652058  -0.00381717  1
  Zr  Zr46  1  0.11192719  0.88845552  0.62462117  1
  Zr  Zr47  1  0.40023971  0.20732777  0.24846496  1
  Zr  Zr48  1  0.19683871  0.82489482  0.25663368  1
  Zr  Zr49  1  0.31044179  0.11525021  0.86839723  1
  Zr  Zr50  1  0.58018845  0.39609829  0.23610942  1
  Zr  Zr51  1  0.81534808  0.79477113  0.25966642  1
  Zr  Zr52  1  0.29676438  0.91872883  0.12504758  1
  Zr  Zr53  1  0.28563963  0.70693772  0.61963043  1
  Zr  Zr54  1  0.89913352  0.28602566  0.36497015  1
  Zr  Zr55  1  0.60507345  -0.01370891  0.00235585  1
  Zr  Zr56  1  -0.00399845  0.39633155  0.01094874  1
  Zr  Zr57  1  0.08638504  0.50501982  0.37297038  1
  Zr  Zr58  1  0.89917681  0.10092450  0.87006934  1
  Zr  Zr59  1  0.69160930  0.29852549  0.12711238  1
  Zr  Zr60  1  0.78622613  0.39609491  0.49178631  1
  Zr  Zr61  1  0.72333783  0.08200061  0.36518584  1
  Zr  Zr62  1  0.09176801  0.50506993  0.62668142  1
  Zr  Zr63  1  0.09295303  0.30696464  0.86982173  1
  Zr  Zr64  1  0.00726377  0.19093797  0.00077206  1
  Zr  Zr65  1  0.51226524  0.10886824  0.36524604  1
  Zr  Zr66  1  0.28654699  0.49922417  0.63059860  1
  Zr  Zr67  1  0.89313377  0.71423749  0.10571291  1
  Zr  Zr68  1  0.31212625  0.71037276  0.11750237  1
  Zr  Zr69  1  0.72264595  0.89671855  0.12360570  1
  Zr  Zr70  1  -0.00994400  0.61317757  0.24289458  1
  Zr  Zr71  1  0.39246893  0.41428659  0.24391422  1
  Zr  Zr72  1  0.67335881  0.49019499  0.36689972  1
  Zr  Zr73  1  0.70319768  0.09094077  0.85721857  1
  Zr  Zr74  1  0.48901361  0.29213649  0.88584062  1
  Zr  Zr75  1  0.30009279  0.10911039  0.62497545  1
  Zr  Zr76  1  0.89103689  0.28036607  0.13178158  1
  Zr  Zr77  1  0.60935741  0.01050715  0.50762350  1
  Zr  Zr78  1  0.70487764  0.48223358  0.64062838  1
  Zr  Zr79  1  0.88851696  0.50535858  0.12357767  1
  Ta  Ta80  1  0.80195219  -0.01517587  0.51912931  1
  Ta  Ta81  1  0.80984864  0.78961892  0.74933096  1
  Ta  Ta82  1  0.51140336  0.70081721  0.87340835  1
  Ta  Ta83  1  0.38838975  0.39778938  0.00704158  1
  Ta  Ta84  1  0.71488891  0.10430698  0.13335683  1
  Ta  Ta85  1  0.11511509  0.09135756  0.13455824  1
  Ta  Ta86  1  0.29833168  0.51998127  0.37256774  1
  Ta  Ta87  1  0.20637283  -0.00115527  0.74623730  1
  Ta  Ta88  1  0.00221945  0.19977319  0.50288480  1
  Ta  Ta89  1  0.30687148  0.90599718  0.63150075  1
  Ta  Ta90  1  0.19246369  0.20093489  0.48755859  1
  Ta  Ta91  1  0.58763867  0.42021497  -0.00823999  1
  Ta  Ta92  1  0.29563505  0.70939519  0.38410509  1
  Ta  Ta93  1  0.40987356  0.59002643  -0.00647312  1
  Ta  Ta94  1  0.50517544  0.09968470  0.13004235  1
  Ta  Ta95  1  0.90676722  0.49506133  0.87712200  1
  Ta  Ta96  1  0.80346038  0.59375947  0.76789061  1
  Ta  Ta97  1  0.60271879  0.59699339  0.76044967  1
  Ta  Ta98  1  0.20138695  0.61621918  0.25516398  1
  Ta  Ta99  1  0.51049162  0.11244452  0.64231654  1
  Ta  Ta100  1  0.10743414  0.69912354  0.11841659  1
  Ta  Ta101  1  0.90616215  0.69780608  0.88559336  1
  Ta  Ta102  1  0.29365149  0.32279012  0.86789056  1
  Ta  Ta103  1  -0.00702342  0.60197513  0.75663759  1
  Ta  Ta104  1  0.20098708  0.21025853  0.74568621  1
  Ta  Ta105  1  0.10234408  0.30058428  0.62607252  1
  Ta  Ta106  1  0.09993209  0.29123569  0.13876990  1
  Ta  Ta107  1  0.89336439  0.50894998  0.62782806  1
  Ta  Ta108  1  0.68649102  0.27707001  0.36045075  1
  Ta  Ta109  1  0.08696007  0.08884767  0.37712741  1
  Ta  Ta110  1  0.18816178  0.81167954  0.00280362  1
  Ta  Ta111  1  0.20035196  0.00790918  0.00073484  1
  Ta  Ta112  1  0.50275570  0.69689862  0.62657815  1
  Ta  Ta113  1  0.78893816  0.80471353  -0.01550402  1
  Ta  Ta114  1  0.29604670  0.09914310  0.37159757  1
  Ta  Ta115  1  0.60198612  0.38534224  0.77043590  1
  Ta  Ta116  1  -0.00220682  0.17636054  0.25256135  1
  Ta  Ta117  1  0.50328573  0.30638361  0.37108620  1
  Ta  Ta118  1  0.09582611  0.71123240  0.37892975  1
  Ta  Ta119  1  0.01487817  0.59479409  0.00401549  1
  Ti  Ti120  1  -0.01005435  0.40509501  0.74591884  1
  Ti  Ti121  1  0.49169705  0.29565807  0.10893837  1
  Ti  Ti122  1  -0.01600730  0.61184956  0.49511747  1
  Ti  Ti123  1  0.90848269  0.69583662  0.62746680  1
  Ti  Ti124  1  0.08685728  0.90188893  0.12206910  1
  Ti  Ti125  1  0.79032656  0.22046549  0.75385379  1
  Ti  Ti126  1  0.09748522  0.70345218  0.88791293  1
  Ti  Ti127  1  0.29789861  0.30335087  0.37268281  1
  Ti  Ti128  1  0.48794606  0.49428890  0.86859664  1
  Ti  Ti129  1  0.51054249  0.90116659  0.37394598  1
  Ti  Ti130  1  0.83317600  -0.00201901  0.24749758  1
  Ti  Ti131  1  0.18987979  0.62047442  0.75053451  1
  Ti  Ti132  1  0.39417641  0.60161171  0.51009874  1
  Ti  Ti133  1  0.89081828  0.31110183  0.62657657  1
  Ti  Ti134  1  0.01318567  -0.01572974  -0.00512943  1
  Ti  Ti135  1  0.29884769  0.30928667  0.63091268  1
  Ti  Ti136  1  0.69915223  0.89053179  0.86245316  1
  Ti  Ti137  1  0.19284885  0.20006249  0.26400329  1
  Ti  Ti138  1  0.39497288  -0.00496533  0.25706582  1
  Ti  Ti139  1  0.40494995  0.21827870  0.74294974  1
  Ti  Ti140  1  0.48496402  0.50113539  0.37638031  1
  Ti  Ti141  1  0.19092805  0.60630381  0.49370335  1
  Ti  Ti142  1  0.09704851  0.69556216  0.61724816  1
  Ti  Ti143  1  0.00355622  0.81163113  0.25087067  1
  Ti  Ti144  1  0.57084794  0.60109520  0.24355714  1
  Ti  Ti145  1  0.88948920  0.29795872  0.87660922  1
  Ti  Ti146  1  0.79986259  -0.02358193  0.73261032  1
  Ti  Ti147  1  0.58893349  0.37531758  0.50153050  1
  Ti  Ti148  1  0.60951934  0.79591417  0.73844802  1
  Ti  Ti149  1  0.69539801  0.09154724  0.64395562  1
  Ti  Ti150  1  0.01321802  0.80677659  0.49957873  1
  Ti  Ti151  1  0.50793802  0.90843890  0.63686667  1
  Ti  Ti152  1  0.30429608  0.10788061  0.13421690  1
  Ti  Ti153  1  0.40207057  0.01983263  0.00650480  1
  Ti  Ti154  1  0.10837077  0.89352059  0.87208569  1
  Ti  Ti155  1  0.10612627  0.10482335  0.62246656  1
  Ti  Ti156  1  0.80113092  0.00616452  -0.00406307  1
  Ti  Ti157  1  -0.00068421  0.39390537  0.24646527  1
  Ti  Ti158  1  -0.00277824  0.00302852  0.51543044  1
  Ti  Ti159  1  0.29457511  0.29986613  0.13085754  1
  Mo  Mo160  1  0.69973831  0.29787203  0.87806207  1
  Mo  Mo161  1  0.91495407  0.70439003  0.37932581  1
  Mo  Mo162  1  0.09635696  0.28669343  0.36486053  1
  Mo  Mo163  1  0.20283402  0.01445130  0.25926887  1
  Mo  Mo164  1  0.30150669  0.49863206  0.87947481  1
  Mo  Mo165  1  0.31478086  0.90756328  0.37202961  1
  Mo  Mo166  1  0.48855046  0.50478770  0.11321978  1
  Mo  Mo167  1  0.10630936  0.89947314  0.38240613  1
  Mo  Mo168  1  0.77604845  0.61825256  0.24434803  1
  Mo  Mo169  1  0.70491976  0.89585698  0.37896850  1
  Mo  Mo170  1  0.19835745  0.60822050  0.00134184  1
  Mo  Mo171  1  0.80960159  0.39590845  0.75984680  1
  Mo  Mo172  1  0.80017839  0.19244093  -0.00527545  1
  Mo  Mo173  1  0.20259655  0.79764277  0.49187428  1
  Mo  Mo174  1  0.70384583  0.88993562  0.63394633  1
  Mo  Mo175  1  0.39465713  0.39674652  0.75392192  1
  Mo  Mo176  1  0.51552184  0.68370604  0.11617275  1
  Mo  Mo177  1  0.59979702  0.19397795  0.23732607  1
  Mo  Mo178  1  0.40003552  0.19877336  0.01287207  1
  Mo  Mo179  1  0.80736982  0.59231515  0.50936986  1
  Mo  Mo180  1  0.90823935  0.89937165  0.11074103  1
  Mo  Mo181  1  0.69361000  0.49528675  0.86489201  1
  Mo  Mo182  1  0.91020392  0.09451212  0.38609741  1
  Mo  Mo183  1  0.39519012  0.60898162  0.25563343  1
  Mo  Mo184  1  0.69011064  0.70589133  0.11834490  1
  Mo  Mo185  1  0.60490267  -0.01134165  0.73972765  1
  Mo  Mo186  1  0.80342696  0.18521053  0.25083926  1
  Mo  Mo187  1  0.49473780  0.29936342  0.63418205  1
  Mo  Mo188  1  0.00347353  0.79949625  -0.00566761  1
  Mo  Mo189  1  0.59210406  0.60337317  -0.01959742  1
  Mo  Mo190  1  0.19582935  0.39931957  0.74473032  1
  Mo  Mo191  1  0.01629130  -0.01371584  0.24812456  1
  Mo  Mo192  1  0.70078423  0.70726809  0.85810529  1
  Mo  Mo193  1  0.60171279  0.20162696  0.49808131  1
  Mo  Mo194  1  0.61202411  0.78742233  -0.00568563  1
  Mo  Mo195  1  0.09465373  0.50755998  0.13844848  1
  Mo  Mo196  1  0.40091310  0.00431600  0.73855951  1
  Mo  Mo197  1  0.90527358  0.88978965  0.62359471  1
  Mo  Mo198  1  0.20081094  0.80311304  0.75944310  1
  Mo  Mo199  1  0.60007372  0.19877030  0.75946739  1
