# generated using pymatgen
data_HfZrTaTiMo
_symmetry_space_group_name_H-M   'P 1'
_cell_length_a   15.20899571
_cell_length_b   15.21204105
_cell_length_c   16.86081736
_cell_angle_alpha   89.92285456
_cell_angle_beta   90.03348865
_cell_angle_gamma   89.98610949
_symmetry_Int_Tables_number   1
_chemical_formula_structural   HfZrTaTiMo
_chemical_formula_sum   'Hf40 Zr40 Ta40 Ti40 Mo40'
_cell_volume   3900.91214376
_cell_formula_units_Z   40
loop_
 _symmetry_equiv_pos_site_id
 _symmetry_equiv_pos_as_xyz
  1  'x, y, z'
loop_
 _atom_site_type_symbol
 _atom_site_label
 _atom_site_symmetry_multiplicity
 _atom_site_fract_x
 _atom_site_fract_y
 _atom_site_fract_z
 _atom_site_occupancy
  Hf  Hf0  1  0.09827548  0.50016972  0.12394581  1
  Hf  Hf1  1  0.31496880  0.48820700  0.62293124  1
  Hf  Hf2  1  0.49337127  0.10622049  0.86782147  1
  Hf  Hf3  1  0.69238474  0.10386119  0.37359468  1
  Hf  Hf4  1  0.80181134  -0.00083990  0.74293449  1
  Hf  Hf5  1  0.60057055  0.59817576  0.23875108  1
  Hf  Hf6  1  0.29406729  0.50370007  0.88803478  1
  Hf  Hf7  1  -0.00127824  0.58747902  0.76110777  1
  Hf  Hf8  1  -0.01545518  0.80625404  0.25315233  1
  Hf  Hf9  1  0.20027921  0.39689855  0.49376445  1
  Hf  Hf10  1  0.60889436  0.81363340  0.24618912  1
  Hf  Hf11  1  0.21172538  0.81284074  0.24736393  1
  Hf  Hf12  1  0.70349381  0.50930533  0.63989721  1
  Hf  Hf13  1  0.79606558  0.19748652  0.73652832  1
  Hf  Hf14  1  0.01201026  0.80575244  0.76713778  1
  Hf  Hf15  1  0.61669236  0.80027740  0.01184366  1
  Hf  Hf16  1  0.38618029  -0.00420661  0.25810822  1
  Hf  Hf17  1  0.19534002  0.20845790  0.00134800  1
  Hf  Hf18  1  0.21327459  0.60276378  0.74740147  1
  Hf  Hf19  1  0.29902281  0.30360016  0.87468852  1
  Hf  Hf20  1  0.20143496  0.40340426  0.25907561  1
  Hf  Hf21  1  0.69287927  0.88797763  0.87176951  1
  Hf  Hf22  1  0.71161700  0.66918080  0.87275675  1
  Hf  Hf23  1  0.90504988  0.29564033  0.12591487  1
  Hf  Hf24  1  0.20536046  0.60239906  0.50155488  1
  Hf  Hf25  1  0.30899228  0.69918936  0.37321899  1
  Hf  Hf26  1  0.89756552  0.69105058  0.37293440  1
  Hf  Hf27  1  0.29863606  0.90726417  0.87637475  1
  Hf  Hf28  1  0.89288809  0.90129718  0.88902079  1
  Hf  Hf29  1  0.80680664  0.58384474  0.25102608  1
  Hf  Hf30  1  0.58984227  0.40108146  0.75415805  1
  Hf  Hf31  1  -0.00222568  0.21239940  0.75073784  1
  Hf  Hf32  1  0.50456808  0.50977769  0.61548614  1
  Hf  Hf33  1  0.28349417  0.89693958  0.62278813  1
  Hf  Hf34  1  0.61717355  0.20041990  0.00545569  1
  Hf  Hf35  1  0.20322829  0.19121879  0.73731993  1
  Hf  Hf36  1  0.69585166  0.69794011  0.37060194  1
  Hf  Hf37  1  0.29724987  0.10270207  0.12971638  1
  Hf  Hf38  1  0.69992146  0.30613485  0.62098162  1
  Hf  Hf39  1  0.71652606  0.30050833  0.37872015  1
  Zr  Zr40  1  0.21349548  0.19590166  0.51147441  1
  Zr  Zr41  1  0.59310547  0.02436573  0.50903421  1
  Zr  Zr42  1  0.30815277  0.70675345  0.12102434  1
  Zr  Zr43  1  0.89613271  0.49560591  0.11717585  1
  Zr  Zr44  1  0.30236438  0.30953884  0.13428942  1
  Zr  Zr45  1  0.09325571  0.92097596  0.37515743  1
  Zr  Zr46  1  -0.00620951  0.19745742  0.26034794  1
  Zr  Zr47  1  0.40673155  0.20160974  0.00053241  1
  Zr  Zr48  1  0.10934936  0.70937956  0.63077725  1
  Zr  Zr49  1  0.69565133  0.09746102  0.87014334  1
  Zr  Zr50  1  0.70492416  0.89922682  0.62095706  1
  Zr  Zr51  1  0.72668126  0.70398503  0.12541878  1
  Zr  Zr52  1  0.78327687  0.00654080  0.01366079  1
  Zr  Zr53  1  0.89646129  0.68611302  0.62364373  1
  Zr  Zr54  1  -0.00559495  0.58661239  0.49603809  1
  Zr  Zr55  1  0.79511086  -0.01300584  0.24181465  1
  Zr  Zr56  1  0.10532916  0.69698981  0.36063863  1
  Zr  Zr57  1  0.49575911  0.49597056  0.11973419  1
  Zr  Zr58  1  0.39566862  0.79319766  0.75224109  1
  Zr  Zr59  1  0.60130133  0.40182173  0.26427679  1
  Zr  Zr60  1  0.61395306  0.41461305  0.48719841  1
  Zr  Zr61  1  0.19659653  0.39447356  0.74427192  1
  Zr  Zr62  1  0.19585556  0.80036473  -0.00441205  1
  Zr  Zr63  1  0.00553053  0.80197415  0.49301484  1
  Zr  Zr64  1  0.00225815  0.60253048  -0.01372534  1
  Zr  Zr65  1  0.59225488  0.01860609  0.72996604  1
  Zr  Zr66  1  0.48715723  0.89722262  0.62335635  1
  Zr  Zr67  1  0.09098876  0.49285026  0.62227532  1
  Zr  Zr68  1  -0.00557629  0.00834424  0.75921266  1
  Zr  Zr69  1  0.58555862  0.00008565  0.01248992  1
  Zr  Zr70  1  0.89920900  0.08299235  0.38700641  1
  Zr  Zr71  1  0.59825577  0.79992602  0.49923048  1
  Zr  Zr72  1  0.80865039  0.78606570  0.75007211  1
  Zr  Zr73  1  0.50992728  0.70162768  0.88506540  1
  Zr  Zr74  1  0.79565110  0.38887305  -0.00876250  1
  Zr  Zr75  1  0.40460721  0.21559323  0.73485425  1
  Zr  Zr76  1  0.88404778  0.88007139  0.10713490  1
  Zr  Zr77  1  0.09336784  0.90344783  0.12101720  1
  Zr  Zr78  1  0.48098565  0.89517788  0.13322328  1
  Zr  Zr79  1  0.50271285  0.29701887  0.13488874  1
  Ta  Ta80  1  0.41508277  0.19496640  0.49582039  1
  Ta  Ta81  1  0.09959779  0.10611604  0.87920840  1
  Ta  Ta82  1  0.59913211  0.79105921  0.74727522  1
  Ta  Ta83  1  0.09938527  0.69585922  0.13246710  1
  Ta  Ta84  1  0.79778829  0.19691639  0.50749084  1
  Ta  Ta85  1  0.49636232  0.30951883  0.61461751  1
  Ta  Ta86  1  -0.00160920  0.01061098  -0.00397388  1
  Ta  Ta87  1  0.08850690  0.11030617  0.12010113  1
  Ta  Ta88  1  0.09708323  0.30542748  0.12499965  1
  Ta  Ta89  1  0.38330682  0.01234054  0.73856108  1
  Ta  Ta90  1  0.40420495  0.39563061  0.48338782  1
  Ta  Ta91  1  0.39092925  0.00402447  -0.00112572  1
  Ta  Ta92  1  -0.00290513  0.40322184  0.26340040  1
  Ta  Ta93  1  0.78326070  0.58758137  0.49545306  1
  Ta  Ta94  1  0.29036680  0.09794191  0.37421752  1
  Ta  Ta95  1  0.89382526  0.48199357  0.62560832  1
  Ta  Ta96  1  -0.01057421  0.20764974  -0.00613292  1
  Ta  Ta97  1  0.09403625  0.09263946  0.62323315  1
  Ta  Ta98  1  0.10204553  0.29148189  0.37733500  1
  Ta  Ta99  1  0.31735567  0.69510141  0.61798445  1
  Ta  Ta100  1  0.30717594  0.69662748  0.88599645  1
  Ta  Ta101  1  0.08821999  0.31716735  0.87952007  1
  Ta  Ta102  1  0.50664907  0.50216537  0.88266625  1
  Ta  Ta103  1  0.30737854  0.29423662  0.37051586  1
  Ta  Ta104  1  0.38844975  0.00714817  0.49949675  1
  Ta  Ta105  1  0.49847632  0.90794779  0.37683011  1
  Ta  Ta106  1  0.39767773  0.59945193  0.24603201  1
  Ta  Ta107  1  0.49941197  0.52047669  0.38242446  1
  Ta  Ta108  1  0.49573585  0.70882206  0.36762835  1
  Ta  Ta109  1  0.70745382  0.29628939  0.13627306  1
  Ta  Ta110  1  0.89550991  0.49284952  0.87769746  1
  Ta  Ta111  1  -0.00650485  0.00431072  0.24083186  1
  Ta  Ta112  1  0.19774846  0.19887611  0.25340809  1
  Ta  Ta113  1  0.59011081  0.01316401  0.25154116  1
  Ta  Ta114  1  0.90871850  0.90019521  0.61722790  1
  Ta  Ta115  1  0.60163548  0.39672693  -0.00557550  1
  Ta  Ta116  1  0.18984559  -0.00410868  0.75392320  1
  Ta  Ta117  1  0.49821328  0.90898109  0.86642037  1
  Ta  Ta118  1  0.80270970  0.79724536  0.49937727  1
  Ta  Ta119  1  0.29427197  0.50472982  0.11281809  1
  Ti  Ti120  1  0.40061880  0.40010983  -0.00136252  1
  Ti  Ti121  1  0.09312637  0.90512631  0.62281243  1
  Ti  Ti122  1  0.09406098  0.50213246  0.37062296  1
  Ti  Ti123  1  0.19266463  0.00778201  -0.00315335  1
  Ti  Ti124  1  0.50115049  0.70102460  0.12387325  1
  Ti  Ti125  1  0.40282839  0.40732095  0.26629452  1
  Ti  Ti126  1  0.40858033  0.81025680  -0.00639224  1
  Ti  Ti127  1  0.41341154  0.19735887  0.26753640  1
  Ti  Ti128  1  0.90702013  0.29918284  0.61522349  1
  Ti  Ti129  1  0.69429116  0.69329440  0.62813043  1
  Ti  Ti130  1  0.11557567  0.68833635  0.87572063  1
  Ti  Ti131  1  0.00654766  0.19221097  0.49326951  1
  Ti  Ti132  1  0.89945114  0.09438987  0.61020994  1
  Ti  Ti133  1  0.62123414  0.58393566  0.01316848  1
  Ti  Ti134  1  0.39796334  0.79791922  0.49803781  1
  Ti  Ti135  1  0.91632817  0.69003751  0.12724051  1
  Ti  Ti136  1  0.81053202  0.39674448  0.76017860  1
  Ti  Ti137  1  0.29328461  0.90773305  0.11695406  1
  Ti  Ti138  1  -0.00563958  0.38571849  0.48573101  1
  Ti  Ti139  1  0.50454707  0.69361939  0.62315144  1
  Ti  Ti140  1  0.20307017  0.80137875  0.76132464  1
  Ti  Ti141  1  0.00509631  0.79769472  -0.01385764  1
  Ti  Ti142  1  0.19132554  0.00248662  0.50025579  1
  Ti  Ti143  1  0.89004043  0.11527058  0.88343475  1
  Ti  Ti144  1  0.50109638  0.30378749  0.87270057  1
  Ti  Ti145  1  0.30152625  0.89746331  0.38217102  1
  Ti  Ti146  1  0.49874571  0.10419509  0.13384896  1
  Ti  Ti147  1  0.30297140  0.50572472  0.37825983  1
  Ti  Ti148  1  0.40727851  0.60333217  0.00249862  1
  Ti  Ti149  1  0.88670608  0.48160456  0.38075323  1
  Ti  Ti150  1  0.88856044  0.10681407  0.12280423  1
  Ti  Ti151  1  0.70118565  0.29477411  0.86605697  1
  Ti  Ti152  1  0.71130199  0.90508168  0.38239933  1
  Ti  Ti153  1  0.09552282  0.29791281  0.61849523  1
  Ti  Ti154  1  0.29600053  0.10263001  0.87367105  1
  Ti  Ti155  1  0.41397089  0.59130723  0.75722638  1
  Ti  Ti156  1  0.80553980  0.38747529  0.25244565  1
  Ti  Ti157  1  0.20241403  0.80117832  0.49627859  1
  Ti  Ti158  1  0.20219904  0.59683894  0.24676887  1
  Ti  Ti159  1  0.18438918  0.01173171  0.24802952  1
  Mo  Mo160  1  0.81268760  0.40038709  0.50332489  1
  Mo  Mo161  1  0.79968604  0.19869746  0.00144656  1
  Mo  Mo162  1  0.90478960  0.29448602  0.38278074  1
  Mo  Mo163  1  0.49025668  0.10204211  0.37322019  1
  Mo  Mo164  1  0.80053521  -0.00510091  0.50626334  1
  Mo  Mo165  1  0.59496965  0.21245543  0.49820845  1
  Mo  Mo166  1  -0.00888426  0.39365217  0.74873325  1
  Mo  Mo167  1  0.10541459  0.10281376  0.37607585  1
  Mo  Mo168  1  0.60195650  0.19991296  0.25171363  1
  Mo  Mo169  1  0.60109170  0.21127574  0.74824038  1
  Mo  Mo170  1  0.79816257  0.19762959  0.25072248  1
  Mo  Mo171  1  0.40063580  0.41004709  0.75716624  1
  Mo  Mo172  1  0.90787735  0.69361034  0.87127888  1
  Mo  Mo173  1  0.00144215  0.00303157  0.50934499  1
  Mo  Mo174  1  0.50239246  0.30002628  0.37703395  1
  Mo  Mo175  1  0.20396508  0.60278713  0.00431213  1
  Mo  Mo176  1  0.69522429  0.11350891  0.14392485  1
  Mo  Mo177  1  0.89548937  0.29696676  0.87291789  1
  Mo  Mo178  1  0.10303717  0.49579085  0.87807905  1
  Mo  Mo179  1  0.00644154  0.39525908  -0.00265362  1
  Mo  Mo180  1  0.80180943  0.59016674  0.00194121  1
  Mo  Mo181  1  0.40640757  0.60534169  0.49554148  1
  Mo  Mo182  1  0.70397423  0.11186057  0.61568546  1
  Mo  Mo183  1  0.30996082  0.30253644  0.61246415  1
  Mo  Mo184  1  0.69547575  0.48755069  0.86916704  1
  Mo  Mo185  1  0.70570430  0.50606021  0.37297135  1
  Mo  Mo186  1  0.80439265  0.58326170  0.75010574  1
  Mo  Mo187  1  0.10185369  0.91061041  0.88264629  1
  Mo  Mo188  1  0.29906819  0.09076132  0.62023965  1
  Mo  Mo189  1  0.40329431  0.79965449  0.25830810  1
  Mo  Mo190  1  0.60010008  0.61213363  0.49746226  1
  Mo  Mo191  1  0.49552762  0.11355019  0.62417821  1
  Mo  Mo192  1  0.19346928  0.40319785  0.00125355  1
  Mo  Mo193  1  0.69880347  0.48578106  0.12258651  1
  Mo  Mo194  1  0.82060953  0.76606616  -0.01527180  1
  Mo  Mo195  1  0.80043407  0.79678158  0.25846407  1
  Mo  Mo196  1  0.59505555  0.60555396  0.75131286  1
  Mo  Mo197  1  0.88936991  0.89492219  0.38206243  1
  Mo  Mo198  1  0.00597349  0.59074839  0.25208089  1
  Mo  Mo199  1  0.68746417  0.90880714  0.13495607  1
