# generated using pymatgen
data_HfZrTaTiMo
_symmetry_space_group_name_H-M   'P 1'
_cell_length_a   15.21509820
_cell_length_b   15.20862372
_cell_length_c   16.86160562
_cell_angle_alpha   90.03789269
_cell_angle_beta   90.01143618
_cell_angle_gamma   90.04811738
_symmetry_Int_Tables_number   1
_chemical_formula_structural   HfZrTaTiMo
_chemical_formula_sum   'Hf40 Zr40 Ta40 Ti40 Mo40'
_cell_volume   3901.78509099
_cell_formula_units_Z   40
loop_
 _symmetry_equiv_pos_site_id
 _symmetry_equiv_pos_as_xyz
  1  'x, y, z'
loop_
 _atom_site_type_symbol
 _atom_site_label
 _atom_site_symmetry_multiplicity
 _atom_site_fract_x
 _atom_site_fract_y
 _atom_site_fract_z
 _atom_site_occupancy
  Hf  Hf0  1  0.60039883  0.19051169  0.47438545  1
  Hf  Hf1  1  0.91954324  0.69696169  0.63084579  1
  Hf  Hf2  1  0.10713641  0.30179792  0.63248798  1
  Hf  Hf3  1  0.78817117  0.20185491  0.74883650  1
  Hf  Hf4  1  0.30952855  0.87956236  0.63672069  1
  Hf  Hf5  1  0.80462347  0.20244369  0.48111415  1
  Hf  Hf6  1  0.22000347  0.00493030  0.75309423  1
  Hf  Hf7  1  0.49445410  0.09986850  0.89148704  1
  Hf  Hf8  1  0.90549894  0.30242791  0.61702026  1
  Hf  Hf9  1  0.19359353  0.00709627  0.24125293  1
  Hf  Hf10  1  0.60433694  0.60128147  0.24949829  1
  Hf  Hf11  1  0.70132444  0.50934203  0.38569028  1
  Hf  Hf12  1  0.17901062  0.58371263  0.24930592  1
  Hf  Hf13  1  0.19051982  0.60201945  0.50606781  1
  Hf  Hf14  1  0.48187377  0.89655931  0.87619104  1
  Hf  Hf15  1  0.69469193  0.89929312  0.38572875  1
  Hf  Hf16  1  0.20182333  0.38894693  0.50279923  1
  Hf  Hf17  1  0.10304113  0.09872751  0.87641839  1
  Hf  Hf18  1  0.10557115  0.89584497  0.86432221  1
  Hf  Hf19  1  0.60089561  0.22557811  0.27480550  1
  Hf  Hf20  1  0.60398993  0.02041920  0.25201938  1
  Hf  Hf21  1  0.89896931  0.49555862  0.62137375  1
  Hf  Hf22  1  0.28906304  0.49163423  0.36777989  1
  Hf  Hf23  1  0.09409264  0.50086920  0.87593542  1
  Hf  Hf24  1  0.00967744  0.41586054  0.24153907  1
  Hf  Hf25  1  0.50860053  0.70474607  0.38382938  1
  Hf  Hf26  1  -0.00099849  -0.00434035  0.24238418  1
  Hf  Hf27  1  0.59724476  0.00827411  0.75709656  1
  Hf  Hf28  1  0.68516255  0.90657052  0.61914747  1
  Hf  Hf29  1  0.82337164  0.81113005  0.51637528  1
  Hf  Hf30  1  0.48451119  0.71951411  0.61063461  1
  Hf  Hf31  1  0.21671868  0.41479262  -0.00288602  1
  Hf  Hf32  1  0.38739132  0.59197894  -0.00283371  1
  Hf  Hf33  1  0.19480017  0.79643246  0.00154522  1
  Hf  Hf34  1  0.10234462  0.30128176  0.11663580  1
  Hf  Hf35  1  0.88771276  0.29351793  0.88280012  1
  Hf  Hf36  1  0.50099131  0.90581405  0.13404892  1
  Hf  Hf37  1  0.70097056  0.30951461  0.13380475  1
  Hf  Hf38  1  -0.00748547  0.78343035  0.24343810  1
  Hf  Hf39  1  0.50608169  0.30911933  0.12287392  1
  Zr  Zr40  1  0.19461726  -0.01222363  0.51131949  1
  Zr  Zr41  1  0.09572607  0.52763342  0.09855830  1
  Zr  Zr42  1  0.70774064  0.10634220  0.11709748  1
  Zr  Zr43  1  0.49691331  0.11421838  0.62401446  1
  Zr  Zr44  1  0.90896563  0.09521770  0.12210138  1
  Zr  Zr45  1  0.89488057  0.30040011  0.12455293  1
  Zr  Zr46  1  0.50574345  0.50623561  0.86917935  1
  Zr  Zr47  1  0.50012172  0.49659273  0.61969578  1
  Zr  Zr48  1  0.70704058  0.70777225  0.38901647  1
  Zr  Zr49  1  0.79542015  0.59029529  -0.00200960  1
  Zr  Zr50  1  0.48983093  0.90915754  0.35637962  1
  Zr  Zr51  1  0.19676846  0.79187558  0.24298765  1
  Zr  Zr52  1  0.79892481  0.00791575  0.49817882  1
  Zr  Zr53  1  0.90328175  0.09624226  0.62441626  1
  Zr  Zr54  1  0.29445539  0.08725008  0.37695343  1
  Zr  Zr55  1  0.30713358  0.31074302  0.13363271  1
  Zr  Zr56  1  0.58523987  0.21446703  0.75670895  1
  Zr  Zr57  1  0.80550073  0.19040827  0.26760843  1
  Zr  Zr58  1  0.09124980  0.50409970  0.63940449  1
  Zr  Zr59  1  0.41236384  0.37755072  0.75173799  1
  Zr  Zr60  1  0.79056668  0.79123076  0.73712160  1
  Zr  Zr61  1  0.89186886  0.70108757  0.86899701  1
  Zr  Zr62  1  0.30037582  0.10562259  0.12298831  1
  Zr  Zr63  1  0.60085068  0.60872052  0.74238773  1
  Zr  Zr64  1  0.49999102  0.11191977  0.11522732  1
  Zr  Zr65  1  0.09853645  0.69113156  0.37881382  1
  Zr  Zr66  1  0.81003974  -0.00918098  -0.00640731  1
  Zr  Zr67  1  0.40050554  0.80162558  0.00963849  1
  Zr  Zr68  1  0.70038597  0.88852369  0.87047633  1
  Zr  Zr69  1  0.38705845  0.59792516  0.49381186  1
  Zr  Zr70  1  0.68580196  0.69689300  0.59654861  1
  Zr  Zr71  1  0.09483382  0.90231622  0.37888602  1
  Zr  Zr72  1  0.29111548  0.49866086  0.64814985  1
  Zr  Zr73  1  0.31443844  0.28737884  0.62871100  1
  Zr  Zr74  1  -0.00064721  0.19857644  0.75768507  1
  Zr  Zr75  1  0.60403684  -0.00969905  0.00126823  1
  Zr  Zr76  1  0.69288915  0.29941802  0.61260031  1
  Zr  Zr77  1  0.28800666  0.67617392  0.12078341  1
  Zr  Zr78  1  0.41241195  -0.00847317  0.50447872  1
  Zr  Zr79  1  0.91972213  0.31084911  0.37546993  1
  Ta  Ta80  1  0.91218130  0.68491071  0.11388855  1
  Ta  Ta81  1  0.39394054  0.20988715  -0.00893166  1
  Ta  Ta82  1  0.79840770  -0.02152052  0.25101211  1
  Ta  Ta83  1  0.39559229  0.60016805  0.25865374  1
  Ta  Ta84  1  0.20585718  0.20501713  0.76038787  1
  Ta  Ta85  1  0.40170193  0.78852903  0.24545775  1
  Ta  Ta86  1  0.77244068  0.39251876  -0.00774964  1
  Ta  Ta87  1  0.01869045  0.19613669  0.49940799  1
  Ta  Ta88  1  0.50595966  0.69548182  0.12885969  1
  Ta  Ta89  1  0.79254952  0.41165241  0.26139640  1
  Ta  Ta90  1  0.00071074  0.19599355  -0.00372168  1
  Ta  Ta91  1  0.29849438  0.50398919  0.85537343  1
  Ta  Ta92  1  0.70852264  0.11283219  0.88391670  1
  Ta  Ta93  1  0.59669186  0.59654737  0.00784988  1
  Ta  Ta94  1  0.70085804  0.49685803  0.60773555  1
  Ta  Ta95  1  0.11295220  0.29747034  0.37316122  1
  Ta  Ta96  1  0.41227779  0.39618512  0.26230186  1
  Ta  Ta97  1  0.40752962  0.19037350  0.26728675  1
  Ta  Ta98  1  0.91151287  0.90159913  0.85665318  1
  Ta  Ta99  1  0.88819607  0.88029853  0.12363808  1
  Ta  Ta100  1  0.90711312  0.69729634  0.38647493  1
  Ta  Ta101  1  0.91815957  0.08541814  0.37621699  1
  Ta  Ta102  1  0.90055203  0.88878081  0.37397129  1
  Ta  Ta103  1  0.01729960  0.19466051  0.24993347  1
  Ta  Ta104  1  0.80311267  0.00246708  0.75050027  1
  Ta  Ta105  1  0.10623330  0.10050123  0.62929933  1
  Ta  Ta106  1  0.61550141  0.22520880  -0.00920639  1
  Ta  Ta107  1  0.00910274  -0.00812645  0.00139474  1
  Ta  Ta108  1  0.30000278  0.71391407  0.86770603  1
  Ta  Ta109  1  0.39786567  0.20400862  0.48416317  1
  Ta  Ta110  1  0.09429453  0.89872750  0.11764855  1
  Ta  Ta111  1  0.20952312  -0.00176625  -0.00061148  1
  Ta  Ta112  1  0.71453966  0.70567332  0.12702221  1
  Ta  Ta113  1  0.61537344  0.40572182  0.74621272  1
  Ta  Ta114  1  0.61784375  0.80556535  0.24053601  1
  Ta  Ta115  1  0.30238518  0.90156522  0.13206471  1
  Ta  Ta116  1  0.09739799  0.70126891  0.86381646  1
  Ta  Ta117  1  0.58267517  0.80141074  0.74665929  1
  Ta  Ta118  1  -0.01741981  0.40644956  -0.00232505  1
  Ta  Ta119  1  0.48946951  0.50098845  0.13101304  1
  Ti  Ti120  1  -0.00646409  0.79624223  -0.00377404  1
  Ti  Ti121  1  0.38529766  0.79981889  0.48620752  1
  Ti  Ti122  1  0.38812879  0.17340502  0.76649193  1
  Ti  Ti123  1  0.50626387  0.30807912  0.88557843  1
  Ti  Ti124  1  0.10295641  0.10327615  0.38265263  1
  Ti  Ti125  1  0.80707478  0.40117197  0.48919313  1
  Ti  Ti126  1  0.90304944  0.09223318  0.87569328  1
  Ti  Ti127  1  0.29854493  0.30080308  0.87453988  1
  Ti  Ti128  1  0.20022112  0.20153797  -0.00431147  1
  Ti  Ti129  1  0.39584431  0.62322939  0.74690678  1
  Ti  Ti130  1  0.29790197  0.10013239  0.61894474  1
  Ti  Ti131  1  0.08541167  0.48899363  0.38778493  1
  Ti  Ti132  1  0.81129163  0.60119015  0.50246873  1
  Ti  Ti133  1  0.50192181  0.49962432  0.37679717  1
  Ti  Ti134  1  0.59853200  0.39579682  0.48849641  1
  Ti  Ti135  1  0.29804530  0.29398733  0.36932685  1
  Ti  Ti136  1  0.09995487  0.30600259  0.88217044  1
  Ti  Ti137  1  0.20691927  0.79088208  0.50387204  1
  Ti  Ti138  1  0.60615870  0.79146988  0.00972213  1
  Ti  Ti139  1  0.40253626  0.39460958  0.49401273  1
  Ti  Ti140  1  0.79715771  0.79646203  -0.00330090  1
  Ti  Ti141  1  0.78946369  0.58777040  0.74580011  1
  Ti  Ti142  1  -0.00722578  0.59987884  0.75935631  1
  Ti  Ti143  1  -0.00595284  0.39637618  0.76048217  1
  Ti  Ti144  1  0.49981116  0.70300309  0.87988364  1
  Ti  Ti145  1  0.68822174  0.68998696  0.87705978  1
  Ti  Ti146  1  0.01776614  0.79421406  0.51275043  1
  Ti  Ti147  1  0.11981037  0.70353991  0.64893948  1
  Ti  Ti148  1  0.19971751  0.20335418  0.24712950  1
  Ti  Ti149  1  0.09252413  0.89591348  0.64812560  1
  Ti  Ti150  1  0.69416379  0.10142229  0.62169516  1
  Ti  Ti151  1  0.88770937  0.49636151  0.87379692  1
  Ti  Ti152  1  0.29429971  0.88686668  0.36219507  1
  Ti  Ti153  1  0.81456536  0.60919297  0.25126922  1
  Ti  Ti154  1  -0.00402569  -0.01377157  0.51144897  1
  Ti  Ti155  1  0.90780353  0.51245983  0.38051030  1
  Ti  Ti156  1  0.79656402  0.40122354  0.75093930  1
  Ti  Ti157  1  0.88654454  0.49661120  0.12298511  1
  Ti  Ti158  1  0.40741630  0.40376789  -0.00397462  1
  Ti  Ti159  1  0.69123735  0.49951870  0.13087229  1
  Mo  Mo160  1  -0.01443395  0.59284623  0.24769094  1
  Mo  Mo161  1  0.20167449  0.19409126  0.50100674  1
  Mo  Mo162  1  0.71055110  0.09406601  0.36573846  1
  Mo  Mo163  1  0.49920732  0.90849598  0.63379599  1
  Mo  Mo164  1  0.39120067  0.00143807  0.00570805  1
  Mo  Mo165  1  0.39265969  -0.00221892  0.24824271  1
  Mo  Mo166  1  0.10163517  0.10383566  0.11155947  1
  Mo  Mo167  1  0.60132640  0.41540993  0.25842677  1
  Mo  Mo168  1  0.19829876  0.60864580  -0.03043924  1
  Mo  Mo169  1  0.70734799  0.31505253  0.37682961  1
  Mo  Mo170  1  0.08817242  0.70671708  0.11245870  1
  Mo  Mo171  1  0.00319380  0.00190027  0.74693339  1
  Mo  Mo172  1  0.80397195  0.20086490  -0.00531906  1
  Mo  Mo173  1  0.40586217  0.00147939  0.74684562  1
  Mo  Mo174  1  0.59628473  0.41652209  0.00131642  1
  Mo  Mo175  1  0.00184608  0.39962988  0.49730098  1
  Mo  Mo176  1  0.40275400  0.80044427  0.75569138  1
  Mo  Mo177  1  -0.00851879  0.60334150  -0.01788736  1
  Mo  Mo178  1  0.49058767  0.31177015  0.38273539  1
  Mo  Mo179  1  0.90803805  0.90337844  0.64335807  1
  Mo  Mo180  1  0.49639789  0.10121911  0.37363933  1
  Mo  Mo181  1  0.59571664  0.59355645  0.49875175  1
  Mo  Mo182  1  0.19455780  0.38776071  0.76793556  1
  Mo  Mo183  1  0.29451548  0.69467790  0.63053002  1
  Mo  Mo184  1  0.19972397  0.60099439  0.76360884  1
  Mo  Mo185  1  0.59818146  0.00320109  0.49584526  1
  Mo  Mo186  1  0.19881690  0.39041778  0.25653746  1
  Mo  Mo187  1  0.00215314  0.79901782  0.74731856  1
  Mo  Mo188  1  0.80316552  0.79195946  0.25220077  1
  Mo  Mo189  1  -0.00050947  0.60237362  0.50538183  1
  Mo  Mo190  1  0.69514641  0.31080352  0.86932987  1
  Mo  Mo191  1  0.20694861  0.79716430  0.75419339  1
  Mo  Mo192  1  0.30146995  0.90781226  0.87578743  1
  Mo  Mo193  1  0.50479442  0.30634063  0.60173670  1
  Mo  Mo194  1  0.70423794  0.89206680  0.12475378  1
  Mo  Mo195  1  0.29995604  0.10312140  0.88633981  1
  Mo  Mo196  1  0.57358852  0.82645210  0.50002839  1
  Mo  Mo197  1  0.30926322  0.48857878  0.14387084  1
  Mo  Mo198  1  0.70242238  0.50434526  0.86787282  1
  Mo  Mo199  1  0.30058013  0.70135270  0.36775318  1
