# generated using pymatgen
data_HfZrTaTiMo
_symmetry_space_group_name_H-M   'P 1'
_cell_length_a   15.19880622
_cell_length_b   15.20477378
_cell_length_c   16.85504953
_cell_angle_alpha   89.98563505
_cell_angle_beta   89.98175226
_cell_angle_gamma   90.10046012
_symmetry_Int_Tables_number   1
_chemical_formula_structural   HfZrTaTiMo
_chemical_formula_sum   'Hf40 Zr40 Ta40 Ti40 Mo40'
_cell_volume   3895.10142306
_cell_formula_units_Z   40
loop_
 _symmetry_equiv_pos_site_id
 _symmetry_equiv_pos_as_xyz
  1  'x, y, z'
loop_
 _atom_site_type_symbol
 _atom_site_label
 _atom_site_symmetry_multiplicity
 _atom_site_fract_x
 _atom_site_fract_y
 _atom_site_fract_z
 _atom_site_occupancy
  Hf  Hf0  1  0.71318270  0.91442470  0.37656414  1
  Hf  Hf1  1  0.10174779  0.09620201  0.37242395  1
  Hf  Hf2  1  0.29907223  0.90232389  0.11914425  1
  Hf  Hf3  1  0.41094063  0.81216427  0.24527620  1
  Hf  Hf4  1  0.50522493  0.29498773  0.37500704  1
  Hf  Hf5  1  0.19073051  0.40033124  -0.00175192  1
  Hf  Hf6  1  0.48437732  0.32189090  0.12394273  1
  Hf  Hf7  1  0.58260550  0.00252251  0.24945701  1
  Hf  Hf8  1  0.41444881  0.60061383  0.00307662  1
  Hf  Hf9  1  0.69679376  0.48918218  0.87909876  1
  Hf  Hf10  1  0.60182170  0.39577431  0.50343570  1
  Hf  Hf11  1  0.10417877  0.70101028  0.38447422  1
  Hf  Hf12  1  0.69569872  0.88726196  0.12143130  1
  Hf  Hf13  1  0.29726949  0.90231910  0.86867919  1
  Hf  Hf14  1  0.89881001  0.69967103  0.12339524  1
  Hf  Hf15  1  -0.00089453  0.80084162  -0.00431023  1
  Hf  Hf16  1  0.68558557  0.11587044  0.36848463  1
  Hf  Hf17  1  -0.00582883  0.39012947  0.25009512  1
  Hf  Hf18  1  0.09089273  0.89477288  0.37588311  1
  Hf  Hf19  1  0.11054949  0.90331607  0.62899286  1
  Hf  Hf20  1  0.20412697  -0.00965137  0.50292453  1
  Hf  Hf21  1  0.79220997  0.40264363  0.24722145  1
  Hf  Hf22  1  0.09124757  0.90574993  0.12007938  1
  Hf  Hf23  1  0.80399354  0.20086923  0.24054443  1
  Hf  Hf24  1  0.29574766  0.50747881  0.85708483  1
  Hf  Hf25  1  0.49583457  0.48522541  0.63092036  1
  Hf  Hf26  1  0.61046892  0.79765433  0.26423569  1
  Hf  Hf27  1  0.70066107  0.11175596  0.87229334  1
  Hf  Hf28  1  -0.00253001  0.19456935  0.49726254  1
  Hf  Hf29  1  0.51713829  0.31012602  0.88180709  1
  Hf  Hf30  1  0.48835224  0.08863885  0.11590324  1
  Hf  Hf31  1  0.29708143  0.29257367  0.37317202  1
  Hf  Hf32  1  0.91278701  0.89793559  0.63129128  1
  Hf  Hf33  1  0.09647955  0.10504146  0.11060931  1
  Hf  Hf34  1  0.61756618  0.61576279  -0.00280210  1
  Hf  Hf35  1  0.30445588  0.70940465  0.87416406  1
  Hf  Hf36  1  0.91116815  0.11022236  0.63252560  1
  Hf  Hf37  1  0.48402268  0.91325611  0.63891460  1
  Hf  Hf38  1  0.38378031  0.80686175  0.49728929  1
  Hf  Hf39  1  0.60017749  0.02277880  0.51043658  1
  Zr  Zr40  1  0.38896409  0.20442130  -0.01570916  1
  Zr  Zr41  1  0.60032729  0.20774900  0.01147340  1
  Zr  Zr42  1  0.80802123  0.77914609  0.74315294  1
  Zr  Zr43  1  0.90087101  0.49805311  0.11596718  1
  Zr  Zr44  1  0.51130553  0.69326608  0.38575278  1
  Zr  Zr45  1  0.41718131  0.80519461  0.00646441  1
  Zr  Zr46  1  0.39468439  0.01146427  0.50978300  1
  Zr  Zr47  1  0.29940071  0.69616478  0.36260188  1
  Zr  Zr48  1  0.69414387  0.88466099  0.86619762  1
  Zr  Zr49  1  0.40872224  0.21416053  0.75801966  1
  Zr  Zr50  1  0.70320790  0.08722112  0.12558117  1
  Zr  Zr51  1  0.90828104  0.08409681  0.11130695  1
  Zr  Zr52  1  0.79890842  0.20316003  0.00571330  1
  Zr  Zr53  1  -0.01882811  0.41199780  0.73927694  1
  Zr  Zr54  1  0.31078388  0.49246178  0.36379388  1
  Zr  Zr55  1  0.49665627  0.89511623  0.85079381  1
  Zr  Zr56  1  0.58387287  0.41644903  0.25057073  1
  Zr  Zr57  1  0.00089693  0.19448571  0.25287550  1
  Zr  Zr58  1  0.19987566  0.59139591  0.50910959  1
  Zr  Zr59  1  0.40783302  0.19215186  0.24927280  1
  Zr  Zr60  1  0.28826096  0.09624339  0.11897782  1
  Zr  Zr61  1  0.28502479  0.29316708  0.12160716  1
  Zr  Zr62  1  0.61300735  0.79179156  0.71535594  1
  Zr  Zr63  1  0.20613193  0.60401794  0.00686644  1
  Zr  Zr64  1  0.79226105  0.79953074  0.51383581  1
  Zr  Zr65  1  0.91923506  0.68205816  0.61288807  1
  Zr  Zr66  1  0.20765439  0.18861721  0.51247361  1
  Zr  Zr67  1  0.80587395  0.00406109  0.75167014  1
  Zr  Zr68  1  0.60061871  0.81412178  0.51109029  1
  Zr  Zr69  1  0.00568751  0.60204292  0.25130083  1
  Zr  Zr70  1  0.29375201  0.49870536  0.64144056  1
  Zr  Zr71  1  0.61311940  0.60484524  0.52081013  1
  Zr  Zr72  1  0.40532509  0.61476610  0.74745790  1
  Zr  Zr73  1  0.28653357  0.31227229  0.85747348  1
  Zr  Zr74  1  0.42535219  0.59132746  0.24249626  1
  Zr  Zr75  1  0.19935932  0.38807940  0.51829296  1
  Zr  Zr76  1  0.09124822  0.49976161  0.87063733  1
  Zr  Zr77  1  -0.00241238  0.40468381  0.51223653  1
  Zr  Zr78  1  0.10397641  0.49573634  0.37178100  1
  Zr  Zr79  1  0.61889984  0.59335899  0.73733395  1
  Ta  Ta80  1  0.30973069  0.49288520  0.13488618  1
  Ta  Ta81  1  0.01500944  0.78727835  0.75867713  1
  Ta  Ta82  1  0.19521390  0.39548277  0.24242500  1
  Ta  Ta83  1  0.49046831  0.92097995  0.38008882  1
  Ta  Ta84  1  0.39505495  0.41324023  -0.00800985  1
  Ta  Ta85  1  0.30150225  0.69828620  0.13240195  1
  Ta  Ta86  1  0.17259486  0.61344466  0.73980842  1
  Ta  Ta87  1  0.90680641  0.89178900  0.86976777  1
  Ta  Ta88  1  0.89423399  0.49570439  0.89261359  1
  Ta  Ta89  1  0.18205617  0.20146987  -0.02375983  1
  Ta  Ta90  1  0.52466925  0.70541866  0.86857214  1
  Ta  Ta91  1  0.89408212  0.29541612  0.38284527  1
  Ta  Ta92  1  0.68999830  0.50635440  0.37699088  1
  Ta  Ta93  1  0.19238779  0.79577633  0.24193881  1
  Ta  Ta94  1  0.80021732  0.60856912  0.26921014  1
  Ta  Ta95  1  0.50422594  0.09832077  0.86702586  1
  Ta  Ta96  1  0.01555555  0.00386228  0.76116815  1
  Ta  Ta97  1  0.80113787  -0.01850695  -0.01329172  1
  Ta  Ta98  1  0.39973060  0.00337343  -0.01633544  1
  Ta  Ta99  1  0.31128305  0.08864479  0.36822292  1
  Ta  Ta100  1  0.80057282  0.00754352  0.51397230  1
  Ta  Ta101  1  -0.00855898  0.20336817  0.76757743  1
  Ta  Ta102  1  0.90739638  0.71175105  0.38881644  1
  Ta  Ta103  1  0.81675933  0.57632435  0.75214240  1
  Ta  Ta104  1  0.88417990  0.08504671  0.37660061  1
  Ta  Ta105  1  0.29662167  0.09012787  0.64993671  1
  Ta  Ta106  1  0.69960641  0.51072175  0.12488061  1
  Ta  Ta107  1  -0.00474382  0.80242115  0.24831277  1
  Ta  Ta108  1  0.90734741  0.09626726  0.88607669  1
  Ta  Ta109  1  0.09931321  0.70779856  0.60949384  1
  Ta  Ta110  1  0.08803412  0.28247418  0.63856258  1
  Ta  Ta111  1  0.50668511  0.12085212  0.64155197  1
  Ta  Ta112  1  0.09971065  0.29929958  0.37725082  1
  Ta  Ta113  1  0.79182684  0.78092839  -0.01256960  1
  Ta  Ta114  1  0.80411764  0.58846791  0.48571115  1
  Ta  Ta115  1  0.59789848  0.38347260  0.74364999  1
  Ta  Ta116  1  0.41153841  0.20227747  0.50963747  1
  Ta  Ta117  1  0.59279409  -0.01242478  -0.00626463  1
  Ta  Ta118  1  0.40210915  0.59286460  0.50434051  1
  Ta  Ta119  1  0.29148178  0.71588512  0.62634556  1
  Ti  Ti120  1  0.49823293  0.50333099  0.86504459  1
  Ti  Ti121  1  0.10335104  0.89865335  0.87801478  1
  Ti  Ti122  1  0.59493796  0.41372611  0.01337176  1
  Ti  Ti123  1  0.19628852  -0.00201700  0.24819475  1
  Ti  Ti124  1  0.19544520  0.19813722  0.25160827  1
  Ti  Ti125  1  0.10539113  0.70281583  0.12194119  1
  Ti  Ti126  1  0.17963577  0.18690659  0.75612326  1
  Ti  Ti127  1  0.52161180  0.71091374  0.12472257  1
  Ti  Ti128  1  0.89871668  0.49249934  0.37981528  1
  Ti  Ti129  1  0.89701370  0.30453559  0.88576674  1
  Ti  Ti130  1  0.70756110  0.11649887  0.63711355  1
  Ti  Ti131  1  0.09042804  0.29927587  0.11635971  1
  Ti  Ti132  1  0.60420932  0.01084670  0.74201593  1
  Ti  Ti133  1  0.71344581  0.69839435  0.13020372  1
  Ti  Ti134  1  0.78864671  0.20117147  0.49873095  1
  Ti  Ti135  1  0.70533786  0.30707821  0.37813658  1
  Ti  Ti136  1  0.90536467  0.29824164  0.11151992  1
  Ti  Ti137  1  0.20128839  0.80354349  0.74950405  1
  Ti  Ti138  1  0.88890003  0.89551400  0.12188319  1
  Ti  Ti139  1  0.61448910  0.60564383  0.25147697  1
  Ti  Ti140  1  0.29296740  0.09603963  0.86242425  1
  Ti  Ti141  1  -0.02146586  -0.00884323  0.25540203  1
  Ti  Ti142  1  0.00492079  0.59319625  0.00224471  1
  Ti  Ti143  1  -0.00453566  -0.00352123  0.49900506  1
  Ti  Ti144  1  0.78961474  0.38191679  0.75659317  1
  Ti  Ti145  1  0.69310897  0.29536667  0.62267752  1
  Ti  Ti146  1  0.90364163  0.68659549  0.87872464  1
  Ti  Ti147  1  0.19488636  -0.00218963  -0.01058135  1
  Ti  Ti148  1  0.29116281  0.89731639  0.36425296  1
  Ti  Ti149  1  0.10627230  0.70329482  0.88257096  1
  Ti  Ti150  1  0.10402033  0.49809168  0.12749997  1
  Ti  Ti151  1  0.88162057  0.29943310  0.62240274  1
  Ti  Ti152  1  0.17922369  0.39709474  0.73608167  1
  Ti  Ti153  1  0.78814892  0.39760687  0.00908486  1
  Ti  Ti154  1  0.48622941  0.70299720  0.61801339  1
  Ti  Ti155  1  0.60602253  0.21450062  0.23015068  1
  Ti  Ti156  1  0.39646939  0.39614165  0.50319264  1
  Ti  Ti157  1  0.88100047  0.49680209  0.61300491  1
  Ti  Ti158  1  0.80984534  0.80502531  0.26150234  1
  Ti  Ti159  1  0.30610716  0.29526784  0.64012114  1
  Mo  Mo160  1  -0.00037565  0.39495736  0.00019751  1
  Mo  Mo161  1  0.80080231  -0.00808095  0.24999128  1
  Mo  Mo162  1  0.38985991  -0.00450618  0.25320375  1
  Mo  Mo163  1  0.39979280  0.01138376  0.75785577  1
  Mo  Mo164  1  0.20161994  0.60004519  0.23086921  1
  Mo  Mo165  1  0.49576058  0.10483094  0.37756913  1
  Mo  Mo166  1  0.39390442  0.39716187  0.25253966  1
  Mo  Mo167  1  0.71422184  0.68744361  0.86634608  1
  Mo  Mo168  1  0.19812708  0.80068331  0.00475945  1
  Mo  Mo169  1  0.00132023  0.21090701  -0.01504792  1
  Mo  Mo170  1  0.80765538  0.59741695  -0.00143697  1
  Mo  Mo171  1  0.70046716  0.31352012  0.12931470  1
  Mo  Mo172  1  0.08847120  0.30286588  0.85870715  1
  Mo  Mo173  1  -0.00134679  -0.00588950  -0.01466770  1
  Mo  Mo174  1  0.08077358  0.50970410  0.63342291  1
  Mo  Mo175  1  0.70455465  0.92764428  0.62804376  1
  Mo  Mo176  1  0.29908312  0.89960327  0.64259363  1
  Mo  Mo177  1  0.71097836  0.70118883  0.37572526  1
  Mo  Mo178  1  0.50391828  0.90163624  0.11939100  1
  Mo  Mo179  1  0.09569322  0.09878488  0.63169970  1
  Mo  Mo180  1  0.61656539  0.20616695  0.75325847  1
  Mo  Mo181  1  0.39708063  0.79824751  0.74432380  1
  Mo  Mo182  1  -0.00788316  0.60929530  0.75767041  1
  Mo  Mo183  1  0.50388758  0.51433200  0.11783756  1
  Mo  Mo184  1  0.00472671  0.80697590  0.50069950  1
  Mo  Mo185  1  0.49743880  0.29803628  0.62203194  1
  Mo  Mo186  1  0.49949082  0.49908323  0.39217411  1
  Mo  Mo187  1  0.09834508  0.09416368  0.88252671  1
  Mo  Mo188  1  0.71478280  0.47708275  0.62792070  1
  Mo  Mo189  1  0.73083107  0.66408904  0.62397118  1
  Mo  Mo190  1  0.90146070  0.90297755  0.38089862  1
  Mo  Mo191  1  0.70675745  0.30983252  0.88009379  1
  Mo  Mo192  1  0.19563466  -0.00014479  0.75819780  1
  Mo  Mo193  1  0.79660463  0.39200709  0.49219975  1
  Mo  Mo194  1  0.60301288  0.20142373  0.50440170  1
  Mo  Mo195  1  0.20530489  0.80396950  0.49898984  1
  Mo  Mo196  1  -0.00339322  0.59642169  0.49026748  1
  Mo  Mo197  1  0.40270800  0.40503173  0.75548596  1
  Mo  Mo198  1  0.80769683  0.21192558  0.75716625  1
  Mo  Mo199  1  0.60746370  0.80016809  -0.00508273  1
