# generated using pymatgen
data_HfZrTaTiMo
_symmetry_space_group_name_H-M   'P 1'
_cell_length_a   15.21241465
_cell_length_b   15.21346757
_cell_length_c   16.86250506
_cell_angle_alpha   90.02010531
_cell_angle_beta   90.04746505
_cell_angle_gamma   90.02337236
_symmetry_Int_Tables_number   1
_chemical_formula_structural   HfZrTaTiMo
_chemical_formula_sum   'Hf40 Zr40 Ta40 Ti40 Mo40'
_cell_volume   3902.54795674
_cell_formula_units_Z   40
loop_
 _symmetry_equiv_pos_site_id
 _symmetry_equiv_pos_as_xyz
  1  'x, y, z'
loop_
 _atom_site_type_symbol
 _atom_site_label
 _atom_site_symmetry_multiplicity
 _atom_site_fract_x
 _atom_site_fract_y
 _atom_site_fract_z
 _atom_site_occupancy
  Hf  Hf0  1  0.29848307  0.10166702  0.13998987  1
  Hf  Hf1  1  0.10113254  0.08109039  0.62098999  1
  Hf  Hf2  1  0.59597809  0.41728755  -0.00045409  1
  Hf  Hf3  1  0.61728423  0.41963127  0.26197631  1
  Hf  Hf4  1  0.29404205  0.49548142  0.62358911  1
  Hf  Hf5  1  0.69605240  0.89756324  0.12750331  1
  Hf  Hf6  1  0.80711513  0.18732241  0.23055054  1
  Hf  Hf7  1  0.42144041  0.60729926  -0.00016088  1
  Hf  Hf8  1  0.60209514  0.40588830  0.49433356  1
  Hf  Hf9  1  0.10611350  0.28833857  0.14148799  1
  Hf  Hf10  1  0.40837030  -0.00703865  0.24768194  1
  Hf  Hf11  1  0.30794094  0.70046704  0.87350593  1
  Hf  Hf12  1  0.90038509  0.90282275  0.11948037  1
  Hf  Hf13  1  0.70382270  0.88588517  0.63629505  1
  Hf  Hf14  1  0.39430963  0.81741636  0.00085951  1
  Hf  Hf15  1  0.80541325  0.18066654  0.01114115  1
  Hf  Hf16  1  0.20571286  0.20151820  0.48305774  1
  Hf  Hf17  1  0.41991604  0.81203781  0.74914022  1
  Hf  Hf18  1  0.59647581  0.18935512  -0.00476812  1
  Hf  Hf19  1  0.30143863  0.29741295  0.14609066  1
  Hf  Hf20  1  0.09972214  0.49687304  0.12901664  1
  Hf  Hf21  1  0.01640172  0.40435330  0.74320757  1
  Hf  Hf22  1  0.90484164  0.30422274  0.87596960  1
  Hf  Hf23  1  -0.00994509  0.78902147  0.49112296  1
  Hf  Hf24  1  0.81064504  0.40821859  0.00215058  1
  Hf  Hf25  1  0.40217936  0.20716932  0.49896500  1
  Hf  Hf26  1  -0.00928937  0.79905789  0.75372634  1
  Hf  Hf27  1  0.11892172  0.29075681  0.62510275  1
  Hf  Hf28  1  0.89407120  0.90982850  0.88629415  1
  Hf  Hf29  1  0.09218263  0.67364553  0.61574927  1
  Hf  Hf30  1  0.09811149  0.28419965  0.87951561  1
  Hf  Hf31  1  0.88964455  0.71132974  0.62761149  1
  Hf  Hf32  1  0.20113882  -0.00857533  0.49356360  1
  Hf  Hf33  1  0.49893985  0.31647635  0.87160242  1
  Hf  Hf34  1  0.60273502  0.19296523  0.74368520  1
  Hf  Hf35  1  0.31053032  0.28814653  0.88501105  1
  Hf  Hf36  1  0.39619965  0.21600009  0.73762872  1
  Hf  Hf37  1  0.49850784  0.90749691  0.38155433  1
  Hf  Hf38  1  0.90505708  0.48830494  0.37819341  1
  Hf  Hf39  1  0.78147561  0.79261147  -0.00215223  1
  Zr  Zr40  1  0.29243927  0.70550076  0.63362737  1
  Zr  Zr41  1  0.00402101  0.39766658  0.50675714  1
  Zr  Zr42  1  0.01345133  0.79624986  0.25316995  1
  Zr  Zr43  1  0.80573331  0.00510859  0.51087019  1
  Zr  Zr44  1  0.29187238  0.91535450  0.86717821  1
  Zr  Zr45  1  0.80081157  0.00321091  0.74378981  1
  Zr  Zr46  1  0.78202183  0.59549174  0.27166326  1
  Zr  Zr47  1  0.08212539  0.68962823  0.11198355  1
  Zr  Zr48  1  0.31276577  0.49979232  0.12324417  1
  Zr  Zr49  1  0.60925309  0.20610977  0.24709612  1
  Zr  Zr50  1  0.80685476  0.60489146  0.48849004  1
  Zr  Zr51  1  0.81394807  0.41044765  0.74402217  1
  Zr  Zr52  1  0.49069390  0.31225992  0.13035761  1
  Zr  Zr53  1  0.20180637  0.16760363  0.75994730  1
  Zr  Zr54  1  0.69950739  0.30459917  0.11451533  1
  Zr  Zr55  1  0.19873364  0.40765980  0.48242891  1
  Zr  Zr56  1  0.70580590  0.50367983  0.86560545  1
  Zr  Zr57  1  -0.00517853  0.18779684  0.50016824  1
  Zr  Zr58  1  0.39819284  0.40420207  0.49033339  1
  Zr  Zr59  1  0.28161607  0.71002053  0.10308758  1
  Zr  Zr60  1  0.90599872  0.10633418  0.87667902  1
  Zr  Zr61  1  0.20462524  0.61970796  0.25071726  1
  Zr  Zr62  1  0.29327227  0.88089318  0.37743378  1
  Zr  Zr63  1  0.70492125  0.29117957  0.86690286  1
  Zr  Zr64  1  0.29486450  0.91644989  0.63607976  1
  Zr  Zr65  1  0.60441370  0.00246685  0.51199556  1
  Zr  Zr66  1  0.19082398  0.58442666  0.76245876  1
  Zr  Zr67  1  0.09422515  0.69698328  0.88156220  1
  Zr  Zr68  1  0.09563206  0.09128344  0.36451645  1
  Zr  Zr69  1  0.58065056  -0.00668879  0.74356878  1
  Zr  Zr70  1  0.60936833  0.20585269  0.50885639  1
  Zr  Zr71  1  0.52215338  0.52497417  0.13962502  1
  Zr  Zr72  1  0.68130372  0.68557750  0.13656391  1
  Zr  Zr73  1  0.89203132  0.89796080  0.36350272  1
  Zr  Zr74  1  0.58621846  0.80115531  0.25687355  1
  Zr  Zr75  1  0.20672884  0.39241485  0.00215248  1
  Zr  Zr76  1  0.22024774  0.38407809  0.75512742  1
  Zr  Zr77  1  -0.01090446  0.79237193  -0.00192812  1
  Zr  Zr78  1  0.88701795  0.28354837  0.37439431  1
  Zr  Zr79  1  0.60521106  0.61176712  0.48291492  1
  Ta  Ta80  1  0.69351880  0.69677619  0.62914627  1
  Ta  Ta81  1  0.80266296  0.60101886  0.00259917  1
  Ta  Ta82  1  0.31957505  0.49021131  0.88127745  1
  Ta  Ta83  1  0.20643111  -0.01234330  0.01242711  1
  Ta  Ta84  1  0.39622225  0.80847314  0.51236579  1
  Ta  Ta85  1  0.50353685  0.30178270  0.36512623  1
  Ta  Ta86  1  -0.00096718  0.59760586  0.26637241  1
  Ta  Ta87  1  0.70267233  0.30323482  0.63647923  1
  Ta  Ta88  1  0.11835096  0.69236891  0.39311772  1
  Ta  Ta89  1  0.10026734  0.08090597  0.89259668  1
  Ta  Ta90  1  0.70081006  0.50630589  0.62506672  1
  Ta  Ta91  1  0.49458147  0.51312925  0.37141268  1
  Ta  Ta92  1  0.80398986  0.39315472  0.24101053  1
  Ta  Ta93  1  0.20071268  0.18437562  0.00478101  1
  Ta  Ta94  1  0.58447156  0.79207719  -0.00149553  1
  Ta  Ta95  1  0.30403396  0.29487291  0.35075306  1
  Ta  Ta96  1  0.91665779  0.29436039  0.12053273  1
  Ta  Ta97  1  0.88309521  0.69620052  0.14040574  1
  Ta  Ta98  1  0.19547128  -0.02136418  0.24172456  1
  Ta  Ta99  1  -0.00423158  0.00407305  0.23953492  1
  Ta  Ta100  1  0.60742347  0.01055360  0.24914957  1
  Ta  Ta101  1  0.09594240  0.29818624  0.35446378  1
  Ta  Ta102  1  0.79843915  0.60825352  0.74512121  1
  Ta  Ta103  1  0.78797612  0.80130777  0.49281739  1
  Ta  Ta104  1  0.39492083  0.60904988  0.50215779  1
  Ta  Ta105  1  0.37994564  0.79649140  0.23596111  1
  Ta  Ta106  1  -0.01228381  0.58961571  0.75856773  1
  Ta  Ta107  1  0.50592698  0.09930899  0.12543830  1
  Ta  Ta108  1  0.79449088  0.38963949  0.50854980  1
  Ta  Ta109  1  0.01122468  -0.00586501  0.74943990  1
  Ta  Ta110  1  0.09047993  0.09398677  0.12373330  1
  Ta  Ta111  1  0.89472445  0.28705158  0.62938715  1
  Ta  Ta112  1  0.69101546  0.89074010  0.86690117  1
  Ta  Ta113  1  0.90198069  0.50590298  0.13356007  1
  Ta  Ta114  1  0.50325308  0.51678706  0.86604635  1
  Ta  Ta115  1  0.30727553  0.09570834  0.35823848  1
  Ta  Ta116  1  0.39878058  0.00884069  0.49802522  1
  Ta  Ta117  1  0.71021621  0.11012939  0.37658722  1
  Ta  Ta118  1  0.50469927  0.70974977  0.62024810  1
  Ta  Ta119  1  0.50597742  0.10573837  0.37407238  1
  Ti  Ti120  1  0.50267920  0.51347090  0.62445316  1
  Ti  Ti121  1  0.10942855  0.88923274  0.11626180  1
  Ti  Ti122  1  0.68821305  0.70360193  0.86210456  1
  Ti  Ti123  1  0.40668646  0.61580440  0.25094103  1
  Ti  Ti124  1  0.89779103  0.09179034  0.37158811  1
  Ti  Ti125  1  -0.00061244  0.19227534  0.74649690  1
  Ti  Ti126  1  0.90026169  0.09664939  0.63100819  1
  Ti  Ti127  1  0.39988563  0.20277815  0.00755324  1
  Ti  Ti128  1  0.38399794  0.02238651  0.75300214  1
  Ti  Ti129  1  -0.00462424  -0.01517258  0.50373674  1
  Ti  Ti130  1  -0.00319526  0.39737409  0.24918296  1
  Ti  Ti131  1  0.50144402  0.90613143  0.87977361  1
  Ti  Ti132  1  0.48591641  0.10432673  0.87503949  1
  Ti  Ti133  1  0.09665021  0.89975583  0.88616032  1
  Ti  Ti134  1  0.79669862  0.00014219  0.24263554  1
  Ti  Ti135  1  0.10003379  0.89091127  0.37705117  1
  Ti  Ti136  1  0.19447304  0.58782597  -0.01501051  1
  Ti  Ti137  1  -0.01317521  0.58459722  -0.01096569  1
  Ti  Ti138  1  0.09555314  0.88139538  0.62152238  1
  Ti  Ti139  1  0.61311613  0.61052263  -0.00821245  1
  Ti  Ti140  1  0.88217553  0.69663165  0.86964855  1
  Ti  Ti141  1  0.91013430  0.51006473  0.61428774  1
  Ti  Ti142  1  0.59435870  0.41075360  0.74242791  1
  Ti  Ti143  1  0.18906975  0.80415207  0.75449634  1
  Ti  Ti144  1  0.40480859  0.60010902  0.74828638  1
  Ti  Ti145  1  0.29648403  0.52198997  0.37455922  1
  Ti  Ti146  1  0.20027378  0.41241564  0.26212120  1
  Ti  Ti147  1  0.59950815  0.80422049  0.49652647  1
  Ti  Ti148  1  0.40284802  0.01293662  0.00432591  1
  Ti  Ti149  1  0.49795336  0.90170487  0.12209208  1
  Ti  Ti150  1  0.70018736  0.91013443  0.36979391  1
  Ti  Ti151  1  0.40303555  0.41364049  0.26138433  1
  Ti  Ti152  1  0.59303471  0.60914669  0.74650713  1
  Ti  Ti153  1  0.60282731  -0.00672061  -0.00107743  1
  Ti  Ti154  1  0.00688357  0.40029631  0.00071792  1
  Ti  Ti155  1  0.29490088  0.11217436  0.61827715  1
  Ti  Ti156  1  0.69927208  0.08456803  0.87591996  1
  Ti  Ti157  1  0.48119291  0.71224071  0.38124610  1
  Ti  Ti158  1  0.49493132  0.31891264  0.62824501  1
  Ti  Ti159  1  0.49205838  0.09654560  0.62350224  1
  Mo  Mo160  1  0.79737976  0.80408449  0.25434217  1
  Mo  Mo161  1  0.20496006  0.59722906  0.49781109  1
  Mo  Mo162  1  0.69375977  0.08502340  0.11774973  1
  Mo  Mo163  1  0.78686800  -0.00717775  -0.00522250  1
  Mo  Mo164  1  0.19517176  0.79993467  0.24843705  1
  Mo  Mo165  1  0.29948312  0.90725501  0.12319562  1
  Mo  Mo166  1  0.09630831  0.49840939  0.62649830  1
  Mo  Mo167  1  0.00843372  0.20460035  0.00503847  1
  Mo  Mo168  1  0.19840863  0.79942086  -0.01134773  1
  Mo  Mo169  1  0.10059894  0.49024146  0.88556166  1
  Mo  Mo170  1  0.19768306  0.18954809  0.25885799  1
  Mo  Mo171  1  0.41043047  0.19725592  0.25520844  1
  Mo  Mo172  1  0.70479941  0.48726795  0.38545367  1
  Mo  Mo173  1  0.41132567  0.41606654  0.74508576  1
  Mo  Mo174  1  0.00555798  0.59114281  0.48433650  1
  Mo  Mo175  1  0.30133409  0.09896911  0.89035672  1
  Mo  Mo176  1  0.30650822  0.29895180  0.61877460  1
  Mo  Mo177  1  0.40740228  0.40309841  0.00175493  1
  Mo  Mo178  1  0.91160770  0.90237237  0.62442274  1
  Mo  Mo179  1  0.59808343  0.79461479  0.74953196  1
  Mo  Mo180  1  0.19781551  0.79626655  0.50829716  1
  Mo  Mo181  1  0.50674091  0.70770165  0.87069579  1
  Mo  Mo182  1  0.70505836  0.29766026  0.37514905  1
  Mo  Mo183  1  0.90430422  0.70129194  0.36651898  1
  Mo  Mo184  1  0.71208579  0.11530177  0.63235129  1
  Mo  Mo185  1  -0.00512693  0.19456320  0.24845989  1
  Mo  Mo186  1  0.10153354  0.49797222  0.36169953  1
  Mo  Mo187  1  0.80530621  0.20001339  0.74798159  1
  Mo  Mo188  1  0.49203938  0.71062065  0.12778438  1
  Mo  Mo189  1  0.71877238  0.50623191  0.12282494  1
  Mo  Mo190  1  0.79766801  0.19967526  0.50795774  1
  Mo  Mo191  1  0.90676306  0.50695908  0.87597216  1
  Mo  Mo192  1  0.59019799  0.61128680  0.27993774  1
  Mo  Mo193  1  0.49689839  0.90154855  0.61332390  1
  Mo  Mo194  1  0.18743845  -0.00834819  0.75414526  1
  Mo  Mo195  1  0.79677900  0.79668839  0.75924255  1
  Mo  Mo196  1  0.00265229  0.00438357  0.01033303  1
  Mo  Mo197  1  0.70139677  0.72394768  0.37212460  1
  Mo  Mo198  1  0.90358052  0.09366798  0.11896056  1
  Mo  Mo199  1  0.30968781  0.69991832  0.38093989  1
