# generated using pymatgen
data_HfZrTaTiMo
_symmetry_space_group_name_H-M   'P 1'
_cell_length_a   15.20802794
_cell_length_b   15.21775814
_cell_length_c   16.86087090
_cell_angle_alpha   90.01509576
_cell_angle_beta   89.95827435
_cell_angle_gamma   90.06913299
_symmetry_Int_Tables_number   1
_chemical_formula_structural   HfZrTaTiMo
_chemical_formula_sum   'Hf40 Zr40 Ta40 Ti40 Mo40'
_cell_volume   3902.14259815
_cell_formula_units_Z   40
loop_
 _symmetry_equiv_pos_site_id
 _symmetry_equiv_pos_as_xyz
  1  'x, y, z'
loop_
 _atom_site_type_symbol
 _atom_site_label
 _atom_site_symmetry_multiplicity
 _atom_site_fract_x
 _atom_site_fract_y
 _atom_site_fract_z
 _atom_site_occupancy
  Hf  Hf0  1  0.59261803  0.40876187  0.23153618  1
  Hf  Hf1  1  0.10494601  0.69442679  0.87808884  1
  Hf  Hf2  1  0.61247350  0.60940461  0.49570809  1
  Hf  Hf3  1  0.59687866  0.61614825  0.00564148  1
  Hf  Hf4  1  0.58527035  0.20371067  0.25210696  1
  Hf  Hf5  1  0.36908008  0.20084867  0.25993187  1
  Hf  Hf6  1  0.81895782  0.00404743  0.48839692  1
  Hf  Hf7  1  0.91424735  0.49376750  0.11081652  1
  Hf  Hf8  1  0.09652063  0.70056832  0.62029506  1
  Hf  Hf9  1  0.40126493  0.60053932  0.48719278  1
  Hf  Hf10  1  0.10581207  0.48914504  0.12827699  1
  Hf  Hf11  1  0.21509824  0.79673836  0.01556671  1
  Hf  Hf12  1  -0.00218680  0.20451950  0.25125765  1
  Hf  Hf13  1  0.47636492  0.30435607  0.12001685  1
  Hf  Hf14  1  0.21058277  0.80855957  0.49450402  1
  Hf  Hf15  1  0.10423922  0.90335957  0.62830120  1
  Hf  Hf16  1  -0.00843158  0.18151148  0.51243370  1
  Hf  Hf17  1  0.49518126  0.10111592  0.61412588  1
  Hf  Hf18  1  0.39217866  0.60136444  -0.00275531  1
  Hf  Hf19  1  0.40996851  0.60138563  0.24902128  1
  Hf  Hf20  1  0.20412983  0.59346759  0.25444344  1
  Hf  Hf21  1  0.30593236  0.69455618  0.62744616  1
  Hf  Hf22  1  0.70586445  0.10501824  0.60432157  1
  Hf  Hf23  1  0.00578223  0.79757211  0.01574675  1
  Hf  Hf24  1  -0.00491220  0.78945722  0.24429235  1
  Hf  Hf25  1  0.90772331  0.69591821  0.89030295  1
  Hf  Hf26  1  0.10053886  0.29128085  0.38415787  1
  Hf  Hf27  1  0.88963227  0.48464136  0.38620212  1
  Hf  Hf28  1  0.60113059  0.58924305  0.76267972  1
  Hf  Hf29  1  0.81494822  0.81189654  0.75061497  1
  Hf  Hf30  1  0.88587016  0.68251489  0.12057441  1
  Hf  Hf31  1  -0.00623027  0.39908043  0.73626636  1
  Hf  Hf32  1  0.88190216  0.08722925  0.87444427  1
  Hf  Hf33  1  0.69293848  0.31105989  0.61666541  1
  Hf  Hf34  1  0.79928668  0.40820321  0.24284759  1
  Hf  Hf35  1  0.20827371  -0.00452368  0.00155485  1
  Hf  Hf36  1  0.58687077  0.21434811  0.49125908  1
  Hf  Hf37  1  0.31028575  0.90799202  0.63289568  1
  Hf  Hf38  1  0.10583663  0.90509434  0.35805978  1
  Hf  Hf39  1  0.51732180  0.49927232  0.37703392  1
  Zr  Zr40  1  0.51742204  0.91305954  0.87955527  1
  Zr  Zr41  1  0.10114145  0.10440470  0.12771048  1
  Zr  Zr42  1  0.68682439  0.29788280  0.87181578  1
  Zr  Zr43  1  0.79547249  0.38126048  -0.00044484  1
  Zr  Zr44  1  0.31725459  0.49008028  0.13145301  1
  Zr  Zr45  1  0.48334588  0.09832045  0.38321831  1
  Zr  Zr46  1  0.09930545  0.70005112  0.36747981  1
  Zr  Zr47  1  0.51329302  0.89969816  0.38914497  1
  Zr  Zr48  1  0.69843411  0.10192327  0.37955872  1
  Zr  Zr49  1  0.69889467  0.32942525  0.38644782  1
  Zr  Zr50  1  0.09217973  0.29682339  0.85920594  1
  Zr  Zr51  1  0.89281275  0.08924017  0.14020956  1
  Zr  Zr52  1  0.71324114  0.51265220  0.10788301  1
  Zr  Zr53  1  0.69622761  0.71077722  0.87953273  1
  Zr  Zr54  1  0.20623175  0.59849246  0.49001874  1
  Zr  Zr55  1  0.39412592  0.58622870  0.76693393  1
  Zr  Zr56  1  0.78609669  0.18669585  0.01050738  1
  Zr  Zr57  1  0.61604796  0.61469329  0.23742103  1
  Zr  Zr58  1  0.58408431  0.18888187  0.01274831  1
  Zr  Zr59  1  0.60527309  0.80643067  0.75033563  1
  Zr  Zr60  1  0.21887735  0.01106375  0.24342204  1
  Zr  Zr61  1  -0.00655631  -0.00316076  -0.00137581  1
  Zr  Zr62  1  0.78898274  0.80627194  0.01192322  1
  Zr  Zr63  1  0.80856238  0.78552852  0.49197223  1
  Zr  Zr64  1  0.18817445  0.20100411  -0.01152590  1
  Zr  Zr65  1  0.50561481  0.90398141  0.61098808  1
  Zr  Zr66  1  0.50587852  0.70286613  0.62744381  1
  Zr  Zr67  1  0.20677695  0.40685094  -0.01140153  1
  Zr  Zr68  1  0.20752622  0.79766806  0.75218317  1
  Zr  Zr69  1  0.21464627  0.40288336  0.74954007  1
  Zr  Zr70  1  0.50081021  0.49745068  0.62004153  1
  Zr  Zr71  1  0.79447400  0.19186817  0.74322499  1
  Zr  Zr72  1  0.09953242  0.49029950  0.38483643  1
  Zr  Zr73  1  0.70334678  0.90062936  0.60972652  1
  Zr  Zr74  1  0.31359188  0.10942975  0.87574603  1
  Zr  Zr75  1  0.20051867  0.01806478  0.49870989  1
  Zr  Zr76  1  -0.01999121  -0.00901320  0.75180902  1
  Zr  Zr77  1  0.80557244  0.59997209  0.75825109  1
  Zr  Zr78  1  0.09991389  0.89727665  0.87543356  1
  Zr  Zr79  1  -0.01039001  0.38087979  0.51855067  1
  Ta  Ta80  1  0.09150033  0.10217492  0.85887455  1
  Ta  Ta81  1  -0.00203133  0.39279134  0.25501274  1
  Ta  Ta82  1  0.20874780  0.00637164  0.75770442  1
  Ta  Ta83  1  0.31378855  0.90219974  0.87645512  1
  Ta  Ta84  1  0.20386203  0.37761725  0.25314985  1
  Ta  Ta85  1  0.71298722  0.69449823  0.62873687  1
  Ta  Ta86  1  0.31370111  0.90461085  0.36437815  1
  Ta  Ta87  1  0.00249416  0.80171342  0.49133214  1
  Ta  Ta88  1  0.10458712  0.49744994  0.61578801  1
  Ta  Ta89  1  0.90334402  0.49294083  0.88292566  1
  Ta  Ta90  1  0.42217799  -0.00513834  0.24095560  1
  Ta  Ta91  1  0.47768832  0.31320683  0.37312094  1
  Ta  Ta92  1  0.09900445  0.68753951  0.13089184  1
  Ta  Ta93  1  0.69856535  0.50058468  0.62651252  1
  Ta  Ta94  1  0.90800082  0.89424312  0.61555887  1
  Ta  Ta95  1  0.00401168  0.38866871  -0.00849224  1
  Ta  Ta96  1  0.21837322  0.79639477  0.23444418  1
  Ta  Ta97  1  0.79363365  0.40245514  0.75175251  1
  Ta  Ta98  1  0.31432510  0.10580758  0.11324578  1
  Ta  Ta99  1  0.71803225  0.91885257  0.87507453  1
  Ta  Ta100  1  -0.01288352  0.20087799  -0.00317605  1
  Ta  Ta101  1  0.30308130  0.48913384  0.61977083  1
  Ta  Ta102  1  0.19679180  0.60307407  0.00500995  1
  Ta  Ta103  1  0.42579654  0.01302377  0.00347279  1
  Ta  Ta104  1  0.10132350  0.89997717  0.13896661  1
  Ta  Ta105  1  0.59658049  0.82212031  0.23519134  1
  Ta  Ta106  1  0.30946128  0.47503099  0.36902422  1
  Ta  Ta107  1  0.79036930  0.20943867  0.24901000  1
  Ta  Ta108  1  0.10051516  0.09925963  0.64172710  1
  Ta  Ta109  1  0.89046419  0.50335171  0.62145641  1
  Ta  Ta110  1  0.09458128  0.50522307  0.87359702  1
  Ta  Ta111  1  0.90554207  0.10082868  0.36327820  1
  Ta  Ta112  1  0.49244060  0.29013452  0.88370505  1
  Ta  Ta113  1  0.68242988  0.08487546  0.14297482  1
  Ta  Ta114  1  0.48820587  0.71897380  0.12427785  1
  Ta  Ta115  1  0.28364513  0.29390475  0.11890370  1
  Ta  Ta116  1  0.00144657  0.59739897  0.74165061  1
  Ta  Ta117  1  -0.01092401  0.60571548  0.50562459  1
  Ta  Ta118  1  0.39803984  0.21498951  0.74613650  1
  Ta  Ta119  1  0.48456169  0.30430795  0.61981693  1
  Ti  Ti120  1  0.49728104  0.48160281  0.89085656  1
  Ti  Ti121  1  0.30104781  0.70332337  0.87480831  1
  Ti  Ti122  1  0.10316634  0.09983462  0.36587963  1
  Ti  Ti123  1  0.37598874  0.20116047  0.49539252  1
  Ti  Ti124  1  0.09037286  0.30027360  0.12286422  1
  Ti  Ti125  1  0.31178443  0.31432724  0.87644708  1
  Ti  Ti126  1  0.19403437  0.21492222  0.52155708  1
  Ti  Ti127  1  0.19683015  0.59485266  0.74830004  1
  Ti  Ti128  1  0.38848820  0.00070005  0.49791943  1
  Ti  Ti129  1  0.70100381  0.70028016  0.36848615  1
  Ti  Ti130  1  0.41002879  0.80784717  -0.00202173  1
  Ti  Ti131  1  0.58555861  0.39414916  0.75292995  1
  Ti  Ti132  1  0.79088172  -0.00337681  0.01253332  1
  Ti  Ti133  1  0.00791456  -0.00688543  0.49558510  1
  Ti  Ti134  1  0.49665903  0.70931899  0.87889279  1
  Ti  Ti135  1  0.78877543  0.79075532  0.24474599  1
  Ti  Ti136  1  -0.01139469  0.19875747  0.73163802  1
  Ti  Ti137  1  0.69999275  0.89413363  0.37881165  1
  Ti  Ti138  1  0.50737211  0.71296464  0.36651771  1
  Ti  Ti139  1  -0.00873138  0.58484290  0.25328211  1
  Ti  Ti140  1  0.00000958  0.79062790  0.74917850  1
  Ti  Ti141  1  0.40585238  0.80574531  0.75782428  1
  Ti  Ti142  1  0.38944001  0.39178638  0.49891250  1
  Ti  Ti143  1  0.61061895  0.00954156  0.74349208  1
  Ti  Ti144  1  0.80165869  0.59454530  0.50175405  1
  Ti  Ti145  1  0.40542270  0.79610274  0.49572648  1
  Ti  Ti146  1  0.89476643  0.68883216  0.36635002  1
  Ti  Ti147  1  0.31019472  0.70918911  0.36568601  1
  Ti  Ti148  1  0.69826645  0.49594457  0.89175757  1
  Ti  Ti149  1  0.79339864  -0.00903263  0.25950917  1
  Ti  Ti150  1  0.20014973  0.20440033  0.74460942  1
  Ti  Ti151  1  0.68005991  0.09795948  0.87394044  1
  Ti  Ti152  1  0.89539595  0.29315894  0.86851816  1
  Ti  Ti153  1  0.30035827  0.10725381  0.63434849  1
  Ti  Ti154  1  0.90475957  0.89570772  0.36432913  1
  Ti  Ti155  1  0.58714823  0.19911378  0.74359861  1
  Ti  Ti156  1  0.89791570  0.90009799  0.13976523  1
  Ti  Ti157  1  0.89707006  0.29634635  0.12376106  1
  Ti  Ti158  1  0.32759765  0.89550702  0.12663041  1
  Ti  Ti159  1  0.41234911  0.01008637  0.75453834  1
  Mo  Mo160  1  0.58994523  0.40491516  0.01202055  1
  Mo  Mo161  1  0.59461382  0.81665451  0.01479555  1
  Mo  Mo162  1  0.60518374  0.00358145  0.49717366  1
  Mo  Mo163  1  0.10112309  0.29269181  0.63537776  1
  Mo  Mo164  1  0.78895553  -0.00141048  0.74250286  1
  Mo  Mo165  1  0.69800117  0.29283108  0.13369058  1
  Mo  Mo166  1  0.60825408  0.79251630  0.49350922  1
  Mo  Mo167  1  0.39841816  0.39627351  0.25421513  1
  Mo  Mo168  1  0.20295692  0.39598467  0.51133471  1
  Mo  Mo169  1  0.50784087  0.10793899  0.86388193  1
  Mo  Mo170  1  0.19151880  0.20334501  0.24477928  1
  Mo  Mo171  1  0.88614962  0.29488726  0.63047838  1
  Mo  Mo172  1  0.80156234  0.59560296  -0.01448179  1
  Mo  Mo173  1  0.49310080  0.10119990  0.13437977  1
  Mo  Mo174  1  0.30194938  0.29790166  0.62515357  1
  Mo  Mo175  1  0.61689152  0.00333025  0.00275714  1
  Mo  Mo176  1  0.29324874  0.50922488  0.87783921  1
  Mo  Mo177  1  0.79344074  0.40832505  0.51020800  1
  Mo  Mo178  1  -0.00280751  -0.00743026  0.25744809  1
  Mo  Mo179  1  0.38870400  0.20099497  -0.00254426  1
  Mo  Mo180  1  0.40150533  0.39912559  -0.00474847  1
  Mo  Mo181  1  0.28755310  0.09704665  0.38027621  1
  Mo  Mo182  1  0.69554456  0.71090562  0.12516680  1
  Mo  Mo183  1  0.70971373  0.90604509  0.13748170  1
  Mo  Mo184  1  0.30126211  0.70120393  0.12610840  1
  Mo  Mo185  1  0.51327182  0.91509549  0.11610666  1
  Mo  Mo186  1  0.89412285  0.89563542  0.88192867  1
  Mo  Mo187  1  0.41193449  0.39620378  0.75583122  1
  Mo  Mo188  1  0.50231246  0.50456488  0.11196306  1
  Mo  Mo189  1  0.90160870  0.08580012  0.62112378  1
  Mo  Mo190  1  0.60587825  0.00191182  0.26011587  1
  Mo  Mo191  1  0.89173700  0.28884255  0.37557477  1
  Mo  Mo192  1  0.40608832  0.80300925  0.24906850  1
  Mo  Mo193  1  0.90428921  0.69949660  0.62439357  1
  Mo  Mo194  1  0.58762990  0.40823203  0.50254418  1
  Mo  Mo195  1  0.28862251  0.29406193  0.38675028  1
  Mo  Mo196  1  0.70721064  0.51537578  0.37329033  1
  Mo  Mo197  1  0.81047311  0.60447131  0.25565205  1
  Mo  Mo198  1  0.81432151  0.21538634  0.49699475  1
  Mo  Mo199  1  0.01035722  0.58846759  -0.00014562  1
