# generated using pymatgen
data_HfZrTaTiMo
_symmetry_space_group_name_H-M   'P 1'
_cell_length_a   15.21281498
_cell_length_b   15.22179942
_cell_length_c   16.83440980
_cell_angle_alpha   89.98498024
_cell_angle_beta   90.01260157
_cell_angle_gamma   90.09873499
_symmetry_Int_Tables_number   1
_chemical_formula_structural   HfZrTaTiMo
_chemical_formula_sum   'Hf40 Zr40 Ta40 Ti40 Mo40'
_cell_volume   3898.27796577
_cell_formula_units_Z   40
loop_
 _symmetry_equiv_pos_site_id
 _symmetry_equiv_pos_as_xyz
  1  'x, y, z'
loop_
 _atom_site_type_symbol
 _atom_site_label
 _atom_site_symmetry_multiplicity
 _atom_site_fract_x
 _atom_site_fract_y
 _atom_site_fract_z
 _atom_site_occupancy
  Hf  Hf0  1  0.61019414  0.80307240  0.00390948  1
  Hf  Hf1  1  0.59110872  0.00610345  0.51408008  1
  Hf  Hf2  1  0.69588656  0.49867342  0.86410108  1
  Hf  Hf3  1  0.31770925  0.09563449  0.39432344  1
  Hf  Hf4  1  0.80474535  0.60580097  0.50124887  1
  Hf  Hf5  1  -0.00961922  0.00784924  0.00055635  1
  Hf  Hf6  1  0.59908122  0.59141922  0.00065331  1
  Hf  Hf7  1  0.90139931  0.51106668  0.37091431  1
  Hf  Hf8  1  0.90553593  0.28817184  0.11185433  1
  Hf  Hf9  1  0.00001275  0.39773457  0.76109091  1
  Hf  Hf10  1  0.00387031  -0.01036145  0.49443421  1
  Hf  Hf11  1  0.39953673  0.79520269  0.00437412  1
  Hf  Hf12  1  0.30980861  0.69244687  0.37355730  1
  Hf  Hf13  1  0.30477270  0.69525454  0.13173642  1
  Hf  Hf14  1  0.79284836  0.40314963  0.50529640  1
  Hf  Hf15  1  -0.00668636  0.19499410  0.25437937  1
  Hf  Hf16  1  0.00653696  0.80360641  0.01763223  1
  Hf  Hf17  1  0.80200932  0.00614295  0.51232927  1
  Hf  Hf18  1  0.70127256  0.30928147  0.37190106  1
  Hf  Hf19  1  0.19813107  0.60136714  0.00985547  1
  Hf  Hf20  1  0.80347077  0.00796749  0.72382578  1
  Hf  Hf21  1  0.91279242  0.90290956  0.85746226  1
  Hf  Hf22  1  0.80491542  0.82559841  0.00140096  1
  Hf  Hf23  1  0.20711398  0.38710080  0.50112736  1
  Hf  Hf24  1  0.30556401  0.27595207  0.62222547  1
  Hf  Hf25  1  0.50269024  0.90447393  0.13358501  1
  Hf  Hf26  1  0.30999830  0.48736486  0.37139135  1
  Hf  Hf27  1  0.79981657  0.20743458  0.73125498  1
  Hf  Hf28  1  -0.01350901  0.39386181  0.50510638  1
  Hf  Hf29  1  0.60879503  0.18387435  -0.00203618  1
  Hf  Hf30  1  0.19733233  0.60275702  0.75261134  1
  Hf  Hf31  1  0.09584305  0.11562430  0.12311203  1
  Hf  Hf32  1  0.79083115  0.40718868  0.00702245  1
  Hf  Hf33  1  0.29484055  0.89863742  0.36663528  1
  Hf  Hf34  1  0.70581385  0.91235188  0.86313363  1
  Hf  Hf35  1  0.50874222  0.89720008  0.86953444  1
  Hf  Hf36  1  0.39663743  0.39405504  -0.01248730  1
  Hf  Hf37  1  0.29992693  0.69997699  0.87698663  1
  Hf  Hf38  1  0.30059489  0.90174998  0.86821962  1
  Hf  Hf39  1  0.00049801  0.19539002  0.76252975  1
  Zr  Zr40  1  0.49021863  0.90512631  0.38065552  1
  Zr  Zr41  1  0.09766542  0.91749667  0.14238852  1
  Zr  Zr42  1  0.40485619  0.80141606  0.73692962  1
  Zr  Zr43  1  0.30108960  0.69543028  0.61869387  1
  Zr  Zr44  1  0.09281960  0.68983742  0.36920413  1
  Zr  Zr45  1  0.19106953  0.58350912  0.23641711  1
  Zr  Zr46  1  -0.01159670  0.80544821  0.25598717  1
  Zr  Zr47  1  0.39913179  0.58612079  0.75254263  1
  Zr  Zr48  1  0.79484965  0.61075950  -0.00086848  1
  Zr  Zr49  1  0.38790579  0.18726710  0.76379612  1
  Zr  Zr50  1  0.09378938  0.29495990  0.62577573  1
  Zr  Zr51  1  0.49676808  0.10246082  0.12069628  1
  Zr  Zr52  1  0.69717570  0.29768638  0.12678621  1
  Zr  Zr53  1  0.59060035  0.00017145  0.72255047  1
  Zr  Zr54  1  0.19851786  0.59947654  0.50174261  1
  Zr  Zr55  1  0.21813020  0.39389848  0.76869916  1
  Zr  Zr56  1  0.09863267  0.71661249  0.87994339  1
  Zr  Zr57  1  0.89628776  0.70491750  0.87755939  1
  Zr  Zr58  1  0.88400508  0.10225061  0.87781001  1
  Zr  Zr59  1  0.50658849  0.69020342  0.12555317  1
  Zr  Zr60  1  0.09799576  0.29073225  0.37987841  1
  Zr  Zr61  1  0.69922350  0.29555545  0.86877664  1
  Zr  Zr62  1  0.01649865  0.40221694  0.23358808  1
  Zr  Zr63  1  -0.01223736  0.78920354  0.48372878  1
  Zr  Zr64  1  0.11026241  0.10682729  0.61399726  1
  Zr  Zr65  1  0.70188962  0.90967711  0.38022159  1
  Zr  Zr66  1  0.31667499  0.48571881  0.61908327  1
  Zr  Zr67  1  0.19284086  0.80546810  0.50448267  1
  Zr  Zr68  1  -0.00391014  0.60734976  0.75603165  1
  Zr  Zr69  1  0.12032639  0.31082000  0.11003602  1
  Zr  Zr70  1  0.69114499  0.50767933  0.63385551  1
  Zr  Zr71  1  0.10140873  0.49294135  0.37792444  1
  Zr  Zr72  1  -0.01638355  0.59939658  0.22517150  1
  Zr  Zr73  1  0.29611134  0.47423777  0.13020102  1
  Zr  Zr74  1  0.51325363  0.50031324  0.37267934  1
  Zr  Zr75  1  0.31071847  0.27017988  0.11592998  1
  Zr  Zr76  1  0.60195709  0.79737656  0.25798488  1
  Zr  Zr77  1  0.40098141  0.00068434  -0.00266733  1
  Zr  Zr78  1  0.70530632  0.92045333  0.13701034  1
  Zr  Zr79  1  0.10048647  0.50442815  0.62524388  1
  Ta  Ta80  1  0.59235501  0.02405772  0.26319745  1
  Ta  Ta81  1  0.50673795  0.68411973  0.61048189  1
  Ta  Ta82  1  0.50359335  0.28613470  0.37980052  1
  Ta  Ta83  1  0.60386390  0.79151080  0.73798821  1
  Ta  Ta84  1  0.59148672  0.20502534  0.73061531  1
  Ta  Ta85  1  0.87690374  0.70934621  0.12816309  1
  Ta  Ta86  1  0.40045071  0.79454625  0.25176591  1
  Ta  Ta87  1  0.19725642  0.79575412  0.24086225  1
  Ta  Ta88  1  0.10866625  0.09528293  0.38332910  1
  Ta  Ta89  1  0.20860525  0.20129211  0.25770609  1
  Ta  Ta90  1  0.89796550  0.30292163  0.89105306  1
  Ta  Ta91  1  0.59676083  0.21223848  0.51994472  1
  Ta  Ta92  1  0.21752698  0.00774768  0.73752340  1
  Ta  Ta93  1  0.21005726  -0.00659429  0.50897845  1
  Ta  Ta94  1  0.89502924  0.69992559  0.62767703  1
  Ta  Ta95  1  0.59445889  0.60540442  0.75230253  1
  Ta  Ta96  1  0.89466675  0.10949285  0.38713039  1
  Ta  Ta97  1  -0.00222819  0.41068753  0.00209515  1
  Ta  Ta98  1  0.40550210  0.17709883  0.25705153  1
  Ta  Ta99  1  0.89816553  0.50152946  0.63215768  1
  Ta  Ta100  1  0.79365855  0.60719706  0.75058318  1
  Ta  Ta101  1  0.18751036  0.81348202  0.73498694  1
  Ta  Ta102  1  0.11058677  0.91451100  0.87473168  1
  Ta  Ta103  1  0.69185168  0.69239677  0.38384130  1
  Ta  Ta104  1  0.20241597  0.81166515  0.01720506  1
  Ta  Ta105  1  0.59521015  0.20705305  0.25176368  1
  Ta  Ta106  1  0.69254796  0.11869987  0.38827068  1
  Ta  Ta107  1  0.79899780  0.79905072  0.74043650  1
  Ta  Ta108  1  0.20062732  0.00352604  0.00487221  1
  Ta  Ta109  1  0.50464275  0.69512857  0.87688432  1
  Ta  Ta110  1  0.49816786  0.49204060  0.86899491  1
  Ta  Ta111  1  0.39795045  0.19092486  -0.02430732  1
  Ta  Ta112  1  0.80170504  0.21221642  0.51457522  1
  Ta  Ta113  1  0.80019650  0.80445359  0.49663493  1
  Ta  Ta114  1  0.50166103  0.48655718  0.13156877  1
  Ta  Ta115  1  0.10081077  0.50389061  0.89033150  1
  Ta  Ta116  1  0.30451147  0.90958648  0.13958903  1
  Ta  Ta117  1  0.80960134  0.41061868  0.23887254  1
  Ta  Ta118  1  0.40917361  0.37433275  0.25302122  1
  Ta  Ta119  1  0.91438538  0.89149264  0.63037379  1
  Ti  Ti120  1  0.47642836  0.10737731  0.62109645  1
  Ti  Ti121  1  0.50611399  0.29554661  0.86818091  1
  Ti  Ti122  1  0.59308482  0.39713180  0.00130083  1
  Ti  Ti123  1  0.20152615  0.18776549  -0.01987225  1
  Ti  Ti124  1  0.79355317  0.19909635  0.25187835  1
  Ti  Ti125  1  0.60023077  0.40476671  0.50023175  1
  Ti  Ti126  1  0.10340288  0.90425528  0.36263535  1
  Ti  Ti127  1  0.40116563  0.80091199  0.50508757  1
  Ti  Ti128  1  0.69745499  0.70032355  0.61855977  1
  Ti  Ti129  1  0.89406303  0.91393953  0.13702719  1
  Ti  Ti130  1  0.89459292  0.30327505  0.37060703  1
  Ti  Ti131  1  0.69548884  0.70969244  0.86866703  1
  Ti  Ti132  1  -0.01105751  0.00662314  0.26588535  1
  Ti  Ti133  1  0.70069232  0.88944103  0.61777168  1
  Ti  Ti134  1  0.69005346  0.31404715  0.63213427  1
  Ti  Ti135  1  0.60617739  0.60471292  0.24915239  1
  Ti  Ti136  1  0.30808375  0.28830444  0.38234297  1
  Ti  Ti137  1  0.87822541  0.09912025  0.11944338  1
  Ti  Ti138  1  0.41170482  0.59207466  0.25098721  1
  Ti  Ti139  1  0.19353492  0.19227135  0.77031377  1
  Ti  Ti140  1  0.50423142  0.08878615  0.86477040  1
  Ti  Ti141  1  0.70416232  0.51754664  0.13614345  1
  Ti  Ti142  1  0.89833973  0.50164774  0.87675149  1
  Ti  Ti143  1  0.21039783  0.01599663  0.25018169  1
  Ti  Ti144  1  0.02142518  -0.00266218  0.74003968  1
  Ti  Ti145  1  -0.00743038  0.60376430  0.01701297  1
  Ti  Ti146  1  0.50417265  0.49122818  0.62405084  1
  Ti  Ti147  1  0.59719891  0.79043331  0.49776041  1
  Ti  Ti148  1  0.08120598  0.70933340  0.62353911  1
  Ti  Ti149  1  0.69185991  0.10031695  0.86369223  1
  Ti  Ti150  1  0.60362172  0.40217673  0.24637239  1
  Ti  Ti151  1  0.80494507  0.40234260  0.74906793  1
  Ti  Ti152  1  0.91525625  0.11498457  0.61401111  1
  Ti  Ti153  1  0.40233084  0.58925936  -0.00263824  1
  Ti  Ti154  1  0.70721221  0.50395338  0.36517426  1
  Ti  Ti155  1  0.49997608  0.29683876  0.12095789  1
  Ti  Ti156  1  0.09713251  0.29791344  0.89164664  1
  Ti  Ti157  1  0.79879342  0.79609789  0.26393500  1
  Ti  Ti158  1  0.41525995  0.38732986  0.49807185  1
  Ti  Ti159  1  0.79892607  0.01416275  0.26470585  1
  Mo  Mo160  1  0.70177942  0.10481904  0.13758415  1
  Mo  Mo161  1  0.29002182  0.08525385  0.87432092  1
  Mo  Mo162  1  0.80193235  0.19339741  -0.00070292  1
  Mo  Mo163  1  0.58967183  0.39903890  0.74991807  1
  Mo  Mo164  1  0.29867029  0.50137059  0.88163459  1
  Mo  Mo165  1  0.30246317  0.09803188  0.61271711  1
  Mo  Mo166  1  0.78704134  0.60799725  0.25079006  1
  Mo  Mo167  1  0.89072962  0.49818224  0.12093709  1
  Mo  Mo168  1  0.89719121  0.30754229  0.62997843  1
  Mo  Mo169  1  0.09538234  0.50280945  0.10070535  1
  Mo  Mo170  1  0.70114283  0.70783094  0.13075636  1
  Mo  Mo171  1  0.69741574  0.11120326  0.61557203  1
  Mo  Mo172  1  0.50856263  0.10443001  0.38657370  1
  Mo  Mo173  1  0.60930033  -0.00117080  -0.00817146  1
  Mo  Mo174  1  -0.01026340  0.19583612  0.49082642  1
  Mo  Mo175  1  0.09763111  0.09008505  0.87388273  1
  Mo  Mo176  1  -0.00987691  0.59772702  0.51062157  1
  Mo  Mo177  1  0.09582257  0.70765064  0.12317974  1
  Mo  Mo178  1  0.41689199  0.59712022  0.49548732  1
  Mo  Mo179  1  0.00263358  0.80761540  0.74585164  1
  Mo  Mo180  1  0.29804123  0.29305616  0.88110756  1
  Mo  Mo181  1  0.00269522  0.20207695  -0.01069424  1
  Mo  Mo182  1  0.50366682  0.88260921  0.61346118  1
  Mo  Mo183  1  0.10069443  0.90064551  0.62294461  1
  Mo  Mo184  1  0.60346241  0.59605330  0.49733953  1
  Mo  Mo185  1  0.49730258  0.69607230  0.38302046  1
  Mo  Mo186  1  0.40068889  -0.00394558  0.73886785  1
  Mo  Mo187  1  0.20278085  0.39712483  -0.01907614  1
  Mo  Mo188  1  0.22213830  0.37797613  0.26166874  1
  Mo  Mo189  1  0.41040662  0.19904579  0.50062942  1
  Mo  Mo190  1  0.41226424  0.38725891  0.75946556  1
  Mo  Mo191  1  0.77936248  0.01631015  -0.00059293  1
  Mo  Mo192  1  0.20133638  0.19408376  0.49113602  1
  Mo  Mo193  1  0.39987976  -0.01178629  0.51599676  1
  Mo  Mo194  1  0.30676368  0.90427384  0.62653207  1
  Mo  Mo195  1  0.89440123  0.91149130  0.37127507  1
  Mo  Mo196  1  0.88183358  0.70153361  0.37121033  1
  Mo  Mo197  1  0.40038080  0.00005666  0.25140806  1
  Mo  Mo198  1  0.49665797  0.31069017  0.62826244  1
  Mo  Mo199  1  0.28960692  0.09574022  0.12495310  1
