# generated using pymatgen
data_HfZrTaTiMo
_symmetry_space_group_name_H-M   'P 1'
_cell_length_a   15.18420804
_cell_length_b   15.20896248
_cell_length_c   16.82962384
_cell_angle_alpha   89.99827895
_cell_angle_beta   89.98611483
_cell_angle_gamma   90.02558238
_symmetry_Int_Tables_number   1
_chemical_formula_structural   HfZrTaTiMo
_chemical_formula_sum   'Hf40 Zr40 Ta40 Ti40 Mo40'
_cell_volume   3886.56635660
_cell_formula_units_Z   40
loop_
 _symmetry_equiv_pos_site_id
 _symmetry_equiv_pos_as_xyz
  1  'x, y, z'
loop_
 _atom_site_type_symbol
 _atom_site_label
 _atom_site_symmetry_multiplicity
 _atom_site_fract_x
 _atom_site_fract_y
 _atom_site_fract_z
 _atom_site_occupancy
  Hf  Hf0  1  0.09148180  0.69024118  0.62995907  1
  Hf  Hf1  1  -0.01671991  0.60306044  -0.00027977  1
  Hf  Hf2  1  0.19875510  0.39532707  0.01168361  1
  Hf  Hf3  1  0.88387484  0.49666662  0.87321164  1
  Hf  Hf4  1  0.39726699  -0.00614995  0.00223016  1
  Hf  Hf5  1  0.80676659  0.01416919  0.23865761  1
  Hf  Hf6  1  0.50665976  0.10383932  0.86061041  1
  Hf  Hf7  1  0.29514190  0.08421996  0.87029990  1
  Hf  Hf8  1  0.81268000  0.00992636  0.00709027  1
  Hf  Hf9  1  0.10442537  0.30566377  0.62815940  1
  Hf  Hf10  1  0.19605494  -0.01277292  0.48764384  1
  Hf  Hf11  1  0.50000292  0.09297290  0.12729323  1
  Hf  Hf12  1  0.41517073  0.40498830  -0.00283965  1
  Hf  Hf13  1  0.70633126  0.88675707  0.88798642  1
  Hf  Hf14  1  0.20755847  0.40577744  0.23706942  1
  Hf  Hf15  1  0.49362088  0.69567399  0.12315143  1
  Hf  Hf16  1  0.50050327  0.29916217  0.37834448  1
  Hf  Hf17  1  0.59471139  0.40119103  0.51490860  1
  Hf  Hf18  1  0.09069694  0.69927221  0.88463613  1
  Hf  Hf19  1  0.19362583  0.78357513  0.24780431  1
  Hf  Hf20  1  0.09973537  0.09689441  0.62316915  1
  Hf  Hf21  1  0.79644437  0.60470243  0.73777661  1
  Hf  Hf22  1  0.40645021  -0.00334925  0.50215107  1
  Hf  Hf23  1  0.80474888  0.61696154  0.52400134  1
  Hf  Hf24  1  0.70739127  0.49782428  0.38384741  1
  Hf  Hf25  1  0.50222015  0.89978697  0.87284761  1
  Hf  Hf26  1  0.00654983  0.00347542  0.00384168  1
  Hf  Hf27  1  0.29093232  0.69007312  0.10486023  1
  Hf  Hf28  1  0.19936996  0.79457375  0.76334230  1
  Hf  Hf29  1  0.39872921  0.20840184  0.50598275  1
  Hf  Hf30  1  0.39644981  0.20443443  0.74377771  1
  Hf  Hf31  1  0.40409832  -0.00951645  0.25205801  1
  Hf  Hf32  1  -0.01731241  0.19472594  0.00860782  1
  Hf  Hf33  1  0.62172300  -0.01003325  0.74543096  1
  Hf  Hf34  1  0.88825101  0.90121742  0.61886763  1
  Hf  Hf35  1  0.71517314  0.90332572  0.38557707  1
  Hf  Hf36  1  0.39168382  0.79798040  0.75983278  1
  Hf  Hf37  1  0.40084648  0.59515926  0.50604801  1
  Hf  Hf38  1  0.20040246  0.58334644  0.50394320  1
  Hf  Hf39  1  0.77908292  0.80589945  0.73894217  1
  Zr  Zr40  1  0.20343573  -0.01287759  0.25753357  1
  Zr  Zr41  1  0.60304687  0.20872462  -0.00827309  1
  Zr  Zr42  1  0.19434279  0.20007707  0.75134596  1
  Zr  Zr43  1  0.50081755  0.29857627  0.12984247  1
  Zr  Zr44  1  0.91284232  0.51732324  0.37801967  1
  Zr  Zr45  1  0.89739697  0.70738123  0.37705184  1
  Zr  Zr46  1  0.59758603  0.60085264  0.51369925  1
  Zr  Zr47  1  0.89842592  0.31619589  0.37747675  1
  Zr  Zr48  1  0.00215301  0.20873049  0.49013796  1
  Zr  Zr49  1  0.09927414  0.88958882  0.12410498  1
  Zr  Zr50  1  0.71511591  0.10879342  0.87195470  1
  Zr  Zr51  1  0.08646596  0.29625686  0.88004460  1
  Zr  Zr52  1  0.79081949  0.39197197  0.73056978  1
  Zr  Zr53  1  0.02336562  0.41226289  0.49788742  1
  Zr  Zr54  1  -0.01916767  0.19769542  0.24963545  1
  Zr  Zr55  1  0.49365431  0.69913061  0.36685738  1
  Zr  Zr56  1  0.20765713  0.59155938  0.76395482  1
  Zr  Zr57  1  0.40175506  0.39637046  0.24845228  1
  Zr  Zr58  1  0.29605949  0.09987700  0.61944739  1
  Zr  Zr59  1  0.81945180  0.80217882  0.23112452  1
  Zr  Zr60  1  0.92231441  0.90274010  0.37613369  1
  Zr  Zr61  1  0.61285630  0.58892106  -0.00966203  1
  Zr  Zr62  1  0.81113197  0.40168721  0.24757750  1
  Zr  Zr63  1  0.09999517  0.88763500  0.62749770  1
  Zr  Zr64  1  0.92169940  0.50614175  0.62345899  1
  Zr  Zr65  1  0.29833588  0.30292281  0.88195358  1
  Zr  Zr66  1  0.08208018  0.30671948  0.13943928  1
  Zr  Zr67  1  -0.00563088  0.00215343  0.74746950  1
  Zr  Zr68  1  0.69850809  0.69835977  0.37184806  1
  Zr  Zr69  1  0.19823504  0.20964441  0.48264404  1
  Zr  Zr70  1  0.50881315  0.89960571  0.37830933  1
  Zr  Zr71  1  0.88214268  0.10300462  0.38707763  1
  Zr  Zr72  1  0.39670162  0.19578679  -0.00203829  1
  Zr  Zr73  1  0.89608884  0.11073845  0.61447204  1
  Zr  Zr74  1  0.19133265  0.18318326  0.01740079  1
  Zr  Zr75  1  0.51920008  0.50396453  0.13608910  1
  Zr  Zr76  1  0.60264125  0.79927151  0.23967645  1
  Zr  Zr77  1  0.70043595  0.90251939  0.11310345  1
  Zr  Zr78  1  0.60021138  0.19960154  0.25384949  1
  Zr  Zr79  1  0.09954386  0.90683937  0.87422084  1
  Ta  Ta80  1  -0.01534559  0.39948052  0.00307193  1
  Ta  Ta81  1  0.49722033  0.70500716  0.63928504  1
  Ta  Ta82  1  0.61333919  0.21122711  0.73469034  1
  Ta  Ta83  1  0.09700096  0.49381660  0.88775197  1
  Ta  Ta84  1  0.29088644  0.68433542  0.37730262  1
  Ta  Ta85  1  0.20308908  0.19392312  0.25558167  1
  Ta  Ta86  1  0.00165794  0.40221611  0.75450964  1
  Ta  Ta87  1  0.10084220  0.51560651  0.11382757  1
  Ta  Ta88  1  0.38758412  0.40665005  0.50483553  1
  Ta  Ta89  1  -0.02015208  0.80447512  0.00474691  1
  Ta  Ta90  1  0.70261205  0.29454443  0.39276873  1
  Ta  Ta91  1  0.69781794  0.31285796  0.12074921  1
  Ta  Ta92  1  0.50521524  0.89565288  0.62876090  1
  Ta  Ta93  1  0.08965986  0.08530997  0.36287616  1
  Ta  Ta94  1  0.38926338  0.40896558  0.75018968  1
  Ta  Ta95  1  0.60914151  0.00476417  0.24924696  1
  Ta  Ta96  1  0.30213025  0.88679985  0.61793229  1
  Ta  Ta97  1  0.68826642  0.09903365  0.39391770  1
  Ta  Ta98  1  0.30711491  0.89162560  0.12080199  1
  Ta  Ta99  1  0.09591470  0.10108692  0.87191191  1
  Ta  Ta100  1  0.29686973  0.69586503  0.62530470  1
  Ta  Ta101  1  0.00445010  0.62334542  0.23421794  1
  Ta  Ta102  1  0.50756099  0.69480227  0.87011500  1
  Ta  Ta103  1  0.39980448  -0.00614912  0.74051785  1
  Ta  Ta104  1  0.89575714  0.89981883  0.86860635  1
  Ta  Ta105  1  0.09627209  0.70396944  0.38216345  1
  Ta  Ta106  1  0.19823050  0.59586291  0.24234781  1
  Ta  Ta107  1  0.20190714  0.80297646  -0.01056321  1
  Ta  Ta108  1  0.50893227  0.49650063  0.85793164  1
  Ta  Ta109  1  0.70346578  0.09043041  0.60995358  1
  Ta  Ta110  1  0.49372959  0.30603216  0.63262571  1
  Ta  Ta111  1  0.59902502  0.00191900  -0.00146181  1
  Ta  Ta112  1  0.60424110  0.80083174  0.51078020  1
  Ta  Ta113  1  0.50154785  0.50120394  0.36857308  1
  Ta  Ta114  1  0.30042227  0.87656478  0.38410542  1
  Ta  Ta115  1  0.30451293  0.09751504  0.37594155  1
  Ta  Ta116  1  -0.00178759  0.60164761  0.76475113  1
  Ta  Ta117  1  0.50806683  0.09774432  0.63119359  1
  Ta  Ta118  1  0.11426765  0.50978923  0.36490811  1
  Ta  Ta119  1  0.60088824  0.79057753  0.00209575  1
  Ti  Ti120  1  0.50188282  0.09909490  0.37739312  1
  Ti  Ti121  1  0.09862270  0.31216238  0.35430607  1
  Ti  Ti122  1  0.20585423  -0.00211175  0.00845650  1
  Ti  Ti123  1  0.39042816  0.59548550  0.25144387  1
  Ti  Ti124  1  0.00024718  0.79121826  0.50551606  1
  Ti  Ti125  1  0.30080537  0.28235573  0.12848473  1
  Ti  Ti126  1  0.31064049  0.50479973  0.11059883  1
  Ti  Ti127  1  0.39543855  0.60248933  0.75608791  1
  Ti  Ti128  1  0.69828818  0.31816636  0.86754867  1
  Ti  Ti129  1  0.61617234  0.40404818  0.25762791  1
  Ti  Ti130  1  0.87685528  0.70911232  0.87697313  1
  Ti  Ti131  1  0.00309245  -0.00269048  0.50053591  1
  Ti  Ti132  1  0.39092257  0.18941524  0.25334263  1
  Ti  Ti133  1  0.50852442  0.30834815  0.85505842  1
  Ti  Ti134  1  0.78450372  0.20562336  0.25092500  1
  Ti  Ti135  1  0.79603282  0.59977728  0.24167843  1
  Ti  Ti136  1  0.80114770  0.19636319  0.73711225  1
  Ti  Ti137  1  0.78932340  0.41445088  0.00192913  1
  Ti  Ti138  1  0.90280346  0.10249683  0.86757143  1
  Ti  Ti139  1  0.70612818  0.11753372  0.11450299  1
  Ti  Ti140  1  0.09392558  0.09316929  0.14435283  1
  Ti  Ti141  1  0.30613986  0.50959967  0.89158304  1
  Ti  Ti142  1  0.50080799  0.89337122  0.11996823  1
  Ti  Ti143  1  0.49521828  0.50330033  0.64269821  1
  Ti  Ti144  1  0.20198802  0.40041207  0.76027694  1
  Ti  Ti145  1  0.89598759  0.50500538  0.12478359  1
  Ti  Ti146  1  0.40055014  0.79409623  -0.01194582  1
  Ti  Ti147  1  0.20852339  -0.00982926  0.74718607  1
  Ti  Ti148  1  0.11791377  0.49722228  0.63575249  1
  Ti  Ti149  1  0.59678566  0.19872140  0.51260451  1
  Ti  Ti150  1  0.80122050  0.39633984  0.52210535  1
  Ti  Ti151  1  0.70460118  0.68307510  0.12098065  1
  Ti  Ti152  1  0.38915421  0.79285206  0.24735668  1
  Ti  Ti153  1  0.88151518  0.29903015  0.11919385  1
  Ti  Ti154  1  0.88555148  0.29510468  0.87830374  1
  Ti  Ti155  1  0.29696453  0.30974586  0.36995928  1
  Ti  Ti156  1  -0.01039354  0.21033688  0.74876415  1
  Ti  Ti157  1  0.39980034  0.79042590  0.50532816  1
  Ti  Ti158  1  0.60888547  0.60305498  0.74695891  1
  Ti  Ti159  1  0.60622169  0.40072636  -0.00787912  1
  Mo  Mo160  1  0.20786204  0.78651827  0.50063170  1
  Mo  Mo161  1  0.29405670  0.09157960  0.13657591  1
  Mo  Mo162  1  0.69685857  0.69389670  0.87565887  1
  Mo  Mo163  1  0.30311302  0.49540751  0.63371837  1
  Mo  Mo164  1  0.09879303  0.69847553  0.10563504  1
  Mo  Mo165  1  0.59318720  0.79227383  0.74896420  1
  Mo  Mo166  1  0.79082296  0.21025873  0.50503341  1
  Mo  Mo167  1  0.80035453  0.78783484  0.00769610  1
  Mo  Mo168  1  0.90530640  0.90621909  0.12451980  1
  Mo  Mo169  1  0.59417176  0.00275901  0.50605503  1
  Mo  Mo170  1  0.30586348  0.69559714  0.89254045  1
  Mo  Mo171  1  0.69403777  0.90505782  0.61093143  1
  Mo  Mo172  1  0.19914294  0.59462395  -0.01033799  1
  Mo  Mo173  1  0.90935534  0.71071198  0.63546972  1
  Mo  Mo174  1  -0.00162345  -0.00570781  0.24534473  1
  Mo  Mo175  1  0.59581285  0.40418167  0.73434907  1
  Mo  Mo176  1  0.21090791  0.39789187  0.49134585  1
  Mo  Mo177  1  -0.01679843  0.78696515  0.75662956  1
  Mo  Mo178  1  0.79936274  0.00034000  0.49680724  1
  Mo  Mo179  1  0.30051284  0.89961902  0.88032971  1
  Mo  Mo180  1  0.71031641  0.49673835  0.12805556  1
  Mo  Mo181  1  0.79771299  0.60162559  -0.00011156  1
  Mo  Mo182  1  0.79826989  0.22243608  -0.00409412  1
  Mo  Mo183  1  0.69366371  0.49564110  0.86495976  1
  Mo  Mo184  1  0.79869652  0.80257626  0.51232709  1
  Mo  Mo185  1  0.89601259  0.10831986  0.12778704  1
  Mo  Mo186  1  0.69986328  0.28993848  0.61271891  1
  Mo  Mo187  1  0.69367762  0.50168146  0.62334646  1
  Mo  Mo188  1  0.80139904  0.00638288  0.75324808  1
  Mo  Mo189  1  0.00990309  0.60781942  0.49942903  1
  Mo  Mo190  1  0.40897667  0.59986646  -0.01173789  1
  Mo  Mo191  1  0.30796152  0.50133656  0.36979536  1
  Mo  Mo192  1  0.01427384  0.43458663  0.24568003  1
  Mo  Mo193  1  0.29814184  0.31823434  0.62743099  1
  Mo  Mo194  1  0.90780447  0.30320847  0.62786724  1
  Mo  Mo195  1  0.60723152  0.59209760  0.25192958  1
  Mo  Mo196  1  0.69027318  0.70880726  0.62740286  1
  Mo  Mo197  1  0.01050060  0.80141819  0.24513626  1
  Mo  Mo198  1  0.10308706  0.88922564  0.38159426  1
  Mo  Mo199  1  0.89792099  0.69947478  0.12113068  1
