# generated using pymatgen
data_HfZrTaTiMo
_symmetry_space_group_name_H-M   'P 1'
_cell_length_a   15.20635944
_cell_length_b   15.18869208
_cell_length_c   16.83540568
_cell_angle_alpha   89.97964306
_cell_angle_beta   90.06624766
_cell_angle_gamma   90.12583910
_symmetry_Int_Tables_number   1
_chemical_formula_structural   HfZrTaTiMo
_chemical_formula_sum   'Hf40 Zr40 Ta40 Ti40 Mo40'
_cell_volume   3888.37239391
_cell_formula_units_Z   40
loop_
 _symmetry_equiv_pos_site_id
 _symmetry_equiv_pos_as_xyz
  1  'x, y, z'
loop_
 _atom_site_type_symbol
 _atom_site_label
 _atom_site_symmetry_multiplicity
 _atom_site_fract_x
 _atom_site_fract_y
 _atom_site_fract_z
 _atom_site_occupancy
  Hf  Hf0  1  0.81579428  0.60567975  0.75935137  1
  Hf  Hf1  1  0.59617828  0.40448582  0.49876532  1
  Hf  Hf2  1  0.37287304  0.20575186  0.73921672  1
  Hf  Hf3  1  0.38900153  0.20329373  0.26404059  1
  Hf  Hf4  1  0.39375490  -0.00728499  0.26134953  1
  Hf  Hf5  1  0.10954057  0.08850470  0.12915850  1
  Hf  Hf6  1  0.79651788  0.79103820  0.25749189  1
  Hf  Hf7  1  0.41272119  0.39465014  0.74412181  1
  Hf  Hf8  1  0.20877762  0.80183860  0.74042573  1
  Hf  Hf9  1  0.49925022  0.90532139  0.12422792  1
  Hf  Hf10  1  0.00340875  0.79241099  0.75392517  1
  Hf  Hf11  1  0.71068438  0.48298587  0.38084023  1
  Hf  Hf12  1  0.87296068  0.31032057  0.37902569  1
  Hf  Hf13  1  0.30998153  0.10225836  0.12727114  1
  Hf  Hf14  1  0.49590598  0.69568852  0.12119632  1
  Hf  Hf15  1  0.00891063  0.01376704  0.74585649  1
  Hf  Hf16  1  0.70615898  0.89161644  0.62796312  1
  Hf  Hf17  1  0.28743208  0.10584998  0.86765301  1
  Hf  Hf18  1  0.09960006  0.49623063  0.62476026  1
  Hf  Hf19  1  0.90232789  0.89798734  0.39528723  1
  Hf  Hf20  1  0.28821654  0.89858552  0.12456663  1
  Hf  Hf21  1  0.80756794  0.80243870  0.75853940  1
  Hf  Hf22  1  0.11214324  0.71312654  0.39177544  1
  Hf  Hf23  1  -0.01867328  0.19850421  0.26254088  1
  Hf  Hf24  1  0.09391611  0.30991147  0.13676071  1
  Hf  Hf25  1  0.49406179  0.29903909  0.38591785  1
  Hf  Hf26  1  0.48915637  0.08994064  0.87294118  1
  Hf  Hf27  1  0.18412760  0.19575247  0.49003885  1
  Hf  Hf28  1  0.80875301  0.00577003  0.25905353  1
  Hf  Hf29  1  0.49763633  0.09387382  0.39081858  1
  Hf  Hf30  1  0.09268692  0.51573966  0.38059657  1
  Hf  Hf31  1  0.90779565  0.68763843  0.38987663  1
  Hf  Hf32  1  0.90573314  0.49151821  0.88231753  1
  Hf  Hf33  1  0.59670644  0.20113924  0.24606978  1
  Hf  Hf34  1  -0.01473158  0.41179471  0.25047662  1
  Hf  Hf35  1  0.90107611  0.70029281  0.61283726  1
  Hf  Hf36  1  -0.01891338  0.20711831  0.49672577  1
  Hf  Hf37  1  0.01046367  0.01700175  0.50645163  1
  Hf  Hf38  1  0.50630931  0.89616890  0.85550994  1
  Hf  Hf39  1  0.60140809  0.60635458  0.74676130  1
  Zr  Zr40  1  0.20332210  0.60168680  0.73592555  1
  Zr  Zr41  1  0.68478757  0.30742364  0.63283918  1
  Zr  Zr42  1  0.70743677  0.89526268  0.12500295  1
  Zr  Zr43  1  0.61534736  0.80360777  -0.00614037  1
  Zr  Zr44  1  0.10262712  0.49410493  0.85993456  1
  Zr  Zr45  1  0.00722344  0.60507444  0.22955955  1
  Zr  Zr46  1  0.40365937  0.41288164  0.26180462  1
  Zr  Zr47  1  0.89263254  0.70617652  0.10901387  1
  Zr  Zr48  1  0.19903297  0.81851811  0.25742515  1
  Zr  Zr49  1  0.60006273  0.20053316  -0.00064308  1
  Zr  Zr50  1  0.49050663  0.30258983  0.88563262  1
  Zr  Zr51  1  0.40191173  0.58022591  0.01078110  1
  Zr  Zr52  1  0.30380722  0.69543621  0.87041404  1
  Zr  Zr53  1  0.30232742  0.48677385  0.86647670  1
  Zr  Zr54  1  0.69583566  0.68850903  0.39002767  1
  Zr  Zr55  1  0.89774074  0.10553896  0.86504045  1
  Zr  Zr56  1  0.70653202  0.50668262  0.62474276  1
  Zr  Zr57  1  0.78794167  0.59560893  -0.00921669  1
  Zr  Zr58  1  0.69566395  0.10621613  0.85354933  1
  Zr  Zr59  1  0.20956042  0.00192442  -0.00849671  1
  Zr  Zr60  1  -0.00060190  0.80117782  0.25543283  1
  Zr  Zr61  1  0.91179002  0.90067991  0.11690188  1
  Zr  Zr62  1  0.50178952  0.69422904  0.87860047  1
  Zr  Zr63  1  0.30520372  0.48747505  0.62491843  1
  Zr  Zr64  1  0.19005272  0.19736444  0.26929660  1
  Zr  Zr65  1  0.60376180  -0.00507303  0.25862193  1
  Zr  Zr66  1  0.49170155  0.30084346  0.12021857  1
  Zr  Zr67  1  0.57819295  0.21550598  0.74473989  1
  Zr  Zr68  1  0.00586583  0.20829249  -0.00077902  1
  Zr  Zr69  1  0.18647440  0.40969399  0.00639410  1
  Zr  Zr70  1  0.01896489  -0.00089248  0.26657169  1
  Zr  Zr71  1  0.89983713  0.10093305  0.11805474  1
  Zr  Zr72  1  0.39158179  0.80490340  0.00017907  1
  Zr  Zr73  1  0.21153127  0.61108044  0.24443732  1
  Zr  Zr74  1  0.69373501  0.68611764  0.12466210  1
  Zr  Zr75  1  0.69962617  0.89338898  0.39089541  1
  Zr  Zr76  1  0.00711951  -0.00394072  -0.01934234  1
  Zr  Zr77  1  0.01579355  0.58963017  0.01293890  1
  Zr  Zr78  1  0.60105180  -0.00390485  0.50585044  1
  Zr  Zr79  1  0.60028751  0.58301146  0.25471325  1
  Ta  Ta80  1  0.78251098  0.39543906  0.23970894  1
  Ta  Ta81  1  0.78760053  0.20113934  0.24473816  1
  Ta  Ta82  1  0.39544876  0.00284482  0.73506126  1
  Ta  Ta83  1  0.81139640  0.58391475  0.24770155  1
  Ta  Ta84  1  0.29014617  0.08772305  0.39045919  1
  Ta  Ta85  1  0.50728063  0.49692236  0.87558346  1
  Ta  Ta86  1  0.79224630  -0.00386147  -0.01142600  1
  Ta  Ta87  1  0.09358023  0.30059417  0.62124559  1
  Ta  Ta88  1  0.39677989  0.78904834  0.25025291  1
  Ta  Ta89  1  0.31064154  0.90459289  0.86157258  1
  Ta  Ta90  1  0.21344602  0.80391512  0.51683015  1
  Ta  Ta91  1  0.40607959  0.79547904  0.52024245  1
  Ta  Ta92  1  0.50916683  0.89689396  0.63822339  1
  Ta  Ta93  1  0.20668427  0.61087569  0.01439098  1
  Ta  Ta94  1  0.81623452  0.57857675  0.50035750  1
  Ta  Ta95  1  0.70030561  0.09826862  0.11939940  1
  Ta  Ta96  1  0.69551708  0.09644774  0.64065126  1
  Ta  Ta97  1  0.39445853  -0.00855673  0.51131998  1
  Ta  Ta98  1  0.29179462  0.30321278  0.13352313  1
  Ta  Ta99  1  0.80218962  0.40089597  0.75223646  1
  Ta  Ta100  1  0.81660426  0.21015346  0.73446020  1
  Ta  Ta101  1  0.10953310  0.91124286  0.62753870  1
  Ta  Ta102  1  0.38430273  0.40895900  0.48531828  1
  Ta  Ta103  1  -0.00392867  0.38612868  0.74511268  1
  Ta  Ta104  1  0.10693807  0.29271692  0.86576607  1
  Ta  Ta105  1  0.21717766  0.60080975  0.50608968  1
  Ta  Ta106  1  0.20560869  0.21180402  0.00122495  1
  Ta  Ta107  1  0.48919201  0.87856795  0.38391268  1
  Ta  Ta108  1  -0.01690980  0.41406573  0.49792799  1
  Ta  Ta109  1  0.10041538  0.69247157  0.87257809  1
  Ta  Ta110  1  0.79435457  0.20303920  -0.00296477  1
  Ta  Ta111  1  0.78944431  0.20083100  0.51759118  1
  Ta  Ta112  1  0.32008155  0.70079801  0.38893593  1
  Ta  Ta113  1  0.70279189  0.91314355  0.85415639  1
  Ta  Ta114  1  0.00093027  0.80036659  -0.02304720  1
  Ta  Ta115  1  0.90808816  0.49919751  0.63321418  1
  Ta  Ta116  1  0.48821256  0.10344751  0.61781709  1
  Ta  Ta117  1  0.80766492  0.01300903  0.51337209  1
  Ta  Ta118  1  0.70539524  0.31001164  0.86884622  1
  Ta  Ta119  1  0.19044238  0.80331170  -0.01090020  1
  Ti  Ti120  1  0.10827573  0.72483782  0.11808979  1
  Ti  Ti121  1  0.39048292  0.19285131  -0.00138840  1
  Ti  Ti122  1  0.50116738  0.09591029  0.11850920  1
  Ti  Ti123  1  0.59874297  0.00111232  -0.00441887  1
  Ti  Ti124  1  0.90202966  0.30220137  0.87911649  1
  Ti  Ti125  1  0.28320072  0.09658958  0.61478566  1
  Ti  Ti126  1  0.19292683  0.40216782  0.48528811  1
  Ti  Ti127  1  0.30486575  0.90286582  0.63000332  1
  Ti  Ti128  1  0.59032810  0.79138972  0.25769814  1
  Ti  Ti129  1  0.88716130  0.30129423  0.11751021  1
  Ti  Ti130  1  0.28735847  0.29595619  0.60619821  1
  Ti  Ti131  1  0.51838080  0.49111736  0.12501224  1
  Ti  Ti132  1  0.70265164  0.69920757  0.61408393  1
  Ti  Ti133  1  0.69583923  0.49879204  0.86913698  1
  Ti  Ti134  1  0.49843455  0.51616189  0.38364810  1
  Ti  Ti135  1  0.70965347  0.10543879  0.38355649  1
  Ti  Ti136  1  0.09989965  0.69876358  0.61746989  1
  Ti  Ti137  1  0.47858056  0.30126209  0.60290539  1
  Ti  Ti138  1  0.59636517  0.19594504  0.50937202  1
  Ti  Ti139  1  0.11946465  0.91793194  0.39438779  1
  Ti  Ti140  1  0.38396302  0.38680660  0.00167306  1
  Ti  Ti141  1  0.01010999  0.80807500  0.50988367  1
  Ti  Ti142  1  0.08672431  0.31094459  0.37422680  1
  Ti  Ti143  1  0.41038236  0.78716589  0.73353840  1
  Ti  Ti144  1  0.89242285  0.48605403  0.10885190  1
  Ti  Ti145  1  0.30311426  0.89418468  0.38843715  1
  Ti  Ti146  1  0.70003456  0.70538870  0.87464423  1
  Ti  Ti147  1  0.20732703  0.40746811  0.26714314  1
  Ti  Ti148  1  0.40589987  0.59945834  0.73682273  1
  Ti  Ti149  1  0.69498714  0.30648698  0.11895645  1
  Ti  Ti150  1  0.50942151  0.49818126  0.62236829  1
  Ti  Ti151  1  0.11366596  0.90819248  0.85811327  1
  Ti  Ti152  1  0.90437997  0.90452578  0.62095920  1
  Ti  Ti153  1  0.17826111  0.19015571  0.73931548  1
  Ti  Ti154  1  0.61169565  0.41353141  -0.00110435  1
  Ti  Ti155  1  0.59076063  0.78394722  0.50597886  1
  Ti  Ti156  1  0.40023690  0.60357582  0.25192028  1
  Ti  Ti157  1  0.68761806  0.29021476  0.37734819  1
  Ti  Ti158  1  0.29895433  0.49613613  0.13157642  1
  Ti  Ti159  1  0.41747852  0.60512793  0.51037414  1
  Mo  Mo160  1  0.20463460  -0.00558658  0.50816181  1
  Mo  Mo161  1  0.60152185  0.41150762  0.75700497  1
  Mo  Mo162  1  0.60678874  0.79603224  0.74879410  1
  Mo  Mo163  1  0.79685497  0.38746473  -0.00432961  1
  Mo  Mo164  1  0.60025817  0.39220846  0.25483526  1
  Mo  Mo165  1  0.40847144  0.00237477  -0.00480057  1
  Mo  Mo166  1  0.89743072  0.10282224  0.63162757  1
  Mo  Mo167  1  0.59871705  0.58935892  -0.00433958  1
  Mo  Mo168  1  0.28904512  0.29891207  0.87289650  1
  Mo  Mo169  1  0.20505697  0.37037955  0.74104933  1
  Mo  Mo170  1  0.01239644  0.60009088  0.50488105  1
  Mo  Mo171  1  0.89958573  0.90386991  0.86839545  1
  Mo  Mo172  1  0.60137512  0.59724522  0.50325394  1
  Mo  Mo173  1  0.30057806  0.51299730  0.38218679  1
  Mo  Mo174  1  -0.00579068  0.39285615  0.00382694  1
  Mo  Mo175  1  0.80857089  0.81105760  -0.03211709  1
  Mo  Mo176  1  0.90879797  0.69632646  0.88190820  1
  Mo  Mo177  1  0.09998660  0.89823426  0.11603812  1
  Mo  Mo178  1  0.89668780  0.30996612  0.62042284  1
  Mo  Mo179  1  0.00239410  0.59954071  0.75074923  1
  Mo  Mo180  1  0.70362767  0.48813769  0.12520640  1
  Mo  Mo181  1  0.09340443  0.10225307  0.37719828  1
  Mo  Mo182  1  0.80631917  0.00320381  0.73306416  1
  Mo  Mo183  1  0.88173618  0.10457029  0.38159011  1
  Mo  Mo184  1  0.38986029  0.19905642  0.50274495  1
  Mo  Mo185  1  0.20927233  0.00102913  0.25971830  1
  Mo  Mo186  1  0.10005325  0.10726947  0.62358859  1
  Mo  Mo187  1  0.00196489  0.21030917  0.74568931  1
  Mo  Mo188  1  0.29901093  0.69956822  0.12515233  1
  Mo  Mo189  1  0.80206751  0.38914031  0.50764983  1
  Mo  Mo190  1  0.29018526  0.30570311  0.38504737  1
  Mo  Mo191  1  0.30828094  0.69845283  0.61896935  1
  Mo  Mo192  1  0.89724168  0.50151363  0.37094585  1
  Mo  Mo193  1  0.49571483  0.70015506  0.37829507  1
  Mo  Mo194  1  0.20800580  0.00256183  0.74480405  1
  Mo  Mo195  1  0.51235653  0.69572860  0.62773005  1
  Mo  Mo196  1  0.80606118  0.79725540  0.50791525  1
  Mo  Mo197  1  0.59545492  0.00309773  0.73717766  1
  Mo  Mo198  1  0.10842968  0.49887342  0.13419841  1
  Mo  Mo199  1  0.10555666  0.10920621  0.87237122  1
