# generated using pymatgen
data_HfZrTaTiMo
_symmetry_space_group_name_H-M   'P 1'
_cell_length_a   15.18145037
_cell_length_b   15.17172741
_cell_length_c   16.82177120
_cell_angle_alpha   90.02886364
_cell_angle_beta   90.05853468
_cell_angle_gamma   90.02862654
_symmetry_Int_Tables_number   1
_chemical_formula_structural   HfZrTaTiMo
_chemical_formula_sum   'Hf40 Zr40 Ta40 Ti40 Mo40'
_cell_volume   3874.53582470
_cell_formula_units_Z   40
loop_
 _symmetry_equiv_pos_site_id
 _symmetry_equiv_pos_as_xyz
  1  'x, y, z'
loop_
 _atom_site_type_symbol
 _atom_site_label
 _atom_site_symmetry_multiplicity
 _atom_site_fract_x
 _atom_site_fract_y
 _atom_site_fract_z
 _atom_site_occupancy
  Hf  Hf0  1  0.38845453  0.61087932  0.75463459  1
  Hf  Hf1  1  0.30516956  0.50314073  0.36683038  1
  Hf  Hf2  1  0.49989343  0.89013083  0.11472879  1
  Hf  Hf3  1  0.19741125  0.80717041  0.21895274  1
  Hf  Hf4  1  0.29361290  0.50602499  0.63401926  1
  Hf  Hf5  1  0.60693291  0.00337531  0.26456983  1
  Hf  Hf6  1  0.38310866  0.02716217  0.74290671  1
  Hf  Hf7  1  0.79575732  -0.00553181  0.49221590  1
  Hf  Hf8  1  0.21755293  0.81183084  0.01368659  1
  Hf  Hf9  1  0.38656646  0.82408743  0.74133330  1
  Hf  Hf10  1  0.71533520  0.28671960  0.13627202  1
  Hf  Hf11  1  0.70873835  0.90400056  0.12631270  1
  Hf  Hf12  1  0.71917434  0.08302429  0.85870257  1
  Hf  Hf13  1  0.41242601  0.40517835  -0.00013917  1
  Hf  Hf14  1  0.10148943  0.30326160  0.37862501  1
  Hf  Hf15  1  0.10453880  0.50446124  0.37432129  1
  Hf  Hf16  1  0.79605825  0.39236503  0.74827683  1
  Hf  Hf17  1  0.79793106  0.19164094  0.50126529  1
  Hf  Hf18  1  0.48570699  0.92300002  0.60447480  1
  Hf  Hf19  1  0.10036594  0.71447064  0.36867552  1
  Hf  Hf20  1  0.48913642  0.69052118  0.37908429  1
  Hf  Hf21  1  0.00117210  0.80324683  0.22277180  1
  Hf  Hf22  1  0.01738798  0.20980434  0.73834307  1
  Hf  Hf23  1  0.90459384  0.29888953  0.87627914  1
  Hf  Hf24  1  0.59483740  0.57837011  -0.00705156  1
  Hf  Hf25  1  0.40203415  0.00107504  0.24570228  1
  Hf  Hf26  1  0.89099403  0.50115977  0.62143776  1
  Hf  Hf27  1  0.69401445  0.28565416  0.86043378  1
  Hf  Hf28  1  0.48973351  0.10682924  0.88554310  1
  Hf  Hf29  1  0.69719367  0.68923700  0.36936221  1
  Hf  Hf30  1  -0.00535226  0.40763470  0.74747806  1
  Hf  Hf31  1  0.78633380  0.39154457  -0.00667742  1
  Hf  Hf32  1  0.08508700  0.11939112  0.12875534  1
  Hf  Hf33  1  0.11327229  0.91329109  0.88059063  1
  Hf  Hf34  1  0.48662919  0.27915742  0.62232528  1
  Hf  Hf35  1  0.59635518  0.79958076  0.25902373  1
  Hf  Hf36  1  0.39532005  0.39724286  0.50390931  1
  Hf  Hf37  1  0.50071808  0.67707255  0.12971761  1
  Hf  Hf38  1  -0.02673093  0.00538381  0.23799320  1
  Hf  Hf39  1  0.51224248  0.70667012  0.86532268  1
  Zr  Zr40  1  0.00863075  0.60115977  0.23451172  1
  Zr  Zr41  1  0.29455437  0.70119944  0.36199680  1
  Zr  Zr42  1  0.20903596  0.61630106  0.50308382  1
  Zr  Zr43  1  0.70121170  0.89545860  0.63753348  1
  Zr  Zr44  1  0.00225897  0.61037746  0.50037969  1
  Zr  Zr45  1  0.69448567  0.48870641  0.37283620  1
  Zr  Zr46  1  0.80744859  0.80754007  0.25427410  1
  Zr  Zr47  1  0.58275699  -0.00742035  0.75253623  1
  Zr  Zr48  1  0.12352486  0.70701658  0.65114377  1
  Zr  Zr49  1  0.09446648  0.91150694  0.36826072  1
  Zr  Zr50  1  0.69268599  0.87136953  0.85813942  1
  Zr  Zr51  1  0.70392169  0.29354226  0.37017234  1
  Zr  Zr52  1  0.91137302  0.70409117  0.64425866  1
  Zr  Zr53  1  0.79287248  0.60166820  -0.01268747  1
  Zr  Zr54  1  0.49967609  0.70719047  0.62816722  1
  Zr  Zr55  1  0.89186932  0.48899640  0.11562571  1
  Zr  Zr56  1  0.80446275  0.58807625  0.24654726  1
  Zr  Zr57  1  0.80976146  0.79289735  0.50172931  1
  Zr  Zr58  1  0.60812293  -0.00357116  -0.00651636  1
  Zr  Zr59  1  0.30482908  0.30310682  0.13540412  1
  Zr  Zr60  1  0.29297432  0.90260751  0.36670370  1
  Zr  Zr61  1  0.39293702  0.39327790  0.74962032  1
  Zr  Zr62  1  0.10464751  0.90888409  0.63297026  1
  Zr  Zr63  1  0.27775519  0.09742868  0.88423197  1
  Zr  Zr64  1  0.60638220  0.79996693  0.49684534  1
  Zr  Zr65  1  0.30236684  0.30102586  0.36269829  1
  Zr  Zr66  1  0.31043666  0.51073219  0.12526494  1
  Zr  Zr67  1  0.20751939  0.00643960  0.49937582  1
  Zr  Zr68  1  0.89959628  0.48995042  0.38269408  1
  Zr  Zr69  1  -0.01148798  0.21058710  0.25378880  1
  Zr  Zr70  1  0.11665552  0.29529467  0.87320226  1
  Zr  Zr71  1  0.09764330  0.50720278  0.63679434  1
  Zr  Zr72  1  0.00643072  0.01936019  0.75819043  1
  Zr  Zr73  1  -0.02543167  0.01003965  0.00446630  1
  Zr  Zr74  1  0.79067951  0.59609087  0.50316831  1
  Zr  Zr75  1  0.60642536  0.39435482  0.50858737  1
  Zr  Zr76  1  0.70126730  0.69217908  0.13069790  1
  Zr  Zr77  1  0.11285948  0.69884246  0.87647674  1
  Zr  Zr78  1  0.60913046  0.20786583  0.00133368  1
  Zr  Zr79  1  0.90284309  0.70679051  0.87407874  1
  Ta  Ta80  1  0.00594574  0.20708267  -0.00355499  1
  Ta  Ta81  1  0.37300136  0.80346746  0.50760298  1
  Ta  Ta82  1  0.19744169  0.39974492  0.50731490  1
  Ta  Ta83  1  0.51306489  0.30547028  0.12873353  1
  Ta  Ta84  1  0.69718674  0.28572973  0.63034552  1
  Ta  Ta85  1  0.81087187  0.17952327  -0.00408939  1
  Ta  Ta86  1  0.09141317  0.49825919  0.87846424  1
  Ta  Ta87  1  0.90427368  0.29483127  0.39224735  1
  Ta  Ta88  1  0.28553196  0.28206352  0.62700060  1
  Ta  Ta89  1  0.00345640  0.81189823  0.76238696  1
  Ta  Ta90  1  0.00415018  0.80745189  0.00988759  1
  Ta  Ta91  1  0.39765425  0.60819048  -0.01550395  1
  Ta  Ta92  1  0.00948415  0.80964809  0.50605169  1
  Ta  Ta93  1  0.38491398  -0.00499964  0.01160247  1
  Ta  Ta94  1  0.90598441  0.09484952  0.62021379  1
  Ta  Ta95  1  0.28774605  0.49971353  0.87727727  1
  Ta  Ta96  1  0.80493538  0.59151834  0.76507339  1
  Ta  Ta97  1  0.88867569  0.91489647  0.86603178  1
  Ta  Ta98  1  0.40087692  0.20146031  0.01191573  1
  Ta  Ta99  1  0.70442444  0.69297575  0.64783492  1
  Ta  Ta100  1  0.18936027  0.00630476  0.02374131  1
  Ta  Ta101  1  0.47950973  0.89690404  0.88745689  1
  Ta  Ta102  1  0.49999066  0.49965839  0.63151026  1
  Ta  Ta103  1  0.19682421  0.39989230  0.00456334  1
  Ta  Ta104  1  0.00291576  0.39287129  0.51136529  1
  Ta  Ta105  1  0.49602395  0.49466615  0.86412728  1
  Ta  Ta106  1  0.59257959  0.18900147  0.49687508  1
  Ta  Ta107  1  0.18821988  0.40742006  0.23824937  1
  Ta  Ta108  1  0.90401558  0.90134040  0.37809120  1
  Ta  Ta109  1  0.19011607  0.00878320  0.23247404  1
  Ta  Ta110  1  -0.00040936  0.40043383  0.24642401  1
  Ta  Ta111  1  0.49936493  0.30016802  0.37381529  1
  Ta  Ta112  1  0.49118429  0.89874132  0.38598299  1
  Ta  Ta113  1  0.80337033  0.81146272  -0.00198209  1
  Ta  Ta114  1  0.59534044  0.59539587  0.51175070  1
  Ta  Ta115  1  0.30977762  0.29554520  0.88120562  1
  Ta  Ta116  1  0.68885699  0.49009780  0.86437106  1
  Ta  Ta117  1  0.40097568  0.79823311  0.24459308  1
  Ta  Ta118  1  0.20244692  0.20452106  0.01294654  1
  Ta  Ta119  1  0.50602792  0.10277234  0.12295434  1
  Ti  Ti120  1  0.31278372  0.70327931  0.12125438  1
  Ti  Ti121  1  0.58500323  0.18908947  0.74539652  1
  Ti  Ti122  1  0.80348847  0.17086310  0.27030210  1
  Ti  Ti123  1  0.60550805  0.78416706  -0.00107543  1
  Ti  Ti124  1  0.90047662  0.70055687  0.11009641  1
  Ti  Ti125  1  0.09475541  0.49626518  0.11156264  1
  Ti  Ti126  1  0.59314539  0.39218044  0.74007758  1
  Ti  Ti127  1  -0.00008026  0.00629061  0.50218486  1
  Ti  Ti128  1  0.50213777  0.30210960  0.87346684  1
  Ti  Ti129  1  0.69607990  0.49479215  0.63169973  1
  Ti  Ti130  1  0.40069424  0.60148399  0.51248052  1
  Ti  Ti131  1  0.90211819  0.90371829  0.63544178  1
  Ti  Ti132  1  0.49010715  0.10535440  0.37773316  1
  Ti  Ti133  1  0.59782891  0.39640506  0.25216219  1
  Ti  Ti134  1  0.60180823  0.00575631  0.48581709  1
  Ti  Ti135  1  0.50083049  0.49997229  0.37786105  1
  Ti  Ti136  1  0.81383133  0.18741180  0.73944439  1
  Ti  Ti137  1  0.29455756  0.10510702  0.36312354  1
  Ti  Ti138  1  0.30571731  0.72023662  0.87943925  1
  Ti  Ti139  1  0.19510234  0.20683279  0.24602765  1
  Ti  Ti140  1  0.41115394  0.20215950  0.24488909  1
  Ti  Ti141  1  0.00013525  0.59566200  -0.00200551  1
  Ti  Ti142  1  0.20773222  0.20350873  0.49491552  1
  Ti  Ti143  1  0.67894366  0.48695815  0.13091001  1
  Ti  Ti144  1  0.60126540  0.59333676  0.74970820  1
  Ti  Ti145  1  0.09459711  0.10473563  0.36930885  1
  Ti  Ti146  1  0.70902426  0.09407805  0.13014430  1
  Ti  Ti147  1  0.59954290  0.19572299  0.25428726  1
  Ti  Ti148  1  0.13160505  0.11229185  0.62947209  1
  Ti  Ti149  1  0.19944092  0.60546115  0.23128018  1
  Ti  Ti150  1  0.41341699  0.41139768  0.24698766  1
  Ti  Ti151  1  0.19614613  0.39011993  0.74867817  1
  Ti  Ti152  1  0.90828422  0.70180423  0.37197774  1
  Ti  Ti153  1  0.89925296  0.29530152  0.61623173  1
  Ti  Ti154  1  0.81451445  0.38053838  0.25085917  1
  Ti  Ti155  1  0.91163628  0.29340887  0.11387809  1
  Ti  Ti156  1  0.30283880  0.10397887  0.13049663  1
  Ti  Ti157  1  0.69544602  0.09445168  0.63082405  1
  Ti  Ti158  1  0.20228652  0.60158214  0.00328388  1
  Ti  Ti159  1  0.01355670  0.19511764  0.50911271  1
  Mo  Mo160  1  0.87722094  0.11203504  0.12661429  1
  Mo  Mo161  1  0.69901554  0.69065607  0.86080133  1
  Mo  Mo162  1  0.19180613  0.80412587  0.50086378  1
  Mo  Mo163  1  0.39341403  0.19540611  0.48755300  1
  Mo  Mo164  1  0.80700865  0.79836154  0.74778251  1
  Mo  Mo165  1  0.40127179  0.01256182  0.48338979  1
  Mo  Mo166  1  0.88875069  0.90135378  0.11771462  1
  Mo  Mo167  1  0.09833979  0.10756409  0.88686541  1
  Mo  Mo168  1  0.40172597  0.60032743  0.25084736  1
  Mo  Mo169  1  0.91362942  0.09715928  0.39187378  1
  Mo  Mo170  1  0.90078429  0.49772539  0.87997730  1
  Mo  Mo171  1  0.79326805  -0.00387747  -0.00586240  1
  Mo  Mo172  1  0.80247175  0.38663050  0.51619337  1
  Mo  Mo173  1  0.21668333  0.18959791  0.74816855  1
  Mo  Mo174  1  0.20632426  -0.00263672  0.74589255  1
  Mo  Mo175  1  0.50456359  0.49129070  0.12684069  1
  Mo  Mo176  1  0.32063457  0.10530902  0.61152138  1
  Mo  Mo177  1  0.50954625  0.10297615  0.61408716  1
  Mo  Mo178  1  0.10255287  0.69065550  0.10223904  1
  Mo  Mo179  1  0.80745800  0.00037255  0.73755205  1
  Mo  Mo180  1  0.40993677  0.79440183  0.00334685  1
  Mo  Mo181  1  0.58834657  0.79399453  0.74234200  1
  Mo  Mo182  1  0.30620288  0.90942351  0.13393190  1
  Mo  Mo183  1  0.20397755  0.59426369  0.76918136  1
  Mo  Mo184  1  0.00122172  0.40205091  -0.00398668  1
  Mo  Mo185  1  0.29019018  0.90858337  0.61758531  1
  Mo  Mo186  1  0.39998639  0.20562407  0.75677888  1
  Mo  Mo187  1  0.30292670  0.90643299  0.88319368  1
  Mo  Mo188  1  0.20864769  0.80952244  0.76291815  1
  Mo  Mo189  1  0.69804988  0.89757430  0.37777828  1
  Mo  Mo190  1  0.10446115  0.30016912  0.61925366  1
  Mo  Mo191  1  0.09321038  0.90935241  0.11710822  1
  Mo  Mo192  1  0.58857231  0.58223674  0.25524655  1
  Mo  Mo193  1  0.09760391  0.31172076  0.12166131  1
  Mo  Mo194  1  0.60178783  0.39476215  -0.00398907  1
  Mo  Mo195  1  0.79579643  -0.00020288  0.26792984  1
  Mo  Mo196  1  0.29908259  0.70835617  0.62937129  1
  Mo  Mo197  1  0.69434126  0.09895254  0.37907040  1
  Mo  Mo198  1  -0.00087221  0.59828840  0.76593847  1
  Mo  Mo199  1  0.90504545  0.10913862  0.86774031  1
