# generated using pymatgen
data_HfZrTaTiMo
_symmetry_space_group_name_H-M   'P 1'
_cell_length_a   15.20988683
_cell_length_b   15.22070569
_cell_length_c   16.82203215
_cell_angle_alpha   89.99564807
_cell_angle_beta   89.97113415
_cell_angle_gamma   90.03217787
_symmetry_Int_Tables_number   1
_chemical_formula_structural   HfZrTaTiMo
_chemical_formula_sum   'Hf40 Zr40 Ta40 Ti40 Mo40'
_cell_volume   3894.38698220
_cell_formula_units_Z   40
loop_
 _symmetry_equiv_pos_site_id
 _symmetry_equiv_pos_as_xyz
  1  'x, y, z'
loop_
 _atom_site_type_symbol
 _atom_site_label
 _atom_site_symmetry_multiplicity
 _atom_site_fract_x
 _atom_site_fract_y
 _atom_site_fract_z
 _atom_site_occupancy
  Hf  Hf0  1  0.28331224  0.68983946  0.11932235  1
  Hf  Hf1  1  0.71504379  0.28843459  0.88196878  1
  Hf  Hf2  1  0.09039491  0.50081153  0.88627121  1
  Hf  Hf3  1  0.91474980  0.50898916  0.13949469  1
  Hf  Hf4  1  0.40987353  0.18390865  0.49913582  1
  Hf  Hf5  1  0.19404752  0.60007101  0.74914413  1
  Hf  Hf6  1  0.79936072  0.00104289  0.24955062  1
  Hf  Hf7  1  0.30578627  0.30939691  0.38808303  1
  Hf  Hf8  1  0.29437136  0.50154436  0.60976775  1
  Hf  Hf9  1  0.78901938  0.59582768  0.74153157  1
  Hf  Hf10  1  0.88989271  0.12984785  0.86903038  1
  Hf  Hf11  1  0.51386462  0.89678255  0.36642607  1
  Hf  Hf12  1  0.52314774  0.49885813  0.13926276  1
  Hf  Hf13  1  0.40554477  0.80469696  0.48974294  1
  Hf  Hf14  1  -0.00318959  0.39641262  0.48541797  1
  Hf  Hf15  1  0.00391001  0.00469614  0.23380418  1
  Hf  Hf16  1  0.39826196  0.20932798  0.24558985  1
  Hf  Hf17  1  0.51453987  0.50263196  0.87461481  1
  Hf  Hf18  1  0.09671312  0.69514434  0.61633266  1
  Hf  Hf19  1  0.09306769  0.29371384  0.88218665  1
  Hf  Hf20  1  0.07869535  0.69541719  0.11932210  1
  Hf  Hf21  1  0.49144591  0.69114157  0.35220919  1
  Hf  Hf22  1  0.28777167  0.69523784  0.36183682  1
  Hf  Hf23  1  -0.01333575  0.80966629  0.24875626  1
  Hf  Hf24  1  0.69778276  0.69148297  0.88279054  1
  Hf  Hf25  1  0.88612834  0.71648502  0.37277346  1
  Hf  Hf26  1  0.09633361  0.91029234  0.62981309  1
  Hf  Hf27  1  0.20131565  0.40215509  0.75388660  1
  Hf  Hf28  1  0.50318966  0.70769901  0.88212699  1
  Hf  Hf29  1  0.79230729  0.80571855  0.75091501  1
  Hf  Hf30  1  0.09712007  0.30137672  0.62113099  1
  Hf  Hf31  1  0.30628562  0.29766392  0.61877635  1
  Hf  Hf32  1  0.40190570  0.80551085  0.23095065  1
  Hf  Hf33  1  0.61032239  0.39697768  0.75106245  1
  Hf  Hf34  1  0.69151952  0.89774730  0.88918125  1
  Hf  Hf35  1  0.89427321  0.91486130  0.63553990  1
  Hf  Hf36  1  0.79819868  0.59044498  0.48773942  1
  Hf  Hf37  1  0.20296228  0.80285003  0.49605941  1
  Hf  Hf38  1  0.88872336  0.10541075  0.12106610  1
  Hf  Hf39  1  -0.01236586  0.18743958  0.50173350  1
  Zr  Zr40  1  0.59752393  0.78849487  0.74535416  1
  Zr  Zr41  1  0.40711933  0.39770195  0.00273327  1
  Zr  Zr42  1  0.30175356  0.70005285  0.89353669  1
  Zr  Zr43  1  0.80458438  0.38791806  0.48560119  1
  Zr  Zr44  1  0.11153385  0.29065685  0.37548786  1
  Zr  Zr45  1  0.31812397  0.91576592  0.63139199  1
  Zr  Zr46  1  0.22109552  0.39792553  0.23457569  1
  Zr  Zr47  1  0.40542798  0.59672219  0.01427557  1
  Zr  Zr48  1  0.18714312  0.00069350  0.00512728  1
  Zr  Zr49  1  0.09509296  0.09802426  0.36787312  1
  Zr  Zr50  1  -0.00856802  0.00664277  -0.00951841  1
  Zr  Zr51  1  0.20129909  0.00981398  0.50443945  1
  Zr  Zr52  1  0.58397833  -0.01070655  0.75050740  1
  Zr  Zr53  1  0.61506080  0.58786125  0.01548059  1
  Zr  Zr54  1  0.01179346  0.41424736  0.26478754  1
  Zr  Zr55  1  0.62214639  0.18546577  0.74982096  1
  Zr  Zr56  1  0.20426047  0.40662010  0.01122976  1
  Zr  Zr57  1  0.29503682  0.10328342  0.35875780  1
  Zr  Zr58  1  0.39870648  0.39330171  0.76163097  1
  Zr  Zr59  1  0.68273409  0.70373918  0.37023834  1
  Zr  Zr60  1  0.50476730  0.09705189  0.12977501  1
  Zr  Zr61  1  0.51754683  0.28816134  0.62023462  1
  Zr  Zr62  1  0.40254958  0.60830901  0.75213308  1
  Zr  Zr63  1  0.12968441  0.50426448  0.39238790  1
  Zr  Zr64  1  0.50533621  0.50250320  0.62997097  1
  Zr  Zr65  1  0.40312457  0.17924569  0.75252015  1
  Zr  Zr66  1  -0.00153940  0.80054713  0.76236207  1
  Zr  Zr67  1  0.71498952  0.89759747  0.39463713  1
  Zr  Zr68  1  0.20347772  0.80365400  0.74978590  1
  Zr  Zr69  1  0.29549060  0.90001685  0.88384251  1
  Zr  Zr70  1  0.51851554  0.29854196  0.11783120  1
  Zr  Zr71  1  -0.01336281  0.82160681  0.49318202  1
  Zr  Zr72  1  0.10452796  0.70743560  0.89253475  1
  Zr  Zr73  1  0.58968441  0.58798450  0.49101696  1
  Zr  Zr74  1  0.68735645  0.90717982  0.60129696  1
  Zr  Zr75  1  0.80626822  0.39038198  0.74680295  1
  Zr  Zr76  1  -0.00316129  0.39573889  0.75070081  1
  Zr  Zr77  1  0.62480031  0.38793239  0.26304933  1
  Zr  Zr78  1  0.89394905  0.70332728  0.61783378  1
  Zr  Zr79  1  0.18780514  0.80813468  0.23957486  1
  Ta  Ta80  1  -0.00316778  0.60143067  0.48537443  1
  Ta  Ta81  1  0.78666286  0.80732240  0.24010358  1
  Ta  Ta82  1  0.09727038  0.90677293  0.37416763  1
  Ta  Ta83  1  0.29723360  0.10183457  0.12711005  1
  Ta  Ta84  1  0.50736617  0.09632977  0.36295829  1
  Ta  Ta85  1  0.51050784  0.29041533  0.88652648  1
  Ta  Ta86  1  0.88996590  0.10669082  0.36784085  1
  Ta  Ta87  1  0.30429173  0.70431683  0.62117105  1
  Ta  Ta88  1  0.09280520  0.70281328  0.37288475  1
  Ta  Ta89  1  0.89035782  0.31644858  0.12815798  1
  Ta  Ta90  1  0.59436240  0.79401986  0.02534753  1
  Ta  Ta91  1  0.09767503  0.50190870  0.60935882  1
  Ta  Ta92  1  0.90772633  0.49908533  0.61697353  1
  Ta  Ta93  1  0.20463181  0.01282610  0.75610275  1
  Ta  Ta94  1  0.29701615  0.90645772  0.36288925  1
  Ta  Ta95  1  0.40439323  0.80591987  0.02249669  1
  Ta  Ta96  1  0.70504881  0.90308924  0.11446799  1
  Ta  Ta97  1  0.79367524  0.58810865  0.25910544  1
  Ta  Ta98  1  0.19841977  0.20031413  0.74929292  1
  Ta  Ta99  1  0.49757799  0.70814887  0.61953504  1
  Ta  Ta100  1  0.31797971  0.50279694  0.37759804  1
  Ta  Ta101  1  -0.00947318  0.20963567  0.23977749  1
  Ta  Ta102  1  0.60972582  -0.01180264  0.24171628  1
  Ta  Ta103  1  0.71250899  0.49542097  0.87937668  1
  Ta  Ta104  1  -0.00375505  0.21082399  0.01021117  1
  Ta  Ta105  1  0.89320703  0.69075941  0.87879736  1
  Ta  Ta106  1  0.39682605  0.19596868  0.00112117  1
  Ta  Ta107  1  0.59615433  -0.00289223  0.00734260  1
  Ta  Ta108  1  0.69095779  0.69657267  0.60867993  1
  Ta  Ta109  1  0.50311566  0.09377493  0.88799355  1
  Ta  Ta110  1  0.69326886  0.09068925  0.38974974  1
  Ta  Ta111  1  0.39832749  0.00172533  0.00813455  1
  Ta  Ta112  1  -0.00734074  0.80516807  -0.00483901  1
  Ta  Ta113  1  0.39407604  0.60625007  0.49544540  1
  Ta  Ta114  1  -0.01330731  0.59449199  -0.00083168  1
  Ta  Ta115  1  0.60800484  0.38750677  0.48661181  1
  Ta  Ta116  1  0.08776792  0.31329031  0.12102102  1
  Ta  Ta117  1  -0.00799393  0.59404692  0.75260877  1
  Ta  Ta118  1  -0.00051446  0.00860952  0.76694920  1
  Ta  Ta119  1  0.19859689  0.20208729  0.01386444  1
  Ti  Ti120  1  0.19537455  0.00079582  0.23232477  1
  Ti  Ti121  1  0.70093460  0.11060784  0.59958052  1
  Ti  Ti122  1  0.89787622  0.10633332  0.64236591  1
  Ti  Ti123  1  0.70991050  0.27172457  0.38270355  1
  Ti  Ti124  1  0.78895879  0.01298708  -0.00631156  1
  Ti  Ti125  1  0.79768796  0.79137930  0.00602613  1
  Ti  Ti126  1  0.29726215  0.50472612  0.88137433  1
  Ti  Ti127  1  0.70258274  0.48790036  0.61746279  1
  Ti  Ti128  1  0.30038498  0.29358533  0.87981855  1
  Ti  Ti129  1  0.80313274  0.59685464  0.01159382  1
  Ti  Ti130  1  0.89210302  0.90163872  0.87679926  1
  Ti  Ti131  1  0.29105649  0.90302747  0.11852371  1
  Ti  Ti132  1  0.78385572  0.01667341  0.75835489  1
  Ti  Ti133  1  0.49148209  0.89877180  0.88833090  1
  Ti  Ti134  1  0.50678763  0.49527564  0.36265572  1
  Ti  Ti135  1  0.39934304  -0.00262566  0.48788348  1
  Ti  Ti136  1  0.09439924  0.10338312  0.63649026  1
  Ti  Ti137  1  0.41647957  0.40651563  0.49598804  1
  Ti  Ti138  1  0.39874495  -0.00101052  0.24327567  1
  Ti  Ti139  1  0.41032629  0.39838307  0.24703858  1
  Ti  Ti140  1  0.20153529  0.19781522  0.50867502  1
  Ti  Ti141  1  0.80434070  0.40846979  0.00386146  1
  Ti  Ti142  1  0.88674731  0.70278478  0.13198274  1
  Ti  Ti143  1  0.79815705  0.20887708  0.01062486  1
  Ti  Ti144  1  0.79259856  0.20436225  0.24377974  1
  Ti  Ti145  1  0.61232905  0.19300257  0.00321425  1
  Ti  Ti146  1  0.88996403  0.29121176  0.62302086  1
  Ti  Ti147  1  0.50785463  0.29033784  0.37576752  1
  Ti  Ti148  1  0.40655562  0.81417205  0.74947353  1
  Ti  Ti149  1  0.18883031  0.20039209  0.22609463  1
  Ti  Ti150  1  0.29964370  0.10361872  0.88321782  1
  Ti  Ti151  1  0.89782765  0.89654437  0.11194466  1
  Ti  Ti152  1  0.82978409  0.00729177  0.49814816  1
  Ti  Ti153  1  0.49130186  0.07530257  0.62221682  1
  Ti  Ti154  1  0.18312124  0.58818071  0.24119872  1
  Ti  Ti155  1  0.61413372  0.18731571  0.24699276  1
  Ti  Ti156  1  0.10212927  0.10567903  0.87231254  1
  Ti  Ti157  1  0.81224697  0.39278774  0.26917115  1
  Ti  Ti158  1  0.39103798  0.58876818  0.23711900  1
  Ti  Ti159  1  0.69439560  0.68641522  0.14094269  1
  Mo  Mo160  1  0.18944030  0.80713461  0.01432852  1
  Mo  Mo161  1  0.90355616  0.31186057  0.88854758  1
  Mo  Mo162  1  0.70532988  0.29648484  0.61269257  1
  Mo  Mo163  1  0.59187557  0.79503989  0.50140779  1
  Mo  Mo164  1  0.71132882  0.29838927  0.12096461  1
  Mo  Mo165  1  0.20391756  0.60964880  0.50087235  1
  Mo  Mo166  1  -0.01031886  0.40083747  0.00332582  1
  Mo  Mo167  1  0.60504877  0.80158233  0.22891201  1
  Mo  Mo168  1  0.61020193  0.59427455  0.74325723  1
  Mo  Mo169  1  0.30455344  0.29157479  0.12052902  1
  Mo  Mo170  1  0.60511194  0.59176396  0.24930039  1
  Mo  Mo171  1  0.80143351  0.19199455  0.49999082  1
  Mo  Mo172  1  0.20928779  0.39759757  0.50623297  1
  Mo  Mo173  1  0.90693256  0.50793444  0.36564501  1
  Mo  Mo174  1  -0.00126622  0.60980090  0.26723974  1
  Mo  Mo175  1  0.19391575  0.59631339  0.00690554  1
  Mo  Mo176  1  0.39755592  0.00083064  0.76490033  1
  Mo  Mo177  1  0.90163102  0.28753723  0.36279337  1
  Mo  Mo178  1  0.09059380  0.89881554  0.11642081  1
  Mo  Mo179  1  0.49851011  0.90400517  0.12550539  1
  Mo  Mo180  1  0.09114544  0.91033464  0.87023863  1
  Mo  Mo181  1  0.72554544  0.48010823  0.13121870  1
  Mo  Mo182  1  0.30759733  0.49750801  0.13222917  1
  Mo  Mo183  1  0.89199841  0.50752984  0.88001326  1
  Mo  Mo184  1  0.80439246  0.19981808  0.74294420  1
  Mo  Mo185  1  0.69612293  0.09331933  0.88348342  1
  Mo  Mo186  1  0.79663204  0.80045627  0.50610346  1
  Mo  Mo187  1  0.50217024  0.69737232  0.14100031  1
  Mo  Mo188  1  0.57426168  0.00794815  0.49798182  1
  Mo  Mo189  1  0.09494682  0.11122271  0.12457306  1
  Mo  Mo190  1  0.61675595  0.39114926  -0.00454297  1
  Mo  Mo191  1  0.10443743  0.51083232  0.11835188  1
  Mo  Mo192  1  0.29338822  0.10556401  0.62925044  1
  Mo  Mo193  1  0.60010329  0.19512822  0.49399846  1
  Mo  Mo194  1  0.49429510  0.89555805  0.61958373  1
  Mo  Mo195  1  0.70023405  0.49190372  0.37375865  1
  Mo  Mo196  1  0.00244105  0.19929790  0.74609244  1
  Mo  Mo197  1  0.90670683  0.91789782  0.37109102  1
  Mo  Mo198  1  0.00218685  0.01116302  0.50515717  1
  Mo  Mo199  1  0.70087881  0.10163599  0.12331694  1
