# generated using pymatgen
data_HfZrTaTiMo
_symmetry_space_group_name_H-M   'P 1'
_cell_length_a   15.20725072
_cell_length_b   15.22553625
_cell_length_c   16.87355421
_cell_angle_alpha   90.06992355
_cell_angle_beta   89.99275826
_cell_angle_gamma   89.92868830
_symmetry_Int_Tables_number   1
_chemical_formula_structural   HfZrTaTiMo
_chemical_formula_sum   'Hf40 Zr40 Ta40 Ti40 Mo40'
_cell_volume   3906.87226047
_cell_formula_units_Z   40
loop_
 _symmetry_equiv_pos_site_id
 _symmetry_equiv_pos_as_xyz
  1  'x, y, z'
loop_
 _atom_site_type_symbol
 _atom_site_label
 _atom_site_symmetry_multiplicity
 _atom_site_fract_x
 _atom_site_fract_y
 _atom_site_fract_z
 _atom_site_occupancy
  Hf  Hf0  1  0.00052710  0.39903547  0.77072521  1
  Hf  Hf1  1  0.49810318  0.08782323  0.13406173  1
  Hf  Hf2  1  0.59879240  0.21059527  0.23785670  1
  Hf  Hf3  1  0.78786841  -0.00553460  0.24968169  1
  Hf  Hf4  1  0.60890811  0.60965022  0.25697027  1
  Hf  Hf5  1  0.10028479  0.70346832  0.89056244  1
  Hf  Hf6  1  0.51323795  0.69352588  0.11880793  1
  Hf  Hf7  1  0.08914797  0.30194545  0.62951990  1
  Hf  Hf8  1  0.50768358  0.89310354  0.86585066  1
  Hf  Hf9  1  0.90213538  0.49804417  0.12704973  1
  Hf  Hf10  1  0.79349972  0.38973158  0.50496402  1
  Hf  Hf11  1  0.90715721  0.91334597  0.63207728  1
  Hf  Hf12  1  0.20310926  0.79484560  0.23735790  1
  Hf  Hf13  1  0.10158107  0.70344779  0.10343582  1
  Hf  Hf14  1  0.19060905  0.19155817  0.50719254  1
  Hf  Hf15  1  -0.00145571  0.02083957  0.50665094  1
  Hf  Hf16  1  0.39592079  0.20245917  0.01983977  1
  Hf  Hf17  1  0.90120783  0.89985870  0.11862502  1
  Hf  Hf18  1  0.31010143  0.90732682  0.12232159  1
  Hf  Hf19  1  0.19117673  0.59293923  0.75506827  1
  Hf  Hf20  1  0.69701501  0.49776834  0.63165576  1
  Hf  Hf21  1  0.09339413  0.10164700  0.36992179  1
  Hf  Hf22  1  0.48374727  0.29028719  0.88424299  1
  Hf  Hf23  1  0.40933321  0.79819334  -0.00649503  1
  Hf  Hf24  1  0.89007285  0.72162888  0.87419642  1
  Hf  Hf25  1  0.90689777  0.90274407  0.38226816  1
  Hf  Hf26  1  0.09077543  0.30688976  0.38421563  1
  Hf  Hf27  1  0.58522730  0.39985967  0.75243254  1
  Hf  Hf28  1  0.81031787  0.59405363  0.50858156  1
  Hf  Hf29  1  0.11652951  0.71754289  0.38327169  1
  Hf  Hf30  1  0.21455167  0.80075085  0.76432101  1
  Hf  Hf31  1  0.08878493  0.11117341  0.12169303  1
  Hf  Hf32  1  0.19103403  0.22275701  0.00319571  1
  Hf  Hf33  1  0.68556058  0.51103584  0.87443395  1
  Hf  Hf34  1  0.72483476  0.89275390  0.85795787  1
  Hf  Hf35  1  0.50204200  0.90540256  0.63215427  1
  Hf  Hf36  1  0.39870045  -0.00808063  0.49261128  1
  Hf  Hf37  1  0.57951484  0.40741361  0.23842974  1
  Hf  Hf38  1  0.91526202  0.49179764  0.37366959  1
  Hf  Hf39  1  0.58195172  0.40338488  0.49794829  1
  Zr  Zr40  1  0.21396830  0.59833705  0.48755062  1
  Zr  Zr41  1  0.09128516  0.10335825  0.87309635  1
  Zr  Zr42  1  0.71456338  0.70582794  0.39076568  1
  Zr  Zr43  1  0.19403192  -0.01869231  0.49315922  1
  Zr  Zr44  1  0.80905861  0.79335737  0.25643668  1
  Zr  Zr45  1  0.49121344  0.11370580  0.36747595  1
  Zr  Zr46  1  0.69780311  0.51654892  0.11913021  1
  Zr  Zr47  1  0.60153564  0.01003403  -0.01516400  1
  Zr  Zr48  1  0.62629773  0.79284267  -0.01002414  1
  Zr  Zr49  1  0.79216092  0.38602090  0.76308508  1
  Zr  Zr50  1  -0.01215943  0.58249134  -0.01594419  1
  Zr  Zr51  1  0.60521150  0.82077364  0.49782962  1
  Zr  Zr52  1  0.69205959  0.10113833  0.37319877  1
  Zr  Zr53  1  0.20176846  -0.00285978  0.24898624  1
  Zr  Zr54  1  0.80816215  0.40907748  -0.01441777  1
  Zr  Zr55  1  0.40682399  0.58450142  0.24966025  1
  Zr  Zr56  1  0.70298184  0.10211232  0.63350853  1
  Zr  Zr57  1  0.60344073  0.82663293  0.26756309  1
  Zr  Zr58  1  0.90914331  0.29166220  0.11174773  1
  Zr  Zr59  1  0.59713387  0.20733091  0.74462714  1
  Zr  Zr60  1  0.01460912  0.81013681  0.75108913  1
  Zr  Zr61  1  0.57900539  0.40097611  0.01314871  1
  Zr  Zr62  1  0.39227944  0.00323203  0.76038303  1
  Zr  Zr63  1  0.40560506  0.78967153  0.75634006  1
  Zr  Zr64  1  0.91177913  0.70148044  0.62720739  1
  Zr  Zr65  1  0.70062755  0.49393148  0.37394410  1
  Zr  Zr66  1  0.89358313  0.10562008  0.37617400  1
  Zr  Zr67  1  0.19961861  0.20953613  0.24374261  1
  Zr  Zr68  1  0.89949089  0.70317559  0.10972370  1
  Zr  Zr69  1  0.91737812  0.70207501  0.39340900  1
  Zr  Zr70  1  0.20617840  0.59252444  0.25620487  1
  Zr  Zr71  1  0.49451271  0.70091503  0.38297023  1
  Zr  Zr72  1  0.91920837  0.49974240  0.64032298  1
  Zr  Zr73  1  0.11380115  0.69563046  0.62200336  1
  Zr  Zr74  1  0.50023032  0.69679026  0.61371755  1
  Zr  Zr75  1  0.39998079  0.00358029  -0.01633611  1
  Zr  Zr76  1  0.39486093  0.58912674  0.75156460  1
  Zr  Zr77  1  0.10811725  0.47934748  0.11398646  1
  Zr  Zr78  1  0.00792777  0.60774244  0.25053651  1
  Zr  Zr79  1  0.79256266  0.38963510  0.24420248  1
  Ta  Ta80  1  0.31319292  0.47485489  0.37634033  1
  Ta  Ta81  1  0.37307696  0.40369591  0.01905175  1
  Ta  Ta82  1  0.79790627  0.19820213  0.50537309  1
  Ta  Ta83  1  0.51496079  0.68129554  0.87946620  1
  Ta  Ta84  1  0.70624992  0.70702594  0.62822785  1
  Ta  Ta85  1  0.69748173  0.90447329  0.12012792  1
  Ta  Ta86  1  0.39093833  0.38947246  0.74758391  1
  Ta  Ta87  1  0.20361100  0.20029904  0.74590148  1
  Ta  Ta88  1  0.50899310  0.89643626  0.12412160  1
  Ta  Ta89  1  0.02711057  0.82142982  0.50974432  1
  Ta  Ta90  1  0.39376457  0.20212932  0.74326222  1
  Ta  Ta91  1  0.30913255  0.69076625  0.11064101  1
  Ta  Ta92  1  0.59666219  0.00899209  0.50237640  1
  Ta  Ta93  1  0.59780195  0.20738569  0.50770313  1
  Ta  Ta94  1  0.19597408  -0.00509441  0.75582199  1
  Ta  Ta95  1  0.89268736  0.29444082  0.37634370  1
  Ta  Ta96  1  0.69096631  0.28828704  0.89375836  1
  Ta  Ta97  1  0.20413290  0.39373000  0.75258714  1
  Ta  Ta98  1  0.79945821  0.19728787  0.23766784  1
  Ta  Ta99  1  0.29481877  0.89083758  0.62460015  1
  Ta  Ta100  1  0.80111774  -0.00288986  -0.00414423  1
  Ta  Ta101  1  0.48780031  0.49431562  0.62399644  1
  Ta  Ta102  1  0.70699990  0.10513350  0.86778062  1
  Ta  Ta103  1  0.60157580  0.00367147  0.75584049  1
  Ta  Ta104  1  0.30032342  0.11856101  0.87337817  1
  Ta  Ta105  1  0.09377938  0.09587436  0.64062237  1
  Ta  Ta106  1  0.40126619  0.79372234  0.24730972  1
  Ta  Ta107  1  -0.00766783  0.01408180  0.00393042  1
  Ta  Ta108  1  -0.00435140  0.00183364  0.24168528  1
  Ta  Ta109  1  -0.00885487  0.20549313  0.24774087  1
  Ta  Ta110  1  0.01044538  0.37522911  -0.02624606  1
  Ta  Ta111  1  0.78805044  -0.00436199  0.50769593  1
  Ta  Ta112  1  0.30838602  0.68949864  0.89051448  1
  Ta  Ta113  1  0.29189997  0.49044210  0.62117098  1
  Ta  Ta114  1  0.59595093  0.60352589  0.74256171  1
  Ta  Ta115  1  0.88734932  0.29346254  0.63147748  1
  Ta  Ta116  1  0.21553264  0.58627232  -0.00178822  1
  Ta  Ta117  1  0.78181323  0.62026035  -0.01501006  1
  Ta  Ta118  1  0.20536768  0.01334239  0.00200218  1
  Ta  Ta119  1  0.40717848  0.57693782  0.49212507  1
  Ti  Ti120  1  0.01099186  0.81070751  0.24943827  1
  Ti  Ti121  1  0.49193097  0.10262407  0.62299663  1
  Ti  Ti122  1  0.91653150  0.91573949  0.87411103  1
  Ti  Ti123  1  -0.00344132  0.39885775  0.50658423  1
  Ti  Ti124  1  0.30290586  0.48717464  0.87788887  1
  Ti  Ti125  1  0.60335147  0.59776762  0.50223169  1
  Ti  Ti126  1  0.39772108  0.19816125  0.50351719  1
  Ti  Ti127  1  0.19369696  0.40491251  0.50061543  1
  Ti  Ti128  1  0.21135161  0.81020062  -0.00320659  1
  Ti  Ti129  1  0.69659786  0.29128334  0.10525605  1
  Ti  Ti130  1  0.30688909  0.69186416  0.62125352  1
  Ti  Ti131  1  0.10389863  0.90668733  0.88962657  1
  Ti  Ti132  1  0.00754508  0.39742100  0.25174058  1
  Ti  Ti133  1  0.29557332  0.09163292  0.62708771  1
  Ti  Ti134  1  0.61212319  0.79581001  0.74538670  1
  Ti  Ti135  1  0.38813763  0.39055342  0.22679865  1
  Ti  Ti136  1  -0.01749152  0.19899100  0.76333888  1
  Ti  Ti137  1  0.80878026  0.59907790  0.25433301  1
  Ti  Ti138  1  0.20045756  0.39930165  0.25438837  1
  Ti  Ti139  1  0.80753151  0.18458433  -0.00126117  1
  Ti  Ti140  1  0.10799776  0.49522858  0.88040148  1
  Ti  Ti141  1  0.49049279  0.30028568  0.61922535  1
  Ti  Ti142  1  0.38800455  0.79233716  0.49507957  1
  Ti  Ti143  1  0.48773859  0.49794814  0.88312756  1
  Ti  Ti144  1  0.69331525  0.29317935  0.37424980  1
  Ti  Ti145  1  0.70146833  0.09699628  0.12042710  1
  Ti  Ti146  1  0.38863081  0.20387673  0.23304725  1
  Ti  Ti147  1  0.29956846  0.09901976  0.37334006  1
  Ti  Ti148  1  0.40731688  -0.01257875  0.26090863  1
  Ti  Ti149  1  0.81284557  0.01016051  0.75128580  1
  Ti  Ti150  1  0.80190970  0.60961184  0.75543578  1
  Ti  Ti151  1  0.29777669  0.29717229  0.61767751  1
  Ti  Ti152  1  0.29821707  0.28851947  0.38212178  1
  Ti  Ti153  1  0.02101705  0.58651468  0.50047494  1
  Ti  Ti154  1  0.29842317  0.87780715  0.37039296  1
  Ti  Ti155  1  0.80572237  0.81174758  0.51365531  1
  Ti  Ti156  1  0.48174862  0.31450429  0.37430434  1
  Ti  Ti157  1  0.90223077  0.11213759  0.63232047  1
  Ti  Ti158  1  0.09932178  0.90316188  0.11064426  1
  Ti  Ti159  1  0.70987016  0.71257587  0.12693947  1
  Mo  Mo160  1  0.50524547  0.10998796  0.86892960  1
  Mo  Mo161  1  0.28126904  0.30799124  0.13052889  1
  Mo  Mo162  1  0.60448105  0.19599029  0.00636447  1
  Mo  Mo163  1  0.80430751  0.81029118  -0.00254760  1
  Mo  Mo164  1  0.00557130  0.00753685  0.74984240  1
  Mo  Mo165  1  0.10533974  0.29367444  0.85929905  1
  Mo  Mo166  1  0.70359259  0.91213749  0.38705378  1
  Mo  Mo167  1  0.49801338  0.48840176  0.37579254  1
  Mo  Mo168  1  0.49127212  0.91163176  0.37722007  1
  Mo  Mo169  1  0.29553297  0.50339302  0.12627317  1
  Mo  Mo170  1  0.89097940  0.28455441  0.88190074  1
  Mo  Mo171  1  0.10515982  0.49264138  0.37608638  1
  Mo  Mo172  1  0.89067965  0.09221506  0.87235834  1
  Mo  Mo173  1  -0.00048072  0.59710768  0.77168553  1
  Mo  Mo174  1  0.29748207  0.30064651  0.87075013  1
  Mo  Mo175  1  0.80247228  0.80552281  0.73450690  1
  Mo  Mo176  1  0.29112231  0.90296783  0.88577069  1
  Mo  Mo177  1  0.31163471  0.69685683  0.36963737  1
  Mo  Mo178  1  0.11133576  0.90653924  0.63198665  1
  Mo  Mo179  1  0.89759853  0.50851522  0.86457681  1
  Mo  Mo180  1  0.79836907  0.20185154  0.75624604  1
  Mo  Mo181  1  0.38569156  0.38786297  0.50446950  1
  Mo  Mo182  1  0.09429059  0.90066975  0.36765718  1
  Mo  Mo183  1  0.48938024  0.50472837  0.11939212  1
  Mo  Mo184  1  0.70402710  0.90376887  0.64028144  1
  Mo  Mo185  1  0.21517032  0.80116508  0.50218511  1
  Mo  Mo186  1  0.29660921  0.09691077  0.12775701  1
  Mo  Mo187  1  0.19673832  0.40025612  -0.01262886  1
  Mo  Mo188  1  0.60082500  0.59937102  -0.00299869  1
  Mo  Mo189  1  0.70013618  0.70118913  0.85331208  1
  Mo  Mo190  1  0.08874338  0.30586324  0.12700502  1
  Mo  Mo191  1  0.10659322  0.49317587  0.62758995  1
  Mo  Mo192  1  0.89033852  0.09620471  0.12846458  1
  Mo  Mo193  1  0.49247654  0.29685432  0.12349393  1
  Mo  Mo194  1  0.69410616  0.29962707  0.61966016  1
  Mo  Mo195  1  0.40706235  0.59067393  -0.00266634  1
  Mo  Mo196  1  -0.00897697  0.19615774  -0.01060628  1
  Mo  Mo197  1  0.00745493  0.81964700  -0.00634302  1
  Mo  Mo198  1  0.59635231  0.00265973  0.24357625  1
  Mo  Mo199  1  -0.01256371  0.21276287  0.50967643  1
