# generated using pymatgen
data_HfZrTaTiMo
_symmetry_space_group_name_H-M   'P 1'
_cell_length_a   15.21252098
_cell_length_b   15.20694275
_cell_length_c   16.84486853
_cell_angle_alpha   89.99392587
_cell_angle_beta   90.06520339
_cell_angle_gamma   89.96734895
_symmetry_Int_Tables_number   1
_chemical_formula_structural   HfZrTaTiMo
_chemical_formula_sum   'Hf40 Zr40 Ta40 Ti40 Mo40'
_cell_volume   3896.82024369
_cell_formula_units_Z   40
loop_
 _symmetry_equiv_pos_site_id
 _symmetry_equiv_pos_as_xyz
  1  'x, y, z'
loop_
 _atom_site_type_symbol
 _atom_site_label
 _atom_site_symmetry_multiplicity
 _atom_site_fract_x
 _atom_site_fract_y
 _atom_site_fract_z
 _atom_site_occupancy
  Hf  Hf0  1  0.19326678  0.20723796  0.49291516  1
  Hf  Hf1  1  0.00994378  0.81115379  0.22876255  1
  Hf  Hf2  1  0.81827736  0.39211593  -0.00350598  1
  Hf  Hf3  1  0.70204015  0.50447701  0.36800434  1
  Hf  Hf4  1  0.40627867  0.39655178  0.73572853  1
  Hf  Hf5  1  0.39831900  0.19733908  0.73863679  1
  Hf  Hf6  1  0.61396301  0.60783770  0.00036531  1
  Hf  Hf7  1  0.10682143  0.70063523  0.11751662  1
  Hf  Hf8  1  0.29572316  0.09935874  0.88610959  1
  Hf  Hf9  1  -0.00237841  0.01086331  0.75533368  1
  Hf  Hf10  1  0.18671791  0.40181791  0.75205000  1
  Hf  Hf11  1  0.10875583  0.51172088  0.36179383  1
  Hf  Hf12  1  0.50119642  0.49633519  0.38637174  1
  Hf  Hf13  1  0.69122843  0.09650978  0.61250822  1
  Hf  Hf14  1  0.50545941  0.70254727  0.62546989  1
  Hf  Hf15  1  0.19859308  0.78678202  0.50084005  1
  Hf  Hf16  1  0.51413950  0.90898059  0.62414654  1
  Hf  Hf17  1  0.80874241  0.39955297  0.74735162  1
  Hf  Hf18  1  0.40350850  0.40597515  0.00638622  1
  Hf  Hf19  1  0.00338533  0.39820068  0.48435325  1
  Hf  Hf20  1  0.90784801  0.48433454  0.13908938  1
  Hf  Hf21  1  0.59126857  0.61229554  0.24987527  1
  Hf  Hf22  1  0.90029234  0.70171061  0.35326187  1
  Hf  Hf23  1  0.50519776  0.29872668  0.86763665  1
  Hf  Hf24  1  0.40454752  0.39272005  0.25848026  1
  Hf  Hf25  1  0.31858372  0.70316355  0.11995182  1
  Hf  Hf26  1  0.78656534  0.19460196  0.74992053  1
  Hf  Hf27  1  0.50926066  0.10539026  0.11457340  1
  Hf  Hf28  1  0.80706678  0.80221421  0.49722037  1
  Hf  Hf29  1  0.31127980  0.49667214  0.86676341  1
  Hf  Hf30  1  0.09714852  0.91172931  0.90002526  1
  Hf  Hf31  1  0.20726592  0.18796570  0.24803612  1
  Hf  Hf32  1  0.71353338  0.50320501  0.13995293  1
  Hf  Hf33  1  0.10125847  0.09153348  0.36669927  1
  Hf  Hf34  1  0.60422323  0.18383552  0.25831181  1
  Hf  Hf35  1  0.28927633  0.89768610  0.37376182  1
  Hf  Hf36  1  0.50530254  0.70217692  0.38465815  1
  Hf  Hf37  1  0.20540797  0.41215002  0.48540913  1
  Hf  Hf38  1  -0.00608859  -0.00678561  0.49957653  1
  Hf  Hf39  1  0.61644238  0.79331966  0.75978668  1
  Zr  Zr40  1  0.21378731  0.59471253  -0.00051281  1
  Zr  Zr41  1  0.20041120  0.39725266  0.00321091  1
  Zr  Zr42  1  0.51186891  0.50165473  0.61727277  1
  Zr  Zr43  1  0.71415118  0.29196865  0.39490208  1
  Zr  Zr44  1  0.40288855  0.00615526  0.24923147  1
  Zr  Zr45  1  0.60272094  0.38419529  0.25207658  1
  Zr  Zr46  1  0.80573229  0.60749582  0.50115107  1
  Zr  Zr47  1  0.88680637  0.10097007  0.37053111  1
  Zr  Zr48  1  0.49908847  0.50644063  0.12875368  1
  Zr  Zr49  1  0.10330447  0.69540089  0.63394440  1
  Zr  Zr50  1  0.60391447  0.01081078  0.76440336  1
  Zr  Zr51  1  0.18487522  0.20019121  0.75448782  1
  Zr  Zr52  1  0.89392018  0.29389485  0.61134906  1
  Zr  Zr53  1  0.89439383  0.49500006  0.36126467  1
  Zr  Zr54  1  0.61002784  0.39614884  0.00339893  1
  Zr  Zr55  1  0.79624739  0.19199188  -0.00310662  1
  Zr  Zr56  1  0.30398733  0.29271568  0.13113508  1
  Zr  Zr57  1  0.87849222  0.90869048  0.12110550  1
  Zr  Zr58  1  0.00065585  0.81043747  0.76096981  1
  Zr  Zr59  1  0.40463827  -0.00059732  0.76100318  1
  Zr  Zr60  1  0.89650167  0.90382174  0.35191682  1
  Zr  Zr61  1  0.71125103  0.08690201  0.12266122  1
  Zr  Zr62  1  0.36683745  0.60045493  0.49102242  1
  Zr  Zr63  1  0.40975072  0.20314211  -0.00307041  1
  Zr  Zr64  1  0.68036955  0.89838977  0.10657691  1
  Zr  Zr65  1  -0.00135782  0.79635444  0.50105807  1
  Zr  Zr66  1  -0.00086572  0.58850557  0.75832082  1
  Zr  Zr67  1  0.10969225  0.49476590  0.14038589  1
  Zr  Zr68  1  0.88451086  0.70432167  0.64466939  1
  Zr  Zr69  1  0.52581554  0.50493549  0.86269006  1
  Zr  Zr70  1  0.19119801  -0.00500992  0.75916552  1
  Zr  Zr71  1  0.39318448  0.79366165  0.25477931  1
  Zr  Zr72  1  0.39821609  0.39313648  0.50470676  1
  Zr  Zr73  1  0.09561847  0.70392504  0.88867624  1
  Zr  Zr74  1  0.39999410  0.80278409  0.50181992  1
  Zr  Zr75  1  0.50670064  0.91386378  0.38515421  1
  Zr  Zr76  1  0.28582567  0.09642953  0.62354442  1
  Zr  Zr77  1  0.07242342  0.30877970  0.88415232  1
  Zr  Zr78  1  0.47687366  0.90219188  0.10286011  1
  Zr  Zr79  1  0.29587832  0.89229187  0.63240617  1
  Ta  Ta80  1  0.89748749  0.10238840  0.87711529  1
  Ta  Ta81  1  0.40478306  0.60437870  0.74831030  1
  Ta  Ta82  1  0.09985156  0.49719939  0.61970700  1
  Ta  Ta83  1  0.30476683  0.50334469  0.14652824  1
  Ta  Ta84  1  -0.00857239  0.58949653  0.00337018  1
  Ta  Ta85  1  0.30191649  0.07936854  0.10777169  1
  Ta  Ta86  1  0.79326504  -0.00924766  0.50177930  1
  Ta  Ta87  1  0.80329063  0.59210501  -0.00334364  1
  Ta  Ta88  1  0.39850339  0.19908267  0.51494901  1
  Ta  Ta89  1  0.80707509  0.20647532  0.24607891  1
  Ta  Ta90  1  0.10764432  0.71005922  0.36190888  1
  Ta  Ta91  1  0.90819355  0.48785172  0.87460019  1
  Ta  Ta92  1  0.19689880  -0.01555103  0.23265698  1
  Ta  Ta93  1  0.30606835  0.89523110  0.89312316  1
  Ta  Ta94  1  -0.01364907  0.20962057  0.74881876  1
  Ta  Ta95  1  0.88948552  0.69113847  0.13072402  1
  Ta  Ta96  1  0.30489799  0.09556311  0.38208352  1
  Ta  Ta97  1  0.80076708  -0.00921406  0.76214348  1
  Ta  Ta98  1  0.08797070  0.29902708  0.12828993  1
  Ta  Ta99  1  0.89780547  0.89859698  0.89238116  1
  Ta  Ta100  1  0.49826150  0.10701585  0.39584086  1
  Ta  Ta101  1  0.29925137  0.69691332  0.64022101  1
  Ta  Ta102  1  0.88256043  0.69543361  0.87413281  1
  Ta  Ta103  1  0.19234200  -0.00413814  0.49974084  1
  Ta  Ta104  1  0.08348784  0.10654907  0.61848878  1
  Ta  Ta105  1  0.59313355  0.21112991  0.73134613  1
  Ta  Ta106  1  0.70217255  0.90351908  0.36491682  1
  Ta  Ta107  1  0.59749173  0.81672031  0.24604473  1
  Ta  Ta108  1  0.89332662  0.09419910  0.62162734  1
  Ta  Ta109  1  0.70153913  0.29429458  0.12610787  1
  Ta  Ta110  1  0.62080462  0.80082846  0.50316200  1
  Ta  Ta111  1  0.90820208  0.50081347  0.62386319  1
  Ta  Ta112  1  0.70609287  0.89710579  0.88694051  1
  Ta  Ta113  1  0.09887104  0.89959664  0.36501423  1
  Ta  Ta114  1  0.68840377  0.09134176  0.39086110  1
  Ta  Ta115  1  0.28861242  0.50906487  0.63253665  1
  Ta  Ta116  1  0.40435605  0.80016165  0.76311069  1
  Ta  Ta117  1  -0.00489172  0.19917967  0.48798133  1
  Ta  Ta118  1  0.00552931  0.60461725  0.24302632  1
  Ta  Ta119  1  0.19038920  0.19746894  0.00542639  1
  Ti  Ti120  1  0.28629533  0.30674319  0.62430450  1
  Ti  Ti121  1  0.79468685  0.40803975  0.50930985  1
  Ti  Ti122  1  0.09922325  0.10404514  0.12070095  1
  Ti  Ti123  1  0.09827548  0.90486498  0.62788435  1
  Ti  Ti124  1  0.50929199  0.70989942  0.11834764  1
  Ti  Ti125  1  0.00888278  0.60257938  0.49490386  1
  Ti  Ti126  1  0.70412825  0.70628189  0.13348755  1
  Ti  Ti127  1  0.10411370  0.90929441  0.10364445  1
  Ti  Ti128  1  0.09126734  0.30273039  0.62253543  1
  Ti  Ti129  1  0.20456744  0.79953117  0.76442759  1
  Ti  Ti130  1  0.30937339  0.28901828  0.37452246  1
  Ti  Ti131  1  0.58999015  0.79953243  -0.01853891  1
  Ti  Ti132  1  0.40994633  0.19744615  0.25170835  1
  Ti  Ti133  1  0.29425123  0.29899663  0.87558706  1
  Ti  Ti134  1  0.41275998  0.60341098  -0.00660482  1
  Ti  Ti135  1  0.79051981  0.78480615  -0.00225056  1
  Ti  Ti136  1  0.39546660  0.00352507  0.50812399  1
  Ti  Ti137  1  -0.01349623  0.21371633  0.01163979  1
  Ti  Ti138  1  0.61925419  0.40471302  0.73568401  1
  Ti  Ti139  1  0.61796921  0.60087089  0.50492184  1
  Ti  Ti140  1  0.21629398  0.61876265  0.25117825  1
  Ti  Ti141  1  -0.00374296  0.01151305  0.23249088  1
  Ti  Ti142  1  0.10013528  0.50118785  0.88231635  1
  Ti  Ti143  1  -0.01563351  0.01925167  0.01082178  1
  Ti  Ti144  1  0.77582562  0.60013505  0.75464155  1
  Ti  Ti145  1  0.08892187  0.10880419  0.89018608  1
  Ti  Ti146  1  0.30632140  0.69862993  0.87469917  1
  Ti  Ti147  1  0.00066293  0.20207893  0.25039835  1
  Ti  Ti148  1  0.89994653  0.90393049  0.63484529  1
  Ti  Ti149  1  0.21069256  0.80162989  0.00162532  1
  Ti  Ti150  1  0.71281456  0.88985441  0.63350826  1
  Ti  Ti151  1  0.69977984  0.30307464  0.87164154  1
  Ti  Ti152  1  0.70496051  0.71017403  0.36013442  1
  Ti  Ti153  1  -0.01410886  0.79220633  0.00925444  1
  Ti  Ti154  1  0.59739284  0.02131550  -0.02613733  1
  Ti  Ti155  1  0.50322497  0.69920271  0.86787545  1
  Ti  Ti156  1  0.20177319  0.60315382  0.75994679  1
  Ti  Ti157  1  0.51084524  0.29157835  0.39481051  1
  Ti  Ti158  1  -0.00289752  0.38060658  0.26571271  1
  Ti  Ti159  1  0.20003315  0.38592898  0.26234072  1
  Mo  Mo160  1  0.51121834  0.29276229  0.13148633  1
  Mo  Mo161  1  0.60249101  0.59661504  0.74677513  1
  Mo  Mo162  1  0.71324662  0.50713170  0.62355936  1
  Mo  Mo163  1  0.40002707  0.59784533  0.26141971  1
  Mo  Mo164  1  0.28978319  0.69694918  0.37033989  1
  Mo  Mo165  1  0.29924067  0.49978428  0.35389397  1
  Mo  Mo166  1  0.69695385  0.10920028  0.87036199  1
  Mo  Mo167  1  0.19671530  0.80679366  0.23800184  1
  Mo  Mo168  1  0.78882105  0.80031180  0.23972956  1
  Mo  Mo169  1  0.59485815  0.00160245  0.25271785  1
  Mo  Mo170  1  0.49659339  0.09975400  0.61233906  1
  Mo  Mo171  1  0.69766322  0.69185331  0.88045062  1
  Mo  Mo172  1  0.80240175  0.80639430  0.76320029  1
  Mo  Mo173  1  0.90230104  0.29397062  0.13243529  1
  Mo  Mo174  1  0.79827292  0.60315671  0.24599853  1
  Mo  Mo175  1  -0.00068877  0.39864339  0.73999855  1
  Mo  Mo176  1  0.90138935  0.29505304  0.38143749  1
  Mo  Mo177  1  0.79878217  -0.00322750  -0.01500822  1
  Mo  Mo178  1  0.10183647  0.29427656  0.36496240  1
  Mo  Mo179  1  0.50584335  0.29841204  0.62083756  1
  Mo  Mo180  1  0.60560709  0.20910847  -0.00450258  1
  Mo  Mo181  1  0.59344987  0.20223622  0.51245332  1
  Mo  Mo182  1  0.19410594  0.00565953  0.00363173  1
  Mo  Mo183  1  0.77682379  0.00855229  0.25182493  1
  Mo  Mo184  1  0.50448646  0.11112555  0.87347387  1
  Mo  Mo185  1  0.60934868  0.40381776  0.50567166  1
  Mo  Mo186  1  0.60314385  -0.01022427  0.50379989  1
  Mo  Mo187  1  0.00098832  0.40314378  0.00610199  1
  Mo  Mo188  1  0.89569615  0.29269719  0.87034577  1
  Mo  Mo189  1  0.50063365  0.89825063  0.88299994  1
  Mo  Mo190  1  0.40498000  -0.00216291  -0.01612829  1
  Mo  Mo191  1  0.40342791  0.78520254  -0.01722411  1
  Mo  Mo192  1  0.69379296  0.30854912  0.61171173  1
  Mo  Mo193  1  0.29100750  0.89656232  0.10646250  1
  Mo  Mo194  1  0.69704062  0.70182018  0.62586534  1
  Mo  Mo195  1  0.71839050  0.50240579  0.87358708  1
  Mo  Mo196  1  0.80285243  0.19063893  0.50399693  1
  Mo  Mo197  1  0.90742176  0.10496529  0.13106283  1
  Mo  Mo198  1  0.80383799  0.38565879  0.25076630  1
  Mo  Mo199  1  0.18682638  0.59909885  0.49894925  1
