# generated using pymatgen
data_HfZrTaTiMo
_symmetry_space_group_name_H-M   'P 1'
_cell_length_a   15.20453767
_cell_length_b   15.21216566
_cell_length_c   16.85220826
_cell_angle_alpha   90.02438230
_cell_angle_beta   90.00821081
_cell_angle_gamma   89.82563816
_symmetry_Int_Tables_number   1
_chemical_formula_structural   HfZrTaTiMo
_chemical_formula_sum   'Hf40 Zr40 Ta40 Ti40 Mo40'
_cell_volume   3897.79530324
_cell_formula_units_Z   40
loop_
 _symmetry_equiv_pos_site_id
 _symmetry_equiv_pos_as_xyz
  1  'x, y, z'
loop_
 _atom_site_type_symbol
 _atom_site_label
 _atom_site_symmetry_multiplicity
 _atom_site_fract_x
 _atom_site_fract_y
 _atom_site_fract_z
 _atom_site_occupancy
  Hf  Hf0  1  0.79187028  0.21220994  0.50757135  1
  Hf  Hf1  1  0.11346040  0.69967150  0.88663829  1
  Hf  Hf2  1  0.90124540  0.71178338  0.89123693  1
  Hf  Hf3  1  0.00924171  0.39780748  0.74493866  1
  Hf  Hf4  1  0.49339556  0.90812362  0.36757230  1
  Hf  Hf5  1  0.10100164  0.29137188  0.38041311  1
  Hf  Hf6  1  0.01625019  0.38900593  0.24103308  1
  Hf  Hf7  1  0.00144765  -0.01055617  0.25695916  1
  Hf  Hf8  1  0.49804543  0.50649167  0.11629510  1
  Hf  Hf9  1  0.09069526  0.09564835  0.62944962  1
  Hf  Hf10  1  0.59159795  0.59812737  0.73774333  1
  Hf  Hf11  1  0.40504858  0.80384478  -0.00557663  1
  Hf  Hf12  1  0.41564052  0.37397084  0.51290092  1
  Hf  Hf13  1  0.18673268  0.80971221  0.25169765  1
  Hf  Hf14  1  0.70332284  0.48660726  0.86370848  1
  Hf  Hf15  1  0.88181965  0.09302616  0.88541013  1
  Hf  Hf16  1  0.59784695  0.00102748  0.50196454  1
  Hf  Hf17  1  -0.00327367  0.82280268  0.76499619  1
  Hf  Hf18  1  0.80375519  0.38007362  0.00479661  1
  Hf  Hf19  1  0.30544583  0.49903609  0.12383126  1
  Hf  Hf20  1  0.39827842  0.20424377  -0.01519539  1
  Hf  Hf21  1  0.20381850  0.59390112  0.26116792  1
  Hf  Hf22  1  0.09166653  0.89022741  0.61959787  1
  Hf  Hf23  1  0.49901410  0.10797344  0.36802879  1
  Hf  Hf24  1  0.48520021  0.90134879  0.13126898  1
  Hf  Hf25  1  0.29686832  0.89090518  0.86749157  1
  Hf  Hf26  1  0.08306249  0.09040406  0.87589116  1
  Hf  Hf27  1  0.89793816  0.69615286  0.10665879  1
  Hf  Hf28  1  0.50401954  0.50426361  0.87633471  1
  Hf  Hf29  1  0.89669819  0.90476066  0.10886214  1
  Hf  Hf30  1  0.29810397  0.10034522  0.12668266  1
  Hf  Hf31  1  0.72194475  0.49116288  0.64079011  1
  Hf  Hf32  1  0.30040032  0.09202164  0.63940083  1
  Hf  Hf33  1  0.18921347  -0.00887821  0.00368490  1
  Hf  Hf34  1  0.18334730  -0.00904037  0.75591347  1
  Hf  Hf35  1  0.39105802  0.80205329  0.26047737  1
  Hf  Hf36  1  0.07858709  0.10268311  0.12494840  1
  Hf  Hf37  1  0.49542720  0.10095410  0.12615685  1
  Hf  Hf38  1  0.29674253  0.09759900  0.36280474  1
  Hf  Hf39  1  0.58634242  0.20445458  0.51022474  1
  Zr  Zr40  1  0.62595851  0.39780095  0.51654924  1
  Zr  Zr41  1  0.20803530  0.79830095  0.01318809  1
  Zr  Zr42  1  0.30349939  0.29382780  0.37972593  1
  Zr  Zr43  1  0.79799292  0.59222987  -0.00653254  1
  Zr  Zr44  1  0.19872507  0.60828712  0.49852864  1
  Zr  Zr45  1  0.01410882  0.61360104  0.74975067  1
  Zr  Zr46  1  0.71344239  0.30976215  0.37197396  1
  Zr  Zr47  1  0.88971919  0.49988225  0.37257442  1
  Zr  Zr48  1  0.31263774  0.70196712  0.61619494  1
  Zr  Zr49  1  0.19899502  0.00163372  0.49579811  1
  Zr  Zr50  1  0.79629331  0.00228854  0.24855112  1
  Zr  Zr51  1  0.79077942  0.79299841  0.50549089  1
  Zr  Zr52  1  0.61347914  0.79405675  0.00904350  1
  Zr  Zr53  1  0.70309236  0.50979695  0.11724051  1
  Zr  Zr54  1  0.89419988  0.11049850  0.37494564  1
  Zr  Zr55  1  0.07977922  0.69817511  0.36916280  1
  Zr  Zr56  1  0.49454255  0.30484398  0.12261708  1
  Zr  Zr57  1  0.49122863  0.89922682  0.62891063  1
  Zr  Zr58  1  0.09708272  0.49247033  0.38102767  1
  Zr  Zr59  1  0.39654688  0.20560034  0.76851478  1
  Zr  Zr60  1  0.40268352  0.41325785  0.73835866  1
  Zr  Zr61  1  0.88922672  0.30737892  0.63476675  1
  Zr  Zr62  1  0.69933018  0.89660160  0.37210410  1
  Zr  Zr63  1  0.51831864  0.50282317  0.39317123  1
  Zr  Zr64  1  0.30439175  0.69805203  0.13356807  1
  Zr  Zr65  1  0.19792322  0.78281454  0.74538034  1
  Zr  Zr66  1  0.11089649  0.49455495  0.87751942  1
  Zr  Zr67  1  0.60159064  0.60272435  0.25566195  1
  Zr  Zr68  1  0.40007412  0.40865901  0.25909250  1
  Zr  Zr69  1  0.30964788  0.49952035  0.39856625  1
  Zr  Zr70  1  0.19053859  0.20943167  -0.00381188  1
  Zr  Zr71  1  -0.00829565  0.40002591  0.50916806  1
  Zr  Zr72  1  0.10879119  0.49650548  0.11822061  1
  Zr  Zr73  1  0.69170729  0.69619678  0.87036290  1
  Zr  Zr74  1  0.79560969  0.00179525  0.49315248  1
  Zr  Zr75  1  0.19966252  0.80809979  0.48228253  1
  Zr  Zr76  1  0.59008316  0.18923740  0.75128112  1
  Zr  Zr77  1  0.00573797  0.39992894  0.00134480  1
  Zr  Zr78  1  0.61513162  0.19983362  0.00476565  1
  Zr  Zr79  1  0.61430850  0.39868591  0.24618923  1
  Ta  Ta80  1  0.79524760  0.19065040  0.74853081  1
  Ta  Ta81  1  0.71579962  0.90156206  0.87850236  1
  Ta  Ta82  1  0.20125672  0.19781513  0.50878629  1
  Ta  Ta83  1  0.30394802  0.90021309  0.63208296  1
  Ta  Ta84  1  0.70639352  0.29101316  0.86627478  1
  Ta  Ta85  1  0.69924325  0.68970697  0.37748560  1
  Ta  Ta86  1  0.81175593  0.60572582  0.75509736  1
  Ta  Ta87  1  0.28781726  0.30914100  0.12546006  1
  Ta  Ta88  1  0.39768289  0.00184346  -0.01150565  1
  Ta  Ta89  1  0.89692685  0.90572406  0.62379922  1
  Ta  Ta90  1  0.69061722  0.08968912  0.87737704  1
  Ta  Ta91  1  0.61101033  0.19607561  0.24308567  1
  Ta  Ta92  1  0.30466762  0.51044701  0.87209532  1
  Ta  Ta93  1  0.90721765  0.70801016  0.62756302  1
  Ta  Ta94  1  -0.00379533  -0.00746487  0.48473136  1
  Ta  Ta95  1  0.61613273  0.60745219  0.51120800  1
  Ta  Ta96  1  0.40035031  0.60853096  -0.00625762  1
  Ta  Ta97  1  -0.01082943  0.59696539  0.23595282  1
  Ta  Ta98  1  0.89537354  0.09451959  0.62356845  1
  Ta  Ta99  1  0.18873317  0.20796463  0.75304370  1
  Ta  Ta100  1  0.29898261  0.28930927  0.62714007  1
  Ta  Ta101  1  0.60107353  -0.00509337  0.00828019  1
  Ta  Ta102  1  0.80039293  0.80356345  0.74840460  1
  Ta  Ta103  1  0.60211611  0.00237474  0.24121969  1
  Ta  Ta104  1  0.48830641  0.10123662  0.62590402  1
  Ta  Ta105  1  0.91336149  0.28693623  0.12783729  1
  Ta  Ta106  1  0.58759049  0.79210189  0.50026633  1
  Ta  Ta107  1  0.79686680  0.79256016  0.24322854  1
  Ta  Ta108  1  0.29174887  0.09834010  0.87137068  1
  Ta  Ta109  1  0.79961186  0.20600579  0.24149453  1
  Ta  Ta110  1  0.00232239  0.19498591  0.50783210  1
  Ta  Ta111  1  0.10517856  0.50609958  0.61994683  1
  Ta  Ta112  1  0.50527771  0.69556045  0.12405127  1
  Ta  Ta113  1  -0.00700423  0.19207699  0.75013912  1
  Ta  Ta114  1  0.60288367  0.80506104  0.75135055  1
  Ta  Ta115  1  -0.00931314  0.79990645  0.49249400  1
  Ta  Ta116  1  0.60351194  0.79785607  0.24262167  1
  Ta  Ta117  1  0.60435121  0.40080382  -0.00081559  1
  Ta  Ta118  1  0.21797171  0.58921747  0.73891455  1
  Ta  Ta119  1  0.18452393  0.21182980  0.24110846  1
  Ti  Ti120  1  0.69769920  0.09372293  0.63092888  1
  Ti  Ti121  1  0.09711097  0.29824805  0.87081850  1
  Ti  Ti122  1  0.01311072  0.81983634  -0.00318268  1
  Ti  Ti123  1  0.90801083  0.51237169  0.63079159  1
  Ti  Ti124  1  0.39415600  0.40219803  -0.00859760  1
  Ti  Ti125  1  0.30974841  0.50288624  0.60813382  1
  Ti  Ti126  1  0.50623932  0.29771531  0.36963119  1
  Ti  Ti127  1  0.41015787  0.00130450  0.76590582  1
  Ti  Ti128  1  0.19702386  0.38958372  0.51798248  1
  Ti  Ti129  1  0.90816614  0.50092874  0.87164014  1
  Ti  Ti130  1  0.39714631  0.20550211  0.24500957  1
  Ti  Ti131  1  0.20186377  -0.00458063  0.24273433  1
  Ti  Ti132  1  0.09273142  0.70037162  0.11988642  1
  Ti  Ti133  1  0.88936380  0.69698793  0.37310216  1
  Ti  Ti134  1  0.60352338  -0.00482546  0.75165337  1
  Ti  Ti135  1  0.80384717  -0.00714362  0.74957354  1
  Ti  Ti136  1  0.70476502  0.70058997  0.63394375  1
  Ti  Ti137  1  0.51498852  0.90395973  0.87567173  1
  Ti  Ti138  1  0.20615993  0.59524752  0.00025663  1
  Ti  Ti139  1  0.50003812  0.70406288  0.62490169  1
  Ti  Ti140  1  0.40682146  0.60918237  0.26982332  1
  Ti  Ti141  1  0.89803058  0.29921230  0.86626363  1
  Ti  Ti142  1  0.90805471  0.30036653  0.36923203  1
  Ti  Ti143  1  0.81281351  0.40513260  0.23160838  1
  Ti  Ti144  1  0.79881732  0.60213742  0.24240393  1
  Ti  Ti145  1  0.69710084  0.89700803  0.62824176  1
  Ti  Ti146  1  0.80822044  0.59260580  0.50592937  1
  Ti  Ti147  1  0.39357262  0.80416413  0.48201505  1
  Ti  Ti148  1  -0.01135480  0.79725253  0.24536988  1
  Ti  Ti149  1  0.09766634  0.10254915  0.36890993  1
  Ti  Ti150  1  0.51065077  0.30746882  0.87758566  1
  Ti  Ti151  1  0.88347045  0.10377757  0.11097070  1
  Ti  Ti152  1  0.49768620  0.51074507  0.61104603  1
  Ti  Ti153  1  -0.01216414  0.20309418  -0.00559588  1
  Ti  Ti154  1  0.39294256  0.00066012  0.49890946  1
  Ti  Ti155  1  0.60229109  0.38507269  0.73546518  1
  Ti  Ti156  1  0.49496102  0.69916465  0.86984183  1
  Ti  Ti157  1  0.40536261  0.79253770  0.75625827  1
  Ti  Ti158  1  0.28940714  0.31616732  0.87058871  1
  Ti  Ti159  1  0.20378702  0.39864888  0.73408160  1
  Mo  Mo160  1  0.39488992  0.00675305  0.24781799  1
  Mo  Mo161  1  0.78088967  0.00476636  0.00804204  1
  Mo  Mo162  1  0.70216265  0.09693006  0.12165107  1
  Mo  Mo163  1  0.09123202  0.90827204  0.37233575  1
  Mo  Mo164  1  0.79933185  0.80774558  -0.00065421  1
  Mo  Mo165  1  0.29793376  0.91070826  0.36979821  1
  Mo  Mo166  1  0.49469709  0.29392088  0.63262681  1
  Mo  Mo167  1  0.71507508  0.51113017  0.37830647  1
  Mo  Mo168  1  0.69654041  0.89858153  0.13257044  1
  Mo  Mo169  1  0.21675958  0.39891728  -0.00922688  1
  Mo  Mo170  1  0.80971815  0.39749885  0.76456025  1
  Mo  Mo171  1  0.90308267  0.88052795  0.37004759  1
  Mo  Mo172  1  0.30464706  0.70209831  0.37256383  1
  Mo  Mo173  1  -0.01926163  0.00485899  0.74765714  1
  Mo  Mo174  1  0.30883119  0.68961748  0.87147310  1
  Mo  Mo175  1  0.40100797  0.60625001  0.74605294  1
  Mo  Mo176  1  -0.00733688  0.61046617  0.51188546  1
  Mo  Mo177  1  0.20792830  0.39452661  0.25305954  1
  Mo  Mo178  1  0.70020061  0.70555452  0.12675711  1
  Mo  Mo179  1  0.59041302  0.59817220  -0.00428608  1
  Mo  Mo180  1  0.09180657  0.69692279  0.61836651  1
  Mo  Mo181  1  0.80310156  0.40563756  0.50433827  1
  Mo  Mo182  1  0.10364954  0.29302813  0.11925402  1
  Mo  Mo183  1  0.10303602  0.29464358  0.62564246  1
  Mo  Mo184  1  -0.00530744  0.00456805  0.00504661  1
  Mo  Mo185  1  0.39227965  0.18373903  0.50726576  1
  Mo  Mo186  1  0.71076768  0.29611517  0.12932546  1
  Mo  Mo187  1  0.00971203  0.60673874  0.00535828  1
  Mo  Mo188  1  0.42264064  0.62259683  0.49266462  1
  Mo  Mo189  1  -0.00750195  0.19479629  0.24974347  1
  Mo  Mo190  1  0.68942123  0.11003726  0.36663292  1
  Mo  Mo191  1  0.09495357  0.89573058  0.13075519  1
  Mo  Mo192  1  0.49954067  0.08707423  0.88383706  1
  Mo  Mo193  1  0.50862512  0.70919019  0.38060485  1
  Mo  Mo194  1  0.09247480  0.89938067  0.87931324  1
  Mo  Mo195  1  0.70024014  0.28989315  0.64344620  1
  Mo  Mo196  1  0.90474828  0.49767622  0.13019743  1
  Mo  Mo197  1  0.80181922  0.20293186  -0.00294145  1
  Mo  Mo198  1  0.29986155  0.91174646  0.12653239  1
  Mo  Mo199  1  0.89627768  0.90732563  0.89300196  1
