# generated using pymatgen
data_HfZrTaTiMo
_symmetry_space_group_name_H-M   'P 1'
_cell_length_a   15.18529903
_cell_length_b   15.19628014
_cell_length_c   16.80560916
_cell_angle_alpha   89.96267414
_cell_angle_beta   89.90070399
_cell_angle_gamma   89.92569701
_symmetry_Int_Tables_number   1
_chemical_formula_structural   HfZrTaTiMo
_chemical_formula_sum   'Hf40 Zr40 Ta40 Ti40 Mo40'
_cell_volume   3878.05344374
_cell_formula_units_Z   40
loop_
 _symmetry_equiv_pos_site_id
 _symmetry_equiv_pos_as_xyz
  1  'x, y, z'
loop_
 _atom_site_type_symbol
 _atom_site_label
 _atom_site_symmetry_multiplicity
 _atom_site_fract_x
 _atom_site_fract_y
 _atom_site_fract_z
 _atom_site_occupancy
  Hf  Hf0  1  0.59696686  0.60901523  0.25760108  1
  Hf  Hf1  1  0.21747077  -0.00996574  0.00639694  1
  Hf  Hf2  1  0.89455248  0.10290670  0.63845190  1
  Hf  Hf3  1  -0.00440251  -0.01048220  0.50744304  1
  Hf  Hf4  1  0.60052249  0.40437092  -0.02039404  1
  Hf  Hf5  1  0.20915569  0.39817341  0.50632605  1
  Hf  Hf6  1  0.09400123  0.69669222  0.35959295  1
  Hf  Hf7  1  0.39767427  0.00737051  0.75129316  1
  Hf  Hf8  1  0.60417971  0.80964561  0.47788914  1
  Hf  Hf9  1  0.59516658  0.19864381  -0.00623500  1
  Hf  Hf10  1  0.38174973  0.41214246  0.73098359  1
  Hf  Hf11  1  0.49415494  0.71336408  0.88894700  1
  Hf  Hf12  1  0.30235276  0.89705139  0.62117572  1
  Hf  Hf13  1  0.10428452  0.10442567  0.10775288  1
  Hf  Hf14  1  0.79991032  0.20457766  0.50735821  1
  Hf  Hf15  1  0.21543373  0.58242392  0.75006071  1
  Hf  Hf16  1  -0.00561928  0.20311831  -0.01058705  1
  Hf  Hf17  1  0.80929905  0.79136062  0.47904352  1
  Hf  Hf18  1  0.70666887  0.49843492  0.12578403  1
  Hf  Hf19  1  0.70010584  0.29854665  0.11503324  1
  Hf  Hf20  1  0.19622315  0.00478216  0.48390332  1
  Hf  Hf21  1  0.81223372  0.80373083  0.25618752  1
  Hf  Hf22  1  0.49721034  0.49374145  0.37094560  1
  Hf  Hf23  1  0.19942881  -0.00743639  0.75701912  1
  Hf  Hf24  1  0.58672402  0.38989456  0.76598369  1
  Hf  Hf25  1  0.40741021  0.39710391  0.51275223  1
  Hf  Hf26  1  0.39101889  0.60509567  0.48520328  1
  Hf  Hf27  1  0.48939477  0.90950788  0.14571915  1
  Hf  Hf28  1  0.88274710  0.89988083  0.87544701  1
  Hf  Hf29  1  -0.00532612  0.40521636  -0.01395171  1
  Hf  Hf30  1  0.31787433  0.89085535  0.35208634  1
  Hf  Hf31  1  0.30164031  0.68844830  0.62207194  1
  Hf  Hf32  1  0.10315193  0.09415155  0.88853145  1
  Hf  Hf33  1  0.70599236  0.48863435  0.64024439  1
  Hf  Hf34  1  0.20180799  0.40338150  0.00136603  1
  Hf  Hf35  1  -0.00370259  -0.01026157  0.75180535  1
  Hf  Hf36  1  0.18991642  0.79113813  0.75282599  1
  Hf  Hf37  1  0.09482771  0.88970444  0.89090228  1
  Hf  Hf38  1  0.80272173  0.20006137  0.24676583  1
  Hf  Hf39  1  0.21082974  0.20107263  0.75158260  1
  Zr  Zr40  1  0.50968789  0.72130513  0.61689409  1
  Zr  Zr41  1  0.78865441  0.59847707  0.48959375  1
  Zr  Zr42  1  0.90315936  0.31296196  0.63128699  1
  Zr  Zr43  1  0.10812928  0.68593719  0.89435607  1
  Zr  Zr44  1  0.29995924  0.11028395  0.61801461  1
  Zr  Zr45  1  0.40619573  -0.00351340  0.48976882  1
  Zr  Zr46  1  0.00065600  0.38645273  0.24515233  1
  Zr  Zr47  1  0.50226405  0.51770080  0.62246030  1
  Zr  Zr48  1  0.60901308  0.81387700  0.75843333  1
  Zr  Zr49  1  0.39489692  0.21360322  0.24556294  1
  Zr  Zr50  1  0.30568932  0.70018551  0.11428448  1
  Zr  Zr51  1  0.09769436  0.10376265  0.62276712  1
  Zr  Zr52  1  0.00612291  0.61129130  0.75174521  1
  Zr  Zr53  1  0.80007307  -0.00902997  0.50517656  1
  Zr  Zr54  1  0.69332161  0.10918486  0.63288313  1
  Zr  Zr55  1  0.59568992  0.60178640  0.76520630  1
  Zr  Zr56  1  0.79785236  0.79841834  0.01158693  1
  Zr  Zr57  1  0.19742686  0.01402972  0.24895829  1
  Zr  Zr58  1  0.40055497  0.80015903  0.75340780  1
  Zr  Zr59  1  0.80695271  0.58787343  -0.01178448  1
  Zr  Zr60  1  0.09097676  0.49430234  0.61903068  1
  Zr  Zr61  1  0.59719858  0.81798099  0.00639224  1
  Zr  Zr62  1  0.00702730  0.18989484  0.24261474  1
  Zr  Zr63  1  0.50946501  0.11048515  0.13375237  1
  Zr  Zr64  1  -0.00174301  0.20890824  0.76796153  1
  Zr  Zr65  1  0.60180387  0.60347201  -0.00721310  1
  Zr  Zr66  1  0.69667764  0.30701746  0.37947799  1
  Zr  Zr67  1  -0.00452690  0.79438464  0.01731457  1
  Zr  Zr68  1  0.91229877  0.08923694  0.37732950  1
  Zr  Zr69  1  0.30574765  0.68368238  0.89796226  1
  Zr  Zr70  1  0.20293578  0.79776182  0.48779919  1
  Zr  Zr71  1  0.49676637  0.50845094  0.13051219  1
  Zr  Zr72  1  0.61119955  0.01366005  0.26284624  1
  Zr  Zr73  1  -0.01290072  0.59929014  0.49371995  1
  Zr  Zr74  1  0.59896082  0.01099923  0.49004059  1
  Zr  Zr75  1  0.10429753  0.68355307  0.12909522  1
  Zr  Zr76  1  0.31472216  0.30289338  0.87169206  1
  Zr  Zr77  1  0.71847922  0.69841668  0.63219796  1
  Zr  Zr78  1  0.08545070  0.90072427  0.35620756  1
  Zr  Zr79  1  0.90916723  0.29999123  0.38876076  1
  Ta  Ta80  1  -0.02617483  0.00118822  0.01318360  1
  Ta  Ta81  1  0.59924512  0.39798460  0.24753409  1
  Ta  Ta82  1  0.59044861  0.00151299  0.74509558  1
  Ta  Ta83  1  0.89596899  0.87135057  0.63526930  1
  Ta  Ta84  1  0.40050191  0.40582374  0.00388767  1
  Ta  Ta85  1  0.78596612  -0.01616680  0.74704393  1
  Ta  Ta86  1  0.69239639  0.89514447  0.62101364  1
  Ta  Ta87  1  0.00002386  0.41015997  0.77167685  1
  Ta  Ta88  1  0.46794067  0.50678754  0.87308227  1
  Ta  Ta89  1  0.69984777  0.90788326  0.13352136  1
  Ta  Ta90  1  0.49796255  0.10565253  0.62690995  1
  Ta  Ta91  1  0.49524270  0.11529338  0.36870956  1
  Ta  Ta92  1  0.69741824  0.70225969  0.13626083  1
  Ta  Ta93  1  0.29623563  0.49446268  0.36462123  1
  Ta  Ta94  1  0.30495573  0.30480562  0.37439766  1
  Ta  Ta95  1  0.09589592  0.48371758  0.37695117  1
  Ta  Ta96  1  0.10815939  0.89341365  0.12487401  1
  Ta  Ta97  1  -0.00455506  0.79669224  0.49438063  1
  Ta  Ta98  1  0.80393309  0.18468780  -0.01839901  1
  Ta  Ta99  1  0.89776763  0.49388567  0.37055361  1
  Ta  Ta100  1  0.48483117  0.71785233  0.36575368  1
  Ta  Ta101  1  0.69294067  0.07520423  0.87505575  1
  Ta  Ta102  1  0.29646759  0.49721869  0.13613237  1
  Ta  Ta103  1  0.09174994  0.70574948  0.61808297  1
  Ta  Ta104  1  -0.01212420  -0.01150538  0.22547326  1
  Ta  Ta105  1  0.10747176  0.28490286  0.39097219  1
  Ta  Ta106  1  0.71285103  0.71005353  0.87168571  1
  Ta  Ta107  1  0.80771795  0.59362524  0.76629535  1
  Ta  Ta108  1  0.50388709  0.92342848  0.88313175  1
  Ta  Ta109  1  0.89554425  0.68449162  0.13694059  1
  Ta  Ta110  1  0.90019981  0.49118767  0.12680048  1
  Ta  Ta111  1  0.19550230  0.59797068  0.48787561  1
  Ta  Ta112  1  0.40089074  0.20553331  0.49672436  1
  Ta  Ta113  1  0.20092749  0.38920206  0.25061029  1
  Ta  Ta114  1  0.39274110  0.20628308  0.00807313  1
  Ta  Ta115  1  0.89266005  0.29709285  0.11094047  1
  Ta  Ta116  1  0.49541636  0.11975501  0.86870337  1
  Ta  Ta117  1  0.41303450  0.01108955  0.00186351  1
  Ta  Ta118  1  0.79839352  0.59655736  0.25937766  1
  Ta  Ta119  1  0.69774558  0.49518453  0.37167513  1
  Ti  Ti120  1  0.80789095  0.00583601  0.24437079  1
  Ti  Ti121  1  0.29508619  0.29981169  0.12348853  1
  Ti  Ti122  1  0.79978952  0.39723689  0.24866783  1
  Ti  Ti123  1  0.40549606  0.80535411  0.49395650  1
  Ti  Ti124  1  0.60702811  0.21094700  0.25047589  1
  Ti  Ti125  1  0.30398788  0.89350392  0.87993437  1
  Ti  Ti126  1  0.70438569  0.11426677  0.38013087  1
  Ti  Ti127  1  0.50388667  0.28981770  0.63258212  1
  Ti  Ti128  1  0.80533123  0.39478290  0.77416625  1
  Ti  Ti129  1  0.59830557  0.60875583  0.48236583  1
  Ti  Ti130  1  0.70366502  0.29539570  0.64699468  1
  Ti  Ti131  1  0.49724869  0.31198970  0.12704157  1
  Ti  Ti132  1  0.30736541  0.09698836  0.12800739  1
  Ti  Ti133  1  0.10217088  0.29863402  0.11467211  1
  Ti  Ti134  1  0.50064495  0.70513625  0.12291895  1
  Ti  Ti135  1  0.89685735  0.50637092  0.63225602  1
  Ti  Ti136  1  0.71427850  0.91108136  0.36769447  1
  Ti  Ti137  1  0.80492146  0.40790099  0.50545723  1
  Ti  Ti138  1  0.90975368  0.70584688  0.87484434  1
  Ti  Ti139  1  0.39004075  0.60925854  0.25626462  1
  Ti  Ti140  1  0.09886358  0.49212139  0.13025218  1
  Ti  Ti141  1  0.09991352  0.29238827  0.61211356  1
  Ti  Ti142  1  0.29521920  0.11298799  0.37371587  1
  Ti  Ti143  1  0.71141929  0.09696382  0.11394638  1
  Ti  Ti144  1  0.49997117  0.30502968  0.37187539  1
  Ti  Ti145  1  0.30464551  0.10121609  0.88257161  1
  Ti  Ti146  1  0.61008537  0.40248955  0.50951357  1
  Ti  Ti147  1  0.38995670  0.82359652  0.01155073  1
  Ti  Ti148  1  0.59331323  0.21292559  0.50093648  1
  Ti  Ti149  1  0.19795002  0.58853806  0.25637252  1
  Ti  Ti150  1  0.69631908  0.28048779  0.86431470  1
  Ti  Ti151  1  0.20979073  0.79217475  0.24336615  1
  Ti  Ti152  1  -0.00659304  0.59015175  0.25238122  1
  Ti  Ti153  1  0.09725860  0.89210111  0.62513141  1
  Ti  Ti154  1  0.00323613  0.58908777  0.00249407  1
  Ti  Ti155  1  0.80025800  0.39134244  -0.02391126  1
  Ti  Ti156  1  0.19487345  0.20557869  0.25112451  1
  Ti  Ti157  1  0.11225733  0.30125277  0.87983328  1
  Ti  Ti158  1  0.18930235  0.39325110  0.74112590  1
  Ti  Ti159  1  0.60301481  0.80576665  0.25913608  1
  Mo  Mo160  1  0.90771271  0.89668060  0.36743637  1
  Mo  Mo161  1  0.50518966  0.90742147  0.35410631  1
  Mo  Mo162  1  0.41024690  0.20825978  0.74386762  1
  Mo  Mo163  1  0.39851982  0.01221165  0.26080456  1
  Mo  Mo164  1  0.90672790  0.69468970  0.35594545  1
  Mo  Mo165  1  0.29494870  0.69380429  0.36443216  1
  Mo  Mo166  1  0.00397790  0.79391523  0.22908220  1
  Mo  Mo167  1  0.29029123  0.49619405  0.87796088  1
  Mo  Mo168  1  0.80844934  0.79154409  0.75419911  1
  Mo  Mo169  1  0.10135897  0.10458096  0.37792993  1
  Mo  Mo170  1  0.89529391  0.29867121  0.87563585  1
  Mo  Mo171  1  0.29879899  0.29769589  0.62639006  1
  Mo  Mo172  1  0.30026515  0.90755490  0.13849214  1
  Mo  Mo173  1  0.90556552  0.69422019  0.62613785  1
  Mo  Mo174  1  0.88969341  0.09265944  0.86589241  1
  Mo  Mo175  1  0.59852734  0.00652060  0.00524303  1
  Mo  Mo176  1  0.20943234  0.19989479  0.00097686  1
  Mo  Mo177  1  -0.00210091  0.39809978  0.49781968  1
  Mo  Mo178  1  0.79639401  0.19165559  0.76966005  1
  Mo  Mo179  1  0.69411606  0.69994185  0.36146459  1
  Mo  Mo180  1  0.29366819  0.50429881  0.61325304  1
  Mo  Mo181  1  0.40101557  0.58878149  0.01001355  1
  Mo  Mo182  1  0.40151101  0.60485505  0.74912775  1
  Mo  Mo183  1  0.78770293  -0.00258430  0.00471283  1
  Mo  Mo184  1  0.50520641  0.91035128  0.62039234  1
  Mo  Mo185  1  0.69841644  0.49683570  0.86373857  1
  Mo  Mo186  1  0.39470743  0.40486352  0.24717696  1
  Mo  Mo187  1  0.49394018  0.30311807  0.87695198  1
  Mo  Mo188  1  0.89109446  0.89974832  0.12483162  1
  Mo  Mo189  1  0.59658316  0.19477829  0.75645994  1
  Mo  Mo190  1  0.00804313  0.19545680  0.50763169  1
  Mo  Mo191  1  0.20527354  0.80333638  0.00825753  1
  Mo  Mo192  1  0.00362300  0.79958693  0.75241075  1
  Mo  Mo193  1  0.40669750  0.79310016  0.23894961  1
  Mo  Mo194  1  0.69321729  0.89923219  0.87637451  1
  Mo  Mo195  1  0.89129576  0.10535838  0.12064337  1
  Mo  Mo196  1  0.11133516  0.49375359  0.87340536  1
  Mo  Mo197  1  0.19756088  0.58352686  0.01175738  1
  Mo  Mo198  1  0.20956607  0.20156817  0.49476411  1
  Mo  Mo199  1  0.90516294  0.50766221  0.87424209  1
