# generated using pymatgen
data_HfZrTaTiMo
_symmetry_space_group_name_H-M   'P 1'
_cell_length_a   15.20632490
_cell_length_b   15.22265243
_cell_length_c   16.85160958
_cell_angle_alpha   89.99271742
_cell_angle_beta   89.99840405
_cell_angle_gamma   90.10840742
_symmetry_Int_Tables_number   1
_chemical_formula_structural   HfZrTaTiMo
_chemical_formula_sum   'Hf40 Zr40 Ta40 Ti40 Mo40'
_cell_volume   3900.81365716
_cell_formula_units_Z   40
loop_
 _symmetry_equiv_pos_site_id
 _symmetry_equiv_pos_as_xyz
  1  'x, y, z'
loop_
 _atom_site_type_symbol
 _atom_site_label
 _atom_site_symmetry_multiplicity
 _atom_site_fract_x
 _atom_site_fract_y
 _atom_site_fract_z
 _atom_site_occupancy
  Hf  Hf0  1  0.79081042  0.80022132  0.23745160  1
  Hf  Hf1  1  0.56679972  0.80554390  0.75976899  1
  Hf  Hf2  1  0.40082456  0.77389332  0.24414101  1
  Hf  Hf3  1  0.60677273  -0.00338779  0.00642008  1
  Hf  Hf4  1  0.00936819  0.60483381  0.25609712  1
  Hf  Hf5  1  0.50897728  0.88758443  0.12667301  1
  Hf  Hf6  1  0.28555175  0.49206881  0.88721109  1
  Hf  Hf7  1  0.91303314  0.11457457  0.63284773  1
  Hf  Hf8  1  0.59796495  0.61703075  0.25602129  1
  Hf  Hf9  1  0.41836342  0.39778185  0.76428546  1
  Hf  Hf10  1  0.69840612  0.51609542  0.87031478  1
  Hf  Hf11  1  0.27895999  0.86801905  0.36932749  1
  Hf  Hf12  1  0.78725095  0.60345715  0.50166270  1
  Hf  Hf13  1  0.09110715  0.29017747  0.12102763  1
  Hf  Hf14  1  0.80124455  0.82340402  0.00426438  1
  Hf  Hf15  1  0.70369342  0.30511877  0.37260455  1
  Hf  Hf16  1  0.68142368  0.90731946  0.64624737  1
  Hf  Hf17  1  0.80496697  0.00027866  0.23088353  1
  Hf  Hf18  1  0.81195238  0.21984263  0.51032394  1
  Hf  Hf19  1  0.90927622  0.11440144  0.12111737  1
  Hf  Hf20  1  0.71273978  0.71522861  0.85729515  1
  Hf  Hf21  1  0.39387951  0.60113475  0.76562984  1
  Hf  Hf22  1  0.00629395  0.00968471  0.24116446  1
  Hf  Hf23  1  0.19032999  0.19115445  0.24370355  1
  Hf  Hf24  1  0.19397694  0.77288551  0.22272428  1
  Hf  Hf25  1  0.08395774  0.49543033  0.62601066  1
  Hf  Hf26  1  0.70041775  0.11009541  0.86631921  1
  Hf  Hf27  1  -0.00114417  0.80613506  0.25812188  1
  Hf  Hf28  1  0.70124452  0.31711702  0.87412811  1
  Hf  Hf29  1  0.11993541  0.09928838  0.87673265  1
  Hf  Hf30  1  0.30842176  0.27550289  0.89342459  1
  Hf  Hf31  1  0.58526669  0.21674654  0.75191509  1
  Hf  Hf32  1  0.79993485  0.80501236  0.51453195  1
  Hf  Hf33  1  0.79833746  0.41311020  0.24586639  1
  Hf  Hf34  1  0.29840014  0.70110463  0.63614697  1
  Hf  Hf35  1  0.09199093  0.09613840  0.38396348  1
  Hf  Hf36  1  0.40656721  0.79666218  -0.00745064  1
  Hf  Hf37  1  0.80107678  0.00451621  0.51607712  1
  Hf  Hf38  1  0.20255936  0.60931621  0.50070598  1
  Hf  Hf39  1  0.89945832  0.11291756  0.37449902  1
  Zr  Zr40  1  0.50389033  0.88206206  0.35920581  1
  Zr  Zr41  1  0.08676861  0.68452360  0.89150628  1
  Zr  Zr42  1  0.40291295  0.40439487  0.24970371  1
  Zr  Zr43  1  0.37658163  0.19077886  0.74783200  1
  Zr  Zr44  1  0.29915040  0.30822245  0.11884830  1
  Zr  Zr45  1  0.19480646  -0.01656188  0.23730954  1
  Zr  Zr46  1  0.69736549  0.31306380  0.11007412  1
  Zr  Zr47  1  -0.01849881  -0.00412111  -0.01360580  1
  Zr  Zr48  1  0.20947787  0.38506403  0.74785190  1
  Zr  Zr49  1  0.10041050  0.49177126  0.11529700  1
  Zr  Zr50  1  -0.00382026  0.59168163  0.48771544  1
  Zr  Zr51  1  0.70298729  0.10185383  0.37513721  1
  Zr  Zr52  1  0.08126286  0.88129800  0.10075305  1
  Zr  Zr53  1  0.30475544  0.49056177  0.62299125  1
  Zr  Zr54  1  0.39878320  -0.00275469  0.24778178  1
  Zr  Zr55  1  0.29887165  0.09646763  0.37437613  1
  Zr  Zr56  1  0.90861115  0.32061565  0.87280812  1
  Zr  Zr57  1  0.59110390  0.79022410  0.50459378  1
  Zr  Zr58  1  0.59974849  0.20847327  0.50571334  1
  Zr  Zr59  1  0.48406204  0.09396374  0.88558364  1
  Zr  Zr60  1  0.10525796  0.29110923  0.62403416  1
  Zr  Zr61  1  0.01110408  -0.00375720  0.76254569  1
  Zr  Zr62  1  0.29973135  0.10032664  0.61036718  1
  Zr  Zr63  1  0.59806980  -0.00363182  0.49730838  1
  Zr  Zr64  1  0.01258878  0.79678120  0.49279974  1
  Zr  Zr65  1  0.40774353  0.20478119  0.24989545  1
  Zr  Zr66  1  0.50028623  0.08246560  0.63075553  1
  Zr  Zr67  1  0.11351017  0.30286652  0.88570470  1
  Zr  Zr68  1  0.10269112  0.09473963  0.62426369  1
  Zr  Zr69  1  0.60550564  0.40976935  0.49778673  1
  Zr  Zr70  1  0.70744665  0.88820890  0.37336819  1
  Zr  Zr71  1  0.70202277  0.11697523  0.64052119  1
  Zr  Zr72  1  0.90032984  0.31446223  0.11769997  1
  Zr  Zr73  1  0.19388496  -0.02458826  0.49747181  1
  Zr  Zr74  1  0.20590457  0.80149848  0.76131593  1
  Zr  Zr75  1  0.59760104  0.40633554  0.25044029  1
  Zr  Zr76  1  0.40430075  -0.01362375  0.48821775  1
  Zr  Zr77  1  0.89885942  0.68942224  0.63457100  1
  Zr  Zr78  1  0.10864475  0.88699598  0.89047935  1
  Zr  Zr79  1  0.60934775  0.00534261  0.23630604  1
  Ta  Ta80  1  0.41023250  -0.03035542  0.75602572  1
  Ta  Ta81  1  0.89915065  0.51651910  0.12653147  1
  Ta  Ta82  1  0.48887432  0.69786642  0.63054275  1
  Ta  Ta83  1  0.81443791  0.42572040  0.74856173  1
  Ta  Ta84  1  0.09377743  0.29813165  0.37191304  1
  Ta  Ta85  1  0.88633314  0.88907842  0.85848918  1
  Ta  Ta86  1  0.10584905  0.88760514  0.63290367  1
  Ta  Ta87  1  0.50546222  0.50373857  0.62540869  1
  Ta  Ta88  1  0.19944066  0.40290024  0.25416198  1
  Ta  Ta89  1  -0.00128480  0.19412499  -0.01293531  1
  Ta  Ta90  1  0.80386001  0.62311762  -0.00104845  1
  Ta  Ta91  1  0.90298835  0.90957537  0.37667623  1
  Ta  Ta92  1  -0.00725110  -0.00622345  0.50481820  1
  Ta  Ta93  1  0.09850721  0.69647946  0.63578875  1
  Ta  Ta94  1  0.50283924  0.50267892  0.11581517  1
  Ta  Ta95  1  0.20434081  0.18507511  0.01463939  1
  Ta  Ta96  1  0.40255912  0.21117341  0.49045931  1
  Ta  Ta97  1  0.60338152  0.20622264  0.23954826  1
  Ta  Ta98  1  0.40209512  0.40335651  -0.00079402  1
  Ta  Ta99  1  0.79677085  0.20457943  0.24087689  1
  Ta  Ta100  1  0.38726038  0.77949770  0.49219500  1
  Ta  Ta101  1  0.50795564  0.30267531  0.89510124  1
  Ta  Ta102  1  0.91316245  0.71050430  0.12071733  1
  Ta  Ta103  1  0.91153354  0.31834957  0.63831430  1
  Ta  Ta104  1  0.08253327  0.48983996  0.89062086  1
  Ta  Ta105  1  0.30350291  0.88720993  0.11387515  1
  Ta  Ta106  1  0.19936849  0.20964522  0.49105070  1
  Ta  Ta107  1  0.88192758  0.70462785  0.37388250  1
  Ta  Ta108  1  0.50750247  0.68889611  0.11129243  1
  Ta  Ta109  1  0.90834489  0.89982505  0.64130550  1
  Ta  Ta110  1  0.69179447  0.91333113  0.85991205  1
  Ta  Ta111  1  0.80896278  0.43014864  -0.00234753  1
  Ta  Ta112  1  0.80575770  0.00965529  0.75107190  1
  Ta  Ta113  1  0.68720735  0.69880337  0.64413883  1
  Ta  Ta114  1  0.29081788  0.69918063  0.88933678  1
  Ta  Ta115  1  0.70052309  0.50868225  0.63617321  1
  Ta  Ta116  1  0.22263665  0.00568562  0.75217474  1
  Ta  Ta117  1  0.29565894  0.30752223  0.37494757  1
  Ta  Ta118  1  0.48802705  0.30921942  0.62344214  1
  Ta  Ta119  1  0.29984539  0.50602349  0.37659649  1
  Ti  Ti120  1  0.69446795  0.71029982  0.11770169  1
  Ti  Ti121  1  0.21261762  0.58966930  0.23620095  1
  Ti  Ti122  1  0.30941058  0.89163839  0.62591244  1
  Ti  Ti123  1  0.59407664  0.60513166  0.49829556  1
  Ti  Ti124  1  -0.01768643  0.57940030  0.75632283  1
  Ti  Ti125  1  -0.00284313  0.78630535  0.75805641  1
  Ti  Ti126  1  0.90423452  0.30356737  0.36694406  1
  Ti  Ti127  1  0.81006126  0.21468516  0.75408616  1
  Ti  Ti128  1  0.70215097  0.32117495  0.63981393  1
  Ti  Ti129  1  0.40226570  0.39933212  0.49262257  1
  Ti  Ti130  1  0.30913804  0.90989803  0.89103101  1
  Ti  Ti131  1  0.20295979  0.59839118  0.01430033  1
  Ti  Ti132  1  0.39830392  0.59127920  0.24265144  1
  Ti  Ti133  1  0.80468811  0.20374887  -0.00929388  1
  Ti  Ti134  1  0.00870203  0.20520373  0.76419361  1
  Ti  Ti135  1  0.30875007  0.09301137  0.12055751  1
  Ti  Ti136  1  0.50725851  0.11218646  0.37079932  1
  Ti  Ti137  1  0.18509894  0.59135563  0.75786618  1
  Ti  Ti138  1  0.50220049  0.30125443  0.10875609  1
  Ti  Ti139  1  0.40472491  0.59223602  -0.00359903  1
  Ti  Ti140  1  0.50700416  0.68535042  0.88534949  1
  Ti  Ti141  1  0.12135278  0.70498912  0.37354626  1
  Ti  Ti142  1  0.60816179  0.79801487  -0.01181288  1
  Ti  Ti143  1  0.80832585  0.41149624  0.50638932  1
  Ti  Ti144  1  0.69858620  0.52195058  0.11748212  1
  Ti  Ti145  1  0.20714295  -0.00560213  0.01139280  1
  Ti  Ti146  1  0.70489385  0.51432605  0.37311572  1
  Ti  Ti147  1  -0.00242970  0.38763400  0.49304786  1
  Ti  Ti148  1  0.79601860  0.01545129  0.00031616  1
  Ti  Ti149  1  0.80103890  0.60983885  0.24944802  1
  Ti  Ti150  1  0.49840180  0.50193642  0.37783462  1
  Ti  Ti151  1  0.00282110  0.40156195  0.25356155  1
  Ti  Ti152  1  0.58742018  0.59003905  0.75281466  1
  Ti  Ti153  1  0.20145272  0.40002202  0.49549703  1
  Ti  Ti154  1  0.40565519  0.59701558  0.49718293  1
  Ti  Ti155  1  0.89783315  0.49746346  0.37171978  1
  Ti  Ti156  1  0.60710112  0.19867242  0.00296697  1
  Ti  Ti157  1  0.60064737  0.42127655  -0.00193420  1
  Ti  Ti158  1  0.10648847  0.49490712  0.37296754  1
  Ti  Ti159  1  0.50270013  0.10581799  0.11743042  1
  Mo  Mo160  1  0.30981772  0.68525133  0.11020952  1
  Mo  Mo161  1  -0.00032369  0.20806982  0.49681062  1
  Mo  Mo162  1  0.49009222  0.68338667  0.37838147  1
  Mo  Mo163  1  0.00664524  0.40605080  0.75236319  1
  Mo  Mo164  1  -0.00635752  0.39887608  0.00416495  1
  Mo  Mo165  1  0.29996986  0.08473251  0.88838919  1
  Mo  Mo166  1  0.20146191  0.78914538  0.51078105  1
  Mo  Mo167  1  0.89576761  0.90294216  0.12151388  1
  Mo  Mo168  1  0.89606262  0.10597632  0.86686741  1
  Mo  Mo169  1  0.89780528  0.51882203  0.87889594  1
  Mo  Mo170  1  0.47945088  0.87946133  0.62404127  1
  Mo  Mo171  1  0.79827001  0.80944752  0.73809903  1
  Mo  Mo172  1  0.09023850  0.89314866  0.37253046  1
  Mo  Mo173  1  0.89575399  0.70112140  0.86644155  1
  Mo  Mo174  1  0.30615141  0.30078981  0.60647541  1
  Mo  Mo175  1  0.10173614  0.09798637  0.11166057  1
  Mo  Mo176  1  0.59217896  0.00584187  0.75891491  1
  Mo  Mo177  1  0.09284136  0.68598040  0.11200945  1
  Mo  Mo178  1  0.60705166  0.60939419  -0.00105060  1
  Mo  Mo179  1  0.30887510  0.50319424  0.11728499  1
  Mo  Mo180  1  0.39047955  0.79119405  0.77577242  1
  Mo  Mo181  1  0.20434033  0.78746385  0.01090871  1
  Mo  Mo182  1  0.69943909  0.69724061  0.37607906  1
  Mo  Mo183  1  0.89475422  0.49380516  0.61776778  1
  Mo  Mo184  1  0.20249334  0.39802660  0.00173225  1
  Mo  Mo185  1  -0.00485958  0.20998425  0.25224229  1
  Mo  Mo186  1  0.39809709  -0.00117411  0.01624838  1
  Mo  Mo187  1  0.60043472  0.79136427  0.24291031  1
  Mo  Mo188  1  0.70246669  0.11600583  0.11562387  1
  Mo  Mo189  1  0.30022795  0.67974945  0.36844278  1
  Mo  Mo190  1  0.69981532  0.90194952  0.11687178  1
  Mo  Mo191  1  0.41004771  0.19654146  0.01349784  1
  Mo  Mo192  1  0.49832774  0.30074429  0.37767186  1
  Mo  Mo193  1  0.50212005  0.89685814  0.89022643  1
  Mo  Mo194  1  0.50222860  0.49753176  0.88697339  1
  Mo  Mo195  1  -0.01906597  0.78370034  -0.01235405  1
  Mo  Mo196  1  0.20220499  0.19064426  0.74930540  1
  Mo  Mo197  1  0.79653156  0.60673438  0.74447323  1
  Mo  Mo198  1  -0.01819725  0.58892195  0.00308176  1
  Mo  Mo199  1  0.60228553  0.40497340  0.74649076  1
