# generated using pymatgen
data_HfZrTaTiMo
_symmetry_space_group_name_H-M   'P 1'
_cell_length_a   15.20778617
_cell_length_b   15.22671484
_cell_length_c   16.81302852
_cell_angle_alpha   89.96749625
_cell_angle_beta   90.00803777
_cell_angle_gamma   90.00115980
_symmetry_Int_Tables_number   1
_chemical_formula_structural   HfZrTaTiMo
_chemical_formula_sum   'Hf40 Zr40 Ta40 Ti40 Mo40'
_cell_volume   3893.30194922
_cell_formula_units_Z   40
loop_
 _symmetry_equiv_pos_site_id
 _symmetry_equiv_pos_as_xyz
  1  'x, y, z'
loop_
 _atom_site_type_symbol
 _atom_site_label
 _atom_site_symmetry_multiplicity
 _atom_site_fract_x
 _atom_site_fract_y
 _atom_site_fract_z
 _atom_site_occupancy
  Hf  Hf0  1  0.29330595  0.70411388  0.61317819  1
  Hf  Hf1  1  0.80337165  0.00129807  0.74408743  1
  Hf  Hf2  1  0.20468560  0.79312741  -0.00459489  1
  Hf  Hf3  1  0.61017045  0.60250007  0.25495782  1
  Hf  Hf4  1  0.58344511  0.80527352  0.48921366  1
  Hf  Hf5  1  0.60807360  0.20594613  -0.00199984  1
  Hf  Hf6  1  0.09510415  0.70265846  0.12452439  1
  Hf  Hf7  1  0.49483888  0.10323639  0.87752383  1
  Hf  Hf8  1  0.00051883  0.19929966  0.74432975  1
  Hf  Hf9  1  0.79822850  0.20429482  0.73988590  1
  Hf  Hf10  1  0.89744574  0.11028027  0.87788912  1
  Hf  Hf11  1  0.30738049  0.48986474  0.37173878  1
  Hf  Hf12  1  0.20137283  0.79776548  0.26465135  1
  Hf  Hf13  1  0.09517180  0.50356475  0.86614602  1
  Hf  Hf14  1  0.39906828  0.80133431  -0.00371078  1
  Hf  Hf15  1  -0.00536760  0.40433386  0.00515136  1
  Hf  Hf16  1  0.31280451  0.90355144  0.13414603  1
  Hf  Hf17  1  0.88511577  0.49722809  0.87373099  1
  Hf  Hf18  1  0.90482941  0.88073093  0.12520437  1
  Hf  Hf19  1  0.10368764  0.10038716  0.87382190  1
  Hf  Hf20  1  0.90975661  0.69953088  0.61265569  1
  Hf  Hf21  1  0.49430012  0.30629214  0.12669627  1
  Hf  Hf22  1  0.48567351  0.69099411  0.86537801  1
  Hf  Hf23  1  0.80112990  0.79744412  0.74971458  1
  Hf  Hf24  1  0.88869699  0.29066826  0.12793605  1
  Hf  Hf25  1  0.80277795  0.40248130  0.73546166  1
  Hf  Hf26  1  0.40837972  0.60388122  0.25351005  1
  Hf  Hf27  1  0.32087129  0.10733046  0.38392798  1
  Hf  Hf28  1  0.60295046  0.00269500  0.25544146  1
  Hf  Hf29  1  0.10784563  0.69252623  0.87051455  1
  Hf  Hf30  1  0.89901553  0.89573779  0.87793452  1
  Hf  Hf31  1  -0.00973362  0.59505633  0.24214371  1
  Hf  Hf32  1  0.10449036  0.89879762  0.12729427  1
  Hf  Hf33  1  -0.00637610  0.60247522  0.00953857  1
  Hf  Hf34  1  0.69983033  0.50021029  0.39605953  1
  Hf  Hf35  1  0.09818625  0.89475820  0.87684452  1
  Hf  Hf36  1  0.60513817  -0.00218466  0.75598680  1
  Hf  Hf37  1  0.00491205  -0.00103371  0.00993693  1
  Hf  Hf38  1  0.48746470  0.89767211  0.86844772  1
  Hf  Hf39  1  0.50298603  0.89541963  0.12455201  1
  Zr  Zr40  1  0.10036075  0.07804638  0.38791258  1
  Zr  Zr41  1  0.49730473  0.30229622  0.86630609  1
  Zr  Zr42  1  0.21766123  0.21343885  -0.00346153  1
  Zr  Zr43  1  0.69276163  0.69215032  0.61504700  1
  Zr  Zr44  1  0.61803342  0.41181280  -0.01522371  1
  Zr  Zr45  1  0.49091716  0.89252891  0.62928859  1
  Zr  Zr46  1  0.79845826  -0.00195526  0.00492293  1
  Zr  Zr47  1  0.19381954  -0.00109741  0.74522841  1
  Zr  Zr48  1  0.89401710  0.09300819  0.37610582  1
  Zr  Zr49  1  0.20647693  0.00636825  0.25178679  1
  Zr  Zr50  1  0.30308753  0.09277717  0.61309527  1
  Zr  Zr51  1  0.08829726  0.50338461  0.37945538  1
  Zr  Zr52  1  0.70931968  0.90409695  0.37664118  1
  Zr  Zr53  1  0.20634486  0.20970321  0.48856270  1
  Zr  Zr54  1  0.39495649  0.39933416  -0.00799524  1
  Zr  Zr55  1  0.48745818  0.09893253  0.11302093  1
  Zr  Zr56  1  -0.00131687  0.20200305  0.00196870  1
  Zr  Zr57  1  0.69607867  0.89879172  0.61959156  1
  Zr  Zr58  1  0.91734708  0.89696934  0.38576065  1
  Zr  Zr59  1  0.61056887  0.40034126  0.73700598  1
  Zr  Zr60  1  0.70450719  0.87768142  0.13169041  1
  Zr  Zr61  1  0.48546370  0.29914389  0.37322070  1
  Zr  Zr62  1  0.70065053  0.67454814  0.86338041  1
  Zr  Zr63  1  0.60360810  -0.01028375  -0.00660346  1
  Zr  Zr64  1  0.17200265  0.79658446  0.48314948  1
  Zr  Zr65  1  0.59740197  0.79229051  0.26681446  1
  Zr  Zr66  1  0.59821040  0.38296288  0.51987974  1
  Zr  Zr67  1  0.29884695  0.52024643  0.86859858  1
  Zr  Zr68  1  0.70018907  0.31596052  0.13056358  1
  Zr  Zr69  1  0.19273051  0.40080211  0.50515122  1
  Zr  Zr70  1  0.78516897  0.20821014  0.49507742  1
  Zr  Zr71  1  0.10006086  0.30760447  0.86511042  1
  Zr  Zr72  1  0.21973537  0.00376125  0.00162497  1
  Zr  Zr73  1  0.59068253  0.20054690  0.25181052  1
  Zr  Zr74  1  0.30564363  0.29904145  0.14551168  1
  Zr  Zr75  1  0.79669775  0.20637572  0.26852123  1
  Zr  Zr76  1  0.10146124  0.30485563  0.13366026  1
  Zr  Zr77  1  -0.00176280  0.21859799  0.48545075  1
  Zr  Zr78  1  0.29993078  0.29514972  0.63476970  1
  Zr  Zr79  1  0.30143862  0.49840847  0.13446837  1
  Ta  Ta80  1  0.39745691  0.40170400  0.51890372  1
  Ta  Ta81  1  0.30712376  0.70396083  0.13329614  1
  Ta  Ta82  1  0.59520274  0.60332298  0.00297670  1
  Ta  Ta83  1  0.09705975  0.09809517  0.61034837  1
  Ta  Ta84  1  0.50474649  0.50767691  0.86561715  1
  Ta  Ta85  1  0.30056550  0.90296349  0.38905701  1
  Ta  Ta86  1  0.50444060  0.09975619  0.62718901  1
  Ta  Ta87  1  0.80630849  0.39813661  0.50613109  1
  Ta  Ta88  1  0.50687587  0.70046578  0.12314374  1
  Ta  Ta89  1  0.40755712  0.41655214  0.73082256  1
  Ta  Ta90  1  0.50584917  0.50165924  0.12553276  1
  Ta  Ta91  1  0.20296250  0.41703334  0.73536467  1
  Ta  Ta92  1  -0.00083633  0.79207072  0.25952555  1
  Ta  Ta93  1  0.29952501  0.69230132  0.38273233  1
  Ta  Ta94  1  0.80499580  0.77773507  0.26254300  1
  Ta  Ta95  1  0.09971686  0.89483299  0.62098485  1
  Ta  Ta96  1  0.60529563  0.20182686  0.74495643  1
  Ta  Ta97  1  0.00791590  0.80106327  0.74396633  1
  Ta  Ta98  1  0.21749666  0.79753371  0.75233173  1
  Ta  Ta99  1  -0.01214293  0.39798673  0.25144693  1
  Ta  Ta100  1  0.71034294  0.10544593  0.12570644  1
  Ta  Ta101  1  0.90896319  0.68761940  0.39304578  1
  Ta  Ta102  1  0.70293904  0.10603883  0.87503576  1
  Ta  Ta103  1  0.00437236  0.20151225  0.26339850  1
  Ta  Ta104  1  0.59756875  0.79281620  0.75663028  1
  Ta  Ta105  1  0.19735878  0.59863344  0.49960162  1
  Ta  Ta106  1  0.60798996  0.79022909  -0.01277435  1
  Ta  Ta107  1  0.19610480  0.60172056  0.24971568  1
  Ta  Ta108  1  0.80017312  0.78177323  -0.00899787  1
  Ta  Ta109  1  0.30849170  0.10441496  0.86752763  1
  Ta  Ta110  1  0.50207842  0.50104264  0.38979911  1
  Ta  Ta111  1  0.90939699  0.69559204  0.87188915  1
  Ta  Ta112  1  0.20076197  0.20660032  0.27190415  1
  Ta  Ta113  1  0.79904032  0.00348999  0.50737060  1
  Ta  Ta114  1  0.29605907  0.89482918  0.60654471  1
  Ta  Ta115  1  0.59651723  0.01062170  0.49447086  1
  Ta  Ta116  1  0.19473989  0.41272448  0.00212534  1
  Ta  Ta117  1  0.90628803  0.90211957  0.61575821  1
  Ta  Ta118  1  0.38943211  -0.00756049  0.74660245  1
  Ta  Ta119  1  0.90630152  0.30234409  0.61875148  1
  Ti  Ti120  1  0.90519708  0.10058345  0.61268695  1
  Ti  Ti121  1  0.80047541  0.59501058  0.25835330  1
  Ti  Ti122  1  0.79771707  0.59095739  0.73581912  1
  Ti  Ti123  1  0.90258323  0.09855142  0.13363984  1
  Ti  Ti124  1  0.39856608  0.60340859  0.00562005  1
  Ti  Ti125  1  0.40519131  0.19887217  0.74257643  1
  Ti  Ti126  1  0.49436475  0.69322172  0.38763798  1
  Ti  Ti127  1  0.41973506  0.20536525  0.50915411  1
  Ti  Ti128  1  0.10631789  0.10942080  0.13369375  1
  Ti  Ti129  1  0.41264456  -0.00974628  0.49524720  1
  Ti  Ti130  1  0.20014021  0.19969747  0.74697849  1
  Ti  Ti131  1  0.40112157  0.59615621  0.50656615  1
  Ti  Ti132  1  0.78732452  0.58492780  -0.00054201  1
  Ti  Ti133  1  0.49188990  0.70054466  0.62339809  1
  Ti  Ti134  1  0.90011105  0.49984233  0.39384481  1
  Ti  Ti135  1  0.70555564  0.69094499  0.39584659  1
  Ti  Ti136  1  0.87742598  0.69218138  0.12404350  1
  Ti  Ti137  1  0.80216332  0.80054050  0.49852536  1
  Ti  Ti138  1  0.69622412  0.10450056  0.61835310  1
  Ti  Ti139  1  -0.00221831  0.40430363  0.74094375  1
  Ti  Ti140  1  0.59233363  0.58787149  0.73199168  1
  Ti  Ti141  1  0.79574938  0.40619241  0.26790260  1
  Ti  Ti142  1  0.88653049  0.49013344  0.12607386  1
  Ti  Ti143  1  0.09674736  0.30353179  0.62855236  1
  Ti  Ti144  1  -0.00210365  0.00005957  0.74012104  1
  Ti  Ti145  1  0.90667379  0.50329292  0.60863273  1
  Ti  Ti146  1  0.69968909  0.50891843  0.12909342  1
  Ti  Ti147  1  0.68756315  0.10865180  0.38181066  1
  Ti  Ti148  1  0.38489634  0.60724605  0.73632725  1
  Ti  Ti149  1  0.59776092  0.40854879  0.26053013  1
  Ti  Ti150  1  0.20351834  0.59650055  0.01248565  1
  Ti  Ti151  1  0.00314118  -0.00284737  0.24523366  1
  Ti  Ti152  1  0.09886075  0.51485298  0.62391171  1
  Ti  Ti153  1  0.41034677  0.00352238  0.26350659  1
  Ti  Ti154  1  0.30114107  0.30746073  0.85597701  1
  Ti  Ti155  1  0.30493511  0.10892443  0.13286672  1
  Ti  Ti156  1  0.80445939  -0.00659569  0.24421530  1
  Ti  Ti157  1  0.19015713  0.40317371  0.25816443  1
  Ti  Ti158  1  0.40389452  0.80238020  0.26594206  1
  Ti  Ti159  1  -0.00293825  0.60103410  0.74247401  1
  Mo  Mo160  1  0.39222309  0.19275856  0.25304317  1
  Mo  Mo161  1  0.19206494  0.60522497  0.73770050  1
  Mo  Mo162  1  0.90004424  0.31957784  0.37374768  1
  Mo  Mo163  1  0.59328424  0.19366893  0.50368388  1
  Mo  Mo164  1  0.79588135  0.20243397  -0.00041071  1
  Mo  Mo165  1  0.69541685  0.49964549  0.86589361  1
  Mo  Mo166  1  0.70360283  0.68865330  0.12161919  1
  Mo  Mo167  1  0.10117013  0.70289399  0.63534489  1
  Mo  Mo168  1  0.41381818  0.40711332  0.25380646  1
  Mo  Mo169  1  0.09705131  0.89999385  0.36699552  1
  Mo  Mo170  1  0.09372529  0.69420173  0.36593975  1
  Mo  Mo171  1  0.49929989  0.51184275  0.61909590  1
  Mo  Mo172  1  0.49162553  0.90513300  0.37395788  1
  Mo  Mo173  1  0.39308263  0.00448323  -0.00411986  1
  Mo  Mo174  1  0.70934627  0.50385027  0.60835219  1
  Mo  Mo175  1  0.50231512  0.09715922  0.38226249  1
  Mo  Mo176  1  0.49807545  0.29188915  0.63570318  1
  Mo  Mo177  1  0.39096329  0.19920813  -0.00721059  1
  Mo  Mo178  1  0.72227560  0.29538477  0.87486111  1
  Mo  Mo179  1  0.01325926  0.60361076  0.50477343  1
  Mo  Mo180  1  0.69990898  0.89033224  0.87245828  1
  Mo  Mo181  1  0.80349627  0.40181298  0.00049278  1
  Mo  Mo182  1  0.89135957  0.30317040  0.87420601  1
  Mo  Mo183  1  0.09547223  0.30729424  0.36404909  1
  Mo  Mo184  1  0.20501390  -0.00408071  0.50296582  1
  Mo  Mo185  1  0.80204584  0.59908536  0.50270698  1
  Mo  Mo186  1  -0.00319173  0.79899394  0.50228361  1
  Mo  Mo187  1  0.39665579  0.79813866  0.74520985  1
  Mo  Mo188  1  0.39226779  0.79398468  0.48849338  1
  Mo  Mo189  1  0.69589979  0.31038274  0.37286048  1
  Mo  Mo190  1  0.58901019  0.59846441  0.50535314  1
  Mo  Mo191  1  0.29899323  0.90211967  0.86930918  1
  Mo  Mo192  1  0.70500821  0.29346919  0.62379394  1
  Mo  Mo193  1  -0.00963528  0.79107285  -0.00364633  1
  Mo  Mo194  1  0.29836143  0.50696900  0.62195945  1
  Mo  Mo195  1  0.30123284  0.30917293  0.36861897  1
  Mo  Mo196  1  0.10080816  0.49951150  0.13092508  1
  Mo  Mo197  1  0.29994480  0.70101852  0.87204754  1
  Mo  Mo198  1  0.00319239  -0.00298714  0.51339801  1
  Mo  Mo199  1  0.00053946  0.40556360  0.51157925  1
