# generated using pymatgen
data_HfZrTaTiMo
_symmetry_space_group_name_H-M   'P 1'
_cell_length_a   15.21426841
_cell_length_b   15.21376054
_cell_length_c   16.81111582
_cell_angle_alpha   90.06265098
_cell_angle_beta   90.04871110
_cell_angle_gamma   89.98415095
_symmetry_Int_Tables_number   1
_chemical_formula_structural   HfZrTaTiMo
_chemical_formula_sum   'Hf40 Zr40 Ta40 Ti40 Mo40'
_cell_volume   3891.20182814
_cell_formula_units_Z   40
loop_
 _symmetry_equiv_pos_site_id
 _symmetry_equiv_pos_as_xyz
  1  'x, y, z'
loop_
 _atom_site_type_symbol
 _atom_site_label
 _atom_site_symmetry_multiplicity
 _atom_site_fract_x
 _atom_site_fract_y
 _atom_site_fract_z
 _atom_site_occupancy
  Hf  Hf0  1  0.80984792  0.80274005  -0.01298893  1
  Hf  Hf1  1  0.60525552  0.59475241  0.22853873  1
  Hf  Hf2  1  0.90175092  0.90150790  0.12912538  1
  Hf  Hf3  1  0.70731115  0.90033644  0.37891097  1
  Hf  Hf4  1  0.58435796  0.80925856  0.50771020  1
  Hf  Hf5  1  0.49801051  0.70000506  0.36832764  1
  Hf  Hf6  1  0.09719653  0.50382309  0.12843646  1
  Hf  Hf7  1  0.31472512  0.90464595  0.88302665  1
  Hf  Hf8  1  0.30051285  0.10919936  0.12347151  1
  Hf  Hf9  1  0.39160170  0.00589142  0.25678785  1
  Hf  Hf10  1  0.48910973  0.30757489  0.62068820  1
  Hf  Hf11  1  0.29593620  0.49414188  0.12943161  1
  Hf  Hf12  1  -0.02841376  0.58191270  0.74241019  1
  Hf  Hf13  1  0.10452640  0.09386046  0.60508706  1
  Hf  Hf14  1  0.08417681  0.28902119  0.61509147  1
  Hf  Hf15  1  0.32136624  0.89329541  0.61775960  1
  Hf  Hf16  1  0.49256734  0.29666689  0.13507551  1
  Hf  Hf17  1  0.49327207  0.31454298  0.86927303  1
  Hf  Hf18  1  0.30161846  0.10944964  0.87677382  1
  Hf  Hf19  1  0.69269083  0.09670561  0.85424839  1
  Hf  Hf20  1  0.59444228  0.19765394  0.50208220  1
  Hf  Hf21  1  0.89417065  0.69749549  0.62247878  1
  Hf  Hf22  1  0.20462579  0.19781184  0.27063393  1
  Hf  Hf23  1  0.41897148  -0.00273411  0.49757513  1
  Hf  Hf24  1  0.10310587  0.70245089  0.13386839  1
  Hf  Hf25  1  0.50119795  0.50482909  0.37045780  1
  Hf  Hf26  1  0.28390943  0.29981188  0.61399056  1
  Hf  Hf27  1  0.79523989  0.40296625  0.23747503  1
  Hf  Hf28  1  0.70236670  0.31095806  0.86390324  1
  Hf  Hf29  1  0.90210426  0.69601315  0.13046303  1
  Hf  Hf30  1  0.60174964  0.60139693  0.50413371  1
  Hf  Hf31  1  0.22164152  0.00156277  0.74635363  1
  Hf  Hf32  1  0.42478471  0.01140797  -0.00341073  1
  Hf  Hf33  1  0.90104691  0.69871115  0.38350344  1
  Hf  Hf34  1  0.09902866  0.70135632  0.64115406  1
  Hf  Hf35  1  0.31315216  0.48802218  0.88492232  1
  Hf  Hf36  1  0.50702448  0.10641434  0.13119542  1
  Hf  Hf37  1  0.61714974  0.00786833  0.51475636  1
  Hf  Hf38  1  0.49356102  0.71219304  0.63005158  1
  Hf  Hf39  1  0.00465532  0.19222023  -0.00412798  1
  Zr  Zr40  1  0.29718139  0.90468924  0.10878636  1
  Zr  Zr41  1  0.19808418  0.59635542  0.50263829  1
  Zr  Zr42  1  0.19165200  0.60785640  -0.00456744  1
  Zr  Zr43  1  0.40442000  0.80039803  0.23105621  1
  Zr  Zr44  1  0.42034941  0.78978545  0.00134958  1
  Zr  Zr45  1  0.00029093  0.38956934  0.00842460  1
  Zr  Zr46  1  0.28718992  0.49918751  0.35762187  1
  Zr  Zr47  1  0.50340151  0.31012367  0.37615406  1
  Zr  Zr48  1  0.30029010  0.70544915  0.87580357  1
  Zr  Zr49  1  0.09456080  0.10357510  0.13646089  1
  Zr  Zr50  1  0.21225246  0.58066516  0.75021504  1
  Zr  Zr51  1  0.89867848  0.49271900  0.38632788  1
  Zr  Zr52  1  0.89550861  0.10666392  0.86055763  1
  Zr  Zr53  1  0.01196497  0.00580981  0.75278035  1
  Zr  Zr54  1  0.49980567  0.89950773  0.36869982  1
  Zr  Zr55  1  0.09786655  0.90293442  0.12384784  1
  Zr  Zr56  1  -0.01185538  -0.00933341  -0.01833801  1
  Zr  Zr57  1  0.80011888  0.20162836  -0.00229611  1
  Zr  Zr58  1  0.78892304  0.79809458  0.50987846  1
  Zr  Zr59  1  0.79319741  0.19543932  0.26212270  1
  Zr  Zr60  1  0.09845055  0.48705015  0.62939921  1
  Zr  Zr61  1  0.42354808  0.59536402  0.75911883  1
  Zr  Zr62  1  0.59588146  0.19780029  -0.00870240  1
  Zr  Zr63  1  0.61365501  0.79717069  0.22938777  1
  Zr  Zr64  1  0.20283966  0.80567521  0.25877755  1
  Zr  Zr65  1  0.09337456  0.48501241  0.87616816  1
  Zr  Zr66  1  0.61570227  0.81284664  -0.00415178  1
  Zr  Zr67  1  0.19831888  0.21351227  -0.00462083  1
  Zr  Zr68  1  0.08764227  0.31241788  0.36629456  1
  Zr  Zr69  1  0.90681523  0.91211455  0.39702367  1
  Zr  Zr70  1  0.11288018  0.89157907  0.62218921  1
  Zr  Zr71  1  0.78574665  0.20333436  0.49721077  1
  Zr  Zr72  1  0.00746103  0.78047597  -0.01228725  1
  Zr  Zr73  1  0.11487387  0.88493816  0.86271177  1
  Zr  Zr74  1  0.70363071  0.68727112  0.37164339  1
  Zr  Zr75  1  0.67859500  0.51099878  0.88441562  1
  Zr  Zr76  1  0.60708852  0.01152187  0.25889379  1
  Zr  Zr77  1  0.08691025  0.68975855  0.85003272  1
  Zr  Zr78  1  0.37732063  0.20799801  0.74552715  1
  Zr  Zr79  1  0.88771743  0.50284288  0.88790120  1
  Ta  Ta80  1  0.80521170  0.00092393  0.25747104  1
  Ta  Ta81  1  0.90755946  0.11438753  0.62995876  1
  Ta  Ta82  1  0.39200202  0.40796251  0.49505811  1
  Ta  Ta83  1  0.39410219  0.60686787  0.50162236  1
  Ta  Ta84  1  0.69678610  0.89355471  0.64371352  1
  Ta  Ta85  1  -0.01553791  0.20010330  0.48927248  1
  Ta  Ta86  1  0.90618216  0.28794290  0.13461568  1
  Ta  Ta87  1  -0.00041872  0.80553009  0.26521428  1
  Ta  Ta88  1  0.89396477  0.09375220  0.12708666  1
  Ta  Ta89  1  0.19170909  0.00757567  -0.00933886  1
  Ta  Ta90  1  0.39604538  0.19976855  0.49059232  1
  Ta  Ta91  1  0.49456417  0.09423076  0.63951194  1
  Ta  Ta92  1  0.80591336  0.00043328  0.73363646  1
  Ta  Ta93  1  0.50000562  0.10060433  0.85167683  1
  Ta  Ta94  1  0.40283991  0.59972686  0.23184919  1
  Ta  Ta95  1  0.19776459  0.20246498  0.48125838  1
  Ta  Ta96  1  0.19066940  0.40078531  0.48915001  1
  Ta  Ta97  1  0.59630518  0.61413035  0.01812140  1
  Ta  Ta98  1  0.60349429  0.39826864  0.24060621  1
  Ta  Ta99  1  0.30553530  0.69642377  0.36691496  1
  Ta  Ta100  1  0.61224541  0.40319749  0.50669798  1
  Ta  Ta101  1  0.10438307  0.30137165  0.14552943  1
  Ta  Ta102  1  -0.00950899  0.37987530  0.74827346  1
  Ta  Ta103  1  0.78671096  -0.00281573  -0.00982261  1
  Ta  Ta104  1  0.30017335  0.70021183  0.63472194  1
  Ta  Ta105  1  0.90926421  0.90035908  0.62344574  1
  Ta  Ta106  1  0.08721685  0.09186540  0.38695280  1
  Ta  Ta107  1  0.59809380  0.20898868  0.73894989  1
  Ta  Ta108  1  0.21060953  0.78811781  0.49466280  1
  Ta  Ta109  1  0.80268820  0.41744245  0.73500510  1
  Ta  Ta110  1  0.00271356  0.59903987  0.26023026  1
  Ta  Ta111  1  0.79285753  0.39472326  0.01431608  1
  Ta  Ta112  1  0.10476898  0.90107997  0.39273666  1
  Ta  Ta113  1  0.20024169  0.37585039  0.75889142  1
  Ta  Ta114  1  0.70032332  0.30992830  0.63145366  1
  Ta  Ta115  1  -0.00338917  0.00649280  0.26178709  1
  Ta  Ta116  1  -0.00738059  0.40455368  0.24426882  1
  Ta  Ta117  1  0.59426469  0.41866708  0.74036001  1
  Ta  Ta118  1  0.70244487  0.09419837  0.12226801  1
  Ta  Ta119  1  0.29885234  0.09863864  0.60718680  1
  Ti  Ti120  1  0.90004286  0.30642114  0.87349640  1
  Ti  Ti121  1  0.51931823  0.91347769  0.86315548  1
  Ti  Ti122  1  0.40204561  0.19647018  0.27480447  1
  Ti  Ti123  1  0.80683393  0.01285866  0.52217238  1
  Ti  Ti124  1  0.39338553  0.40527727  0.74675154  1
  Ti  Ti125  1  0.71360304  0.89892087  0.85261949  1
  Ti  Ti126  1  0.29746492  0.69807475  0.11813619  1
  Ti  Ti127  1  0.79404597  0.58267737  0.51281338  1
  Ti  Ti128  1  0.90173625  0.50397215  0.11528977  1
  Ti  Ti129  1  0.49950348  0.50491570  0.61814421  1
  Ti  Ti130  1  0.41478495  0.59045201  0.01123000  1
  Ti  Ti131  1  0.10685652  0.69258216  0.37047679  1
  Ti  Ti132  1  0.29536322  0.29958170  0.13515101  1
  Ti  Ti133  1  0.69178533  0.69752506  0.63425767  1
  Ti  Ti134  1  0.17579211  0.19290886  0.75643459  1
  Ti  Ti135  1  0.71077291  0.90952727  0.12397782  1
  Ti  Ti136  1  0.51451362  0.91226242  0.12200298  1
  Ti  Ti137  1  0.39924110  0.21047398  -0.00488755  1
  Ti  Ti138  1  0.69529244  0.28961048  0.12532139  1
  Ti  Ti139  1  0.88894953  0.30320344  0.37294606  1
  Ti  Ti140  1  0.70076024  0.48568025  0.37417933  1
  Ti  Ti141  1  0.20261112  0.39458045  -0.00005264  1
  Ti  Ti142  1  0.40789186  0.80745775  0.76133640  1
  Ti  Ti143  1  0.00958852  0.79075650  0.50057401  1
  Ti  Ti144  1  0.19497885  -0.00140263  0.26382713  1
  Ti  Ti145  1  0.30178792  0.89238076  0.38840099  1
  Ti  Ti146  1  0.00462076  0.58942208  0.50168001  1
  Ti  Ti147  1  0.29601674  0.08798671  0.39049742  1
  Ti  Ti148  1  0.79604571  0.61184743  -0.00004833  1
  Ti  Ti149  1  0.60289293  0.78563554  0.76411292  1
  Ti  Ti150  1  0.40129234  0.39544388  0.00907736  1
  Ti  Ti151  1  0.77899597  0.60685667  0.75151795  1
  Ti  Ti152  1  0.80840557  0.21709846  0.73879620  1
  Ti  Ti153  1  0.39466272  0.39408475  0.25252613  1
  Ti  Ti154  1  0.70500559  0.50453968  0.11448728  1
  Ti  Ti155  1  0.59070997  0.40769578  0.01574869  1
  Ti  Ti156  1  0.80673819  0.80011055  0.25191358  1
  Ti  Ti157  1  0.30445425  0.49469705  0.62165289  1
  Ti  Ti158  1  0.60363346  0.20152105  0.27047731  1
  Ti  Ti159  1  0.80304165  0.59742015  0.24481864  1
  Mo  Mo160  1  0.49803917  0.49006981  0.12693865  1
  Mo  Mo161  1  0.20733997  0.80707091  0.00355688  1
  Mo  Mo162  1  -0.00583046  0.39725643  0.49966819  1
  Mo  Mo163  1  0.80225180  0.79644845  0.74569477  1
  Mo  Mo164  1  -0.01363926  0.60113995  -0.00000090  1
  Mo  Mo165  1  0.89642518  0.89374570  0.85452614  1
  Mo  Mo166  1  0.09200407  0.50779497  0.36973839  1
  Mo  Mo167  1  0.60011085  0.59921600  0.74466307  1
  Mo  Mo168  1  0.20076019  0.60626496  0.24684479  1
  Mo  Mo169  1  0.29959680  0.30074425  0.38144760  1
  Mo  Mo170  1  -0.00958098  0.19894717  0.25734287  1
  Mo  Mo171  1  0.69624268  0.50668611  0.62708256  1
  Mo  Mo172  1  0.39551417  0.78875236  0.49743622  1
  Mo  Mo173  1  0.09130278  0.29188703  0.87044944  1
  Mo  Mo174  1  0.40489897  0.00006940  0.74860497  1
  Mo  Mo175  1  0.29677255  0.30742345  0.87666232  1
  Mo  Mo176  1  0.71530131  0.70273973  0.12576220  1
  Mo  Mo177  1  0.89686815  0.49041996  0.60966941  1
  Mo  Mo178  1  -0.00336922  0.00193545  0.50934317  1
  Mo  Mo179  1  0.61191376  0.00347772  -0.00748846  1
  Mo  Mo180  1  0.79603633  0.39817440  0.50870194  1
  Mo  Mo181  1  0.51924716  0.68662210  0.88033117  1
  Mo  Mo182  1  0.69792064  0.31402069  0.37463113  1
  Mo  Mo183  1  0.50301153  0.49750101  0.88933864  1
  Mo  Mo184  1  0.49770423  0.10330010  0.37766920  1
  Mo  Mo185  1  -0.01681312  0.80039243  0.74838346  1
  Mo  Mo186  1  0.19666074  0.40014766  0.24729396  1
  Mo  Mo187  1  0.70351159  0.09621180  0.38142932  1
  Mo  Mo188  1  0.70014479  0.70245328  0.87189448  1
  Mo  Mo189  1  -0.00024503  0.20420665  0.75106227  1
  Mo  Mo190  1  0.60263376  -0.00201208  0.73905166  1
  Mo  Mo191  1  0.89548610  0.30306188  0.62029791  1
  Mo  Mo192  1  0.20737003  -0.00532708  0.49312253  1
  Mo  Mo193  1  0.21647779  0.79578738  0.74369642  1
  Mo  Mo194  1  0.70357958  0.10669544  0.64323028  1
  Mo  Mo195  1  0.50635022  0.89954476  0.64162405  1
  Mo  Mo196  1  0.10550292  0.09554215  0.87392332  1
  Mo  Mo197  1  0.50046015  0.70052942  0.12260871  1
  Mo  Mo198  1  0.88221747  0.69783144  0.86406799  1
  Mo  Mo199  1  0.89840095  0.10245419  0.38087295  1
