# generated using pymatgen
data_HfZrTaTiMo
_symmetry_space_group_name_H-M   'P 1'
_cell_length_a   15.21756857
_cell_length_b   15.22480787
_cell_length_c   16.84147432
_cell_angle_alpha   89.92640172
_cell_angle_beta   89.98509090
_cell_angle_gamma   90.04849060
_symmetry_Int_Tables_number   1
_chemical_formula_structural   HfZrTaTiMo
_chemical_formula_sum   'Hf40 Zr40 Ta40 Ti40 Mo40'
_cell_volume   3901.90477869
_cell_formula_units_Z   40
loop_
 _symmetry_equiv_pos_site_id
 _symmetry_equiv_pos_as_xyz
  1  'x, y, z'
loop_
 _atom_site_type_symbol
 _atom_site_label
 _atom_site_symmetry_multiplicity
 _atom_site_fract_x
 _atom_site_fract_y
 _atom_site_fract_z
 _atom_site_occupancy
  Hf  Hf0  1  0.80683538  0.39578790  0.24312151  1
  Hf  Hf1  1  0.10869308  0.51188148  0.63559798  1
  Hf  Hf2  1  0.50521543  0.70661259  0.63080754  1
  Hf  Hf3  1  0.29051174  0.09865244  0.11714447  1
  Hf  Hf4  1  0.70782568  0.08778219  0.13429032  1
  Hf  Hf5  1  0.29175972  0.29644013  0.88336297  1
  Hf  Hf6  1  0.92300518  0.51980197  0.88414876  1
  Hf  Hf7  1  0.60871244  0.20013445  0.25996575  1
  Hf  Hf8  1  0.20519746  0.60473426  0.49600331  1
  Hf  Hf9  1  0.69700199  0.90272982  0.61545906  1
  Hf  Hf10  1  0.78829849  0.80625184  0.01150899  1
  Hf  Hf11  1  0.71294839  0.71026457  0.61214616  1
  Hf  Hf12  1  0.79672428  0.18116742  0.49029385  1
  Hf  Hf13  1  0.89247682  0.11315108  0.87611934  1
  Hf  Hf14  1  0.39195439  0.80438378  0.74843997  1
  Hf  Hf15  1  0.39735226  -0.01431314  0.00674236  1
  Hf  Hf16  1  0.70054895  0.69603361  0.13138366  1
  Hf  Hf17  1  0.80075674  0.81581853  0.25064854  1
  Hf  Hf18  1  0.40028943  -0.00217689  0.50167167  1
  Hf  Hf19  1  0.50710815  0.09597657  0.86331344  1
  Hf  Hf20  1  0.16726014  0.80494990  0.76655013  1
  Hf  Hf21  1  0.06828776  0.90702594  0.36186482  1
  Hf  Hf22  1  0.09868322  0.50792519  0.37459595  1
  Hf  Hf23  1  0.08175281  0.89807282  0.12896451  1
  Hf  Hf24  1  0.60215156  0.39574002  0.00226618  1
  Hf  Hf25  1  0.09770733  0.31497630  0.86840788  1
  Hf  Hf26  1  0.39938552  0.20079773  0.75555994  1
  Hf  Hf27  1  0.17816775  -0.00198455  0.50267875  1
  Hf  Hf28  1  0.49508790  0.90390948  0.86643503  1
  Hf  Hf29  1  0.30275638  0.09928899  0.63023913  1
  Hf  Hf30  1  0.60179695  0.40765227  0.24970230  1
  Hf  Hf31  1  0.79816721  0.37956257  0.72451838  1
  Hf  Hf32  1  0.90075378  0.31318019  0.86840920  1
  Hf  Hf33  1  0.19383032  0.78777025  -0.00041610  1
  Hf  Hf34  1  0.50390904  0.70016825  0.86811075  1
  Hf  Hf35  1  0.20135344  0.80730685  0.24604328  1
  Hf  Hf36  1  0.81762989  0.38539601  0.51367789  1
  Hf  Hf37  1  0.29240311  0.68763736  0.86732181  1
  Hf  Hf38  1  0.89968769  0.07824552  0.62247743  1
  Hf  Hf39  1  0.70338510  0.49631124  0.38019560  1
  Zr  Zr40  1  0.81565788  0.19469280  0.26336503  1
  Zr  Zr41  1  0.20374713  0.40166060  0.24063582  1
  Zr  Zr42  1  -0.00261646  0.20244644  0.50531640  1
  Zr  Zr43  1  0.59792783  0.00509662  0.49051276  1
  Zr  Zr44  1  0.40160389  0.39975130  0.24338111  1
  Zr  Zr45  1  0.39551401  0.19773971  0.25440292  1
  Zr  Zr46  1  0.29967484  0.49363342  0.85887479  1
  Zr  Zr47  1  0.28764081  0.68971933  0.63893651  1
  Zr  Zr48  1  0.69829252  0.49719544  0.61145752  1
  Zr  Zr49  1  0.40866816  0.19405256  -0.00776874  1
  Zr  Zr50  1  0.59538781  0.60570977  0.48858414  1
  Zr  Zr51  1  0.88523732  0.90490136  0.88496748  1
  Zr  Zr52  1  0.50517141  0.07957845  0.14042842  1
  Zr  Zr53  1  0.58795521  0.78840964  0.26367158  1
  Zr  Zr54  1  0.20023458  0.20965466  0.25453548  1
  Zr  Zr55  1  0.71901959  0.49636183  0.87630601  1
  Zr  Zr56  1  0.90646752  0.49974685  0.37581135  1
  Zr  Zr57  1  0.31090509  0.70684660  0.13316920  1
  Zr  Zr58  1  0.30945929  0.49113002  0.37079648  1
  Zr  Zr59  1  0.70549760  0.50671743  0.12384477  1
  Zr  Zr60  1  0.78929013  -0.00679926  0.74737205  1
  Zr  Zr61  1  0.49543444  0.30648851  0.38282005  1
  Zr  Zr62  1  0.40094098  0.79730351  0.49802486  1
  Zr  Zr63  1  -0.00135755  0.80245011  -0.01231247  1
  Zr  Zr64  1  0.29345025  0.30115558  0.10227539  1
  Zr  Zr65  1  0.28111566  0.89727902  0.62876563  1
  Zr  Zr66  1  0.50639576  0.29386282  0.12179779  1
  Zr  Zr67  1  0.82861803  0.59448342  0.73528100  1
  Zr  Zr68  1  0.18217357  0.79758022  0.49108937  1
  Zr  Zr69  1  0.81848241  0.39671469  0.01235882  1
  Zr  Zr70  1  0.70454534  0.28662652  0.87644405  1
  Zr  Zr71  1  0.50388779  0.49960931  0.86855657  1
  Zr  Zr72  1  0.00147580  0.61447168  0.50668908  1
  Zr  Zr73  1  0.61737719  0.60108344  0.74820163  1
  Zr  Zr74  1  0.18619039  0.01054208  0.24769138  1
  Zr  Zr75  1  0.00478240  -0.01621843  0.75617909  1
  Zr  Zr76  1  0.10249973  0.30892272  0.38480080  1
  Zr  Zr77  1  0.30005643  0.09796910  0.38117066  1
  Zr  Zr78  1  0.00545040  0.39879243  0.23231900  1
  Zr  Zr79  1  0.40085085  0.59222926  0.50115660  1
  Ta  Ta80  1  0.67984275  0.90286117  0.13330215  1
  Ta  Ta81  1  0.68636553  0.89725615  0.87876891  1
  Ta  Ta82  1  0.91342663  0.52187297  0.12338363  1
  Ta  Ta83  1  0.20485750  0.40319419  0.51038869  1
  Ta  Ta84  1  0.09870756  0.30576197  0.63026486  1
  Ta  Ta85  1  0.19778357  0.00473605  0.75544801  1
  Ta  Ta86  1  0.40492270  0.20087491  0.50547116  1
  Ta  Ta87  1  0.60739614  0.60642671  -0.00433634  1
  Ta  Ta88  1  0.00625597  0.19323525  0.24723940  1
  Ta  Ta89  1  0.40051730  0.39772976  0.51368267  1
  Ta  Ta90  1  0.79698771  0.79180653  0.75467145  1
  Ta  Ta91  1  0.50263394  0.51185108  0.11914781  1
  Ta  Ta92  1  0.01466096  0.41129377  0.01256138  1
  Ta  Ta93  1  0.61379863  0.18357768  0.00219491  1
  Ta  Ta94  1  0.30498863  0.70045918  0.36127375  1
  Ta  Ta95  1  0.69628111  0.10605661  0.62414440  1
  Ta  Ta96  1  0.70528691  0.29956433  0.38416988  1
  Ta  Ta97  1  -0.00543086  0.21503478  0.00003861  1
  Ta  Ta98  1  0.60934904  0.80889379  0.74907219  1
  Ta  Ta99  1  0.50673986  0.29432398  0.62412593  1
  Ta  Ta100  1  0.50336343  0.69257796  0.12401951  1
  Ta  Ta101  1  0.29073865  0.09211666  0.87751228  1
  Ta  Ta102  1  0.02853399  0.60811638  0.00816564  1
  Ta  Ta103  1  0.29201373  0.90197763  0.87385115  1
  Ta  Ta104  1  0.71611282  0.28473646  0.12046380  1
  Ta  Ta105  1  0.40124587  0.41062884  0.00023122  1
  Ta  Ta106  1  0.89869915  0.11207904  0.11559627  1
  Ta  Ta107  1  0.09998091  0.10048137  0.63096904  1
  Ta  Ta108  1  0.71196579  0.70134324  0.88257651  1
  Ta  Ta109  1  0.50586675  0.09968496  0.63636109  1
  Ta  Ta110  1  0.20540699  0.20418831  0.50787284  1
  Ta  Ta111  1  0.19029241  -0.00551067  0.00028055  1
  Ta  Ta112  1  -0.02258649  0.81998972  0.50379536  1
  Ta  Ta113  1  0.91381579  0.71211838  0.13225903  1
  Ta  Ta114  1  0.59960696  -0.01006228  0.00331888  1
  Ta  Ta115  1  0.30809580  0.51452868  0.12133537  1
  Ta  Ta116  1  0.91049295  0.71147731  0.36443433  1
  Ta  Ta117  1  0.70095102  0.08742993  0.87712539  1
  Ta  Ta118  1  0.29910881  0.30217447  0.62915945  1
  Ta  Ta119  1  0.60024086  0.38907163  0.74236726  1
  Ti  Ti120  1  0.80882653  0.60382082  0.25342184  1
  Ti  Ti121  1  0.19689284  0.42309812  0.00278267  1
  Ti  Ti122  1  0.11250084  0.51161308  0.85921565  1
  Ti  Ti123  1  -0.00943907  0.20462936  0.74206023  1
  Ti  Ti124  1  0.49747219  0.91268022  0.63839952  1
  Ti  Ti125  1  0.59889819  0.19860081  0.49508760  1
  Ti  Ti126  1  0.40560924  0.39333755  0.74593192  1
  Ti  Ti127  1  0.48501355  0.88223644  0.13520868  1
  Ti  Ti128  1  0.81219626  0.60496413  0.49943336  1
  Ti  Ti129  1  0.40127065  0.60340890  -0.00240836  1
  Ti  Ti130  1  0.90952508  0.30046335  0.37701154  1
  Ti  Ti131  1  0.88563048  0.92269367  0.12146282  1
  Ti  Ti132  1  0.49211762  0.90001089  0.36616300  1
  Ti  Ti133  1  0.39624090  0.79639190  -0.00284912  1
  Ti  Ti134  1  0.09037468  0.10369859  0.11541000  1
  Ti  Ti135  1  0.42742940  0.60314442  0.26024701  1
  Ti  Ti136  1  0.08470388  0.72031879  0.63175539  1
  Ti  Ti137  1  0.70928340  0.69999849  0.37307204  1
  Ti  Ti138  1  0.09241375  0.10533946  0.38092675  1
  Ti  Ti139  1  0.59555617  0.39606571  0.50277124  1
  Ti  Ti140  1  0.30346546  0.49623860  0.64512187  1
  Ti  Ti141  1  -0.00831929  0.41364887  0.73549375  1
  Ti  Ti142  1  0.19283530  0.20237907  0.74932853  1
  Ti  Ti143  1  0.58690401  0.79878532  0.00448737  1
  Ti  Ti144  1  0.91076055  0.07519640  0.37450187  1
  Ti  Ti145  1  0.80992358  -0.02721295  0.49315504  1
  Ti  Ti146  1  0.60336785  0.80612479  0.48008204  1
  Ti  Ti147  1  0.49888325  0.09411730  0.36633748  1
  Ti  Ti148  1  0.50423409  0.30090056  0.87513268  1
  Ti  Ti149  1  0.10217984  0.29308138  0.11305319  1
  Ti  Ti150  1  0.19756466  0.60089594  0.24572307  1
  Ti  Ti151  1  -0.02115826  0.78532734  0.76192522  1
  Ti  Ti152  1  0.29308110  0.89748880  0.37686431  1
  Ti  Ti153  1  0.61668453  0.20033463  0.74638047  1
  Ti  Ti154  1  0.70468271  0.07777390  0.36457767  1
  Ti  Ti155  1  -0.00496109  0.01046240  -0.00502864  1
  Ti  Ti156  1  0.09479666  0.70546222  0.35990462  1
  Ti  Ti157  1  0.49674866  0.50012971  0.63651999  1
  Ti  Ti158  1  0.38683169  -0.01938889  0.24709673  1
  Ti  Ti159  1  0.09967587  0.10959886  0.87873656  1
  Mo  Mo160  1  0.00844130  0.61088410  0.74647574  1
  Mo  Mo161  1  0.50688977  0.49830240  0.37827690  1
  Mo  Mo162  1  0.90101257  0.70357350  0.62130056  1
  Mo  Mo163  1  0.90441755  0.28235344  0.63059809  1
  Mo  Mo164  1  0.69040094  0.28500246  0.61058774  1
  Mo  Mo165  1  0.49596239  0.69923408  0.37778459  1
  Mo  Mo166  1  0.91162657  0.30067159  0.12455610  1
  Mo  Mo167  1  0.20007228  0.39086449  0.74234163  1
  Mo  Mo168  1  0.89278259  0.69601513  0.88469301  1
  Mo  Mo169  1  -0.00686015  0.00060990  0.50583872  1
  Mo  Mo170  1  0.60475139  0.59669121  0.26052953  1
  Mo  Mo171  1  0.20990821  0.59632165  0.00111620  1
  Mo  Mo172  1  0.69651019  0.89747936  0.37681456  1
  Mo  Mo173  1  0.59681990  0.00048359  0.74393766  1
  Mo  Mo174  1  0.91348958  0.49301271  0.61395328  1
  Mo  Mo175  1  0.08638861  0.68492823  0.87101183  1
  Mo  Mo176  1  0.79541864  0.78977003  0.48242751  1
  Mo  Mo177  1  0.79944231  0.00131179  0.25189534  1
  Mo  Mo178  1  0.80208875  0.19785884  0.00305501  1
  Mo  Mo179  1  -0.00427956  0.80534881  0.24283435  1
  Mo  Mo180  1  0.81894387  0.61518977  0.00565467  1
  Mo  Mo181  1  0.11324091  0.50876290  0.12515175  1
  Mo  Mo182  1  0.80114299  0.19261226  0.74142571  1
  Mo  Mo183  1  0.39525548  0.79913448  0.25871848  1
  Mo  Mo184  1  0.89028698  0.87648618  0.62891312  1
  Mo  Mo185  1  0.00803250  0.40369179  0.51582726  1
  Mo  Mo186  1  0.10351546  0.91597402  0.88541264  1
  Mo  Mo187  1  0.29977458  0.30069888  0.40120062  1
  Mo  Mo188  1  0.59726049  -0.01036497  0.26216388  1
  Mo  Mo189  1  0.40789453  0.59386906  0.74134949  1
  Mo  Mo190  1  0.19594701  0.60511252  0.74678257  1
  Mo  Mo191  1  0.00493995  0.60819402  0.24599237  1
  Mo  Mo192  1  0.29879231  0.90389139  0.12089058  1
  Mo  Mo193  1  0.78648424  0.00646482  0.00118776  1
  Mo  Mo194  1  0.18328776  0.19238778  -0.00831951  1
  Mo  Mo195  1  0.09978697  0.69328065  0.13524363  1
  Mo  Mo196  1  0.39076656  0.00265680  0.75171588  1
  Mo  Mo197  1  -0.02013578  0.01416183  0.23879618  1
  Mo  Mo198  1  0.07974602  0.90661157  0.62927766  1
  Mo  Mo199  1  0.88925902  0.90201062  0.36969795  1
