# generated using pymatgen
data_HfZrTaTiMo
_symmetry_space_group_name_H-M   'P 1'
_cell_length_a   15.21117437
_cell_length_b   15.20401486
_cell_length_c   16.86260707
_cell_angle_alpha   90.05275625
_cell_angle_beta   89.98246745
_cell_angle_gamma   89.88044613
_symmetry_Int_Tables_number   1
_chemical_formula_structural   HfZrTaTiMo
_chemical_formula_sum   'Hf40 Zr40 Ta40 Ti40 Mo40'
_cell_volume   3899.82034277
_cell_formula_units_Z   40
loop_
 _symmetry_equiv_pos_site_id
 _symmetry_equiv_pos_as_xyz
  1  'x, y, z'
loop_
 _atom_site_type_symbol
 _atom_site_label
 _atom_site_symmetry_multiplicity
 _atom_site_fract_x
 _atom_site_fract_y
 _atom_site_fract_z
 _atom_site_occupancy
  Hf  Hf0  1  0.30350148  0.30058080  0.12662383  1
  Hf  Hf1  1  0.39813282  0.40869990  0.49481851  1
  Hf  Hf2  1  0.80694991  0.80966646  -0.00011952  1
  Hf  Hf3  1  0.20327472  0.18913693  0.74315031  1
  Hf  Hf4  1  0.00316990  0.18914862  0.24789056  1
  Hf  Hf5  1  0.40075025  0.80169129  0.75816989  1
  Hf  Hf6  1  0.40502270  -0.01339798  0.26762549  1
  Hf  Hf7  1  0.49326512  0.09844067  0.61334124  1
  Hf  Hf8  1  0.89397291  0.69659886  0.37167343  1
  Hf  Hf9  1  0.49817618  0.52974219  0.37310451  1
  Hf  Hf10  1  0.18630761  0.80248300  0.50021709  1
  Hf  Hf11  1  0.20709816  -0.01144578  -0.01306066  1
  Hf  Hf12  1  0.40895509  0.39174057  -0.00565341  1
  Hf  Hf13  1  -0.01409443  0.19598205  -0.00028685  1
  Hf  Hf14  1  0.50706225  0.29213140  0.13927754  1
  Hf  Hf15  1  0.31020902  0.29394802  0.86659406  1
  Hf  Hf16  1  0.68898675  0.90875731  0.87422952  1
  Hf  Hf17  1  0.80260992  -0.00317563  0.26685550  1
  Hf  Hf18  1  0.50185115  0.69309061  0.10812378  1
  Hf  Hf19  1  0.09208448  0.50147674  0.37476859  1
  Hf  Hf20  1  0.50532719  0.09263592  0.13288655  1
  Hf  Hf21  1  0.49046915  0.89739628  0.12209912  1
  Hf  Hf22  1  0.50678795  0.70288260  0.87983862  1
  Hf  Hf23  1  0.81137779  -0.00146711  0.75739745  1
  Hf  Hf24  1  0.09202896  0.71126206  0.36805653  1
  Hf  Hf25  1  0.30035166  0.90423248  0.61935048  1
  Hf  Hf26  1  0.30196206  0.69439355  0.62694342  1
  Hf  Hf27  1  0.80066032  0.61597387  0.74796630  1
  Hf  Hf28  1  0.50806526  0.30440967  0.37014344  1
  Hf  Hf29  1  0.78031365  0.21881240  -0.00724498  1
  Hf  Hf30  1  0.81860586  -0.01755172  0.49369231  1
  Hf  Hf31  1  -0.01348495  0.81852915  0.76772434  1
  Hf  Hf32  1  -0.00734584  0.40931545  0.74693890  1
  Hf  Hf33  1  -0.01038326  0.59349593  0.23553350  1
  Hf  Hf34  1  0.91095350  0.30307145  0.37830436  1
  Hf  Hf35  1  0.11540231  0.29460411  0.37793177  1
  Hf  Hf36  1  0.91171606  0.08926289  0.62459996  1
  Hf  Hf37  1  0.30760360  0.09130569  0.12432255  1
  Hf  Hf38  1  0.20306037  0.40501379  0.74683468  1
  Hf  Hf39  1  0.90421371  0.51542053  0.62656877  1
  Zr  Zr40  1  0.29786121  0.70379904  0.10697781  1
  Zr  Zr41  1  0.30179375  0.89215108  0.38410357  1
  Zr  Zr42  1  0.51644402  0.28782313  0.86082299  1
  Zr  Zr43  1  0.70099450  0.50267078  0.37834872  1
  Zr  Zr44  1  0.20443320  -0.01053038  0.75554889  1
  Zr  Zr45  1  0.30036094  0.50146247  0.63021091  1
  Zr  Zr46  1  0.70433097  0.29655311  0.37912212  1
  Zr  Zr47  1  0.59689889  0.41143636  0.51093837  1
  Zr  Zr48  1  0.70984998  0.48947589  0.86756868  1
  Zr  Zr49  1  0.02275710  0.40528604  0.01136231  1
  Zr  Zr50  1  0.66914846  0.70076071  0.38118492  1
  Zr  Zr51  1  0.19296676  0.79374047  0.76760006  1
  Zr  Zr52  1  0.89896856  0.29484687  0.12824070  1
  Zr  Zr53  1  0.08695506  0.09657915  0.86822808  1
  Zr  Zr54  1  0.78053343  0.60900289  0.23745981  1
  Zr  Zr55  1  0.79040567  0.60565956  0.51073365  1
  Zr  Zr56  1  0.39741291  0.20449736  0.49073043  1
  Zr  Zr57  1  0.80335220  0.01576513  -0.01118558  1
  Zr  Zr58  1  0.61163834  0.79862350  0.73960658  1
  Zr  Zr59  1  0.79382823  0.19203837  0.26176526  1
  Zr  Zr60  1  0.19861410  0.20599582  0.00094921  1
  Zr  Zr61  1  0.69403494  0.91190810  0.12021829  1
  Zr  Zr62  1  0.40027048  0.58939237  -0.01852682  1
  Zr  Zr63  1  0.68863175  0.50553281  0.11909350  1
  Zr  Zr64  1  0.08797096  0.70465481  0.63051704  1
  Zr  Zr65  1  0.59363809  0.59934655  0.74675615  1
  Zr  Zr66  1  0.10113990  0.69435342  0.11238613  1
  Zr  Zr67  1  0.79625162  0.80420887  0.24790990  1
  Zr  Zr68  1  0.20309956  0.39265528  0.50764512  1
  Zr  Zr69  1  0.69455078  0.11094293  0.12781371  1
  Zr  Zr70  1  0.29191541  0.50079076  0.11921585  1
  Zr  Zr71  1  0.20071740  0.20131241  0.24514128  1
  Zr  Zr72  1  0.09113121  0.29049857  0.63214293  1
  Zr  Zr73  1  0.09676936  0.30637484  0.86697481  1
  Zr  Zr74  1  0.61075417  0.38208703  -0.00333216  1
  Zr  Zr75  1  0.20389621  0.79825236  0.25096812  1
  Zr  Zr76  1  0.88028880  0.29379992  0.62551868  1
  Zr  Zr77  1  0.58192053  0.79820333  0.25149285  1
  Zr  Zr78  1  0.81746552  0.41312430  0.24361713  1
  Zr  Zr79  1  -0.00112147  0.40574852  0.50884057  1
  Ta  Ta80  1  0.19854860  0.58965166  0.25208399  1
  Ta  Ta81  1  0.30704783  0.68884123  0.38093749  1
  Ta  Ta82  1  0.00929241  -0.01064649  0.24799773  1
  Ta  Ta83  1  0.39909080  -0.00245862  0.49467146  1
  Ta  Ta84  1  0.29958559  0.89768579  0.12223844  1
  Ta  Ta85  1  0.19821786  -0.00201145  0.24847450  1
  Ta  Ta86  1  0.29428953  0.49712810  0.37121432  1
  Ta  Ta87  1  0.88904267  0.30792253  0.86576442  1
  Ta  Ta88  1  0.40497805  0.19352773  0.26663023  1
  Ta  Ta89  1  0.60767102  0.39050993  0.73972604  1
  Ta  Ta90  1  0.02545884  0.39578700  0.23318535  1
  Ta  Ta91  1  -0.00337255  -0.00599629  -0.00465257  1
  Ta  Ta92  1  0.60369076  0.00316187  0.73063096  1
  Ta  Ta93  1  0.68809575  0.11527217  0.86866003  1
  Ta  Ta94  1  0.20454077  0.18883988  0.50946824  1
  Ta  Ta95  1  -0.01477623  0.81428427  0.50242543  1
  Ta  Ta96  1  0.69539292  0.09127677  0.40218533  1
  Ta  Ta97  1  0.80500163  0.60087605  0.00245085  1
  Ta  Ta98  1  0.09512552  0.08821151  0.11829627  1
  Ta  Ta99  1  0.10266262  0.08600521  0.37855801  1
  Ta  Ta100  1  0.39374965  0.40460845  0.25822985  1
  Ta  Ta101  1  0.39900123  0.61752794  0.24717834  1
  Ta  Ta102  1  0.39030767  0.81292539  -0.02014006  1
  Ta  Ta103  1  0.00009833  0.61655941  0.50171188  1
  Ta  Ta104  1  0.70259968  0.49467409  0.63196790  1
  Ta  Ta105  1  0.41711140  0.18838741  -0.00363713  1
  Ta  Ta106  1  0.39000247  0.59352679  0.76989789  1
  Ta  Ta107  1  0.71206686  0.10115903  0.60810771  1
  Ta  Ta108  1  0.50104680  0.89723533  0.61685260  1
  Ta  Ta109  1  0.91305870  0.90058020  0.12633918  1
  Ta  Ta110  1  0.60650608  0.19270868  0.72912555  1
  Ta  Ta111  1  0.89656968  0.70246217  0.88171048  1
  Ta  Ta112  1  0.50555281  0.08729417  0.86434757  1
  Ta  Ta113  1  0.10550110  0.89471697  0.11518984  1
  Ta  Ta114  1  0.00558059  0.18668962  0.49778924  1
  Ta  Ta115  1  0.60031696  0.41029258  0.25150642  1
  Ta  Ta116  1  0.70457395  0.70237087  0.88630497  1
  Ta  Ta117  1  0.31236312  0.29126138  0.63415768  1
  Ta  Ta118  1  0.19849982  0.59974427  0.49471105  1
  Ta  Ta119  1  0.81588866  0.41004390  0.00502722  1
  Ti  Ti120  1  0.19145434  0.59864571  0.76601342  1
  Ti  Ti121  1  0.51947991  0.89767400  0.39546717  1
  Ti  Ti122  1  0.89675388  0.09036066  0.12885235  1
  Ti  Ti123  1  0.60519089  0.80079939  0.51661974  1
  Ti  Ti124  1  0.92347298  0.89257099  0.36583699  1
  Ti  Ti125  1  0.49559196  0.49839455  0.13377222  1
  Ti  Ti126  1  -0.00202319  0.59684931  -0.00038947  1
  Ti  Ti127  1  0.28442675  0.69605822  0.88809333  1
  Ti  Ti128  1  0.90890649  0.09587271  0.38342126  1
  Ti  Ti129  1  0.60065930  0.58609195  -0.01494300  1
  Ti  Ti130  1  0.00498901  0.61203059  0.76318122  1
  Ti  Ti131  1  0.00716318  0.80381968  -0.01414564  1
  Ti  Ti132  1  0.10142258  0.09148496  0.62902846  1
  Ti  Ti133  1  0.07875809  0.90855422  0.62900533  1
  Ti  Ti134  1  0.40950187  0.78549159  0.50527781  1
  Ti  Ti135  1  0.41090251  -0.00443680  -0.01146955  1
  Ti  Ti136  1  0.10223225  0.51466375  0.62573037  1
  Ti  Ti137  1  0.40529747  0.18938345  0.74246757  1
  Ti  Ti138  1  0.90789432  0.50462511  0.87568418  1
  Ti  Ti139  1  0.90152750  0.70604039  0.11752946  1
  Ti  Ti140  1  0.28921955  0.48907614  0.87938028  1
  Ti  Ti141  1  0.31176820  0.09759797  0.87414225  1
  Ti  Ti142  1  0.69670737  0.30199984  0.14031147  1
  Ti  Ti143  1  0.60731147  0.20870778  0.51350119  1
  Ti  Ti144  1  0.79183801  0.20643476  0.75132906  1
  Ti  Ti145  1  0.51228749  0.09675007  0.38992175  1
  Ti  Ti146  1  0.79308687  0.79766171  0.49275272  1
  Ti  Ti147  1  0.57835283  0.61544080  0.52495349  1
  Ti  Ti148  1  0.19442472  0.00318268  0.50353427  1
  Ti  Ti149  1  0.79601155  0.39499858  0.50492012  1
  Ti  Ti150  1  0.29544417  0.10239855  0.37606313  1
  Ti  Ti151  1  0.40544171  -0.00162619  0.74742443  1
  Ti  Ti152  1  0.89951323  0.50174126  0.38276637  1
  Ti  Ti153  1  0.49762844  0.30764915  0.63109159  1
  Ti  Ti154  1  0.69183391  0.70615209  0.10823733  1
  Ti  Ti155  1  0.59328609  0.81534856  -0.00599185  1
  Ti  Ti156  1  0.88595832  0.72698188  0.62912804  1
  Ti  Ti157  1  0.48714293  0.50734776  0.63617934  1
  Ti  Ti158  1  0.71959901  0.89484590  0.62697234  1
  Ti  Ti159  1  0.60705187  0.00451766  0.26882465  1
  Mo  Mo160  1  0.09966780  0.90468367  0.37362293  1
  Mo  Mo161  1  0.80714409  0.19350218  0.49249637  1
  Mo  Mo162  1  0.00397405  0.00593021  0.75528561  1
  Mo  Mo163  1  0.50278013  0.90727579  0.86831729  1
  Mo  Mo164  1  0.49471658  0.48955974  0.85955322  1
  Mo  Mo165  1  0.20488845  0.40291966  0.25291435  1
  Mo  Mo166  1  0.90141802  0.89711844  0.62670857  1
  Mo  Mo167  1  0.58411446  0.60025580  0.24240329  1
  Mo  Mo168  1  0.29993897  0.09657552  0.61958472  1
  Mo  Mo169  1  0.59540925  0.19259569  0.26463859  1
  Mo  Mo170  1  0.09828714  0.50589287  0.87119384  1
  Mo  Mo171  1  0.09084818  0.69091978  0.88591780  1
  Mo  Mo172  1  0.58912890  0.01192380  -0.00682926  1
  Mo  Mo173  1  0.21081873  0.40009367  -0.00738826  1
  Mo  Mo174  1  0.30472901  0.29813917  0.36929591  1
  Mo  Mo175  1  0.40755610  0.40112612  0.75179726  1
  Mo  Mo176  1  0.30948055  0.90566243  0.87095133  1
  Mo  Mo177  1  0.60665648  -0.00769645  0.51748371  1
  Mo  Mo178  1  0.59264146  0.19440418  -0.00235260  1
  Mo  Mo179  1  0.79735655  0.80058232  0.76240434  1
  Mo  Mo180  1  0.89355429  0.11519819  0.86588970  1
  Mo  Mo181  1  -0.01597291  0.19329833  0.75372029  1
  Mo  Mo182  1  0.48425930  0.71482933  0.38136686  1
  Mo  Mo183  1  0.70014973  0.70385716  0.61960621  1
  Mo  Mo184  1  0.39423248  0.60054872  0.50324399  1
  Mo  Mo185  1  0.90184401  0.90949794  0.88347416  1
  Mo  Mo186  1  0.70658141  0.29717748  0.86440069  1
  Mo  Mo187  1  0.18495985  0.58309014  -0.01490918  1
  Mo  Mo188  1  0.19805248  0.79881827  -0.01448836  1
  Mo  Mo189  1  0.69690116  0.90054768  0.38464738  1
  Mo  Mo190  1  0.11026343  0.29279326  0.12415812  1
  Mo  Mo191  1  0.79791346  0.40612133  0.74558472  1
  Mo  Mo192  1  0.90618818  0.51060726  0.11649582  1
  Mo  Mo193  1  0.10841664  0.49814710  0.12696364  1
  Mo  Mo194  1  0.10056531  0.89661079  0.88683445  1
  Mo  Mo195  1  0.39486872  0.79877023  0.24829737  1
  Mo  Mo196  1  0.01496620  -0.00533532  0.49702512  1
  Mo  Mo197  1  0.69631162  0.29622514  0.62006077  1
  Mo  Mo198  1  -0.00137611  0.80297503  0.23881094  1
  Mo  Mo199  1  0.49043128  0.70081892  0.63107634  1
