# generated using pymatgen
data_HfZrTaTiMo
_symmetry_space_group_name_H-M   'P 1'
_cell_length_a   15.22215528
_cell_length_b   15.19904753
_cell_length_c   16.82706283
_cell_angle_alpha   90.01741486
_cell_angle_beta   90.01344868
_cell_angle_gamma   90.02814955
_symmetry_Int_Tables_number   1
_chemical_formula_structural   HfZrTaTiMo
_chemical_formula_sum   'Hf40 Zr40 Ta40 Ti40 Mo40'
_cell_volume   3893.14655612
_cell_formula_units_Z   40
loop_
 _symmetry_equiv_pos_site_id
 _symmetry_equiv_pos_as_xyz
  1  'x, y, z'
loop_
 _atom_site_type_symbol
 _atom_site_label
 _atom_site_symmetry_multiplicity
 _atom_site_fract_x
 _atom_site_fract_y
 _atom_site_fract_z
 _atom_site_occupancy
  Hf  Hf0  1  0.18650124  0.79977853  0.74629654  1
  Hf  Hf1  1  0.21218389  0.22339117  0.25905969  1
  Hf  Hf2  1  0.30920080  0.89417199  0.87303388  1
  Hf  Hf3  1  0.30505364  0.31327590  0.87949147  1
  Hf  Hf4  1  0.79868321  0.40131326  0.76380885  1
  Hf  Hf5  1  0.80597490  0.39206278  -0.01099000  1
  Hf  Hf6  1  0.09365589  0.68521023  0.88107213  1
  Hf  Hf7  1  0.19797582  0.38682367  0.48136900  1
  Hf  Hf8  1  0.68230511  0.69658993  0.12220823  1
  Hf  Hf9  1  0.59338089  0.00809572  0.50828703  1
  Hf  Hf10  1  0.91105352  0.68905909  0.12461362  1
  Hf  Hf11  1  0.59561662  0.60282048  0.75481884  1
  Hf  Hf12  1  0.60375891  0.80273359  0.76297868  1
  Hf  Hf13  1  0.12341878  0.09924783  0.60653802  1
  Hf  Hf14  1  0.29111526  0.51543836  0.12667285  1
  Hf  Hf15  1  0.89869956  0.09770787  0.14061893  1
  Hf  Hf16  1  0.09374490  0.30190888  0.61530575  1
  Hf  Hf17  1  0.21047831  0.60441147  0.73870709  1
  Hf  Hf18  1  0.78649463  0.58600551  0.00522435  1
  Hf  Hf19  1  0.90979455  0.27938282  0.86970086  1
  Hf  Hf20  1  0.50508504  0.10508619  0.36719765  1
  Hf  Hf21  1  0.09718796  0.10219185  0.13698897  1
  Hf  Hf22  1  0.49581398  0.50227054  0.61065526  1
  Hf  Hf23  1  0.59235793  0.60167794  0.25474919  1
  Hf  Hf24  1  0.09377325  0.89324548  0.13339120  1
  Hf  Hf25  1  0.00548690  0.37953603  0.00044841  1
  Hf  Hf26  1  0.10988962  0.09894419  0.37674055  1
  Hf  Hf27  1  0.00376646  0.18318225  0.74558965  1
  Hf  Hf28  1  0.49133691  0.90972717  0.36904417  1
  Hf  Hf29  1  0.19493885  0.00757415  0.76129555  1
  Hf  Hf30  1  0.30825735  0.10201666  0.12412916  1
  Hf  Hf31  1  0.59908065  0.40340201  0.76372576  1
  Hf  Hf32  1  0.90077200  0.90054750  0.13515567  1
  Hf  Hf33  1  0.70869305  0.89398812  0.62721679  1
  Hf  Hf34  1  0.60402732  0.00350900  0.75265781  1
  Hf  Hf35  1  0.21014773  -0.00690486  0.25720549  1
  Hf  Hf36  1  0.89805983  0.48928290  0.62387732  1
  Hf  Hf37  1  0.60799380  0.20679596  0.23833906  1
  Hf  Hf38  1  0.71506922  0.10637451  0.62282141  1
  Hf  Hf39  1  0.61563296  0.40961026  -0.00705665  1
  Zr  Zr40  1  0.40686523  0.01740922  0.74577212  1
  Zr  Zr41  1  0.70085546  0.11048926  0.37903357  1
  Zr  Zr42  1  0.79567489  0.38603735  0.48988623  1
  Zr  Zr43  1  0.39850241  0.80264817  0.00413975  1
  Zr  Zr44  1  0.30215507  0.53020307  0.88677136  1
  Zr  Zr45  1  -0.00026398  0.78373444  0.51754793  1
  Zr  Zr46  1  0.50873663  0.51472526  0.12117131  1
  Zr  Zr47  1  0.40060101  0.18072347  0.50849158  1
  Zr  Zr48  1  0.47983834  0.70020860  0.87982983  1
  Zr  Zr49  1  0.20415474  0.40220559  0.75071751  1
  Zr  Zr50  1  0.89655673  0.07571924  0.36179101  1
  Zr  Zr51  1  0.70235247  0.69994833  0.36898941  1
  Zr  Zr52  1  0.00040843  0.60277684  0.73581299  1
  Zr  Zr53  1  0.19880308  0.20011103  0.76444968  1
  Zr  Zr54  1  0.80023629  0.61616431  0.50661861  1
  Zr  Zr55  1  0.30259984  0.89695186  0.12885599  1
  Zr  Zr56  1  0.20074404  0.78578865  -0.00347113  1
  Zr  Zr57  1  0.49211483  0.31020358  0.62629526  1
  Zr  Zr58  1  0.39095141  0.78695102  0.74050640  1
  Zr  Zr59  1  0.69350334  0.50816284  0.61880771  1
  Zr  Zr60  1  0.18527358  0.21094148  -0.00377696  1
  Zr  Zr61  1  0.32357891  0.10496847  0.88945272  1
  Zr  Zr62  1  0.91138458  0.70986792  0.36377177  1
  Zr  Zr63  1  -0.00701980  -0.01512362  0.50108286  1
  Zr  Zr64  1  0.79950589  0.79846116  -0.00027885  1
  Zr  Zr65  1  0.80823884  0.19386754  0.01061582  1
  Zr  Zr66  1  0.39884156  0.40591247  0.01034666  1
  Zr  Zr67  1  0.79426932  0.80016570  0.24354790  1
  Zr  Zr68  1  0.50681717  0.69316311  0.61163240  1
  Zr  Zr69  1  0.89507492  0.47585712  0.13393952  1
  Zr  Zr70  1  0.89506099  0.50569302  0.36742889  1
  Zr  Zr71  1  -0.00386757  0.20519878  0.48640842  1
  Zr  Zr72  1  0.19546667  -0.00066459  -0.00712784  1
  Zr  Zr73  1  0.59318694  0.19630371  0.74635655  1
  Zr  Zr74  1  0.38898617  0.39383012  0.24535042  1
  Zr  Zr75  1  0.49739715  0.90226835  0.62213185  1
  Zr  Zr76  1  0.00817508  0.39705886  0.75612601  1
  Zr  Zr77  1  0.39352899  0.81170396  0.49362570  1
  Zr  Zr78  1  0.30281184  0.49080775  0.61208661  1
  Zr  Zr79  1  0.70693164  0.91224165  0.37224238  1
  Ta  Ta80  1  0.69567529  0.09852314  0.88363589  1
  Ta  Ta81  1  0.28800306  0.28351539  0.61785257  1
  Ta  Ta82  1  -0.00651920  0.39921585  0.48677257  1
  Ta  Ta83  1  0.31861332  0.09218580  0.36433873  1
  Ta  Ta84  1  0.40886887  0.20565291  0.01405863  1
  Ta  Ta85  1  0.28849247  0.91302328  0.62160335  1
  Ta  Ta86  1  0.49864649  0.70325056  0.37899301  1
  Ta  Ta87  1  0.50083264  0.29265509  0.88421023  1
  Ta  Ta88  1  0.09747478  0.50385374  0.37544435  1
  Ta  Ta89  1  0.19978794  0.78532975  0.25446994  1
  Ta  Ta90  1  0.50241838  0.29963974  0.37334793  1
  Ta  Ta91  1  0.61237227  0.79304674  0.49751640  1
  Ta  Ta92  1  0.71340069  0.31032836  0.12606958  1
  Ta  Ta93  1  0.90246377  0.89558912  0.87058189  1
  Ta  Ta94  1  0.08575099  0.88980087  0.36428930  1
  Ta  Ta95  1  0.51129058  0.30359109  0.11908507  1
  Ta  Ta96  1  0.09296233  0.50075183  0.12250912  1
  Ta  Ta97  1  0.39184525  0.61110589  0.26232132  1
  Ta  Ta98  1  0.00210091  -0.00880202  0.74770439  1
  Ta  Ta99  1  -0.00689777  0.00306799  -0.00154213  1
  Ta  Ta100  1  0.70433435  0.30454883  0.63044544  1
  Ta  Ta101  1  0.00000881  0.20885855  0.26263060  1
  Ta  Ta102  1  -0.00704408  0.79672618  0.74276104  1
  Ta  Ta103  1  0.19285197  0.80604213  0.49391394  1
  Ta  Ta104  1  -0.00150301  0.79863477  -0.00171661  1
  Ta  Ta105  1  0.29271665  0.70173659  0.37966802  1
  Ta  Ta106  1  0.69314505  0.91227984  0.12246616  1
  Ta  Ta107  1  0.39328003  0.59624085  0.48123093  1
  Ta  Ta108  1  0.10849508  0.68791267  0.12171801  1
  Ta  Ta109  1  0.50294647  0.50793268  0.88771090  1
  Ta  Ta110  1  0.68959305  0.49747024  0.37787821  1
  Ta  Ta111  1  0.60558775  0.21497713  0.50704130  1
  Ta  Ta112  1  0.88877171  0.28583219  0.63199467  1
  Ta  Ta113  1  0.29344972  0.70027270  0.60561238  1
  Ta  Ta114  1  0.50218509  0.90889951  0.12392476  1
  Ta  Ta115  1  0.49661284  0.49869656  0.37697175  1
  Ta  Ta116  1  0.89494470  0.08647250  0.87441267  1
  Ta  Ta117  1  0.80966513  0.81864411  0.49885782  1
  Ta  Ta118  1  0.60000019  0.80723881  -0.00391617  1
  Ta  Ta119  1  0.90770455  0.51107387  0.88004913  1
  Ti  Ti120  1  0.80405064  0.00344005  0.75551193  1
  Ti  Ti121  1  0.40290380  0.41653090  0.75724477  1
  Ti  Ti122  1  0.89866126  0.69723817  0.87937594  1
  Ti  Ti123  1  0.39728485  0.20782234  0.74310473  1
  Ti  Ti124  1  0.19260128  0.60254274  0.49719523  1
  Ti  Ti125  1  0.59750662  0.39879233  0.49227392  1
  Ti  Ti126  1  0.08819683  0.89862099  0.87553290  1
  Ti  Ti127  1  0.10219121  0.90034603  0.62365424  1
  Ti  Ti128  1  0.40965808  0.20006315  0.23557948  1
  Ti  Ti129  1  0.10090557  0.49345314  0.88840740  1
  Ti  Ti130  1  0.10161358  0.49928100  0.61162671  1
  Ti  Ti131  1  0.58827280  0.80536961  0.24651500  1
  Ti  Ti132  1  0.00058480  0.59583552  0.50794173  1
  Ti  Ti133  1  0.80442498  0.19882799  0.49240608  1
  Ti  Ti134  1  0.00677156  0.59726157  0.24812514  1
  Ti  Ti135  1  0.79743718  -0.00358605  0.00309623  1
  Ti  Ti136  1  0.90280144  0.09361779  0.62293234  1
  Ti  Ti137  1  0.39528624  0.38738954  0.48492084  1
  Ti  Ti138  1  0.78873354  0.58467684  0.23940311  1
  Ti  Ti139  1  0.89688870  0.90120262  0.63655255  1
  Ti  Ti140  1  0.70767485  0.90372672  0.87991380  1
  Ti  Ti141  1  0.00607108  0.39482619  0.26072682  1
  Ti  Ti142  1  0.39373879  0.80665985  0.25460067  1
  Ti  Ti143  1  0.69544531  0.69005324  0.88515046  1
  Ti  Ti144  1  0.79422271  0.38697996  0.26337144  1
  Ti  Ti145  1  0.50711691  0.92839379  0.89235974  1
  Ti  Ti146  1  0.79691667  0.60679364  0.75053722  1
  Ti  Ti147  1  0.19621589  0.59427178  0.25550816  1
  Ti  Ti148  1  0.09897627  0.69457336  0.37446558  1
  Ti  Ti149  1  0.20046875  0.40263924  0.00658198  1
  Ti  Ti150  1  0.29458436  0.49464346  0.36859439  1
  Ti  Ti151  1  0.22140265  -0.00274426  0.48531247  1
  Ti  Ti152  1  0.10171328  0.30731699  0.13643303  1
  Ti  Ti153  1  0.70019443  0.28339969  0.87421649  1
  Ti  Ti154  1  0.60289131  0.40102205  0.25179607  1
  Ti  Ti155  1  0.79951763  0.79338220  0.75641095  1
  Ti  Ti156  1  0.48294722  0.70705826  0.12595267  1
  Ti  Ti157  1  0.51682230  0.09685126  0.10992862  1
  Ti  Ti158  1  0.60425602  0.00619784  0.24143281  1
  Ti  Ti159  1  0.80038739  0.20463363  0.25019195  1
  Mo  Mo160  1  0.10181493  0.30169397  0.88114065  1
  Mo  Mo161  1  0.41454908  0.00546455  0.23858316  1
  Mo  Mo162  1  0.79926275  0.19139651  0.75238304  1
  Mo  Mo163  1  0.39436830  -0.00168561  0.50018459  1
  Mo  Mo164  1  0.88252618  0.70803494  0.63526407  1
  Mo  Mo165  1  0.91068763  0.29562318  0.14268268  1
  Mo  Mo166  1  0.01097621  0.78840850  0.24590886  1
  Mo  Mo167  1  0.19102042  0.41110436  0.25580919  1
  Mo  Mo168  1  0.78867049  0.00530204  0.23932999  1
  Mo  Mo169  1  0.20877761  0.19647316  0.48067731  1
  Mo  Mo170  1  0.59613129  0.59969884  0.48609130  1
  Mo  Mo171  1  0.90179146  0.89446406  0.36514457  1
  Mo  Mo172  1  0.29307339  0.89867803  0.36622651  1
  Mo  Mo173  1  0.29785991  0.30255076  0.12122877  1
  Mo  Mo174  1  0.89444513  0.29439749  0.36419786  1
  Mo  Mo175  1  0.28941451  0.70461285  0.86966428  1
  Mo  Mo176  1  0.10517700  0.69790781  0.61811254  1
  Mo  Mo177  1  0.70103677  0.10056880  0.12560299  1
  Mo  Mo178  1  0.50416239  0.10567080  0.62622098  1
  Mo  Mo179  1  0.80735740  -0.00119369  0.50784669  1
  Mo  Mo180  1  0.29819328  0.69891864  0.14107171  1
  Mo  Mo181  1  -0.00383811  0.59379235  0.00051128  1
  Mo  Mo182  1  0.39497610  0.61374288  0.01031275  1
  Mo  Mo183  1  0.29802233  0.09653269  0.62552074  1
  Mo  Mo184  1  0.69847631  0.49042843  0.13546961  1
  Mo  Mo185  1  0.69142348  0.30272513  0.37156424  1
  Mo  Mo186  1  0.51165205  0.11429537  0.89321265  1
  Mo  Mo187  1  0.40076672  0.59186312  0.74211569  1
  Mo  Mo188  1  0.60800950  0.21020043  0.00735100  1
  Mo  Mo189  1  0.41108268  0.00400279  0.00681712  1
  Mo  Mo190  1  0.59386203  0.61167066  -0.00188052  1
  Mo  Mo191  1  0.00097335  0.18755026  0.00552091  1
  Mo  Mo192  1  0.09905157  0.30836916  0.36969221  1
  Mo  Mo193  1  0.61024958  0.00202140  0.00081258  1
  Mo  Mo194  1  0.70478847  0.50909461  0.87115378  1
  Mo  Mo195  1  0.31264577  0.28977331  0.37610221  1
  Mo  Mo196  1  0.00357823  -0.00437399  0.25510292  1
  Mo  Mo197  1  0.70488411  0.70894162  0.62836976  1
  Mo  Mo198  1  0.19157102  0.59450814  0.00658652  1
  Mo  Mo199  1  0.07736634  0.09637853  0.88052195  1
