# generated using pymatgen
data_HfZrTaTiMo
_symmetry_space_group_name_H-M   'P 1'
_cell_length_a   15.20358536
_cell_length_b   15.20144225
_cell_length_c   16.87901612
_cell_angle_alpha   89.95570890
_cell_angle_beta   89.92631922
_cell_angle_gamma   90.25932773
_symmetry_Int_Tables_number   1
_chemical_formula_structural   HfZrTaTiMo
_chemical_formula_sum   'Hf40 Zr40 Ta40 Ti40 Mo40'
_cell_volume   3900.97349282
_cell_formula_units_Z   40
loop_
 _symmetry_equiv_pos_site_id
 _symmetry_equiv_pos_as_xyz
  1  'x, y, z'
loop_
 _atom_site_type_symbol
 _atom_site_label
 _atom_site_symmetry_multiplicity
 _atom_site_fract_x
 _atom_site_fract_y
 _atom_site_fract_z
 _atom_site_occupancy
  Hf  Hf0  1  0.80993133  0.20886731  0.26573695  1
  Hf  Hf1  1  0.20500965  0.61070114  0.24100070  1
  Hf  Hf2  1  0.80748411  0.19992610  0.48539542  1
  Hf  Hf3  1  0.50545565  0.71893316  0.37511514  1
  Hf  Hf4  1  0.50431877  0.10209243  0.62039701  1
  Hf  Hf5  1  0.70894135  0.90148172  0.62460343  1
  Hf  Hf6  1  0.61097557  0.19760455  0.01482008  1
  Hf  Hf7  1  0.60415200  0.18093861  0.24577865  1
  Hf  Hf8  1  0.30025016  0.29281696  0.88958889  1
  Hf  Hf9  1  0.80780920  0.00309429  0.75571894  1
  Hf  Hf10  1  0.88913552  0.49946165  0.11721082  1
  Hf  Hf11  1  -0.01610341  0.38807956  -0.00659567  1
  Hf  Hf12  1  0.80832675  0.20890683  0.74978528  1
  Hf  Hf13  1  0.10342725  0.50896967  0.37328020  1
  Hf  Hf14  1  0.60297720  0.79242906  0.76851100  1
  Hf  Hf15  1  0.32170670  0.09541229  0.10065586  1
  Hf  Hf16  1  0.89895503  0.70544867  0.11478643  1
  Hf  Hf17  1  0.90334084  0.09615791  0.62296857  1
  Hf  Hf18  1  0.20880356  -0.00699241  0.24047971  1
  Hf  Hf19  1  0.21752321  0.40987686  0.50259200  1
  Hf  Hf20  1  0.47466065  0.49899069  0.62659002  1
  Hf  Hf21  1  0.68562430  0.30465561  0.87187357  1
  Hf  Hf22  1  0.90681135  0.90314909  0.12640125  1
  Hf  Hf23  1  -0.01150748  0.39334368  0.25684115  1
  Hf  Hf24  1  -0.00282064  0.40253203  0.49950496  1
  Hf  Hf25  1  0.78999638  0.61094791  -0.01796387  1
  Hf  Hf26  1  0.19093149  0.40561425  -0.00380715  1
  Hf  Hf27  1  0.88459609  0.70251203  0.62792452  1
  Hf  Hf28  1  0.70000018  0.89850245  0.11598002  1
  Hf  Hf29  1  -0.01302727  0.79604297  0.50930009  1
  Hf  Hf30  1  0.21216057  0.61322455  0.00031572  1
  Hf  Hf31  1  0.39894944  0.80606408  0.24958847  1
  Hf  Hf32  1  0.30894845  0.68896486  0.62656415  1
  Hf  Hf33  1  0.69940422  0.31627974  0.37669547  1
  Hf  Hf34  1  0.60209208  0.00344309  0.75708722  1
  Hf  Hf35  1  0.59813841  0.60601347  0.25324612  1
  Hf  Hf36  1  0.31774979  0.30771219  0.62838655  1
  Hf  Hf37  1  0.23133001  0.19614076  0.25077612  1
  Hf  Hf38  1  0.19042807  0.78721364  0.74987117  1
  Hf  Hf39  1  0.90953275  0.11774244  0.13235776  1
  Zr  Zr40  1  0.13365904  0.09012825  0.38258091  1
  Zr  Zr41  1  0.01069772  0.18977026  0.27262034  1
  Zr  Zr42  1  0.29042447  0.87940355  0.11087227  1
  Zr  Zr43  1  0.08527481  0.70319521  0.38026719  1
  Zr  Zr44  1  0.31738356  0.91528640  0.38670763  1
  Zr  Zr45  1  0.31198850  0.09824936  0.61908391  1
  Zr  Zr46  1  0.40054230  0.79096829  0.75853303  1
  Zr  Zr47  1  0.09797099  0.50410354  0.12378476  1
  Zr  Zr48  1  0.78597999  0.60908382  0.76556847  1
  Zr  Zr49  1  0.78451288  0.41229449  -0.01316965  1
  Zr  Zr50  1  0.11092781  0.89127532  0.38216435  1
  Zr  Zr51  1  0.08694606  0.28016166  0.87634072  1
  Zr  Zr52  1  0.09895896  0.49932467  0.63215064  1
  Zr  Zr53  1  0.80474830  0.80755653  0.76717824  1
  Zr  Zr54  1  0.50156576  0.89252634  0.62647539  1
  Zr  Zr55  1  0.38537619  0.58837312  0.49022886  1
  Zr  Zr56  1  0.59886367  0.19249183  0.49356360  1
  Zr  Zr57  1  0.81952846  0.21839346  -0.00377616  1
  Zr  Zr58  1  0.89203424  0.88754675  0.36253657  1
  Zr  Zr59  1  0.59586439  0.61332055  0.50028827  1
  Zr  Zr60  1  0.00308641  0.61200765  0.75821278  1
  Zr  Zr61  1  0.78721047  0.40941248  0.75442683  1
  Zr  Zr62  1  0.49252498  0.89691961  0.10771990  1
  Zr  Zr63  1  0.48765489  0.29205858  0.13332893  1
  Zr  Zr64  1  0.49235830  0.89805143  0.89125241  1
  Zr  Zr65  1  0.80242233  0.01822908  0.00449573  1
  Zr  Zr66  1  0.30803200  0.08975434  0.88937099  1
  Zr  Zr67  1  0.29793224  0.29782797  0.10453334  1
  Zr  Zr68  1  -0.00838070  0.38856011  0.75244049  1
  Zr  Zr69  1  -0.00797835  -0.00014742  0.48946921  1
  Zr  Zr70  1  0.20133122  0.19409197  0.74806343  1
  Zr  Zr71  1  -0.00917702  0.60806849  0.24443759  1
  Zr  Zr72  1  0.11862350  0.30534243  0.37440520  1
  Zr  Zr73  1  0.57963530  0.40909659  0.00790173  1
  Zr  Zr74  1  0.88568433  0.50159514  0.38893664  1
  Zr  Zr75  1  0.20930692  -0.01366801  0.74931683  1
  Zr  Zr76  1  0.48568207  0.48487904  0.36572113  1
  Zr  Zr77  1  0.08910259  0.28771338  0.12508282  1
  Zr  Zr78  1  0.58528579  0.39654729  0.50600971  1
  Zr  Zr79  1  0.00788345  0.20090807  0.48703194  1
  Ta  Ta80  1  0.70284092  0.10560689  0.87457445  1
  Ta  Ta81  1  0.70110977  0.90852100  0.89080108  1
  Ta  Ta82  1  0.00481295  -0.00179176  0.25308816  1
  Ta  Ta83  1  0.39388141  0.40480275  0.76054351  1
  Ta  Ta84  1  0.21553231  0.40656025  0.24555019  1
  Ta  Ta85  1  0.71397508  0.30624238  0.13298356  1
  Ta  Ta86  1  0.79245024  0.00429790  0.24830788  1
  Ta  Ta87  1  0.00699106  0.60723975  -0.00944220  1
  Ta  Ta88  1  0.79071484  0.60578268  0.24778420  1
  Ta  Ta89  1  0.10659436  0.09885758  0.61654728  1
  Ta  Ta90  1  0.00761624  0.00213207  0.74450354  1
  Ta  Ta91  1  0.41477148  0.20171974  0.75823887  1
  Ta  Ta92  1  0.69493474  0.69986878  0.11570957  1
  Ta  Ta93  1  0.70433974  0.10137803  0.62010516  1
  Ta  Ta94  1  0.69053047  0.50912934  0.12630999  1
  Ta  Ta95  1  0.31547172  0.50410681  0.11806804  1
  Ta  Ta96  1  0.69206367  0.50602072  0.62780850  1
  Ta  Ta97  1  0.09830612  0.90153377  0.61882605  1
  Ta  Ta98  1  0.88884487  0.50198823  0.61712631  1
  Ta  Ta99  1  0.49098752  0.28094488  0.35996048  1
  Ta  Ta100  1  0.11028458  0.72220255  0.11734011  1
  Ta  Ta101  1  0.18766294  0.60522874  0.50389212  1
  Ta  Ta102  1  0.09695480  0.88913995  0.87178430  1
  Ta  Ta103  1  0.91310638  0.91770474  0.88367990  1
  Ta  Ta104  1  0.19375426  -0.01993710  -0.00358264  1
  Ta  Ta105  1  0.60111475  0.39884257  0.24556568  1
  Ta  Ta106  1  0.80502444  0.80665588  -0.01192826  1
  Ta  Ta107  1  0.40409004  0.00108142  0.75868221  1
  Ta  Ta108  1  0.40917188  0.02051107  0.25072076  1
  Ta  Ta109  1  0.57458057  0.60206798  0.74864745  1
  Ta  Ta110  1  0.79444758  0.41239800  0.25015075  1
  Ta  Ta111  1  0.89799082  0.30317150  0.61737700  1
  Ta  Ta112  1  0.68740088  0.88440205  0.37092514  1
  Ta  Ta113  1  0.09950866  0.08473023  0.88020844  1
  Ta  Ta114  1  0.78111111  0.79593567  0.49788362  1
  Ta  Ta115  1  0.60435018  0.20271510  0.74487739  1
  Ta  Ta116  1  0.59580853  -0.01173191  0.24711445  1
  Ta  Ta117  1  0.48901780  0.68979970  0.11760998  1
  Ta  Ta118  1  0.91753487  0.11722656  0.86905018  1
  Ta  Ta119  1  0.29174677  0.70301716  0.38144135  1
  Ti  Ti120  1  0.09473363  0.69827253  0.62058803  1
  Ti  Ti121  1  0.59865565  0.00946607  0.00555011  1
  Ti  Ti122  1  0.10304638  0.29274417  0.62548063  1
  Ti  Ti123  1  0.00649646  0.80325729  0.24284717  1
  Ti  Ti124  1  0.66437934  0.51644360  0.87317668  1
  Ti  Ti125  1  0.39117815  0.60051808  0.25649223  1
  Ti  Ti126  1  0.21329816  0.58868190  0.75497590  1
  Ti  Ti127  1  0.58498867  0.39695335  0.74191191  1
  Ti  Ti128  1  -0.00518539  0.81455101  0.74083708  1
  Ti  Ti129  1  0.91680322  0.71715367  0.88007745  1
  Ti  Ti130  1  0.20648104  0.79731741  0.50956916  1
  Ti  Ti131  1  0.31626677  0.31362887  0.37532963  1
  Ti  Ti132  1  0.21340514  -0.00263663  0.50867869  1
  Ti  Ti133  1  0.49335099  0.49959685  0.13609279  1
  Ti  Ti134  1  0.01414916  0.80890010  -0.00028180  1
  Ti  Ti135  1  0.20079295  0.79959027  0.25195041  1
  Ti  Ti136  1  0.79687292  -0.00589898  0.49270629  1
  Ti  Ti137  1  0.60052579  0.79762881  0.23977057  1
  Ti  Ti138  1  0.41173603  0.80309852  0.50134300  1
  Ti  Ti139  1  0.20173083  0.39911232  0.75773464  1
  Ti  Ti140  1  0.69656853  0.08340645  0.37440312  1
  Ti  Ti141  1  0.88323498  0.69523257  0.37963782  1
  Ti  Ti142  1  0.59664670  -0.01489332  0.49239216  1
  Ti  Ti143  1  0.30121142  0.69288754  0.86936225  1
  Ti  Ti144  1  0.79207540  0.60194751  0.50469928  1
  Ti  Ti145  1  0.79140013  0.79379548  0.24566874  1
  Ti  Ti146  1  0.38582897  0.77670281  -0.00937870  1
  Ti  Ti147  1  0.50796165  0.10764610  0.88169323  1
  Ti  Ti148  1  0.10330430  0.50613641  0.87261047  1
  Ti  Ti149  1  0.49368469  0.30293891  0.88064620  1
  Ti  Ti150  1  0.11280510  0.09382674  0.11776992  1
  Ti  Ti151  1  0.31354870  0.49967731  0.88424444  1
  Ti  Ti152  1  0.68037952  0.70275554  0.62898596  1
  Ti  Ti153  1  0.00493507  0.00643194  0.00466794  1
  Ti  Ti154  1  0.30793711  0.89851915  0.61953656  1
  Ti  Ti155  1  0.60170666  0.78196372  -0.00932368  1
  Ti  Ti156  1  0.90499182  0.50372144  0.87527703  1
  Ti  Ti157  1  0.21989588  0.20471226  0.50105198  1
  Ti  Ti158  1  0.69982021  0.30228322  0.62078256  1
  Ti  Ti159  1  0.69480150  0.51059137  0.37737776  1
  Mo  Mo160  1  0.50790543  0.90611408  0.37185789  1
  Mo  Mo161  1  0.19530379  0.79219851  -0.01676822  1
  Mo  Mo162  1  0.60228495  0.80208511  0.50254464  1
  Mo  Mo163  1  -0.01006656  0.60306701  0.50995099  1
  Mo  Mo164  1  0.89669269  0.30373861  0.86649511  1
  Mo  Mo165  1  0.40923577  0.00123327  0.50061592  1
  Mo  Mo166  1  0.40790866  0.21431008  0.49823606  1
  Mo  Mo167  1  0.49514594  0.49050960  0.86752838  1
  Mo  Mo168  1  0.41096630  0.58884636  -0.00079152  1
  Mo  Mo169  1  0.00523344  0.18872160  0.73601411  1
  Mo  Mo170  1  0.59397554  0.59978821  0.00651893  1
  Mo  Mo171  1  0.78785203  0.40409839  0.51437420  1
  Mo  Mo172  1  0.18816107  0.18374553  0.00035854  1
  Mo  Mo173  1  0.89825460  0.90234094  0.62103330  1
  Mo  Mo174  1  0.41873863  0.19821290  -0.01167730  1
  Mo  Mo175  1  0.40482943  0.19663151  0.24769473  1
  Mo  Mo176  1  0.69285429  0.70604017  0.88212422  1
  Mo  Mo177  1  0.49991081  0.69893419  0.62422035  1
  Mo  Mo178  1  0.39190837  0.59479508  0.75669462  1
  Mo  Mo179  1  0.29415228  0.88869552  0.88333355  1
  Mo  Mo180  1  0.50536046  0.29737670  0.63697075  1
  Mo  Mo181  1  0.49763834  0.67888478  0.88895982  1
  Mo  Mo182  1  0.89067124  0.08602838  0.36687762  1
  Mo  Mo183  1  0.32805070  0.12093133  0.38872257  1
  Mo  Mo184  1  0.30667145  0.69574670  0.12640509  1
  Mo  Mo185  1  0.39923949  0.38885556  0.49731642  1
  Mo  Mo186  1  0.09828643  0.69567620  0.87355897  1
  Mo  Mo187  1  0.70956762  0.69986120  0.37121436  1
  Mo  Mo188  1  0.39228006  0.40004750  0.24696294  1
  Mo  Mo189  1  0.28941992  0.49755627  0.63589067  1
  Mo  Mo190  1  0.00575860  0.18929991  0.00218133  1
  Mo  Mo191  1  0.89571599  0.30543008  0.38452813  1
  Mo  Mo192  1  0.50024362  0.08646752  0.37996504  1
  Mo  Mo193  1  0.50879198  0.08910863  0.12049431  1
  Mo  Mo194  1  0.70364552  0.09863938  0.13423325  1
  Mo  Mo195  1  0.09413773  0.90326240  0.12544463  1
  Mo  Mo196  1  0.39550108  0.40329011  -0.00459923  1
  Mo  Mo197  1  0.89720816  0.31004136  0.13279996  1
  Mo  Mo198  1  0.40461826  -0.00725494  -0.00799311  1
  Mo  Mo199  1  0.29018216  0.50388070  0.36841817  1
