# generated using pymatgen
data_HfZrTaTiMo
_symmetry_space_group_name_H-M   'P 1'
_cell_length_a   15.19693228
_cell_length_b   15.19830864
_cell_length_c   16.87513355
_cell_angle_alpha   90.04628921
_cell_angle_beta   90.00458310
_cell_angle_gamma   90.13657465
_symmetry_Int_Tables_number   1
_chemical_formula_structural   HfZrTaTiMo
_chemical_formula_sum   'Hf40 Zr40 Ta40 Ti40 Mo40'
_cell_volume   3897.59787094
_cell_formula_units_Z   40
loop_
 _symmetry_equiv_pos_site_id
 _symmetry_equiv_pos_as_xyz
  1  'x, y, z'
loop_
 _atom_site_type_symbol
 _atom_site_label
 _atom_site_symmetry_multiplicity
 _atom_site_fract_x
 _atom_site_fract_y
 _atom_site_fract_z
 _atom_site_occupancy
  Hf  Hf0  1  0.00982486  0.60485712  0.00485624  1
  Hf  Hf1  1  0.41263881  0.79491078  0.51283267  1
  Hf  Hf2  1  0.91035932  0.71994534  0.62780135  1
  Hf  Hf3  1  0.80879979  0.60353236  0.51586704  1
  Hf  Hf4  1  0.29821379  0.88750575  0.87233972  1
  Hf  Hf5  1  0.78122330  0.19852731  0.50145314  1
  Hf  Hf6  1  0.70212317  0.11394194  0.12698253  1
  Hf  Hf7  1  0.71007475  0.90671085  0.12003750  1
  Hf  Hf8  1  0.19633236  0.20176356  0.00502922  1
  Hf  Hf9  1  0.39504511  -0.00300380  0.74601725  1
  Hf  Hf10  1  0.69589400  0.48501795  0.11473489  1
  Hf  Hf11  1  0.31252813  0.70071975  0.13526121  1
  Hf  Hf12  1  0.41481766  0.00410394  0.49632616  1
  Hf  Hf13  1  0.51221074  0.89508942  0.37036022  1
  Hf  Hf14  1  -0.01873173  0.40298478  0.75104372  1
  Hf  Hf15  1  0.78685176  0.23127460  0.73441247  1
  Hf  Hf16  1  0.31285538  0.30946953  0.88704065  1
  Hf  Hf17  1  0.20309572  0.00039966  0.47655854  1
  Hf  Hf18  1  0.50211129  0.89163685  0.12827479  1
  Hf  Hf19  1  -0.00084035  0.38987195  0.23923454  1
  Hf  Hf20  1  0.70057153  0.11708156  0.87490884  1
  Hf  Hf21  1  0.23193973  0.01540494  0.27275272  1
  Hf  Hf22  1  0.39486469  0.58565367  -0.00800473  1
  Hf  Hf23  1  0.11460692  0.49999393  0.13225025  1
  Hf  Hf24  1  0.27973271  0.49653012  0.62475584  1
  Hf  Hf25  1  0.80938640  0.81102664  0.76007243  1
  Hf  Hf26  1  0.11188381  0.50757160  0.88082913  1
  Hf  Hf27  1  0.71571715  0.47287740  0.62773447  1
  Hf  Hf28  1  0.30876773  0.69666902  0.37425279  1
  Hf  Hf29  1  0.49220667  0.50155438  0.12462253  1
  Hf  Hf30  1  0.49386939  0.47146758  0.86717231  1
  Hf  Hf31  1  0.40901338  0.20183704  0.74997728  1
  Hf  Hf32  1  0.11195528  0.70489407  0.13815147  1
  Hf  Hf33  1  0.87811868  0.28773326  0.89293323  1
  Hf  Hf34  1  0.81152963  0.59211677  0.75078866  1
  Hf  Hf35  1  0.29171594  0.30566639  0.12784063  1
  Hf  Hf36  1  0.11100037  0.29765978  0.62182958  1
  Hf  Hf37  1  0.18693393  0.39881063  0.48091624  1
  Hf  Hf38  1  0.68352592  0.28101577  0.36974050  1
  Hf  Hf39  1  0.20300179  0.81488740  0.27031892  1
  Zr  Zr40  1  0.79923367  0.80193307  0.25201628  1
  Zr  Zr41  1  0.69118637  0.69730499  0.11879757  1
  Zr  Zr42  1  0.49954438  0.90054603  0.86951428  1
  Zr  Zr43  1  0.30086987  0.91060164  0.12705879  1
  Zr  Zr44  1  0.20497368  0.20066746  0.75709523  1
  Zr  Zr45  1  0.90010489  0.48472498  0.89713434  1
  Zr  Zr46  1  0.09202223  0.30404360  0.87963314  1
  Zr  Zr47  1  0.49217275  0.48986196  0.38038730  1
  Zr  Zr48  1  0.91298857  0.70675848  0.87712979  1
  Zr  Zr49  1  0.29145848  0.89792327  0.61590490  1
  Zr  Zr50  1  0.59844266  0.59398962  0.74440635  1
  Zr  Zr51  1  0.49571306  0.29464362  0.13981075  1
  Zr  Zr52  1  0.89498747  0.49705691  0.11217295  1
  Zr  Zr53  1  0.50414423  0.47753730  0.62909025  1
  Zr  Zr54  1  0.01674554  0.60740623  0.74997499  1
  Zr  Zr55  1  0.81405284  0.01949622  0.75556521  1
  Zr  Zr56  1  0.11802500  0.70260445  0.61206408  1
  Zr  Zr57  1  0.49593281  0.69646262  0.86028490  1
  Zr  Zr58  1  0.90761121  0.10256074  0.60958687  1
  Zr  Zr59  1  0.09030419  0.09264034  0.87616396  1
  Zr  Zr60  1  0.79578508  0.39538935  0.25543743  1
  Zr  Zr61  1  0.59977884  0.60480454  0.51682572  1
  Zr  Zr62  1  0.11387703  0.09491462  0.14135919  1
  Zr  Zr63  1  0.89903549  0.70773454  0.11849827  1
  Zr  Zr64  1  0.00602899  -0.01057062  0.01130808  1
  Zr  Zr65  1  0.71109453  0.91042103  0.63434469  1
  Zr  Zr66  1  0.70991117  0.70735050  0.38021317  1
  Zr  Zr67  1  0.08902056  0.70081094  0.37592730  1
  Zr  Zr68  1  0.60400052  0.59774652  0.25070027  1
  Zr  Zr69  1  0.29638580  0.11272998  0.61667318  1
  Zr  Zr70  1  0.38720601  0.37263868  0.50310296  1
  Zr  Zr71  1  -0.00684184  0.19531652  0.74469899  1
  Zr  Zr72  1  -0.01416707  0.18401280  0.01979754  1
  Zr  Zr73  1  0.69726921  0.49550052  0.38753137  1
  Zr  Zr74  1  0.59648211  0.00947573  0.00199252  1
  Zr  Zr75  1  0.89257279  0.33247367  0.59993097  1
  Zr  Zr76  1  0.80762032  0.81056852  -0.01059157  1
  Zr  Zr77  1  0.08574721  0.10832126  0.36958275  1
  Zr  Zr78  1  0.90277418  0.50692468  0.37894970  1
  Zr  Zr79  1  0.39805823  0.59512448  0.51106749  1
  Ta  Ta80  1  0.50860261  0.09488131  0.35708206  1
  Ta  Ta81  1  0.19967483  0.59508043  0.48823425  1
  Ta  Ta82  1  0.80129322  -0.00563977  0.49971556  1
  Ta  Ta83  1  0.59880439  0.22192531  0.00658676  1
  Ta  Ta84  1  0.20325685  0.79283222  0.74415588  1
  Ta  Ta85  1  0.10574074  0.89675501  0.87303275  1
  Ta  Ta86  1  0.19869479  0.40898838  0.75469706  1
  Ta  Ta87  1  -0.01480685  0.20072213  0.23917995  1
  Ta  Ta88  1  0.57697884  0.18652295  0.49791557  1
  Ta  Ta89  1  0.09149836  0.90366496  0.61513559  1
  Ta  Ta90  1  0.78794238  0.60134894  -0.01205668  1
  Ta  Ta91  1  0.39147824  0.38841060  0.73885410  1
  Ta  Ta92  1  0.20975642  0.61063307  0.00104711  1
  Ta  Ta93  1  0.59717361  0.79429906  -0.00401981  1
  Ta  Ta94  1  0.18959372  -0.00710016  0.74566877  1
  Ta  Ta95  1  0.90188094  0.29619361  0.38352821  1
  Ta  Ta96  1  0.87070866  0.29088993  0.11567407  1
  Ta  Ta97  1  0.69743680  0.71209601  0.63744183  1
  Ta  Ta98  1  -0.00450059  0.60408498  0.24632937  1
  Ta  Ta99  1  0.50821103  0.69860700  0.37812766  1
  Ta  Ta100  1  0.08584324  0.49462567  0.61898198  1
  Ta  Ta101  1  0.88438915  0.09834775  0.37518720  1
  Ta  Ta102  1  0.09937249  0.50395527  0.36156759  1
  Ta  Ta103  1  0.19649888  0.21679437  0.26020011  1
  Ta  Ta104  1  0.81275487  0.01922538  -0.00560687  1
  Ta  Ta105  1  0.49779828  0.10994573  0.87800153  1
  Ta  Ta106  1  0.90178960  0.90019171  0.37503515  1
  Ta  Ta107  1  0.20678785  -0.00102941  0.00015953  1
  Ta  Ta108  1  -0.00311055  0.80469606  0.25763795  1
  Ta  Ta109  1  0.40187005  0.79005140  0.00083621  1
  Ta  Ta110  1  0.11705659  0.71146698  0.87642194  1
  Ta  Ta111  1  0.69703650  0.49474761  0.87464200  1
  Ta  Ta112  1  0.61082018  0.80609990  0.50701279  1
  Ta  Ta113  1  0.59449642  0.59800447  -0.01036654  1
  Ta  Ta114  1  0.67647446  0.31163109  0.87268224  1
  Ta  Ta115  1  0.70029098  0.90628137  0.87594914  1
  Ta  Ta116  1  0.40315595  0.60078963  0.25527748  1
  Ta  Ta117  1  0.40100286  0.78867907  0.73048136  1
  Ta  Ta118  1  0.21289025  0.20857904  0.47678416  1
  Ta  Ta119  1  0.47938274  0.27893101  0.36033101  1
  Ti  Ti120  1  0.10467832  0.89822649  0.13549389  1
  Ti  Ti121  1  0.61147436  0.00062965  0.49957195  1
  Ti  Ti122  1  0.21449759  0.41571870  0.00029683  1
  Ti  Ti123  1  -0.00297831  -0.00214065  0.25519220  1
  Ti  Ti124  1  0.79378759  0.19096353  0.25682447  1
  Ti  Ti125  1  0.49072667  0.09427722  0.14174363  1
  Ti  Ti126  1  0.80434114  0.60132899  0.24884202  1
  Ti  Ti127  1  0.01291004  0.81574032  0.74974428  1
  Ti  Ti128  1  0.10457174  0.09676044  0.61087418  1
  Ti  Ti129  1  0.40563442  0.80406945  0.25682077  1
  Ti  Ti130  1  0.60033930  0.00771528  0.75613603  1
  Ti  Ti131  1  0.20097410  0.40509451  0.26250149  1
  Ti  Ti132  1  -0.00275955  -0.00305839  0.49209341  1
  Ti  Ti133  1  0.20487805  0.80261530  0.00358230  1
  Ti  Ti134  1  0.51846814  0.89490577  0.63478630  1
  Ti  Ti135  1  0.38416098  0.59371519  0.73869276  1
  Ti  Ti136  1  0.29862288  0.68879285  0.86700753  1
  Ti  Ti137  1  0.00354738  0.59746118  0.50082153  1
  Ti  Ti138  1  0.20246928  0.80549238  0.48312638  1
  Ti  Ti139  1  0.59731239  0.37726729  0.49929116  1
  Ti  Ti140  1  0.01529367  0.80378040  0.00267685  1
  Ti  Ti141  1  0.30110224  0.50494257  0.13459197  1
  Ti  Ti142  1  0.50538298  0.09633572  0.62894877  1
  Ti  Ti143  1  0.69485006  0.70523915  0.86837296  1
  Ti  Ti144  1  0.30056042  0.09211577  0.87743697  1
  Ti  Ti145  1  0.68957577  0.10697121  0.62951378  1
  Ti  Ti146  1  -0.00303218  0.80760569  0.49015473  1
  Ti  Ti147  1  0.59815380  0.79241490  0.24586268  1
  Ti  Ti148  1  0.70765150  0.91419409  0.37348400  1
  Ti  Ti149  1  0.61497816  0.00109275  0.24832642  1
  Ti  Ti150  1  0.59332029  0.39438742  0.25581552  1
  Ti  Ti151  1  0.90513794  0.90972985  0.13234128  1
  Ti  Ti152  1  0.40155647  0.19243023  0.00677925  1
  Ti  Ti153  1  0.01472346  0.38431652  0.01968094  1
  Ti  Ti154  1  0.91354482  0.91726596  0.87657772  1
  Ti  Ti155  1  0.80544218  0.80766449  0.50238403  1
  Ti  Ti156  1  0.38866385  0.40024107  0.25896805  1
  Ti  Ti157  1  0.39681684  0.00020626  0.00021656  1
  Ti  Ti158  1  0.00372102  -0.00243257  0.74065372  1
  Ti  Ti159  1  0.01026462  0.21321871  0.49370535  1
  Mo  Mo160  1  0.89845911  0.10167702  0.87161373  1
  Mo  Mo161  1  0.29807234  0.69611925  0.61926979  1
  Mo  Mo162  1  0.79273461  0.40438423  0.75596159  1
  Mo  Mo163  1  0.69571215  0.08698586  0.37571575  1
  Mo  Mo164  1  0.00198197  0.40811577  0.48954320  1
  Mo  Mo165  1  0.67717207  0.29616722  0.61428017  1
  Mo  Mo166  1  0.40121972  0.19227652  0.49736149  1
  Mo  Mo167  1  0.90661373  0.51159201  0.62018121  1
  Mo  Mo168  1  0.79192490  0.39682907  0.48365577  1
  Mo  Mo169  1  0.20635410  0.59649324  0.25820887  1
  Mo  Mo170  1  0.58474301  0.40515199  0.00104156  1
  Mo  Mo171  1  0.68989719  0.30023897  0.13862667  1
  Mo  Mo172  1  0.89177571  0.09081669  0.14089789  1
  Mo  Mo173  1  0.91180728  0.90386777  0.61728501  1
  Mo  Mo174  1  0.49733692  0.28756715  0.88179165  1
  Mo  Mo175  1  0.59609772  0.19508269  0.25031203  1
  Mo  Mo176  1  0.41310551  -0.00790338  0.25341455  1
  Mo  Mo177  1  0.90035116  0.70341137  0.37794528  1
  Mo  Mo178  1  0.32133872  0.11421011  0.37720653  1
  Mo  Mo179  1  0.20364733  0.60192924  0.74945681  1
  Mo  Mo180  1  0.31053930  0.10565330  0.12105903  1
  Mo  Mo181  1  0.38457575  0.18238712  0.24315443  1
  Mo  Mo182  1  0.30029059  0.50135308  0.86525674  1
  Mo  Mo183  1  0.31581850  0.89780775  0.38516624  1
  Mo  Mo184  1  0.76937362  0.38892628  0.00064332  1
  Mo  Mo185  1  0.49730519  0.28150913  0.62127360  1
  Mo  Mo186  1  0.09464262  0.90618255  0.37548527  1
  Mo  Mo187  1  0.39644480  0.39213706  0.00683607  1
  Mo  Mo188  1  0.29242720  0.30116839  0.62599405  1
  Mo  Mo189  1  0.78491564  0.19830891  0.00249462  1
  Mo  Mo190  1  0.60517457  0.80981846  0.75270474  1
  Mo  Mo191  1  0.29700795  0.50390261  0.36811241  1
  Mo  Mo192  1  0.49798723  0.70095207  0.11973000  1
  Mo  Mo193  1  0.09787280  0.30183240  0.12928896  1
  Mo  Mo194  1  0.59807086  0.37286618  0.74415765  1
  Mo  Mo195  1  0.08811083  0.30284142  0.36684642  1
  Mo  Mo196  1  0.29879034  0.30362282  0.36105626  1
  Mo  Mo197  1  0.50679083  0.70302830  0.63787292  1
  Mo  Mo198  1  0.80849522  0.00280543  0.25233303  1
  Mo  Mo199  1  0.59571411  0.19321482  0.74783517  1
