# generated using pymatgen
data_HfZrTaTiMo
_symmetry_space_group_name_H-M   'P 1'
_cell_length_a   15.16876994
_cell_length_b   15.19233620
_cell_length_c   16.80774174
_cell_angle_alpha   90.04749065
_cell_angle_beta   90.00553911
_cell_angle_gamma   89.80466203
_symmetry_Int_Tables_number   1
_chemical_formula_structural   HfZrTaTiMo
_chemical_formula_sum   'Hf40 Zr40 Ta40 Ti40 Mo40'
_cell_volume   3873.30430339
_cell_formula_units_Z   40
loop_
 _symmetry_equiv_pos_site_id
 _symmetry_equiv_pos_as_xyz
  1  'x, y, z'
loop_
 _atom_site_type_symbol
 _atom_site_label
 _atom_site_symmetry_multiplicity
 _atom_site_fract_x
 _atom_site_fract_y
 _atom_site_fract_z
 _atom_site_occupancy
  Hf  Hf0  1  0.41780844  0.60611532  0.76713163  1
  Hf  Hf1  1  0.70246956  0.90217831  0.87221815  1
  Hf  Hf2  1  0.29444358  0.11579991  0.89729881  1
  Hf  Hf3  1  0.28918138  0.91222620  0.87580045  1
  Hf  Hf4  1  0.20130764  0.19164002  0.24748484  1
  Hf  Hf5  1  0.30412274  0.49399099  0.87720356  1
  Hf  Hf6  1  0.39223437  0.80057116  0.50081672  1
  Hf  Hf7  1  0.69701336  0.50248183  0.63254008  1
  Hf  Hf8  1  0.80356977  0.80641893  0.49755086  1
  Hf  Hf9  1  0.28564139  0.90059315  0.11250679  1
  Hf  Hf10  1  0.67483904  0.49623823  0.86414081  1
  Hf  Hf11  1  0.78547352  0.19756213  0.50431169  1
  Hf  Hf12  1  0.80966156  0.19219530  -0.00378518  1
  Hf  Hf13  1  0.08294852  0.31202364  0.38271175  1
  Hf  Hf14  1  0.30567482  0.50308300  0.11531099  1
  Hf  Hf15  1  0.11301832  0.49719467  0.62563212  1
  Hf  Hf16  1  0.30087366  0.68415397  0.37605252  1
  Hf  Hf17  1  0.09195966  0.30511302  0.12776662  1
  Hf  Hf18  1  0.41709597  -0.00451568  0.00944335  1
  Hf  Hf19  1  0.41339674  0.18899893  0.23333011  1
  Hf  Hf20  1  0.50354782  0.50095710  0.61938929  1
  Hf  Hf21  1  0.18375863  0.78413931  0.51005039  1
  Hf  Hf22  1  0.79875958  0.18503697  0.74793801  1
  Hf  Hf23  1  0.69596153  0.90596172  0.37103159  1
  Hf  Hf24  1  0.49669597  0.29374665  0.37047611  1
  Hf  Hf25  1  0.08387756  0.91619804  0.86812436  1
  Hf  Hf26  1  0.09824540  0.09833300  0.60810147  1
  Hf  Hf27  1  0.58952093  0.80127289  0.24935510  1
  Hf  Hf28  1  0.59877498  0.41434949  0.25759898  1
  Hf  Hf29  1  0.09343424  0.52348157  0.11606545  1
  Hf  Hf30  1  0.70193430  0.70308463  0.62575641  1
  Hf  Hf31  1  0.60224956  0.39346713  0.49078049  1
  Hf  Hf32  1  0.69983519  0.68740433  0.13175584  1
  Hf  Hf33  1  0.81775850  0.61060082  0.49720035  1
  Hf  Hf34  1  0.38353363  0.40739648  0.49454650  1
  Hf  Hf35  1  0.00270323  0.39646913  0.75442619  1
  Hf  Hf36  1  0.91300836  0.51313710  0.62600814  1
  Hf  Hf37  1  -0.01806967  0.40650698  0.00104288  1
  Hf  Hf38  1  0.41473795  0.39268143  0.75799554  1
  Hf  Hf39  1  0.50392977  0.70352572  0.62004977  1
  Zr  Zr40  1  0.39305487  0.79393300  -0.02095464  1
  Zr  Zr41  1  0.91631271  0.08952896  0.12969035  1
  Zr  Zr42  1  0.79746488  0.00496014  0.50222453  1
  Zr  Zr43  1  0.20244430  0.61655423  -0.01781124  1
  Zr  Zr44  1  0.71850939  0.49660623  0.37267748  1
  Zr  Zr45  1  -0.01182488  0.42549796  0.24364990  1
  Zr  Zr46  1  0.79838427  0.78835437  0.00204899  1
  Zr  Zr47  1  0.62014325  0.21440547  0.23936921  1
  Zr  Zr48  1  -0.00073711  0.19049728  0.25501526  1
  Zr  Zr49  1  0.28683119  0.31627111  0.35902072  1
  Zr  Zr50  1  0.09139805  0.49744032  0.87387634  1
  Zr  Zr51  1  0.39444707  -0.00631677  0.23338811  1
  Zr  Zr52  1  0.29276947  0.90397472  0.62996396  1
  Zr  Zr53  1  0.50775200  0.32261939  0.11782690  1
  Zr  Zr54  1  0.80706656  0.40010664  0.51032251  1
  Zr  Zr55  1  0.12539073  0.50388428  0.38193417  1
  Zr  Zr56  1  0.20501671  0.38374468  0.75788312  1
  Zr  Zr57  1  0.91185465  0.67813381  0.13385880  1
  Zr  Zr58  1  0.41747442  0.61081059  0.24557125  1
  Zr  Zr59  1  0.29663768  0.30463697  0.12954401  1
  Zr  Zr60  1  0.30746946  0.10405112  0.61826191  1
  Zr  Zr61  1  0.31755592  0.09150251  0.38169713  1
  Zr  Zr62  1  0.59187023  0.80707255  -0.00509297  1
  Zr  Zr63  1  0.79836025  0.39462181  0.75257454  1
  Zr  Zr64  1  0.90848174  0.28597814  0.87282704  1
  Zr  Zr65  1  0.29977683  0.69900301  0.12193707  1
  Zr  Zr66  1  0.40318157  0.01212484  0.76299145  1
  Zr  Zr67  1  -0.00459129  0.80465318  0.00293331  1
  Zr  Zr68  1  0.71523113  0.09134174  0.12282642  1
  Zr  Zr69  1  0.20371490  0.20725572  0.49188302  1
  Zr  Zr70  1  0.58756950  0.00791548  0.24443987  1
  Zr  Zr71  1  0.79982969  0.58490351  -0.01366645  1
  Zr  Zr72  1  0.19100551  0.79038514  0.24879180  1
  Zr  Zr73  1  0.58472208  0.19901906  0.75348161  1
  Zr  Zr74  1  0.90933361  0.29144595  0.62247413  1
  Zr  Zr75  1  0.49723525  0.90603367  0.62300884  1
  Zr  Zr76  1  0.18670681  -0.00441827  0.25075821  1
  Zr  Zr77  1  0.87594264  0.30057386  0.36556791  1
  Zr  Zr78  1  0.09244129  0.08607362  0.38725659  1
  Zr  Zr79  1  0.01914517  0.18510371  0.74985549  1
  Ta  Ta80  1  0.60795788  0.20409713  0.00785152  1
  Ta  Ta81  1  0.60880908  0.60863773  0.49154596  1
  Ta  Ta82  1  0.19841093  0.39475916  -0.00337341  1
  Ta  Ta83  1  0.68369192  0.29724809  0.63187117  1
  Ta  Ta84  1  0.18633788  0.01669551  0.74991772  1
  Ta  Ta85  1  0.09407484  0.69803749  0.64558395  1
  Ta  Ta86  1  0.60366182  0.00199318  0.75341042  1
  Ta  Ta87  1  0.49125453  0.29477478  0.61859319  1
  Ta  Ta88  1  0.49233489  0.51699175  0.38588243  1
  Ta  Ta89  1  0.29997005  0.30464684  0.62366418  1
  Ta  Ta90  1  0.69074602  0.90085825  0.62464325  1
  Ta  Ta91  1  0.30155680  0.69570107  0.64004884  1
  Ta  Ta92  1  0.10007408  0.10040784  0.89466448  1
  Ta  Ta93  1  0.08552198  0.87833566  0.38221111  1
  Ta  Ta94  1  0.80297444  0.60309810  0.75923978  1
  Ta  Ta95  1  0.30914936  0.50273211  0.63798577  1
  Ta  Ta96  1  0.02217937  0.61354854  0.50340203  1
  Ta  Ta97  1  0.87958737  0.30305756  0.13374032  1
  Ta  Ta98  1  0.71012479  0.48817629  0.12848011  1
  Ta  Ta99  1  0.09039307  0.71575852  0.85700676  1
  Ta  Ta100  1  0.68881759  0.29181892  0.87420303  1
  Ta  Ta101  1  0.58982553  0.00816605  0.49301611  1
  Ta  Ta102  1  0.90787472  0.07538013  0.87660675  1
  Ta  Ta103  1  0.08074348  0.90266968  0.63423099  1
  Ta  Ta104  1  0.78591375  0.38949700  -0.00860512  1
  Ta  Ta105  1  0.50857646  0.71387513  0.38810941  1
  Ta  Ta106  1  0.80309629  -0.00750346  0.74081646  1
  Ta  Ta107  1  0.41920494  0.60355994  -0.01645953  1
  Ta  Ta108  1  0.19832402  0.80740769  0.74975902  1
  Ta  Ta109  1  0.80352089  0.79657581  0.25617090  1
  Ta  Ta110  1  0.70515756  0.09380989  0.88126112  1
  Ta  Ta111  1  0.80457311  0.79662543  0.74286635  1
  Ta  Ta112  1  0.50148307  0.30526729  0.89236077  1
  Ta  Ta113  1  0.29129758  0.89321026  0.38017261  1
  Ta  Ta114  1  0.88781986  0.89576805  0.13717888  1
  Ta  Ta115  1  0.39719910  0.41721574  0.25262310  1
  Ta  Ta116  1  0.59474031  0.79917518  0.75828782  1
  Ta  Ta117  1  -0.00779287  0.61067524  -0.02102662  1
  Ta  Ta118  1  0.51310912  0.10214752  0.89446699  1
  Ta  Ta119  1  0.20356932  0.60372028  0.75898806  1
  Ti  Ti120  1  0.59686072  0.19646255  0.49783949  1
  Ti  Ti121  1  0.49842975  0.10088465  0.62104643  1
  Ti  Ti122  1  0.69539253  0.69670826  0.86721985  1
  Ti  Ti123  1  0.19660793  0.59236680  0.24668508  1
  Ti  Ti124  1  0.69408509  0.89532499  0.12904069  1
  Ti  Ti125  1  0.18766250  0.80344523  -0.01002199  1
  Ti  Ti126  1  0.70745668  0.70239107  0.37365997  1
  Ti  Ti127  1  0.22551626  0.59248743  0.51103008  1
  Ti  Ti128  1  0.20850826  0.19875969  0.75185044  1
  Ti  Ti129  1  0.10069103  0.30153267  0.60753247  1
  Ti  Ti130  1  0.48712375  0.91254264  0.38370040  1
  Ti  Ti131  1  0.80690721  -0.01596449  0.00042775  1
  Ti  Ti132  1  -0.01169915  0.60870630  0.76296868  1
  Ti  Ti133  1  0.39407216  0.20523572  0.76124957  1
  Ti  Ti134  1  0.69608402  0.11063455  0.36668256  1
  Ti  Ti135  1  -0.00968980  0.79410421  0.51096288  1
  Ti  Ti136  1  0.11485615  0.09290843  0.10669775  1
  Ti  Ti137  1  0.90549422  0.08440550  0.62466841  1
  Ti  Ti138  1  0.39809895  0.80597661  0.25441334  1
  Ti  Ti139  1  0.40141129  0.20368660  0.01453872  1
  Ti  Ti140  1  0.19792160  -0.01656124  0.49840855  1
  Ti  Ti141  1  0.88405383  0.08282876  0.36296594  1
  Ti  Ti142  1  -0.01011111  -0.02178844  0.26029814  1
  Ti  Ti143  1  0.81969369  0.58593273  0.25724297  1
  Ti  Ti144  1  0.00415228  0.78929534  0.24519625  1
  Ti  Ti145  1  0.00403543  0.19850366  0.00504672  1
  Ti  Ti146  1  0.50221233  0.70834624  0.11761089  1
  Ti  Ti147  1  0.08466551  0.90300854  0.12011146  1
  Ti  Ti148  1  0.40440878  0.40508292  -0.00389176  1
  Ti  Ti149  1  0.92005068  0.70295063  0.36905200  1
  Ti  Ti150  1  0.92450061  0.50312709  0.38838081  1
  Ti  Ti151  1  0.51558590  0.51886209  0.11461111  1
  Ti  Ti152  1  -0.01817574  0.19089915  0.49050727  1
  Ti  Ti153  1  0.40940715  0.19616133  0.49577786  1
  Ti  Ti154  1  0.89826026  0.88902547  0.86548315  1
  Ti  Ti155  1  0.68773167  0.09593900  0.62642733  1
  Ti  Ti156  1  0.11718891  0.28645894  0.88822500  1
  Ti  Ti157  1  -0.01301730  -0.01903685  0.49440692  1
  Ti  Ti158  1  0.40076830  0.80341374  0.76550737  1
  Ti  Ti159  1  0.60778319  0.60523976  0.26208751  1
  Mo  Mo160  1  0.30700062  0.29697622  0.89004846  1
  Mo  Mo161  1  0.89262332  0.49757608  0.12214757  1
  Mo  Mo162  1  0.78971220  0.39426477  0.24636706  1
  Mo  Mo163  1  0.50340303  0.49606332  0.88351963  1
  Mo  Mo164  1  0.40390308  0.60490935  0.50575201  1
  Mo  Mo165  1  0.89167361  0.49823336  0.86776043  1
  Mo  Mo166  1  0.10466720  0.70911877  0.11755626  1
  Mo  Mo167  1  0.50927230  0.10019539  0.37648344  1
  Mo  Mo168  1  0.70591486  0.30298875  0.11681133  1
  Mo  Mo169  1  0.60496093  0.60465932  0.74663144  1
  Mo  Mo170  1  -0.00622026  0.00560338  0.74673824  1
  Mo  Mo171  1  0.20290564  0.40490729  0.51205714  1
  Mo  Mo172  1  0.60615677  0.80733394  0.49093527  1
  Mo  Mo173  1  -0.00898697  0.00091521  0.00415391  1
  Mo  Mo174  1  0.30639328  0.50634086  0.36918375  1
  Mo  Mo175  1  0.80110264  0.19172591  0.25000083  1
  Mo  Mo176  1  0.00446700  0.40574976  0.50227504  1
  Mo  Mo177  1  0.09976915  0.69578545  0.38088763  1
  Mo  Mo178  1  0.61349765  0.00211312  0.00372689  1
  Mo  Mo179  1  0.90713458  0.70205717  0.62866335  1
  Mo  Mo180  1  0.51364416  0.70028553  0.87011317  1
  Mo  Mo181  1  -0.00890094  0.80420608  0.74477056  1
  Mo  Mo182  1  0.60197397  0.40908492  0.00254061  1
  Mo  Mo183  1  0.69383776  0.29485470  0.37963841  1
  Mo  Mo184  1  0.50565616  0.91141965  0.86508065  1
  Mo  Mo185  1  0.20027754  0.40946813  0.23913678  1
  Mo  Mo186  1  0.19381285  -0.00617147  0.00291073  1
  Mo  Mo187  1  0.60301270  0.60509211  0.00346270  1
  Mo  Mo188  1  0.29595178  0.70778304  0.85860640  1
  Mo  Mo189  1  0.89378648  0.89822409  0.62628026  1
  Mo  Mo190  1  0.89352179  0.70345987  0.86979981  1
  Mo  Mo191  1  0.79723697  -0.00866552  0.25283328  1
  Mo  Mo192  1  0.29743048  0.10221748  0.10902974  1
  Mo  Mo193  1  0.50068884  0.88893571  0.12680706  1
  Mo  Mo194  1  0.59178441  0.39229761  0.74469720  1
  Mo  Mo195  1  0.19771495  0.20426792  0.01206220  1
  Mo  Mo196  1  0.50813595  0.10238887  0.10468688  1
  Mo  Mo197  1  0.90117472  0.89089160  0.36653641  1
  Mo  Mo198  1  0.39771222  0.00147469  0.49624005  1
  Mo  Mo199  1  0.00904213  0.60996464  0.25895651  1
