# generated using pymatgen
data_HfZrTaTiMo
_symmetry_space_group_name_H-M   'P 1'
_cell_length_a   15.21527822
_cell_length_b   15.22939849
_cell_length_c   16.85815251
_cell_angle_alpha   89.99156681
_cell_angle_beta   90.00679809
_cell_angle_gamma   90.04308466
_symmetry_Int_Tables_number   1
_chemical_formula_structural   HfZrTaTiMo
_chemical_formula_sum   'Hf40 Zr40 Ta40 Ti40 Mo40'
_cell_volume   3906.36208933
_cell_formula_units_Z   40
loop_
 _symmetry_equiv_pos_site_id
 _symmetry_equiv_pos_as_xyz
  1  'x, y, z'
loop_
 _atom_site_type_symbol
 _atom_site_label
 _atom_site_symmetry_multiplicity
 _atom_site_fract_x
 _atom_site_fract_y
 _atom_site_fract_z
 _atom_site_occupancy
  Hf  Hf0  1  0.79200383  0.17121210  -0.00355406  1
  Hf  Hf1  1  0.41747847  0.41573360  0.50511194  1
  Hf  Hf2  1  0.89641889  0.50118248  0.62563332  1
  Hf  Hf3  1  0.20304059  0.81683511  0.51187821  1
  Hf  Hf4  1  0.09551725  0.30678480  0.12413620  1
  Hf  Hf5  1  -0.00735431  -0.01057819  0.24368180  1
  Hf  Hf6  1  0.89725199  0.08567047  0.63777769  1
  Hf  Hf7  1  0.30525264  0.51228818  0.63127869  1
  Hf  Hf8  1  0.79765565  -0.00467693  0.25892780  1
  Hf  Hf9  1  0.70644162  0.48954547  0.12454244  1
  Hf  Hf10  1  0.09689268  0.50562361  0.62365036  1
  Hf  Hf11  1  0.10688073  0.89600329  0.37447483  1
  Hf  Hf12  1  0.21597521  0.60266127  0.00600341  1
  Hf  Hf13  1  0.19197747  0.58649775  0.24830476  1
  Hf  Hf14  1  0.81311912  0.80408409  0.50120611  1
  Hf  Hf15  1  0.68418834  0.88983916  0.88086006  1
  Hf  Hf16  1  0.69701612  0.89611657  0.38019227  1
  Hf  Hf17  1  0.79478716  0.59504506  0.49757187  1
  Hf  Hf18  1  0.58115290  -0.02758936  0.75071892  1
  Hf  Hf19  1  0.00516095  0.38684501  0.49402013  1
  Hf  Hf20  1  0.69955049  0.69142985  0.62400692  1
  Hf  Hf21  1  0.10747181  0.88399067  0.12352491  1
  Hf  Hf22  1  0.50626687  0.30609494  0.62473130  1
  Hf  Hf23  1  0.31524966  0.90556899  0.14989830  1
  Hf  Hf24  1  0.01978433  0.40366555  0.26808944  1
  Hf  Hf25  1  0.37885744  0.00275626  0.50895004  1
  Hf  Hf26  1  0.50180916  0.30369273  0.11492099  1
  Hf  Hf27  1  0.31234272  0.50589944  0.36940435  1
  Hf  Hf28  1  0.60397139  0.60364760  0.76032846  1
  Hf  Hf29  1  0.70435874  0.68203370  0.13106580  1
  Hf  Hf30  1  0.39001465  0.19923556  0.24610889  1
  Hf  Hf31  1  0.21229835  0.39915429  0.49114062  1
  Hf  Hf32  1  0.68596815  0.10152345  0.37640877  1
  Hf  Hf33  1  0.31134779  0.91007343  0.87277052  1
  Hf  Hf34  1  0.89506141  0.09488428  0.85839711  1
  Hf  Hf35  1  0.80431004  0.20090043  0.49570063  1
  Hf  Hf36  1  0.69881549  0.30710475  0.36359619  1
  Hf  Hf37  1  0.39542085  0.40682284  0.23757766  1
  Hf  Hf38  1  0.68682238  0.49293467  0.89608566  1
  Hf  Hf39  1  0.28425881  0.30974595  0.11959569  1
  Zr  Zr40  1  0.90053409  0.29763435  0.13005170  1
  Zr  Zr41  1  0.18625848  0.20679625  0.50301579  1
  Zr  Zr42  1  0.82057038  0.79587890  0.24582695  1
  Zr  Zr43  1  -0.00401227  0.20634649  -0.01110531  1
  Zr  Zr44  1  -0.01220263  0.60156954  0.24850990  1
  Zr  Zr45  1  0.49447136  0.29733390  0.37720655  1
  Zr  Zr46  1  0.19098258  0.19443817  -0.01039240  1
  Zr  Zr47  1  0.00490340  0.60277905  0.77019354  1
  Zr  Zr48  1  0.81128855  0.38776902  -0.00527167  1
  Zr  Zr49  1  0.60256083  0.18772932  0.75180145  1
  Zr  Zr50  1  0.49007869  0.51741463  0.89562334  1
  Zr  Zr51  1  0.79780332  0.40710770  0.75504875  1
  Zr  Zr52  1  0.01916844  0.79513785  -0.02394374  1
  Zr  Zr53  1  0.69977710  0.29333517  0.13064215  1
  Zr  Zr54  1  0.50220749  0.68591841  0.61665566  1
  Zr  Zr55  1  0.49506035  0.89936350  0.37485989  1
  Zr  Zr56  1  0.40653433  0.40781014  0.74858527  1
  Zr  Zr57  1  0.70303132  0.68814602  0.35934202  1
  Zr  Zr58  1  0.91098602  0.70075730  0.62899128  1
  Zr  Zr59  1  0.19907604  0.61156223  0.49619764  1
  Zr  Zr60  1  0.49726163  0.09831294  0.62264672  1
  Zr  Zr61  1  0.39455517  0.18744776  0.00372898  1
  Zr  Zr62  1  -0.00542704  0.00106252  0.00125553  1
  Zr  Zr63  1  0.70142928  0.90117430  0.61508500  1
  Zr  Zr64  1  0.00083354  0.18972772  0.25215583  1
  Zr  Zr65  1  0.20855506  -0.00928773  0.00312499  1
  Zr  Zr66  1  0.30043699  0.30061150  0.87303658  1
  Zr  Zr67  1  0.70304195  0.28166664  0.87300058  1
  Zr  Zr68  1  0.91169027  0.70660747  0.10778159  1
  Zr  Zr69  1  0.50253637  0.31013607  0.89047489  1
  Zr  Zr70  1  0.90757012  0.28932359  0.63629283  1
  Zr  Zr71  1  0.29566870  0.71612612  0.35703541  1
  Zr  Zr72  1  0.59358707  0.80494165  0.23578811  1
  Zr  Zr73  1  0.48232468  0.08920384  0.86811368  1
  Zr  Zr74  1  0.20820792  0.81397891  0.74802124  1
  Zr  Zr75  1  0.49519288  0.88487178  0.60492891  1
  Zr  Zr76  1  0.59542448  0.80245067  0.02288131  1
  Zr  Zr77  1  0.79411749  0.79591883  0.75585514  1
  Zr  Zr78  1  0.19104025  0.02161402  0.24820633  1
  Zr  Zr79  1  0.29287271  0.11028641  0.37845193  1
  Ta  Ta80  1  0.29227660  0.71265636  0.13888304  1
  Ta  Ta81  1  0.51317265  0.50882898  0.11581480  1
  Ta  Ta82  1  0.59171992  0.19297543  0.24889874  1
  Ta  Ta83  1  0.60435983  0.00680545  0.00088625  1
  Ta  Ta84  1  0.80639671  0.00407272  0.49279380  1
  Ta  Ta85  1  0.19831606  0.40173482  0.75403382  1
  Ta  Ta86  1  0.80165507  0.19117808  0.25747548  1
  Ta  Ta87  1  0.88591990  0.08489906  0.12350833  1
  Ta  Ta88  1  0.70477454  0.29805487  0.62761111  1
  Ta  Ta89  1  0.51313951  0.72058289  0.88159525  1
  Ta  Ta90  1  0.78198620  0.00256213  0.75220451  1
  Ta  Ta91  1  0.31928354  0.70879090  0.87748937  1
  Ta  Ta92  1  -0.00701446  -0.01068238  0.50466425  1
  Ta  Ta93  1  0.29098373  0.51701978  0.86680364  1
  Ta  Ta94  1  0.30191369  0.91013168  0.35772172  1
  Ta  Ta95  1  0.90947175  0.50077403  0.11264379  1
  Ta  Ta96  1  0.40913255  0.60718501  0.23134205  1
  Ta  Ta97  1  0.60173683  0.40380572  0.74924278  1
  Ta  Ta98  1  0.70343122  0.49574565  0.35662276  1
  Ta  Ta99  1  0.49757181  0.68729597  0.36602236  1
  Ta  Ta100  1  0.80685861  0.60644945  -0.01487305  1
  Ta  Ta101  1  0.07766637  0.10207644  0.38885170  1
  Ta  Ta102  1  0.37982822  0.42293134  0.01008644  1
  Ta  Ta103  1  0.40264926  0.61475907  0.75381489  1
  Ta  Ta104  1  0.10697090  0.70105708  0.63658073  1
  Ta  Ta105  1  0.89969203  0.49971958  0.38321660  1
  Ta  Ta106  1  0.69160531  0.09265689  0.13457662  1
  Ta  Ta107  1  0.38398246  0.21385949  0.51303712  1
  Ta  Ta108  1  0.30670204  0.71207642  0.63013382  1
  Ta  Ta109  1  0.18200965  0.40761659  -0.01710206  1
  Ta  Ta110  1  0.01414910  0.58710204  -0.01407843  1
  Ta  Ta111  1  0.90536787  0.29406439  0.85904523  1
  Ta  Ta112  1  0.79783517  0.39861367  0.49842648  1
  Ta  Ta113  1  0.80134902  0.60363994  0.77826802  1
  Ta  Ta114  1  0.00199876  0.80450978  0.76462441  1
  Ta  Ta115  1  0.39312294  0.80736101  0.01232875  1
  Ta  Ta116  1  0.89394412  0.90239871  0.87054982  1
  Ta  Ta117  1  0.00909581  0.39827878  0.75721782  1
  Ta  Ta118  1  0.41949359  0.80982820  0.74996031  1
  Ta  Ta119  1  0.59405118  0.57895151  0.48930216  1
  Ti  Ti120  1  0.40713351  0.62095916  0.01976183  1
  Ti  Ti121  1  0.90639158  0.69454137  0.38149428  1
  Ti  Ti122  1  0.40235590  0.60617122  0.49563819  1
  Ti  Ti123  1  0.61342755  0.39861828  0.50122645  1
  Ti  Ti124  1  0.51606133  0.49532083  0.35480480  1
  Ti  Ti125  1  0.10480581  0.69293642  0.11915110  1
  Ti  Ti126  1  0.69914296  0.10318520  0.61840864  1
  Ti  Ti127  1  0.91142100  0.89563827  0.37872277  1
  Ti  Ti128  1  0.10455305  0.49362860  0.11982380  1
  Ti  Ti129  1  0.18909184  0.00497312  0.51239621  1
  Ti  Ti130  1  0.81675544  0.40328346  0.25173414  1
  Ti  Ti131  1  0.37846061  0.20054387  0.73051705  1
  Ti  Ti132  1  0.59415435  0.20239482  0.50072013  1
  Ti  Ti133  1  0.90888628  0.49252382  0.88252517  1
  Ti  Ti134  1  0.07994979  0.90280635  0.63369448  1
  Ti  Ti135  1  0.12883112  0.69401030  0.87059748  1
  Ti  Ti136  1  0.90759167  0.28699104  0.37544966  1
  Ti  Ti137  1  0.08683657  0.10529847  0.62124339  1
  Ti  Ti138  1  0.10388075  0.92145312  0.86557827  1
  Ti  Ti139  1  0.39221244  0.79573628  0.49126661  1
  Ti  Ti140  1  0.09651993  0.10589158  0.12228788  1
  Ti  Ti141  1  0.41157740  -0.00563822  0.00918898  1
  Ti  Ti142  1  0.01932807  0.19188518  0.75859105  1
  Ti  Ti143  1  0.59752838  0.00262643  0.50039113  1
  Ti  Ti144  1  0.60051844  0.77852682  0.48756673  1
  Ti  Ti145  1  0.28138568  0.10096393  0.85765227  1
  Ti  Ti146  1  0.01079882  0.79428567  0.25008815  1
  Ti  Ti147  1  0.49060077  0.09503769  0.37640893  1
  Ti  Ti148  1  0.49804105  0.08870846  0.13335203  1
  Ti  Ti149  1  0.09328762  0.69480361  0.37683561  1
  Ti  Ti150  1  0.80530776  0.80539185  -0.00380909  1
  Ti  Ti151  1  0.69190604  0.49527193  0.62749618  1
  Ti  Ti152  1  0.18735005  0.01861741  0.73394876  1
  Ti  Ti153  1  0.19300777  0.22692529  0.26828712  1
  Ti  Ti154  1  0.00825524  0.79156929  0.50571078  1
  Ti  Ti155  1  0.59679395  0.18886751  0.00021065  1
  Ti  Ti156  1  0.10844782  0.29909477  0.63446922  1
  Ti  Ti157  1  0.37859326  -0.00082383  0.72802329  1
  Ti  Ti158  1  0.71693303  0.91110037  0.11964555  1
  Ti  Ti159  1  0.29455490  0.10347826  0.12871255  1
  Mo  Mo160  1  0.50888535  0.91508518  0.13238059  1
  Mo  Mo161  1  0.59192627  0.39367369  0.00410911  1
  Mo  Mo162  1  0.10182182  0.09589500  0.86495220  1
  Mo  Mo163  1  0.21534710  0.79454535  -0.00416832  1
  Mo  Mo164  1  0.28329492  0.10918914  0.62566330  1
  Mo  Mo165  1  0.90387687  0.89781818  0.62921849  1
  Mo  Mo166  1  0.20964411  0.60745279  0.74705932  1
  Mo  Mo167  1  0.30452011  0.30808981  0.37579187  1
  Mo  Mo168  1  0.70119129  0.69729709  0.88894310  1
  Mo  Mo169  1  0.81213061  0.58565357  0.24798810  1
  Mo  Mo170  1  0.29682220  0.30862753  0.63089922  1
  Mo  Mo171  1  0.90485800  0.70412836  0.88538758  1
  Mo  Mo172  1  0.29549292  0.50540609  0.12508822  1
  Mo  Mo173  1  0.59786463  0.79157195  0.75073493  1
  Mo  Mo174  1  0.79623986  0.19396046  0.74452312  1
  Mo  Mo175  1  0.59811720  0.58977593  0.24767962  1
  Mo  Mo176  1  0.40902201  0.01135989  0.25337554  1
  Mo  Mo177  1  0.48767517  0.89634659  0.88308271  1
  Mo  Mo178  1  0.00247663  0.40282216  -0.00890780  1
  Mo  Mo179  1  0.59913430  0.39743367  0.24581834  1
  Mo  Mo180  1  0.59927888  0.00671906  0.24900396  1
  Mo  Mo181  1  0.60144193  0.60445885  0.00527866  1
  Mo  Mo182  1  0.90219859  0.89833163  0.11770395  1
  Mo  Mo183  1  0.09735387  0.30141565  0.86390605  1
  Mo  Mo184  1  0.09926396  0.29776699  0.37853510  1
  Mo  Mo185  1  -0.00134105  -0.01009517  0.74930315  1
  Mo  Mo186  1  0.69294556  0.08479798  0.87373973  1
  Mo  Mo187  1  0.49435209  0.70547434  0.12923329  1
  Mo  Mo188  1  -0.00918210  0.18798558  0.50223516  1
  Mo  Mo189  1  0.00030772  0.60143474  0.49616569  1
  Mo  Mo190  1  0.10744985  0.50171775  0.86956041  1
  Mo  Mo191  1  0.79369957  -0.01198892  -0.00239148  1
  Mo  Mo192  1  0.40072900  0.80089540  0.25130754  1
  Mo  Mo193  1  0.20316028  0.40030384  0.26371904  1
  Mo  Mo194  1  0.18838492  0.79785093  0.25083844  1
  Mo  Mo195  1  0.51444675  0.50429583  0.62616631  1
  Mo  Mo196  1  0.09475439  0.50984864  0.38912825  1
  Mo  Mo197  1  0.89521273  0.09091778  0.37898664  1
  Mo  Mo198  1  0.29214062  0.90389488  0.62752594  1
  Mo  Mo199  1  0.19694620  0.20659032  0.74197412  1
