# generated using pymatgen
data_HfZrTaTiMo
_symmetry_space_group_name_H-M   'P 1'
_cell_length_a   15.20087993
_cell_length_b   15.22285516
_cell_length_c   16.83146178
_cell_angle_alpha   89.96868959
_cell_angle_beta   89.99425796
_cell_angle_gamma   90.01959963
_symmetry_Int_Tables_number   1
_chemical_formula_structural   HfZrTaTiMo
_chemical_formula_sum   'Hf40 Zr40 Ta40 Ti40 Mo40'
_cell_volume   3894.81278247
_cell_formula_units_Z   40
loop_
 _symmetry_equiv_pos_site_id
 _symmetry_equiv_pos_as_xyz
  1  'x, y, z'
loop_
 _atom_site_type_symbol
 _atom_site_label
 _atom_site_symmetry_multiplicity
 _atom_site_fract_x
 _atom_site_fract_y
 _atom_site_fract_z
 _atom_site_occupancy
  Hf  Hf0  1  0.60953628  -0.01379938  0.74954878  1
  Hf  Hf1  1  0.18006910  0.78730911  0.49028864  1
  Hf  Hf2  1  0.81774924  0.00072819  0.75348403  1
  Hf  Hf3  1  0.09922190  0.52507147  0.64012760  1
  Hf  Hf4  1  0.39853715  0.20796668  0.75224139  1
  Hf  Hf5  1  -0.00258944  0.57757861  0.01049072  1
  Hf  Hf6  1  0.48755721  0.69907733  0.38173345  1
  Hf  Hf7  1  0.59689701  0.81096502  0.25158062  1
  Hf  Hf8  1  0.19321818  0.59853361  0.00683988  1
  Hf  Hf9  1  0.28560650  0.49828940  0.86545362  1
  Hf  Hf10  1  0.10230032  0.89000238  0.12776241  1
  Hf  Hf11  1  0.29468331  0.10056580  0.87259157  1
  Hf  Hf12  1  0.78873002  0.59160932  -0.00791642  1
  Hf  Hf13  1  0.31370694  0.10874898  0.36180960  1
  Hf  Hf14  1  0.50318014  0.89359548  0.88387222  1
  Hf  Hf15  1  0.09895884  0.10853692  0.35719603  1
  Hf  Hf16  1  0.19867729  0.39096898  0.74310985  1
  Hf  Hf17  1  0.89867742  0.68905498  0.87604624  1
  Hf  Hf18  1  0.19817093  0.19567486  0.49857575  1
  Hf  Hf19  1  0.60291811  0.61340117  0.76437937  1
  Hf  Hf20  1  0.20575251  0.21104591  0.01168847  1
  Hf  Hf21  1  0.60079190  0.58274738  0.49164163  1
  Hf  Hf22  1  0.38898377  0.79874775  0.25199654  1
  Hf  Hf23  1  0.20968134  -0.02245997  0.26149849  1
  Hf  Hf24  1  0.12028916  0.51013584  0.36497449  1
  Hf  Hf25  1  0.00811667  0.79403079  -0.00944815  1
  Hf  Hf26  1  0.40538509  0.80125430  0.74275435  1
  Hf  Hf27  1  0.90194829  0.30531879  0.36567834  1
  Hf  Hf28  1  0.50405738  0.90504583  0.10159472  1
  Hf  Hf29  1  0.70998979  0.90143483  0.09974044  1
  Hf  Hf30  1  0.00532685  0.00330373  0.00347083  1
  Hf  Hf31  1  0.70852119  0.30318539  0.13597368  1
  Hf  Hf32  1  0.39453392  0.40371611  0.23375095  1
  Hf  Hf33  1  0.80116058  -0.00043191  0.49773356  1
  Hf  Hf34  1  0.89102114  0.70235468  0.11707626  1
  Hf  Hf35  1  0.09989752  0.10691528  0.13909945  1
  Hf  Hf36  1  0.09603027  0.88948058  0.62625160  1
  Hf  Hf37  1  0.31670066  0.50064313  0.64334523  1
  Hf  Hf38  1  0.90550519  0.50320896  0.36898650  1
  Hf  Hf39  1  0.30239774  0.29817510  0.62095859  1
  Zr  Zr40  1  0.51183740  0.31232748  0.62588716  1
  Zr  Zr41  1  0.90787660  0.29291905  0.14505157  1
  Zr  Zr42  1  0.71532288  0.10748093  0.63022439  1
  Zr  Zr43  1  0.41918031  0.19208329  -0.00956794  1
  Zr  Zr44  1  0.00727678  -0.01282789  0.48144614  1
  Zr  Zr45  1  0.59211396  0.60902707  0.26148993  1
  Zr  Zr46  1  -0.00912659  -0.01132766  0.25495979  1
  Zr  Zr47  1  0.30291332  0.90037949  0.10926654  1
  Zr  Zr48  1  0.51567520  0.08463515  0.39088230  1
  Zr  Zr49  1  0.78505760  0.79891774  0.75204262  1
  Zr  Zr50  1  0.27219491  0.69488894  0.63060143  1
  Zr  Zr51  1  0.80654836  0.38593093  0.00177900  1
  Zr  Zr52  1  0.21423329  -0.01396617  0.48011052  1
  Zr  Zr53  1  0.59352433  0.18975307  0.26293785  1
  Zr  Zr54  1  0.68785748  0.10813377  0.11621031  1
  Zr  Zr55  1  -0.01476826  0.39458101  0.73717202  1
  Zr  Zr56  1  0.40399949  0.19643684  0.50566871  1
  Zr  Zr57  1  0.88754926  0.09515682  0.12513985  1
  Zr  Zr58  1  0.19956577  0.80210823  0.76568801  1
  Zr  Zr59  1  0.09750882  0.31077881  0.37783135  1
  Zr  Zr60  1  0.00987754  0.60467317  0.49898366  1
  Zr  Zr61  1  0.49681881  0.30646622  0.37652582  1
  Zr  Zr62  1  0.29659027  0.31855510  0.37700762  1
  Zr  Zr63  1  0.41874302  -0.00231942  0.25001482  1
  Zr  Zr64  1  0.71324635  0.31906009  0.62740304  1
  Zr  Zr65  1  0.10185389  0.08898415  0.62125119  1
  Zr  Zr66  1  0.38246303  0.39691838  0.01019746  1
  Zr  Zr67  1  0.69094659  0.70342782  0.11795820  1
  Zr  Zr68  1  0.60143651  0.02009227  -0.01947728  1
  Zr  Zr69  1  0.78841075  -0.01000792  0.25957055  1
  Zr  Zr70  1  -0.00384124  0.81427941  0.76645489  1
  Zr  Zr71  1  0.39047380  0.59742116  0.50335832  1
  Zr  Zr72  1  0.50440642  0.28420433  0.12682186  1
  Zr  Zr73  1  0.59800201  0.40323722  -0.00970124  1
  Zr  Zr74  1  0.20497626  0.42624814  0.50859554  1
  Zr  Zr75  1  0.79506701  0.58453331  0.75503471  1
  Zr  Zr76  1  0.61504813  0.20725133  0.76655116  1
  Zr  Zr77  1  0.39435760  0.59977052  -0.00433522  1
  Zr  Zr78  1  0.09991627  0.30518084  0.87613206  1
  Zr  Zr79  1  0.50434368  0.10037323  0.63070640  1
  Ta  Ta80  1  0.08720976  0.50463500  0.86366694  1
  Ta  Ta81  1  0.90058413  0.90025298  0.62341747  1
  Ta  Ta82  1  0.90004186  0.47996963  0.87406482  1
  Ta  Ta83  1  0.60065919  0.40725475  0.25171548  1
  Ta  Ta84  1  0.51928732  0.50256698  0.64034236  1
  Ta  Ta85  1  0.20776850  0.21910239  0.23799872  1
  Ta  Ta86  1  0.09609713  0.10088169  0.87593716  1
  Ta  Ta87  1  0.79952995  0.60827796  0.25641642  1
  Ta  Ta88  1  0.19128078  -0.00385728  0.76034871  1
  Ta  Ta89  1  0.89047783  0.49428477  0.14042612  1
  Ta  Ta90  1  0.61516860  0.41190833  0.76825467  1
  Ta  Ta91  1  0.59271508  0.79672325  0.51706714  1
  Ta  Ta92  1  0.68585669  0.89948596  0.38898654  1
  Ta  Ta93  1  0.61768796  0.20370273  0.49588674  1
  Ta  Ta94  1  -0.00172389  0.21243136  0.00374764  1
  Ta  Ta95  1  0.88714548  0.87521902  0.37887549  1
  Ta  Ta96  1  0.50368321  0.51162320  0.12589095  1
  Ta  Ta97  1  -0.01276337  0.79369442  0.25080964  1
  Ta  Ta98  1  0.30559983  0.90318266  0.88833512  1
  Ta  Ta99  1  0.00060695  0.18778468  0.74603968  1
  Ta  Ta100  1  0.80493050  0.60520784  0.49818155  1
  Ta  Ta101  1  0.31749707  0.10642016  0.13148352  1
  Ta  Ta102  1  0.38697543  0.80383153  0.50682823  1
  Ta  Ta103  1  0.39548475  -0.00738186  0.74782348  1
  Ta  Ta104  1  0.60465716  -0.01158598  0.52050075  1
  Ta  Ta105  1  0.59520087  0.60056144  -0.01276700  1
  Ta  Ta106  1  0.79462685  0.19343424  0.26936976  1
  Ta  Ta107  1  0.80604749  0.20445824  0.48713688  1
  Ta  Ta108  1  0.69800258  0.68552341  0.61864065  1
  Ta  Ta109  1  0.89529378  0.28390799  0.87091912  1
  Ta  Ta110  1  0.28280762  0.69544310  0.36864795  1
  Ta  Ta111  1  0.29779797  0.08984779  0.63279751  1
  Ta  Ta112  1  0.69814268  0.50286159  0.13334667  1
  Ta  Ta113  1  -0.00011191  0.60190539  0.24124390  1
  Ta  Ta114  1  0.91055513  0.09949487  0.61941615  1
  Ta  Ta115  1  0.49140649  0.70605360  0.11525313  1
  Ta  Ta116  1  0.48963550  0.49603197  0.86609457  1
  Ta  Ta117  1  0.09262080  0.29536504  0.61678087  1
  Ta  Ta118  1  0.29632311  0.70456305  0.12457808  1
  Ta  Ta119  1  0.88343863  0.49744227  0.61987067  1
  Ti  Ti120  1  0.70691382  0.71077669  0.38525435  1
  Ti  Ti121  1  0.17646039  0.40734390  0.02065422  1
  Ti  Ti122  1  0.49551714  0.89371066  0.38961208  1
  Ti  Ti123  1  0.20215887  0.79767330  -0.01086287  1
  Ti  Ti124  1  0.72891882  0.10990358  0.87455553  1
  Ti  Ti125  1  0.40195849  0.60564251  0.75692952  1
  Ti  Ti126  1  0.90833190  0.69601139  0.63501326  1
  Ti  Ti127  1  0.29446853  0.90245363  0.62748697  1
  Ti  Ti128  1  0.89832686  0.29080627  0.61849599  1
  Ti  Ti129  1  0.89604862  0.90720815  0.88806205  1
  Ti  Ti130  1  0.61844618  0.21678067  -0.02694051  1
  Ti  Ti131  1  0.10291710  0.68877853  0.87109803  1
  Ti  Ti132  1  0.30684237  0.30489550  0.87167470  1
  Ti  Ti133  1  0.42180095  0.41385148  0.50024217  1
  Ti  Ti134  1  0.79205257  0.79857694  0.51414680  1
  Ti  Ti135  1  0.01272994  0.40155417  0.24435293  1
  Ti  Ti136  1  0.70132284  0.49747199  0.36785669  1
  Ti  Ti137  1  0.20240141  0.00652616  0.00040989  1
  Ti  Ti138  1  0.91009421  0.10197911  0.88014435  1
  Ti  Ti139  1  0.19452446  0.19512077  0.74434918  1
  Ti  Ti140  1  0.89865197  0.09904282  0.37275630  1
  Ti  Ti141  1  0.40362510  -0.01023649  0.51146492  1
  Ti  Ti142  1  0.89653677  0.89322523  0.11310051  1
  Ti  Ti143  1  0.60558346  -0.00242785  0.24847573  1
  Ti  Ti144  1  0.49629487  0.09740458  0.86048888  1
  Ti  Ti145  1  0.79272021  0.79987112  0.25226482  1
  Ti  Ti146  1  -0.00367547  0.19844489  0.49621422  1
  Ti  Ti147  1  0.31992222  0.51297266  0.36297311  1
  Ti  Ti148  1  0.59811027  0.80030068  0.73387975  1
  Ti  Ti149  1  0.70097088  0.30727952  0.37264587  1
  Ti  Ti150  1  0.20019670  0.40838044  0.22303958  1
  Ti  Ti151  1  0.08604254  0.70169493  0.36022495  1
  Ti  Ti152  1  0.49369858  0.69279306  0.62198944  1
  Ti  Ti153  1  0.09932371  0.70049642  0.13036845  1
  Ti  Ti154  1  0.49782209  0.70604374  0.88178286  1
  Ti  Ti155  1  0.20787747  0.59999293  0.23394759  1
  Ti  Ti156  1  0.30365354  0.70168218  0.87522230  1
  Ti  Ti157  1  -0.00517516  0.40197811  0.50920529  1
  Ti  Ti158  1  -0.01717519  0.79037542  0.49694323  1
  Ti  Ti159  1  0.79151471  0.40817558  0.49384187  1
  Mo  Mo160  1  0.49268999  0.89506231  0.62410584  1
  Mo  Mo161  1  0.19763966  0.60307776  0.76453927  1
  Mo  Mo162  1  0.70440914  0.89239865  0.62139047  1
  Mo  Mo163  1  0.39701599  0.20002673  0.24783448  1
  Mo  Mo164  1  0.39473184  0.00858628  -0.00665954  1
  Mo  Mo165  1  0.08194766  0.70913105  0.63162912  1
  Mo  Mo166  1  0.18862209  0.78726084  0.25327180  1
  Mo  Mo167  1  0.09151230  0.50420104  0.13608617  1
  Mo  Mo168  1  0.29661185  0.29894437  0.12093238  1
  Mo  Mo169  1  0.60806079  0.40153141  0.49149156  1
  Mo  Mo170  1  0.80373405  0.19365900  -0.00335747  1
  Mo  Mo171  1  0.70825638  0.89987069  0.88582644  1
  Mo  Mo172  1  0.09221231  0.88328281  0.36599824  1
  Mo  Mo173  1  0.39622486  0.60424935  0.23908581  1
  Mo  Mo174  1  0.82056954  0.20043138  0.74752729  1
  Mo  Mo175  1  0.00294226  0.00219018  0.75859826  1
  Mo  Mo176  1  0.41102821  0.40114900  0.75538305  1
  Mo  Mo177  1  0.59984328  0.79227041  -0.00611973  1
  Mo  Mo178  1  0.80240375  0.80093689  -0.01528876  1
  Mo  Mo179  1  0.30910071  0.88524213  0.38072850  1
  Mo  Mo180  1  0.79974867  0.39106115  0.75333487  1
  Mo  Mo181  1  0.70127441  0.50428432  0.87965479  1
  Mo  Mo182  1  0.49828205  0.49681575  0.36601298  1
  Mo  Mo183  1  -0.00511173  0.60306302  0.75257214  1
  Mo  Mo184  1  0.68911195  0.71434096  0.88187049  1
  Mo  Mo185  1  0.09608228  0.30205644  0.12711836  1
  Mo  Mo186  1  0.10813514  0.91030852  0.88838951  1
  Mo  Mo187  1  0.89118204  0.69813458  0.37265722  1
  Mo  Mo188  1  0.49997760  0.09334004  0.12475819  1
  Mo  Mo189  1  0.29833637  0.51045437  0.12532903  1
  Mo  Mo190  1  0.00069728  0.39632941  0.00136905  1
  Mo  Mo191  1  0.69982438  0.50404430  0.62094675  1
  Mo  Mo192  1  0.70456203  0.09804674  0.38681052  1
  Mo  Mo193  1  0.39408505  0.79551473  -0.00471742  1
  Mo  Mo194  1  0.80748632  0.00286273  -0.01224176  1
  Mo  Mo195  1  0.79408550  0.40811137  0.25515402  1
  Mo  Mo196  1  0.49941283  0.30592630  0.86872967  1
  Mo  Mo197  1  0.20014890  0.60222067  0.49370778  1
  Mo  Mo198  1  0.00031912  0.19934948  0.25683302  1
  Mo  Mo199  1  0.71442788  0.30566965  0.86911200  1
