# generated using pymatgen
data_HfZrTaTiMo
_symmetry_space_group_name_H-M   'P 1'
_cell_length_a   15.20633651
_cell_length_b   15.21607886
_cell_length_c   16.84233686
_cell_angle_alpha   89.98355476
_cell_angle_beta   89.98093688
_cell_angle_gamma   90.03778187
_symmetry_Int_Tables_number   1
_chemical_formula_structural   HfZrTaTiMo
_chemical_formula_sum   'Hf40 Zr40 Ta40 Ti40 Mo40'
_cell_volume   3896.99241342
_cell_formula_units_Z   40
loop_
 _symmetry_equiv_pos_site_id
 _symmetry_equiv_pos_as_xyz
  1  'x, y, z'
loop_
 _atom_site_type_symbol
 _atom_site_label
 _atom_site_symmetry_multiplicity
 _atom_site_fract_x
 _atom_site_fract_y
 _atom_site_fract_z
 _atom_site_occupancy
  Hf  Hf0  1  0.50138544  0.29194168  0.36435271  1
  Hf  Hf1  1  0.30185405  0.50485470  0.12906989  1
  Hf  Hf2  1  0.69871542  0.10727596  0.36312422  1
  Hf  Hf3  1  0.70025158  0.31017271  0.35786964  1
  Hf  Hf4  1  -0.02179694  0.39992178  0.24385709  1
  Hf  Hf5  1  0.81874749  0.59388908  0.24650099  1
  Hf  Hf6  1  -0.00149252  0.79876763  0.74316580  1
  Hf  Hf7  1  0.71256510  0.09298376  0.13510918  1
  Hf  Hf8  1  0.10031236  0.29133463  0.37510072  1
  Hf  Hf9  1  -0.00048855  -0.00395217  0.76363737  1
  Hf  Hf10  1  0.68334301  0.89114916  0.87966725  1
  Hf  Hf11  1  0.90730142  0.10211504  0.12073217  1
  Hf  Hf12  1  0.10108142  0.49589610  0.62278669  1
  Hf  Hf13  1  0.09724073  0.49492095  0.12487925  1
  Hf  Hf14  1  0.40612465  0.60445067  0.74519364  1
  Hf  Hf15  1  0.88813179  0.31589612  0.63609894  1
  Hf  Hf16  1  0.19407294  0.79914031  0.49683771  1
  Hf  Hf17  1  0.19404708  0.60190599  0.49093656  1
  Hf  Hf18  1  -0.00162959  0.20365354  0.75345721  1
  Hf  Hf19  1  0.09390959  0.90041023  0.37788762  1
  Hf  Hf20  1  0.07644576  0.69481113  0.36715579  1
  Hf  Hf21  1  0.69636745  0.90517379  0.37528302  1
  Hf  Hf22  1  -0.00073042  0.21725049  -0.00927106  1
  Hf  Hf23  1  0.20808322  0.20025647  0.24602201  1
  Hf  Hf24  1  0.01107166  0.60689940  0.75439966  1
  Hf  Hf25  1  0.31822980  0.10165364  0.62972931  1
  Hf  Hf26  1  0.70862388  0.69599843  0.37978895  1
  Hf  Hf27  1  0.39393097  0.59447128  0.49308026  1
  Hf  Hf28  1  0.39626605  0.40867009  0.25485698  1
  Hf  Hf29  1  0.21195671  0.19876918  0.50989588  1
  Hf  Hf30  1  0.88928053  0.09959411  0.62077988  1
  Hf  Hf31  1  0.89430708  0.87837279  0.39046943  1
  Hf  Hf32  1  0.90006568  0.49434016  0.10243935  1
  Hf  Hf33  1  0.49920643  0.49393482  0.61882526  1
  Hf  Hf34  1  0.50377477  0.70244421  0.36488995  1
  Hf  Hf35  1  0.40243934  0.62212288  0.00326818  1
  Hf  Hf36  1  0.49514875  0.90619244  0.36724727  1
  Hf  Hf37  1  0.10859804  0.10932151  0.87941917  1
  Hf  Hf38  1  0.79416099  0.80400955  0.24304040  1
  Hf  Hf39  1  0.20232081  -0.01619737  0.75885457  1
  Zr  Zr40  1  0.09523025  0.69417855  0.13321467  1
  Zr  Zr41  1  0.80721616  0.38623240  -0.02124118  1
  Zr  Zr42  1  0.89533415  0.89888205  0.11341642  1
  Zr  Zr43  1  0.51200127  0.49830292  0.38013249  1
  Zr  Zr44  1  0.78906205  0.20125345  0.76160507  1
  Zr  Zr45  1  0.58205254  0.38385796  0.74878512  1
  Zr  Zr46  1  0.80106920  0.19520964  -0.01169960  1
  Zr  Zr47  1  0.70110167  0.90210790  0.61898216  1
  Zr  Zr48  1  0.60416527  0.38247133  0.50592748  1
  Zr  Zr49  1  0.59818381  0.78921790  0.74127182  1
  Zr  Zr50  1  0.39539569  0.80403380  0.73318489  1
  Zr  Zr51  1  0.21164333  0.79104372  0.01128527  1
  Zr  Zr52  1  0.80175378  -0.00392220  0.76064609  1
  Zr  Zr53  1  0.91529146  0.70502982  0.89368546  1
  Zr  Zr54  1  0.30927220  0.10979226  0.88051782  1
  Zr  Zr55  1  0.07243156  0.49279342  0.37994323  1
  Zr  Zr56  1  0.69741864  0.69733163  0.11802909  1
  Zr  Zr57  1  0.00330832  0.20917322  0.51564853  1
  Zr  Zr58  1  0.40723066  0.21492762  0.00169673  1
  Zr  Zr59  1  0.19256248  0.80485868  0.24832303  1
  Zr  Zr60  1  0.69493697  0.49392358  0.11373919  1
  Zr  Zr61  1  0.80173446  0.60859943  0.76428401  1
  Zr  Zr62  1  0.49396449  0.50594053  0.87326216  1
  Zr  Zr63  1  0.70536977  0.49257842  0.63968336  1
  Zr  Zr64  1  0.59966456  0.80339807  0.50136673  1
  Zr  Zr65  1  0.60163379  0.20586226  0.01258618  1
  Zr  Zr66  1  0.30213044  0.10188874  0.11651095  1
  Zr  Zr67  1  0.20348841  0.39681471  0.50096066  1
  Zr  Zr68  1  0.90197431  0.09635706  0.38065858  1
  Zr  Zr69  1  0.20575488  -0.00501144  -0.00564468  1
  Zr  Zr70  1  0.20939120  0.22366296  0.73713836  1
  Zr  Zr71  1  0.69210595  0.49989550  0.86876015  1
  Zr  Zr72  1  0.38836470  0.80424886  0.50253663  1
  Zr  Zr73  1  0.89966319  0.89379714  0.61140077  1
  Zr  Zr74  1  -0.00774666  -0.00637424  0.25142868  1
  Zr  Zr75  1  0.31626195  0.88192879  0.87756071  1
  Zr  Zr76  1  0.89990440  0.30724596  0.38038564  1
  Zr  Zr77  1  0.20025263  0.59822738  -0.00191560  1
  Zr  Zr78  1  0.41292142  0.00826347  0.75570283  1
  Zr  Zr79  1  0.10516836  0.08753100  0.63106147  1
  Ta  Ta80  1  0.41217674  0.20605101  0.49990331  1
  Ta  Ta81  1  0.31271550  0.89746068  0.13420580  1
  Ta  Ta82  1  0.11055811  0.31484164  0.87522446  1
  Ta  Ta83  1  0.50024562  0.09668813  0.13148271  1
  Ta  Ta84  1  0.20939715  -0.00173333  0.49733651  1
  Ta  Ta85  1  0.19550067  0.00624782  0.24534684  1
  Ta  Ta86  1  0.10985140  0.09612464  0.37887308  1
  Ta  Ta87  1  0.30169640  0.70242462  0.36129563  1
  Ta  Ta88  1  0.68968379  0.09184741  0.87868281  1
  Ta  Ta89  1  0.50973004  0.69092425  0.61137235  1
  Ta  Ta90  1  0.78761362  0.79970063  -0.00166542  1
  Ta  Ta91  1  0.37489296  0.40252863  0.74035178  1
  Ta  Ta92  1  0.42078894  -0.01800286  0.00546125  1
  Ta  Ta93  1  0.59663350  0.20387428  0.23493757  1
  Ta  Ta94  1  0.80734215  0.41084186  0.50106674  1
  Ta  Ta95  1  0.41582347  0.21828457  0.75412904  1
  Ta  Ta96  1  0.78272047  0.21116105  0.50386153  1
  Ta  Ta97  1  0.30863511  0.10572173  0.37076093  1
  Ta  Ta98  1  0.71636504  0.30471847  0.13623662  1
  Ta  Ta99  1  0.29754544  0.91117950  0.36549243  1
  Ta  Ta100  1  0.29390022  0.49201495  0.87729376  1
  Ta  Ta101  1  0.90396217  0.69555132  0.10141328  1
  Ta  Ta102  1  0.09729990  0.90727653  0.11839973  1
  Ta  Ta103  1  0.71032586  0.68990322  0.61486259  1
  Ta  Ta104  1  0.20362537  0.58676937  0.26463905  1
  Ta  Ta105  1  0.20735706  0.58781140  0.74989393  1
  Ta  Ta106  1  0.10107815  0.10336184  0.11345359  1
  Ta  Ta107  1  0.60212414  0.59769094  0.24596748  1
  Ta  Ta108  1  0.30004621  0.30590389  0.12710728  1
  Ta  Ta109  1  0.50110743  0.10250972  0.36454485  1
  Ta  Ta110  1  0.00939946  0.19720361  0.24437507  1
  Ta  Ta111  1  0.79696939  -0.00240719  -0.01029096  1
  Ta  Ta112  1  0.60207838  -0.00629646  0.24213348  1
  Ta  Ta113  1  0.57137606  0.80423465  0.01167838  1
  Ta  Ta114  1  0.40225856  0.01055340  0.49400444  1
  Ta  Ta115  1  0.00023459  0.40706983  0.75904971  1
  Ta  Ta116  1  0.20305862  0.39024692  0.00377810  1
  Ta  Ta117  1  0.89954329  0.51037203  0.63065521  1
  Ta  Ta118  1  0.49884039  0.91801600  0.61415861  1
  Ta  Ta119  1  0.59853077  0.00076677  0.75009006  1
  Ti  Ti120  1  0.51262779  0.10965501  0.61817525  1
  Ti  Ti121  1  -0.01592962  0.78772152  0.24387514  1
  Ti  Ti122  1  0.80172250  0.79776418  0.75515049  1
  Ti  Ti123  1  0.49851815  0.51276721  0.13175845  1
  Ti  Ti124  1  0.29576537  0.90565337  0.62279937  1
  Ti  Ti125  1  0.59176490  0.18719605  0.75402215  1
  Ti  Ti126  1  -0.00950381  0.76524625  0.51383375  1
  Ti  Ti127  1  0.30390919  0.30749682  0.87978528  1
  Ti  Ti128  1  0.68093625  0.29562775  0.87070931  1
  Ti  Ti129  1  0.19424552  0.39638832  0.25486457  1
  Ti  Ti130  1  0.00904854  -0.00209999  0.50203656  1
  Ti  Ti131  1  0.50375503  0.31639388  0.13680100  1
  Ti  Ti132  1  0.69181212  0.89846937  0.12399885  1
  Ti  Ti133  1  0.59097870  0.39665656  -0.00276450  1
  Ti  Ti134  1  0.68331776  0.69750524  0.88184593  1
  Ti  Ti135  1  0.09921294  0.50612327  0.88156029  1
  Ti  Ti136  1  0.40335713  0.40976173  0.00414997  1
  Ti  Ti137  1  0.29708938  0.69318595  0.86884297  1
  Ti  Ti138  1  0.19092308  0.78177999  0.74441710  1
  Ti  Ti139  1  0.79713695  0.59748728  -0.01541813  1
  Ti  Ti140  1  0.50698502  0.09974062  0.88421888  1
  Ti  Ti141  1  0.39753324  0.00889515  0.24635696  1
  Ti  Ti142  1  0.10367676  0.89033721  0.62008609  1
  Ti  Ti143  1  0.31720781  0.69959201  0.15184394  1
  Ti  Ti144  1  0.60218941  -0.00148520  0.01019092  1
  Ti  Ti145  1  0.49474705  0.72034522  0.87432029  1
  Ti  Ti146  1  0.30574895  0.29922975  0.37066289  1
  Ti  Ti147  1  0.78983889  0.00521886  0.49784728  1
  Ti  Ti148  1  0.39196009  0.39435828  0.50165481  1
  Ti  Ti149  1  -0.00079632  0.00168185  -0.01213364  1
  Ti  Ti150  1  0.69182605  0.09749694  0.61915363  1
  Ti  Ti151  1  0.89876730  0.89740576  0.88692077  1
  Ti  Ti152  1  0.28999079  0.69022755  0.62395099  1
  Ti  Ti153  1  0.68649578  0.28684935  0.62987458  1
  Ti  Ti154  1  0.09608078  0.29878965  0.12174874  1
  Ti  Ti155  1  0.81442574  0.60668992  0.49969818  1
  Ti  Ti156  1  0.70822525  0.50136197  0.37477356  1
  Ti  Ti157  1  0.09632838  0.87520914  0.88501709  1
  Ti  Ti158  1  0.81758678  0.20816108  0.24472699  1
  Ti  Ti159  1  0.59095079  0.60565701  0.00409749  1
  Mo  Mo160  1  0.19253922  0.40907876  0.75353605  1
  Mo  Mo161  1  -0.01076440  0.59005926  0.50947727  1
  Mo  Mo162  1  0.39858363  0.80781885  0.25593689  1
  Mo  Mo163  1  0.60305618  0.40722765  0.24245811  1
  Mo  Mo164  1  0.90618320  0.29640274  0.12689827  1
  Mo  Mo165  1  0.49219462  0.28864856  0.62132514  1
  Mo  Mo166  1  0.00593443  0.80731180  0.00360953  1
  Mo  Mo167  1  0.79499991  0.40172999  0.24675518  1
  Mo  Mo168  1  0.09252100  0.30441694  0.62860432  1
  Mo  Mo169  1  0.80581840  0.39765721  0.77056478  1
  Mo  Mo170  1  0.59449863  0.01655145  0.49592260  1
  Mo  Mo171  1  0.30726138  0.30871370  0.62205100  1
  Mo  Mo172  1  0.90025496  0.68935635  0.37392918  1
  Mo  Mo173  1  0.49951129  0.70105989  0.14451609  1
  Mo  Mo174  1  0.59547848  0.60966520  0.74255672  1
  Mo  Mo175  1  -0.00173571  0.60006720  0.24127952  1
  Mo  Mo176  1  0.00292863  0.59733248  -0.00940710  1
  Mo  Mo177  1  0.20046697  0.21170491  0.00464918  1
  Mo  Mo178  1  0.39981899  0.79656668  0.01080932  1
  Mo  Mo179  1  0.61315782  0.59491009  0.50146838  1
  Mo  Mo180  1  0.29551161  0.49390940  0.37024664  1
  Mo  Mo181  1  0.90681390  0.30305706  0.86009137  1
  Mo  Mo182  1  0.90117257  0.09176751  0.88266378  1
  Mo  Mo183  1  0.80261068  0.79409342  0.50086565  1
  Mo  Mo184  1  0.60198515  0.19051550  0.49561490  1
  Mo  Mo185  1  0.50772062  0.90717819  0.87914795  1
  Mo  Mo186  1  0.11553283  0.70165677  0.87222954  1
  Mo  Mo187  1  0.79704584  -0.00160768  0.25213609  1
  Mo  Mo188  1  0.01061366  0.40249648  -0.00887724  1
  Mo  Mo189  1  0.91176468  0.49784980  0.88575012  1
  Mo  Mo190  1  0.30198753  0.50492041  0.62371161  1
  Mo  Mo191  1  0.49184918  0.30497140  0.87796593  1
  Mo  Mo192  1  0.88752947  0.50775149  0.37928374  1
  Mo  Mo193  1  0.59965724  0.79841180  0.24248949  1
  Mo  Mo194  1  0.40349083  0.20269698  0.24155904  1
  Mo  Mo195  1  0.39944526  0.60032235  0.25778884  1
  Mo  Mo196  1  0.89441563  0.69507775  0.63139119  1
  Mo  Mo197  1  0.10201807  0.69930797  0.62415751  1
  Mo  Mo198  1  -0.00969376  0.40329820  0.51132682  1
  Mo  Mo199  1  0.50044510  0.89969496  0.14123846  1
