# generated using pymatgen
data_HfZrTaTiMo
_symmetry_space_group_name_H-M   'P 1'
_cell_length_a   15.21490332
_cell_length_b   15.21940268
_cell_length_c   16.84857782
_cell_angle_alpha   90.00219301
_cell_angle_beta   89.93472092
_cell_angle_gamma   90.05447244
_symmetry_Int_Tables_number   1
_chemical_formula_structural   HfZrTaTiMo
_chemical_formula_sum   'Hf40 Zr40 Ta40 Ti40 Mo40'
_cell_volume   3901.48170619
_cell_formula_units_Z   40
loop_
 _symmetry_equiv_pos_site_id
 _symmetry_equiv_pos_as_xyz
  1  'x, y, z'
loop_
 _atom_site_type_symbol
 _atom_site_label
 _atom_site_symmetry_multiplicity
 _atom_site_fract_x
 _atom_site_fract_y
 _atom_site_fract_z
 _atom_site_occupancy
  Hf  Hf0  1  0.81108573  0.00373489  0.23747477  1
  Hf  Hf1  1  0.69315902  0.07930153  0.36886434  1
  Hf  Hf2  1  0.20310026  0.79599191  0.00198223  1
  Hf  Hf3  1  0.09905816  0.09691679  0.38580749  1
  Hf  Hf4  1  0.31591646  0.48087950  0.13001873  1
  Hf  Hf5  1  0.78955312  0.78346182  0.75509241  1
  Hf  Hf6  1  0.89081896  0.71193690  0.10269229  1
  Hf  Hf7  1  0.12798945  0.10127647  0.61106480  1
  Hf  Hf8  1  0.51612656  0.50882194  0.11728177  1
  Hf  Hf9  1  0.89922174  0.09926569  0.38195371  1
  Hf  Hf10  1  0.89120259  0.30063654  0.37236561  1
  Hf  Hf11  1  -0.00894642  0.19071840  0.23765913  1
  Hf  Hf12  1  0.29630227  0.90276852  0.37549191  1
  Hf  Hf13  1  0.80704861  0.59251715  0.49584601  1
  Hf  Hf14  1  0.61804349  0.79569722  0.24542905  1
  Hf  Hf15  1  0.79946944  -0.00427449  0.51619325  1
  Hf  Hf16  1  0.59704983  0.81264993  0.75410349  1
  Hf  Hf17  1  0.08560092  0.28993548  0.63308718  1
  Hf  Hf18  1  0.90714918  0.10762271  0.63345479  1
  Hf  Hf19  1  0.70095734  0.49685519  0.37354629  1
  Hf  Hf20  1  0.60476756  0.59965736  0.51685821  1
  Hf  Hf21  1  0.79201942  0.22174429  0.23078034  1
  Hf  Hf22  1  0.08657867  0.71041472  0.63297162  1
  Hf  Hf23  1  0.10340512  0.49831445  0.37064277  1
  Hf  Hf24  1  0.38241557  0.22244975  0.24564281  1
  Hf  Hf25  1  0.29992793  0.69910606  0.86116490  1
  Hf  Hf26  1  0.20497909  0.59958861  0.24318460  1
  Hf  Hf27  1  0.20170964  0.40026275  0.75438184  1
  Hf  Hf28  1  0.58877170  0.79689152  0.00419080  1
  Hf  Hf29  1  0.19652078  -0.00287322  -0.00366774  1
  Hf  Hf30  1  0.79165136  0.40418994  0.78313294  1
  Hf  Hf31  1  0.68543359  0.28896867  0.63107266  1
  Hf  Hf32  1  0.49656329  0.70499741  0.86555372  1
  Hf  Hf33  1  0.20006004  0.59764942  0.51333199  1
  Hf  Hf34  1  0.09164206  0.89820775  0.36881322  1
  Hf  Hf35  1  0.20092144  0.39817184  0.51260367  1
  Hf  Hf36  1  0.61539201  0.39866676  0.23745463  1
  Hf  Hf37  1  0.40305064  0.79439841  0.25000717  1
  Hf  Hf38  1  0.71914190  0.89295946  0.10648656  1
  Hf  Hf39  1  0.29750713  0.69900505  0.38639808  1
  Zr  Zr40  1  0.90175668  0.70214261  0.36375133  1
  Zr  Zr41  1  0.59120215  0.39531406  0.76244802  1
  Zr  Zr42  1  0.40905178  0.58727319  0.72587589  1
  Zr  Zr43  1  0.02093252  -0.00112210  0.74254576  1
  Zr  Zr44  1  0.00661328  0.59988089  0.23931021  1
  Zr  Zr45  1  0.40257320  0.39806326  0.51936667  1
  Zr  Zr46  1  0.19747669  0.81263248  0.74298678  1
  Zr  Zr47  1  0.07685813  0.50318885  0.64120092  1
  Zr  Zr48  1  0.40573866  0.59214549  0.51759769  1
  Zr  Zr49  1  -0.00148139  0.60313801  0.49358541  1
  Zr  Zr50  1  0.22748503  0.01019133  0.75152217  1
  Zr  Zr51  1  0.19833009  0.39006512  0.23758957  1
  Zr  Zr52  1  0.79394648  0.59459678  0.23429968  1
  Zr  Zr53  1  0.48912452  0.10934089  0.12513249  1
  Zr  Zr54  1  0.29816961  0.90773729  0.13789591  1
  Zr  Zr55  1  0.30501448  0.71701107  0.62187879  1
  Zr  Zr56  1  0.88880238  0.66751297  0.64730948  1
  Zr  Zr57  1  0.59168322  0.19974607  0.24274638  1
  Zr  Zr58  1  0.79733565  -0.00361719  0.74519474  1
  Zr  Zr59  1  0.69343260  0.29474214  0.38120279  1
  Zr  Zr60  1  -0.00372744  0.39368481  0.77885374  1
  Zr  Zr61  1  0.69736986  0.09820049  0.11095684  1
  Zr  Zr62  1  0.90051795  0.89815344  0.87496032  1
  Zr  Zr63  1  0.40515795  0.00919791  0.00181999  1
  Zr  Zr64  1  0.52069516  0.91512374  0.36521688  1
  Zr  Zr65  1  0.89116443  0.90023330  0.37765098  1
  Zr  Zr66  1  0.61998692  0.60575220  0.74748655  1
  Zr  Zr67  1  0.19783945  0.19793620  -0.00475384  1
  Zr  Zr68  1  -0.01254564  0.40501031  0.50293241  1
  Zr  Zr69  1  0.40446517  0.60337378  0.00123417  1
  Zr  Zr70  1  0.58434917  0.19361931  0.50155769  1
  Zr  Zr71  1  0.51505230  0.91332154  0.13888425  1
  Zr  Zr72  1  0.39672071  0.80264463  0.00947890  1
  Zr  Zr73  1  0.09507095  0.29473593  0.37410446  1
  Zr  Zr74  1  0.20272370  0.59848850  0.01238110  1
  Zr  Zr75  1  0.88655072  0.30842465  0.64009966  1
  Zr  Zr76  1  0.50068109  0.70182875  0.38478237  1
  Zr  Zr77  1  0.40893924  0.00812634  0.49309878  1
  Zr  Zr78  1  0.72240898  0.49784797  0.63525843  1
  Zr  Zr79  1  0.92038333  0.49604699  0.09738333  1
  Ta  Ta80  1  0.60404029  0.81147685  0.49927673  1
  Ta  Ta81  1  0.30066028  0.30104026  0.87144946  1
  Ta  Ta82  1  0.71505582  0.48697101  0.09756457  1
  Ta  Ta83  1  0.90574587  0.69552719  0.88921471  1
  Ta  Ta84  1  0.08448624  0.08821405  0.11972169  1
  Ta  Ta85  1  0.89702186  0.49003569  0.35890041  1
  Ta  Ta86  1  0.59060304  0.20368119  -0.00194571  1
  Ta  Ta87  1  0.19016719  0.81666005  0.50647873  1
  Ta  Ta88  1  0.70551509  0.69893204  0.89609388  1
  Ta  Ta89  1  0.69585048  0.90617198  0.89034429  1
  Ta  Ta90  1  0.20071224  0.39783902  0.00091356  1
  Ta  Ta91  1  0.29528973  0.30411093  0.37875508  1
  Ta  Ta92  1  0.79582749  0.79103395  0.51164102  1
  Ta  Ta93  1  0.60084497  0.00860418  0.74628530  1
  Ta  Ta94  1  0.79473166  0.39619486  0.50269311  1
  Ta  Ta95  1  0.31032879  0.90074103  0.87410997  1
  Ta  Ta96  1  0.00900003  -0.01263755  0.51555765  1
  Ta  Ta97  1  0.00901962  0.80859460  -0.00305945  1
  Ta  Ta98  1  0.28965997  0.11151758  0.37419383  1
  Ta  Ta99  1  0.19659247  0.59879215  0.74689656  1
  Ta  Ta100  1  0.60042141  0.60259397  0.24709149  1
  Ta  Ta101  1  0.49553253  0.50106080  0.87649676  1
  Ta  Ta102  1  0.39424939  0.01667783  0.25786608  1
  Ta  Ta103  1  0.08404755  0.30104086  0.10837792  1
  Ta  Ta104  1  0.90806671  0.88057566  0.63059175  1
  Ta  Ta105  1  0.50655216  0.10349944  0.87243183  1
  Ta  Ta106  1  0.81850806  0.01362349  -0.00398797  1
  Ta  Ta107  1  0.69326545  0.89464064  0.62706654  1
  Ta  Ta108  1  0.48931555  0.31201389  0.37374770  1
  Ta  Ta109  1  0.48565943  0.31333217  0.11436290  1
  Ta  Ta110  1  0.10618603  0.90089591  0.87575148  1
  Ta  Ta111  1  0.18412349  0.19811855  0.76971280  1
  Ta  Ta112  1  0.59693219  0.39689968  -0.01468475  1
  Ta  Ta113  1  0.70020307  0.10138984  0.88300632  1
  Ta  Ta114  1  0.19016653  0.00854985  0.24799619  1
  Ta  Ta115  1  0.50288774  0.49734559  0.37194600  1
  Ta  Ta116  1  0.19019853  0.19650359  0.23601064  1
  Ta  Ta117  1  0.39067705  0.18915086  0.75286656  1
  Ta  Ta118  1  0.28779628  0.28128431  0.63549365  1
  Ta  Ta119  1  0.10363122  0.50524754  0.88555491  1
  Ti  Ti120  1  0.09926247  0.90025245  0.12845538  1
  Ti  Ti121  1  0.70303171  0.70564058  0.37670175  1
  Ti  Ti122  1  0.39507595  0.39604762  0.74375501  1
  Ti  Ti123  1  -0.00704456  0.19995965  0.50278751  1
  Ti  Ti124  1  -0.00689046  0.79731432  0.50358033  1
  Ti  Ti125  1  0.78425860  0.19647804  0.76006973  1
  Ti  Ti126  1  -0.00161637  0.79390212  0.76030850  1
  Ti  Ti127  1  0.09985913  0.69878866  0.87380565  1
  Ti  Ti128  1  0.09441772  0.69977703  0.12086013  1
  Ti  Ti129  1  0.19271236  0.79591345  0.24659784  1
  Ti  Ti130  1  0.49283218  0.11495713  0.36594287  1
  Ti  Ti131  1  0.31105211  0.49276180  0.36996698  1
  Ti  Ti132  1  0.39571579  0.39268204  -0.01039603  1
  Ti  Ti133  1  -0.01085197  0.39412840  0.23515502  1
  Ti  Ti134  1  0.38728379  0.20343854  0.50235217  1
  Ti  Ti135  1  0.50713206  0.72914575  0.61954536  1
  Ti  Ti136  1  0.30775820  0.92087269  0.61113822  1
  Ti  Ti137  1  0.79232401  0.19616491  0.50806458  1
  Ti  Ti138  1  0.88285335  0.30257585  0.09673747  1
  Ti  Ti139  1  0.90788192  0.09869964  0.86372676  1
  Ti  Ti140  1  0.31098223  0.10292959  0.88078268  1
  Ti  Ti141  1  0.90270711  0.50557105  0.90155870  1
  Ti  Ti142  1  -0.00381614  0.80758646  0.23757897  1
  Ti  Ti143  1  0.89416114  0.28471693  0.88715522  1
  Ti  Ti144  1  0.80488795  0.80074217  0.24397044  1
  Ti  Ti145  1  0.91990017  0.92013702  0.11218036  1
  Ti  Ti146  1  0.29229604  0.10764100  0.12368168  1
  Ti  Ti147  1  0.50044352  0.91316054  0.87753851  1
  Ti  Ti148  1  0.59574250  0.40031413  0.50727814  1
  Ti  Ti149  1  0.60723018  0.00294431  0.51471609  1
  Ti  Ti150  1  0.49183167  0.29030538  0.87178774  1
  Ti  Ti151  1  0.30930268  0.69723277  0.13292641  1
  Ti  Ti152  1  0.40203281  0.82749769  0.74132533  1
  Ti  Ti153  1  0.48921615  0.28474628  0.63803295  1
  Ti  Ti154  1  0.10332007  0.70555258  0.37489370  1
  Ti  Ti155  1  0.49776090  0.09473769  0.63533210  1
  Ti  Ti156  1  0.40878658  0.59554407  0.25164294  1
  Ti  Ti157  1  0.69026190  0.68318865  0.10367424  1
  Ti  Ti158  1  -0.00906876  0.18340367  -0.00561181  1
  Ti  Ti159  1  0.30292827  0.50124412  0.87084217  1
  Mo  Mo160  1  0.49886974  0.90532076  0.62050388  1
  Mo  Mo161  1  0.40180078  0.80916973  0.50239821  1
  Mo  Mo162  1  0.31488995  0.10984841  0.62318874  1
  Mo  Mo163  1  0.10274928  0.89989719  0.61976477  1
  Mo  Mo164  1  0.09677739  0.09658848  0.87632665  1
  Mo  Mo165  1  0.80909797  0.40068321  0.23370181  1
  Mo  Mo166  1  0.20593615  0.00214270  0.49506689  1
  Mo  Mo167  1  0.71119702  0.89030888  0.37931841  1
  Mo  Mo168  1  0.20502146  0.20609244  0.49695304  1
  Mo  Mo169  1  0.00713905  0.38738229  -0.01570945  1
  Mo  Mo170  1  0.01275578  0.60764161  -0.00579974  1
  Mo  Mo171  1  0.00384117  -0.00207928  0.24509246  1
  Mo  Mo172  1  0.29817094  0.29491590  0.11563877  1
  Mo  Mo173  1  0.00301339  0.59918404  0.77840420  1
  Mo  Mo174  1  0.09808149  0.29547304  0.88910311  1
  Mo  Mo175  1  0.00725356  0.00096085  -0.01086747  1
  Mo  Mo176  1  0.79995804  0.59870287  -0.00611696  1
  Mo  Mo177  1  0.50408374  0.69675852  0.13630221  1
  Mo  Mo178  1  0.69178119  0.30709714  0.10081290  1
  Mo  Mo179  1  0.41235702  -0.00009764  0.75381422  1
  Mo  Mo180  1  0.68929707  0.28673249  0.88284959  1
  Mo  Mo181  1  0.59356018  0.19160638  0.75445086  1
  Mo  Mo182  1  0.10502642  0.49159219  0.11261727  1
  Mo  Mo183  1  0.79809834  0.19847073  -0.00902682  1
  Mo  Mo184  1  -0.00359317  0.19537338  0.76446382  1
  Mo  Mo185  1  0.60429895  0.00409565  -0.00990107  1
  Mo  Mo186  1  0.51279688  0.47349419  0.63078196  1
  Mo  Mo187  1  0.41039417  0.40699390  0.25344594  1
  Mo  Mo188  1  0.79921515  0.39071868  -0.02182625  1
  Mo  Mo189  1  0.59724345  0.59767320  -0.00781811  1
  Mo  Mo190  1  0.90170813  0.10666621  0.11569655  1
  Mo  Mo191  1  0.69482308  0.50314122  0.89387766  1
  Mo  Mo192  1  0.29505450  0.49323494  0.63807722  1
  Mo  Mo193  1  0.80295988  0.80570398  -0.00514146  1
  Mo  Mo194  1  0.60649906  -0.00031577  0.24921672  1
  Mo  Mo195  1  0.89952293  0.49072425  0.64068935  1
  Mo  Mo196  1  0.80961691  0.58985443  0.78780417  1
  Mo  Mo197  1  0.69535643  0.70810807  0.61900571  1
  Mo  Mo198  1  0.69727797  0.10011303  0.63021919  1
  Mo  Mo199  1  0.39832473  0.21216633  -0.00784664  1
