# generated using pymatgen
data_HfZrTaTiMo
_symmetry_space_group_name_H-M   'P 1'
_cell_length_a   15.21282873
_cell_length_b   15.21415969
_cell_length_c   16.86226645
_cell_angle_alpha   90.01451469
_cell_angle_beta   90.01006862
_cell_angle_gamma   89.86634603
_symmetry_Int_Tables_number   1
_chemical_formula_structural   HfZrTaTiMo
_chemical_formula_sum   'Hf40 Zr40 Ta40 Ti40 Mo40'
_cell_volume   3902.76760482
_cell_formula_units_Z   40
loop_
 _symmetry_equiv_pos_site_id
 _symmetry_equiv_pos_as_xyz
  1  'x, y, z'
loop_
 _atom_site_type_symbol
 _atom_site_label
 _atom_site_symmetry_multiplicity
 _atom_site_fract_x
 _atom_site_fract_y
 _atom_site_fract_z
 _atom_site_occupancy
  Hf  Hf0  1  0.51803581  0.87904646  0.38245522  1
  Hf  Hf1  1  0.40392017  0.41024783  0.75488664  1
  Hf  Hf2  1  0.09286873  0.71242908  0.12572631  1
  Hf  Hf3  1  0.19934338  0.59671146  0.00013039  1
  Hf  Hf4  1  0.30892252  0.30705335  0.11159799  1
  Hf  Hf5  1  0.89558686  0.50145902  0.12476392  1
  Hf  Hf6  1  0.71295906  0.10199029  0.86908636  1
  Hf  Hf7  1  0.20177643  0.79882957  0.74886954  1
  Hf  Hf8  1  0.60468075  0.78889515  0.00261642  1
  Hf  Hf9  1  0.80278613  0.59006165  0.74508430  1
  Hf  Hf10  1  0.41043692  0.20405609  0.24794511  1
  Hf  Hf11  1  0.39645775  -0.00109765  0.25399881  1
  Hf  Hf12  1  0.60673566  -0.00506933  -0.00761913  1
  Hf  Hf13  1  0.41094402  0.58618542  -0.02010301  1
  Hf  Hf14  1  0.77327522  0.78329572  0.72359922  1
  Hf  Hf15  1  0.50585598  0.09383225  0.37990863  1
  Hf  Hf16  1  0.79815859  -0.00753542  0.73514964  1
  Hf  Hf17  1  0.68915036  0.88402553  0.86015839  1
  Hf  Hf18  1  0.58925497  0.39468063  -0.00180963  1
  Hf  Hf19  1  0.18593795  0.22399029  0.75130726  1
  Hf  Hf20  1  0.29259100  0.08619813  0.11100787  1
  Hf  Hf21  1  0.60605237  0.59499442  -0.01955189  1
  Hf  Hf22  1  -0.00326773  0.60589279  -0.00256071  1
  Hf  Hf23  1  0.09247558  0.91386745  0.87676993  1
  Hf  Hf24  1  -0.00187080  0.80673797  0.25811801  1
  Hf  Hf25  1  0.29634641  0.30306079  0.38065006  1
  Hf  Hf26  1  0.40552240  0.78915494  0.25415765  1
  Hf  Hf27  1  0.79423226  0.81305390  0.24702947  1
  Hf  Hf28  1  0.29947082  0.90108501  0.38176467  1
  Hf  Hf29  1  0.39851591  0.20048718  0.75071847  1
  Hf  Hf30  1  0.70776058  0.29328313  0.37660282  1
  Hf  Hf31  1  0.19808997  0.59359462  0.24932539  1
  Hf  Hf32  1  0.88345037  0.90126679  0.39848448  1
  Hf  Hf33  1  0.29181930  0.32532324  0.62342146  1
  Hf  Hf34  1  0.71290653  0.08939347  0.12055691  1
  Hf  Hf35  1  0.19155266  0.80667332  -0.00659355  1
  Hf  Hf36  1  0.58548550  0.60536663  0.49558862  1
  Hf  Hf37  1  0.00915097  0.20376384  0.24770150  1
  Hf  Hf38  1  0.09675085  0.10318740  0.63196843  1
  Hf  Hf39  1  0.89720587  0.10618305  0.38834616  1
  Zr  Zr40  1  0.29482936  0.70321505  0.87570384  1
  Zr  Zr41  1  0.90851946  0.89229791  0.60709130  1
  Zr  Zr42  1  0.01367474  0.39151406  0.74334545  1
  Zr  Zr43  1  0.30175955  0.09325136  0.63421067  1
  Zr  Zr44  1  0.76771744  0.79622462  0.51993972  1
  Zr  Zr45  1  0.69224259  0.50221437  0.13072959  1
  Zr  Zr46  1  -0.00255848  0.60608101  0.26027052  1
  Zr  Zr47  1  -0.01243049  0.80756473  0.74994598  1
  Zr  Zr48  1  0.80410386  0.39010741  0.75097752  1
  Zr  Zr49  1  0.79269772  0.60655250  0.25527421  1
  Zr  Zr50  1  0.20407335  0.19894309  0.23986653  1
  Zr  Zr51  1  0.29527892  0.89449347  0.11733444  1
  Zr  Zr52  1  0.41737970  0.20000088  -0.00393307  1
  Zr  Zr53  1  0.68577812  0.71583838  0.37884650  1
  Zr  Zr54  1  0.40312814  0.19721040  0.50911649  1
  Zr  Zr55  1  0.61338017  -0.01516708  0.24925964  1
  Zr  Zr56  1  0.09321970  0.70657696  0.61799902  1
  Zr  Zr57  1  0.00761629  0.39920388  0.49989021  1
  Zr  Zr58  1  0.29267913  0.69825877  0.37854906  1
  Zr  Zr59  1  0.90887091  0.27961254  0.87322486  1
  Zr  Zr60  1  0.00289974  0.20451950  0.49971430  1
  Zr  Zr61  1  0.79611188  0.39099606  -0.00753773  1
  Zr  Zr62  1  0.08433210  0.12144416  0.86909832  1
  Zr  Zr63  1  0.29581868  0.31083309  0.89035673  1
  Zr  Zr64  1  0.30546564  0.69650942  0.12279904  1
  Zr  Zr65  1  0.39364003  0.40337423  0.26000760  1
  Zr  Zr66  1  0.60466202  0.19421015  0.51413304  1
  Zr  Zr67  1  0.39375266  0.60408946  0.76115270  1
  Zr  Zr68  1  0.19781501  0.20845878  0.50637888  1
  Zr  Zr69  1  0.50647439  0.10456243  0.12186650  1
  Zr  Zr70  1  0.89549191  0.91238496  0.11255761  1
  Zr  Zr71  1  -0.00270307  -0.00017235  0.25948202  1
  Zr  Zr72  1  0.50646689  0.67842734  0.12678408  1
  Zr  Zr73  1  0.49705843  0.89659542  0.12065675  1
  Zr  Zr74  1  0.69830862  0.48930877  0.37615673  1
  Zr  Zr75  1  0.12439649  0.50540193  0.61322762  1
  Zr  Zr76  1  0.51194823  0.08092027  0.63891166  1
  Zr  Zr77  1  0.41039693  0.41290556  0.49862468  1
  Zr  Zr78  1  0.88749015  0.71127058  0.87245601  1
  Zr  Zr79  1  0.51643087  0.29660933  0.86528113  1
  Ta  Ta80  1  0.29930788  0.49764990  0.11735960  1
  Ta  Ta81  1  0.80424588  0.19874031  0.24904352  1
  Ta  Ta82  1  0.89537071  0.30950384  0.37127293  1
  Ta  Ta83  1  0.60943688  0.41004417  0.74811258  1
  Ta  Ta84  1  0.60986668  0.19574093  0.25272168  1
  Ta  Ta85  1  0.10824864  0.90759682  0.62204598  1
  Ta  Ta86  1  0.91137309  0.49643904  0.87924013  1
  Ta  Ta87  1  0.88941544  0.70625720  0.11904440  1
  Ta  Ta88  1  0.50741474  0.51556678  0.63185283  1
  Ta  Ta89  1  0.90781663  0.10659401  0.12675773  1
  Ta  Ta90  1  0.00775784  0.59469466  0.75180850  1
  Ta  Ta91  1  0.79704332  0.21112123  0.51548825  1
  Ta  Ta92  1  0.81136975  0.18736222  0.00208407  1
  Ta  Ta93  1  0.70643591  0.08876864  0.38517191  1
  Ta  Ta94  1  0.59499983  0.39002609  0.24879608  1
  Ta  Ta95  1  0.18736161  0.19699018  0.00855915  1
  Ta  Ta96  1  0.09907604  0.92430783  0.11322316  1
  Ta  Ta97  1  0.50525759  0.08823872  0.86250728  1
  Ta  Ta98  1  0.51197948  0.30300054  0.37929512  1
  Ta  Ta99  1  0.60241960  0.61282430  0.75934704  1
  Ta  Ta100  1  0.89931997  0.30719036  0.13089742  1
  Ta  Ta101  1  0.79475218  0.60677057  -0.00590272  1
  Ta  Ta102  1  0.41019175  -0.01525075  0.50497530  1
  Ta  Ta103  1  0.48833303  0.48372806  0.12599306  1
  Ta  Ta104  1  0.89901559  0.09467762  0.61069629  1
  Ta  Ta105  1  0.51058595  0.31097281  0.63473911  1
  Ta  Ta106  1  0.30294526  0.89133144  0.62441618  1
  Ta  Ta107  1  0.20809641  0.42993195  0.75727994  1
  Ta  Ta108  1  0.19255954  -0.00224884  0.25264665  1
  Ta  Ta109  1  0.09559716  0.48955021  0.12063546  1
  Ta  Ta110  1  0.30252408  0.90698392  0.87541131  1
  Ta  Ta111  1  0.81016202  0.19322319  0.73204936  1
  Ta  Ta112  1  0.20142097  0.00129184  0.75456404  1
  Ta  Ta113  1  0.29447777  0.09927410  0.87747754  1
  Ta  Ta114  1  0.20678320  0.00001227  0.50304420  1
  Ta  Ta115  1  0.11183600  0.09598244  0.37885983  1
  Ta  Ta116  1  0.62003126  0.20408600  0.74092009  1
  Ta  Ta117  1  0.00008908  0.60391509  0.48938184  1
  Ta  Ta118  1  0.89743517  0.49700097  0.38026199  1
  Ta  Ta119  1  0.00045811  0.40384532  0.25572583  1
  Ti  Ti120  1  0.09108958  0.70068182  0.86928789  1
  Ti  Ti121  1  -0.00520171  0.02562978  -0.00390315  1
  Ti  Ti122  1  0.80251040  0.00416489  0.25553085  1
  Ti  Ti123  1  0.61033111  0.39880339  0.50824370  1
  Ti  Ti124  1  0.70259236  0.29562798  0.13176597  1
  Ti  Ti125  1  0.40202031  -0.01339100  0.75635481  1
  Ti  Ti126  1  0.90829641  0.50085427  0.61608345  1
  Ti  Ti127  1  0.40845961  0.79589693  -0.01278399  1
  Ti  Ti128  1  0.90400076  0.30320197  0.62198176  1
  Ti  Ti129  1  0.70464096  0.49469413  0.62081991  1
  Ti  Ti130  1  0.40668617  0.78541012  0.50690260  1
  Ti  Ti131  1  0.89418737  0.70236198  0.39065038  1
  Ti  Ti132  1  0.10147077  0.30373282  0.37231604  1
  Ti  Ti133  1  0.09911138  0.32214431  0.89583089  1
  Ti  Ti134  1  0.79587224  0.59016551  0.50361850  1
  Ti  Ti135  1  0.39875438  0.58926654  0.26320996  1
  Ti  Ti136  1  0.89842632  0.68797082  0.61431875  1
  Ti  Ti137  1  0.66402757  0.91278124  0.62928517  1
  Ti  Ti138  1  0.10350221  0.89673114  0.38561573  1
  Ti  Ti139  1  0.10617945  0.50350983  0.88079467  1
  Ti  Ti140  1  0.00172422  0.21738175  0.01768292  1
  Ti  Ti141  1  0.01176758  -0.00300383  0.49751985  1
  Ti  Ti142  1  0.09765276  0.70437581  0.38463875  1
  Ti  Ti143  1  0.41010779  0.79952247  0.75096530  1
  Ti  Ti144  1  -0.00602057  0.00856193  0.74728207  1
  Ti  Ti145  1  -0.00839813  0.80936129  -0.00396169  1
  Ti  Ti146  1  0.60765093  0.78594272  0.23407847  1
  Ti  Ti147  1  0.58409016  0.59294402  0.26351867  1
  Ti  Ti148  1  0.79069007  0.80485191  0.00362157  1
  Ti  Ti149  1  0.19246358  0.39805383  0.24432366  1
  Ti  Ti150  1  0.39099988  0.59734172  0.49271992  1
  Ti  Ti151  1  0.61763095  0.20304828  -0.00382153  1
  Ti  Ti152  1  0.88952220  0.91820835  0.88291236  1
  Ti  Ti153  1  0.40138471  -0.00554118  -0.01259651  1
  Ti  Ti154  1  0.19881963  0.79921490  0.50563337  1
  Ti  Ti155  1  0.29517804  0.68527877  0.62186825  1
  Ti  Ti156  1  0.30118657  0.09775697  0.38019845  1
  Ti  Ti157  1  0.19395044  0.80758366  0.25009628  1
  Ti  Ti158  1  0.11032858  0.49858884  0.38147127  1
  Ti  Ti159  1  0.70503033  0.49229115  0.87011965  1
  Mo  Mo160  1  0.29428029  0.49591700  0.88525309  1
  Mo  Mo161  1  0.20649190  0.40993076  0.49007034  1
  Mo  Mo162  1  0.51609759  0.30031940  0.12888856  1
  Mo  Mo163  1  0.70596169  0.69654262  0.86959647  1
  Mo  Mo164  1  0.51126692  0.71427174  0.87006750  1
  Mo  Mo165  1  0.60427437  -0.01079207  0.49943530  1
  Mo  Mo166  1  0.69943383  0.90747788  0.38342153  1
  Mo  Mo167  1  0.80363168  -0.00167235  -0.00645536  1
  Mo  Mo168  1  0.70711762  0.29323508  0.87180196  1
  Mo  Mo169  1  0.70529589  0.09683984  0.62862664  1
  Mo  Mo170  1  0.09540226  0.09967941  0.12002611  1
  Mo  Mo171  1  0.49164608  0.89666136  0.87723948  1
  Mo  Mo172  1  0.20234802  0.60259734  0.49109378  1
  Mo  Mo173  1  0.67848216  0.67257749  0.62156097  1
  Mo  Mo174  1  0.58319424  0.79547292  0.73778125  1
  Mo  Mo175  1  0.00343635  0.79723253  0.49181975  1
  Mo  Mo176  1  0.57928661  0.80069618  0.51913703  1
  Mo  Mo177  1  0.19623751  0.00810692  -0.01479573  1
  Mo  Mo178  1  0.80397313  0.39045372  0.24807463  1
  Mo  Mo179  1  0.49334349  0.69184478  0.37124556  1
  Mo  Mo180  1  0.49995508  0.49531209  0.37381053  1
  Mo  Mo181  1  0.80504633  0.40185397  0.50647923  1
  Mo  Mo182  1  0.59455224  -0.00478378  0.75973917  1
  Mo  Mo183  1  0.48241078  0.69481504  0.62607074  1
  Mo  Mo184  1  0.19118471  0.60347662  0.75600145  1
  Mo  Mo185  1  -0.00282380  0.40612137  0.00028184  1
  Mo  Mo186  1  0.78669708  0.00836369  0.51534093  1
  Mo  Mo187  1  0.70417762  0.89251175  0.11905459  1
  Mo  Mo188  1  -0.01163148  0.19724380  0.73258279  1
  Mo  Mo189  1  0.40234284  0.40360428  -0.00214188  1
  Mo  Mo190  1  0.50863939  0.49766317  0.86212134  1
  Mo  Mo191  1  0.48557493  0.89296804  0.62615724  1
  Mo  Mo192  1  0.31438829  0.51683317  0.62367216  1
  Mo  Mo193  1  0.90149005  0.09329817  0.87057827  1
  Mo  Mo194  1  0.29034506  0.49768298  0.37449320  1
  Mo  Mo195  1  0.10225405  0.30890337  0.62943442  1
  Mo  Mo196  1  0.70755423  0.69434575  0.12426770  1
  Mo  Mo197  1  0.70285729  0.30597050  0.62440146  1
  Mo  Mo198  1  0.19257463  0.40100687  0.00847858  1
  Mo  Mo199  1  0.09613384  0.30737991  0.12227955  1
