# generated using pymatgen
data_HfZrTaTiMo
_symmetry_space_group_name_H-M   'P 1'
_cell_length_a   15.17837197
_cell_length_b   15.18834064
_cell_length_c   16.80756882
_cell_angle_alpha   90.01104848
_cell_angle_beta   89.97390194
_cell_angle_gamma   90.03946386
_symmetry_Int_Tables_number   1
_chemical_formula_structural   HfZrTaTiMo
_chemical_formula_sum   'Hf40 Zr40 Ta40 Ti40 Mo40'
_cell_volume   3874.71944693
_cell_formula_units_Z   40
loop_
 _symmetry_equiv_pos_site_id
 _symmetry_equiv_pos_as_xyz
  1  'x, y, z'
loop_
 _atom_site_type_symbol
 _atom_site_label
 _atom_site_symmetry_multiplicity
 _atom_site_fract_x
 _atom_site_fract_y
 _atom_site_fract_z
 _atom_site_occupancy
  Hf  Hf0  1  0.68235493  0.29653375  0.11030301  1
  Hf  Hf1  1  0.50474168  0.71043283  0.88470890  1
  Hf  Hf2  1  0.09345987  0.08413898  0.87672087  1
  Hf  Hf3  1  0.88828835  0.70144899  0.36397908  1
  Hf  Hf4  1  0.20259391  0.17514183  0.01024282  1
  Hf  Hf5  1  0.10129326  0.29634209  0.89013699  1
  Hf  Hf6  1  0.49676003  0.09816044  0.62891729  1
  Hf  Hf7  1  0.19863713  0.19912785  0.75830412  1
  Hf  Hf8  1  0.80429085  0.80055680  0.74681868  1
  Hf  Hf9  1  0.59963543  0.58385915  0.76386298  1
  Hf  Hf10  1  0.50732162  0.09557030  0.37214636  1
  Hf  Hf11  1  0.49207222  0.49613131  0.62648057  1
  Hf  Hf12  1  0.09389724  0.69323762  0.62189674  1
  Hf  Hf13  1  0.40300038  -0.00088596  0.50001294  1
  Hf  Hf14  1  0.68895404  0.68615673  0.36674268  1
  Hf  Hf15  1  0.00684093  0.02112988  0.47898918  1
  Hf  Hf16  1  0.40825403  0.59623129  -0.00545959  1
  Hf  Hf17  1  0.29413525  0.31095467  0.62842458  1
  Hf  Hf18  1  0.09147046  0.08354669  0.63525401  1
  Hf  Hf19  1  0.90571006  0.92233394  0.61200652  1
  Hf  Hf20  1  0.69107325  0.30384182  0.88712318  1
  Hf  Hf21  1  0.19432764  0.19670538  0.24017574  1
  Hf  Hf22  1  0.20790386  -0.01561133  0.74678903  1
  Hf  Hf23  1  0.60206360  0.79873508  0.74617235  1
  Hf  Hf24  1  0.09763477  0.30634934  0.11328142  1
  Hf  Hf25  1  -0.00627835  0.41605135  0.00080700  1
  Hf  Hf26  1  0.09756655  0.88906020  0.13789872  1
  Hf  Hf27  1  0.80241251  0.59459747  -0.00243224  1
  Hf  Hf28  1  0.60908415  0.40203957  0.49345999  1
  Hf  Hf29  1  0.59375724  0.79290397  0.50902786  1
  Hf  Hf30  1  0.89621174  0.71176566  0.12902370  1
  Hf  Hf31  1  -0.00979936  0.60556284  0.49248517  1
  Hf  Hf32  1  0.61993687  -0.00666479  0.23265645  1
  Hf  Hf33  1  0.30353743  0.70338570  0.37716113  1
  Hf  Hf34  1  0.21326439  0.00136194  0.23105534  1
  Hf  Hf35  1  0.70056809  0.70242889  0.89128129  1
  Hf  Hf36  1  0.00036313  0.60778818  -0.00766019  1
  Hf  Hf37  1  0.70236503  0.89858106  0.88855010  1
  Hf  Hf38  1  0.49597253  0.30119730  0.63500977  1
  Hf  Hf39  1  0.39998847  0.81270920  0.74227878  1
  Zr  Zr40  1  0.10584204  0.69892692  0.13664609  1
  Zr  Zr41  1  0.89448329  0.30137020  0.89459803  1
  Zr  Zr42  1  0.89602240  0.12617492  0.61994080  1
  Zr  Zr43  1  0.18632942  0.19060404  0.49901505  1
  Zr  Zr44  1  -0.00464131  0.60767861  0.75964980  1
  Zr  Zr45  1  0.39329553  0.79731458  0.51771758  1
  Zr  Zr46  1  0.29243441  0.09687526  0.37495349  1
  Zr  Zr47  1  0.59908488  0.78761420  0.23342237  1
  Zr  Zr48  1  0.89951551  0.49884728  0.63371778  1
  Zr  Zr49  1  0.49841980  0.30036678  0.37464485  1
  Zr  Zr50  1  0.09920714  0.50044905  0.37385245  1
  Zr  Zr51  1  0.60124004  0.18901006  0.75948325  1
  Zr  Zr52  1  0.60455387  0.19153672  0.24175041  1
  Zr  Zr53  1  0.20780318  0.79096944  0.73177497  1
  Zr  Zr54  1  0.49327476  0.30724386  0.86739118  1
  Zr  Zr55  1  0.38767934  0.59780261  0.76035753  1
  Zr  Zr56  1  0.89555442  0.90862214  0.37760826  1
  Zr  Zr57  1  0.30160755  0.30867694  0.11769902  1
  Zr  Zr58  1  0.12614715  0.49397626  0.64085645  1
  Zr  Zr59  1  0.50614225  0.51674278  0.37035548  1
  Zr  Zr60  1  0.29449851  0.71363804  0.87859947  1
  Zr  Zr61  1  0.60658882  0.19616723  0.49902879  1
  Zr  Zr62  1  0.21744353  0.59661853  0.25638148  1
  Zr  Zr63  1  0.70879974  0.29817280  0.63480202  1
  Zr  Zr64  1  0.89299868  0.31490917  0.36446735  1
  Zr  Zr65  1  -0.01729966  0.20016969  0.23655992  1
  Zr  Zr66  1  0.41372560  0.00116541  0.23543089  1
  Zr  Zr67  1  0.80975237  0.00473964  0.76165523  1
  Zr  Zr68  1  0.00677501  0.82812066  0.74411464  1
  Zr  Zr69  1  -0.00415477  0.40385516  0.24085657  1
  Zr  Zr70  1  0.70325006  0.08823920  0.62832901  1
  Zr  Zr71  1  0.00359613  0.40405587  0.50109012  1
  Zr  Zr72  1  0.39063501  0.40917383  0.25751678  1
  Zr  Zr73  1  0.08568374  0.29251679  0.63005920  1
  Zr  Zr74  1  0.20161219  0.60005068  -0.00267137  1
  Zr  Zr75  1  0.11971602  0.90052927  0.36770214  1
  Zr  Zr76  1  0.71980072  0.48884156  0.35205741  1
  Zr  Zr77  1  0.79957282  0.79300952  0.50670296  1
  Zr  Zr78  1  0.70130679  0.89530467  0.37267326  1
  Zr  Zr79  1  -0.00564734  0.00540690  0.25409214  1
  Ta  Ta80  1  0.49521654  0.49713049  0.12897897  1
  Ta  Ta81  1  0.49945846  0.89242753  0.37136453  1
  Ta  Ta82  1  0.40477391  0.20193852  0.00191916  1
  Ta  Ta83  1  0.79271187  0.40852656  0.76375713  1
  Ta  Ta84  1  0.29645801  0.50513294  0.12142456  1
  Ta  Ta85  1  -0.00892741  0.18906467  0.01735374  1
  Ta  Ta86  1  0.70044408  0.68529358  0.62981815  1
  Ta  Ta87  1  0.79112499  0.58534106  0.50000419  1
  Ta  Ta88  1  0.38688880  0.00287413  0.01173222  1
  Ta  Ta89  1  0.49602884  0.09599264  0.88566948  1
  Ta  Ta90  1  0.39360563  0.20466961  0.50251097  1
  Ta  Ta91  1  0.59581022  0.39665721  0.24126596  1
  Ta  Ta92  1  0.11059752  0.49763322  0.86446198  1
  Ta  Ta93  1  0.00921262  0.80681849  0.50039653  1
  Ta  Ta94  1  0.71013325  0.27974010  0.36332983  1
  Ta  Ta95  1  0.00175751  0.80704556  -0.00192517  1
  Ta  Ta96  1  0.79350852  0.18945501  0.01122848  1
  Ta  Ta97  1  0.39928250  0.20130962  0.23597534  1
  Ta  Ta98  1  0.50363035  0.89531769  0.11009235  1
  Ta  Ta99  1  0.70230664  0.89847113  0.62305248  1
  Ta  Ta100  1  0.80397097  0.39268907  0.50133554  1
  Ta  Ta101  1  -0.00675747  0.39255623  0.76172701  1
  Ta  Ta102  1  -0.00927663  0.19648102  0.76191499  1
  Ta  Ta103  1  0.69733420  0.49654435  0.62963338  1
  Ta  Ta104  1  0.58915122  0.41864356  0.00155901  1
  Ta  Ta105  1  0.39448068  0.40546815  -0.00571128  1
  Ta  Ta106  1  0.60772702  -0.00794744  0.49615636  1
  Ta  Ta107  1  -0.00773815  0.60224913  0.25429850  1
  Ta  Ta108  1  0.09969142  0.70921469  0.87122216  1
  Ta  Ta109  1  0.10387941  0.50226220  0.12939121  1
  Ta  Ta110  1  0.79632635  0.59939744  0.76443777  1
  Ta  Ta111  1  0.09899219  0.70989973  0.36835098  1
  Ta  Ta112  1  0.60072686  0.00399193  0.00446678  1
  Ta  Ta113  1  0.19897774  0.39766631  0.25564990  1
  Ta  Ta114  1  0.01067023  -0.00226661  0.01467686  1
  Ta  Ta115  1  0.38915640  0.19352838  0.75951014  1
  Ta  Ta116  1  0.80569678  0.20835820  0.76542754  1
  Ta  Ta117  1  0.30155751  0.10149136  0.62659502  1
  Ta  Ta118  1  0.10179660  0.29079541  0.37071909  1
  Ta  Ta119  1  0.69250358  0.51571108  0.13322825  1
  Ti  Ti120  1  0.39635773  0.80613399  0.00552180  1
  Ti  Ti121  1  0.20241057  0.79751442  0.51360490  1
  Ti  Ti122  1  0.59752803  -0.00791340  0.76312733  1
  Ti  Ti123  1  0.50593539  0.90854301  0.62825402  1
  Ti  Ti124  1  0.29599821  0.66827831  0.62372806  1
  Ti  Ti125  1  0.79322546  0.40659473  0.00789589  1
  Ti  Ti126  1  0.88701256  0.08808051  0.12594991  1
  Ti  Ti127  1  0.79727987  0.38307197  0.22562136  1
  Ti  Ti128  1  -0.01741922  0.21144050  0.48599707  1
  Ti  Ti129  1  0.90060009  0.71529813  0.87757476  1
  Ti  Ti130  1  0.51735099  0.69139952  0.10822852  1
  Ti  Ti131  1  0.50023155  0.69067591  0.63103711  1
  Ti  Ti132  1  0.89405100  0.70035224  0.62466029  1
  Ti  Ti133  1  0.11716529  0.89708418  0.88300209  1
  Ti  Ti134  1  0.69945997  0.09969319  0.88785382  1
  Ti  Ti135  1  0.20328720  0.81201985  0.00508511  1
  Ti  Ti136  1  0.40228660  0.00186326  0.75621645  1
  Ti  Ti137  1  0.59840535  0.59809845  0.50495386  1
  Ti  Ti138  1  0.71548497  0.89068097  0.10652149  1
  Ti  Ti139  1  0.50795613  0.11244959  0.11055500  1
  Ti  Ti140  1  0.39858314  0.59464013  0.49899449  1
  Ti  Ti141  1  0.39594665  0.40308129  0.49306632  1
  Ti  Ti142  1  0.81372331  -0.00771506  0.00221680  1
  Ti  Ti143  1  0.90015800  0.09806231  0.88647291  1
  Ti  Ti144  1  0.20836764  0.39881591  0.48984807  1
  Ti  Ti145  1  0.30614158  0.70723579  0.12519113  1
  Ti  Ti146  1  0.49327951  0.90553085  0.88977173  1
  Ti  Ti147  1  0.31117109  0.89564943  0.37067280  1
  Ti  Ti148  1  0.20351702  0.59342274  0.49240454  1
  Ti  Ti149  1  0.20508339  -0.01271098  0.50926691  1
  Ti  Ti150  1  0.29822309  0.29699600  0.37417786  1
  Ti  Ti151  1  0.41429713  0.61219421  0.24079123  1
  Ti  Ti152  1  0.29300030  0.30184387  0.88473331  1
  Ti  Ti153  1  0.49682728  0.70739845  0.37350609  1
  Ti  Ti154  1  0.91810566  0.90769678  0.88067909  1
  Ti  Ti155  1  0.39788071  0.80316998  0.23952034  1
  Ti  Ti156  1  0.30034524  0.08523284  0.88186556  1
  Ti  Ti157  1  0.89515974  0.50491611  0.13103212  1
  Ti  Ti158  1  0.80255835  0.81636706  0.23989061  1
  Ti  Ti159  1  0.38656678  0.40480104  0.75893435  1
  Mo  Mo160  1  0.09582696  0.09586229  0.12169097  1
  Mo  Mo161  1  0.31013837  0.10159155  0.12227161  1
  Mo  Mo162  1  0.20185562  -0.01442315  0.01145265  1
  Mo  Mo163  1  0.30253103  0.49497172  0.38761748  1
  Mo  Mo164  1  0.89670782  0.30685661  0.63423866  1
  Mo  Mo165  1  -0.00022405  0.79676389  0.25783670  1
  Mo  Mo166  1  0.21480450  0.79774625  0.25278790  1
  Mo  Mo167  1  0.69953821  0.08835849  0.10682003  1
  Mo  Mo168  1  0.81521810  0.80441308  -0.00378213  1
  Mo  Mo169  1  0.89965442  0.50350145  0.86972267  1
  Mo  Mo170  1  0.89111260  0.50884500  0.36890521  1
  Mo  Mo171  1  0.60136817  0.59513934  -0.00234253  1
  Mo  Mo172  1  0.59459974  0.59800494  0.24105255  1
  Mo  Mo173  1  0.59965077  0.40261659  0.75031312  1
  Mo  Mo174  1  0.00159046  0.00687690  0.75633862  1
  Mo  Mo175  1  0.30708400  0.88819001  0.12503500  1
  Mo  Mo176  1  0.30727694  0.90700863  0.88131505  1
  Mo  Mo177  1  0.30822956  0.91272675  0.62223592  1
  Mo  Mo178  1  0.79363763  0.01253082  0.49679717  1
  Mo  Mo179  1  0.71097635  0.09206624  0.37512617  1
  Mo  Mo180  1  0.70155146  0.49419902  0.88081935  1
  Mo  Mo181  1  0.19961647  0.40583550  -0.00197892  1
  Mo  Mo182  1  0.79731858  0.60454467  0.23526730  1
  Mo  Mo183  1  0.50008261  0.49547985  0.87496818  1
  Mo  Mo184  1  0.09399956  0.11030278  0.36913392  1
  Mo  Mo185  1  0.10228851  0.90020685  0.60884391  1
  Mo  Mo186  1  0.79815471  0.00687746  0.23816442  1
  Mo  Mo187  1  0.79902783  0.20871687  0.49526530  1
  Mo  Mo188  1  0.59110610  0.20039693  -0.00676379  1
  Mo  Mo189  1  0.70094772  0.70399310  0.10924476  1
  Mo  Mo190  1  0.20468802  0.39488810  0.76198602  1
  Mo  Mo191  1  0.20139518  0.59472528  0.75796890  1
  Mo  Mo192  1  0.29784775  0.48842059  0.87970776  1
  Mo  Mo193  1  0.90115036  0.90057740  0.12391875  1
  Mo  Mo194  1  0.30558419  0.49541429  0.61478900  1
  Mo  Mo195  1  0.49458547  0.30715754  0.12029479  1
  Mo  Mo196  1  0.87477512  0.11723506  0.37272355  1
  Mo  Mo197  1  0.59925546  0.80383761  0.00808536  1
  Mo  Mo198  1  0.79277412  0.19100921  0.22942285  1
  Mo  Mo199  1  0.88752559  0.30254712  0.10776439  1
