# generated using pymatgen
data_HfZrTaTiMo
_symmetry_space_group_name_H-M   'P 1'
_cell_length_a   15.20053911
_cell_length_b   15.21177207
_cell_length_c   16.85189511
_cell_angle_alpha   90.02078994
_cell_angle_beta   90.01257957
_cell_angle_gamma   90.03591217
_symmetry_Int_Tables_number   1
_chemical_formula_structural   HfZrTaTiMo
_chemical_formula_sum   'Hf40 Zr40 Ta40 Ti40 Mo40'
_cell_volume   3896.61432910
_cell_formula_units_Z   40
loop_
 _symmetry_equiv_pos_site_id
 _symmetry_equiv_pos_as_xyz
  1  'x, y, z'
loop_
 _atom_site_type_symbol
 _atom_site_label
 _atom_site_symmetry_multiplicity
 _atom_site_fract_x
 _atom_site_fract_y
 _atom_site_fract_z
 _atom_site_occupancy
  Hf  Hf0  1  0.59172641  0.79676391  0.49876934  1
  Hf  Hf1  1  0.29213550  0.90640755  0.37459436  1
  Hf  Hf2  1  0.70730264  0.89817508  0.37758474  1
  Hf  Hf3  1  0.09812483  0.10874390  0.88577847  1
  Hf  Hf4  1  0.60485327  -0.00587077  0.00783913  1
  Hf  Hf5  1  0.28765391  0.47507644  0.12944143  1
  Hf  Hf6  1  0.29927112  0.70329760  0.63564586  1
  Hf  Hf7  1  0.50012206  0.71179801  0.89163595  1
  Hf  Hf8  1  0.69942250  0.69680626  0.38167091  1
  Hf  Hf9  1  0.01485129  -0.00538850  0.25516339  1
  Hf  Hf10  1  0.29105310  0.71991526  0.10619385  1
  Hf  Hf11  1  0.70752942  0.30623716  0.62668566  1
  Hf  Hf12  1  -0.03031573  0.00004870  0.00379602  1
  Hf  Hf13  1  0.08411951  0.27517930  0.38910557  1
  Hf  Hf14  1  0.50225356  0.10923187  0.86939652  1
  Hf  Hf15  1  0.19885276  0.19194279  0.24923159  1
  Hf  Hf16  1  0.92201986  0.32406912  0.12888797  1
  Hf  Hf17  1  0.59635681  0.79893579  0.75015435  1
  Hf  Hf18  1  0.90425300  0.90617372  0.63309324  1
  Hf  Hf19  1  0.69890974  0.50104805  0.87349975  1
  Hf  Hf20  1  0.30005673  0.69247531  0.88882999  1
  Hf  Hf21  1  0.19302265  0.60761987  0.24662316  1
  Hf  Hf22  1  0.10076748  0.10756931  0.10847350  1
  Hf  Hf23  1  0.59525549  0.19928153  0.00540991  1
  Hf  Hf24  1  0.40281500  0.39114619  0.25291287  1
  Hf  Hf25  1  0.60239366  0.59448248  0.00385355  1
  Hf  Hf26  1  0.59574749  -0.00334961  0.24313717  1
  Hf  Hf27  1  0.40688036  0.00488241  0.00767824  1
  Hf  Hf28  1  0.71473249  0.49504283  0.38045800  1
  Hf  Hf29  1  -0.00488190  0.58920994  0.25300619  1
  Hf  Hf30  1  0.49254436  0.89905753  0.62975181  1
  Hf  Hf31  1  0.70805575  0.09686971  0.13346031  1
  Hf  Hf32  1  0.80543119  0.22890450  0.25519440  1
  Hf  Hf33  1  0.10545639  0.89219005  0.10481421  1
  Hf  Hf34  1  0.49457091  0.10460776  0.36678030  1
  Hf  Hf35  1  0.39130548  0.80368350  0.49730255  1
  Hf  Hf36  1  0.71809931  0.50011694  0.11427794  1
  Hf  Hf37  1  0.29695722  0.10112113  0.88074667  1
  Hf  Hf38  1  0.51044329  0.50256059  0.37490700  1
  Hf  Hf39  1  0.60308956  0.59434283  0.23374293  1
  Zr  Zr40  1  0.19638686  0.20712612  0.73930632  1
  Zr  Zr41  1  0.00688918  -0.01049845  0.49469969  1
  Zr  Zr42  1  0.70573913  0.10594487  0.36839419  1
  Zr  Zr43  1  0.40252684  0.60251331  0.23007970  1
  Zr  Zr44  1  0.09606551  0.89618260  0.88964893  1
  Zr  Zr45  1  0.90510826  0.10623784  0.14276985  1
  Zr  Zr46  1  0.57281196  0.40227205  0.76451116  1
  Zr  Zr47  1  0.29876053  0.50378868  0.62555992  1
  Zr  Zr48  1  0.70991009  0.70466821  0.88274865  1
  Zr  Zr49  1  0.30195877  0.50775448  0.36846224  1
  Zr  Zr50  1  0.59722316  0.19552151  0.51266468  1
  Zr  Zr51  1  0.70616238  0.30314557  0.11521935  1
  Zr  Zr52  1  0.89987374  0.48258493  0.62771286  1
  Zr  Zr53  1  0.68415476  0.50439033  0.63442583  1
  Zr  Zr54  1  0.39650010  0.21665287  0.01036510  1
  Zr  Zr55  1  0.38811534  0.80977007  0.24103393  1
  Zr  Zr56  1  -0.02044754  0.58251611  0.00826769  1
  Zr  Zr57  1  0.19075179  0.57159580  0.00603532  1
  Zr  Zr58  1  0.18850016  0.40484766  0.48770790  1
  Zr  Zr59  1  0.72096315  0.88427128  0.12723280  1
  Zr  Zr60  1  0.17691261  0.39707021  0.26744470  1
  Zr  Zr61  1  0.01365094  0.79555675  0.74571343  1
  Zr  Zr62  1  0.80752894  0.60232429  0.51478128  1
  Zr  Zr63  1  0.39983245  0.39986260  0.49498419  1
  Zr  Zr64  1  0.81897340  0.40267757  -0.01307673  1
  Zr  Zr65  1  0.81710116  0.18912615  -0.00498492  1
  Zr  Zr66  1  0.90946174  0.49864178  0.86106336  1
  Zr  Zr67  1  0.20758990  -0.01415269  0.23949149  1
  Zr  Zr68  1  0.60239919  0.00201543  0.74283605  1
  Zr  Zr69  1  0.88793534  0.90779792  0.85645801  1
  Zr  Zr70  1  0.29710330  0.30790804  0.86817009  1
  Zr  Zr71  1  0.01092727  0.59393212  0.74263201  1
  Zr  Zr72  1  0.71186734  0.09172137  0.87175878  1
  Zr  Zr73  1  0.59592699  0.00267480  0.50325469  1
  Zr  Zr74  1  0.60266987  0.79295134  0.24929010  1
  Zr  Zr75  1  0.19409168  -0.00691639  0.75447217  1
  Zr  Zr76  1  0.29335568  0.89741505  0.63564081  1
  Zr  Zr77  1  0.80315626  0.61462994  0.73867675  1
  Zr  Zr78  1  0.08536178  0.69795975  0.11664211  1
  Zr  Zr79  1  0.91532976  0.11266197  0.36934972  1
  Ta  Ta80  1  0.21048554  -0.00036039  0.50588650  1
  Ta  Ta81  1  0.80278759  0.20180534  0.74842519  1
  Ta  Ta82  1  0.89991140  0.69915941  0.37822412  1
  Ta  Ta83  1  0.58165532  0.39825760  -0.01415205  1
  Ta  Ta84  1  0.10390954  0.09755289  0.61521613  1
  Ta  Ta85  1  0.80224586  0.60325864  0.25019511  1
  Ta  Ta86  1  0.50701043  0.70747382  0.10741413  1
  Ta  Ta87  1  0.30479449  0.10037318  0.37761058  1
  Ta  Ta88  1  0.69116436  0.89748809  0.88043765  1
  Ta  Ta89  1  0.69586113  0.29370814  0.87256254  1
  Ta  Ta90  1  0.90605567  0.10684199  0.62985893  1
  Ta  Ta91  1  0.80501596  0.00751976  0.50179581  1
  Ta  Ta92  1  0.10823482  0.69767500  0.62055813  1
  Ta  Ta93  1  0.40134420  0.00956106  0.50480675  1
  Ta  Ta94  1  0.30471483  0.89426628  0.89091102  1
  Ta  Ta95  1  0.40043647  0.60980464  0.49765131  1
  Ta  Ta96  1  0.69599565  0.30434120  0.38400482  1
  Ta  Ta97  1  0.90834024  0.09889157  0.85307224  1
  Ta  Ta98  1  0.90512763  0.88942731  0.37853910  1
  Ta  Ta99  1  0.88076643  0.70865363  0.12568594  1
  Ta  Ta100  1  0.69356730  0.70996004  0.62206612  1
  Ta  Ta101  1  0.39916061  0.01023327  0.23055191  1
  Ta  Ta102  1  0.29250288  0.70937850  0.36982054  1
  Ta  Ta103  1  0.30291380  0.28266849  0.38121751  1
  Ta  Ta104  1  0.49519989  0.69088093  0.63114896  1
  Ta  Ta105  1  0.40402963  0.58713145  0.01262520  1
  Ta  Ta106  1  0.19960109  0.60253861  0.75813560  1
  Ta  Ta107  1  0.50385184  0.29581208  0.37323918  1
  Ta  Ta108  1  0.70520538  0.90262952  0.61837135  1
  Ta  Ta109  1  0.61176877  0.39464821  0.24927867  1
  Ta  Ta110  1  0.08582368  0.29510637  0.60376431  1
  Ta  Ta111  1  0.09756026  0.68964090  0.88819066  1
  Ta  Ta112  1  0.90614852  0.70742041  0.88000522  1
  Ta  Ta113  1  0.59924096  0.20369969  0.74161886  1
  Ta  Ta114  1  0.59841337  0.39999144  0.50381035  1
  Ta  Ta115  1  0.48983076  0.30454360  0.62701517  1
  Ta  Ta116  1  0.19982783  0.61246208  0.49248732  1
  Ta  Ta117  1  0.49036142  0.69886650  0.37169840  1
  Ta  Ta118  1  -0.02479805  0.39575080  0.48776021  1
  Ta  Ta119  1  0.01271287  0.38344464  0.74227922  1
  Ti  Ti120  1  -0.02025173  0.39807029  0.27831395  1
  Ti  Ti121  1  0.39775925  0.19542567  0.50827677  1
  Ti  Ti122  1  0.49887809  0.31238935  0.12824352  1
  Ti  Ti123  1  0.59162464  0.60499243  0.75843728  1
  Ti  Ti124  1  0.79570757  0.80426240  0.74195388  1
  Ti  Ti125  1  0.40499718  0.58979912  0.75973392  1
  Ti  Ti126  1  0.30893466  0.10098050  0.62897528  1
  Ti  Ti127  1  0.39558543  0.80067611  0.76340637  1
  Ti  Ti128  1  0.09714308  0.70762212  0.37431683  1
  Ti  Ti129  1  0.29388381  0.10344297  0.11230324  1
  Ti  Ti130  1  0.49055319  0.50188583  0.62566687  1
  Ti  Ti131  1  0.00987018  0.22471725  -0.00674687  1
  Ti  Ti132  1  0.00566498  0.19945165  0.74354936  1
  Ti  Ti133  1  0.19645323  0.40308499  0.73951064  1
  Ti  Ti134  1  0.40230164  -0.00022779  0.75864415  1
  Ti  Ti135  1  0.59317309  0.20590484  0.24223273  1
  Ti  Ti136  1  0.39839823  0.19881332  0.23712907  1
  Ti  Ti137  1  0.11655805  0.30797824  0.12335775  1
  Ti  Ti138  1  0.00018055  0.78873660  0.50545103  1
  Ti  Ti139  1  0.80229571  0.39152463  0.75772805  1
  Ti  Ti140  1  0.29255311  0.29960766  0.61786597  1
  Ti  Ti141  1  0.81140125  0.81123536  -0.00172384  1
  Ti  Ti142  1  0.59212787  0.60045077  0.50590509  1
  Ti  Ti143  1  0.80833706  0.80353332  0.50947560  1
  Ti  Ti144  1  0.70973175  0.09898511  0.62691899  1
  Ti  Ti145  1  0.00643497  0.59717726  0.49880435  1
  Ti  Ti146  1  0.30271218  0.49521572  0.87293864  1
  Ti  Ti147  1  -0.00159814  0.79899611  0.25127277  1
  Ti  Ti148  1  0.91281865  0.29500413  0.86682017  1
  Ti  Ti149  1  0.49110685  0.90365287  0.37019683  1
  Ti  Ti150  1  0.10472756  0.89655361  0.62875758  1
  Ti  Ti151  1  0.49446040  0.89397464  0.12015321  1
  Ti  Ti152  1  0.39715280  0.40475383  0.00153012  1
  Ti  Ti153  1  0.10888637  0.47880115  0.87274641  1
  Ti  Ti154  1  0.18846562  0.80469657  0.49638865  1
  Ti  Ti155  1  0.81632086  0.21348838  0.50236522  1
  Ti  Ti156  1  0.81493247  -0.01751066  0.25424927  1
  Ti  Ti157  1  0.40428460  0.21108362  0.74543125  1
  Ti  Ti158  1  0.11835659  0.08692666  0.38631822  1
  Ti  Ti159  1  0.10315246  0.49796511  0.61582817  1
  Mo  Mo160  1  0.00812562  0.01135534  0.74111296  1
  Mo  Mo161  1  0.90049444  0.29345644  0.63128870  1
  Mo  Mo162  1  0.29787401  0.90685585  0.10270016  1
  Mo  Mo163  1  0.79743349  -0.00131988  -0.00152804  1
  Mo  Mo164  1  0.79956116  0.41727313  0.25181432  1
  Mo  Mo165  1  0.49668614  0.90473104  0.87309492  1
  Mo  Mo166  1  0.20905758  0.18995237  0.50785218  1
  Mo  Mo167  1  0.91013731  0.89121786  0.13363788  1
  Mo  Mo168  1  -0.00258493  0.19184055  0.50598734  1
  Mo  Mo169  1  0.90786256  0.70566470  0.61566058  1
  Mo  Mo170  1  0.78942075  0.39481960  0.50592040  1
  Mo  Mo171  1  0.18658343  0.79907265  0.25130287  1
  Mo  Mo172  1  0.80316343  0.61027205  -0.00320891  1
  Mo  Mo173  1  0.88393545  0.30581717  0.37894368  1
  Mo  Mo174  1  0.81118091  0.79192491  0.26002538  1
  Mo  Mo175  1  0.89812168  0.50877988  0.38462631  1
  Mo  Mo176  1  -0.01209671  0.79360498  -0.00354438  1
  Mo  Mo177  1  0.19651892  0.79355702  -0.01452804  1
  Mo  Mo178  1  0.38486275  0.40003748  0.74103333  1
  Mo  Mo179  1  0.79905222  0.00340842  0.73571199  1
  Mo  Mo180  1  0.70503734  0.69904986  0.11552246  1
  Mo  Mo181  1  0.47998891  0.50737151  0.87951561  1
  Mo  Mo182  1  0.09979592  0.88450343  0.37773377  1
  Mo  Mo183  1  0.08083961  0.47741133  0.13130136  1
  Mo  Mo184  1  0.48941498  0.10843664  0.63710762  1
  Mo  Mo185  1  0.49778300  0.30085276  0.87221827  1
  Mo  Mo186  1  0.60392979  0.80579565  0.00400623  1
  Mo  Mo187  1  0.90385622  0.50346661  0.13274403  1
  Mo  Mo188  1  0.19872894  0.20871358  0.00150030  1
  Mo  Mo189  1  0.09692027  0.30279893  0.86703945  1
  Mo  Mo190  1  0.29849777  0.29317158  0.13056704  1
  Mo  Mo191  1  0.40612579  0.80364489  -0.00014531  1
  Mo  Mo192  1  0.50360679  0.49028217  0.12116261  1
  Mo  Mo193  1  0.50174239  0.10588952  0.13481634  1
  Mo  Mo194  1  0.01418443  0.21256135  0.24901843  1
  Mo  Mo195  1  0.02134864  0.40004486  -0.00221168  1
  Mo  Mo196  1  0.08921372  0.50931599  0.38890656  1
  Mo  Mo197  1  0.20165854  0.78486892  0.76727341  1
  Mo  Mo198  1  0.20292124  0.00315186  -0.00150463  1
  Mo  Mo199  1  0.20179073  0.38216866  -0.00196370  1
