# generated using pymatgen
data_HfZrTaTiMo
_symmetry_space_group_name_H-M   'P 1'
_cell_length_a   15.21106868
_cell_length_b   15.22969608
_cell_length_c   16.84647752
_cell_angle_alpha   89.97872391
_cell_angle_beta   89.95986409
_cell_angle_gamma   90.04492417
_symmetry_Int_Tables_number   1
_chemical_formula_structural   HfZrTaTiMo
_chemical_formula_sum   'Hf40 Zr40 Ta40 Ti40 Mo40'
_cell_volume   3902.65176466
_cell_formula_units_Z   40
loop_
 _symmetry_equiv_pos_site_id
 _symmetry_equiv_pos_as_xyz
  1  'x, y, z'
loop_
 _atom_site_type_symbol
 _atom_site_label
 _atom_site_symmetry_multiplicity
 _atom_site_fract_x
 _atom_site_fract_y
 _atom_site_fract_z
 _atom_site_occupancy
  Hf  Hf0  1  0.88197949  0.89022142  0.87812422  1
  Hf  Hf1  1  0.19777299  0.21562006  0.49157147  1
  Hf  Hf2  1  0.80426606  0.20392881  0.75303799  1
  Hf  Hf3  1  0.20574875  0.21237660  -0.00212592  1
  Hf  Hf4  1  0.21200988  0.81180644  0.75883811  1
  Hf  Hf5  1  0.58193923  0.00517660  0.02146931  1
  Hf  Hf6  1  0.19991722  0.80201515  -0.01258069  1
  Hf  Hf7  1  0.58894922  0.80994582  0.50143193  1
  Hf  Hf8  1  0.69842594  0.11496549  0.13200058  1
  Hf  Hf9  1  0.91591957  0.49385930  0.86638136  1
  Hf  Hf10  1  0.01306051  0.80520342  0.50872738  1
  Hf  Hf11  1  0.90601945  0.89323086  0.36862850  1
  Hf  Hf12  1  0.09653586  0.50463819  0.13654154  1
  Hf  Hf13  1  0.31073785  0.10142664  0.14091753  1
  Hf  Hf14  1  0.69476089  0.50627893  0.87358436  1
  Hf  Hf15  1  0.19985506  0.60702877  0.73009472  1
  Hf  Hf16  1  0.30082412  0.08496123  0.61484710  1
  Hf  Hf17  1  0.10090002  0.10354189  0.61802506  1
  Hf  Hf18  1  0.78748365  -0.01142859  0.01710407  1
  Hf  Hf19  1  0.08389636  0.90355819  0.13498733  1
  Hf  Hf20  1  0.38550068  -0.01299274  0.76542851  1
  Hf  Hf21  1  0.01493179  0.39741294  0.49952157  1
  Hf  Hf22  1  0.10454283  0.30207708  0.13955237  1
  Hf  Hf23  1  0.19625667  -0.00593566  0.26817987  1
  Hf  Hf24  1  0.41708094  0.21219636  0.49090481  1
  Hf  Hf25  1  -0.01152108  0.78671648  -0.00278460  1
  Hf  Hf26  1  0.89983992  0.09273314  0.88280945  1
  Hf  Hf27  1  0.08543993  0.90417438  0.86986457  1
  Hf  Hf28  1  0.80012537  0.39922198  0.74995379  1
  Hf  Hf29  1  0.10400960  0.70463761  0.13194751  1
  Hf  Hf30  1  0.47787345  0.49739797  0.87810534  1
  Hf  Hf31  1  0.40932720  0.40124444  0.24717163  1
  Hf  Hf32  1  0.81761779  0.60611852  -0.00925722  1
  Hf  Hf33  1  0.10263097  0.31565963  0.87246411  1
  Hf  Hf34  1  0.69894110  0.10809083  0.35962898  1
  Hf  Hf35  1  0.59535133  0.78741931  0.24265988  1
  Hf  Hf36  1  0.47715907  0.89265987  0.62703326  1
  Hf  Hf37  1  0.70555616  0.31304323  0.10927866  1
  Hf  Hf38  1  0.80634049  0.59634152  0.25194429  1
  Hf  Hf39  1  0.30449433  0.10165783  0.37383190  1
  Zr  Zr40  1  0.81188118  0.20995550  0.25040073  1
  Zr  Zr41  1  0.61517079  0.18534490  0.50319991  1
  Zr  Zr42  1  0.89377181  0.50935380  0.39007100  1
  Zr  Zr43  1  0.10368750  0.10558500  0.14130467  1
  Zr  Zr44  1  0.00247159  0.20314368  0.75556989  1
  Zr  Zr45  1  0.90618601  0.69372513  0.85015900  1
  Zr  Zr46  1  0.68083686  0.91158201  0.87354203  1
  Zr  Zr47  1  0.31079435  0.70906826  0.37885222  1
  Zr  Zr48  1  0.20507646  0.20514609  0.75255095  1
  Zr  Zr49  1  0.08625594  0.11503784  0.36255606  1
  Zr  Zr50  1  0.80466316  0.81166376  0.73117974  1
  Zr  Zr51  1  0.28510466  0.89974870  0.12702731  1
  Zr  Zr52  1  0.39751642  0.58011342  0.73537544  1
  Zr  Zr53  1  0.68384999  0.49672868  0.62060624  1
  Zr  Zr54  1  0.88682732  0.10042259  0.61594338  1
  Zr  Zr55  1  0.40849147  0.78719953  -0.01473528  1
  Zr  Zr56  1  0.39875472  -0.02111885  0.48827173  1
  Zr  Zr57  1  0.50943544  0.68964189  0.38187989  1
  Zr  Zr58  1  0.90103333  0.29942821  0.10733502  1
  Zr  Zr59  1  0.49695800  0.49172644  0.38059151  1
  Zr  Zr60  1  0.38562147  -0.01015922  -0.01256109  1
  Zr  Zr61  1  0.70419314  0.50277498  0.10966370  1
  Zr  Zr62  1  -0.01466779  0.40045551  0.25689980  1
  Zr  Zr63  1  0.30003054  0.50818048  0.37444379  1
  Zr  Zr64  1  0.71462796  0.70665877  0.11833236  1
  Zr  Zr65  1  0.31819331  0.31221424  0.62237038  1
  Zr  Zr66  1  0.60190708  0.80701657  0.01119567  1
  Zr  Zr67  1  0.40992475  0.19398007  0.74723892  1
  Zr  Zr68  1  0.19415034  0.61035186  0.51407651  1
  Zr  Zr69  1  -0.00128826  0.60428671  0.51256523  1
  Zr  Zr70  1  0.60297118  0.79738078  0.74200803  1
  Zr  Zr71  1  0.69105812  0.50109218  0.39698940  1
  Zr  Zr72  1  0.40328533  0.19792886  -0.00114344  1
  Zr  Zr73  1  -0.01315054  -0.00849983  0.74031065  1
  Zr  Zr74  1  0.50756711  0.29102148  0.13028160  1
  Zr  Zr75  1  0.41010461  0.78503848  0.77463833  1
  Zr  Zr76  1  0.69012605  0.90666733  0.37024511  1
  Zr  Zr77  1  0.61056486  0.19801507  0.74539130  1
  Zr  Zr78  1  0.71771067  0.69656067  0.39712323  1
  Zr  Zr79  1  0.88774219  0.88001237  0.13416178  1
  Ta  Ta80  1  0.01117178  0.19078632  -0.00469565  1
  Ta  Ta81  1  0.30590593  0.70216340  0.12761990  1
  Ta  Ta82  1  0.90994542  0.09406961  0.12817808  1
  Ta  Ta83  1  0.19629622  0.79779898  0.26033072  1
  Ta  Ta84  1  0.20294358  0.59849598  0.00428524  1
  Ta  Ta85  1  0.31074666  0.72448198  0.61861420  1
  Ta  Ta86  1  0.11089230  0.90350412  0.62895671  1
  Ta  Ta87  1  0.69217022  0.91825845  0.61440167  1
  Ta  Ta88  1  0.78132133  0.40218852  0.26003469  1
  Ta  Ta89  1  0.90475401  0.30395936  0.61716309  1
  Ta  Ta90  1  0.39485075  0.59082077  0.01122336  1
  Ta  Ta91  1  0.42057237  0.19076536  0.26245636  1
  Ta  Ta92  1  0.10592494  0.50087319  0.36769088  1
  Ta  Ta93  1  0.70324563  0.70711758  0.87674259  1
  Ta  Ta94  1  0.18659975  -0.00678273  0.48352991  1
  Ta  Ta95  1  0.60123320  0.20030440  -0.00381389  1
  Ta  Ta96  1  -0.00115400  0.20182226  0.49781679  1
  Ta  Ta97  1  0.50351186  0.29730579  0.87676631  1
  Ta  Ta98  1  0.50933524  0.09103513  0.87435918  1
  Ta  Ta99  1  0.41167187  0.60814390  0.23647922  1
  Ta  Ta100  1  0.29949003  0.67321965  0.87750069  1
  Ta  Ta101  1  0.70199209  0.10598400  0.88619382  1
  Ta  Ta102  1  0.78233837  0.00865497  0.74469173  1
  Ta  Ta103  1  0.21136613  0.41541724  0.73939528  1
  Ta  Ta104  1  0.09976814  0.69389493  0.86472606  1
  Ta  Ta105  1  0.89635691  0.09379068  0.37435701  1
  Ta  Ta106  1  0.09376593  0.70631673  0.37222870  1
  Ta  Ta107  1  0.29964445  0.30775466  0.36368912  1
  Ta  Ta108  1  0.50391987  0.49881856  0.11979860  1
  Ta  Ta109  1  0.47988125  0.89262765  0.13975861  1
  Ta  Ta110  1  0.90408244  0.29455983  0.38193515  1
  Ta  Ta111  1  -0.00383432  -0.00307679  0.00357586  1
  Ta  Ta112  1  0.58404074  0.37793899  0.50213744  1
  Ta  Ta113  1  0.58507580  0.00850483  0.23620683  1
  Ta  Ta114  1  0.31003200  0.32171688  0.87036995  1
  Ta  Ta115  1  -0.00568116  -0.00226880  0.50069545  1
  Ta  Ta116  1  0.70395905  0.30366719  0.88891679  1
  Ta  Ta117  1  0.70207775  0.69977220  0.60921668  1
  Ta  Ta118  1  0.58885941  0.40341775  -0.00828358  1
  Ta  Ta119  1  0.89779664  0.29874151  0.89374577  1
  Ti  Ti120  1  0.11481506  0.50907838  0.86877960  1
  Ti  Ti121  1  0.58898434  0.60971161  -0.00479845  1
  Ti  Ti122  1  0.20398704  0.41107611  0.00424528  1
  Ti  Ti123  1  0.50569683  0.68723902  0.61612399  1
  Ti  Ti124  1  0.81336291  0.80726817  0.50933287  1
  Ti  Ti125  1  0.39010842  0.39623050  0.01217772  1
  Ti  Ti126  1  0.20931665  0.81439284  0.49503026  1
  Ti  Ti127  1  0.01458600  0.59382488  -0.00422452  1
  Ti  Ti128  1  0.00758263  0.59712211  0.72800256  1
  Ti  Ti129  1  0.20855038  0.41058382  0.50403986  1
  Ti  Ti130  1  0.51001884  0.08832168  0.61678906  1
  Ti  Ti131  1  0.29318571  0.10778505  0.87560797  1
  Ti  Ti132  1  0.79801656  0.39250261  0.50166053  1
  Ti  Ti133  1  0.59558024  0.60487551  0.75188314  1
  Ti  Ti134  1  0.78819693  0.00445373  0.49683844  1
  Ti  Ti135  1  0.10481177  0.30495775  0.62726129  1
  Ti  Ti136  1  0.89760589  0.49296115  0.11853634  1
  Ti  Ti137  1  0.00914482  0.40506496  0.00024638  1
  Ti  Ti138  1  0.79179827  0.60270946  0.73768303  1
  Ti  Ti139  1  -0.00066537  0.61106405  0.26198838  1
  Ti  Ti140  1  0.29566082  0.49854702  0.13459990  1
  Ti  Ti141  1  0.00765756  0.40467929  0.73724126  1
  Ti  Ti142  1  0.70444532  0.29627444  0.62270077  1
  Ti  Ti143  1  0.51020269  0.08805262  0.37412793  1
  Ti  Ti144  1  0.80384912  0.20410844  0.49426019  1
  Ti  Ti145  1  0.79682593  -0.00588014  0.24181639  1
  Ti  Ti146  1  0.91182630  0.68573282  0.12792359  1
  Ti  Ti147  1  0.20546377  0.60375562  0.25130241  1
  Ti  Ti148  1  0.39932356  0.59277351  0.51300109  1
  Ti  Ti149  1  0.60617327  0.58372649  0.24436197  1
  Ti  Ti150  1  0.90568921  0.70714577  0.63075663  1
  Ti  Ti151  1  0.80428892  0.78800788  0.25949140  1
  Ti  Ti152  1  0.58719989  0.39627223  0.75116642  1
  Ti  Ti153  1  0.89360090  0.49782344  0.62170619  1
  Ti  Ti154  1  0.19352281  0.01010204  0.76101125  1
  Ti  Ti155  1  0.59021456  0.00237929  0.74730874  1
  Ti  Ti156  1  0.18466967  0.01346326  -0.00981230  1
  Ti  Ti157  1  0.48438356  0.47256809  0.61536561  1
  Ti  Ti158  1  0.29716296  0.29867130  0.14604123  1
  Ti  Ti159  1  0.48371192  0.89102540  0.35705013  1
  Mo  Mo160  1  0.80519877  0.40719432  -0.01417559  1
  Mo  Mo161  1  0.80380214  0.19381047  -0.00142217  1
  Mo  Mo162  1  0.10623237  0.71372652  0.63247403  1
  Mo  Mo163  1  0.50324781  0.90200996  0.87304145  1
  Mo  Mo164  1  0.51388561  0.68331937  0.87483787  1
  Mo  Mo165  1  0.21125246  0.21191960  0.25824091  1
  Mo  Mo166  1  0.69341391  0.90284148  0.14542743  1
  Mo  Mo167  1  0.51360118  0.30089692  0.62753164  1
  Mo  Mo168  1  0.79628479  0.79454920  -0.00186287  1
  Mo  Mo169  1  0.40345577  0.39122887  0.75173608  1
  Mo  Mo170  1  0.59156290  0.59319903  0.51541856  1
  Mo  Mo171  1  0.89536530  0.90452856  0.61318534  1
  Mo  Mo172  1  0.10499328  0.31256416  0.36707933  1
  Mo  Mo173  1  0.30302421  0.50440924  0.61271149  1
  Mo  Mo174  1  0.80448749  0.60149643  0.52439065  1
  Mo  Mo175  1  0.90289139  0.70248392  0.38370686  1
  Mo  Mo176  1  0.01114579  0.79323579  0.73403415  1
  Mo  Mo177  1  0.49941066  0.68905567  0.12475073  1
  Mo  Mo178  1  0.60622817  0.21299388  0.25602670  1
  Mo  Mo179  1  -0.01490253  0.00196241  0.25187737  1
  Mo  Mo180  1  0.59630350  -0.00476205  0.49251665  1
  Mo  Mo181  1  0.70605397  0.30686240  0.38241243  1
  Mo  Mo182  1  -0.00489073  0.20248919  0.25363331  1
  Mo  Mo183  1  0.60763756  0.40530940  0.24897109  1
  Mo  Mo184  1  0.51387516  0.29185128  0.36313178  1
  Mo  Mo185  1  0.39698968  0.78953597  0.50134791  1
  Mo  Mo186  1  -0.00168203  0.79023652  0.25516260  1
  Mo  Mo187  1  0.09737425  0.89875864  0.37533575  1
  Mo  Mo188  1  0.09984671  0.10253130  0.88133736  1
  Mo  Mo189  1  0.39461164  0.39188117  0.48974337  1
  Mo  Mo190  1  0.28646108  0.49551862  0.87992301  1
  Mo  Mo191  1  0.40114939  -0.00474930  0.26056414  1
  Mo  Mo192  1  0.20193790  0.40958731  0.25174478  1
  Mo  Mo193  1  0.28787125  0.90843845  0.62446458  1
  Mo  Mo194  1  0.09874068  0.49157377  0.62839642  1
  Mo  Mo195  1  0.39472808  0.79545875  0.24350663  1
  Mo  Mo196  1  0.28777159  0.90090666  0.88337665  1
  Mo  Mo197  1  0.49567300  0.09918544  0.12971450  1
  Mo  Mo198  1  0.29731188  0.89560608  0.36935009  1
  Mo  Mo199  1  0.69828690  0.09663353  0.62297977  1
