# generated using pymatgen
data_HfZrTaTiMo
_symmetry_space_group_name_H-M   'P 1'
_cell_length_a   15.20745745
_cell_length_b   15.19911235
_cell_length_c   16.85573695
_cell_angle_alpha   90.02004433
_cell_angle_beta   90.05196843
_cell_angle_gamma   90.14611688
_symmetry_Int_Tables_number   1
_chemical_formula_structural   HfZrTaTiMo
_chemical_formula_sum   'Hf40 Zr40 Ta40 Ti40 Mo40'
_cell_volume   3896.01807119
_cell_formula_units_Z   40
loop_
 _symmetry_equiv_pos_site_id
 _symmetry_equiv_pos_as_xyz
  1  'x, y, z'
loop_
 _atom_site_type_symbol
 _atom_site_label
 _atom_site_symmetry_multiplicity
 _atom_site_fract_x
 _atom_site_fract_y
 _atom_site_fract_z
 _atom_site_occupancy
  Hf  Hf0  1  0.40467331  0.19193793  0.00352893  1
  Hf  Hf1  1  0.60378259  0.19875953  0.50131611  1
  Hf  Hf2  1  0.00056402  0.80528286  0.25066678  1
  Hf  Hf3  1  0.80562433  0.39048409  0.48961433  1
  Hf  Hf4  1  0.90066140  0.69660274  0.62568121  1
  Hf  Hf5  1  -0.00278950  0.41478296  0.00741143  1
  Hf  Hf6  1  -0.00643026  0.80938033  0.75838791  1
  Hf  Hf7  1  0.38812459  0.19190236  0.50441519  1
  Hf  Hf8  1  0.00336029  0.03318818  0.48598023  1
  Hf  Hf9  1  0.39198858  0.00024293  0.75016938  1
  Hf  Hf10  1  0.79470026  0.58453885  0.49680847  1
  Hf  Hf11  1  0.00528363  0.60337989  0.48729278  1
  Hf  Hf12  1  0.50711994  0.50621052  0.36313366  1
  Hf  Hf13  1  0.58673715  -0.00792355  0.51114628  1
  Hf  Hf14  1  0.78568066  0.79079976  0.23885760  1
  Hf  Hf15  1  0.41380557  0.60746001  0.49660495  1
  Hf  Hf16  1  -0.01314783  0.20593745  0.76133300  1
  Hf  Hf17  1  0.78940027  0.78499534  0.50421731  1
  Hf  Hf18  1  0.11084282  0.50953460  0.62185318  1
  Hf  Hf19  1  0.58643193  0.78417593  0.75197644  1
  Hf  Hf20  1  0.79792494  0.57904437  0.01775241  1
  Hf  Hf21  1  0.60601502  0.20443862  0.75348951  1
  Hf  Hf22  1  0.91130865  0.29347379  0.36358648  1
  Hf  Hf23  1  0.79729813  -0.00104842  0.75521502  1
  Hf  Hf24  1  0.39787557  0.40434343  0.49746796  1
  Hf  Hf25  1  0.71422821  0.30612348  0.11805641  1
  Hf  Hf26  1  0.47941433  0.08469992  0.37728460  1
  Hf  Hf27  1  0.10875807  0.72586260  0.60960703  1
  Hf  Hf28  1  0.59376069  0.80577329  -0.00354117  1
  Hf  Hf29  1  0.09181735  0.09553928  0.12408352  1
  Hf  Hf30  1  0.20310238  0.20564328  0.75556035  1
  Hf  Hf31  1  0.40834796  0.59203921  -0.00483573  1
  Hf  Hf32  1  0.21561007  0.61181572  0.48787953  1
  Hf  Hf33  1  0.80956732  0.19129748  0.48730023  1
  Hf  Hf34  1  0.80027060  0.79449889  0.00194113  1
  Hf  Hf35  1  0.90252200  0.89920577  0.38009349  1
  Hf  Hf36  1  0.10859702  0.70077331  0.13925208  1
  Hf  Hf37  1  0.20720495  0.20914160  0.23933107  1
  Hf  Hf38  1  0.20640860  -0.00912377  -0.00593030  1
  Hf  Hf39  1  0.39152045  0.79801474  -0.02183453  1
  Zr  Zr40  1  0.80040840  0.38879329  0.74977629  1
  Zr  Zr41  1  -0.00704742  0.00026703  0.75977630  1
  Zr  Zr42  1  0.90108268  0.49626326  0.62652662  1
  Zr  Zr43  1  0.60507660  0.60867893  0.22809354  1
  Zr  Zr44  1  0.68966345  0.10120938  0.37002989  1
  Zr  Zr45  1  0.79443999  0.79946801  0.75496396  1
  Zr  Zr46  1  0.11539430  0.90350328  0.13678985  1
  Zr  Zr47  1  0.50344679  0.30178955  0.62195270  1
  Zr  Zr48  1  0.61181388  0.40461398  0.49440090  1
  Zr  Zr49  1  0.41197165  0.40295029  0.75104735  1
  Zr  Zr50  1  0.60186362  0.19326195  0.22893522  1
  Zr  Zr51  1  0.11370343  0.92953991  0.36070465  1
  Zr  Zr52  1  0.69304161  0.67792882  0.87468839  1
  Zr  Zr53  1  0.50779532  0.09814859  0.87854305  1
  Zr  Zr54  1  0.30985698  0.70851458  0.12973910  1
  Zr  Zr55  1  -0.00329132  0.80481878  0.00493674  1
  Zr  Zr56  1  0.40895148  0.60648763  0.75775736  1
  Zr  Zr57  1  0.79019580  -0.00336489  0.49781462  1
  Zr  Zr58  1  0.91769332  0.90065539  0.60725126  1
  Zr  Zr59  1  0.50295374  0.29183742  0.37056766  1
  Zr  Zr60  1  0.61346487  0.41943229  0.00708940  1
  Zr  Zr61  1  0.20635043  0.58427013  0.01409435  1
  Zr  Zr62  1  0.11957146  0.50958275  0.86933340  1
  Zr  Zr63  1  0.10268041  0.09795048  0.88174293  1
  Zr  Zr64  1  0.58192481  0.78527120  0.51467142  1
  Zr  Zr65  1  0.67774458  0.88709355  0.37422001  1
  Zr  Zr66  1  0.38981547  0.39708240  0.25046944  1
  Zr  Zr67  1  0.10061175  0.30985617  0.88703281  1
  Zr  Zr68  1  0.19186824  0.78924387  0.76094174  1
  Zr  Zr69  1  0.79375395  -0.00134581  0.24889614  1
  Zr  Zr70  1  0.30570324  0.32187343  0.89290349  1
  Zr  Zr71  1  0.89446835  0.69418202  0.36849073  1
  Zr  Zr72  1  -0.00190658  0.60429395  0.01180521  1
  Zr  Zr73  1  0.00515312  0.40187920  0.75487189  1
  Zr  Zr74  1  0.57674451  -0.00416042  0.23626988  1
  Zr  Zr75  1  0.09114784  0.10601900  0.62980186  1
  Zr  Zr76  1  0.20497594  0.20081897  0.01066757  1
  Zr  Zr77  1  -0.01278233  0.20211699  0.00139090  1
  Zr  Zr78  1  0.39872798  0.18514555  0.23508079  1
  Zr  Zr79  1  0.39749519  0.20403180  0.75872337  1
  Ta  Ta80  1  0.49622508  0.09466167  0.63013370  1
  Ta  Ta81  1  0.52194549  0.51492133  0.62833587  1
  Ta  Ta82  1  0.37562788  0.79476477  0.50412589  1
  Ta  Ta83  1  0.00921938  0.61169273  0.74956759  1
  Ta  Ta84  1  0.50056637  0.30359531  0.10998588  1
  Ta  Ta85  1  0.10180025  0.30800526  0.62138349  1
  Ta  Ta86  1  0.20786034  0.59401954  0.26002098  1
  Ta  Ta87  1  0.30843558  0.51112968  0.62270229  1
  Ta  Ta88  1  0.60426206  0.39735057  0.23844188  1
  Ta  Ta89  1  0.00284620  0.19497914  0.24556931  1
  Ta  Ta90  1  0.69450926  0.89123883  0.63028662  1
  Ta  Ta91  1  0.90371694  0.29866198  0.13397335  1
  Ta  Ta92  1  0.69096264  0.68926742  0.36806956  1
  Ta  Ta93  1  0.91045922  0.29098588  0.61706365  1
  Ta  Ta94  1  0.89773307  0.69045755  0.87239563  1
  Ta  Ta95  1  0.60033313  -0.00537902  0.74261005  1
  Ta  Ta96  1  0.69175379  0.66795811  0.64041302  1
  Ta  Ta97  1  0.28026344  0.88846359  0.62925191  1
  Ta  Ta98  1  0.01253971  0.59180011  0.25497727  1
  Ta  Ta99  1  0.19818213  0.79267471  -0.00812232  1
  Ta  Ta100  1  0.23142491  0.80973776  0.26446494  1
  Ta  Ta101  1  0.69787737  0.09944851  0.62825829  1
  Ta  Ta102  1  0.60877940  0.59704922  0.49427312  1
  Ta  Ta103  1  0.18150053  0.20223057  0.49589384  1
  Ta  Ta104  1  0.50157141  0.70983000  0.36688748  1
  Ta  Ta105  1  0.71210068  0.49636457  0.35108340  1
  Ta  Ta106  1  0.48257742  0.88941382  0.63402616  1
  Ta  Ta107  1  0.10026535  0.31563912  0.12679348  1
  Ta  Ta108  1  0.10979349  0.71257151  0.37203066  1
  Ta  Ta109  1  0.91053296  0.49062718  0.35953976  1
  Ta  Ta110  1  0.21493768  0.40966294  0.74338708  1
  Ta  Ta111  1  0.38629345  -0.00958095  0.51470962  1
  Ta  Ta112  1  0.60779832  0.40085431  0.75617847  1
  Ta  Ta113  1  0.28132661  0.08968316  0.37599881  1
  Ta  Ta114  1  0.28838864  0.29293317  0.38165826  1
  Ta  Ta115  1  0.69551594  0.90388361  0.11740222  1
  Ta  Ta116  1  0.88836752  0.09879501  0.12685964  1
  Ta  Ta117  1  0.39119456  0.79615954  0.75851534  1
  Ta  Ta118  1  0.19585669  -0.00274184  0.75072144  1
  Ta  Ta119  1  0.88910961  0.10734189  0.62750922  1
  Ti  Ti120  1  0.79797094  0.19854496  0.25138354  1
  Ti  Ti121  1  0.30312633  0.07585144  0.12309856  1
  Ti  Ti122  1  0.39669232  0.61098568  0.25439849  1
  Ti  Ti123  1  0.01509214  0.39815752  0.49421873  1
  Ti  Ti124  1  0.50051309  0.89938466  0.86696325  1
  Ti  Ti125  1  0.60421143  0.60907348  0.01954890  1
  Ti  Ti126  1  0.28930435  0.30672620  0.61567240  1
  Ti  Ti127  1  0.09392941  0.69668478  0.88096045  1
  Ti  Ti128  1  0.28853056  0.49032971  0.37554676  1
  Ti  Ti129  1  0.51709684  0.30817314  0.89662356  1
  Ti  Ti130  1  0.71365119  0.48575914  0.87404211  1
  Ti  Ti131  1  0.47808567  0.89165416  0.37854783  1
  Ti  Ti132  1  0.29118684  0.90401128  0.86664435  1
  Ti  Ti133  1  0.09180196  0.89682536  0.88240769  1
  Ti  Ti134  1  0.19901133  -0.00333907  0.50784636  1
  Ti  Ti135  1  0.79700143  -0.00387219  0.00093193  1
  Ti  Ti136  1  0.47790500  0.90370044  0.11570247  1
  Ti  Ti137  1  -0.01329424  -0.00386703  -0.00352882  1
  Ti  Ti138  1  0.69753896  0.10574968  0.88496110  1
  Ti  Ti139  1  0.48805399  0.49895715  0.12957188  1
  Ti  Ti140  1  0.10729777  0.31815600  0.36739334  1
  Ti  Ti141  1  0.79557203  0.19674479  0.75781401  1
  Ti  Ti142  1  0.89825049  0.48595251  0.15036516  1
  Ti  Ti143  1  0.49824702  0.71165735  0.12204885  1
  Ti  Ti144  1  0.51300412  0.50752011  0.87828559  1
  Ti  Ti145  1  0.37585514  -0.02158446  0.24664917  1
  Ti  Ti146  1  0.39849939  -0.00500795  -0.01170722  1
  Ti  Ti147  1  0.79060886  0.19703425  0.00197550  1
  Ti  Ti148  1  0.87929728  0.30590734  0.88830748  1
  Ti  Ti149  1  0.71201331  0.29506689  0.62415650  1
  Ti  Ti150  1  0.90271460  0.90712615  0.12972583  1
  Ti  Ti151  1  0.89714738  0.69173970  0.13710147  1
  Ti  Ti152  1  0.28882641  0.67947377  0.87358920  1
  Ti  Ti153  1  0.30198032  0.32621598  0.11143243  1
  Ti  Ti154  1  0.59113547  0.80510858  0.23623464  1
  Ti  Ti155  1  0.88881728  0.09536385  0.88362242  1
  Ti  Ti156  1  0.29127996  0.10088785  0.62649269  1
  Ti  Ti157  1  0.69577044  0.90818733  0.87814669  1
  Ti  Ti158  1  0.59853584  0.01198506  0.01142200  1
  Ti  Ti159  1  0.90178978  0.50627589  0.87004775  1
  Mo  Mo160  1  0.31205058  0.70303710  0.36555282  1
  Mo  Mo161  1  0.29856712  0.09644932  0.87237420  1
  Mo  Mo162  1  0.60631772  0.58281824  0.75783771  1
  Mo  Mo163  1  -0.00047951  0.21569939  0.49580244  1
  Mo  Mo164  1  0.30752148  0.49908207  0.87204849  1
  Mo  Mo165  1  0.20023026  0.81156928  0.48448857  1
  Mo  Mo166  1  0.69757937  0.29445947  0.88656487  1
  Mo  Mo167  1  0.10202316  0.91149027  0.61969645  1
  Mo  Mo168  1  0.49518943  0.69627201  0.62708217  1
  Mo  Mo169  1  -0.00726914  0.00953903  0.25130838  1
  Mo  Mo170  1  0.00899398  0.39731816  0.24654136  1
  Mo  Mo171  1  0.70114088  0.30476575  0.35966549  1
  Mo  Mo172  1  0.80643330  0.59668752  0.23908922  1
  Mo  Mo173  1  0.10504930  0.12918494  0.36642004  1
  Mo  Mo174  1  0.41714482  0.80562712  0.24783916  1
  Mo  Mo175  1  0.20594412  0.01321275  0.24393791  1
  Mo  Mo176  1  0.90738106  0.09775164  0.35713647  1
  Mo  Mo177  1  0.81038054  0.59134920  0.75561422  1
  Mo  Mo178  1  0.70152995  0.48772859  0.62810332  1
  Mo  Mo179  1  0.10349283  0.49875223  0.13973053  1
  Mo  Mo180  1  0.89021084  0.90209760  0.88541481  1
  Mo  Mo181  1  0.20502009  0.60070984  0.74201220  1
  Mo  Mo182  1  0.80186227  0.38868549  0.25656124  1
  Mo  Mo183  1  0.49280634  0.09065017  0.11130097  1
  Mo  Mo184  1  0.20220055  0.40781104  0.01138963  1
  Mo  Mo185  1  0.30294645  0.89445673  0.11531532  1
  Mo  Mo186  1  0.20370339  0.40018048  0.50311869  1
  Mo  Mo187  1  0.30777116  0.90944060  0.38155107  1
  Mo  Mo188  1  0.60420358  0.20074330  0.00961205  1
  Mo  Mo189  1  0.40764556  0.40949472  0.00511002  1
  Mo  Mo190  1  0.69851921  0.70929553  0.11602565  1
  Mo  Mo191  1  0.30543123  0.50414063  0.13777310  1
  Mo  Mo192  1  0.49974510  0.70056296  0.88186357  1
  Mo  Mo193  1  0.81378270  0.39735498  0.00120691  1
  Mo  Mo194  1  0.30382206  0.70255403  0.62781878  1
  Mo  Mo195  1  0.70331216  0.09617740  0.11258858  1
  Mo  Mo196  1  0.10281512  0.50057482  0.37711478  1
  Mo  Mo197  1  0.19947803  0.40630469  0.24844723  1
  Mo  Mo198  1  0.01394838  0.80820435  0.48668500  1
  Mo  Mo199  1  0.70855405  0.50008093  0.14128770  1
