# generated using pymatgen
data_HfZrTaTiMo
_symmetry_space_group_name_H-M   'P 1'
_cell_length_a   15.20479370
_cell_length_b   15.19713398
_cell_length_c   16.82867343
_cell_angle_alpha   90.00879362
_cell_angle_beta   90.01191528
_cell_angle_gamma   90.07903852
_symmetry_Int_Tables_number   1
_chemical_formula_structural   HfZrTaTiMo
_chemical_formula_sum   'Hf40 Zr40 Ta40 Ti40 Mo40'
_cell_volume   3888.58574008
_cell_formula_units_Z   40
loop_
 _symmetry_equiv_pos_site_id
 _symmetry_equiv_pos_as_xyz
  1  'x, y, z'
loop_
 _atom_site_type_symbol
 _atom_site_label
 _atom_site_symmetry_multiplicity
 _atom_site_fract_x
 _atom_site_fract_y
 _atom_site_fract_z
 _atom_site_occupancy
  Hf  Hf0  1  0.08821698  0.68094998  0.88078881  1
  Hf  Hf1  1  0.49412400  0.90645187  0.14152390  1
  Hf  Hf2  1  0.68790681  0.11345299  0.61665591  1
  Hf  Hf3  1  0.32113278  0.27864114  0.62759254  1
  Hf  Hf4  1  0.59855572  0.60588104  0.49191116  1
  Hf  Hf5  1  0.09720144  0.89433074  0.88580304  1
  Hf  Hf6  1  0.88800760  0.11126699  0.88021155  1
  Hf  Hf7  1  0.28556634  0.68359868  0.36505424  1
  Hf  Hf8  1  0.68987820  0.89878273  0.12479657  1
  Hf  Hf9  1  0.50969787  0.10520061  0.10193082  1
  Hf  Hf10  1  0.69932210  0.49896712  0.12685208  1
  Hf  Hf11  1  0.70749517  0.49582679  0.37332640  1
  Hf  Hf12  1  -0.01362863  0.79639803  0.00696610  1
  Hf  Hf13  1  0.40265556  0.59963780  0.00454472  1
  Hf  Hf14  1  0.80666692  0.60588366  0.01266902  1
  Hf  Hf15  1  0.10544936  0.48346982  0.36757465  1
  Hf  Hf16  1  0.39423044  0.80589379  0.74750297  1
  Hf  Hf17  1  0.50475556  0.50169285  0.12529013  1
  Hf  Hf18  1  0.91741723  0.31520496  0.37334979  1
  Hf  Hf19  1  0.50203078  0.70667682  0.13994693  1
  Hf  Hf20  1  0.60736773  0.20604131  0.24508970  1
  Hf  Hf21  1  0.68662463  0.89393575  0.88938009  1
  Hf  Hf22  1  0.69980557  0.11388053  0.39450724  1
  Hf  Hf23  1  0.08595835  0.90922562  0.13146736  1
  Hf  Hf24  1  0.09349200  0.88400833  0.61840940  1
  Hf  Hf25  1  0.18991729  0.58579209  0.73939480  1
  Hf  Hf26  1  0.29768998  0.89628699  0.88651318  1
  Hf  Hf27  1  0.71526880  0.08861222  0.10126161  1
  Hf  Hf28  1  0.48706839  0.09985166  0.88054480  1
  Hf  Hf29  1  0.19309822  0.58122302  0.50531649  1
  Hf  Hf30  1  0.89328165  0.90020751  0.62167239  1
  Hf  Hf31  1  0.18987803  0.78461240  0.74912018  1
  Hf  Hf32  1  -0.00943622  0.58541539  0.48676437  1
  Hf  Hf33  1  0.89180226  0.69314649  0.62901519  1
  Hf  Hf34  1  0.70620987  0.30614435  0.37962155  1
  Hf  Hf35  1  0.19381332  0.78548885  0.02302793  1
  Hf  Hf36  1  0.49769991  0.48920261  0.37906978  1
  Hf  Hf37  1  0.39976401  0.79849762  0.01084480  1
  Hf  Hf38  1  0.39969440  0.18499113  0.24225007  1
  Hf  Hf39  1  0.82612929  0.42204237  0.50794080  1
  Zr  Zr40  1  -0.00675790  0.79306703  0.48422460  1
  Zr  Zr41  1  0.68696868  0.09733355  0.89956083  1
  Zr  Zr42  1  0.60805454  0.62161623  0.75076119  1
  Zr  Zr43  1  0.90177616  0.10418060  0.62009655  1
  Zr  Zr44  1  0.59556947  0.81769249  0.74036056  1
  Zr  Zr45  1  0.78261695  0.00786175  0.75134203  1
  Zr  Zr46  1  0.02318692  0.19979151  0.25154441  1
  Zr  Zr47  1  0.92197113  0.50906297  0.88718492  1
  Zr  Zr48  1  0.29149653  0.28907014  0.38152801  1
  Zr  Zr49  1  0.38812723  0.81219085  0.48953118  1
  Zr  Zr50  1  0.50752034  0.30558598  0.10926153  1
  Zr  Zr51  1  0.71826219  0.29685887  0.87161022  1
  Zr  Zr52  1  0.56445350  0.02100612  0.49327107  1
  Zr  Zr53  1  0.69287189  0.91131535  0.60656624  1
  Zr  Zr54  1  0.80633791  0.59234097  0.25275642  1
  Zr  Zr55  1  0.20797483  -0.01477818  0.75040977  1
  Zr  Zr56  1  0.50198941  0.49809731  0.63657821  1
  Zr  Zr57  1  0.79885703  0.62141643  0.48100918  1
  Zr  Zr58  1  0.20060084  0.57930870  0.02117579  1
  Zr  Zr59  1  0.70219364  0.91767935  0.38125801  1
  Zr  Zr60  1  0.49631241  0.30585512  0.85838308  1
  Zr  Zr61  1  0.81284657  0.18588949  0.24525716  1
  Zr  Zr62  1  0.20801036  0.18236482  0.74855926  1
  Zr  Zr63  1  0.71515606  0.51515588  0.63166804  1
  Zr  Zr64  1  0.40442766  0.38945008  0.25539409  1
  Zr  Zr65  1  0.58879146  0.80203633  0.48399158  1
  Zr  Zr66  1  0.79101531  0.79705309  0.00613870  1
  Zr  Zr67  1  0.38511661  0.58860606  0.24697753  1
  Zr  Zr68  1  0.60485280  0.41733669  -0.02206148  1
  Zr  Zr69  1  0.20025220  0.38499757  0.74479033  1
  Zr  Zr70  1  0.00227735  0.21303795  0.75185020  1
  Zr  Zr71  1  0.39495411  0.60438100  0.50011350  1
  Zr  Zr72  1  0.10941260  0.08635735  0.61404471  1
  Zr  Zr73  1  0.19334105  0.01705502  0.25567852  1
  Zr  Zr74  1  0.00125944  -0.00039961  0.76074950  1
  Zr  Zr75  1  0.80945763  0.22344556  0.51525155  1
  Zr  Zr76  1  0.20147705  0.39074692  0.23889558  1
  Zr  Zr77  1  0.70783266  0.29327726  0.10424402  1
  Zr  Zr78  1  0.29800318  0.68335073  0.87368229  1
  Zr  Zr79  1  0.40116647  0.39381160  0.50447574  1
  Ta  Ta80  1  0.91344528  0.29901620  0.11153867  1
  Ta  Ta81  1  0.20926725  0.38241554  0.00010777  1
  Ta  Ta82  1  0.28397379  0.09846959  0.88916002  1
  Ta  Ta83  1  0.39420781  0.40792273  -0.00747396  1
  Ta  Ta84  1  0.09367499  0.69619598  0.35682345  1
  Ta  Ta85  1  0.90115008  0.71541554  0.14647749  1
  Ta  Ta86  1  0.59903126  0.60195526  0.26386040  1
  Ta  Ta87  1  0.47964489  0.11655215  0.63867253  1
  Ta  Ta88  1  0.69507834  0.70257285  0.14376472  1
  Ta  Ta89  1  0.02200392  0.21430323  0.50065486  1
  Ta  Ta90  1  0.38613782  0.21176230  -0.00921777  1
  Ta  Ta91  1  0.29482264  0.89989580  0.13845567  1
  Ta  Ta92  1  0.47569875  0.92268131  0.62600317  1
  Ta  Ta93  1  0.49631659  0.51554101  0.86164855  1
  Ta  Ta94  1  0.01312530  0.19739322  -0.00552695  1
  Ta  Ta95  1  0.60504987  0.01597233  0.25322942  1
  Ta  Ta96  1  0.18890407  0.79127961  0.23965538  1
  Ta  Ta97  1  0.81441905  0.40488419  -0.00197712  1
  Ta  Ta98  1  -0.01095491  0.00598806  0.26551932  1
  Ta  Ta99  1  0.82934377  0.40868722  0.75152943  1
  Ta  Ta100  1  0.49351845  0.90756266  0.88410204  1
  Ta  Ta101  1  0.29124825  0.69972118  0.62139296  1
  Ta  Ta102  1  0.30379970  0.29339648  0.12102409  1
  Ta  Ta103  1  0.90214849  0.10668820  0.38951022  1
  Ta  Ta104  1  -0.00314680  0.00196196  -0.00506694  1
  Ta  Ta105  1  0.19111199  0.78734647  0.48992084  1
  Ta  Ta106  1  0.91554237  0.30877590  0.88506166  1
  Ta  Ta107  1  0.50559267  0.71391309  0.87749944  1
  Ta  Ta108  1  0.59855428  0.80525960  0.26776073  1
  Ta  Ta109  1  0.50799197  0.28181437  0.38504697  1
  Ta  Ta110  1  0.79122870  0.79627055  0.75493610  1
  Ta  Ta111  1  0.38256875  0.00190845  0.01248092  1
  Ta  Ta112  1  0.47593283  0.92197976  0.35183029  1
  Ta  Ta113  1  -0.00970627  0.79023359  0.75450225  1
  Ta  Ta114  1  0.88799260  0.91800984  0.13650001  1
  Ta  Ta115  1  0.32340077  0.08698690  0.37785460  1
  Ta  Ta116  1  0.60800651  0.62022897  -0.00562153  1
  Ta  Ta117  1  0.88853762  0.69940483  0.87001832  1
  Ta  Ta118  1  0.00339324  -0.00190194  0.48270311  1
  Ta  Ta119  1  0.20301806  -0.02006239  0.48232446  1
  Ti  Ti120  1  0.00519533  0.59639008  0.24202635  1
  Ti  Ti121  1  0.39474682  0.60391199  0.74259902  1
  Ti  Ti122  1  0.29996497  0.49143681  0.62849323  1
  Ti  Ti123  1  0.61581757  0.41147945  0.75908392  1
  Ti  Ti124  1  0.48892377  0.70671269  0.36196951  1
  Ti  Ti125  1  0.60485808  0.39888419  0.25193622  1
  Ti  Ti126  1  0.29087933  0.89743225  0.61807708  1
  Ti  Ti127  1  0.27834582  0.10233028  0.11294331  1
  Ti  Ti128  1  0.00157380  0.39929197  0.23762051  1
  Ti  Ti129  1  0.08960978  0.68804198  0.62128969  1
  Ti  Ti130  1  0.30653476  0.48309611  0.86379546  1
  Ti  Ti131  1  0.07751501  0.47498354  0.62519720  1
  Ti  Ti132  1  0.58307485  0.00625966  0.74913208  1
  Ti  Ti133  1  0.91317481  0.09980921  0.11506151  1
  Ti  Ti134  1  0.69855527  0.71556406  0.61745853  1
  Ti  Ti135  1  0.80638594  0.39013629  0.24116334  1
  Ti  Ti136  1  0.51369354  0.30078955  0.64575709  1
  Ti  Ti137  1  0.11081694  0.27915169  0.11724820  1
  Ti  Ti138  1  0.11545909  0.28834981  0.88213206  1
  Ti  Ti139  1  0.22186523  0.17948988  0.50898337  1
  Ti  Ti140  1  0.11363100  0.10916545  0.38510497  1
  Ti  Ti141  1  0.61007201  0.39319299  0.51164915  1
  Ti  Ti142  1  -0.00827248  0.58710343  0.74611936  1
  Ti  Ti143  1  0.92929104  0.32293206  0.62976780  1
  Ti  Ti144  1  0.01809507  0.40228554  0.00810093  1
  Ti  Ti145  1  0.61175529  0.19640343  0.75398758  1
  Ti  Ti146  1  0.89641196  0.91038748  0.37183189  1
  Ti  Ti147  1  0.89879697  0.70658434  0.35331987  1
  Ti  Ti148  1  0.18781770  0.37778845  0.51087982  1
  Ti  Ti149  1  0.79540325  0.81581792  0.25609570  1
  Ti  Ti150  1  0.89023687  0.89947508  0.87315898  1
  Ti  Ti151  1  0.11053772  0.48551670  0.87675982  1
  Ti  Ti152  1  0.29060553  0.89095239  0.35368832  1
  Ti  Ti153  1  0.71945973  0.52039203  0.86858627  1
  Ti  Ti154  1  0.49230754  0.71296975  0.61983169  1
  Ti  Ti155  1  0.00671878  0.60464014  0.02668524  1
  Ti  Ti156  1  0.70994963  0.31030347  0.64188564  1
  Ti  Ti157  1  0.19248988  0.58855213  0.22656936  1
  Ti  Ti158  1  0.79802413  0.80748098  0.48624847  1
  Ti  Ti159  1  0.90516896  0.49580145  0.12497015  1
  Mo  Mo160  1  0.20951547  0.19474422  0.24763047  1
  Mo  Mo161  1  0.81554598  0.20512131  0.00305708  1
  Mo  Mo162  1  0.59274107  0.22069641  0.51608754  1
  Mo  Mo163  1  0.38462694  0.00027265  0.49668683  1
  Mo  Mo164  1  0.08828918  0.69711558  0.14190786  1
  Mo  Mo165  1  0.38966234  0.80015382  0.25516306  1
  Mo  Mo166  1  0.50409247  0.10591592  0.36691871  1
  Mo  Mo167  1  0.30218829  0.48599732  0.11765291  1
  Mo  Mo168  1  0.09450744  0.09458372  0.87766998  1
  Mo  Mo169  1  0.69842359  0.70273473  0.87692394  1
  Mo  Mo170  1  0.39277618  0.00884189  0.23236309  1
  Mo  Mo171  1  0.29781842  0.69937204  0.13799347  1
  Mo  Mo172  1  0.40033687  0.19656744  0.76116599  1
  Mo  Mo173  1  -0.00811585  0.80831439  0.26015903  1
  Mo  Mo174  1  0.58854324  0.79397279  0.00692259  1
  Mo  Mo175  1  0.80047706  0.01043100  0.25316729  1
  Mo  Mo176  1  0.09122742  0.48108230  0.12720872  1
  Mo  Mo177  1  0.81270366  0.00604200  0.50043021  1
  Mo  Mo178  1  0.10987855  0.28909683  0.62173808  1
  Mo  Mo179  1  0.40292098  0.40849750  0.74430388  1
  Mo  Mo180  1  0.01419322  0.40251383  0.76154470  1
  Mo  Mo181  1  0.81223171  -0.00796210  -0.00100551  1
  Mo  Mo182  1  0.30294950  0.29761770  0.87119304  1
  Mo  Mo183  1  0.41449883  0.18877005  0.50049850  1
  Mo  Mo184  1  0.90789727  0.49852428  0.35638759  1
  Mo  Mo185  1  0.19841295  0.19361010  -0.00426588  1
  Mo  Mo186  1  0.31154208  0.07637809  0.62006441  1
  Mo  Mo187  1  0.90764533  0.50662550  0.62963622  1
  Mo  Mo188  1  0.59758445  0.20495173  -0.00901237  1
  Mo  Mo189  1  0.19183042  -0.00305541  0.00831332  1
  Mo  Mo190  1  0.80212446  0.21957188  0.73821087  1
  Mo  Mo191  1  0.09123231  0.09747719  0.12149861  1
  Mo  Mo192  1  0.69857998  0.70928613  0.35946954  1
  Mo  Mo193  1  0.01197711  0.40034884  0.49773199  1
  Mo  Mo194  1  0.09848038  0.89622465  0.36839185  1
  Mo  Mo195  1  0.80576469  0.60702854  0.75627973  1
  Mo  Mo196  1  0.29447740  0.49297949  0.38476148  1
  Mo  Mo197  1  0.58391868  -0.01237762  0.00229180  1
  Mo  Mo198  1  0.10906747  0.28928981  0.37869692  1
  Mo  Mo199  1  0.39502237  0.00163259  0.75665053  1
