# generated using pymatgen
data_HfZrTaTiMo
_symmetry_space_group_name_H-M   'P 1'
_cell_length_a   15.21046303
_cell_length_b   15.21188215
_cell_length_c   16.84737732
_cell_angle_alpha   89.95744075
_cell_angle_beta   89.97160628
_cell_angle_gamma   89.92194528
_symmetry_Int_Tables_number   1
_chemical_formula_structural   HfZrTaTiMo
_chemical_formula_sum   'Hf40 Zr40 Ta40 Ti40 Mo40'
_cell_volume   3898.13713670
_cell_formula_units_Z   40
loop_
 _symmetry_equiv_pos_site_id
 _symmetry_equiv_pos_as_xyz
  1  'x, y, z'
loop_
 _atom_site_type_symbol
 _atom_site_label
 _atom_site_symmetry_multiplicity
 _atom_site_fract_x
 _atom_site_fract_y
 _atom_site_fract_z
 _atom_site_occupancy
  Hf  Hf0  1  0.39475843  -0.00927665  0.23707616  1
  Hf  Hf1  1  0.20215584  0.59498150  0.50116848  1
  Hf  Hf2  1  0.39680822  0.20217043  0.23846093  1
  Hf  Hf3  1  0.50390547  0.09705026  0.37379690  1
  Hf  Hf4  1  0.59695538  0.80082090  0.25444543  1
  Hf  Hf5  1  0.51564660  0.68363457  0.89295627  1
  Hf  Hf6  1  0.60832416  0.79606018  0.75088148  1
  Hf  Hf7  1  0.68828954  0.30299244  0.86942772  1
  Hf  Hf8  1  0.40603241  0.79116676  0.75610526  1
  Hf  Hf9  1  0.40150983  0.60534096  0.24187545  1
  Hf  Hf10  1  0.40049290  0.00032078  0.00463396  1
  Hf  Hf11  1  0.30325372  0.89634286  0.63240153  1
  Hf  Hf12  1  0.79577395  0.19845238  0.25085379  1
  Hf  Hf13  1  0.28957636  0.72251244  0.12813092  1
  Hf  Hf14  1  0.78719278  0.40435967  0.74417744  1
  Hf  Hf15  1  0.90043322  0.70668131  0.86636735  1
  Hf  Hf16  1  0.68714170  0.50901306  0.87553815  1
  Hf  Hf17  1  0.79088056  0.38318750  0.00246871  1
  Hf  Hf18  1  0.61112540  -0.00187327  0.75674865  1
  Hf  Hf19  1  0.60551578  -0.00353262  0.00957178  1
  Hf  Hf20  1  0.28882778  0.30561447  0.36400055  1
  Hf  Hf21  1  0.48810943  0.50661708  0.38258525  1
  Hf  Hf22  1  0.80222287  0.59495435  0.01154674  1
  Hf  Hf23  1  0.19865269  -0.00621719  0.00222194  1
  Hf  Hf24  1  0.19240762  0.19190247  0.73858984  1
  Hf  Hf25  1  0.29703580  0.08987651  0.37579323  1
  Hf  Hf26  1  0.09936430  0.89396137  0.64007682  1
  Hf  Hf27  1  0.89784867  0.49597558  0.86495003  1
  Hf  Hf28  1  0.59328508  0.20697188  0.74059768  1
  Hf  Hf29  1  -0.00006422  0.19802281  0.24971923  1
  Hf  Hf30  1  0.08650715  0.10406346  0.87748988  1
  Hf  Hf31  1  0.50106876  0.09760985  0.61832306  1
  Hf  Hf32  1  0.49499082  0.50181955  0.60791407  1
  Hf  Hf33  1  0.58263561  0.42245789  0.00662884  1
  Hf  Hf34  1  0.59657005  0.22250853  0.01753775  1
  Hf  Hf35  1  0.39728605  0.79547304  0.49502362  1
  Hf  Hf36  1  0.60007522  0.60050324  0.25533815  1
  Hf  Hf37  1  0.70761788  0.70408042  0.88518347  1
  Hf  Hf38  1  0.90101959  0.51021675  0.37346240  1
  Hf  Hf39  1  0.89065186  0.30513818  0.38883145  1
  Zr  Zr40  1  0.50798998  0.69966787  0.11302598  1
  Zr  Zr41  1  0.00496759  0.18908397  0.51748932  1
  Zr  Zr42  1  0.28953824  0.48662302  0.63363122  1
  Zr  Zr43  1  0.50629872  0.69931296  0.61728990  1
  Zr  Zr44  1  0.40334574  0.57642092  0.00898815  1
  Zr  Zr45  1  0.50430464  0.11213557  0.88440004  1
  Zr  Zr46  1  0.71227068  0.11029042  0.88740718  1
  Zr  Zr47  1  0.80788077  0.79618894  0.49813511  1
  Zr  Zr48  1  0.69584839  0.30721764  0.60986042  1
  Zr  Zr49  1  0.20288024  0.20326336  0.51436709  1
  Zr  Zr50  1  0.81532851  -0.00197547  -0.00654642  1
  Zr  Zr51  1  0.60516170  0.00742434  0.23786382  1
  Zr  Zr52  1  0.30142261  0.10734790  0.87799855  1
  Zr  Zr53  1  0.20292796  0.60284489  0.75985813  1
  Zr  Zr54  1  0.38344325  0.39344583  0.49941795  1
  Zr  Zr55  1  0.90692753  0.70496378  0.63818065  1
  Zr  Zr56  1  -0.00082840  0.39819375  -0.00447154  1
  Zr  Zr57  1  0.00683035  0.61407147  -0.00519537  1
  Zr  Zr58  1  0.70892994  0.09643472  0.60562820  1
  Zr  Zr59  1  0.90174929  0.09378781  0.38039668  1
  Zr  Zr60  1  0.69583011  0.30020614  0.38221028  1
  Zr  Zr61  1  0.19226341  0.18998243  0.24215828  1
  Zr  Zr62  1  0.00116798  0.60446736  0.24333281  1
  Zr  Zr63  1  0.70559557  0.49410302  0.37402161  1
  Zr  Zr64  1  0.30220745  0.69432643  0.88345230  1
  Zr  Zr65  1  0.70211308  0.89597914  0.61716219  1
  Zr  Zr66  1  0.38480877  0.37643924  0.00809877  1
  Zr  Zr67  1  0.00374524  0.40819327  0.50271048  1
  Zr  Zr68  1  0.89849438  0.29845755  0.62668890  1
  Zr  Zr69  1  0.70635975  0.90865073  0.37214681  1
  Zr  Zr70  1  0.09759663  0.69412025  0.37447031  1
  Zr  Zr71  1  0.90206884  0.28025936  0.86414930  1
  Zr  Zr72  1  0.00348636  0.80501348  0.49664188  1
  Zr  Zr73  1  0.01080869  -0.00401357  0.24814206  1
  Zr  Zr74  1  0.41149545  0.57623590  0.76271961  1
  Zr  Zr75  1  0.30368891  0.71334450  0.36277471  1
  Zr  Zr76  1  0.20051503  0.59588863  -0.00168773  1
  Zr  Zr77  1  0.69619421  0.48690558  0.14232442  1
  Zr  Zr78  1  0.40762077  0.00268327  0.75594726  1
  Zr  Zr79  1  0.10177433  0.49495028  0.12415361  1
  Ta  Ta80  1  0.09638376  0.73078673  0.86064005  1
  Ta  Ta81  1  0.58127961  0.40958730  0.74184740  1
  Ta  Ta82  1  0.39926828  -0.00289672  0.49901966  1
  Ta  Ta83  1  0.48462704  0.30706943  0.86974153  1
  Ta  Ta84  1  -0.00429164  0.39331064  0.25160719  1
  Ta  Ta85  1  0.71240213  0.10671645  0.11806775  1
  Ta  Ta86  1  0.80912865  -0.00024909  0.75684745  1
  Ta  Ta87  1  0.19882874  0.60079546  0.24238896  1
  Ta  Ta88  1  0.59899068  0.80269491  0.48468259  1
  Ta  Ta89  1  0.60694790  0.59863995  0.74211788  1
  Ta  Ta90  1  0.71443703  0.89484911  0.12957475  1
  Ta  Ta91  1  0.60062740  0.20578257  0.24041136  1
  Ta  Ta92  1  0.09951614  0.29947609  0.12392100  1
  Ta  Ta93  1  0.50592666  0.89252109  0.88434744  1
  Ta  Ta94  1  0.80694878  0.18409541  0.74214596  1
  Ta  Ta95  1  0.49441351  0.30256999  0.36433583  1
  Ta  Ta96  1  -0.00725795  0.19347874  0.00670926  1
  Ta  Ta97  1  0.80635888  0.61477971  0.24412910  1
  Ta  Ta98  1  0.00644538  -0.01466565  0.00299104  1
  Ta  Ta99  1  0.39359148  0.80690107  -0.00419316  1
  Ta  Ta100  1  0.11720048  0.90245601  0.37332548  1
  Ta  Ta101  1  0.90987045  0.71830424  0.12309629  1
  Ta  Ta102  1  0.08909371  0.50323125  0.63965149  1
  Ta  Ta103  1  0.71173033  0.70677896  0.12479507  1
  Ta  Ta104  1  0.80354243  0.59911299  0.50731747  1
  Ta  Ta105  1  -0.00136703  0.60405961  0.50770994  1
  Ta  Ta106  1  0.90160206  0.09673404  0.12460764  1
  Ta  Ta107  1  0.10181387  0.87641263  0.12944559  1
  Ta  Ta108  1  0.92510603  0.90290145  0.86256452  1
  Ta  Ta109  1  0.30234529  0.69332246  0.62469449  1
  Ta  Ta110  1  0.10665965  0.09433116  0.38123590  1
  Ta  Ta111  1  0.71284722  0.69916524  0.37046622  1
  Ta  Ta112  1  0.39781841  0.20075746  0.50113699  1
  Ta  Ta113  1  0.89159599  0.29893516  0.12816696  1
  Ta  Ta114  1  0.69923736  0.10288636  0.38972191  1
  Ta  Ta115  1  0.19993705  0.21472671  0.00162230  1
  Ta  Ta116  1  0.50589766  0.90260429  0.61628915  1
  Ta  Ta117  1  0.58661989  0.20302356  0.49785966  1
  Ta  Ta118  1  0.29351234  0.30031389  0.85913209  1
  Ta  Ta119  1  0.29233143  0.89353994  0.87117397  1
  Ti  Ti120  1  0.20589261  -0.01298377  0.23783625  1
  Ti  Ti121  1  0.78992351  0.60776980  0.73808344  1
  Ti  Ti122  1  0.09587561  0.29664547  0.37578041  1
  Ti  Ti123  1  0.30234162  0.09695871  0.62609441  1
  Ti  Ti124  1  0.49932538  0.10874274  0.11858426  1
  Ti  Ti125  1  0.80927499  -0.00643217  0.25194039  1
  Ti  Ti126  1  0.10211669  0.31269425  0.64116018  1
  Ti  Ti127  1  0.59232687  0.39989959  0.49714875  1
  Ti  Ti128  1  0.69631009  0.50865898  0.61367197  1
  Ti  Ti129  1  0.20085679  -0.00441401  0.50681291  1
  Ti  Ti130  1  0.70940979  0.89719500  0.87853998  1
  Ti  Ti131  1  0.19047529  0.39722840  0.50421528  1
  Ti  Ti132  1  0.49464367  0.32407438  0.14511280  1
  Ti  Ti133  1  0.80242785  0.80664770  0.74764382  1
  Ti  Ti134  1  0.49407463  0.89117612  0.12350591  1
  Ti  Ti135  1  0.90209283  0.91248046  0.63326452  1
  Ti  Ti136  1  0.81718769  0.80570503  -0.00081716  1
  Ti  Ti137  1  0.89748245  0.49533929  0.13277979  1
  Ti  Ti138  1  0.00038746  0.02188099  0.74189378  1
  Ti  Ti139  1  0.48417889  0.89578723  0.37027104  1
  Ti  Ti140  1  0.19888705  -0.00504457  0.75486853  1
  Ti  Ti141  1  0.18269908  0.80233212  -0.00440366  1
  Ti  Ti142  1  0.00918648  -0.00538669  0.50469643  1
  Ti  Ti143  1  0.10784709  0.69975625  0.63563861  1
  Ti  Ti144  1  0.20122588  0.80142684  0.50323414  1
  Ti  Ti145  1  0.81575051  -0.00367938  0.49574310  1
  Ti  Ti146  1  -0.00939419  0.80233620  0.26448800  1
  Ti  Ti147  1  0.61035196  0.80375226  0.00556912  1
  Ti  Ti148  1  0.90427898  0.89889751  0.12937754  1
  Ti  Ti149  1  0.09530042  0.30303977  0.86071842  1
  Ti  Ti150  1  0.10380803  0.49585929  0.86291776  1
  Ti  Ti151  1  0.09864467  0.09556319  0.11540546  1
  Ti  Ti152  1  0.29927921  0.47790986  0.14205143  1
  Ti  Ti153  1  0.10561605  0.49060785  0.36732983  1
  Ti  Ti154  1  0.29070055  0.50298220  0.36549646  1
  Ti  Ti155  1  0.60346314  0.61294087  0.49071968  1
  Ti  Ti156  1  -0.00015775  0.60272490  0.75361355  1
  Ti  Ti157  1  0.29743639  0.10884954  0.11340228  1
  Ti  Ti158  1  0.19715210  0.39956777  -0.01006715  1
  Ti  Ti159  1  0.89928533  0.50016705  0.63091996  1
  Mo  Mo160  1  0.10577656  0.90990351  0.86261425  1
  Mo  Mo161  1  0.29836622  0.47589075  0.87012091  1
  Mo  Mo162  1  -0.00065166  0.40494345  0.74972930  1
  Mo  Mo163  1  0.20897152  0.80045345  0.74842806  1
  Mo  Mo164  1  0.10571991  0.08554936  0.62666584  1
  Mo  Mo165  1  0.70019717  0.69395381  0.61935704  1
  Mo  Mo166  1  0.59241593  0.39570864  0.25797731  1
  Mo  Mo167  1  0.49158526  0.49924784  0.14062998  1
  Mo  Mo168  1  0.80663284  0.40016166  0.24614872  1
  Mo  Mo169  1  0.39908136  0.20390797  0.73989919  1
  Mo  Mo170  1  0.50801144  0.70386702  0.37888079  1
  Mo  Mo171  1  0.90088446  0.08743593  0.62037920  1
  Mo  Mo172  1  0.60965067  0.60455235  0.01130848  1
  Mo  Mo173  1  -0.00067219  0.19613755  0.73514918  1
  Mo  Mo174  1  0.49416038  0.30039587  0.61795394  1
  Mo  Mo175  1  0.09643550  0.70358857  0.12897467  1
  Mo  Mo176  1  0.39227893  0.60325939  0.49689440  1
  Mo  Mo177  1  0.19079092  0.80687635  0.25105977  1
  Mo  Mo178  1  0.59141258  -0.00718521  0.49116189  1
  Mo  Mo179  1  0.39337734  0.20216480  0.01188094  1
  Mo  Mo180  1  0.30278364  0.29111747  0.63761433  1
  Mo  Mo181  1  0.18592506  0.40101769  0.25458840  1
  Mo  Mo182  1  0.29395764  0.90796268  0.37844741  1
  Mo  Mo183  1  0.90780194  0.09803652  0.87377511  1
  Mo  Mo184  1  -0.00018345  0.81072989  -0.00276651  1
  Mo  Mo185  1  0.79747900  0.19510477  0.49892217  1
  Mo  Mo186  1  0.89523749  0.69850950  0.37634264  1
  Mo  Mo187  1  0.39317548  0.40518136  0.25563676  1
  Mo  Mo188  1  0.79805880  0.41322836  0.51112218  1
  Mo  Mo189  1  0.69536889  0.29762962  0.13462435  1
  Mo  Mo190  1  0.49942105  0.48772575  0.87314077  1
  Mo  Mo191  1  0.91104726  0.90025525  0.37289131  1
  Mo  Mo192  1  0.19491068  0.39981726  0.75724901  1
  Mo  Mo193  1  0.80519513  0.20223712  0.00907166  1
  Mo  Mo194  1  -0.00146039  0.80872955  0.74351048  1
  Mo  Mo195  1  0.40163590  0.38184501  0.73979429  1
  Mo  Mo196  1  0.39902841  0.80979097  0.24931299  1
  Mo  Mo197  1  0.29753011  0.90117781  0.11673601  1
  Mo  Mo198  1  0.28401739  0.30174948  0.13267566  1
  Mo  Mo199  1  0.80777411  0.80295083  0.24926548  1
