# generated using pymatgen
data_HfZrTaTiMo
_symmetry_space_group_name_H-M   'P 1'
_cell_length_a   15.20242583
_cell_length_b   15.20418515
_cell_length_c   16.86781539
_cell_angle_alpha   89.98388705
_cell_angle_beta   89.95498909
_cell_angle_gamma   90.01441853
_symmetry_Int_Tables_number   1
_chemical_formula_structural   HfZrTaTiMo
_chemical_formula_sum   'Hf40 Zr40 Ta40 Ti40 Mo40'
_cell_volume   3898.83375430
_cell_formula_units_Z   40
loop_
 _symmetry_equiv_pos_site_id
 _symmetry_equiv_pos_as_xyz
  1  'x, y, z'
loop_
 _atom_site_type_symbol
 _atom_site_label
 _atom_site_symmetry_multiplicity
 _atom_site_fract_x
 _atom_site_fract_y
 _atom_site_fract_z
 _atom_site_occupancy
  Hf  Hf0  1  0.59104653  0.81811324  0.50726821  1
  Hf  Hf1  1  0.57999820  0.20902102  0.50392726  1
  Hf  Hf2  1  0.60593899  0.42567583  0.25565407  1
  Hf  Hf3  1  0.72230165  0.31103353  0.14010494  1
  Hf  Hf4  1  0.19854612  0.79835372  0.50152496  1
  Hf  Hf5  1  -0.01286949  0.00258705  0.74070007  1
  Hf  Hf6  1  0.89142377  0.90590013  0.12089763  1
  Hf  Hf7  1  0.51262253  0.49836353  0.87786293  1
  Hf  Hf8  1  0.48729332  0.90447260  0.88222448  1
  Hf  Hf9  1  0.28120991  0.89441965  0.87442033  1
  Hf  Hf10  1  0.72829910  0.49898826  0.88222163  1
  Hf  Hf11  1  0.89241191  0.68552330  0.36799512  1
  Hf  Hf12  1  0.18055989  -0.00649293  0.00182656  1
  Hf  Hf13  1  0.69914869  0.68085737  0.11473591  1
  Hf  Hf14  1  -0.01057539  0.80327102  0.75376698  1
  Hf  Hf15  1  0.41611028  -0.00180190  0.51161037  1
  Hf  Hf16  1  0.89748271  0.68971341  0.89084382  1
  Hf  Hf17  1  0.40362296  0.79355869  0.74278332  1
  Hf  Hf18  1  0.90183927  0.69462788  0.11590999  1
  Hf  Hf19  1  0.79246518  0.39459498  0.74390880  1
  Hf  Hf20  1  0.00535459  0.39022431  0.49129066  1
  Hf  Hf21  1  0.60265565  0.22784262  0.74856787  1
  Hf  Hf22  1  0.29670871  0.27873580  0.12537868  1
  Hf  Hf23  1  0.31509058  0.50112117  0.37263739  1
  Hf  Hf24  1  0.20722910  0.39615864  -0.00133493  1
  Hf  Hf25  1  0.00449998  0.59684899  0.74894559  1
  Hf  Hf26  1  0.49735304  0.11325618  0.63947192  1
  Hf  Hf27  1  0.51240417  0.70853151  0.88333354  1
  Hf  Hf28  1  0.57729508  0.20614285  0.23671690  1
  Hf  Hf29  1  0.29919430  0.89384605  0.62502586  1
  Hf  Hf30  1  0.28122545  0.88263242  0.11631556  1
  Hf  Hf31  1  0.81819607  0.40330443  0.27679701  1
  Hf  Hf32  1  0.31584774  0.48651754  0.12624152  1
  Hf  Hf33  1  0.31170299  0.09066644  0.37840207  1
  Hf  Hf34  1  0.89878351  0.11709028  0.12956299  1
  Hf  Hf35  1  -0.00734200  0.00341505  0.25529861  1
  Hf  Hf36  1  0.29632625  0.28987556  0.36803984  1
  Hf  Hf37  1  0.30634514  0.69354144  0.37646060  1
  Hf  Hf38  1  0.28872219  0.10022079  0.87210487  1
  Hf  Hf39  1  0.79415911  0.17718220  0.48934762  1
  Zr  Zr40  1  -0.00001941  0.39945766  0.75383942  1
  Zr  Zr41  1  0.11503428  0.50132254  0.37339283  1
  Zr  Zr42  1  0.50213009  0.71235868  0.11473870  1
  Zr  Zr43  1  0.68495374  0.29274046  0.37145371  1
  Zr  Zr44  1  0.10996523  0.28794283  0.86993870  1
  Zr  Zr45  1  0.59587743  -0.00097086  0.23218087  1
  Zr  Zr46  1  0.30272155  0.68755087  0.87625570  1
  Zr  Zr47  1  0.40514396  0.58545254  0.00353842  1
  Zr  Zr48  1  0.69856630  0.50517407  0.62329936  1
  Zr  Zr49  1  0.49256421  0.10742135  0.86451877  1
  Zr  Zr50  1  0.09573212  0.70420874  0.62053395  1
  Zr  Zr51  1  0.20421910  0.40032400  0.51059395  1
  Zr  Zr52  1  0.68941260  0.89372640  0.87227455  1
  Zr  Zr53  1  0.10410552  0.69501177  0.37608207  1
  Zr  Zr54  1  0.32364535  0.49361966  0.62681262  1
  Zr  Zr55  1  0.80523037  0.39916564  0.48713174  1
  Zr  Zr56  1  0.19955232  -0.00990942  0.24731986  1
  Zr  Zr57  1  0.80336966  0.21786169  -0.00398572  1
  Zr  Zr58  1  0.61645347  0.40554674  0.00846608  1
  Zr  Zr59  1  -0.01014055  0.39826652  -0.01554536  1
  Zr  Zr60  1  0.79056712  0.00869192  -0.00138250  1
  Zr  Zr61  1  0.59378220  0.42221692  0.48535151  1
  Zr  Zr62  1  0.00909608  0.58751897  0.23802465  1
  Zr  Zr63  1  0.79317640  0.81096524  0.48817301  1
  Zr  Zr64  1  0.39259245  0.80244883  0.24818632  1
  Zr  Zr65  1  0.18676573  0.00282628  0.51004279  1
  Zr  Zr66  1  0.00147611  0.80311408  0.24818475  1
  Zr  Zr67  1  0.89454053  0.48083476  0.12403185  1
  Zr  Zr68  1  0.41293432  0.38844933  0.25469880  1
  Zr  Zr69  1  0.61643925  0.60956674  0.75364530  1
  Zr  Zr70  1  0.32365722  0.28769754  0.63863031  1
  Zr  Zr71  1  0.08631762  0.30787735  0.12734103  1
  Zr  Zr72  1  -0.00083953  0.18801385  0.50851294  1
  Zr  Zr73  1  0.20437662  0.20362806  0.51193270  1
  Zr  Zr74  1  0.59999128  0.20317825  0.00865653  1
  Zr  Zr75  1  0.78835104  0.80215113  0.24900447  1
  Zr  Zr76  1  0.10539757  0.71100893  0.88510215  1
  Zr  Zr77  1  0.20817059  0.60112306  0.73682835  1
  Zr  Zr78  1  0.10181824  0.10554846  0.37540143  1
  Zr  Zr79  1  0.58970041  0.00977541  0.00692554  1
  Ta  Ta80  1  0.20502466  0.40081931  0.74803245  1
  Ta  Ta81  1  0.40231218  0.79041095  0.50629295  1
  Ta  Ta82  1  0.70763263  0.53247130  0.37306356  1
  Ta  Ta83  1  0.70041748  0.10966414  0.86362188  1
  Ta  Ta84  1  0.80494619  0.19449602  0.74610735  1
  Ta  Ta85  1  0.50493491  0.10424528  0.37310961  1
  Ta  Ta86  1  0.21046198  0.59913127  0.51585817  1
  Ta  Ta87  1  0.50316780  0.69490853  0.62550151  1
  Ta  Ta88  1  0.09173182  0.08994010  0.86975580  1
  Ta  Ta89  1  -0.01262789  0.80149797  0.49463478  1
  Ta  Ta90  1  0.29847819  0.09566053  0.63703496  1
  Ta  Ta91  1  0.19172315  0.80496974  0.74132084  1
  Ta  Ta92  1  -0.00656548  0.20886640  0.26387957  1
  Ta  Ta93  1  0.41301825  0.38042807  0.49247597  1
  Ta  Ta94  1  0.80115522  0.19207495  0.26978278  1
  Ta  Ta95  1  0.89240372  0.29208900  0.62202394  1
  Ta  Ta96  1  0.40245070  0.00559820  0.24274617  1
  Ta  Ta97  1  0.10158723  0.10567462  0.12654792  1
  Ta  Ta98  1  0.88015402  0.89676856  0.62405684  1
  Ta  Ta99  1  0.08965634  0.90021432  0.38434496  1
  Ta  Ta100  1  0.89301868  0.70181066  0.62290679  1
  Ta  Ta101  1  0.49441021  0.90621411  0.37409158  1
  Ta  Ta102  1  -0.00406950  0.19468760  0.73745394  1
  Ta  Ta103  1  0.00858236  0.19360926  -0.00392656  1
  Ta  Ta104  1  0.11503697  0.50671978  0.87712222  1
  Ta  Ta105  1  0.31201257  0.29517327  0.86693277  1
  Ta  Ta106  1  0.41409828  0.59215896  0.74784063  1
  Ta  Ta107  1  0.30953939  0.48499119  0.86843816  1
  Ta  Ta108  1  0.79780045  0.80165465  0.00033820  1
  Ta  Ta109  1  0.68963320  0.91760327  0.37262016  1
  Ta  Ta110  1  0.21516624  0.60350237  0.23049329  1
  Ta  Ta111  1  0.70558282  0.71442827  0.62729612  1
  Ta  Ta112  1  0.80262470  0.60599210  0.50363880  1
  Ta  Ta113  1  0.00129822  0.59394810  0.50477271  1
  Ta  Ta114  1  0.50336266  0.69854339  0.37644063  1
  Ta  Ta115  1  0.90850066  0.49775667  0.61975821  1
  Ta  Ta116  1  0.11498503  0.71325786  0.11646751  1
  Ta  Ta117  1  0.18482805  -0.00394435  0.74170960  1
  Ta  Ta118  1  0.90048344  0.90164874  0.88254189  1
  Ta  Ta119  1  0.90069761  0.10398733  0.87285256  1
  Ti  Ti120  1  0.69590976  0.90638704  0.63348387  1
  Ti  Ti121  1  0.08067930  0.90324863  0.61562147  1
  Ti  Ti122  1  0.59694601  -0.00393240  0.74715368  1
  Ti  Ti123  1  0.00505160  0.39316792  0.27120563  1
  Ti  Ti124  1  0.70306597  0.10296687  0.13182455  1
  Ti  Ti125  1  0.61325664  0.01282907  0.50559027  1
  Ti  Ti126  1  0.48697938  0.31153057  0.11146175  1
  Ti  Ti127  1  0.58971806  0.80414562  0.24977342  1
  Ti  Ti128  1  0.30066301  0.89674765  0.38209402  1
  Ti  Ti129  1  0.50325037  0.30536004  0.88433549  1
  Ti  Ti130  1  0.20638796  0.59866350  0.01511446  1
  Ti  Ti131  1  0.01059659  0.81610264  0.00295386  1
  Ti  Ti132  1  0.39242071  0.19476382  -0.00282580  1
  Ti  Ti133  1  0.88769056  0.30140066  0.86697869  1
  Ti  Ti134  1  0.41872887  0.59823608  0.24456706  1
  Ti  Ti135  1  0.42676844  0.39175934  0.75057068  1
  Ti  Ti136  1  0.70256510  0.69599535  0.89640966  1
  Ti  Ti137  1  0.79671997  -0.00339518  0.75642998  1
  Ti  Ti138  1  0.52530817  0.51224815  0.12157754  1
  Ti  Ti139  1  0.30166117  0.08888942  0.11361467  1
  Ti  Ti140  1  0.39438981  -0.00390392  0.74486308  1
  Ti  Ti141  1  0.68796874  0.71238338  0.37096716  1
  Ti  Ti142  1  0.41549437  0.59026255  0.50360589  1
  Ti  Ti143  1  -0.03100628  -0.00349641  0.49779943  1
  Ti  Ti144  1  0.09767161  0.30490304  0.63415021  1
  Ti  Ti145  1  0.79558139  0.00164764  0.25827946  1
  Ti  Ti146  1  0.79051690  0.79445245  0.75787970  1
  Ti  Ti147  1  0.38642822  0.79763902  -0.00044249  1
  Ti  Ti148  1  0.19541856  0.19615305  0.24962216  1
  Ti  Ti149  1  0.19380526  0.19362632  0.74086936  1
  Ti  Ti150  1  0.68538591  0.88742124  0.11593374  1
  Ti  Ti151  1  0.70945379  0.09926808  0.63430203  1
  Ti  Ti152  1  0.60250855  0.61714946  0.50251397  1
  Ti  Ti153  1  0.19477244  0.40326699  0.24356666  1
  Ti  Ti154  1  0.01418952  0.59163595  0.00728702  1
  Ti  Ti155  1  0.48120298  0.91274858  0.10662522  1
  Ti  Ti156  1  0.19517128  0.79741202  0.25631683  1
  Ti  Ti157  1  0.81461110  0.60057611  0.74809722  1
  Ti  Ti158  1  0.69665950  0.30078025  0.61476865  1
  Ti  Ti159  1  -0.00744410  0.00394912  0.00168689  1
  Mo  Mo160  1  0.60069875  0.61711971  0.25432372  1
  Mo  Mo161  1  0.08654489  0.90171583  0.12534470  1
  Mo  Mo162  1  0.50279388  0.51598473  0.37562484  1
  Mo  Mo163  1  0.91484154  0.50142175  0.87494006  1
  Mo  Mo164  1  0.10711098  0.29918228  0.36647727  1
  Mo  Mo165  1  0.90612816  0.29211167  0.13596995  1
  Mo  Mo166  1  0.40227650  0.19374515  0.50018653  1
  Mo  Mo167  1  0.89106917  0.08743700  0.37184281  1
  Mo  Mo168  1  0.48930456  0.29722699  0.37002360  1
  Mo  Mo169  1  0.10627627  0.50496540  0.12438437  1
  Mo  Mo170  1  0.71120149  0.50480064  0.13264153  1
  Mo  Mo171  1  0.90708560  0.28906577  0.38258088  1
  Mo  Mo172  1  0.78533879  -0.00436667  0.50250348  1
  Mo  Mo173  1  0.80561026  0.39508271  -0.00119655  1
  Mo  Mo174  1  0.38645200  0.00142339  0.00176544  1
  Mo  Mo175  1  0.60064501  0.80728904  0.73866741  1
  Mo  Mo176  1  0.09956876  0.49464489  0.62261137  1
  Mo  Mo177  1  0.39863153  0.19964171  0.75901701  1
  Mo  Mo178  1  0.61046040  0.60149601  -0.00578974  1
  Mo  Mo179  1  0.50672311  0.50156265  0.62799099  1
  Mo  Mo180  1  0.88587500  0.09179856  0.62764167  1
  Mo  Mo181  1  0.09588971  0.09802858  0.63167864  1
  Mo  Mo182  1  0.19461132  0.19198833  -0.00045618  1
  Mo  Mo183  1  0.90612382  0.50669755  0.38443422  1
  Mo  Mo184  1  0.47728300  0.11233126  0.11928378  1
  Mo  Mo185  1  0.19545773  0.79358549  -0.00156675  1
  Mo  Mo186  1  0.50743579  0.90295201  0.63371972  1
  Mo  Mo187  1  0.30467999  0.69363005  0.12609184  1
  Mo  Mo188  1  0.69896037  0.29902424  0.87104837  1
  Mo  Mo189  1  0.59921428  0.80539334  0.00454026  1
  Mo  Mo190  1  0.89621626  0.90115175  0.37322206  1
  Mo  Mo191  1  0.08663897  0.90754928  0.87113260  1
  Mo  Mo192  1  0.79206018  0.59491164  0.25001816  1
  Mo  Mo193  1  0.39066697  0.18479740  0.24183961  1
  Mo  Mo194  1  0.31060160  0.69643537  0.61858251  1
  Mo  Mo195  1  0.81610619  0.59041512  -0.00029234  1
  Mo  Mo196  1  0.50716776  0.32036463  0.62632950  1
  Mo  Mo197  1  0.40389195  0.38630516  -0.00495401  1
  Mo  Mo198  1  0.60282580  0.40869728  0.75412810  1
  Mo  Mo199  1  0.68527290  0.09288851  0.36813646  1
