# generated using pymatgen
data_HfZrTaTiMo
_symmetry_space_group_name_H-M   'P 1'
_cell_length_a   15.20292207
_cell_length_b   15.20316064
_cell_length_c   16.85546306
_cell_angle_alpha   90.06449423
_cell_angle_beta   89.96365035
_cell_angle_gamma   89.90825819
_symmetry_Int_Tables_number   1
_chemical_formula_structural   HfZrTaTiMo
_chemical_formula_sum   'Hf40 Zr40 Ta40 Ti40 Mo40'
_cell_volume   3895.83649932
_cell_formula_units_Z   40
loop_
 _symmetry_equiv_pos_site_id
 _symmetry_equiv_pos_as_xyz
  1  'x, y, z'
loop_
 _atom_site_type_symbol
 _atom_site_label
 _atom_site_symmetry_multiplicity
 _atom_site_fract_x
 _atom_site_fract_y
 _atom_site_fract_z
 _atom_site_occupancy
  Hf  Hf0  1  0.19548457  0.00644314  -0.00569799  1
  Hf  Hf1  1  0.40645424  0.79225602  0.74767905  1
  Hf  Hf2  1  0.10483886  0.69054760  0.11606168  1
  Hf  Hf3  1  0.48413481  0.09500784  0.37418782  1
  Hf  Hf4  1  0.16741756  0.40662707  -0.00637211  1
  Hf  Hf5  1  0.69594393  0.08986073  0.62924602  1
  Hf  Hf6  1  0.31212338  0.69246930  0.10234887  1
  Hf  Hf7  1  0.62777470  0.78910889  0.50875805  1
  Hf  Hf8  1  0.31326160  0.11055026  0.87719586  1
  Hf  Hf9  1  0.81385825  0.18978755  0.50575011  1
  Hf  Hf10  1  0.19198025  0.59673605  0.52120864  1
  Hf  Hf11  1  0.70169367  0.70643575  0.11559403  1
  Hf  Hf12  1  0.10555105  0.90905368  0.37228828  1
  Hf  Hf13  1  0.59726033  0.39695161  -0.00397759  1
  Hf  Hf14  1  0.17507342  0.79140334  -0.02186350  1
  Hf  Hf15  1  0.81688843  0.79768011  0.23295218  1
  Hf  Hf16  1  0.10389210  0.30421454  0.37483624  1
  Hf  Hf17  1  0.38531558  0.40340708  0.26456527  1
  Hf  Hf18  1  0.31639741  0.68749079  0.88400879  1
  Hf  Hf19  1  0.27943075  0.30966692  0.12892722  1
  Hf  Hf20  1  0.70001617  0.29812907  0.12843992  1
  Hf  Hf21  1  0.38159458  0.41560365  -0.00095507  1
  Hf  Hf22  1  0.40347724  0.19916986  0.73769618  1
  Hf  Hf23  1  0.09701032  0.11565480  0.86790348  1
  Hf  Hf24  1  0.01575574  0.59199480  -0.01910119  1
  Hf  Hf25  1  0.80985737  0.39972811  0.74239468  1
  Hf  Hf26  1  -0.00288562  0.20315884  0.00164684  1
  Hf  Hf27  1  0.80581781  -0.01748575  0.50290557  1
  Hf  Hf28  1  0.31042465  0.91222992  0.37799308  1
  Hf  Hf29  1  0.59604290  0.41291405  0.26392115  1
  Hf  Hf30  1  0.30229137  0.90673866  0.62609129  1
  Hf  Hf31  1  0.51361653  0.70674541  0.37377449  1
  Hf  Hf32  1  0.10356891  0.10222810  0.63878856  1
  Hf  Hf33  1  0.52761560  0.10824618  0.13609381  1
  Hf  Hf34  1  0.70289603  0.88833432  0.36302476  1
  Hf  Hf35  1  0.09326954  0.88849624  0.64443562  1
  Hf  Hf36  1  0.79768015  0.20591273  0.00177153  1
  Hf  Hf37  1  0.50081966  0.31294215  0.13071551  1
  Hf  Hf38  1  0.69480302  0.51081641  0.62307285  1
  Hf  Hf39  1  0.49662095  0.29019734  0.60166323  1
  Zr  Zr40  1  0.90338512  0.71241856  0.64173664  1
  Zr  Zr41  1  0.57724662  0.60600727  -0.01147575  1
  Zr  Zr42  1  0.50275815  0.27400773  0.87825439  1
  Zr  Zr43  1  0.09395576  0.50202451  0.38105777  1
  Zr  Zr44  1  0.80207517  0.19915705  0.74799053  1
  Zr  Zr45  1  0.20816110  0.00192294  0.75848396  1
  Zr  Zr46  1  0.70822232  0.69172656  0.36173798  1
  Zr  Zr47  1  0.79592858  0.58950323  0.24120570  1
  Zr  Zr48  1  0.72137604  0.89158825  0.63787508  1
  Zr  Zr49  1  0.61090256  0.01534625  -0.00358394  1
  Zr  Zr50  1  0.90787558  0.89516544  0.36624058  1
  Zr  Zr51  1  0.58961213  0.38337389  0.74700066  1
  Zr  Zr52  1  0.20822170  0.80332626  0.24469836  1
  Zr  Zr53  1  0.19971530  0.58731507  0.25232102  1
  Zr  Zr54  1  0.40179536  0.59759424  0.26354905  1
  Zr  Zr55  1  0.40946900  -0.00122280  0.01098887  1
  Zr  Zr56  1  0.31019056  0.89549030  0.88124423  1
  Zr  Zr57  1  0.39128573  0.20039538  0.24739688  1
  Zr  Zr58  1  0.61012197  0.79800127  0.75514862  1
  Zr  Zr59  1  0.90218989  0.29329820  0.38095043  1
  Zr  Zr60  1  0.69610314  0.29726642  0.61062197  1
  Zr  Zr61  1  0.79670507  0.61837762  0.50970213  1
  Zr  Zr62  1  0.90149849  0.49034265  0.12048165  1
  Zr  Zr63  1  0.29772259  0.88893294  0.11068651  1
  Zr  Zr64  1  0.80868715  0.00889852  -0.01516629  1
  Zr  Zr65  1  0.47272027  0.49750420  0.85927338  1
  Zr  Zr66  1  0.51193527  0.90244232  0.62917866  1
  Zr  Zr67  1  0.49651027  0.49585955  0.61414562  1
  Zr  Zr68  1  0.40101108  0.19856425  0.01617503  1
  Zr  Zr69  1  0.28823613  0.31137981  0.86712440  1
  Zr  Zr70  1  0.00038404  0.00370366  0.50458420  1
  Zr  Zr71  1  0.29707654  0.70353925  0.38972526  1
  Zr  Zr72  1  0.50688135  0.69813881  0.13707236  1
  Zr  Zr73  1  -0.00782003  0.60918596  0.24630256  1
  Zr  Zr74  1  0.09412024  0.71110350  0.38046834  1
  Zr  Zr75  1  0.70425861  0.70484659  0.88352782  1
  Zr  Zr76  1  0.69926915  0.49564539  0.86813442  1
  Zr  Zr77  1  0.20552219  0.01956574  0.50482234  1
  Zr  Zr78  1  0.39118960  0.00048464  0.23440073  1
  Zr  Zr79  1  0.71319562  0.09584495  0.37085214  1
  Ta  Ta80  1  0.68736313  0.50038197  0.12071406  1
  Ta  Ta81  1  0.50283717  0.09716393  0.61682190  1
  Ta  Ta82  1  0.50870735  0.89927950  0.87652035  1
  Ta  Ta83  1  -0.00385429  0.60511989  0.51114733  1
  Ta  Ta84  1  0.91075734  0.90041511  0.11061243  1
  Ta  Ta85  1  -0.00032656  0.19977208  0.24092059  1
  Ta  Ta86  1  0.27041868  0.50831258  0.86180811  1
  Ta  Ta87  1  0.41337235  0.80756865  0.50147726  1
  Ta  Ta88  1  0.40436398  0.00342288  0.50288429  1
  Ta  Ta89  1  0.19333039  0.20670270  0.00385126  1
  Ta  Ta90  1  0.01121511  0.78154086  0.78229452  1
  Ta  Ta91  1  0.79741005  0.39361256  0.25746769  1
  Ta  Ta92  1  0.80456925  0.58544691  -0.00373074  1
  Ta  Ta93  1  0.10481377  0.11006293  0.36850657  1
  Ta  Ta94  1  0.19615164  0.39196870  0.51943918  1
  Ta  Ta95  1  0.38559727  0.39498547  0.50126420  1
  Ta  Ta96  1  0.59715740  -0.01010167  0.48981832  1
  Ta  Ta97  1  0.09810816  0.10044969  0.12203815  1
  Ta  Ta98  1  -0.00267982  0.40434875  0.51028658  1
  Ta  Ta99  1  0.51631705  0.89174138  0.12454886  1
  Ta  Ta100  1  0.80388373  0.19905084  0.24582135  1
  Ta  Ta101  1  0.59072214  0.60476828  0.75274458  1
  Ta  Ta102  1  0.29107172  0.48855916  0.39149940  1
  Ta  Ta103  1  0.60007966  -0.00691650  0.25616858  1
  Ta  Ta104  1  0.08653658  0.30162432  0.62842922  1
  Ta  Ta105  1  0.69755534  0.49675509  0.39111040  1
  Ta  Ta106  1  0.90358405  0.09499409  0.63878846  1
  Ta  Ta107  1  0.71050276  0.91620790  0.13175939  1
  Ta  Ta108  1  0.18882824  0.60474988  0.72963492  1
  Ta  Ta109  1  0.30447537  0.70695585  0.61804179  1
  Ta  Ta110  1  0.70509894  0.29947065  0.87752145  1
  Ta  Ta111  1  0.89677919  0.09364493  0.12964514  1
  Ta  Ta112  1  0.60483062  0.20825459  0.26939195  1
  Ta  Ta113  1  -0.00419625  0.40193029  0.24954968  1
  Ta  Ta114  1  0.68915327  0.11343010  0.86484229  1
  Ta  Ta115  1  0.49416510  0.30016434  0.39166889  1
  Ta  Ta116  1  0.89308397  0.50030406  0.38169810  1
  Ta  Ta117  1  0.90840781  0.70590353  0.09575460  1
  Ta  Ta118  1  0.90701585  0.50217131  0.63104367  1
  Ta  Ta119  1  0.51106378  0.69290786  0.61696869  1
  Ti  Ti120  1  0.09325325  0.89940818  0.11603523  1
  Ti  Ti121  1  0.41299181  0.81052469  0.25567925  1
  Ti  Ti122  1  0.20341938  0.79088062  0.75927248  1
  Ti  Ti123  1  0.59942768  0.18698681  0.48559965  1
  Ti  Ti124  1  0.70077197  0.30359596  0.38666321  1
  Ti  Ti125  1  0.00465254  -0.00329803  -0.01279912  1
  Ti  Ti126  1  0.18854685  0.40659686  0.72743377  1
  Ti  Ti127  1  0.08220331  0.48507943  0.84933107  1
  Ti  Ti128  1  0.20305538  0.21331255  0.74410192  1
  Ti  Ti129  1  0.60562366  0.81432362  -0.00602101  1
  Ti  Ti130  1  0.19552131  0.19849343  0.24338642  1
  Ti  Ti131  1  0.37012207  0.18938859  0.50519485  1
  Ti  Ti132  1  0.37703633  0.40120449  0.72635338  1
  Ti  Ti133  1  0.81135882  0.80578471  0.77411305  1
  Ti  Ti134  1  0.91069173  0.09371582  0.36349747  1
  Ti  Ti135  1  0.39851297  0.60242794  0.50199015  1
  Ti  Ti136  1  0.41103469  0.00311146  0.75059061  1
  Ti  Ti137  1  0.80816246  0.60663702  0.76106267  1
  Ti  Ti138  1  0.90208486  0.70123316  0.38009245  1
  Ti  Ti139  1  0.90578322  0.90525473  0.64840377  1
  Ti  Ti140  1  0.29032431  0.28627756  0.38103116  1
  Ti  Ti141  1  -0.00372864  0.21455663  0.75109646  1
  Ti  Ti142  1  0.19835909  0.01021419  0.24080405  1
  Ti  Ti143  1  -0.00937984  0.00304038  0.76825080  1
  Ti  Ti144  1  0.00292047  0.00017538  0.24052188  1
  Ti  Ti145  1  0.50169988  0.50130816  0.39490561  1
  Ti  Ti146  1  0.38841667  0.59858123  0.73404541  1
  Ti  Ti147  1  0.48902127  0.50636774  0.12910273  1
  Ti  Ti148  1  0.08423464  0.31120731  0.13157192  1
  Ti  Ti149  1  0.19483685  0.80502272  0.51038236  1
  Ti  Ti150  1  -0.00658105  0.80162954  0.50896338  1
  Ti  Ti151  1  0.80498550  0.80829689  -0.00649531  1
  Ti  Ti152  1  0.28346865  0.50302755  0.12475100  1
  Ti  Ti153  1  0.60303603  0.00607983  0.76093501  1
  Ti  Ti154  1  0.01024227  0.19865151  0.50638429  1
  Ti  Ti155  1  0.90574885  0.30860743  0.87248842  1
  Ti  Ti156  1  0.90687653  0.90009303  0.87904598  1
  Ti  Ti157  1  0.80547754  0.40175413  0.50813898  1
  Ti  Ti158  1  0.00889133  0.80272315  0.23806612  1
  Ti  Ti159  1  -0.02408770  0.39649013  -0.00330899  1
  Mo  Mo160  1  0.60549320  0.80470182  0.24264481  1
  Mo  Mo161  1  0.90239855  0.10991686  0.86764356  1
  Mo  Mo162  1  0.29915782  0.50234674  0.62015943  1
  Mo  Mo163  1  0.90388277  0.29469568  0.61529585  1
  Mo  Mo164  1  0.11638164  0.67450438  0.86506354  1
  Mo  Mo165  1  0.60695447  0.20153203  0.00006835  1
  Mo  Mo166  1  0.20513421  0.58312979  -0.00523157  1
  Mo  Mo167  1  0.19340103  0.39294674  0.25436188  1
  Mo  Mo168  1  0.29072827  0.29655827  0.62460550  1
  Mo  Mo169  1  0.28220682  0.10563263  0.11867536  1
  Mo  Mo170  1  0.09753124  0.70954327  0.63092897  1
  Mo  Mo171  1  0.81920421  0.79894125  0.50400778  1
  Mo  Mo172  1  0.49824760  0.70239320  0.87105243  1
  Mo  Mo173  1  0.90053147  0.69463107  0.88848903  1
  Mo  Mo174  1  0.50546489  0.89920550  0.37841634  1
  Mo  Mo175  1  0.09878207  0.90196960  0.86233629  1
  Mo  Mo176  1  0.89901243  0.29677432  0.13338008  1
  Mo  Mo177  1  0.70584414  0.90746943  0.87101482  1
  Mo  Mo178  1  0.70305726  0.69617602  0.64508051  1
  Mo  Mo179  1  0.79798404  0.39932573  -0.00285576  1
  Mo  Mo180  1  0.43124246  0.79050438  -0.00585884  1
  Mo  Mo181  1  0.09570106  0.30332882  0.86407286  1
  Mo  Mo182  1  0.50042855  0.09229221  0.86985508  1
  Mo  Mo183  1  0.10066140  0.48994225  0.12880876  1
  Mo  Mo184  1  0.89404600  0.49521055  0.87308770  1
  Mo  Mo185  1  0.28596327  0.10532201  0.37228744  1
  Mo  Mo186  1  0.59589666  0.19164592  0.74226675  1
  Mo  Mo187  1  -0.00752478  0.59382965  0.76102277  1
  Mo  Mo188  1  0.70679044  0.10145801  0.14069879  1
  Mo  Mo189  1  -0.00387599  0.80097200  -0.01990696  1
  Mo  Mo190  1  0.08908764  0.50371398  0.63097449  1
  Mo  Mo191  1  0.31006934  0.10243820  0.63193847  1
  Mo  Mo192  1  -0.00454352  0.39490904  0.74292738  1
  Mo  Mo193  1  0.19262475  0.20670240  0.50599576  1
  Mo  Mo194  1  0.59551050  0.60016265  0.50128560  1
  Mo  Mo195  1  0.59918512  0.39612714  0.48736475  1
  Mo  Mo196  1  0.81221881  0.00115586  0.24252506  1
  Mo  Mo197  1  0.60182998  0.58886926  0.24881480  1
  Mo  Mo198  1  0.39686145  0.58883055  0.00042774  1
  Mo  Mo199  1  0.80437726  -0.00122071  0.76993096  1
