# generated using pymatgen
data_HfZrTaTiMo
_symmetry_space_group_name_H-M   'P 1'
_cell_length_a   15.17425533
_cell_length_b   15.19425199
_cell_length_c   16.81684926
_cell_angle_alpha   89.93128419
_cell_angle_beta   90.02056274
_cell_angle_gamma   90.00916829
_symmetry_Int_Tables_number   1
_chemical_formula_structural   HfZrTaTiMo
_chemical_formula_sum   'Hf40 Zr40 Ta40 Ti40 Mo40'
_cell_volume   3877.31421686
_cell_formula_units_Z   40
loop_
 _symmetry_equiv_pos_site_id
 _symmetry_equiv_pos_as_xyz
  1  'x, y, z'
loop_
 _atom_site_type_symbol
 _atom_site_label
 _atom_site_symmetry_multiplicity
 _atom_site_fract_x
 _atom_site_fract_y
 _atom_site_fract_z
 _atom_site_occupancy
  Hf  Hf0  1  0.48453136  0.70240991  0.13504114  1
  Hf  Hf1  1  0.80811530  0.39451902  0.48125319  1
  Hf  Hf2  1  0.40139840  -0.01060880  0.75675123  1
  Hf  Hf3  1  0.90686715  0.89828333  0.12835837  1
  Hf  Hf4  1  0.01619401  0.40013615  0.50426444  1
  Hf  Hf5  1  0.89885062  0.30434551  0.61747515  1
  Hf  Hf6  1  0.20723745  0.00091438  0.74034096  1
  Hf  Hf7  1  0.70817826  0.10098879  0.12622049  1
  Hf  Hf8  1  0.21495763  0.19149468  -0.00022046  1
  Hf  Hf9  1  0.71350655  0.48540492  0.61887899  1
  Hf  Hf10  1  0.20051370  0.61330444  0.75881032  1
  Hf  Hf11  1  0.00339558  0.40703534  0.74295190  1
  Hf  Hf12  1  0.09312674  0.89017523  0.86376564  1
  Hf  Hf13  1  0.30158113  0.89670146  0.11371684  1
  Hf  Hf14  1  0.39420794  0.79670612  0.49557121  1
  Hf  Hf15  1  0.59652875  0.80701321  0.50685322  1
  Hf  Hf16  1  0.48760730  0.29590001  0.36334757  1
  Hf  Hf17  1  -0.00528226  -0.00925023  0.51266745  1
  Hf  Hf18  1  0.09850284  0.12120751  0.62105187  1
  Hf  Hf19  1  0.69404047  0.31128623  0.86875100  1
  Hf  Hf20  1  0.79612651  0.20827317  0.74110966  1
  Hf  Hf21  1  0.70130072  0.88222578  0.12941125  1
  Hf  Hf22  1  0.10428164  0.49236490  0.35494693  1
  Hf  Hf23  1  0.29625992  0.49060792  0.87685641  1
  Hf  Hf24  1  0.31991050  0.51082355  0.13044248  1
  Hf  Hf25  1  0.21343046  0.00334034  0.24672021  1
  Hf  Hf26  1  0.89105425  0.88713609  0.63059045  1
  Hf  Hf27  1  0.50070720  0.31544395  0.13376551  1
  Hf  Hf28  1  0.77775703  0.58043040  0.00782946  1
  Hf  Hf29  1  0.09471085  0.09131570  0.12578328  1
  Hf  Hf30  1  0.50484157  0.11292816  0.86109872  1
  Hf  Hf31  1  0.20182202  0.79326372  0.24638759  1
  Hf  Hf32  1  0.09543573  0.30352661  0.11532172  1
  Hf  Hf33  1  0.40414409  0.20965783  0.51083045  1
  Hf  Hf34  1  0.51589455  0.50428782  0.86760211  1
  Hf  Hf35  1  0.20467183  0.60073991  0.00373430  1
  Hf  Hf36  1  0.89278929  0.69817066  0.86695574  1
  Hf  Hf37  1  0.91404405  0.50861536  0.35856308  1
  Hf  Hf38  1  0.89481779  0.89484796  0.86053071  1
  Hf  Hf39  1  0.91197774  0.68732475  0.62676058  1
  Zr  Zr40  1  0.09387709  0.68938952  0.36322746  1
  Zr  Zr41  1  0.38399338  0.78806329  0.76055939  1
  Zr  Zr42  1  0.39134619  0.01134989  -0.01558024  1
  Zr  Zr43  1  0.60931672  0.40479368  0.25534290  1
  Zr  Zr44  1  0.59290575  0.77248403  -0.00715710  1
  Zr  Zr45  1  0.70960638  0.10106815  0.87133619  1
  Zr  Zr46  1  0.29864936  0.90687303  0.38423552  1
  Zr  Zr47  1  0.60771902  0.60339726  0.73438059  1
  Zr  Zr48  1  0.70140903  0.89854040  0.37732563  1
  Zr  Zr49  1  0.40187164  0.81667210  0.25786761  1
  Zr  Zr50  1  0.80519395  -0.00043002  -0.00174104  1
  Zr  Zr51  1  0.70358393  0.51391612  0.38067571  1
  Zr  Zr52  1  0.50219966  0.09294661  0.63296039  1
  Zr  Zr53  1  0.40312228  0.40681664  0.51302643  1
  Zr  Zr54  1  0.08960868  0.90520228  0.37136174  1
  Zr  Zr55  1  0.59822014  -0.00197064  0.24550232  1
  Zr  Zr56  1  0.88972396  0.49339250  0.14564555  1
  Zr  Zr57  1  0.80444391  0.78566527  0.00213684  1
  Zr  Zr58  1  0.09599011  0.11342724  0.38503019  1
  Zr  Zr59  1  0.49826898  0.90497230  0.11447703  1
  Zr  Zr60  1  0.40937634  0.20680917  -0.00101215  1
  Zr  Zr61  1  0.60432228  0.21099147  0.00785535  1
  Zr  Zr62  1  0.20060949  0.20158504  0.24455942  1
  Zr  Zr63  1  0.30332064  0.51131117  0.35863323  1
  Zr  Zr64  1  -0.00567990  0.19204115  -0.00234782  1
  Zr  Zr65  1  0.21042920  0.41698398  0.50688694  1
  Zr  Zr66  1  0.78663745  0.19613364  0.48588524  1
  Zr  Zr67  1  0.48300377  0.69758567  0.62320403  1
  Zr  Zr68  1  0.31674974  0.10754526  0.38406374  1
  Zr  Zr69  1  -0.00158108  -0.00109060  0.73394644  1
  Zr  Zr70  1  0.10689163  0.10010697  0.86754218  1
  Zr  Zr71  1  0.20361799  0.00198594  0.51275510  1
  Zr  Zr72  1  0.49561795  0.50768559  0.37148736  1
  Zr  Zr73  1  -0.01197655  0.61500162  0.00601022  1
  Zr  Zr74  1  0.89791855  0.30440470  0.87396929  1
  Zr  Zr75  1  0.60002237  0.00042726  -0.00583618  1
  Zr  Zr76  1  0.80699558  0.37315859  0.27162706  1
  Zr  Zr77  1  0.09884114  0.50495832  0.13708401  1
  Zr  Zr78  1  0.60276434  0.37847248  0.49865010  1
  Zr  Zr79  1  0.11276225  0.31556290  0.88317705  1
  Ta  Ta80  1  0.30237900  0.30919459  0.11738828  1
  Ta  Ta81  1  0.50208571  0.91147407  0.37734902  1
  Ta  Ta82  1  0.41064729  0.41067944  -0.00348227  1
  Ta  Ta83  1  0.81440880  -0.00237315  0.25552301  1
  Ta  Ta84  1  0.89442205  0.49723405  0.87693884  1
  Ta  Ta85  1  0.89067928  0.70034857  0.36986202  1
  Ta  Ta86  1  0.60461380  0.19759689  0.24432288  1
  Ta  Ta87  1  0.00038704  0.20532335  0.74663160  1
  Ta  Ta88  1  0.59404513  0.60028504  0.50935606  1
  Ta  Ta89  1  0.09001738  0.70936316  0.13023920  1
  Ta  Ta90  1  0.90382279  0.09736268  0.86444198  1
  Ta  Ta91  1  0.28660047  0.89370816  0.88219278  1
  Ta  Ta92  1  0.18809764  0.79745436  0.00467194  1
  Ta  Ta93  1  -0.01011645  0.19607297  0.24952581  1
  Ta  Ta94  1  0.51595321  0.51560349  0.13026268  1
  Ta  Ta95  1  -0.00120001  0.78312544  0.49765300  1
  Ta  Ta96  1  0.09292837  0.50444211  0.88241384  1
  Ta  Ta97  1  -0.00947694  0.40939007  0.00286165  1
  Ta  Ta98  1  0.51290456  0.29687545  0.64867186  1
  Ta  Ta99  1  0.29682208  0.30449342  0.63948714  1
  Ta  Ta100  1  0.00294306  0.60184116  0.75749844  1
  Ta  Ta101  1  0.50253941  0.70218662  0.37167244  1
  Ta  Ta102  1  0.69789530  0.88512006  0.86791111  1
  Ta  Ta103  1  0.19406534  0.22532972  0.50451981  1
  Ta  Ta104  1  0.19367111  -0.00278918  -0.00055921  1
  Ta  Ta105  1  0.41189011  0.61391751  -0.01170670  1
  Ta  Ta106  1  0.68915382  0.90411046  0.62663120  1
  Ta  Ta107  1  0.61376603  0.41617634  0.00555408  1
  Ta  Ta108  1  0.30588606  0.89300802  0.62159683  1
  Ta  Ta109  1  0.09643815  0.52028216  0.62712226  1
  Ta  Ta110  1  0.69361429  0.10418948  0.62683158  1
  Ta  Ta111  1  0.52102017  0.10405185  0.38288259  1
  Ta  Ta112  1  0.00114292  -0.01268574  -0.00650934  1
  Ta  Ta113  1  0.20833716  0.39603567  0.24090968  1
  Ta  Ta114  1  0.50125828  0.31274633  0.85847249  1
  Ta  Ta115  1  0.59070763  0.80301618  0.74685040  1
  Ta  Ta116  1  0.60332268  -0.00963921  0.75595427  1
  Ta  Ta117  1  0.89189793  0.10208370  0.61841715  1
  Ta  Ta118  1  0.29500387  0.30808171  0.37007742  1
  Ta  Ta119  1  0.09499660  0.90001657  0.12846692  1
  Ti  Ti120  1  0.38983911  0.19839234  0.75140828  1
  Ti  Ti121  1  0.89799565  0.89530788  0.38010396  1
  Ti  Ti122  1  0.30139785  0.10659644  0.62326314  1
  Ti  Ti123  1  0.70517774  0.70019997  0.61659210  1
  Ti  Ti124  1  0.18915266  0.60751323  0.49906018  1
  Ti  Ti125  1  0.71313084  0.30978488  0.12556755  1
  Ti  Ti126  1  0.30619302  0.29908538  0.87269187  1
  Ti  Ti127  1  0.80863110  0.58660285  0.74165692  1
  Ti  Ti128  1  0.19235947  0.79728095  0.49702261  1
  Ti  Ti129  1  0.89051713  0.69892747  0.14145809  1
  Ti  Ti130  1  0.68919417  0.68624647  0.86826444  1
  Ti  Ti131  1  0.80193180  0.79672880  0.50066742  1
  Ti  Ti132  1  0.90258546  0.08745885  0.38174070  1
  Ti  Ti133  1  0.80340080  0.20691924  -0.00018590  1
  Ti  Ti134  1  0.70965586  0.49604945  0.86265149  1
  Ti  Ti135  1  0.78409712  0.78891011  0.74500475  1
  Ti  Ti136  1  0.81450669  0.60196653  0.50146637  1
  Ti  Ti137  1  0.68553019  0.67688661  0.14059258  1
  Ti  Ti138  1  0.39907748  0.59979690  0.76006951  1
  Ti  Ti139  1  0.78866619  -0.00411738  0.50226915  1
  Ti  Ti140  1  0.29929498  0.69565729  0.37252554  1
  Ti  Ti141  1  0.90154300  0.09821558  0.12989177  1
  Ti  Ti142  1  0.39981833  0.19161797  0.23753834  1
  Ti  Ti143  1  0.93250494  0.28581054  0.38312208  1
  Ti  Ti144  1  0.09860088  0.70604399  0.87894547  1
  Ti  Ti145  1  0.29929012  0.50979972  0.63845307  1
  Ti  Ti146  1  0.49755912  0.88651645  0.88240945  1
  Ti  Ti147  1  0.69534343  0.69958914  0.37726673  1
  Ti  Ti148  1  0.89879138  0.29457059  0.12665213  1
  Ti  Ti149  1  0.39531592  0.40280076  0.74794118  1
  Ti  Ti150  1  0.79350526  -0.00131307  0.74354837  1
  Ti  Ti151  1  0.10189667  0.87314746  0.63231967  1
  Ti  Ti152  1  0.79737208  0.18626932  0.26754447  1
  Ti  Ti153  1  0.19906220  0.21517861  0.75127972  1
  Ti  Ti154  1  -0.01046279  0.80804541  0.25521998  1
  Ti  Ti155  1  0.38766414  0.59911155  0.50356099  1
  Ti  Ti156  1  0.79080350  0.79294901  0.25515640  1
  Ti  Ti157  1  0.50109821  0.49529919  0.63274865  1
  Ti  Ti158  1  0.41759019  -0.00402838  0.51059632  1
  Ti  Ti159  1  0.27882107  0.70160520  0.62125755  1
  Mo  Mo160  1  0.29365027  0.70193575  0.12152332  1
  Mo  Mo161  1  0.00361238  0.59658171  0.49524678  1
  Mo  Mo162  1  0.30862308  0.09748851  0.12527863  1
  Mo  Mo163  1  0.39857854  0.61114632  0.25200532  1
  Mo  Mo164  1  0.79359638  0.60658660  0.25333801  1
  Mo  Mo165  1  0.90532485  0.50337292  0.61913459  1
  Mo  Mo166  1  0.38536505  0.79295381  -0.01428124  1
  Mo  Mo167  1  0.60283585  0.79489254  0.25713950  1
  Mo  Mo168  1  0.60673541  0.40045070  0.74310234  1
  Mo  Mo169  1  0.00114891  0.78523023  0.74715398  1
  Mo  Mo170  1  0.19743560  0.80395131  0.74744112  1
  Mo  Mo171  1  0.49789858  0.89726043  0.62910053  1
  Mo  Mo172  1  0.10769549  0.30249720  0.37016264  1
  Mo  Mo173  1  0.69947713  0.29339332  0.62682833  1
  Mo  Mo174  1  0.60425687  0.00480877  0.50220182  1
  Mo  Mo175  1  0.10702913  0.30907866  0.63441648  1
  Mo  Mo176  1  0.29181670  0.70111546  0.88302344  1
  Mo  Mo177  1  0.68051984  0.27533935  0.37141833  1
  Mo  Mo178  1  0.39766540  0.39486947  0.24373070  1
  Mo  Mo179  1  0.20350037  0.41038183  0.74282236  1
  Mo  Mo180  1  0.70469429  0.09153976  0.36902671  1
  Mo  Mo181  1  0.20411897  0.60781397  0.23451210  1
  Mo  Mo182  1  0.10474517  0.69962800  0.62016020  1
  Mo  Mo183  1  0.59667459  0.59290282  -0.00012043  1
  Mo  Mo184  1  0.49530569  0.10550630  0.13049058  1
  Mo  Mo185  1  0.00105282  0.80299088  0.00242592  1
  Mo  Mo186  1  0.20814539  0.40102610  0.00511054  1
  Mo  Mo187  1  0.00832100  0.37813986  0.25037013  1
  Mo  Mo188  1  -0.00511095  0.61685170  0.24084159  1
  Mo  Mo189  1  0.80077554  0.39137471  0.00667447  1
  Mo  Mo190  1  0.59995164  0.19761919  0.75195283  1
  Mo  Mo191  1  -0.00491522  0.00372173  0.25421424  1
  Mo  Mo192  1  0.50103663  0.69745265  0.86591252  1
  Mo  Mo193  1  0.69713816  0.49265279  0.13819194  1
  Mo  Mo194  1  0.40638272  0.01764804  0.24692430  1
  Mo  Mo195  1  -0.00181282  0.19978605  0.50446269  1
  Mo  Mo196  1  0.80501068  0.40986086  0.74590086  1
  Mo  Mo197  1  0.29698795  0.10450954  0.86288764  1
  Mo  Mo198  1  0.59525171  0.19303724  0.50349892  1
  Mo  Mo199  1  0.59972623  0.61292433  0.25768256  1
