# generated using pymatgen
data_HfZrTaTiMo
_symmetry_space_group_name_H-M   'P 1'
_cell_length_a   15.20165925
_cell_length_b   15.21237504
_cell_length_c   16.84938377
_cell_angle_alpha   89.99296877
_cell_angle_beta   89.93857653
_cell_angle_gamma   90.07217377
_symmetry_Int_Tables_number   1
_chemical_formula_structural   HfZrTaTiMo
_chemical_formula_sum   'Hf40 Zr40 Ta40 Ti40 Mo40'
_cell_volume   3896.47094165
_cell_formula_units_Z   40
loop_
 _symmetry_equiv_pos_site_id
 _symmetry_equiv_pos_as_xyz
  1  'x, y, z'
loop_
 _atom_site_type_symbol
 _atom_site_label
 _atom_site_symmetry_multiplicity
 _atom_site_fract_x
 _atom_site_fract_y
 _atom_site_fract_z
 _atom_site_occupancy
  Hf  Hf0  1  0.42232666  0.19158402  0.24473343  1
  Hf  Hf1  1  0.40143991  0.60712080  0.52148803  1
  Hf  Hf2  1  -0.00616475  0.60875050  0.25447039  1
  Hf  Hf3  1  0.19762518  -0.00054639  0.00406381  1
  Hf  Hf4  1  -0.00049286  0.61818880  0.00557340  1
  Hf  Hf5  1  0.62101836  -0.00212211  -0.01149311  1
  Hf  Hf6  1  0.30082547  0.88432066  0.11299695  1
  Hf  Hf7  1  0.21500339  0.39154273  -0.00856056  1
  Hf  Hf8  1  0.40953392  0.61309833  0.73106628  1
  Hf  Hf9  1  0.80285123  -0.00897349  0.73517614  1
  Hf  Hf10  1  0.59492675  0.01334845  0.23989321  1
  Hf  Hf11  1  0.11164988  0.09496439  0.14018861  1
  Hf  Hf12  1  0.19693357  0.79023896  0.26842108  1
  Hf  Hf13  1  0.48079921  0.71502035  0.10964535  1
  Hf  Hf14  1  0.89279715  0.50526034  0.11919292  1
  Hf  Hf15  1  0.78883987  0.38721014  0.24053540  1
  Hf  Hf16  1  0.91135948  0.50530212  0.88605181  1
  Hf  Hf17  1  0.70419410  0.51282784  0.88009091  1
  Hf  Hf18  1  0.20008060  0.59459689  0.51506534  1
  Hf  Hf19  1  0.09328539  0.89335832  0.86911505  1
  Hf  Hf20  1  0.60618420  0.39660980  0.50330416  1
  Hf  Hf21  1  0.72252172  0.51067099  0.62268152  1
  Hf  Hf22  1  0.60490105  0.00101460  0.76389773  1
  Hf  Hf23  1  0.40807911  0.22952205  -0.01210885  1
  Hf  Hf24  1  0.38993760  0.81591268  0.26119024  1
  Hf  Hf25  1  0.29928461  0.90154556  0.87342063  1
  Hf  Hf26  1  0.09359882  0.29654236  0.87590127  1
  Hf  Hf27  1  0.69615185  0.71454083  0.12153508  1
  Hf  Hf28  1  -0.01101943  0.80978507  0.26611462  1
  Hf  Hf29  1  0.50251004  0.29017002  0.63541402  1
  Hf  Hf30  1  0.49230745  0.69613131  0.37872860  1
  Hf  Hf31  1  0.79538764  0.60282817  0.24474663  1
  Hf  Hf32  1  0.18636985  0.38655531  0.50422463  1
  Hf  Hf33  1  0.60040830  0.79164704  0.76246327  1
  Hf  Hf34  1  0.19253585  0.59518504  0.26311930  1
  Hf  Hf35  1  0.40805107  0.17992479  0.49630454  1
  Hf  Hf36  1  0.28403179  0.48728118  0.13516637  1
  Hf  Hf37  1  0.79670305  0.19863380  0.50342302  1
  Hf  Hf38  1  0.49252361  0.49879154  0.87471403  1
  Hf  Hf39  1  0.89793615  0.89028002  0.60851694  1
  Zr  Zr40  1  0.18500952  0.77951061  -0.00213394  1
  Zr  Zr41  1  0.49123818  0.47868761  0.11263626  1
  Zr  Zr42  1  0.21100877  0.02112098  0.49590549  1
  Zr  Zr43  1  0.39154626  0.60686925  0.24488205  1
  Zr  Zr44  1  0.21123793  0.80309032  0.49575063  1
  Zr  Zr45  1  0.29019826  0.49849354  0.86118196  1
  Zr  Zr46  1  0.00481574  0.01257075  0.74996411  1
  Zr  Zr47  1  0.50363729  0.91337782  0.10597036  1
  Zr  Zr48  1  0.11310042  0.30067008  0.13703730  1
  Zr  Zr49  1  0.70074612  0.30364010  0.63020628  1
  Zr  Zr50  1  -0.01375708  0.79893129  0.74470248  1
  Zr  Zr51  1  0.30044695  0.49688708  0.37950377  1
  Zr  Zr52  1  0.59615314  0.81052710  0.25444548  1
  Zr  Zr53  1  0.48952126  0.90219722  0.88561487  1
  Zr  Zr54  1  0.90953164  0.31708678  0.60612883  1
  Zr  Zr55  1  0.09712029  0.91558456  0.61450628  1
  Zr  Zr56  1  0.59172573  0.81810002  0.49672695  1
  Zr  Zr57  1  0.69358056  0.50187308  0.37573675  1
  Zr  Zr58  1  0.49329560  0.69822272  0.88836326  1
  Zr  Zr59  1  0.88846575  0.69583725  0.39187768  1
  Zr  Zr60  1  0.00211698  0.39347229  0.01155481  1
  Zr  Zr61  1  0.71086104  0.09922451  0.11595673  1
  Zr  Zr62  1  0.88891165  0.91008614  0.39719191  1
  Zr  Zr63  1  0.51035393  0.29514065  0.37807231  1
  Zr  Zr64  1  0.76971822  0.00313832  0.52212663  1
  Zr  Zr65  1  0.40030672  0.39738030  0.50525842  1
  Zr  Zr66  1  0.79090707  0.39484927  0.00207054  1
  Zr  Zr67  1  0.50140701  0.89203024  0.63852605  1
  Zr  Zr68  1  0.59452208  0.59861571  0.23942171  1
  Zr  Zr69  1  0.29539029  0.27165222  0.62695825  1
  Zr  Zr70  1  0.19203885  0.59963471  0.72296645  1
  Zr  Zr71  1  0.72684808  0.10677090  0.87727053  1
  Zr  Zr72  1  -0.00825195  0.40125103  0.24556347  1
  Zr  Zr73  1  0.29073433  0.70308403  0.86249058  1
  Zr  Zr74  1  -0.01472137  0.59035250  0.73738872  1
  Zr  Zr75  1  0.81835041  0.19902490  0.73641757  1
  Zr  Zr76  1  0.19132753  0.39464490  0.74494702  1
  Zr  Zr77  1  0.08050711  0.89787851  0.13363990  1
  Zr  Zr78  1  0.91280225  0.08524159  0.13330846  1
  Zr  Zr79  1  0.37100771  0.60118835  0.00840931  1
  Ta  Ta80  1  0.80795555  0.41632010  0.75656932  1
  Ta  Ta81  1  0.29789214  0.28553607  0.37210558  1
  Ta  Ta82  1  0.80277056  -0.00650314  0.25453710  1
  Ta  Ta83  1  0.61625652  0.20914273  0.24618446  1
  Ta  Ta84  1  0.02581506  0.19937767  0.48553675  1
  Ta  Ta85  1  -0.00396879  0.58245704  0.50994894  1
  Ta  Ta86  1  0.81735784  0.20246865  0.00341066  1
  Ta  Ta87  1  -0.00541303  0.39361733  0.75102683  1
  Ta  Ta88  1  0.11410876  0.10406847  0.35697571  1
  Ta  Ta89  1  0.21836937  -0.01160169  0.25267961  1
  Ta  Ta90  1  0.88200684  0.70984189  0.87550754  1
  Ta  Ta91  1  0.60172567  0.20188522  0.76763883  1
  Ta  Ta92  1  0.88039708  0.68568234  0.61169142  1
  Ta  Ta93  1  0.69456831  0.10127964  0.37496887  1
  Ta  Ta94  1  -0.00454445  0.19789624  0.25663396  1
  Ta  Ta95  1  0.49376599  0.09496155  0.63870364  1
  Ta  Ta96  1  0.09642717  0.91414078  0.38033842  1
  Ta  Ta97  1  0.92608320  0.10292034  0.60887510  1
  Ta  Ta98  1  0.79249205  0.80633696  0.25517514  1
  Ta  Ta99  1  0.89560480  0.29376154  0.87262119  1
  Ta  Ta100  1  0.80454588  0.19596936  0.25543184  1
  Ta  Ta101  1  0.20772203  0.19675260  0.00151982  1
  Ta  Ta102  1  0.30695164  0.91111590  0.63689796  1
  Ta  Ta103  1  0.60021443  0.60607996  0.50738832  1
  Ta  Ta104  1  0.19570415  0.80245227  0.73542810  1
  Ta  Ta105  1  0.10649955  0.29903067  0.35902733  1
  Ta  Ta106  1  0.11832317  0.11723093  0.62503542  1
  Ta  Ta107  1  0.89240101  0.49293065  0.38356350  1
  Ta  Ta108  1  -0.00130751  -0.00182715  -0.00808533  1
  Ta  Ta109  1  0.58656485  0.37704472  -0.01969358  1
  Ta  Ta110  1  0.51646107  0.49541380  0.63527200  1
  Ta  Ta111  1  0.11007477  0.10083144  0.87859574  1
  Ta  Ta112  1  0.79548808  0.61725481  0.00654602  1
  Ta  Ta113  1  0.90225965  0.29924691  0.38296598  1
  Ta  Ta114  1  0.00772549  0.19223348  0.00753014  1
  Ta  Ta115  1  0.32272268  0.08558650  0.36151838  1
  Ta  Ta116  1  0.51205895  0.12118877  0.09946153  1
  Ta  Ta117  1  0.08723402  0.70473989  0.61399433  1
  Ta  Ta118  1  0.60709347  0.40136682  0.76081731  1
  Ta  Ta119  1  0.40601148  -0.01057301  0.50392044  1
  Ti  Ti120  1  0.10358390  0.69886662  0.13270830  1
  Ti  Ti121  1  0.59965698  0.59790309  0.00422268  1
  Ti  Ti122  1  0.70612774  0.29733489  0.37996900  1
  Ti  Ti123  1  0.69254157  0.70254969  0.37617892  1
  Ti  Ti124  1  -0.01690745  0.81041032  -0.00524039  1
  Ti  Ti125  1  0.40073347  0.38888973  0.75191567  1
  Ti  Ti126  1  0.08981074  0.68154168  0.86230901  1
  Ti  Ti127  1  0.61501849  0.60162262  0.74950262  1
  Ti  Ti128  1  0.59306950  0.39424797  0.24679857  1
  Ti  Ti129  1  0.50136356  0.10490480  0.88815381  1
  Ti  Ti130  1  0.48986093  0.92959126  0.37140888  1
  Ti  Ti131  1  0.90632675  0.09725479  0.38107034  1
  Ti  Ti132  1  0.18224629  0.58671542  -0.00207778  1
  Ti  Ti133  1  0.79771859  0.81352891  -0.00448883  1
  Ti  Ti134  1  0.09892937  0.69074811  0.39258786  1
  Ti  Ti135  1  0.81789795  -0.00777319  -0.00427096  1
  Ti  Ti136  1  0.20052746  0.19404765  0.76148610  1
  Ti  Ti137  1  0.61380908  0.79905448  -0.01259324  1
  Ti  Ti138  1  0.68767227  0.29272142  0.11451528  1
  Ti  Ti139  1  0.30669692  0.09753546  0.88361526  1
  Ti  Ti140  1  0.00202267  0.79772955  0.49486684  1
  Ti  Ti141  1  0.68902815  0.91092134  0.37658689  1
  Ti  Ti142  1  0.09261681  0.29364997  0.62739138  1
  Ti  Ti143  1  0.79081284  0.79178903  0.74824347  1
  Ti  Ti144  1  0.09020446  0.49071293  0.37735781  1
  Ti  Ti145  1  0.39729206  0.39381149  0.25654600  1
  Ti  Ti146  1  0.39796010  0.18848247  0.76417894  1
  Ti  Ti147  1  0.77876385  0.79522636  0.50367925  1
  Ti  Ti148  1  0.31833865  0.09414281  0.12062395  1
  Ti  Ti149  1  0.21130517  0.00815888  0.74941679  1
  Ti  Ti150  1  0.39630156  0.80171613  0.49898957  1
  Ti  Ti151  1  0.68915873  0.49532237  0.11541061  1
  Ti  Ti152  1  0.68966184  0.70796758  0.62411431  1
  Ti  Ti153  1  0.89920487  0.72260712  0.12587671  1
  Ti  Ti154  1  0.21986415  0.19839929  0.24447692  1
  Ti  Ti155  1  0.49997593  0.49893641  0.37534974  1
  Ti  Ti156  1  0.09690880  0.50310290  0.13280253  1
  Ti  Ti157  1  0.92038672  0.10494136  0.87483303  1
  Ti  Ti158  1  0.30571195  0.48507959  0.63044460  1
  Ti  Ti159  1  0.32030223  0.29862812  0.12767582  1
  Mo  Mo160  1  0.67854550  0.10674372  0.63651973  1
  Mo  Mo161  1  0.89993006  0.49664565  0.61873166  1
  Mo  Mo162  1  0.79050195  0.60389499  0.49517514  1
  Mo  Mo163  1  0.39523099  0.40292865  -0.00669579  1
  Mo  Mo164  1  0.89421615  0.90580687  0.87262424  1
  Mo  Mo165  1  0.30276069  0.71991119  0.62948641  1
  Mo  Mo166  1  0.49754624  0.30103655  0.85459030  1
  Mo  Mo167  1  0.01090855  0.20462184  0.74642688  1
  Mo  Mo168  1  0.60756364  0.18356026  0.50813041  1
  Mo  Mo169  1  0.29551471  0.28724397  0.86410926  1
  Mo  Mo170  1  0.00346826  0.01327649  0.49349505  1
  Mo  Mo171  1  0.00214429  0.00244362  0.26591185  1
  Mo  Mo172  1  0.28057051  0.69333034  0.12761088  1
  Mo  Mo173  1  0.00452973  0.39552261  0.48542506  1
  Mo  Mo174  1  0.29773707  0.69914262  0.38710976  1
  Mo  Mo175  1  0.39937345  0.00887883  0.75915473  1
  Mo  Mo176  1  0.70974570  0.30559402  0.86560153  1
  Mo  Mo177  1  0.69987027  0.69923720  0.88456821  1
  Mo  Mo178  1  0.72012847  0.89072463  0.87274587  1
  Mo  Mo179  1  0.51330015  0.09909034  0.37268126  1
  Mo  Mo180  1  0.69618045  0.89609160  0.63323829  1
  Mo  Mo181  1  0.80168055  0.40229189  0.48916177  1
  Mo  Mo182  1  0.71568074  0.90203754  0.12459066  1
  Mo  Mo183  1  0.39686871  0.01749047  0.00069880  1
  Mo  Mo184  1  0.39131531  0.80400576  0.00032063  1
  Mo  Mo185  1  0.09250889  0.50475912  0.87571432  1
  Mo  Mo186  1  0.30772888  0.09620465  0.63458029  1
  Mo  Mo187  1  0.61495442  0.20692734  -0.02151918  1
  Mo  Mo188  1  0.88802690  0.89623476  0.12789312  1
  Mo  Mo189  1  0.30424974  0.90486999  0.37674612  1
  Mo  Mo190  1  0.40343797  0.00608462  0.23456981  1
  Mo  Mo191  1  0.79801981  0.61155560  0.75253087  1
  Mo  Mo192  1  0.58402390  0.01616319  0.50408322  1
  Mo  Mo193  1  0.89146737  0.28330595  0.12924840  1
  Mo  Mo194  1  0.08735861  0.48502768  0.61905895  1
  Mo  Mo195  1  0.20786740  0.19824069  0.48706627  1
  Mo  Mo196  1  0.39077613  0.80324716  0.74509798  1
  Mo  Mo197  1  0.50985371  0.69593681  0.62539036  1
  Mo  Mo198  1  0.51023667  0.29964161  0.12415713  1
  Mo  Mo199  1  0.20625523  0.39296579  0.26005077  1
