# generated using pymatgen
data_HfZrTaTiMo
_symmetry_space_group_name_H-M   'P 1'
_cell_length_a   15.20936338
_cell_length_b   15.21948719
_cell_length_c   16.85433104
_cell_angle_alpha   89.94700381
_cell_angle_beta   90.00596821
_cell_angle_gamma   90.22192116
_symmetry_Int_Tables_number   1
_chemical_formula_structural   HfZrTaTiMo
_chemical_formula_sum   'Hf40 Zr40 Ta40 Ti40 Mo40'
_cell_volume   3901.38787401
_cell_formula_units_Z   40
loop_
 _symmetry_equiv_pos_site_id
 _symmetry_equiv_pos_as_xyz
  1  'x, y, z'
loop_
 _atom_site_type_symbol
 _atom_site_label
 _atom_site_symmetry_multiplicity
 _atom_site_fract_x
 _atom_site_fract_y
 _atom_site_fract_z
 _atom_site_occupancy
  Hf  Hf0  1  0.40110655  0.00590158  0.23424703  1
  Hf  Hf1  1  0.10130287  0.10238712  0.63856898  1
  Hf  Hf2  1  0.49985119  0.50276940  0.86674626  1
  Hf  Hf3  1  0.91463035  0.69791369  0.61944136  1
  Hf  Hf4  1  0.40182124  0.62418221  0.74164989  1
  Hf  Hf5  1  0.11198628  0.90698704  0.64504778  1
  Hf  Hf6  1  0.08361165  0.30797371  0.61432279  1
  Hf  Hf7  1  0.91140564  0.49005337  0.39039293  1
  Hf  Hf8  1  0.80944216  0.79031579  0.25851175  1
  Hf  Hf9  1  0.80148265  0.80738016  0.50133669  1
  Hf  Hf10  1  0.48313841  0.28785262  0.88247064  1
  Hf  Hf11  1  0.08962137  0.09000512  0.36768527  1
  Hf  Hf12  1  0.92085052  0.69464358  0.38750024  1
  Hf  Hf13  1  0.79961063  0.59515784  0.73496043  1
  Hf  Hf14  1  0.88615116  0.29219498  0.37374887  1
  Hf  Hf15  1  0.49659196  0.49479230  0.12448358  1
  Hf  Hf16  1  0.29815507  0.29705553  0.37772455  1
  Hf  Hf17  1  0.01167447  0.60456518  0.24155524  1
  Hf  Hf18  1  0.38715592  0.38989750  0.74979116  1
  Hf  Hf19  1  0.69492571  0.28981017  0.10807382  1
  Hf  Hf20  1  0.78757281  0.18729137  0.24025711  1
  Hf  Hf21  1  0.00765283  0.19954640  -0.01131927  1
  Hf  Hf22  1  0.89497565  0.90374020  0.12487231  1
  Hf  Hf23  1  0.02183766  0.80854476  0.24464634  1
  Hf  Hf24  1  0.09476198  0.91140907  0.10437604  1
  Hf  Hf25  1  0.29147975  0.50683208  0.62521414  1
  Hf  Hf26  1  0.30517591  0.09156965  0.36846306  1
  Hf  Hf27  1  0.80492398  0.58958356  0.25073554  1
  Hf  Hf28  1  0.77697613  0.17947510  0.50519439  1
  Hf  Hf29  1  0.59665393  0.39120547  0.74933915  1
  Hf  Hf30  1  0.69885232  0.07758406  0.11249443  1
  Hf  Hf31  1  0.61427739  0.19156598  0.76287791  1
  Hf  Hf32  1  0.40582817  0.00220171  0.50253821  1
  Hf  Hf33  1  -0.00418750  0.40200464  0.24942433  1
  Hf  Hf34  1  0.02357989  0.81014699  0.50503480  1
  Hf  Hf35  1  0.39441099  -0.01018966  0.74761477  1
  Hf  Hf36  1  0.09611126  0.70393804  0.88388475  1
  Hf  Hf37  1  0.09488443  0.31101860  0.12474539  1
  Hf  Hf38  1  0.29147509  0.31394750  0.12342330  1
  Hf  Hf39  1  0.19826575  0.19888800  0.24653751  1
  Zr  Zr40  1  0.59832036  0.38219330  0.24177429  1
  Zr  Zr41  1  0.50068003  0.91892448  0.36788384  1
  Zr  Zr42  1  0.68313061  0.27935130  0.37780684  1
  Zr  Zr43  1  0.80621787  0.61408689  0.00613493  1
  Zr  Zr44  1  0.08881422  0.30514659  0.37997114  1
  Zr  Zr45  1  0.80405526  -0.00470073  0.50516505  1
  Zr  Zr46  1  0.21022264  0.20321345  0.74548815  1
  Zr  Zr47  1  0.90105960  0.48139608  0.61690879  1
  Zr  Zr48  1  0.00048665  0.60282377  0.00935863  1
  Zr  Zr49  1  0.59859137  0.58783567  0.25855215  1
  Zr  Zr50  1  0.10806225  0.90396078  0.88510280  1
  Zr  Zr51  1  0.51068439  0.89415914  0.12860460  1
  Zr  Zr52  1  0.00145909  0.00276704  0.51065196  1
  Zr  Zr53  1  0.61196373  0.59639579  0.00599091  1
  Zr  Zr54  1  0.31415477  0.10657471  0.87518639  1
  Zr  Zr55  1  0.92034216  0.91040975  0.36434709  1
  Zr  Zr56  1  0.90036186  0.49057368  0.12225286  1
  Zr  Zr57  1  0.39840477  0.60808400  0.50898916  1
  Zr  Zr58  1  0.79660067  0.59933306  0.50740496  1
  Zr  Zr59  1  0.20931072  0.62145203  0.24586332  1
  Zr  Zr60  1  0.31419616  0.71570799  0.88911609  1
  Zr  Zr61  1  0.70778919  0.49354850  0.87011925  1
  Zr  Zr62  1  0.19399085  0.41436827  0.48914373  1
  Zr  Zr63  1  0.69898533  0.48220501  0.38808051  1
  Zr  Zr64  1  0.18494440  0.39917802  0.74765060  1
  Zr  Zr65  1  0.41080416  0.59855429  -0.00363337  1
  Zr  Zr66  1  0.88824827  0.09644915  0.65282135  1
  Zr  Zr67  1  0.59174380  -0.00716347  0.76876247  1
  Zr  Zr68  1  0.39437351  0.79955021  0.48657651  1
  Zr  Zr69  1  0.50329007  0.49464758  0.62492365  1
  Zr  Zr70  1  0.30935430  0.52240934  0.37228122  1
  Zr  Zr71  1  -0.01937094  0.19678750  0.50374738  1
  Zr  Zr72  1  0.40572527  0.19877721  0.50861101  1
  Zr  Zr73  1  0.40028508  0.40691641  0.25780397  1
  Zr  Zr74  1  0.89164607  0.30936234  0.87772902  1
  Zr  Zr75  1  0.22446672  0.80725820  0.75826385  1
  Zr  Zr76  1  0.59501234  0.79072435  0.26387044  1
  Zr  Zr77  1  0.20324251  0.58846695  -0.00044686  1
  Zr  Zr78  1  0.41523371  0.00975211  0.01170505  1
  Zr  Zr79  1  0.08974985  0.51820914  0.61621728  1
  Ta  Ta80  1  0.80315272  0.17979026  -0.01102677  1
  Ta  Ta81  1  0.70902712  0.91290157  0.36490946  1
  Ta  Ta82  1  0.20326937  0.02514099  0.00799240  1
  Ta  Ta83  1  0.00814010  0.40473478  -0.00324137  1
  Ta  Ta84  1  0.29714826  0.29909988  0.61215551  1
  Ta  Ta85  1  0.41268737  0.19616435  0.73370403  1
  Ta  Ta86  1  0.60478201  0.60715499  0.73973948  1
  Ta  Ta87  1  0.00335590  0.00336012  0.77231747  1
  Ta  Ta88  1  0.69891060  0.87895723  0.87328224  1
  Ta  Ta89  1  0.68353521  0.70998494  0.61510170  1
  Ta  Ta90  1  0.00058632  0.79611501  0.75240689  1
  Ta  Ta91  1  0.79401205  0.39159311  0.23877356  1
  Ta  Ta92  1  0.90250237  0.50718481  0.87391978  1
  Ta  Ta93  1  0.70753185  0.70248531  0.13108172  1
  Ta  Ta94  1  0.00402849  0.60084081  0.75613808  1
  Ta  Ta95  1  -0.00005672  0.21001899  0.76551430  1
  Ta  Ta96  1  0.20373568  -0.01227398  0.49694015  1
  Ta  Ta97  1  0.58945845  0.60492765  0.49105426  1
  Ta  Ta98  1  0.70502408  0.69817516  0.86693838  1
  Ta  Ta99  1  0.59154630  0.39456330  0.00141738  1
  Ta  Ta100  1  0.09768431  0.49292468  0.87281014  1
  Ta  Ta101  1  0.11142421  0.71460596  0.11084855  1
  Ta  Ta102  1  0.52057331  0.09611830  0.62622674  1
  Ta  Ta103  1  0.51082074  0.89200181  0.61743811  1
  Ta  Ta104  1  0.29567217  0.89570996  0.11077782  1
  Ta  Ta105  1  0.69406656  0.29212502  0.89214648  1
  Ta  Ta106  1  0.51768020  0.70907495  0.87342713  1
  Ta  Ta107  1  0.69730057  0.91029301  0.63186024  1
  Ta  Ta108  1  0.19723066  0.18699552  0.50300641  1
  Ta  Ta109  1  0.40558529  0.20320191  0.23300232  1
  Ta  Ta110  1  0.58664201  0.18207213  -0.00534802  1
  Ta  Ta111  1  0.19867393  0.60506885  0.75836333  1
  Ta  Ta112  1  0.70472060  0.88994446  0.12963465  1
  Ta  Ta113  1  0.31260890  0.70961406  0.11364454  1
  Ta  Ta114  1  0.27951905  0.30261157  0.89333113  1
  Ta  Ta115  1  0.29527601  0.50763937  0.13294906  1
  Ta  Ta116  1  0.38961873  0.19950357  0.02216089  1
  Ta  Ta117  1  -0.01177681  0.00921232  -0.01969562  1
  Ta  Ta118  1  0.89378348  0.88832857  0.86594773  1
  Ta  Ta119  1  0.12554124  0.72420601  0.37527654  1
  Ti  Ti120  1  0.19410884  -0.01022536  0.23957676  1
  Ti  Ti121  1  0.79322444  0.37969974  0.50966724  1
  Ti  Ti122  1  0.49082482  0.88835119  0.88429664  1
  Ti  Ti123  1  0.29720172  0.49903821  0.86982345  1
  Ti  Ti124  1  0.61051024  0.01307261  0.49665771  1
  Ti  Ti125  1  0.80136399  -0.01659706  -0.01503748  1
  Ti  Ti126  1  0.11821731  0.70785577  0.63163558  1
  Ti  Ti127  1  0.59840842  0.80539026  0.48688765  1
  Ti  Ti128  1  0.78814466  0.00601501  0.76808092  1
  Ti  Ti129  1  0.58672402  0.18150457  0.23994086  1
  Ti  Ti130  1  0.30745157  0.88888624  0.62460333  1
  Ti  Ti131  1  -0.01066464  0.19464442  0.24454257  1
  Ti  Ti132  1  0.50199711  0.70101770  0.12844585  1
  Ti  Ti133  1  0.39039706  0.40418941  -0.00091171  1
  Ti  Ti134  1  0.40868775  0.40196712  0.49741354  1
  Ti  Ti135  1  0.90195895  0.90141599  0.64743776  1
  Ti  Ti136  1  -0.02262016  0.79960728  0.00035528  1
  Ti  Ti137  1  0.69316473  0.49004364  0.61406698  1
  Ti  Ti138  1  0.70162709  0.69889725  0.38291964  1
  Ti  Ti139  1  0.59381591  0.79669864  0.74621445  1
  Ti  Ti140  1  0.89160815  0.70264130  0.86671892  1
  Ti  Ti141  1  0.88195946  0.28820384  0.63808177  1
  Ti  Ti142  1  0.20258037  0.62898099  0.49690887  1
  Ti  Ti143  1  0.90321896  0.09403299  0.12200698  1
  Ti  Ti144  1  0.67294700  0.28374986  0.61675591  1
  Ti  Ti145  1  0.38560730  0.79529490  0.25675259  1
  Ti  Ti146  1  0.78787145  0.38185613  0.74582068  1
  Ti  Ti147  1  0.11581262  0.11169499  0.87287079  1
  Ti  Ti148  1  0.89674598  0.28969126  0.11310111  1
  Ti  Ti149  1  0.49669147  0.29436394  0.37836230  1
  Ti  Ti150  1  0.88018194  0.09192615  0.36138497  1
  Ti  Ti151  1  0.30319118  0.90715360  0.89854836  1
  Ti  Ti152  1  0.18818793  0.41922151  0.26332868  1
  Ti  Ti153  1  0.79267608  0.79529737  0.73972830  1
  Ti  Ti154  1  0.79510877  0.40442586  0.00502102  1
  Ti  Ti155  1  -0.01092403  0.40396875  0.75477995  1
  Ti  Ti156  1  0.09498682  0.10555419  0.12363509  1
  Ti  Ti157  1  0.29681401  0.08907696  0.62711762  1
  Ti  Ti158  1  0.60995216  0.79421811  0.00210202  1
  Ti  Ti159  1  0.60568495  -0.01064734  -0.01551150  1
  Mo  Mo160  1  0.59054733  0.39196019  0.50194981  1
  Mo  Mo161  1  0.29677821  0.70548717  0.63153750  1
  Mo  Mo162  1  0.70185499  0.08872901  0.89164227  1
  Mo  Mo163  1  0.90462589  0.71162086  0.12936199  1
  Mo  Mo164  1  0.11282176  0.49854536  0.12795562  1
  Mo  Mo165  1  0.90119068  0.09444869  0.86629102  1
  Mo  Mo166  1  0.09703250  0.30408102  0.87645098  1
  Mo  Mo167  1  0.80198964  -0.00309034  0.24257426  1
  Mo  Mo168  1  0.68765299  0.08749721  0.36519889  1
  Mo  Mo169  1  0.30453588  0.71373005  0.36980779  1
  Mo  Mo170  1  0.61036129  0.00373534  0.24770582  1
  Mo  Mo171  1  0.09633474  0.52478249  0.38394670  1
  Mo  Mo172  1  0.70306817  0.49361260  0.12540299  1
  Mo  Mo173  1  0.50793261  0.71183587  0.62039113  1
  Mo  Mo174  1  0.49324211  0.69083931  0.36897307  1
  Mo  Mo175  1  0.50503288  0.11337529  0.36808479  1
  Mo  Mo176  1  0.20887375  0.81330227  0.23465294  1
  Mo  Mo177  1  0.28469634  0.89913167  0.36563986  1
  Mo  Mo178  1  0.20199779  0.80596570  0.00239355  1
  Mo  Mo179  1  0.79464162  0.80096241  -0.00148954  1
  Mo  Mo180  1  -0.01147107  0.39424917  0.50029201  1
  Mo  Mo181  1  0.69592961  0.09282696  0.63379449  1
  Mo  Mo182  1  0.00327252  0.01640021  0.23926367  1
  Mo  Mo183  1  0.19734217  0.20324718  0.00827079  1
  Mo  Mo184  1  0.11505543  0.90945818  0.36984598  1
  Mo  Mo185  1  0.01740527  0.60612487  0.49487439  1
  Mo  Mo186  1  0.29059677  0.10031182  0.13316061  1
  Mo  Mo187  1  0.41538510  0.80266183  0.00462673  1
  Mo  Mo188  1  0.58734604  0.18802009  0.49895344  1
  Mo  Mo189  1  0.41173792  0.61507581  0.24550529  1
  Mo  Mo190  1  0.20787137  0.80785229  0.50798549  1
  Mo  Mo191  1  0.49507440  0.29596955  0.62774469  1
  Mo  Mo192  1  0.42102449  0.81174714  0.74975644  1
  Mo  Mo193  1  0.79593383  0.19967297  0.76801405  1
  Mo  Mo194  1  0.20290646  0.00466580  0.75788200  1
  Mo  Mo195  1  0.50716532  0.10323292  0.12283827  1
  Mo  Mo196  1  0.49725355  0.09840979  0.87644002  1
  Mo  Mo197  1  0.19830373  0.40585948  -0.00200847  1
  Mo  Mo198  1  0.50433336  0.49012350  0.38702061  1
  Mo  Mo199  1  0.49519551  0.29735664  0.11081529  1
