# generated using pymatgen
data_HfZrTaTiMo
_symmetry_space_group_name_H-M   'P 1'
_cell_length_a   15.20926849
_cell_length_b   15.21056777
_cell_length_c   16.83290908
_cell_angle_alpha   89.99315620
_cell_angle_beta   89.95247235
_cell_angle_gamma   89.97304546
_symmetry_Int_Tables_number   1
_chemical_formula_structural   HfZrTaTiMo
_chemical_formula_sum   'Hf40 Zr40 Ta40 Ti40 Mo40'
_cell_volume   3894.15047386
_cell_formula_units_Z   40
loop_
 _symmetry_equiv_pos_site_id
 _symmetry_equiv_pos_as_xyz
  1  'x, y, z'
loop_
 _atom_site_type_symbol
 _atom_site_label
 _atom_site_symmetry_multiplicity
 _atom_site_fract_x
 _atom_site_fract_y
 _atom_site_fract_z
 _atom_site_occupancy
  Hf  Hf0  1  0.09909939  0.10183583  0.36546531  1
  Hf  Hf1  1  0.69838088  0.09137960  0.38011458  1
  Hf  Hf2  1  0.60004923  0.59173768  0.72524277  1
  Hf  Hf3  1  0.90418387  0.89583854  0.12307055  1
  Hf  Hf4  1  0.43013252  0.39976129  0.75456298  1
  Hf  Hf5  1  0.19995327  0.79727206  0.00222819  1
  Hf  Hf6  1  0.51501920  0.52381200  0.12280774  1
  Hf  Hf7  1  0.30116708  0.29510029  0.36398412  1
  Hf  Hf8  1  0.79859028  0.59164324  0.26071698  1
  Hf  Hf9  1  0.20138148  0.19645957  -0.00227590  1
  Hf  Hf10  1  0.19850948  0.80272448  0.23927036  1
  Hf  Hf11  1  0.60180721  0.21834570  0.74336464  1
  Hf  Hf12  1  0.20021382  0.40527267  0.24054056  1
  Hf  Hf13  1  0.20818200  0.59626878  0.00333363  1
  Hf  Hf14  1  0.90110250  0.51242304  0.86897927  1
  Hf  Hf15  1  0.20061554  0.60585815  0.24029734  1
  Hf  Hf16  1  0.50822371  0.30921852  0.61237635  1
  Hf  Hf17  1  0.00999576  0.38627084  0.75426228  1
  Hf  Hf18  1  0.40505970  0.40741737  -0.00551826  1
  Hf  Hf19  1  0.89675999  0.11150194  0.61116393  1
  Hf  Hf20  1  0.48450346  0.09822659  0.63776797  1
  Hf  Hf21  1  0.78773821  0.19450373  0.00318779  1
  Hf  Hf22  1  0.09512593  0.30228631  0.35861219  1
  Hf  Hf23  1  0.59347969  0.79272008  0.51395691  1
  Hf  Hf24  1  -0.00306570  0.61211155  0.51548594  1
  Hf  Hf25  1  0.58711359  -0.01282128  0.51427590  1
  Hf  Hf26  1  0.53193484  0.50527882  0.87868416  1
  Hf  Hf27  1  0.70148068  0.67216159  0.87263950  1
  Hf  Hf28  1  0.01640819  0.61326192  0.73697176  1
  Hf  Hf29  1  0.09631257  0.69700599  0.37351412  1
  Hf  Hf30  1  0.39928193  0.19658294  0.23957888  1
  Hf  Hf31  1  0.69260645  0.87933990  0.87025320  1
  Hf  Hf32  1  0.80104091  0.41010455  -0.01167645  1
  Hf  Hf33  1  0.19141536  0.39225421  0.50331080  1
  Hf  Hf34  1  0.09184622  0.29363421  0.12347591  1
  Hf  Hf35  1  0.08619708  0.89502554  0.88129820  1
  Hf  Hf36  1  0.21330860  0.39585279  0.75331170  1
  Hf  Hf37  1  0.49692048  0.12102918  0.86804227  1
  Hf  Hf38  1  0.39851295  0.61233431  0.75686380  1
  Hf  Hf39  1  0.68497304  0.69360436  0.12909068  1
  Zr  Zr40  1  0.41830184  0.40580841  0.25924215  1
  Zr  Zr41  1  0.90960827  0.50654778  0.38141143  1
  Zr  Zr42  1  0.31584352  0.49862972  0.62917500  1
  Zr  Zr43  1  0.30285993  0.91001068  0.64989386  1
  Zr  Zr44  1  0.69507099  0.10467149  0.61349030  1
  Zr  Zr45  1  0.69513182  0.09160796  0.87191003  1
  Zr  Zr46  1  0.90274260  0.28509181  0.87662807  1
  Zr  Zr47  1  0.80218582  -0.01434501  0.49781242  1
  Zr  Zr48  1  0.89258089  0.30673426  0.12641782  1
  Zr  Zr49  1  0.89614435  0.09867100  0.14174291  1
  Zr  Zr50  1  0.62879090  0.40107778  0.27847579  1
  Zr  Zr51  1  0.20403379  0.20044209  0.50421129  1
  Zr  Zr52  1  0.79041118  0.39192290  0.74571158  1
  Zr  Zr53  1  0.51054389  0.30789064  0.12299259  1
  Zr  Zr54  1  0.29855324  0.09001500  0.36581937  1
  Zr  Zr55  1  0.90066690  0.71011401  0.86988506  1
  Zr  Zr56  1  0.10654425  0.49950199  0.62877319  1
  Zr  Zr57  1  0.30758134  0.90135421  0.12048778  1
  Zr  Zr58  1  0.79734737  -0.00540188  0.74089520  1
  Zr  Zr59  1  0.59427204  0.19964499  0.26068667  1
  Zr  Zr60  1  -0.00440929  0.79720631  0.25228039  1
  Zr  Zr61  1  0.31220535  0.29322946  0.87591601  1
  Zr  Zr62  1  0.49334876  0.09222587  0.38185912  1
  Zr  Zr63  1  0.50622814  0.89644561  0.11675082  1
  Zr  Zr64  1  0.89075108  0.90439050  0.88389199  1
  Zr  Zr65  1  0.90312937  0.10078101  0.36671406  1
  Zr  Zr66  1  0.18612843  0.00568616  0.00068663  1
  Zr  Zr67  1  0.20327896  0.60199284  0.49671175  1
  Zr  Zr68  1  0.71001309  0.49187510  0.12813170  1
  Zr  Zr69  1  0.80613787  0.60021328  0.72087560  1
  Zr  Zr70  1  0.29244195  0.70745456  0.62847520  1
  Zr  Zr71  1  0.09335564  0.10728982  0.62460691  1
  Zr  Zr72  1  0.79498939  0.78658712  0.00929365  1
  Zr  Zr73  1  0.20385983  -0.00503498  0.50170834  1
  Zr  Zr74  1  0.19283288  0.77632612  0.76485337  1
  Zr  Zr75  1  0.09634485  0.89491054  0.63273659  1
  Zr  Zr76  1  0.31323706  0.50430372  0.12532130  1
  Zr  Zr77  1  -0.00667515  0.02273925  0.76125756  1
  Zr  Zr78  1  0.50579916  0.91425471  0.87417753  1
  Zr  Zr79  1  0.39549533  0.40191875  0.49128578  1
  Ta  Ta80  1  0.19639752  0.80401004  0.49443039  1
  Ta  Ta81  1  0.69325150  0.48287763  0.60462008  1
  Ta  Ta82  1  0.29863156  0.51215671  0.37006625  1
  Ta  Ta83  1  0.00226111  0.17575156  -0.00189755  1
  Ta  Ta84  1  0.60464818  0.39483729  0.47912457  1
  Ta  Ta85  1  0.30108627  0.90077429  0.86932081  1
  Ta  Ta86  1  0.81273344  0.39537770  0.49316755  1
  Ta  Ta87  1  0.17465218  0.20534760  0.76244130  1
  Ta  Ta88  1  0.59688295  0.60544524  0.26708173  1
  Ta  Ta89  1  0.40772629  0.19940431  0.00805262  1
  Ta  Ta90  1  0.30372910  0.70962190  0.37402325  1
  Ta  Ta91  1  0.29423431  0.11048334  0.65028879  1
  Ta  Ta92  1  -0.00047524  0.22221919  0.49515002  1
  Ta  Ta93  1  0.51087998  0.71206653  0.86613241  1
  Ta  Ta94  1  0.69685699  0.69959244  0.38354991  1
  Ta  Ta95  1  0.68185799  0.30317024  0.87796154  1
  Ta  Ta96  1  0.40532563  0.61515770  0.49891198  1
  Ta  Ta97  1  0.40021089  0.79829315  -0.01507175  1
  Ta  Ta98  1  0.19960685  0.39831694  -0.00145636  1
  Ta  Ta99  1  0.71277529  0.29272864  0.60181545  1
  Ta  Ta100  1  0.79080558  0.21119264  0.25719761  1
  Ta  Ta101  1  -0.00722241  0.59822425  0.00511793  1
  Ta  Ta102  1  0.09500404  0.68787515  0.88818683  1
  Ta  Ta103  1  -0.00646637  0.40886058  0.24349677  1
  Ta  Ta104  1  0.59422775  0.79860785  0.25513335  1
  Ta  Ta105  1  0.19692698  -0.00322437  0.23434298  1
  Ta  Ta106  1  0.39821449  0.00921545  -0.00858164  1
  Ta  Ta107  1  0.50157828  0.51284582  0.38473305  1
  Ta  Ta108  1  0.69893079  0.90840387  0.13749730  1
  Ta  Ta109  1  0.51081402  0.09305523  0.11647698  1
  Ta  Ta110  1  -0.00596543  0.81115417  0.49441712  1
  Ta  Ta111  1  0.39339739  0.81186946  0.49976379  1
  Ta  Ta112  1  0.30125856  0.29953828  0.12119346  1
  Ta  Ta113  1  0.79066553  -0.00040191  0.00652147  1
  Ta  Ta114  1  0.79575607  0.60361059  0.51050930  1
  Ta  Ta115  1  0.00362874  0.59707103  0.24034120  1
  Ta  Ta116  1  0.39728411  0.19758529  0.50729850  1
  Ta  Ta117  1  0.59800117  -0.01110671  0.73650860  1
  Ta  Ta118  1  0.79760146  0.79429827  0.50935479  1
  Ta  Ta119  1  0.90143880  0.30356514  0.36465697  1
  Ti  Ti120  1  0.60759593  0.39788604  0.00081886  1
  Ti  Ti121  1  0.59481243  0.79166737  0.00371719  1
  Ti  Ti122  1  0.10278525  0.90263792  0.37143208  1
  Ti  Ti123  1  0.80794637  0.19435756  0.75184596  1
  Ti  Ti124  1  0.19043688  0.00390746  0.76553703  1
  Ti  Ti125  1  0.79182071  0.79789925  0.25130671  1
  Ti  Ti126  1  0.69431917  0.89468771  0.36712926  1
  Ti  Ti127  1  0.90270365  0.50161559  0.12212331  1
  Ti  Ti128  1  0.40400796  0.79948668  0.25164646  1
  Ti  Ti129  1  0.32218837  0.70131738  0.12171192  1
  Ti  Ti130  1  -0.01346047  0.80369347  0.74238776  1
  Ti  Ti131  1  0.48885089  0.88207714  0.64647043  1
  Ti  Ti132  1  0.69917343  0.29408052  0.12590422  1
  Ti  Ti133  1  0.08706861  0.70489872  0.11537583  1
  Ti  Ti134  1  0.00706438  0.39485973  -0.00773217  1
  Ti  Ti135  1  0.00417206  0.00096092  0.49343102  1
  Ti  Ti136  1  0.41852695  0.61459121  -0.00929547  1
  Ti  Ti137  1  0.90373226  0.48748664  0.61694534  1
  Ti  Ti138  1  0.40721868  0.61208289  0.25653819  1
  Ti  Ti139  1  0.89250306  0.90014314  0.36647964  1
  Ti  Ti140  1  0.49663974  0.70878110  0.37998510  1
  Ti  Ti141  1  0.30190433  0.89988209  0.36767388  1
  Ti  Ti142  1  0.09511281  0.49893098  0.11648455  1
  Ti  Ti143  1  0.69438235  0.09337400  0.13849299  1
  Ti  Ti144  1  0.00804542  -0.00449866  0.24464314  1
  Ti  Ti145  1  0.89418357  0.69009629  0.12602381  1
  Ti  Ti146  1  0.30495615  0.09798777  0.12242774  1
  Ti  Ti147  1  0.40958331  -0.00470580  0.24412273  1
  Ti  Ti148  1  0.59601115  0.59851685  0.50663730  1
  Ti  Ti149  1  0.30091110  0.09897216  0.86219127  1
  Ti  Ti150  1  0.19331840  0.19078113  0.23218699  1
  Ti  Ti151  1  0.39076947  -0.00163721  0.50889162  1
  Ti  Ti152  1  0.30360722  0.50900931  0.87536821  1
  Ti  Ti153  1  0.89966988  0.90185947  0.62118606  1
  Ti  Ti154  1  0.49709261  0.89967553  0.37315531  1
  Ti  Ti155  1  0.78320505  0.79448049  0.72330338  1
  Ti  Ti156  1  0.91104611  0.29941195  0.62204035  1
  Ti  Ti157  1  0.89266441  0.70591152  0.37762230  1
  Ti  Ti158  1  0.10020252  0.49807487  0.37467126  1
  Ti  Ti159  1  0.10434402  0.49646666  0.87686349  1
  Mo  Mo160  1  0.80715514  0.20271589  0.48945891  1
  Mo  Mo161  1  0.49391343  0.70393444  0.12780114  1
  Mo  Mo162  1  0.69409610  0.89499997  0.62717800  1
  Mo  Mo163  1  0.00303260  0.79336347  0.00849510  1
  Mo  Mo164  1  -0.00078240  0.20263560  0.24722700  1
  Mo  Mo165  1  0.79417070  -0.00938480  0.25530397  1
  Mo  Mo166  1  0.50539103  0.50318006  0.60543951  1
  Mo  Mo167  1  0.30472218  0.69738702  0.88646640  1
  Mo  Mo168  1  0.20051512  0.59069562  0.77064416  1
  Mo  Mo169  1  0.60768941  0.60542489  -0.00138029  1
  Mo  Mo170  1  0.30229985  0.28994680  0.63436872  1
  Mo  Mo171  1  0.48627354  0.69797281  0.62257790  1
  Mo  Mo172  1  0.39505561  0.00534115  0.76264999  1
  Mo  Mo173  1  0.09316852  0.10563796  0.87508452  1
  Mo  Mo174  1  0.69459453  0.69486571  0.61233061  1
  Mo  Mo175  1  0.09322053  0.89932048  0.11946418  1
  Mo  Mo176  1  0.59668200  0.79065141  0.73739446  1
  Mo  Mo177  1  0.70793334  0.49303152  0.87092910  1
  Mo  Mo178  1  0.70482403  0.50992499  0.39626991  1
  Mo  Mo179  1  0.49852436  0.29332350  0.39029683  1
  Mo  Mo180  1  0.38927850  0.21279209  0.74635173  1
  Mo  Mo181  1  0.60030594  0.19823675  0.00707665  1
  Mo  Mo182  1  0.50805886  0.30261151  0.88490520  1
  Mo  Mo183  1  0.40251826  0.80139341  0.76861414  1
  Mo  Mo184  1  0.90420043  0.71307813  0.61951454  1
  Mo  Mo185  1  -0.01083904  -0.00021975  0.00190006  1
  Mo  Mo186  1  0.09606025  0.09425075  0.13292267  1
  Mo  Mo187  1  0.09722398  0.71632340  0.61708662  1
  Mo  Mo188  1  0.10060896  0.30313157  0.89053236  1
  Mo  Mo189  1  0.71065670  0.29080290  0.39401356  1
  Mo  Mo190  1  0.09773795  0.29673240  0.62710105  1
  Mo  Mo191  1  0.80423405  0.59480119  0.00480203  1
  Mo  Mo192  1  0.60984155  0.00595716  0.00402054  1
  Mo  Mo193  1  0.59257729  0.19938360  0.49549367  1
  Mo  Mo194  1  0.59839168  -0.01037211  0.25395667  1
  Mo  Mo195  1  -0.00980150  0.20689464  0.75171382  1
  Mo  Mo196  1  0.80559375  0.39974984  0.26121533  1
  Mo  Mo197  1  0.00273842  0.40087772  0.50056763  1
  Mo  Mo198  1  0.89102286  0.09735005  0.88465655  1
  Mo  Mo199  1  0.61357390  0.40025140  0.74010119  1
