# generated using pymatgen
data_HfZrTaTiMo
_symmetry_space_group_name_H-M   'P 1'
_cell_length_a   15.20792210
_cell_length_b   15.21894169
_cell_length_c   16.84531181
_cell_angle_alpha   90.04819744
_cell_angle_beta   89.98531115
_cell_angle_gamma   90.05740245
_symmetry_Int_Tables_number   1
_chemical_formula_structural   HfZrTaTiMo
_chemical_formula_sum   'Hf40 Zr40 Ta40 Ti40 Mo40'
_cell_volume   3898.81834296
_cell_formula_units_Z   40
loop_
 _symmetry_equiv_pos_site_id
 _symmetry_equiv_pos_as_xyz
  1  'x, y, z'
loop_
 _atom_site_type_symbol
 _atom_site_label
 _atom_site_symmetry_multiplicity
 _atom_site_fract_x
 _atom_site_fract_y
 _atom_site_fract_z
 _atom_site_occupancy
  Hf  Hf0  1  0.31501146  0.90465210  0.63225369  1
  Hf  Hf1  1  0.48497851  0.10002218  0.86739700  1
  Hf  Hf2  1  0.70527180  0.69703641  0.36975609  1
  Hf  Hf3  1  0.60388440  0.18828150  0.25443160  1
  Hf  Hf4  1  0.79258112  0.19189529  -0.01183908  1
  Hf  Hf5  1  0.00348441  0.60871478  0.49283694  1
  Hf  Hf6  1  0.59732519  0.39864501  -0.00220710  1
  Hf  Hf7  1  0.50573478  0.72212937  0.14243415  1
  Hf  Hf8  1  0.00251749  0.39159727  0.73342229  1
  Hf  Hf9  1  0.80385112  0.78998046  -0.01120980  1
  Hf  Hf10  1  0.88752716  0.08396066  0.61908226  1
  Hf  Hf11  1  0.49510083  0.70363528  0.36524417  1
  Hf  Hf12  1  0.60910028  0.59362122  0.50825238  1
  Hf  Hf13  1  0.29976657  0.91589637  0.86609483  1
  Hf  Hf14  1  0.87728780  0.08991579  0.37550555  1
  Hf  Hf15  1  0.81411918  0.59175364  0.25018486  1
  Hf  Hf16  1  0.90695884  0.49377413  0.38039458  1
  Hf  Hf17  1  0.49778074  0.30361009  0.37300352  1
  Hf  Hf18  1  0.82339139  0.80717593  0.48065347  1
  Hf  Hf19  1  0.10553651  0.09827452  0.12642781  1
  Hf  Hf20  1  0.38064380  0.00820917  0.26171292  1
  Hf  Hf21  1  0.90492247  0.49128597  0.87968184  1
  Hf  Hf22  1  0.10780156  0.51225807  0.62516290  1
  Hf  Hf23  1  0.28033071  0.12248767  0.86906734  1
  Hf  Hf24  1  0.29509407  0.28625027  0.12652005  1
  Hf  Hf25  1  0.10864349  0.49225028  0.86833158  1
  Hf  Hf26  1  0.71169781  0.71542209  0.14049726  1
  Hf  Hf27  1  0.61432602  0.60770849  0.74439558  1
  Hf  Hf28  1  0.01015177  0.60834469  0.75791804  1
  Hf  Hf29  1  0.59635598  0.20261421  0.50091858  1
  Hf  Hf30  1  0.08646044  0.09998415  0.38683415  1
  Hf  Hf31  1  0.08629670  0.10271750  0.60003205  1
  Hf  Hf32  1  0.39123312  0.19897874  0.51150579  1
  Hf  Hf33  1  0.08713961  0.09098968  0.88133872  1
  Hf  Hf34  1  0.19641160  0.40282147  0.25780551  1
  Hf  Hf35  1  0.09287828  0.30755721  0.11979966  1
  Hf  Hf36  1  0.29518773  0.91749426  0.12827934  1
  Hf  Hf37  1  0.59929317  0.80254283  0.49008798  1
  Hf  Hf38  1  0.29231478  0.50222808  0.12157495  1
  Hf  Hf39  1  0.19807271  -0.02341653  0.50476510  1
  Zr  Zr40  1  0.00274346  0.40584356  0.25162595  1
  Zr  Zr41  1  0.40529966  0.39837186  0.00088327  1
  Zr  Zr42  1  0.69888108  0.89349415  0.63216331  1
  Zr  Zr43  1  0.88952526  0.89645889  0.12745235  1
  Zr  Zr44  1  0.51046942  0.69995580  0.86813959  1
  Zr  Zr45  1  0.89979545  0.88907917  0.63872393  1
  Zr  Zr46  1  0.40304298  0.81719968  0.00295409  1
  Zr  Zr47  1  0.20230833  0.18808051  0.26180738  1
  Zr  Zr48  1  0.59170685  -0.01846464  0.25451553  1
  Zr  Zr49  1  0.39074143  0.19962344  -0.00374145  1
  Zr  Zr50  1  0.38313953  0.20705891  0.73452692  1
  Zr  Zr51  1  0.40453060  0.60573753  0.49715691  1
  Zr  Zr52  1  0.19022257  0.01375923  0.73520724  1
  Zr  Zr53  1  0.48735268  0.50488872  0.64371283  1
  Zr  Zr54  1  0.11914824  0.29216759  0.87287277  1
  Zr  Zr55  1  0.40806463  0.60496370  0.00234308  1
  Zr  Zr56  1  0.29486305  0.71013923  0.12761666  1
  Zr  Zr57  1  0.31010532  0.49633521  0.86927740  1
  Zr  Zr58  1  0.09738420  0.30281966  0.39237359  1
  Zr  Zr59  1  0.00130965  0.18779011  0.74496429  1
  Zr  Zr60  1  0.59957181  0.59150868  0.24694351  1
  Zr  Zr61  1  0.58666808  -0.00340493  0.00074726  1
  Zr  Zr62  1  0.49628050  0.89600995  0.86658989  1
  Zr  Zr63  1  0.59526343  0.40030007  0.50701434  1
  Zr  Zr64  1  0.79841884  0.20207371  0.76018989  1
  Zr  Zr65  1  0.80540106  0.38339425  0.24650756  1
  Zr  Zr66  1  0.01285481  0.79462690  -0.00523449  1
  Zr  Zr67  1  0.79152439  0.40442441  0.50677084  1
  Zr  Zr68  1  0.59443759  -0.00196237  0.75286645  1
  Zr  Zr69  1  0.69884387  0.28782717  0.12460242  1
  Zr  Zr70  1  0.78864446  -0.00732941  -0.00992558  1
  Zr  Zr71  1  0.69287607  0.10101050  0.63147489  1
  Zr  Zr72  1  0.81129295  0.59661544  0.75695058  1
  Zr  Zr73  1  0.40093002  0.40282018  0.25200999  1
  Zr  Zr74  1  0.72159132  0.69960675  0.61726337  1
  Zr  Zr75  1  0.60136734  -0.00011421  0.49237689  1
  Zr  Zr76  1  0.80236941  0.40105118  0.00168719  1
  Zr  Zr77  1  0.11103157  0.71511476  0.36921412  1
  Zr  Zr78  1  0.20532608  0.60010719  0.26057024  1
  Zr  Zr79  1  0.61224288  0.60411796  0.00572087  1
  Ta  Ta80  1  0.70017103  0.30361960  0.63508732  1
  Ta  Ta81  1  -0.00669342  -0.00086715  0.24801903  1
  Ta  Ta82  1  0.47960296  0.07743380  0.62536318  1
  Ta  Ta83  1  0.20291474  0.00682807  0.00128254  1
  Ta  Ta84  1  -0.01506724  0.20076020  0.25043923  1
  Ta  Ta85  1  0.70851849  0.49966665  0.12552883  1
  Ta  Ta86  1  0.00589751  0.79586833  0.76481224  1
  Ta  Ta87  1  0.19897607  0.79640092  0.75256583  1
  Ta  Ta88  1  0.78798403  0.19370700  0.49992143  1
  Ta  Ta89  1  0.69720270  0.49021416  0.36968702  1
  Ta  Ta90  1  0.30508101  0.69770497  0.62887982  1
  Ta  Ta91  1  0.80722339  0.81040532  0.26595553  1
  Ta  Ta92  1  0.10525533  0.90472550  0.36067419  1
  Ta  Ta93  1  0.19580278  0.61046779  -0.00654177  1
  Ta  Ta94  1  0.80027464  -0.00187722  0.76957120  1
  Ta  Ta95  1  0.00110444  0.40304377  0.51243445  1
  Ta  Ta96  1  0.91299034  0.69354395  0.12998483  1
  Ta  Ta97  1  0.89406286  0.10383625  0.12594947  1
  Ta  Ta98  1  0.50352942  0.71929030  0.63068761  1
  Ta  Ta99  1  0.91146325  0.29827121  0.88001314  1
  Ta  Ta100  1  0.91089384  0.90270589  0.87130258  1
  Ta  Ta101  1  0.91851369  0.70093479  0.62524961  1
  Ta  Ta102  1  0.50602767  0.49747046  0.85759634  1
  Ta  Ta103  1  0.59503558  0.19741859  -0.00929266  1
  Ta  Ta104  1  0.69412462  0.30322349  0.86982277  1
  Ta  Ta105  1  0.00694276  0.59579746  -0.00416493  1
  Ta  Ta106  1  0.20563377  0.40572748  0.50851433  1
  Ta  Ta107  1  -0.01840988  -0.01916398  0.49040271  1
  Ta  Ta108  1  0.20861938  0.60831859  0.49369430  1
  Ta  Ta109  1  -0.00117724  -0.00333979  0.00887490  1
  Ta  Ta110  1  0.89995850  0.28807767  0.61281414  1
  Ta  Ta111  1  0.60966054  0.80617234  0.00687530  1
  Ta  Ta112  1  0.48851194  0.10130705  0.38068744  1
  Ta  Ta113  1  0.48450489  0.09420703  0.12401953  1
  Ta  Ta114  1  0.21296286  0.60699106  0.75112506  1
  Ta  Ta115  1  0.19511267  0.40303930  0.00198854  1
  Ta  Ta116  1  0.90001088  0.28843707  0.38845344  1
  Ta  Ta117  1  0.69612755  0.08786241  0.12496957  1
  Ta  Ta118  1  0.39583087  0.40430028  0.50493279  1
  Ta  Ta119  1  0.00857319  0.60030575  0.25441852  1
  Ti  Ti120  1  0.29810552  0.29440764  0.38658492  1
  Ti  Ti121  1  0.60281667  0.39746527  0.24522849  1
  Ti  Ti122  1  0.69927693  0.50353307  0.87631784  1
  Ti  Ti123  1  0.39102487  0.81034706  0.25725014  1
  Ti  Ti124  1  0.70714586  0.29089026  0.36909474  1
  Ti  Ti125  1  0.78755640  0.00341853  0.24780490  1
  Ti  Ti126  1  0.80122630  0.39929439  0.74588304  1
  Ti  Ti127  1  0.90098756  0.29509734  0.11616499  1
  Ti  Ti128  1  0.50388556  0.49837260  0.12938169  1
  Ti  Ti129  1  0.10954479  0.71016802  0.62263264  1
  Ti  Ti130  1  0.80354719  0.78566262  0.76900575  1
  Ti  Ti131  1  0.50202181  0.49917129  0.37353700  1
  Ti  Ti132  1  0.80803167  0.60074168  0.49287750  1
  Ti  Ti133  1  0.10019722  0.89378511  0.13917156  1
  Ti  Ti134  1  0.10345161  0.90283394  0.87169268  1
  Ti  Ti135  1  0.69512991  0.88733343  0.86643633  1
  Ti  Ti136  1  0.89988677  0.09525899  0.87821333  1
  Ti  Ti137  1  0.39775525  0.19880394  0.25414152  1
  Ti  Ti138  1  0.10227395  0.69809299  0.13218801  1
  Ti  Ti139  1  0.80814604  0.60217828  0.00044379  1
  Ti  Ti140  1  0.60612667  0.39858342  0.74909434  1
  Ti  Ti141  1  0.91956491  0.49666904  0.11551560  1
  Ti  Ti142  1  0.28987901  0.08771169  0.39526677  1
  Ti  Ti143  1  0.00070067  0.19926909  0.00122251  1
  Ti  Ti144  1  0.50165675  0.29242433  0.12893344  1
  Ti  Ti145  1  0.48395934  0.90113765  0.37923617  1
  Ti  Ti146  1  0.19306306  0.21540693  0.71350775  1
  Ti  Ti147  1  0.49873401  0.30012874  0.63260438  1
  Ti  Ti148  1  0.30336612  0.70792380  0.87253897  1
  Ti  Ti149  1  0.20008446  0.80673793  -0.00579933  1
  Ti  Ti150  1  0.40471734  0.79916632  0.74782402  1
  Ti  Ti151  1  0.59462509  0.20310804  0.75426652  1
  Ti  Ti152  1  0.30058564  0.49970355  0.38017161  1
  Ti  Ti153  1  0.01832369  0.80407847  0.49654774  1
  Ti  Ti154  1  0.21970579  0.39787768  0.72997986  1
  Ti  Ti155  1  0.48698259  0.30717601  0.86234753  1
  Ti  Ti156  1  0.39669424  0.59896405  0.25304605  1
  Ti  Ti157  1  0.89322808  0.50580559  0.62273077  1
  Ti  Ti158  1  0.38703002  0.80726984  0.49743619  1
  Ti  Ti159  1  0.08998982  0.89488260  0.63248192  1
  Mo  Mo160  1  0.69153552  0.10486522  0.37191427  1
  Mo  Mo161  1  0.10925863  0.50073033  0.39201206  1
  Mo  Mo162  1  -0.00467373  -0.00651133  0.75330014  1
  Mo  Mo163  1  0.29429445  0.31295722  0.86889690  1
  Mo  Mo164  1  0.19092774  0.00144811  0.25800001  1
  Mo  Mo165  1  0.70573291  0.49409339  0.63184516  1
  Mo  Mo166  1  0.40491773  0.40043446  0.74675201  1
  Mo  Mo167  1  0.80343777  0.19031077  0.24494754  1
  Mo  Mo168  1  0.09723957  0.30388278  0.60878829  1
  Mo  Mo169  1  0.20061431  0.80916541  0.24374866  1
  Mo  Mo170  1  0.39263788  0.00513507  0.74491770  1
  Mo  Mo171  1  0.69221084  0.89438673  0.12870029  1
  Mo  Mo172  1  0.19220322  0.20148485  0.00336105  1
  Mo  Mo173  1  -0.01648470  0.19664341  0.49890005  1
  Mo  Mo174  1  0.29079129  0.88502190  0.37505430  1
  Mo  Mo175  1  0.49833476  0.89194386  0.62378804  1
  Mo  Mo176  1  0.11627036  0.70208251  0.87595996  1
  Mo  Mo177  1  0.40056658  -0.00524667  0.48913702  1
  Mo  Mo178  1  0.61239461  0.79828484  0.74713141  1
  Mo  Mo179  1  0.30149632  0.31374562  0.61379589  1
  Mo  Mo180  1  0.09807983  0.51446108  0.11520686  1
  Mo  Mo181  1  0.19863552  0.20045250  0.50584370  1
  Mo  Mo182  1  0.39090333  0.00725749  0.00263013  1
  Mo  Mo183  1  0.00282115  0.39465803  -0.00088203  1
  Mo  Mo184  1  0.70678222  0.69824672  0.88028365  1
  Mo  Mo185  1  0.29856707  0.51064378  0.62547077  1
  Mo  Mo186  1  0.90948261  0.69990988  0.36274743  1
  Mo  Mo187  1  0.39711063  0.61192055  0.75177846  1
  Mo  Mo188  1  0.91508429  0.89953883  0.36125222  1
  Mo  Mo189  1  0.29864286  0.10322602  0.12564079  1
  Mo  Mo190  1  0.60119901  0.80696065  0.26808110  1
  Mo  Mo191  1  0.29049825  0.10103154  0.60831635  1
  Mo  Mo192  1  0.69033854  0.10428051  0.87132160  1
  Mo  Mo193  1  0.30671551  0.71016868  0.37325984  1
  Mo  Mo194  1  0.79416156  -0.00767168  0.49395673  1
  Mo  Mo195  1  0.71311508  0.91148138  0.37721194  1
  Mo  Mo196  1  0.49529441  0.90265561  0.13182301  1
  Mo  Mo197  1  0.20126541  0.79249567  0.51001269  1
  Mo  Mo198  1  0.00005628  0.79583063  0.24158997  1
  Mo  Mo199  1  0.90872258  0.69747531  0.88063659  1
