# generated using pymatgen
data_HfZrTaTiMo
_symmetry_space_group_name_H-M   'P 1'
_cell_length_a   15.22459641
_cell_length_b   15.21687487
_cell_length_c   16.84544266
_cell_angle_alpha   90.05062173
_cell_angle_beta   90.03603029
_cell_angle_gamma   90.01311182
_symmetry_Int_Tables_number   1
_chemical_formula_structural   HfZrTaTiMo
_chemical_formula_sum   'Hf40 Zr40 Ta40 Ti40 Mo40'
_cell_volume   3902.59441827
_cell_formula_units_Z   40
loop_
 _symmetry_equiv_pos_site_id
 _symmetry_equiv_pos_as_xyz
  1  'x, y, z'
loop_
 _atom_site_type_symbol
 _atom_site_label
 _atom_site_symmetry_multiplicity
 _atom_site_fract_x
 _atom_site_fract_y
 _atom_site_fract_z
 _atom_site_occupancy
  Hf  Hf0  1  0.29682496  0.30625318  0.88781808  1
  Hf  Hf1  1  0.69193373  0.09940417  0.36233521  1
  Hf  Hf2  1  0.00369550  0.18948347  -0.00906452  1
  Hf  Hf3  1  0.69685911  0.09497279  0.62006332  1
  Hf  Hf4  1  0.91498687  0.88602304  0.13798226  1
  Hf  Hf5  1  0.89185014  0.50796673  0.63181810  1
  Hf  Hf6  1  0.92202275  0.30236937  0.11317965  1
  Hf  Hf7  1  0.19585226  0.19981763  -0.00537276  1
  Hf  Hf8  1  0.18612740  -0.00838875  0.00799501  1
  Hf  Hf9  1  0.28437776  0.09757592  0.60523888  1
  Hf  Hf10  1  0.00587899  0.60354836  0.50098827  1
  Hf  Hf11  1  0.88543531  0.08692198  0.87584073  1
  Hf  Hf12  1  0.53125096  0.69814956  0.64388717  1
  Hf  Hf13  1  0.69592391  0.30895745  0.62711193  1
  Hf  Hf14  1  0.31161138  0.49959112  0.61952984  1
  Hf  Hf15  1  0.71407058  0.29469888  0.89095859  1
  Hf  Hf16  1  0.01647899  0.00345384  0.24993295  1
  Hf  Hf17  1  0.39634517  0.19656377  0.24625251  1
  Hf  Hf18  1  0.80249517  0.20377985  0.49942463  1
  Hf  Hf19  1  0.50579325  0.29050883  0.89198297  1
  Hf  Hf20  1  0.70237808  0.68626763  0.35702507  1
  Hf  Hf21  1  0.60901033  0.82234578  0.00139301  1
  Hf  Hf22  1  0.81516212  0.40906819  0.23251244  1
  Hf  Hf23  1  0.18762419  0.20240447  0.74842439  1
  Hf  Hf24  1  0.01141752  0.38933071  0.75294028  1
  Hf  Hf25  1  0.88794262  0.09941660  0.13070287  1
  Hf  Hf26  1  0.19446192  0.40401570  0.49279583  1
  Hf  Hf27  1  0.29965627  0.09301082  0.87189058  1
  Hf  Hf28  1  0.41181527  0.40247290  0.49343466  1
  Hf  Hf29  1  0.78360323  -0.00165979  0.00799794  1
  Hf  Hf30  1  0.80589548  0.39891040  0.75755479  1
  Hf  Hf31  1  0.10620565  0.50149935  0.62763571  1
  Hf  Hf32  1  0.20999352  0.59986451  0.75103967  1
  Hf  Hf33  1  0.70327018  0.89785120  0.35423298  1
  Hf  Hf34  1  0.60302638  0.78034668  0.48759462  1
  Hf  Hf35  1  0.00270846  0.61914544  0.75015948  1
  Hf  Hf36  1  0.40810469  0.79928366  0.48833237  1
  Hf  Hf37  1  0.30482165  0.50606327  0.36628101  1
  Hf  Hf38  1  0.89762119  0.08383938  0.61489187  1
  Hf  Hf39  1  0.70001282  0.88585828  0.63662566  1
  Zr  Zr40  1  0.39155656  0.79676824  0.75188237  1
  Zr  Zr41  1  0.82418520  0.80569236  0.75271983  1
  Zr  Zr42  1  0.67748066  0.11389217  0.14741748  1
  Zr  Zr43  1  0.60282848  0.61384746  0.00949488  1
  Zr  Zr44  1  0.20075528  0.79942059  0.50660990  1
  Zr  Zr45  1  0.60903382  0.39550059  0.23578185  1
  Zr  Zr46  1  0.71012724  0.30483157  0.36806965  1
  Zr  Zr47  1  0.51648817  0.50108473  0.63080648  1
  Zr  Zr48  1  0.71813268  0.29754739  0.10385067  1
  Zr  Zr49  1  0.70131055  0.90887147  0.14877016  1
  Zr  Zr50  1  0.61146030  0.41518172  0.76976132  1
  Zr  Zr51  1  0.80141090  0.80785483  0.49603086  1
  Zr  Zr52  1  0.60053387  -0.01614305  0.49206384  1
  Zr  Zr53  1  0.39952966  0.80252428  0.00691343  1
  Zr  Zr54  1  0.49218603  0.89950002  0.62825183  1
  Zr  Zr55  1  0.30124154  0.28714658  0.38530762  1
  Zr  Zr56  1  0.89559987  0.50508932  0.37233124  1
  Zr  Zr57  1  0.28490676  0.89503818  0.86743687  1
  Zr  Zr58  1  0.00560205  0.80598963  0.49718175  1
  Zr  Zr59  1  0.59507065  0.59554105  0.23211374  1
  Zr  Zr60  1  -0.00033506  0.38686089  0.50293575  1
  Zr  Zr61  1  0.50962145  0.28481164  0.11439139  1
  Zr  Zr62  1  0.31312931  0.69409083  0.62218947  1
  Zr  Zr63  1  0.50140027  0.91486568  0.86789183  1
  Zr  Zr64  1  0.27282253  0.09062593  0.39432724  1
  Zr  Zr65  1  0.79678114  0.41281218  0.50602315  1
  Zr  Zr66  1  0.47300781  0.09154424  0.39021683  1
  Zr  Zr67  1  0.30504781  0.50321527  0.89292267  1
  Zr  Zr68  1  0.08224408  0.88770989  0.87136158  1
  Zr  Zr69  1  0.20683021  0.38847643  0.25040156  1
  Zr  Zr70  1  0.40555428  0.39881381  0.75379807  1
  Zr  Zr71  1  0.39756348  0.19970757  0.74637602  1
  Zr  Zr72  1  0.70900106  0.70657055  0.87614313  1
  Zr  Zr73  1  0.38934895  -0.00504697  0.01522173  1
  Zr  Zr74  1  0.41567152  0.80238467  0.25547856  1
  Zr  Zr75  1  0.89731147  0.10207755  0.37339085  1
  Zr  Zr76  1  0.49005921  0.10539455  0.60768637  1
  Zr  Zr77  1  0.90629620  0.51151857  0.88062910  1
  Zr  Zr78  1  0.67925893  0.10065694  0.87702765  1
  Zr  Zr79  1  0.29334828  0.69911267  0.36093317  1
  Ta  Ta80  1  0.37611422  -0.00540192  0.24006484  1
  Ta  Ta81  1  0.29257954  0.69830782  0.88339829  1
  Ta  Ta82  1  0.49903836  0.70270587  0.87270774  1
  Ta  Ta83  1  0.81648496  0.78766144  0.25116772  1
  Ta  Ta84  1  0.79953999  0.19536391  0.74676750  1
  Ta  Ta85  1  -0.00970856  -0.01536483  0.00644590  1
  Ta  Ta86  1  0.39415317  0.60899182  0.01198812  1
  Ta  Ta87  1  -0.02140862  -0.01418229  0.74872583  1
  Ta  Ta88  1  0.60981589  0.59007832  0.49579257  1
  Ta  Ta89  1  0.59442138  0.21060661  0.49221638  1
  Ta  Ta90  1  0.50428923  0.30053440  0.36940304  1
  Ta  Ta91  1  0.56557414  -0.00780793  0.25476595  1
  Ta  Ta92  1  0.11202034  0.49578905  0.87650912  1
  Ta  Ta93  1  0.11154571  0.91167816  0.37546524  1
  Ta  Ta94  1  0.29380051  0.29848617  0.61278334  1
  Ta  Ta95  1  0.90795036  0.90210521  0.36126801  1
  Ta  Ta96  1  0.18621236  0.59604107  0.23295877  1
  Ta  Ta97  1  0.90880554  0.29336914  0.88103823  1
  Ta  Ta98  1  0.92478325  0.51025603  0.11066015  1
  Ta  Ta99  1  0.70920910  0.71251071  0.12993719  1
  Ta  Ta100  1  0.01345440  0.40854985  0.24785467  1
  Ta  Ta101  1  -0.00515168  0.18845363  0.75482145  1
  Ta  Ta102  1  0.59376965  0.00794178  0.74519507  1
  Ta  Ta103  1  0.50435137  0.50572281  0.89625504  1
  Ta  Ta104  1  0.29806924  0.49341470  0.11814219  1
  Ta  Ta105  1  0.29276149  0.70068071  0.13405507  1
  Ta  Ta106  1  0.18727278  0.59738784  0.01749015  1
  Ta  Ta107  1  0.80707473  0.60886301  0.01059492  1
  Ta  Ta108  1  0.20612167  0.39498988  0.74834808  1
  Ta  Ta109  1  0.59690055  0.20535576  0.74797697  1
  Ta  Ta110  1  0.08019781  0.70487741  0.12720942  1
  Ta  Ta111  1  0.18069278  0.79252796  0.73556738  1
  Ta  Ta112  1  0.28671824  0.10603793  0.12652653  1
  Ta  Ta113  1  0.57855911  0.01796053  0.01460298  1
  Ta  Ta114  1  0.49446488  0.49345514  0.10828866  1
  Ta  Ta115  1  0.10553107  0.69403952  0.88607624  1
  Ta  Ta116  1  0.09261175  0.10218916  0.12506873  1
  Ta  Ta117  1  0.60290630  0.40352432  0.49372822  1
  Ta  Ta118  1  0.90398359  0.69833848  0.37216827  1
  Ta  Ta119  1  0.40871344  0.40278243  0.24311724  1
  Ti  Ti120  1  0.19526239  0.79639271  0.01484417  1
  Ti  Ti121  1  0.07831032  0.90578851  0.62524481  1
  Ti  Ti122  1  0.41203776  0.59538038  0.76267224  1
  Ti  Ti123  1  0.78365091  0.59708704  0.75259098  1
  Ti  Ti124  1  0.08784621  0.10384063  0.39448983  1
  Ti  Ti125  1  0.02638134  0.40114807  -0.00730401  1
  Ti  Ti126  1  0.61264463  0.40943786  -0.00104755  1
  Ti  Ti127  1  0.30953649  0.30282188  0.11024456  1
  Ti  Ti128  1  0.80405713  0.59581942  0.22611640  1
  Ti  Ti129  1  0.80352769  0.20891728  0.24988872  1
  Ti  Ti130  1  0.79458608  0.61043355  0.50758359  1
  Ti  Ti131  1  0.39956589  0.59488381  0.23553397  1
  Ti  Ti132  1  0.08615711  0.10298829  0.61272633  1
  Ti  Ti133  1  0.40872024  0.18246896  0.00268184  1
  Ti  Ti134  1  0.81548916  0.40986651  -0.00188870  1
  Ti  Ti135  1  0.19606789  0.81897754  0.24026417  1
  Ti  Ti136  1  0.10073801  0.70486710  0.36064234  1
  Ti  Ti137  1  0.09247836  0.08831056  0.86829252  1
  Ti  Ti138  1  0.90907289  0.28866155  0.63004604  1
  Ti  Ti139  1  0.70195548  0.49849689  0.36755756  1
  Ti  Ti140  1  0.30244153  0.90704386  0.37885629  1
  Ti  Ti141  1  0.20173745  0.60471056  0.49695106  1
  Ti  Ti142  1  0.00439697  0.21137650  0.24757500  1
  Ti  Ti143  1  0.11531572  0.30115103  0.12465704  1
  Ti  Ti144  1  0.28925768  0.90442499  0.62239260  1
  Ti  Ti145  1  0.18955301  0.18438510  0.25031694  1
  Ti  Ti146  1  0.70870636  0.90949903  0.86116498  1
  Ti  Ti147  1  0.18206038  -0.00222247  0.73972104  1
  Ti  Ti148  1  0.50751637  0.50421274  0.36571548  1
  Ti  Ti149  1  -0.00723761  0.60617187  0.24756630  1
  Ti  Ti150  1  0.91810659  0.71813831  0.88710390  1
  Ti  Ti151  1  0.39009224  0.00477274  0.74241550  1
  Ti  Ti152  1  0.09942889  0.50879598  0.36964360  1
  Ti  Ti153  1  0.50317784  0.71285900  0.12656860  1
  Ti  Ti154  1  0.09730039  0.29051646  0.37411428  1
  Ti  Ti155  1  0.90430471  0.71291555  0.62338130  1
  Ti  Ti156  1  0.49862568  0.30123644  0.61946083  1
  Ti  Ti157  1  0.81599439  0.80715629  0.00433213  1
  Ti  Ti158  1  0.91007109  0.30263510  0.36920000  1
  Ti  Ti159  1  0.41940283  0.60538177  0.48950044  1
  Mo  Mo160  1  0.00614421  0.60097921  -0.00468859  1
  Mo  Mo161  1  0.48531278  0.09847570  0.13619096  1
  Mo  Mo162  1  0.79241925  0.00547694  0.75040620  1
  Mo  Mo163  1  0.70798242  0.50504469  0.89712289  1
  Mo  Mo164  1  0.39644562  0.20785958  0.50403420  1
  Mo  Mo165  1  0.69798127  0.51446473  0.62845350  1
  Mo  Mo166  1  0.89178971  0.89802801  0.88565665  1
  Mo  Mo167  1  0.60282906  0.60193508  0.77402124  1
  Mo  Mo168  1  0.00647627  0.79674646  0.00409263  1
  Mo  Mo169  1  0.00452809  0.79990733  0.74444773  1
  Mo  Mo170  1  0.71234514  0.50443344  0.10534321  1
  Mo  Mo171  1  0.71409420  0.68526979  0.63275128  1
  Mo  Mo172  1  0.40514466  0.39980395  0.00618191  1
  Mo  Mo173  1  -0.00366935  0.20452078  0.50007253  1
  Mo  Mo174  1  0.89945379  0.69911492  0.12451480  1
  Mo  Mo175  1  0.89631649  0.90624110  0.61911146  1
  Mo  Mo176  1  0.10081124  0.29136275  0.62835193  1
  Mo  Mo177  1  0.01157927  0.79459889  0.26313845  1
  Mo  Mo178  1  0.09859508  0.29988822  0.87250034  1
  Mo  Mo179  1  0.17762136  0.20945445  0.50862574  1
  Mo  Mo180  1  0.80859171  0.19906028  0.00018877  1
  Mo  Mo181  1  0.59892776  0.19324322  -0.00008974  1
  Mo  Mo182  1  0.60174181  0.79310984  0.25266145  1
  Mo  Mo183  1  0.79990899  -0.00952807  0.49052555  1
  Mo  Mo184  1  -0.00587555  -0.00436977  0.49097622  1
  Mo  Mo185  1  0.58854047  0.19612222  0.26966530  1
  Mo  Mo186  1  0.38310277  -0.01469042  0.50388882  1
  Mo  Mo187  1  0.50164945  0.68152238  0.37057267  1
  Mo  Mo188  1  0.49037695  0.09842294  0.86790670  1
  Mo  Mo189  1  0.17706187  -0.01009287  0.51052404  1
  Mo  Mo190  1  0.10047812  0.69776803  0.62258324  1
  Mo  Mo191  1  0.80502134  -0.00085457  0.24900047  1
  Mo  Mo192  1  0.09886733  0.49429793  0.12696362  1
  Mo  Mo193  1  0.19924022  0.00859939  0.24820440  1
  Mo  Mo194  1  0.60719109  0.80186441  0.76265199  1
  Mo  Mo195  1  0.10454392  0.89921931  0.12683931  1
  Mo  Mo196  1  0.29086500  0.89345836  0.13115844  1
  Mo  Mo197  1  0.50138575  0.90174046  0.12945615  1
  Mo  Mo198  1  0.49461396  0.89588237  0.37551758  1
  Mo  Mo199  1  0.19905494  0.39867909  0.00799764  1
