# generated using pymatgen
data_HfZrTaTiMo
_symmetry_space_group_name_H-M   'P 1'
_cell_length_a   15.19579635
_cell_length_b   15.20631457
_cell_length_c   16.84240174
_cell_angle_alpha   89.97465647
_cell_angle_beta   89.98576291
_cell_angle_gamma   89.89297687
_symmetry_Int_Tables_number   1
_chemical_formula_structural   HfZrTaTiMo
_chemical_formula_sum   'Hf40 Zr40 Ta40 Ti40 Mo40'
_cell_volume   3891.80116497
_cell_formula_units_Z   40
loop_
 _symmetry_equiv_pos_site_id
 _symmetry_equiv_pos_as_xyz
  1  'x, y, z'
loop_
 _atom_site_type_symbol
 _atom_site_label
 _atom_site_symmetry_multiplicity
 _atom_site_fract_x
 _atom_site_fract_y
 _atom_site_fract_z
 _atom_site_occupancy
  Hf  Hf0  1  0.59322358  0.41372772  0.50113801  1
  Hf  Hf1  1  0.60066258  0.81145270  0.01904567  1
  Hf  Hf2  1  0.69156257  0.29522738  0.61848955  1
  Hf  Hf3  1  0.57784243  0.41341772  0.73330036  1
  Hf  Hf4  1  0.79784943  0.78751167  -0.01469560  1
  Hf  Hf5  1  0.69725476  0.51801265  0.86838612  1
  Hf  Hf6  1  -0.00424287  0.40485064  0.00178804  1
  Hf  Hf7  1  0.39910253  0.59012037  0.22997831  1
  Hf  Hf8  1  0.12936451  0.50404923  0.11251643  1
  Hf  Hf9  1  0.60514728  0.60783709  0.50599134  1
  Hf  Hf10  1  0.18795255  0.79018283  0.23504419  1
  Hf  Hf11  1  -0.00503666  0.40235805  0.50428071  1
  Hf  Hf12  1  -0.00461002  0.00559619  0.76042939  1
  Hf  Hf13  1  0.88195884  0.30888564  0.13672494  1
  Hf  Hf14  1  0.49509581  0.10067096  0.62379317  1
  Hf  Hf15  1  0.30050163  0.29814324  0.12154120  1
  Hf  Hf16  1  0.29452958  0.90050626  0.36057220  1
  Hf  Hf17  1  0.00100292  -0.00330425  0.23904789  1
  Hf  Hf18  1  0.79030665  0.40478730  -0.00539397  1
  Hf  Hf19  1  0.10412721  0.49365432  0.62970291  1
  Hf  Hf20  1  0.19568263  -0.00188361  0.74896061  1
  Hf  Hf21  1  0.40903225  0.60154751  0.75314309  1
  Hf  Hf22  1  0.69512612  0.10667842  0.88112483  1
  Hf  Hf23  1  0.51002756  0.70768221  0.87825483  1
  Hf  Hf24  1  0.29353175  0.11193212  0.61151324  1
  Hf  Hf25  1  0.80247068  0.18814846  0.75633591  1
  Hf  Hf26  1  0.70590663  0.09100547  0.61855253  1
  Hf  Hf27  1  -0.01003933  0.18430137  0.48156337  1
  Hf  Hf28  1  0.50334998  0.90330572  0.61958002  1
  Hf  Hf29  1  0.10935575  0.28441711  0.61528825  1
  Hf  Hf30  1  0.10324040  0.50795872  0.38235341  1
  Hf  Hf31  1  0.19697213  0.18746438  0.25335742  1
  Hf  Hf32  1  0.31254989  0.48578743  0.62783725  1
  Hf  Hf33  1  0.88637121  0.89591737  0.11340491  1
  Hf  Hf34  1  0.58205669  0.00797252  -0.00058113  1
  Hf  Hf35  1  0.00977563  0.80350934  0.76050225  1
  Hf  Hf36  1  0.59076806  0.20503167  0.74790581  1
  Hf  Hf37  1  0.48602850  0.30864832  0.87386401  1
  Hf  Hf38  1  0.10600364  0.10420085  0.89266196  1
  Hf  Hf39  1  -0.00418244  0.79742680  0.22918766  1
  Zr  Zr40  1  -0.00983022  0.19615556  0.26066352  1
  Zr  Zr41  1  0.78821339  0.40404490  0.73756454  1
  Zr  Zr42  1  0.20267681  0.40600234  0.25566554  1
  Zr  Zr43  1  0.81192920  0.60680398  0.25516607  1
  Zr  Zr44  1  0.81384559  0.60288863  0.50332237  1
  Zr  Zr45  1  0.67938076  0.10805793  0.12858843  1
  Zr  Zr46  1  0.70751924  0.90061592  0.62593142  1
  Zr  Zr47  1  0.59543829  0.59788566  0.25014325  1
  Zr  Zr48  1  0.69864468  0.91502481  0.37274006  1
  Zr  Zr49  1  0.89166087  0.10281214  0.12114543  1
  Zr  Zr50  1  0.00451674  0.80125572  0.51135073  1
  Zr  Zr51  1  0.31159373  0.47489631  0.88129357  1
  Zr  Zr52  1  0.19204463  -0.00718023  0.50215994  1
  Zr  Zr53  1  0.90777092  0.49170726  0.36670733  1
  Zr  Zr54  1  0.30850020  0.51133096  0.37478393  1
  Zr  Zr55  1  0.37632108  0.20377765  0.75654306  1
  Zr  Zr56  1  0.09377067  0.29905932  0.12775751  1
  Zr  Zr57  1  0.40334039  0.79214310  0.23423100  1
  Zr  Zr58  1  0.10191426  0.69652510  0.63070753  1
  Zr  Zr59  1  0.41379980  0.39268243  0.24858797  1
  Zr  Zr60  1  0.40778720  0.80416742  0.01824054  1
  Zr  Zr61  1  0.02834053  0.60349670  0.23558952  1
  Zr  Zr62  1  0.39653457  -0.01259821  0.75556117  1
  Zr  Zr63  1  0.91640340  0.70705822  0.37657936  1
  Zr  Zr64  1  0.90182963  0.28782755  0.62304276  1
  Zr  Zr65  1  0.21885759  0.79819692  0.76072429  1
  Zr  Zr66  1  0.20590786  0.59976562  0.76333003  1
  Zr  Zr67  1  0.58582646  0.20252905  0.50060987  1
  Zr  Zr68  1  0.21200657  0.79946887  0.50683086  1
  Zr  Zr69  1  0.60197607  0.81123275  0.23520565  1
  Zr  Zr70  1  0.72069977  0.70739898  0.13119812  1
  Zr  Zr71  1  0.40138644  0.39555152  0.48372462  1
  Zr  Zr72  1  0.89922156  0.50574047  0.85721724  1
  Zr  Zr73  1  0.61429312  0.38661698  0.26526759  1
  Zr  Zr74  1  0.71506180  0.49416788  0.13020310  1
  Zr  Zr75  1  0.59838107  0.80261041  0.75253963  1
  Zr  Zr76  1  0.89835899  0.29453992  0.87385980  1
  Zr  Zr77  1  0.09714868  0.49840614  0.87377424  1
  Zr  Zr78  1  0.80016598  0.81145834  0.49799880  1
  Zr  Zr79  1  0.41135543  0.59400720  0.00741713  1
  Ta  Ta80  1  0.39730215  0.18500823  0.00223160  1
  Ta  Ta81  1  0.50113496  0.09179312  0.37052427  1
  Ta  Ta82  1  0.60051197  0.00437382  0.76069003  1
  Ta  Ta83  1  0.00544059  0.19598131  0.75504923  1
  Ta  Ta84  1  0.30298990  0.09249329  0.12929489  1
  Ta  Ta85  1  0.40468393  0.79980422  0.49100819  1
  Ta  Ta86  1  0.69738841  0.70541638  0.37199230  1
  Ta  Ta87  1  0.00196787  0.79622290  0.00089291  1
  Ta  Ta88  1  0.78605821  -0.00374867  -0.00180703  1
  Ta  Ta89  1  0.20248895  0.39153744  0.49187649  1
  Ta  Ta90  1  0.90737731  0.90848660  0.63285361  1
  Ta  Ta91  1  0.11405586  0.69772100  0.38175926  1
  Ta  Ta92  1  0.70647828  0.11745968  0.37978213  1
  Ta  Ta93  1  0.20965848  0.37593757  0.75294603  1
  Ta  Ta94  1  0.18913093  0.19136570  0.75325634  1
  Ta  Ta95  1  0.20844983  0.59826586  0.50905819  1
  Ta  Ta96  1  0.40111864  -0.00299800  0.49268969  1
  Ta  Ta97  1  0.20550180  0.80115156  -0.00229608  1
  Ta  Ta98  1  0.28544816  0.68314217  0.11831026  1
  Ta  Ta99  1  0.29349927  0.90259598  0.12802706  1
  Ta  Ta100  1  0.49466408  0.90262844  0.36535208  1
  Ta  Ta101  1  0.10420148  0.29905863  0.88636743  1
  Ta  Ta102  1  0.79066003  0.20510404  -0.00140345  1
  Ta  Ta103  1  0.79427513  0.40328288  0.50914020  1
  Ta  Ta104  1  0.40651561  0.60568945  0.50452724  1
  Ta  Ta105  1  0.08554195  0.09115168  0.62100355  1
  Ta  Ta106  1  0.09150208  0.88862535  0.36906919  1
  Ta  Ta107  1  -0.00187479  0.19775461  0.00888516  1
  Ta  Ta108  1  0.00961268  0.38903120  0.74592535  1
  Ta  Ta109  1  0.46483062  0.30512645  0.62244693  1
  Ta  Ta110  1  0.49199901  0.70916510  0.62487548  1
  Ta  Ta111  1  0.90581816  0.51291121  0.63751101  1
  Ta  Ta112  1  0.87495283  0.29474079  0.37631582  1
  Ta  Ta113  1  0.69185706  0.89756884  0.87614051  1
  Ta  Ta114  1  0.61022308  0.60453434  0.73300043  1
  Ta  Ta115  1  0.68666140  0.31102803  0.87462813  1
  Ta  Ta116  1  0.20554009  0.60685877  -0.02086575  1
  Ta  Ta117  1  0.48647257  0.09975429  0.87386082  1
  Ta  Ta118  1  0.10191286  0.90378753  0.89333036  1
  Ta  Ta119  1  0.61604494  0.60538087  0.00618373  1
  Ti  Ti120  1  0.79969754  -0.00759202  0.76314816  1
  Ti  Ti121  1  0.19855183  0.19852640  0.48057932  1
  Ti  Ti122  1  0.51722758  0.48013592  0.11534269  1
  Ti  Ti123  1  0.50085033  0.28803787  0.37492151  1
  Ti  Ti124  1  0.60195621  -0.00231458  0.49354233  1
  Ti  Ti125  1  0.00300612  0.60908452  0.00428145  1
  Ti  Ti126  1  0.70550427  0.49952146  0.37634942  1
  Ti  Ti127  1  0.90150284  0.90403647  0.88606568  1
  Ti  Ti128  1  0.09877999  0.08007350  0.37290575  1
  Ti  Ti129  1  0.68180034  0.30417571  0.11929343  1
  Ti  Ti130  1  0.58791375  0.21588026  -0.00340278  1
  Ti  Ti131  1  0.31096635  0.89504334  0.88164881  1
  Ti  Ti132  1  0.19923329  0.00365591  0.01105248  1
  Ti  Ti133  1  0.77519108  0.21290567  0.25493920  1
  Ti  Ti134  1  0.08868504  0.30682901  0.37071901  1
  Ti  Ti135  1  0.39183856  -0.00208975  -0.00244052  1
  Ti  Ti136  1  0.30198824  0.69925969  0.36919452  1
  Ti  Ti137  1  0.30176673  0.28931992  0.36810321  1
  Ti  Ti138  1  0.41049855  0.38640102  0.01221546  1
  Ti  Ti139  1  0.78991271  0.00797156  0.24629719  1
  Ti  Ti140  1  0.80156676  0.79940051  0.76254142  1
  Ti  Ti141  1  0.81625168  0.59954100  0.00120218  1
  Ti  Ti142  1  0.41109550  0.19034429  0.24515186  1
  Ti  Ti143  1  0.91322604  0.49996977  0.13643065  1
  Ti  Ti144  1  0.90126092  0.09526693  0.89353267  1
  Ti  Ti145  1  0.30987105  0.88776824  0.62668860  1
  Ti  Ti146  1  0.28624744  0.27548076  0.89586186  1
  Ti  Ti147  1  0.90035224  0.91456443  0.37016802  1
  Ti  Ti148  1  0.59439068  0.80157730  0.49198995  1
  Ti  Ti149  1  0.51039308  0.49909044  0.88152101  1
  Ti  Ti150  1  0.90684505  0.69259781  0.86542406  1
  Ti  Ti151  1  0.90153751  0.70359357  0.64007422  1
  Ti  Ti152  1  0.89649447  0.09354090  0.62221591  1
  Ti  Ti153  1  0.80262814  0.81216865  0.25375344  1
  Ti  Ti154  1  -0.00780757  -0.00821653  0.49684399  1
  Ti  Ti155  1  0.49358164  0.94259734  0.14585341  1
  Ti  Ti156  1  0.30638617  0.09668644  0.37312711  1
  Ti  Ti157  1  0.18957995  -0.00574138  0.23693657  1
  Ti  Ti158  1  0.70827885  0.70389423  0.62532081  1
  Ti  Ti159  1  0.49810946  0.69512237  0.37358837  1
  Mo  Mo160  1  0.20739906  0.39478945  -0.00429078  1
  Mo  Mo161  1  0.50115841  0.90731273  0.87904167  1
  Mo  Mo162  1  0.88865881  0.08946376  0.36771576  1
  Mo  Mo163  1  0.81435108  0.01235456  0.49414329  1
  Mo  Mo164  1  0.79898833  0.19847291  0.49982328  1
  Mo  Mo165  1  0.09436967  0.90883848  0.63201243  1
  Mo  Mo166  1  0.70264605  0.91558339  0.12937435  1
  Mo  Mo167  1  0.50827112  0.28814272  0.12234336  1
  Mo  Mo168  1  0.09680131  0.70694764  0.88678299  1
  Mo  Mo169  1  0.90505286  0.69073010  0.11472262  1
  Mo  Mo170  1  0.01133179  0.59969587  0.50736443  1
  Mo  Mo171  1  0.70496902  0.70017645  0.87691014  1
  Mo  Mo172  1  0.38862262  0.19389604  0.48515771  1
  Mo  Mo173  1  0.30724912  0.49140525  0.10784753  1
  Mo  Mo174  1  0.29451197  0.08844401  0.88636431  1
  Mo  Mo175  1  0.59621874  0.40677025  -0.00456740  1
  Mo  Mo176  1  0.79896630  0.61876939  0.74079260  1
  Mo  Mo177  1  0.39200905  0.39761206  0.75134216  1
  Mo  Mo178  1  0.50737733  0.68346274  0.11673920  1
  Mo  Mo179  1  0.10038114  0.90599867  0.10394601  1
  Mo  Mo180  1  -0.00108384  0.60172086  0.75192797  1
  Mo  Mo181  1  0.10458489  0.70159484  0.10192491  1
  Mo  Mo182  1  0.59525526  0.01701089  0.25728763  1
  Mo  Mo183  1  0.50861698  0.51536182  0.37562305  1
  Mo  Mo184  1  0.40017685  0.79546667  0.75382186  1
  Mo  Mo185  1  -0.00576069  -0.00235414  0.00009042  1
  Mo  Mo186  1  0.28687609  0.29574091  0.61420776  1
  Mo  Mo187  1  -0.00159347  0.39872935  0.25411057  1
  Mo  Mo188  1  0.30721772  0.70248110  0.88552272  1
  Mo  Mo189  1  0.10403723  0.09753683  0.11615962  1
  Mo  Mo190  1  0.48791732  0.11344663  0.12475334  1
  Mo  Mo191  1  0.69885328  0.30506774  0.39178652  1
  Mo  Mo192  1  0.49815057  0.50981697  0.62299469  1
  Mo  Mo193  1  0.31365047  0.69752297  0.62096306  1
  Mo  Mo194  1  0.20115888  0.19345955  0.01400518  1
  Mo  Mo195  1  0.21026173  0.60661895  0.24808087  1
  Mo  Mo196  1  0.38743196  0.00530491  0.25515930  1
  Mo  Mo197  1  0.59387486  0.20119139  0.26050078  1
  Mo  Mo198  1  0.70535061  0.50815566  0.62399299  1
  Mo  Mo199  1  0.80421596  0.39708596  0.25564655  1
