# generated using pymatgen
data_HfZrTaTiMo
_symmetry_space_group_name_H-M   'P 1'
_cell_length_a   15.20518561
_cell_length_b   15.22138600
_cell_length_c   16.85418970
_cell_angle_alpha   89.97406217
_cell_angle_beta   90.02076043
_cell_angle_gamma   90.00609608
_symmetry_Int_Tables_number   1
_chemical_formula_structural   HfZrTaTiMo
_chemical_formula_sum   'Hf40 Zr40 Ta40 Ti40 Mo40'
_cell_volume   3900.80039425
_cell_formula_units_Z   40
loop_
 _symmetry_equiv_pos_site_id
 _symmetry_equiv_pos_as_xyz
  1  'x, y, z'
loop_
 _atom_site_type_symbol
 _atom_site_label
 _atom_site_symmetry_multiplicity
 _atom_site_fract_x
 _atom_site_fract_y
 _atom_site_fract_z
 _atom_site_occupancy
  Hf  Hf0  1  0.40963811  0.80841830  0.00277646  1
  Hf  Hf1  1  0.29897140  0.92084424  0.12231607  1
  Hf  Hf2  1  0.30555662  0.30281377  0.38598155  1
  Hf  Hf3  1  0.60261852  0.38963389  0.75867644  1
  Hf  Hf4  1  0.10193720  0.69970695  0.37360810  1
  Hf  Hf5  1  0.60855471  0.41300661  0.24723851  1
  Hf  Hf6  1  0.78851715  -0.00424090  0.24777836  1
  Hf  Hf7  1  0.09499815  0.10130272  0.89344921  1
  Hf  Hf8  1  0.69903598  0.68623839  0.37267193  1
  Hf  Hf9  1  0.39263875  0.20021677  0.24261395  1
  Hf  Hf10  1  0.48601569  0.11589800  0.87113570  1
  Hf  Hf11  1  0.49953699  0.71495767  0.86631010  1
  Hf  Hf12  1  0.70502080  0.50736636  0.11115391  1
  Hf  Hf13  1  0.79431307  0.39640172  0.48145707  1
  Hf  Hf14  1  0.58021127  0.19513136  0.01207590  1
  Hf  Hf15  1  -0.00279810  0.59423482  0.25249739  1
  Hf  Hf16  1  0.68913996  0.09577179  0.88545766  1
  Hf  Hf17  1  0.40023260  0.61047410  0.51156958  1
  Hf  Hf18  1  0.08938979  0.30515262  0.62388059  1
  Hf  Hf19  1  0.19879011  0.19995206  0.50955308  1
  Hf  Hf20  1  -0.00559248  0.78257452  0.01026358  1
  Hf  Hf21  1  0.90558503  0.48465357  0.11869569  1
  Hf  Hf22  1  0.09425670  0.90025061  0.37984320  1
  Hf  Hf23  1  0.08107210  0.09820635  0.62649851  1
  Hf  Hf24  1  -0.01414794  0.20076480  0.24545057  1
  Hf  Hf25  1  0.09475211  0.31205314  0.88806476  1
  Hf  Hf26  1  0.19495709  -0.00126113  0.51188034  1
  Hf  Hf27  1  0.19741514  0.20619989  0.24589256  1
  Hf  Hf28  1  0.81607905  0.60167223  0.49973679  1
  Hf  Hf29  1  0.40243653  0.40351678  0.25258201  1
  Hf  Hf30  1  0.89719613  0.88616570  0.88016126  1
  Hf  Hf31  1  0.81050070  0.39286773  0.77151178  1
  Hf  Hf32  1  0.90263858  0.90198283  0.62231773  1
  Hf  Hf33  1  0.60176477  0.80725764  0.73820974  1
  Hf  Hf34  1  0.30091866  0.90329597  0.38525274  1
  Hf  Hf35  1  0.70936649  0.29287289  0.62407461  1
  Hf  Hf36  1  0.58848706  0.00210663  0.74307183  1
  Hf  Hf37  1  0.78565990  -0.02107035  0.00390073  1
  Hf  Hf38  1  0.61378722  0.60476599  -0.01167361  1
  Hf  Hf39  1  0.70623376  0.49139098  0.62760483  1
  Zr  Zr40  1  0.10115618  0.69200384  0.86983612  1
  Zr  Zr41  1  0.38780769  0.81033366  0.74043565  1
  Zr  Zr42  1  0.60154928  0.58966293  0.75338496  1
  Zr  Zr43  1  0.28661602  0.10551011  0.87916656  1
  Zr  Zr44  1  0.91354135  0.49333886  0.63134755  1
  Zr  Zr45  1  0.59292929  0.19332392  0.24024398  1
  Zr  Zr46  1  0.18884283  0.40773587  0.74566463  1
  Zr  Zr47  1  0.92844285  0.49551663  0.88753505  1
  Zr  Zr48  1  0.89833686  0.28763133  0.62465507  1
  Zr  Zr49  1  0.51452305  0.67819728  0.13820063  1
  Zr  Zr50  1  0.19306604  0.60800006  0.00548462  1
  Zr  Zr51  1  0.49373286  0.48985260  0.87800846  1
  Zr  Zr52  1  0.39131561  0.01367740  0.73108892  1
  Zr  Zr53  1  0.88420045  0.10762707  0.11335409  1
  Zr  Zr54  1  0.40465957  0.59830009  -0.00027174  1
  Zr  Zr55  1  0.31257330  0.49664614  0.12802247  1
  Zr  Zr56  1  0.50666447  0.51531986  0.37624837  1
  Zr  Zr57  1  0.09016268  0.30850659  0.11298259  1
  Zr  Zr58  1  0.19442662  0.81694500  0.00617296  1
  Zr  Zr59  1  0.10080471  0.29729846  0.37758576  1
  Zr  Zr60  1  0.49263410  0.10434569  0.38367927  1
  Zr  Zr61  1  0.71792096  0.29263192  0.12227837  1
  Zr  Zr62  1  0.20181700  0.01040156  0.24923424  1
  Zr  Zr63  1  0.79559724  0.00055280  0.76018884  1
  Zr  Zr64  1  0.31759337  0.30786876  0.87598087  1
  Zr  Zr65  1  0.30201819  0.70266735  0.13798474  1
  Zr  Zr66  1  0.62062248  0.80331563  0.24416514  1
  Zr  Zr67  1  0.70342064  0.28470177  0.36161732  1
  Zr  Zr68  1  0.71172831  0.70228379  0.86996630  1
  Zr  Zr69  1  0.40897302  0.81479437  0.24626178  1
  Zr  Zr70  1  -0.00463592  0.39669380  0.48718816  1
  Zr  Zr71  1  0.39964330  0.42643533  0.72697282  1
  Zr  Zr72  1  0.10262956  0.09883826  0.10408531  1
  Zr  Zr73  1  -0.00631047  0.78544873  0.50123240  1
  Zr  Zr74  1  0.30626943  0.70373275  0.36982153  1
  Zr  Zr75  1  0.59901582  0.78638621  0.50333128  1
  Zr  Zr76  1  -0.01160753  0.20606419  0.76521640  1
  Zr  Zr77  1  -0.00330770  -0.00490031  0.76073847  1
  Zr  Zr78  1  0.70594421  0.90463982  0.61380699  1
  Zr  Zr79  1  0.60852561  0.19546518  0.50100907  1
  Ta  Ta80  1  -0.00179960  -0.00575258  0.24172253  1
  Ta  Ta81  1  0.59776856  0.19860291  0.74439352  1
  Ta  Ta82  1  0.71269556  0.69348187  0.63141675  1
  Ta  Ta83  1  0.39330036  0.01305132  0.51729605  1
  Ta  Ta84  1  0.49282965  0.89948939  0.60572139  1
  Ta  Ta85  1  0.00141824  -0.01837004  0.00664956  1
  Ta  Ta86  1  0.89414854  0.89803403  0.36871332  1
  Ta  Ta87  1  0.49722032  0.69370934  0.63404511  1
  Ta  Ta88  1  0.81383287  0.18888223  0.48596216  1
  Ta  Ta89  1  0.49713773  0.30589233  0.38478676  1
  Ta  Ta90  1  0.29972863  0.50473299  0.37817793  1
  Ta  Ta91  1  0.80816835  0.79455220  0.74607080  1
  Ta  Ta92  1  0.19079857  0.81048065  0.24382956  1
  Ta  Ta93  1  0.29375784  0.51348850  0.87189746  1
  Ta  Ta94  1  0.00287295  0.79131383  0.74588772  1
  Ta  Ta95  1  0.89184516  0.88498918  0.13158946  1
  Ta  Ta96  1  0.60744244  0.59227544  0.51123397  1
  Ta  Ta97  1  0.40612750  0.21452904  0.72924551  1
  Ta  Ta98  1  0.67603061  0.07686388  0.11794093  1
  Ta  Ta99  1  0.51366503  0.92140063  0.12385526  1
  Ta  Ta100  1  0.90571676  0.69153877  0.87291275  1
  Ta  Ta101  1  0.69990464  0.89757062  0.38289601  1
  Ta  Ta102  1  0.40651056  0.00935543  -0.00308373  1
  Ta  Ta103  1  0.21732383  0.60711218  0.73497536  1
  Ta  Ta104  1  0.10445828  0.50378511  0.12853396  1
  Ta  Ta105  1  0.59083659  -0.00396877  0.26229855  1
  Ta  Ta106  1  0.10792015  0.50411635  0.37894383  1
  Ta  Ta107  1  0.69507383  0.29411760  0.88900673  1
  Ta  Ta108  1  0.19860379  -0.00611471  0.73907619  1
  Ta  Ta109  1  0.09287160  0.70064787  0.13904930  1
  Ta  Ta110  1  0.30050546  0.70566817  0.87031005  1
  Ta  Ta111  1  0.50895766  0.30808449  0.61512723  1
  Ta  Ta112  1  0.20656201  0.41236072  0.50672631  1
  Ta  Ta113  1  0.29422936  0.10479074  0.38292174  1
  Ta  Ta114  1  0.49668184  0.89998893  0.39294920  1
  Ta  Ta115  1  0.09166394  0.09792468  0.37826525  1
  Ta  Ta116  1  0.60855977  0.80764492  0.01240301  1
  Ta  Ta117  1  0.40341557  0.40980152  0.51121419  1
  Ta  Ta118  1  0.10102939  0.88778933  0.62237893  1
  Ta  Ta119  1  0.81054720  0.59447970  0.75686339  1
  Ti  Ti120  1  0.10677436  0.89941237  0.87205887  1
  Ti  Ti121  1  0.79534163  0.00515586  0.48728148  1
  Ti  Ti122  1  0.89405762  0.10430998  0.90203120  1
  Ti  Ti123  1  -0.01398679  0.00671915  0.49433176  1
  Ti  Ti124  1  0.30325050  0.90585957  0.87692459  1
  Ti  Ti125  1  0.20372514  0.19427466  0.74093815  1
  Ti  Ti126  1  0.79303907  0.19523056  0.76515357  1
  Ti  Ti127  1  0.20653634  0.41117164  -0.00446080  1
  Ti  Ti128  1  0.60020857  0.00428333  0.50021394  1
  Ti  Ti129  1  0.29713783  0.30759524  0.62395228  1
  Ti  Ti130  1  0.00480074  0.39869716  0.25750164  1
  Ti  Ti131  1  0.19791291  0.80291312  0.74360733  1
  Ti  Ti132  1  0.48798859  0.31295301  0.11902414  1
  Ti  Ti133  1  0.29532050  0.30177860  0.10756832  1
  Ti  Ti134  1  0.10181011  0.50776124  0.61363085  1
  Ti  Ti135  1  0.50091708  0.70400078  0.36545183  1
  Ti  Ti136  1  -0.00590927  0.80066495  0.24685407  1
  Ti  Ti137  1  0.90044878  0.50274826  0.37071845  1
  Ti  Ti138  1  0.88776730  0.68503539  0.13239718  1
  Ti  Ti139  1  0.40152056  0.00944335  0.25292099  1
  Ti  Ti140  1  0.89445688  0.09934497  0.36465853  1
  Ti  Ti141  1  0.78791084  0.58935240  0.25175397  1
  Ti  Ti142  1  0.40074805  0.20318540  0.51904117  1
  Ti  Ti143  1  0.20555385  0.59757687  0.25174840  1
  Ti  Ti144  1  0.90832982  0.69188724  0.63333150  1
  Ti  Ti145  1  0.88834205  0.09861388  0.62217415  1
  Ti  Ti146  1  0.10072933  0.69537431  0.62128403  1
  Ti  Ti147  1  0.30043611  0.11329677  0.10173374  1
  Ti  Ti148  1  0.60097418  0.40393361  0.49269036  1
  Ti  Ti149  1  0.89606225  0.70223971  0.36597725  1
  Ti  Ti150  1  0.19921961  0.60838660  0.50411958  1
  Ti  Ti151  1  0.79426437  0.77917421  0.00865788  1
  Ti  Ti152  1  0.20004834  0.40378988  0.25226573  1
  Ti  Ti153  1  0.80159403  0.79840388  0.49908040  1
  Ti  Ti154  1  0.59450851  0.39872183  -0.00322740  1
  Ti  Ti155  1  0.68391956  0.89160627  0.87549822  1
  Ti  Ti156  1  0.01583232  0.58754382  0.74967409  1
  Ti  Ti157  1  0.81647965  0.38662960  0.25743442  1
  Ti  Ti158  1  0.81619834  0.38341498  -0.00979068  1
  Ti  Ti159  1  0.70374940  0.10040418  0.62539062  1
  Mo  Mo160  1  0.49744616  0.90782853  0.87730450  1
  Mo  Mo161  1  0.39960710  0.80440749  0.50505018  1
  Mo  Mo162  1  0.00238111  0.60266117  0.01565012  1
  Mo  Mo163  1  0.29169507  0.90070225  0.61677633  1
  Mo  Mo164  1  0.20301856  0.79617407  0.50822713  1
  Mo  Mo165  1  0.20001813  -0.00413031  -0.00314960  1
  Mo  Mo166  1  0.71257110  0.49197231  0.89468065  1
  Mo  Mo167  1  0.39453953  0.61131699  0.74293234  1
  Mo  Mo168  1  0.81133882  0.79274851  0.25479556  1
  Mo  Mo169  1  0.29202694  0.11170983  0.63119548  1
  Mo  Mo170  1  0.40353248  0.39755883  -0.00013171  1
  Mo  Mo171  1  0.70275091  0.89540453  0.12510935  1
  Mo  Mo172  1  0.90103968  0.29304132  0.36632832  1
  Mo  Mo173  1  0.19965998  0.21025009  0.00053493  1
  Mo  Mo174  1  0.78833303  0.19448880  -0.00414218  1
  Mo  Mo175  1  0.89993648  0.29051583  0.88341087  1
  Mo  Mo176  1  0.50563668  0.10747713  0.61846390  1
  Mo  Mo177  1  0.48491981  0.09588723  0.12700459  1
  Mo  Mo178  1  0.70730204  0.50012688  0.37508882  1
  Mo  Mo179  1  0.00466450  0.40446170  0.74968773  1
  Mo  Mo180  1  0.00759453  0.59418826  0.49091052  1
  Mo  Mo181  1  -0.01685584  0.20894667  -0.00241114  1
  Mo  Mo182  1  0.50556841  0.29473156  0.87187669  1
  Mo  Mo183  1  0.79596378  0.19017679  0.25211038  1
  Mo  Mo184  1  0.50879729  0.50194560  0.61810032  1
  Mo  Mo185  1  0.08794713  0.89868259  0.13191377  1
  Mo  Mo186  1  0.70153535  0.08310903  0.37471429  1
  Mo  Mo187  1  0.58643968  -0.01058859  -0.00879092  1
  Mo  Mo188  1  0.40147698  0.59599292  0.25766751  1
  Mo  Mo189  1  0.39592132  0.21025759  0.00645385  1
  Mo  Mo190  1  0.60534149  0.59506589  0.24909451  1
  Mo  Mo191  1  0.71596380  0.69821362  0.12652846  1
  Mo  Mo192  1  0.28969352  0.71258500  0.61856985  1
  Mo  Mo193  1  -0.00676509  0.18314435  0.49178553  1
  Mo  Mo194  1  0.50864145  0.48903429  0.11812086  1
  Mo  Mo195  1  0.11602150  0.50676052  0.87511618  1
  Mo  Mo196  1  0.89681905  0.30099005  0.12377933  1
  Mo  Mo197  1  0.81376367  0.60102316  -0.00396772  1
  Mo  Mo198  1  0.01207594  0.40804308  0.00511815  1
  Mo  Mo199  1  0.29372872  0.51052164  0.61324523  1
