# generated using pymatgen
data_HfZrTaTiMo
_symmetry_space_group_name_H-M   'P 1'
_cell_length_a   15.21182536
_cell_length_b   15.20283110
_cell_length_c   16.85677445
_cell_angle_alpha   89.96763640
_cell_angle_beta   90.02974737
_cell_angle_gamma   90.02218025
_symmetry_Int_Tables_number   1
_chemical_formula_structural   HfZrTaTiMo
_chemical_formula_sum   'Hf40 Zr40 Ta40 Ti40 Mo40'
_cell_volume   3898.34361666
_cell_formula_units_Z   40
loop_
 _symmetry_equiv_pos_site_id
 _symmetry_equiv_pos_as_xyz
  1  'x, y, z'
loop_
 _atom_site_type_symbol
 _atom_site_label
 _atom_site_symmetry_multiplicity
 _atom_site_fract_x
 _atom_site_fract_y
 _atom_site_fract_z
 _atom_site_occupancy
  Hf  Hf0  1  0.10481056  0.71503455  0.87678679  1
  Hf  Hf1  1  0.61215083  0.21839681  0.75058786  1
  Hf  Hf2  1  -0.00076917  0.59480844  -0.01306919  1
  Hf  Hf3  1  0.60031106  -0.00657142  0.00768107  1
  Hf  Hf4  1  0.49581522  0.10173057  0.12879829  1
  Hf  Hf5  1  -0.00066337  -0.00587666  0.00738048  1
  Hf  Hf6  1  0.88589468  0.87601334  0.35695057  1
  Hf  Hf7  1  0.78843538  0.00186740  0.24594369  1
  Hf  Hf8  1  0.90195982  0.70395372  0.12259873  1
  Hf  Hf9  1  0.19865476  0.80187586  0.74145849  1
  Hf  Hf10  1  0.59039559  0.61659774  0.24229067  1
  Hf  Hf11  1  0.49060699  0.49621136  0.36124848  1
  Hf  Hf12  1  0.79922790  0.57972767  0.75226729  1
  Hf  Hf13  1  0.21493898  0.18389547  0.26572196  1
  Hf  Hf14  1  0.09882675  0.87508440  0.36993911  1
  Hf  Hf15  1  0.20365167  0.60294487  -0.01072792  1
  Hf  Hf16  1  0.60505909  0.58893969  0.49142363  1
  Hf  Hf17  1  0.19234173  0.59846285  0.24995098  1
  Hf  Hf18  1  0.19431496  0.00049499  0.74398098  1
  Hf  Hf19  1  0.29762583  0.50219647  0.12092983  1
  Hf  Hf20  1  0.09915946  0.70112800  0.11366939  1
  Hf  Hf21  1  0.52256636  0.31158275  0.89355971  1
  Hf  Hf22  1  0.01099352  0.58475659  0.49929658  1
  Hf  Hf23  1  0.29069508  0.50672435  0.38485398  1
  Hf  Hf24  1  0.90269133  0.50175604  0.12076173  1
  Hf  Hf25  1  0.29609723  0.71408583  0.37679062  1
  Hf  Hf26  1  0.19367295  0.02755705  0.01355228  1
  Hf  Hf27  1  0.41455403  0.21493844  0.26091838  1
  Hf  Hf28  1  0.20470278  0.39166912  -0.00261472  1
  Hf  Hf29  1  0.89353196  0.28633548  0.88391877  1
  Hf  Hf30  1  0.20080777  0.79823569  0.24208724  1
  Hf  Hf31  1  0.78114433  0.79530016  0.76866205  1
  Hf  Hf32  1  0.00235596  0.18899365  0.27279507  1
  Hf  Hf33  1  0.59931616  -0.00723422  0.76359163  1
  Hf  Hf34  1  0.78499798  0.38157320  0.01469543  1
  Hf  Hf35  1  0.78664785  0.80035873  -0.00909049  1
  Hf  Hf36  1  0.79457507  -0.00842006  0.48609456  1
  Hf  Hf37  1  0.49030393  0.69932048  0.62784637  1
  Hf  Hf38  1  0.10633901  0.30800182  0.39082221  1
  Hf  Hf39  1  0.70322715  0.32137981  0.61328895  1
  Zr  Zr40  1  0.40042490  0.20443571  0.75297957  1
  Zr  Zr41  1  0.10450220  0.48442389  0.86093420  1
  Zr  Zr42  1  0.68825920  0.47524227  0.87785973  1
  Zr  Zr43  1  0.49958665  0.30663380  0.61318873  1
  Zr  Zr44  1  0.59600214  0.59997813  0.75700759  1
  Zr  Zr45  1  0.80227294  -0.00315404  0.00708366  1
  Zr  Zr46  1  0.59911689  0.37438104  0.24506369  1
  Zr  Zr47  1  0.21223301  0.39360180  0.25466292  1
  Zr  Zr48  1  0.30190402  0.31197714  0.86672465  1
  Zr  Zr49  1  -0.01647474  0.78157798  0.49830676  1
  Zr  Zr50  1  0.81599090  0.20578401  0.73656953  1
  Zr  Zr51  1  -0.00601629  -0.00685641  0.48585327  1
  Zr  Zr52  1  0.89728237  0.48477717  0.87897674  1
  Zr  Zr53  1  0.80098469  0.00051344  0.75808362  1
  Zr  Zr54  1  0.30219471  0.91492106  0.12993940  1
  Zr  Zr55  1  0.69152516  0.90025515  0.62472629  1
  Zr  Zr56  1  0.30558567  0.09545506  0.61431153  1
  Zr  Zr57  1  0.09084079  0.49793463  0.63928314  1
  Zr  Zr58  1  0.60010617  0.60699551  0.00596420  1
  Zr  Zr59  1  0.58683615  0.79629138  0.48851007  1
  Zr  Zr60  1  0.90697880  0.69173086  0.63808478  1
  Zr  Zr61  1  0.71107281  0.11966844  0.88817685  1
  Zr  Zr62  1  0.80386700  0.19361641  0.48895689  1
  Zr  Zr63  1  0.11243837  0.27769149  0.12767169  1
  Zr  Zr64  1  0.70729093  0.71331171  0.36357118  1
  Zr  Zr65  1  0.80505991  0.39958326  0.24262870  1
  Zr  Zr66  1  0.70291268  0.49868286  0.36193023  1
  Zr  Zr67  1  0.58803620  0.00327731  0.49403758  1
  Zr  Zr68  1  0.30119162  0.30216344  0.61360592  1
  Zr  Zr69  1  0.39570746  0.80277923  0.75278911  1
  Zr  Zr70  1  0.48798650  0.49393115  0.12729526  1
  Zr  Zr71  1  0.50513161  0.09842571  0.63002454  1
  Zr  Zr72  1  0.38755920  0.20028637  -0.00002161  1
  Zr  Zr73  1  0.49759384  0.10126491  0.88215489  1
  Zr  Zr74  1  0.00792338  0.39871867  0.24945437  1
  Zr  Zr75  1  0.69949100  0.70029151  0.62162843  1
  Zr  Zr76  1  0.31706033  0.51034112  0.62527712  1
  Zr  Zr77  1  0.09808582  0.09719353  0.60657165  1
  Zr  Zr78  1  0.28068877  0.10385033  0.86979883  1
  Zr  Zr79  1  0.79543751  0.20646529  0.26436956  1
  Ta  Ta80  1  0.00370411  0.60658972  0.25720370  1
  Ta  Ta81  1  0.91172943  0.09551024  0.13638778  1
  Ta  Ta82  1  0.09729548  0.49746460  0.11796784  1
  Ta  Ta83  1  0.89090124  0.89630505  0.62699776  1
  Ta  Ta84  1  0.29375247  0.90127980  0.88757343  1
  Ta  Ta85  1  0.08758759  0.89238962  0.62078959  1
  Ta  Ta86  1  0.39088348  0.81020515  0.49744008  1
  Ta  Ta87  1  0.39813084  0.60477703  0.76365355  1
  Ta  Ta88  1  0.09745768  0.91583274  0.87565058  1
  Ta  Ta89  1  -0.00355819  0.80759705  0.75463062  1
  Ta  Ta90  1  -0.01459662  0.38300353  0.74271822  1
  Ta  Ta91  1  0.09791287  0.29667939  0.60812252  1
  Ta  Ta92  1  0.60457240  0.20079964  0.49377731  1
  Ta  Ta93  1  0.19262755  0.41407400  0.50552990  1
  Ta  Ta94  1  0.19254851  0.79515349  0.51213680  1
  Ta  Ta95  1  0.70379527  0.70647173  0.12952116  1
  Ta  Ta96  1  0.68358801  0.90475640  0.35975724  1
  Ta  Ta97  1  0.49334359  0.89376924  0.88299370  1
  Ta  Ta98  1  0.81222776  0.61582741  0.49343086  1
  Ta  Ta99  1  0.08735103  0.90332274  0.13719926  1
  Ta  Ta100  1  0.80273926  0.42280235  0.49749431  1
  Ta  Ta101  1  0.90882985  0.50508851  0.37236921  1
  Ta  Ta102  1  0.92129554  0.09658531  0.87614653  1
  Ta  Ta103  1  0.49014633  0.90135634  0.62823371  1
  Ta  Ta104  1  0.00459013  0.38362969  0.00597840  1
  Ta  Ta105  1  0.90273659  0.28298920  0.12166161  1
  Ta  Ta106  1  0.32021762  0.30291992  0.12541533  1
  Ta  Ta107  1  0.30721123  0.70286527  0.11718913  1
  Ta  Ta108  1  0.40147255  0.60887291  -0.00757755  1
  Ta  Ta109  1  0.91018745  0.30415240  0.60477454  1
  Ta  Ta110  1  0.48910823  0.90173459  0.35729908  1
  Ta  Ta111  1  0.79296025  0.59938299  -0.00294226  1
  Ta  Ta112  1  0.42298321  0.41271080  0.75200575  1
  Ta  Ta113  1  0.39169338  0.61138108  0.25091719  1
  Ta  Ta114  1  0.40780174  0.61631819  0.49136856  1
  Ta  Ta115  1  0.29012365  0.91524201  0.37191620  1
  Ta  Ta116  1  0.09621845  0.28026832  0.87236856  1
  Ta  Ta117  1  -0.00153910  -0.00059019  0.74490146  1
  Ta  Ta118  1  0.31469869  0.30790660  0.39318933  1
  Ta  Ta119  1  0.21001434  0.60973243  0.74860036  1
  Ti  Ti120  1  0.51171306  0.71000641  0.87797055  1
  Ti  Ti121  1  0.20430624  0.39576385  0.74009881  1
  Ti  Ti122  1  0.19172584  0.20296632  0.73780189  1
  Ti  Ti123  1  0.41211046  0.19012494  0.48456619  1
  Ti  Ti124  1  0.69646697  0.50003101  0.12894938  1
  Ti  Ti125  1  0.89631179  0.69709660  0.87392644  1
  Ti  Ti126  1  0.01323928  0.18526960  0.00531343  1
  Ti  Ti127  1  0.89702608  0.31047770  0.38815907  1
  Ti  Ti128  1  0.38742594  0.01564509  0.25521975  1
  Ti  Ti129  1  0.20969929  0.19171417  0.48959745  1
  Ti  Ti130  1  0.39631854  -0.00124400  0.48848850  1
  Ti  Ti131  1  0.70007557  0.11319416  0.12587686  1
  Ti  Ti132  1  0.12186391  0.07462426  0.38369813  1
  Ti  Ti133  1  0.00632633  0.19349921  0.73999068  1
  Ti  Ti134  1  0.30559009  0.50362190  0.87028537  1
  Ti  Ti135  1  0.30812774  0.71191820  0.88340442  1
  Ti  Ti136  1  0.90198940  0.09316100  0.61768171  1
  Ti  Ti137  1  0.49282807  0.50030652  0.88679319  1
  Ti  Ti138  1  0.51288000  0.29630704  0.10919330  1
  Ti  Ti139  1  -0.00146075  0.19149200  0.48226231  1
  Ti  Ti140  1  0.20242528  0.61165143  0.51418751  1
  Ti  Ti141  1  0.00560831  0.60167815  0.75882400  1
  Ti  Ti142  1  -0.00527658  0.80528370  -0.00555336  1
  Ti  Ti143  1  0.40710597  0.79997094  0.24204331  1
  Ti  Ti144  1  0.70359566  0.10108259  0.62272164  1
  Ti  Ti145  1  0.41105757  0.41371543  0.49929432  1
  Ti  Ti146  1  0.19722948  0.81810998  0.00658886  1
  Ti  Ti147  1  0.59376351  0.80418047  0.01707178  1
  Ti  Ti148  1  0.40689548  0.80416268  0.01042785  1
  Ti  Ti149  1  0.90051300  0.89949617  0.87283660  1
  Ti  Ti150  1  0.68301341  0.10340788  0.36567847  1
  Ti  Ti151  1  0.39717993  -0.00343014  0.00474368  1
  Ti  Ti152  1  0.51548974  0.29930291  0.38431853  1
  Ti  Ti153  1  0.89268909  0.89153073  0.13898423  1
  Ti  Ti154  1  0.39374112  -0.00427020  0.75609861  1
  Ti  Ti155  1  0.29855049  0.89980339  0.61691197  1
  Ti  Ti156  1  0.80700953  0.60738568  0.24809263  1
  Ti  Ti157  1  0.00452816  -0.00527396  0.25982233  1
  Ti  Ti158  1  0.52255592  0.49731290  0.62304635  1
  Ti  Ti159  1  0.59521094  0.81515904  0.23168793  1
  Mo  Mo160  1  0.60390648  0.40543919  0.74760163  1
  Mo  Mo161  1  0.10217722  0.69949287  0.63834039  1
  Mo  Mo162  1  0.39460762  0.40030026  0.25761060  1
  Mo  Mo163  1  0.49510774  0.90460348  0.13340938  1
  Mo  Mo164  1  0.50017763  0.09502656  0.36921404  1
  Mo  Mo165  1  0.79968846  0.38894917  0.74189891  1
  Mo  Mo166  1  0.00031206  0.79081921  0.24542794  1
  Mo  Mo167  1  0.88984233  0.48921738  0.62745169  1
  Mo  Mo168  1  0.60313739  0.19187419  0.25480572  1
  Mo  Mo169  1  0.69871424  0.69268053  0.88171054  1
  Mo  Mo170  1  0.10207216  0.50336289  0.38066730  1
  Mo  Mo171  1  0.20720185  -0.01970253  0.50267797  1
  Mo  Mo172  1  0.40064154  0.41243761  -0.00430047  1
  Mo  Mo173  1  0.79037700  0.79805561  0.23676808  1
  Mo  Mo174  1  0.70132317  0.30422443  0.39150243  1
  Mo  Mo175  1  0.49142218  0.70866662  0.36830929  1
  Mo  Mo176  1  0.29678606  0.11807601  0.13152134  1
  Mo  Mo177  1  0.69920588  0.28790072  0.12655044  1
  Mo  Mo178  1  0.19217214  0.20734528  0.00261700  1
  Mo  Mo179  1  0.30176975  0.70279340  0.61780179  1
  Mo  Mo180  1  0.19503044  0.00194590  0.24904905  1
  Mo  Mo181  1  0.61906733  0.20689823  0.00919249  1
  Mo  Mo182  1  0.09239292  0.10295848  0.86858923  1
  Mo  Mo183  1  0.69690376  0.90242253  0.13170494  1
  Mo  Mo184  1  0.59068273  0.80374181  0.75944205  1
  Mo  Mo185  1  0.70706975  0.50597787  0.61806951  1
  Mo  Mo186  1  0.49068747  0.70628278  0.12224305  1
  Mo  Mo187  1  0.10432935  0.68663101  0.37845248  1
  Mo  Mo188  1  0.59856695  0.40265818  0.01699379  1
  Mo  Mo189  1  0.09509374  0.09240165  0.14101625  1
  Mo  Mo190  1  0.90122840  0.08844020  0.36552404  1
  Mo  Mo191  1  0.60170827  0.40097106  0.48798503  1
  Mo  Mo192  1  0.90125954  0.69133115  0.36657329  1
  Mo  Mo193  1  -0.00329981  0.39660290  0.49810310  1
  Mo  Mo194  1  0.70858697  0.29891338  0.87719797  1
  Mo  Mo195  1  0.79526101  0.80190726  0.49869826  1
  Mo  Mo196  1  0.58862926  0.00498259  0.24484676  1
  Mo  Mo197  1  0.68014419  0.88882910  0.88043876  1
  Mo  Mo198  1  0.81961072  0.18868478  0.01261438  1
  Mo  Mo199  1  0.30756991  0.10018989  0.38810671  1
