# generated using pymatgen
data_HfZrTaTiMo
_symmetry_space_group_name_H-M   'P 1'
_cell_length_a   15.20502066
_cell_length_b   15.19995570
_cell_length_c   16.88246814
_cell_angle_alpha   90.04016600
_cell_angle_beta   89.95629531
_cell_angle_gamma   90.09303392
_symmetry_Int_Tables_number   1
_chemical_formula_structural   HfZrTaTiMo
_chemical_formula_sum   'Hf40 Zr40 Ta40 Ti40 Mo40'
_cell_volume   3901.79520440
_cell_formula_units_Z   40
loop_
 _symmetry_equiv_pos_site_id
 _symmetry_equiv_pos_as_xyz
  1  'x, y, z'
loop_
 _atom_site_type_symbol
 _atom_site_label
 _atom_site_symmetry_multiplicity
 _atom_site_fract_x
 _atom_site_fract_y
 _atom_site_fract_z
 _atom_site_occupancy
  Hf  Hf0  1  0.17959420  0.01234129  0.24325379  1
  Hf  Hf1  1  0.51437099  0.50785044  0.63560325  1
  Hf  Hf2  1  0.60941041  0.80890627  0.49768709  1
  Hf  Hf3  1  -0.00044666  -0.00898826  0.74551126  1
  Hf  Hf4  1  0.80096266  0.19444530  -0.00311288  1
  Hf  Hf5  1  0.10534678  0.89129502  0.62471506  1
  Hf  Hf6  1  0.11329171  0.28347864  0.11792574  1
  Hf  Hf7  1  0.28709988  0.69632838  0.87425205  1
  Hf  Hf8  1  0.80342056  0.18730002  0.24923315  1
  Hf  Hf9  1  0.59583250  0.79488265  0.24905912  1
  Hf  Hf10  1  0.49771415  0.09935230  0.61990616  1
  Hf  Hf11  1  0.31514293  0.32491416  0.13817767  1
  Hf  Hf12  1  0.59295875  0.39603231  -0.01045610  1
  Hf  Hf13  1  0.90731162  0.07219395  0.37037983  1
  Hf  Hf14  1  0.89761105  0.11268380  0.62319632  1
  Hf  Hf15  1  0.71909933  0.29329895  0.62574782  1
  Hf  Hf16  1  0.48975811  0.49152723  0.13020096  1
  Hf  Hf17  1  0.19603879  0.60729186  0.00820139  1
  Hf  Hf18  1  0.89812897  0.48904996  0.87746466  1
  Hf  Hf19  1  0.70373684  0.30183130  0.12581648  1
  Hf  Hf20  1  0.80941388  0.40134163  0.24101784  1
  Hf  Hf21  1  0.30543737  0.10801241  0.37417881  1
  Hf  Hf22  1  0.50211787  0.71148047  0.62614617  1
  Hf  Hf23  1  0.91003991  0.67872732  0.62874657  1
  Hf  Hf24  1  0.19469659  0.41018188  0.50109854  1
  Hf  Hf25  1  0.70895602  0.70263941  0.11992509  1
  Hf  Hf26  1  0.00705735  0.79151115  0.49881793  1
  Hf  Hf27  1  0.68092230  0.09750901  0.13204344  1
  Hf  Hf28  1  0.38906189  0.60961108  0.50970318  1
  Hf  Hf29  1  0.22267223  0.41100642  0.00167667  1
  Hf  Hf30  1  0.60165151  0.39206726  0.49979395  1
  Hf  Hf31  1  0.38814592  0.60431357  0.74223599  1
  Hf  Hf32  1  0.38930226  0.20746627  0.74488953  1
  Hf  Hf33  1  0.60545544  0.59770157  0.49387952  1
  Hf  Hf34  1  0.29657847  0.51923014  0.37820691  1
  Hf  Hf35  1  0.59400747  0.60006845  0.00037148  1
  Hf  Hf36  1  0.08957229  0.09895245  0.89548889  1
  Hf  Hf37  1  0.19783204  0.61800448  0.24838972  1
  Hf  Hf38  1  0.28708725  0.12820036  0.88105155  1
  Hf  Hf39  1  -0.00839487  0.59376963  0.24043047  1
  Zr  Zr40  1  0.61474329  0.79481521  0.76011274  1
  Zr  Zr41  1  0.79213836  -0.01866769  0.51080169  1
  Zr  Zr42  1  0.50882558  0.92027325  0.37113803  1
  Zr  Zr43  1  0.80633634  0.79455664  0.74640229  1
  Zr  Zr44  1  0.59243513  0.38974877  0.25665176  1
  Zr  Zr45  1  0.41397156  0.01987468  0.23519599  1
  Zr  Zr46  1  0.70787080  0.50204440  0.37081827  1
  Zr  Zr47  1  0.40210300  0.81070635  0.75095660  1
  Zr  Zr48  1  0.00858992  0.19406182  0.75021912  1
  Zr  Zr49  1  0.72258751  0.89454997  0.36232249  1
  Zr  Zr50  1  0.48606777  0.70470656  0.37392789  1
  Zr  Zr51  1  0.09628551  0.29520383  0.38240792  1
  Zr  Zr52  1  0.78724882  0.58934456  0.75886167  1
  Zr  Zr53  1  0.79752639  0.19023801  0.49122589  1
  Zr  Zr54  1  0.90123255  0.68841970  0.37742959  1
  Zr  Zr55  1  0.19523497  0.02123780  0.74893033  1
  Zr  Zr56  1  0.11274173  0.29695619  0.88273430  1
  Zr  Zr57  1  -0.00135826  0.59970227  0.00423799  1
  Zr  Zr58  1  0.50617097  0.29824035  0.63114302  1
  Zr  Zr59  1  0.29489409  0.13033117  0.12712499  1
  Zr  Zr60  1  0.40131089  0.01242021  0.01221500  1
  Zr  Zr61  1  0.30612262  0.91459683  0.62094468  1
  Zr  Zr62  1  0.62502371  0.40489281  0.75756551  1
  Zr  Zr63  1  0.71386555  0.90369625  0.13038676  1
  Zr  Zr64  1  0.78926053  0.00282590  0.74894099  1
  Zr  Zr65  1  0.90877110  0.29158822  0.37438912  1
  Zr  Zr66  1  0.90110421  0.88700748  0.87298710  1
  Zr  Zr67  1  0.50235940  0.69551631  0.87726960  1
  Zr  Zr68  1  0.69712682  0.29124585  0.37181495  1
  Zr  Zr69  1  0.50644117  0.89484166  0.11513405  1
  Zr  Zr70  1  0.61200370  0.19111523  0.76551843  1
  Zr  Zr71  1  0.60125774  0.19793023  -0.02072912  1
  Zr  Zr72  1  0.29945488  0.88945579  0.35310555  1
  Zr  Zr73  1  0.40087938  0.00829556  0.75257405  1
  Zr  Zr74  1  0.50201203  0.28020706  0.12846589  1
  Zr  Zr75  1  0.19576245  0.40654512  0.25871805  1
  Zr  Zr76  1  0.19482462  0.00515621  0.01894706  1
  Zr  Zr77  1  0.10781743  0.50210039  0.86624170  1
  Zr  Zr78  1  0.19454111  0.80651260  0.00861089  1
  Zr  Zr79  1  0.29745212  0.91018792  0.87953185  1
  Ta  Ta80  1  0.38946183  0.58740226  -0.00227623  1
  Ta  Ta81  1  0.59946729  -0.00831915  0.76557316  1
  Ta  Ta82  1  -0.00636960  0.58028139  0.50305112  1
  Ta  Ta83  1  0.00324973  0.39328352  0.00936477  1
  Ta  Ta84  1  0.80825357  0.21160417  0.76787264  1
  Ta  Ta85  1  -0.00664432  0.78988291  -0.00024674  1
  Ta  Ta86  1  0.08815798  0.50694960  0.37534078  1
  Ta  Ta87  1  0.30714771  0.71236729  0.12859518  1
  Ta  Ta88  1  0.39786525  0.81151334  0.50221899  1
  Ta  Ta89  1  0.69868141  0.68009546  0.62425060  1
  Ta  Ta90  1  0.89542497  0.08081273  0.12379044  1
  Ta  Ta91  1  0.01197769  0.17516077  0.24180522  1
  Ta  Ta92  1  0.20693154  0.80256279  0.49225715  1
  Ta  Ta93  1  0.17961894  0.61270469  0.74095089  1
  Ta  Ta94  1  0.68572867  0.08270343  0.36515936  1
  Ta  Ta95  1  0.19703797  0.00091754  0.48873571  1
  Ta  Ta96  1  0.89429716  0.49658866  0.11522396  1
  Ta  Ta97  1  0.90478047  0.48869571  0.37490288  1
  Ta  Ta98  1  0.28334233  0.50637019  0.62591201  1
  Ta  Ta99  1  0.89852855  0.09477166  0.88213531  1
  Ta  Ta100  1  0.80116985  0.78075107  0.50921174  1
  Ta  Ta101  1  0.81024139  0.40738895  0.50356589  1
  Ta  Ta102  1  -0.00329677  0.39000443  0.74644817  1
  Ta  Ta103  1  0.18349949  0.61449710  0.50535276  1
  Ta  Ta104  1  0.08706830  0.30341225  0.60998156  1
  Ta  Ta105  1  0.39775451  0.40546710  0.51193222  1
  Ta  Ta106  1  0.49094125  0.49245778  0.37533660  1
  Ta  Ta107  1  0.51984898  0.91115759  0.62044254  1
  Ta  Ta108  1  0.70356291  0.69516266  0.37088356  1
  Ta  Ta109  1  0.48311808  0.49507782  0.86146242  1
  Ta  Ta110  1  0.08725353  0.90952620  0.36975959  1
  Ta  Ta111  1  0.69765230  0.50209269  0.12037015  1
  Ta  Ta112  1  0.10023196  0.49221627  0.12696343  1
  Ta  Ta113  1  0.10346052  0.10339333  0.60969363  1
  Ta  Ta114  1  0.49132397  0.10036112  0.87625065  1
  Ta  Ta115  1  0.59900378  0.59620985  0.24833597  1
  Ta  Ta116  1  -0.00980622  -0.01265795  0.00669082  1
  Ta  Ta117  1  0.50361134  0.90102879  0.88940794  1
  Ta  Ta118  1  0.39600041  0.22767268  -0.01088769  1
  Ta  Ta119  1  0.00078413  -0.00276534  0.50512456  1
  Ti  Ti120  1  0.62157489  0.80266727  -0.01068294  1
  Ti  Ti121  1  0.89982592  0.89095724  0.62683522  1
  Ti  Ti122  1  0.19978988  0.22776651  0.72994142  1
  Ti  Ti123  1  0.91076463  0.28766339  0.11948319  1
  Ti  Ti124  1  0.49394970  0.30597563  0.86065344  1
  Ti  Ti125  1  0.09844818  0.89465518  0.87624457  1
  Ti  Ti126  1  0.49743556  0.69392381  0.12326082  1
  Ti  Ti127  1  0.40285952  0.61033820  0.25268816  1
  Ti  Ti128  1  0.69516128  0.50694541  0.88509663  1
  Ti  Ti129  1  0.31578648  0.31499445  0.37388232  1
  Ti  Ti130  1  0.79945925  0.40092075  0.00292051  1
  Ti  Ti131  1  0.29540738  0.11267913  0.61157746  1
  Ti  Ti132  1  0.10909502  0.70649558  0.37050457  1
  Ti  Ti133  1  0.90117238  0.88171913  0.12443287  1
  Ti  Ti134  1  0.09213358  0.70707245  0.13151325  1
  Ti  Ti135  1  0.59378688  0.18822688  0.49117136  1
  Ti  Ti136  1  0.57200383  0.18120800  0.26404960  1
  Ti  Ti137  1  0.68730161  0.08568036  0.62463810  1
  Ti  Ti138  1  0.28495868  0.71417809  0.62663535  1
  Ti  Ti139  1  0.38254336  0.40285249  0.73017341  1
  Ti  Ti140  1  0.30444879  0.33313767  0.86484608  1
  Ti  Ti141  1  0.00101143  0.38933161  0.23903454  1
  Ti  Ti142  1  0.20207650  0.20584480  0.26222422  1
  Ti  Ti143  1  0.60621458  0.00465398  -0.01336981  1
  Ti  Ti144  1  0.00456189  0.80134947  0.25492047  1
  Ti  Ti145  1  0.80509680  0.61289225  -0.00454920  1
  Ti  Ti146  1  0.81763584  0.79131445  0.25081287  1
  Ti  Ti147  1  0.30108721  0.51529894  0.13721921  1
  Ti  Ti148  1  0.39887676  0.21328200  0.50032365  1
  Ti  Ti149  1  0.01359518  0.77307733  0.75356469  1
  Ti  Ti150  1  0.79376965  -0.01205486  -0.00815309  1
  Ti  Ti151  1  0.19723493  0.80576326  0.75429536  1
  Ti  Ti152  1  0.89107135  0.48198311  0.63353485  1
  Ti  Ti153  1  0.08972978  0.90027660  0.13287335  1
  Ti  Ti154  1  0.40417023  0.00610256  0.49576857  1
  Ti  Ti155  1  0.40036449  0.79354287  0.00266966  1
  Ti  Ti156  1  0.19955376  0.20215587  0.49595581  1
  Ti  Ti157  1  0.08480358  0.50518945  0.63266996  1
  Ti  Ti158  1  0.91212584  0.29457335  0.88759007  1
  Ti  Ti159  1  0.79756799  0.59879624  0.24043901  1
  Mo  Mo160  1  0.60378392  0.00190502  0.24737640  1
  Mo  Mo161  1  0.08519580  0.09890748  0.11322617  1
  Mo  Mo162  1  -0.00509627  0.58807434  0.75016014  1
  Mo  Mo163  1  0.49636414  0.10838416  0.38761298  1
  Mo  Mo164  1  0.81041685  0.38978029  0.75817531  1
  Mo  Mo165  1  0.91063463  0.68894155  0.86964043  1
  Mo  Mo166  1  0.80109518  0.59347356  0.50487442  1
  Mo  Mo167  1  0.48833791  0.29858936  0.38632010  1
  Mo  Mo168  1  0.90034880  0.69991875  0.13017574  1
  Mo  Mo169  1  0.71421263  0.70008737  0.89123902  1
  Mo  Mo170  1  0.09206815  0.70820349  0.87372344  1
  Mo  Mo171  1  0.19546711  0.40440537  0.73258891  1
  Mo  Mo172  1  0.39790495  0.79822356  0.23760506  1
  Mo  Mo173  1  0.49934598  0.10523259  0.11515894  1
  Mo  Mo174  1  -0.00356901  0.40062241  0.50587903  1
  Mo  Mo175  1  0.72269392  0.31441403  0.88091207  1
  Mo  Mo176  1  0.30029360  0.50538897  0.86063523  1
  Mo  Mo177  1  0.70635396  0.09645295  0.87522777  1
  Mo  Mo178  1  0.20684708  0.21543984  -0.00120145  1
  Mo  Mo179  1  0.70814829  0.49784810  0.62116681  1
  Mo  Mo180  1  0.90408077  0.30090966  0.62445561  1
  Mo  Mo181  1  0.29458557  0.70742147  0.37766291  1
  Mo  Mo182  1  0.09945328  0.09774117  0.38305564  1
  Mo  Mo183  1  0.39818049  0.21611669  0.26292358  1
  Mo  Mo184  1  0.40789352  0.40866097  -0.00803815  1
  Mo  Mo185  1  0.39996048  0.41631994  0.26174195  1
  Mo  Mo186  1  -0.00990303  -0.01121917  0.24023495  1
  Mo  Mo187  1  -0.00616051  0.19322802  0.00937137  1
  Mo  Mo188  1  0.80963850  -0.00798349  0.24582610  1
  Mo  Mo189  1  0.00536911  0.18835367  0.50079763  1
  Mo  Mo190  1  0.60333897  0.00540637  0.50176516  1
  Mo  Mo191  1  0.10299431  0.69617555  0.62197509  1
  Mo  Mo192  1  0.81091068  0.79725732  -0.00224881  1
  Mo  Mo193  1  0.59980216  0.59850442  0.75958848  1
  Mo  Mo194  1  0.70021190  0.90026609  0.88376570  1
  Mo  Mo195  1  0.29630095  0.89345469  0.14408292  1
  Mo  Mo196  1  0.70020245  0.88977103  0.62438936  1
  Mo  Mo197  1  0.29185376  0.30358308  0.61304577  1
  Mo  Mo198  1  0.19155166  0.80578988  0.24198249  1
  Mo  Mo199  1  0.90903567  0.88342325  0.37836268  1
