# generated using pymatgen
data_HfZrTaTiMo
_symmetry_space_group_name_H-M   'P 1'
_cell_length_a   15.20959330
_cell_length_b   15.21912786
_cell_length_c   16.82880400
_cell_angle_alpha   89.97851113
_cell_angle_beta   89.98258776
_cell_angle_gamma   89.92725349
_symmetry_Int_Tables_number   1
_chemical_formula_structural   HfZrTaTiMo
_chemical_formula_sum   'Hf40 Zr40 Ta40 Ti40 Mo40'
_cell_volume   3895.47318117
_cell_formula_units_Z   40
loop_
 _symmetry_equiv_pos_site_id
 _symmetry_equiv_pos_as_xyz
  1  'x, y, z'
loop_
 _atom_site_type_symbol
 _atom_site_label
 _atom_site_symmetry_multiplicity
 _atom_site_fract_x
 _atom_site_fract_y
 _atom_site_fract_z
 _atom_site_occupancy
  Hf  Hf0  1  0.49421013  0.10121253  0.14279710  1
  Hf  Hf1  1  0.90381463  0.30002808  0.87715055  1
  Hf  Hf2  1  0.81346953  0.79495334  0.02534116  1
  Hf  Hf3  1  0.10181891  0.30392340  0.13084473  1
  Hf  Hf4  1  0.79631263  0.59089890  0.75785611  1
  Hf  Hf5  1  0.28992211  0.68871346  0.62509856  1
  Hf  Hf6  1  0.79766735  0.19428701  -0.00000267  1
  Hf  Hf7  1  0.91298795  0.70237900  0.63319916  1
  Hf  Hf8  1  0.10650519  0.70099667  0.36209588  1
  Hf  Hf9  1  0.39299350  0.59164312  0.50003955  1
  Hf  Hf10  1  0.11383326  0.51214449  0.63200306  1
  Hf  Hf11  1  0.00908278  0.59990297  0.76046414  1
  Hf  Hf12  1  -0.00312325  0.41082906  0.49555038  1
  Hf  Hf13  1  0.59365263  0.79970353  0.75616835  1
  Hf  Hf14  1  0.30480287  0.89789377  0.37449328  1
  Hf  Hf15  1  0.60907829  0.59123671  0.49573653  1
  Hf  Hf16  1  0.60457135  0.20198887  0.76130704  1
  Hf  Hf17  1  0.01711299  0.60879889  0.49732152  1
  Hf  Hf18  1  0.69472635  0.70425366  0.88813213  1
  Hf  Hf19  1  0.20553706  -0.00036344  0.00089473  1
  Hf  Hf20  1  0.11062766  0.10795830  0.13686467  1
  Hf  Hf21  1  0.90263825  0.29870004  0.12477029  1
  Hf  Hf22  1  0.89521975  0.09377310  0.87340427  1
  Hf  Hf23  1  0.09036085  0.70084844  0.13111276  1
  Hf  Hf24  1  0.79516596  0.00002585  0.73931872  1
  Hf  Hf25  1  0.40782142  0.59815721  0.23948682  1
  Hf  Hf26  1  0.69870991  0.69125210  0.62685714  1
  Hf  Hf27  1  0.49744089  0.70678895  0.37208863  1
  Hf  Hf28  1  0.79356347  -0.00642850  0.01483773  1
  Hf  Hf29  1  0.41121880  0.00525096  0.49691333  1
  Hf  Hf30  1  0.29511221  0.70369748  0.10979008  1
  Hf  Hf31  1  0.91257300  0.09169892  0.13160946  1
  Hf  Hf32  1  0.49428154  0.70064709  0.62419419  1
  Hf  Hf33  1  0.90166916  0.29534735  0.38393931  1
  Hf  Hf34  1  0.80073326  -0.00983588  0.49648905  1
  Hf  Hf35  1  0.90085649  0.70231919  0.87331439  1
  Hf  Hf36  1  0.90830797  0.09273463  0.62392362  1
  Hf  Hf37  1  -0.00673496  0.60008974  -0.00608307  1
  Hf  Hf38  1  -0.00096986  0.40587446  0.26151709  1
  Hf  Hf39  1  0.10026174  0.90877929  0.13600439  1
  Zr  Zr40  1  0.37734104  0.59063971  -0.00770107  1
  Zr  Zr41  1  0.60600404  0.20165028  -0.00374231  1
  Zr  Zr42  1  0.59706139  0.40812902  0.24397771  1
  Zr  Zr43  1  0.39383574  0.60000116  0.76924335  1
  Zr  Zr44  1  0.40159649  0.37756201  0.49231854  1
  Zr  Zr45  1  0.09646758  0.90097366  0.36157031  1
  Zr  Zr46  1  0.20963320  0.58667579  0.24442990  1
  Zr  Zr47  1  0.79276436  0.20040006  0.74539817  1
  Zr  Zr48  1  0.66726498  0.29478499  0.38463246  1
  Zr  Zr49  1  0.59474784  0.81239081  0.49919470  1
  Zr  Zr50  1  0.38397736  0.19662401  0.00846139  1
  Zr  Zr51  1  0.60691487  0.81766591  0.01354309  1
  Zr  Zr52  1  0.39330878  0.82215161  0.75049890  1
  Zr  Zr53  1  0.89973325  0.89737005  0.87766614  1
  Zr  Zr54  1  0.49438170  0.30853616  0.12242539  1
  Zr  Zr55  1  0.81404731  0.59560502  0.48876360  1
  Zr  Zr56  1  0.20197410  0.40444283  0.49965782  1
  Zr  Zr57  1  0.11189838  0.49727064  0.11807957  1
  Zr  Zr58  1  0.58845269  -0.00576950  0.74645552  1
  Zr  Zr59  1  0.50407915  0.11556339  0.35687987  1
  Zr  Zr60  1  0.19767742  -0.02116633  0.75749089  1
  Zr  Zr61  1  0.50615156  0.49185180  0.37617800  1
  Zr  Zr62  1  0.79995735  0.80624039  0.74191642  1
  Zr  Zr63  1  0.79453883  0.39348646  0.75471316  1
  Zr  Zr64  1  0.29495314  0.10174213  0.86925133  1
  Zr  Zr65  1  0.90143481  0.71746345  0.36495101  1
  Zr  Zr66  1  0.49408565  0.08933847  0.87444366  1
  Zr  Zr67  1  0.80167624  0.80190370  0.50695627  1
  Zr  Zr68  1  0.29085538  0.90048930  0.61314623  1
  Zr  Zr69  1  -0.00126298  -0.00213226  0.48526250  1
  Zr  Zr70  1  0.89469302  0.49508612  0.11849901  1
  Zr  Zr71  1  0.19575997  0.19960108  0.74231041  1
  Zr  Zr72  1  0.59454944  0.59554406  0.75997939  1
  Zr  Zr73  1  0.79550039  0.18968881  0.49480675  1
  Zr  Zr74  1  0.48585451  0.30971525  0.88189360  1
  Zr  Zr75  1  0.79634673  0.59612275  0.24723172  1
  Zr  Zr76  1  0.01840497  0.20071399  0.50157671  1
  Zr  Zr77  1  0.48801581  0.28910134  0.62681834  1
  Zr  Zr78  1  0.80056785  0.19983887  0.25819464  1
  Zr  Zr79  1  0.00174589  0.19816736  0.74271801  1
  Ta  Ta80  1  0.70203034  0.89353578  0.35858483  1
  Ta  Ta81  1  0.39960523  -0.00845880  0.01424748  1
  Ta  Ta82  1  0.79559924  0.40490871  0.26698073  1
  Ta  Ta83  1  0.70323815  0.30483261  0.12950086  1
  Ta  Ta84  1  0.01404108  0.80358943  0.00181183  1
  Ta  Ta85  1  0.49019771  0.70914022  0.89935174  1
  Ta  Ta86  1  0.02288638  0.80953350  0.75724381  1
  Ta  Ta87  1  0.79403960  0.79993119  0.22610901  1
  Ta  Ta88  1  0.70317713  0.48875638  0.62335376  1
  Ta  Ta89  1  0.20413479  0.01364558  0.49238421  1
  Ta  Ta90  1  0.00636023  0.39831808  0.74811196  1
  Ta  Ta91  1  0.39686286  0.79964220  0.49991774  1
  Ta  Ta92  1  0.19385494  0.20537681  -0.00300719  1
  Ta  Ta93  1  0.38696791  0.39967660  0.25137323  1
  Ta  Ta94  1  0.49834422  0.49818093  0.89435034  1
  Ta  Ta95  1  0.78968014  0.40802831  0.48786808  1
  Ta  Ta96  1  0.30041105  0.69748064  0.37496192  1
  Ta  Ta97  1  0.59874622  0.79360718  0.23551834  1
  Ta  Ta98  1  0.31083818  0.48575637  0.63661031  1
  Ta  Ta99  1  0.10729584  0.71280850  0.62769313  1
  Ta  Ta100  1  0.90275399  0.49708733  0.62877306  1
  Ta  Ta101  1  0.01002378  0.39328852  -0.00782643  1
  Ta  Ta102  1  0.68651922  0.30270360  0.60917514  1
  Ta  Ta103  1  0.59566762  0.39988318  0.75476385  1
  Ta  Ta104  1  0.59980195  0.00776662  0.01109277  1
  Ta  Ta105  1  0.49935707  0.69810629  0.10936607  1
  Ta  Ta106  1  0.69116504  0.48933152  0.89131666  1
  Ta  Ta107  1  0.50627246  0.49048073  0.62463839  1
  Ta  Ta108  1  0.21031025  0.79983769  0.24439955  1
  Ta  Ta109  1  0.39984363  0.80085876  0.23987104  1
  Ta  Ta110  1  0.10907851  0.29904711  0.87414198  1
  Ta  Ta111  1  0.28548109  0.73679912  0.88893238  1
  Ta  Ta112  1  0.00893710  -0.00122748  -0.00599176  1
  Ta  Ta113  1  0.30619700  0.10488698  0.36325845  1
  Ta  Ta114  1  0.69514262  0.70293469  0.36520057  1
  Ta  Ta115  1  0.89259170  0.30978987  0.61485070  1
  Ta  Ta116  1  0.70179786  0.08873018  0.36308321  1
  Ta  Ta117  1  0.60538733  0.00866057  0.49117818  1
  Ta  Ta118  1  0.11339156  0.10767427  0.36629567  1
  Ta  Ta119  1  0.00754595  0.19389309  -0.00478413  1
  Ti  Ti120  1  0.30298234  0.28861123  0.36515268  1
  Ti  Ti121  1  -0.01686240  0.81335199  0.23840688  1
  Ti  Ti122  1  0.21865529  0.20412505  0.50539607  1
  Ti  Ti123  1  0.21437936  0.39858807  0.75473377  1
  Ti  Ti124  1  0.81716338  -0.01170200  0.24877209  1
  Ti  Ti125  1  0.79465857  0.39184677  -0.00555068  1
  Ti  Ti126  1  0.10602431  0.50362743  0.37258532  1
  Ti  Ti127  1  0.00755095  -0.00227291  0.75649659  1
  Ti  Ti128  1  0.69878789  0.10311053  0.14161647  1
  Ti  Ti129  1  0.11546479  0.30234482  0.36973233  1
  Ti  Ti130  1  0.69452247  0.91580808  0.87790428  1
  Ti  Ti131  1  0.60613955  -0.00710933  0.24517693  1
  Ti  Ti132  1  0.29014277  0.29862045  0.13584346  1
  Ti  Ti133  1  0.19315853  0.79451812  0.49349248  1
  Ti  Ti134  1  0.10545893  0.30890681  0.62500942  1
  Ti  Ti135  1  0.49480794  0.90050177  0.13131855  1
  Ti  Ti136  1  -0.00748349  0.59942550  0.24987475  1
  Ti  Ti137  1  0.09151577  0.90131489  0.61851660  1
  Ti  Ti138  1  0.10549797  0.49063712  0.87453454  1
  Ti  Ti139  1  0.39272796  0.20841962  0.75283899  1
  Ti  Ti140  1  -0.00384636  0.80716256  0.50013629  1
  Ti  Ti141  1  0.68731106  0.90583405  0.62202826  1
  Ti  Ti142  1  0.69092019  0.49509128  0.10833723  1
  Ti  Ti143  1  0.30749368  0.10672937  0.62650645  1
  Ti  Ti144  1  0.90009626  0.49223565  0.87835691  1
  Ti  Ti145  1  0.11173536  0.08987274  0.61857823  1
  Ti  Ti146  1  0.49823145  0.09461151  0.62633986  1
  Ti  Ti147  1  0.48851673  0.89953380  0.88759852  1
  Ti  Ti148  1  0.49816136  0.50335118  0.10539000  1
  Ti  Ti149  1  0.50401836  0.90382569  0.36147511  1
  Ti  Ti150  1  0.21595569  0.00466323  0.24787560  1
  Ti  Ti151  1  0.60306641  0.60041886  0.24538012  1
  Ti  Ti152  1  0.69384919  0.68710755  0.11841385  1
  Ti  Ti153  1  0.79578509  0.59526295  -0.00008816  1
  Ti  Ti154  1  0.21770083  0.40204659  -0.00553841  1
  Ti  Ti155  1  0.29542099  0.49822928  0.37482891  1
  Ti  Ti156  1  0.18636489  0.60702803  -0.01680438  1
  Ti  Ti157  1  0.00294435  0.19550799  0.26278640  1
  Ti  Ti158  1  0.20289332  0.60817888  0.77248322  1
  Ti  Ti159  1  0.68727117  0.10680096  0.61505584  1
  Mo  Mo160  1  0.30923305  0.48532784  0.12402146  1
  Mo  Mo161  1  0.88794064  0.89793325  0.36504785  1
  Mo  Mo162  1  0.31455509  0.90884711  0.87999531  1
  Mo  Mo163  1  0.09112032  0.09901576  0.88017100  1
  Mo  Mo164  1  0.69712788  0.90943272  0.14103019  1
  Mo  Mo165  1  0.29839136  0.10300251  0.13701958  1
  Mo  Mo166  1  0.20461663  0.60303977  0.49663435  1
  Mo  Mo167  1  0.91758561  0.89888965  0.63271099  1
  Mo  Mo168  1  0.39015403  0.39749830  0.00804658  1
  Mo  Mo169  1  0.58316896  0.18818769  0.50224477  1
  Mo  Mo170  1  0.40436959  0.40222743  0.74976625  1
  Mo  Mo171  1  0.29346285  0.30598258  0.87510643  1
  Mo  Mo172  1  0.40095471  -0.00927521  0.25040731  1
  Mo  Mo173  1  0.49916716  0.90570402  0.61792397  1
  Mo  Mo174  1  0.90696038  0.50127938  0.37152975  1
  Mo  Mo175  1  0.48328193  0.29412039  0.36550255  1
  Mo  Mo176  1  0.20214575  0.39666374  0.26095031  1
  Mo  Mo177  1  0.59768816  0.60304239  -0.00070285  1
  Mo  Mo178  1  0.69696387  0.30287819  0.88039077  1
  Mo  Mo179  1  0.39640648  0.01546111  0.73675654  1
  Mo  Mo180  1  0.20083313  0.20581004  0.25545961  1
  Mo  Mo181  1  0.00228042  0.00552419  0.26195735  1
  Mo  Mo182  1  0.39817099  0.80977773  0.01102712  1
  Mo  Mo183  1  0.29519660  0.29951264  0.62862272  1
  Mo  Mo184  1  0.60645918  0.20289424  0.23990204  1
  Mo  Mo185  1  0.09999233  0.70272123  0.88058728  1
  Mo  Mo186  1  0.69898040  0.08838234  0.88185002  1
  Mo  Mo187  1  0.19592380  0.81023248  0.01021722  1
  Mo  Mo188  1  0.19985965  0.79240391  0.75001634  1
  Mo  Mo189  1  0.30352956  0.90634374  0.13545852  1
  Mo  Mo190  1  0.90273557  0.69516569  0.12694988  1
  Mo  Mo191  1  0.59856948  0.39713167  0.50472712  1
  Mo  Mo192  1  0.39210785  0.20449203  0.24076468  1
  Mo  Mo193  1  0.29597726  0.48431593  0.86800410  1
  Mo  Mo194  1  0.90560008  0.09185346  0.36456267  1
  Mo  Mo195  1  0.38819232  0.18572047  0.49802833  1
  Mo  Mo196  1  0.70193583  0.50354869  0.37154575  1
  Mo  Mo197  1  0.60236280  0.40124006  0.00635214  1
  Mo  Mo198  1  0.11608080  0.88870042  0.88479248  1
  Mo  Mo199  1  0.91033374  0.90141432  0.12199341  1
