# generated using pymatgen
data_HfZrTaTiMo
_symmetry_space_group_name_H-M   'P 1'
_cell_length_a   15.18859761
_cell_length_b   15.20039346
_cell_length_c   16.78741238
_cell_angle_alpha   89.99836531
_cell_angle_beta   90.00156653
_cell_angle_gamma   90.13153119
_symmetry_Int_Tables_number   1
_chemical_formula_structural   HfZrTaTiMo
_chemical_formula_sum   'Hf40 Zr40 Ta40 Ti40 Mo40'
_cell_volume   3875.74433245
_cell_formula_units_Z   40
loop_
 _symmetry_equiv_pos_site_id
 _symmetry_equiv_pos_as_xyz
  1  'x, y, z'
loop_
 _atom_site_type_symbol
 _atom_site_label
 _atom_site_symmetry_multiplicity
 _atom_site_fract_x
 _atom_site_fract_y
 _atom_site_fract_z
 _atom_site_occupancy
  Hf  Hf0  1  0.49117089  0.49852418  0.36388354  1
  Hf  Hf1  1  0.49848724  0.70056858  0.13697271  1
  Hf  Hf2  1  0.89039396  0.88692832  0.11104827  1
  Hf  Hf3  1  0.51063657  0.89235417  0.61125372  1
  Hf  Hf4  1  0.59154358  0.58947114  0.49885838  1
  Hf  Hf5  1  0.19427173  0.19243892  0.74645295  1
  Hf  Hf6  1  0.11341536  0.70571989  0.13675592  1
  Hf  Hf7  1  0.90357343  0.09021699  0.36666487  1
  Hf  Hf8  1  0.69387121  0.30472702  0.37285972  1
  Hf  Hf9  1  0.69266915  0.69794378  0.62495017  1
  Hf  Hf10  1  0.31039867  0.50498866  0.88102580  1
  Hf  Hf11  1  0.10389927  0.89575400  0.87013869  1
  Hf  Hf12  1  0.70032032  0.09954897  0.61009134  1
  Hf  Hf13  1  0.29682037  0.70247673  0.62345110  1
  Hf  Hf14  1  0.20505120  0.40974935  0.75740331  1
  Hf  Hf15  1  0.89468080  0.50181950  0.63953247  1
  Hf  Hf16  1  0.31139677  0.28843438  0.87477496  1
  Hf  Hf17  1  0.90938407  0.91124840  0.62275882  1
  Hf  Hf18  1  0.49815014  0.69993142  0.86907680  1
  Hf  Hf19  1  0.21763852  -0.01161316  0.26068746  1
  Hf  Hf20  1  0.09757940  0.29738664  0.36628762  1
  Hf  Hf21  1  0.78728492  0.00460468  0.75164265  1
  Hf  Hf22  1  0.37782391  0.80149408  0.26940209  1
  Hf  Hf23  1  0.89172157  0.30067839  0.36733974  1
  Hf  Hf24  1  0.41477363  0.40087272  0.01016765  1
  Hf  Hf25  1  0.49512056  0.68839540  0.62671623  1
  Hf  Hf26  1  0.88559831  0.09469004  0.11580378  1
  Hf  Hf27  1  0.39448108  0.40132636  0.23472553  1
  Hf  Hf28  1  -0.01179512  0.40338288  0.00571706  1
  Hf  Hf29  1  0.51109788  0.30604571  0.86985554  1
  Hf  Hf30  1  0.50429639  0.08842688  0.61210935  1
  Hf  Hf31  1  0.20005450  0.59303538  0.49147589  1
  Hf  Hf32  1  0.60240427  0.18705073  0.74875609  1
  Hf  Hf33  1  0.48309223  0.90557565  0.13700298  1
  Hf  Hf34  1  0.19829370  0.40169892  0.24811437  1
  Hf  Hf35  1  0.90007633  0.10703565  0.88778677  1
  Hf  Hf36  1  0.08894462  0.08666505  0.62061551  1
  Hf  Hf37  1  0.30832545  0.90538848  0.60628002  1
  Hf  Hf38  1  0.19567427  0.40041810  -0.00614180  1
  Hf  Hf39  1  0.88549072  0.50258673  0.86708212  1
  Zr  Zr40  1  0.09320715  0.29561253  0.87150016  1
  Zr  Zr41  1  0.01135774  0.79363511  0.00241018  1
  Zr  Zr42  1  0.00275484  0.20677119  0.01026801  1
  Zr  Zr43  1  -0.01086812  0.79306346  0.50142888  1
  Zr  Zr44  1  0.69220429  0.09884536  0.88569476  1
  Zr  Zr45  1  -0.00982716  0.19933308  0.50026427  1
  Zr  Zr46  1  0.30621347  0.30987565  0.37820788  1
  Zr  Zr47  1  0.59713976  0.79751902  -0.00140396  1
  Zr  Zr48  1  0.71086699  0.10222870  0.38234106  1
  Zr  Zr49  1  0.29226632  0.28227448  0.11614266  1
  Zr  Zr50  1  0.57583496  0.20039919  0.01616822  1
  Zr  Zr51  1  0.31239939  0.30837707  0.63880958  1
  Zr  Zr52  1  0.72005527  0.69807946  0.12152357  1
  Zr  Zr53  1  -0.01002009  0.60065242  0.24196133  1
  Zr  Zr54  1  0.30479853  0.09550166  0.62062863  1
  Zr  Zr55  1  0.80195137  0.60076161  0.50295272  1
  Zr  Zr56  1  0.19512367  0.20254505  0.50652994  1
  Zr  Zr57  1  0.80175749  0.80122197  0.74506897  1
  Zr  Zr58  1  0.19960861  0.40199759  0.50682531  1
  Zr  Zr59  1  0.89677333  0.90253602  0.88563460  1
  Zr  Zr60  1  -0.00946717  0.60206362  0.00247337  1
  Zr  Zr61  1  0.32166433  0.08265860  0.13128354  1
  Zr  Zr62  1  0.12277995  0.10627742  0.12409842  1
  Zr  Zr63  1  0.41139466  0.21998694  0.50355779  1
  Zr  Zr64  1  0.59665831  -0.00174566  0.01052487  1
  Zr  Zr65  1  0.00125513  0.20160655  0.23873179  1
  Zr  Zr66  1  0.50805545  0.92133639  0.85882871  1
  Zr  Zr67  1  0.29267686  0.70847625  0.86723643  1
  Zr  Zr68  1  0.59783420  0.58619949  -0.00439312  1
  Zr  Zr69  1  0.21302367  -0.01054659  -0.00287736  1
  Zr  Zr70  1  -0.00209115  -0.00585065  0.23586580  1
  Zr  Zr71  1  0.59894365  0.39756097  0.23201401  1
  Zr  Zr72  1  0.09295919  0.69599563  0.62860273  1
  Zr  Zr73  1  -0.00260124  0.41308425  0.50438654  1
  Zr  Zr74  1  0.51744154  0.10184833  0.39984934  1
  Zr  Zr75  1  0.78921521  0.40241234  0.50554797  1
  Zr  Zr76  1  0.09455033  0.69623967  0.37150106  1
  Zr  Zr77  1  0.09250342  0.90968621  0.38305225  1
  Zr  Zr78  1  0.10732220  0.50286557  0.12552448  1
  Zr  Zr79  1  0.59107803  0.19550456  0.23818622  1
  Ta  Ta80  1  0.50259281  0.69080199  0.36258391  1
  Ta  Ta81  1  0.20121231  -0.00937158  0.74704037  1
  Ta  Ta82  1  0.59208652  0.39659341  0.50916061  1
  Ta  Ta83  1  0.39820616  0.59821677  0.75359190  1
  Ta  Ta84  1  0.30832749  0.90372512  0.86218595  1
  Ta  Ta85  1  0.39358218  0.81549919  -0.00148985  1
  Ta  Ta86  1  0.19642726  0.60923926  -0.00539913  1
  Ta  Ta87  1  0.40241751  0.80909578  0.74285528  1
  Ta  Ta88  1  0.80128235  0.40214200  0.23578491  1
  Ta  Ta89  1  0.00800264  -0.00057153  0.00705367  1
  Ta  Ta90  1  0.88859960  0.30399700  0.87376249  1
  Ta  Ta91  1  0.60567268  0.79871750  0.75298634  1
  Ta  Ta92  1  0.40709046  0.78527650  0.48446074  1
  Ta  Ta93  1  0.70651962  0.89967002  0.37120902  1
  Ta  Ta94  1  0.20531483  0.79967518  0.48941023  1
  Ta  Ta95  1  -0.00950358  0.40121547  0.23818368  1
  Ta  Ta96  1  0.08964228  0.30112930  0.63938091  1
  Ta  Ta97  1  0.79211978  0.40832172  0.01085031  1
  Ta  Ta98  1  0.70735660  0.68997470  0.87485472  1
  Ta  Ta99  1  0.22318370  0.60535482  0.26154314  1
  Ta  Ta100  1  -0.00339025  0.80147582  0.24673728  1
  Ta  Ta101  1  0.60719415  0.39269209  0.01787523  1
  Ta  Ta102  1  0.89829545  0.69951521  0.86605164  1
  Ta  Ta103  1  0.60531089  -0.00390488  0.25116746  1
  Ta  Ta104  1  0.89005493  0.69982646  0.37442480  1
  Ta  Ta105  1  -0.00776188  0.39611558  0.75341117  1
  Ta  Ta106  1  0.30470042  0.51218933  0.63242087  1
  Ta  Ta107  1  0.78657777  0.80663319  0.49907386  1
  Ta  Ta108  1  0.09474457  0.69445265  0.85754685  1
  Ta  Ta109  1  0.41349199  0.00131841  0.27916975  1
  Ta  Ta110  1  0.39414632  0.19395255  0.26153373  1
  Ta  Ta111  1  0.80475775  0.79971227  0.25364220  1
  Ta  Ta112  1  0.40782715  0.01098838  -0.00692663  1
  Ta  Ta113  1  0.70363498  0.90090125  0.12820873  1
  Ta  Ta114  1  0.31205424  0.09428915  0.86005435  1
  Ta  Ta115  1  0.60348837  0.80143532  0.25380852  1
  Ta  Ta116  1  0.10728259  0.09676339  0.87930675  1
  Ta  Ta117  1  0.80657117  0.20418755  0.75107779  1
  Ta  Ta118  1  0.09804963  0.50587462  0.64123497  1
  Ta  Ta119  1  0.89483127  0.50340992  0.36778720  1
  Ti  Ti120  1  0.59125872  0.58202679  0.75255343  1
  Ti  Ti121  1  0.51360524  0.89281923  0.38692070  1
  Ti  Ti122  1  0.68930590  0.48640781  0.87132552  1
  Ti  Ti123  1  0.10249717  0.30040542  0.12701839  1
  Ti  Ti124  1  0.69701407  0.69900887  0.37154728  1
  Ti  Ti125  1  0.51123761  0.30399458  0.63710498  1
  Ti  Ti126  1  0.79906684  0.20956322  0.50593018  1
  Ti  Ti127  1  0.40191255  0.42535791  0.50638117  1
  Ti  Ti128  1  0.89964998  0.29797152  0.63675542  1
  Ti  Ti129  1  0.69770794  0.50614659  0.36131761  1
  Ti  Ti130  1  0.00232166  0.80779005  0.74503997  1
  Ti  Ti131  1  0.79496854  0.19986061  0.23794633  1
  Ti  Ti132  1  0.30064590  0.51834311  0.11629387  1
  Ti  Ti133  1  0.10653242  0.89955159  0.61258883  1
  Ti  Ti134  1  0.42098492  0.41180125  0.75212079  1
  Ti  Ti135  1  0.69797354  0.50993101  0.13246595  1
  Ti  Ti136  1  0.70548887  0.30278582  0.87364951  1
  Ti  Ti137  1  0.49905028  0.51195525  0.13270084  1
  Ti  Ti138  1  0.09369835  0.51019146  0.86496932  1
  Ti  Ti139  1  0.20018680  0.80315645  0.74131821  1
  Ti  Ti140  1  0.69806717  0.09381248  0.12431368  1
  Ti  Ti141  1  0.39886164  0.61409400  0.00094249  1
  Ti  Ti142  1  0.78888903  0.21608173  0.01034409  1
  Ti  Ti143  1  0.70450291  0.30774500  0.63643130  1
  Ti  Ti144  1  0.11705588  0.89677876  0.13016232  1
  Ti  Ti145  1  0.81251863  -0.00029698  0.50004697  1
  Ti  Ti146  1  0.70525549  0.89300242  0.88265388  1
  Ti  Ti147  1  0.69809500  0.90159008  0.61926645  1
  Ti  Ti148  1  0.00062190  0.01038938  0.75752248  1
  Ti  Ti149  1  0.10431906  0.10086745  0.37690122  1
  Ti  Ti150  1  0.88294937  0.51635633  0.12502904  1
  Ti  Ti151  1  0.90020072  0.69768147  0.63077020  1
  Ti  Ti152  1  0.09379429  0.49813680  0.36798753  1
  Ti  Ti153  1  0.29956927  0.09679598  0.39131522  1
  Ti  Ti154  1  0.89838899  0.10542342  0.62849510  1
  Ti  Ti155  1  0.50332530  0.30388272  0.37635185  1
  Ti  Ti156  1  0.20685599  0.79696206  -0.00307954  1
  Ti  Ti157  1  0.89477698  0.89822102  0.37406021  1
  Ti  Ti158  1  0.30312060  0.71061662  0.12593054  1
  Ti  Ti159  1  0.78357746  0.59427621  0.74637857  1
  Mo  Mo160  1  0.40870262  -0.00553015  0.48148047  1
  Mo  Mo161  1  0.68530493  0.49575496  0.63469057  1
  Mo  Mo162  1  0.50338630  0.50042978  0.87997006  1
  Mo  Mo163  1  0.39360729  0.19185017  -0.00412662  1
  Mo  Mo164  1  0.79860950  0.79054428  -0.01253936  1
  Mo  Mo165  1  0.30695757  0.69347505  0.38296047  1
  Mo  Mo166  1  0.79657370  0.59485066  -0.00894755  1
  Mo  Mo167  1  -0.00784410  0.19505312  0.75135176  1
  Mo  Mo168  1  0.19685927  -0.00137723  0.49332653  1
  Mo  Mo169  1  0.40716949  0.20084817  0.74273950  1
  Mo  Mo170  1  0.19917636  0.60059648  0.75108889  1
  Mo  Mo171  1  0.48897535  0.29753917  0.12602703  1
  Mo  Mo172  1  0.39624383  0.59671317  0.49805771  1
  Mo  Mo173  1  -0.00547345  0.00207434  0.49764274  1
  Mo  Mo174  1  0.60288214  0.60446305  0.25255626  1
  Mo  Mo175  1  0.79123237  -0.00433505  0.24588229  1
  Mo  Mo176  1  0.39858484  0.60021998  0.24126588  1
  Mo  Mo177  1  0.19452911  0.80011796  0.26153315  1
  Mo  Mo178  1  0.60552656  0.78683282  0.48623478  1
  Mo  Mo179  1  0.62297267  -0.02435417  0.49485437  1
  Mo  Mo180  1  0.60618423  -0.01073625  0.74254074  1
  Mo  Mo181  1  -0.00482526  0.58891964  0.49456081  1
  Mo  Mo182  1  0.40229404  0.00197502  0.74130661  1
  Mo  Mo183  1  0.21004879  0.18890241  -0.01200552  1
  Mo  Mo184  1  0.49521280  0.09521656  0.13995763  1
  Mo  Mo185  1  0.89410094  0.30677688  0.12738005  1
  Mo  Mo186  1  0.79544657  0.00037783  0.00095248  1
  Mo  Mo187  1  0.79308239  0.39513006  0.75077768  1
  Mo  Mo188  1  0.48788315  0.11177288  0.86381184  1
  Mo  Mo189  1  0.70591532  0.29654269  0.12456904  1
  Mo  Mo190  1  0.89872360  0.70085531  0.12843133  1
  Mo  Mo191  1  -0.00893515  0.60417330  0.75403030  1
  Mo  Mo192  1  0.30049563  0.50196911  0.37340522  1
  Mo  Mo193  1  0.79355812  0.59868321  0.25865493  1
  Mo  Mo194  1  0.29755345  0.88539447  0.12679083  1
  Mo  Mo195  1  0.49348395  0.49264586  0.62830305  1
  Mo  Mo196  1  0.61269454  0.22312123  0.51173949  1
  Mo  Mo197  1  0.21124966  0.19228809  0.26333845  1
  Mo  Mo198  1  0.60881001  0.39999926  0.74831567  1
  Mo  Mo199  1  0.30429291  0.90332917  0.39537106  1
