# generated using pymatgen
data_HfZrTaTiMo
_symmetry_space_group_name_H-M   'P 1'
_cell_length_a   15.20938206
_cell_length_b   15.21330821
_cell_length_c   16.83103275
_cell_angle_alpha   90.02204455
_cell_angle_beta   90.01831749
_cell_angle_gamma   90.08594958
_symmetry_Int_Tables_number   1
_chemical_formula_structural   HfZrTaTiMo
_chemical_formula_sum   'Hf40 Zr40 Ta40 Ti40 Mo40'
_cell_volume   3894.44392788
_cell_formula_units_Z   40
loop_
 _symmetry_equiv_pos_site_id
 _symmetry_equiv_pos_as_xyz
  1  'x, y, z'
loop_
 _atom_site_type_symbol
 _atom_site_label
 _atom_site_symmetry_multiplicity
 _atom_site_fract_x
 _atom_site_fract_y
 _atom_site_fract_z
 _atom_site_occupancy
  Hf  Hf0  1  0.51415017  0.89123786  0.60236340  1
  Hf  Hf1  1  0.79261644  0.61972317  0.00119655  1
  Hf  Hf2  1  0.30869591  0.09861801  0.87143464  1
  Hf  Hf3  1  0.58698848  0.60455982  0.50425927  1
  Hf  Hf4  1  0.89408046  0.09657544  0.36863945  1
  Hf  Hf5  1  0.61725070  0.01252050  0.48769960  1
  Hf  Hf6  1  0.30158823  0.88963208  0.60629334  1
  Hf  Hf7  1  0.68883886  0.71282923  0.62927345  1
  Hf  Hf8  1  0.58873469  0.40017069  0.01068337  1
  Hf  Hf9  1  0.27970520  0.29368583  0.86552405  1
  Hf  Hf10  1  0.40182705  0.59620177  -0.00300236  1
  Hf  Hf11  1  0.19450767  0.20736903  0.51545800  1
  Hf  Hf12  1  0.00814051  -0.00098391  -0.01083295  1
  Hf  Hf13  1  0.29484075  0.68669896  0.60890020  1
  Hf  Hf14  1  0.88045518  0.69519043  0.37314119  1
  Hf  Hf15  1  0.90004229  0.10666964  0.11024743  1
  Hf  Hf16  1  0.32210237  0.31218540  0.63445557  1
  Hf  Hf17  1  0.30885063  0.70862305  0.12068466  1
  Hf  Hf18  1  0.21110865  0.00175484  0.25782719  1
  Hf  Hf19  1  0.20011583  0.40484465  0.25181733  1
  Hf  Hf20  1  0.31140271  0.09240159  0.61842661  1
  Hf  Hf21  1  0.19217301  0.60086344  -0.00922416  1
  Hf  Hf22  1  0.79811595  0.41428070  0.00169628  1
  Hf  Hf23  1  0.20390942  0.81318714  0.25858335  1
  Hf  Hf24  1  0.00025218  0.40699842  0.24685940  1
  Hf  Hf25  1  0.60539239  -0.01906140  0.00380826  1
  Hf  Hf26  1  0.90474262  0.50110313  0.38737848  1
  Hf  Hf27  1  0.39147226  0.19733309  0.00640226  1
  Hf  Hf28  1  0.39914976  0.39693015  0.25085495  1
  Hf  Hf29  1  0.80396613  0.39933648  0.74559528  1
  Hf  Hf30  1  0.78296669  0.19033527  0.50092874  1
  Hf  Hf31  1  0.10114285  0.29753609  0.11874369  1
  Hf  Hf32  1  0.48974436  0.29327763  0.86519764  1
  Hf  Hf33  1  -0.00416941  0.60029571  0.75798186  1
  Hf  Hf34  1  0.71460554  0.08604916  0.88806866  1
  Hf  Hf35  1  0.09185625  0.50952470  0.11605784  1
  Hf  Hf36  1  0.01115510  0.81750449  0.77121741  1
  Hf  Hf37  1  0.01278947  -0.00592834  0.24140189  1
  Hf  Hf38  1  0.49589556  0.08716014  0.12301212  1
  Hf  Hf39  1  0.19195269  0.60453578  0.76320385  1
  Zr  Zr40  1  0.40806810  -0.02363956  0.25897463  1
  Zr  Zr41  1  0.69965828  0.51607723  0.37122159  1
  Zr  Zr42  1  0.60757273  -0.00486476  0.75666110  1
  Zr  Zr43  1  0.89467546  0.29930070  0.38395605  1
  Zr  Zr44  1  0.41492911  0.20931564  0.49714758  1
  Zr  Zr45  1  0.09488494  0.72342872  0.11637692  1
  Zr  Zr46  1  0.70435406  0.29929013  0.87969647  1
  Zr  Zr47  1  0.59744598  0.19429480  0.00339007  1
  Zr  Zr48  1  0.30146147  0.70020349  0.38452380  1
  Zr  Zr49  1  0.80672768  -0.01127098  0.23785899  1
  Zr  Zr50  1  0.18834489  -0.01554949  0.75583355  1
  Zr  Zr51  1  0.09494393  0.31016785  0.38305952  1
  Zr  Zr52  1  0.00275716  -0.01060205  0.49384254  1
  Zr  Zr53  1  0.19913047  0.20100206  0.25184891  1
  Zr  Zr54  1  0.48142008  0.49148976  0.62997302  1
  Zr  Zr55  1  0.00100594  0.20370711  0.74650014  1
  Zr  Zr56  1  0.09412599  0.70640127  0.62481653  1
  Zr  Zr57  1  0.70864304  0.29220060  0.11646941  1
  Zr  Zr58  1  0.39931320  0.19452283  0.24902391  1
  Zr  Zr59  1  0.20913954  0.41803857  0.51336940  1
  Zr  Zr60  1  0.59991829  0.39916933  0.24154834  1
  Zr  Zr61  1  0.40908509  -0.00893828  0.74673080  1
  Zr  Zr62  1  0.19298997  0.60597797  0.24989091  1
  Zr  Zr63  1  0.60249133  0.59061010  0.00224000  1
  Zr  Zr64  1  0.89625010  0.50828931  0.62449208  1
  Zr  Zr65  1  0.70257659  0.51545579  0.85786742  1
  Zr  Zr66  1  0.38591257  0.59187364  0.75547303  1
  Zr  Zr67  1  0.19074253  0.40628744  0.73419661  1
  Zr  Zr68  1  0.30820467  0.89217226  0.89201978  1
  Zr  Zr69  1  0.80298919  0.40262717  0.24666468  1
  Zr  Zr70  1  0.39256202  0.39839909  0.00556556  1
  Zr  Zr71  1  0.09682736  0.10897280  0.37544314  1
  Zr  Zr72  1  0.08837595  0.07651112  0.63392596  1
  Zr  Zr73  1  0.59459113  0.79822840  0.24998106  1
  Zr  Zr74  1  0.20090019  -0.00668041  0.48727249  1
  Zr  Zr75  1  0.61168886  -0.00127796  0.25210831  1
  Zr  Zr76  1  0.92085437  0.91001790  0.64018865  1
  Zr  Zr77  1  0.50197279  0.70311195  0.87766805  1
  Zr  Zr78  1  0.77709741  0.39685741  0.50823395  1
  Zr  Zr79  1  0.40373456  0.79267226  0.74139863  1
  Ta  Ta80  1  0.68607148  0.49900409  0.63149297  1
  Ta  Ta81  1  0.52426766  0.29464442  0.63018257  1
  Ta  Ta82  1  0.00601298  0.39810357  0.52180481  1
  Ta  Ta83  1  0.08284560  0.70353659  0.37558596  1
  Ta  Ta84  1  0.30087652  0.50119632  0.37493057  1
  Ta  Ta85  1  0.59162861  0.60843844  0.74192205  1
  Ta  Ta86  1  0.80156299  0.19610479  0.75141261  1
  Ta  Ta87  1  0.20114682  0.00753638  -0.00397808  1
  Ta  Ta88  1  0.88206993  0.90848693  0.88486906  1
  Ta  Ta89  1  0.10981249  0.11730347  0.87461479  1
  Ta  Ta90  1  0.09041319  0.48586612  0.87980804  1
  Ta  Ta91  1  0.89092792  0.71032404  0.63748183  1
  Ta  Ta92  1  0.70135054  0.10663631  0.63174857  1
  Ta  Ta93  1  0.59948333  0.19905186  0.24122132  1
  Ta  Ta94  1  0.71013077  0.88855647  0.37856135  1
  Ta  Ta95  1  0.79223256  0.19611585  0.24978701  1
  Ta  Ta96  1  0.91066159  0.30817616  0.87956111  1
  Ta  Ta97  1  -0.01028914  0.20362198  0.24160527  1
  Ta  Ta98  1  0.51218464  0.10037959  0.61643977  1
  Ta  Ta99  1  0.79218962  0.61251640  0.51217394  1
  Ta  Ta100  1  0.81025326  -0.00254748  0.50086410  1
  Ta  Ta101  1  0.90402687  0.30185135  0.11494419  1
  Ta  Ta102  1  0.90659482  0.88994527  0.37047241  1
  Ta  Ta103  1  0.80394610  0.80552046  0.50555141  1
  Ta  Ta104  1  0.71370908  0.91009389  0.62165646  1
  Ta  Ta105  1  0.29613536  0.90053755  0.10902146  1
  Ta  Ta106  1  0.49606272  0.50756495  0.13742983  1
  Ta  Ta107  1  0.31282018  0.09947725  0.38803036  1
  Ta  Ta108  1  -0.01112586  0.19379209  0.51738640  1
  Ta  Ta109  1  0.29773097  0.50385344  0.12640166  1
  Ta  Ta110  1  0.40615412  0.60821752  0.25467302  1
  Ta  Ta111  1  0.91269550  0.89063163  0.10859774  1
  Ta  Ta112  1  0.88141474  0.70438632  0.86453886  1
  Ta  Ta113  1  0.49730771  0.49100510  0.86302590  1
  Ta  Ta114  1  0.51507070  0.11099533  0.37627361  1
  Ta  Ta115  1  0.89291553  0.70506689  0.12564082  1
  Ta  Ta116  1  -0.00731658  0.79725124  0.49873449  1
  Ta  Ta117  1  0.61804000  0.78482059  0.00285926  1
  Ta  Ta118  1  -0.01380127  0.60670125  0.24795073  1
  Ta  Ta119  1  0.89043296  0.29065746  0.62346309  1
  Ti  Ti120  1  0.18594245  0.79825822  0.48742049  1
  Ti  Ti121  1  0.29520304  0.70602326  0.88764149  1
  Ti  Ti122  1  0.39296153  0.59100297  0.49540579  1
  Ti  Ti123  1  0.79124075  0.80951056  0.75440342  1
  Ti  Ti124  1  0.01216671  0.20909164  -0.00719403  1
  Ti  Ti125  1  0.00124593  0.79542617  -0.01960463  1
  Ti  Ti126  1  0.59895274  0.80687294  0.75506276  1
  Ti  Ti127  1  0.79842248  0.78951292  0.24681014  1
  Ti  Ti128  1  0.50123314  0.09023428  0.88224426  1
  Ti  Ti129  1  0.00139505  0.60279211  0.50698822  1
  Ti  Ti130  1  0.29730440  0.29900436  0.12382907  1
  Ti  Ti131  1  0.67719363  0.28977683  0.37518214  1
  Ti  Ti132  1  0.41046031  0.19229946  0.74219686  1
  Ti  Ti133  1  0.70853459  0.09281892  0.11274548  1
  Ti  Ti134  1  0.41517278  0.40259012  0.48893746  1
  Ti  Ti135  1  0.48785861  0.88257245  0.11331623  1
  Ti  Ti136  1  0.29460376  0.09300989  0.11825605  1
  Ti  Ti137  1  0.71431872  0.88027591  0.11768651  1
  Ti  Ti138  1  0.80900210  0.00521107  0.75204318  1
  Ti  Ti139  1  -0.01028690  0.60597279  -0.01266307  1
  Ti  Ti140  1  0.60544768  0.19191827  0.75726689  1
  Ti  Ti141  1  0.00316421  0.39827997  0.73774678  1
  Ti  Ti142  1  0.19830505  0.19886320  0.73319941  1
  Ti  Ti143  1  0.32678234  0.89067658  0.39361152  1
  Ti  Ti144  1  0.10575614  0.09955663  0.11932654  1
  Ti  Ti145  1  0.50634954  0.69785149  0.12822842  1
  Ti  Ti146  1  0.50278450  0.89488118  0.88872466  1
  Ti  Ti147  1  0.19477004  0.39237986  -0.00187075  1
  Ti  Ti148  1  0.59682017  0.39572409  0.75131261  1
  Ti  Ti149  1  0.20226870  0.79595652  0.75674730  1
  Ti  Ti150  1  0.29685186  0.48871764  0.87571476  1
  Ti  Ti151  1  0.50467510  0.71145180  0.37545435  1
  Ti  Ti152  1  0.90013531  0.11216781  0.88752509  1
  Ti  Ti153  1  -0.00310483  0.40693848  -0.00091736  1
  Ti  Ti154  1  0.50131890  0.50143400  0.36938297  1
  Ti  Ti155  1  0.89701425  0.50233519  0.87094668  1
  Ti  Ti156  1  0.30301279  0.30078961  0.38005345  1
  Ti  Ti157  1  0.89209794  0.50971469  0.12382750  1
  Ti  Ti158  1  -0.00278416  0.80280401  0.24762898  1
  Ti  Ti159  1  0.09959460  0.51094918  0.38205673  1
  Mo  Mo160  1  0.79511428  0.60382112  0.23906924  1
  Mo  Mo161  1  -0.01378239  0.01466941  0.78570121  1
  Mo  Mo162  1  0.50046681  0.30472060  0.37188412  1
  Mo  Mo163  1  0.88650641  0.09284944  0.63036203  1
  Mo  Mo164  1  0.11505522  0.88133574  0.61961851  1
  Mo  Mo165  1  0.09590079  0.29649678  0.62102769  1
  Mo  Mo166  1  0.61585011  0.79753247  0.49061063  1
  Mo  Mo167  1  0.69979526  0.69642777  0.13165733  1
  Mo  Mo168  1  0.41837688  0.78231998  0.50400913  1
  Mo  Mo169  1  0.50531003  0.89764803  0.39296802  1
  Mo  Mo170  1  0.40000073  0.79845370  0.25017930  1
  Mo  Mo171  1  0.09768138  0.88884811  0.36908884  1
  Mo  Mo172  1  0.69717087  0.70356298  0.38074828  1
  Mo  Mo173  1  0.41366382  -0.00039835  0.48912566  1
  Mo  Mo174  1  0.10638875  0.90832363  0.11585700  1
  Mo  Mo175  1  0.70450299  0.10115333  0.36492837  1
  Mo  Mo176  1  0.40033752  0.38953963  0.75680317  1
  Mo  Mo177  1  0.80610898  0.80072403  -0.00032342  1
  Mo  Mo178  1  0.29770791  0.50676196  0.62132276  1
  Mo  Mo179  1  0.09333406  0.30663895  0.87776239  1
  Mo  Mo180  1  0.69620600  0.29817140  0.63897456  1
  Mo  Mo181  1  0.10264670  0.90419159  0.88486978  1
  Mo  Mo182  1  0.19798985  0.19869214  0.00391310  1
  Mo  Mo183  1  0.60601079  0.21179242  0.49895164  1
  Mo  Mo184  1  0.81451750  0.20489257  -0.00559691  1
  Mo  Mo185  1  0.49578119  0.69938392  0.62216195  1
  Mo  Mo186  1  0.40944720  0.79622777  0.00324950  1
  Mo  Mo187  1  0.80141787  -0.00475538  0.01006934  1
  Mo  Mo188  1  0.09687264  0.50972791  0.62406693  1
  Mo  Mo189  1  0.18775566  0.60326431  0.48768932  1
  Mo  Mo190  1  0.79336264  0.60981474  0.74019066  1
  Mo  Mo191  1  0.19282018  0.80674406  -0.00393967  1
  Mo  Mo192  1  0.59258221  0.60319195  0.25329565  1
  Mo  Mo193  1  0.58981465  0.39595168  0.49731921  1
  Mo  Mo194  1  0.70133694  0.51293029  0.13485817  1
  Mo  Mo195  1  0.49382175  0.29577521  0.12730824  1
  Mo  Mo196  1  0.40456695  -0.00111927  0.00353059  1
  Mo  Mo197  1  0.09446500  0.69952122  0.88240914  1
  Mo  Mo198  1  0.69996174  0.88629608  0.87772758  1
  Mo  Mo199  1  0.69877659  0.71118608  0.86142384  1
