# generated using pymatgen
data_HfZrTaTiMo
_symmetry_space_group_name_H-M   'P 1'
_cell_length_a   15.21067556
_cell_length_b   15.21324382
_cell_length_c   16.85075829
_cell_angle_alpha   89.93183238
_cell_angle_beta   90.01323876
_cell_angle_gamma   89.99683482
_symmetry_Int_Tables_number   1
_chemical_formula_structural   HfZrTaTiMo
_chemical_formula_sum   'Hf40 Zr40 Ta40 Ti40 Mo40'
_cell_volume   3899.32521369
_cell_formula_units_Z   40
loop_
 _symmetry_equiv_pos_site_id
 _symmetry_equiv_pos_as_xyz
  1  'x, y, z'
loop_
 _atom_site_type_symbol
 _atom_site_label
 _atom_site_symmetry_multiplicity
 _atom_site_fract_x
 _atom_site_fract_y
 _atom_site_fract_z
 _atom_site_occupancy
  Hf  Hf0  1  0.02395735  0.39801394  0.50645457  1
  Hf  Hf1  1  0.80662912  0.00461658  0.49289609  1
  Hf  Hf2  1  0.79066023  0.20988064  0.26615595  1
  Hf  Hf3  1  0.01116531  0.79583747  0.74914176  1
  Hf  Hf4  1  0.40927845  0.58439686  0.76365974  1
  Hf  Hf5  1  0.38849561  0.80005742  0.24132119  1
  Hf  Hf6  1  0.09386260  0.69754859  0.38145198  1
  Hf  Hf7  1  0.11682859  0.11298765  0.87667316  1
  Hf  Hf8  1  -0.00308407  0.20998032  0.74857539  1
  Hf  Hf9  1  0.11223932  0.51519160  0.62579610  1
  Hf  Hf10  1  0.30666253  0.08182470  0.63054776  1
  Hf  Hf11  1  0.30493881  0.09627017  0.12705551  1
  Hf  Hf12  1  0.80180497  0.21351061  0.00608411  1
  Hf  Hf13  1  0.41402309  -0.01461808  0.00840346  1
  Hf  Hf14  1  0.82069767  0.41645311  0.48496159  1
  Hf  Hf15  1  0.30661020  0.89020156  0.87492852  1
  Hf  Hf16  1  0.70037435  0.70640472  0.87318958  1
  Hf  Hf17  1  0.29008530  0.28013565  0.87969520  1
  Hf  Hf18  1  0.92229907  0.29846081  0.36855957  1
  Hf  Hf19  1  0.01654834  -0.00735374  0.25551530  1
  Hf  Hf20  1  0.39699810  0.59105780  -0.00347074  1
  Hf  Hf21  1  0.38821307  0.79575935  0.74306179  1
  Hf  Hf22  1  0.49312339  0.30674012  0.63233400  1
  Hf  Hf23  1  0.29005952  0.67434401  0.61770896  1
  Hf  Hf24  1  0.90555602  0.90323776  0.62946318  1
  Hf  Hf25  1  0.79487954  0.79603423  0.50245002  1
  Hf  Hf26  1  -0.00282299  0.80494104  0.49956519  1
  Hf  Hf27  1  0.88411934  0.10694780  0.87121780  1
  Hf  Hf28  1  0.30272123  0.46971919  0.37053743  1
  Hf  Hf29  1  0.70307397  0.71670888  0.12762669  1
  Hf  Hf30  1  0.48753221  0.30192846  0.86528598  1
  Hf  Hf31  1  0.71540114  0.50222553  0.89080117  1
  Hf  Hf32  1  0.89324540  0.10454567  0.62226233  1
  Hf  Hf33  1  0.88275611  0.89739195  0.14505263  1
  Hf  Hf34  1  0.49958085  0.69153945  0.61849494  1
  Hf  Hf35  1  0.59374744  0.79947721  0.74412604  1
  Hf  Hf36  1  0.59909392  0.42466517  0.76001510  1
  Hf  Hf37  1  0.02178176  0.40746804  0.24251468  1
  Hf  Hf38  1  0.20210918  -0.01978481  0.75244489  1
  Hf  Hf39  1  0.20160046  0.20024482  0.73371374  1
  Zr  Zr40  1  0.19179179  0.19891103  0.51464898  1
  Zr  Zr41  1  -0.00738652  0.00028281  0.00286073  1
  Zr  Zr42  1  0.89075970  0.68408901  0.37032558  1
  Zr  Zr43  1  0.20280403  0.40354142  0.73969645  1
  Zr  Zr44  1  0.69505585  0.51972261  0.38721268  1
  Zr  Zr45  1  0.78482769  0.00699875  0.00249913  1
  Zr  Zr46  1  0.69208817  0.71488763  0.36688793  1
  Zr  Zr47  1  0.69609411  0.91622174  0.36369266  1
  Zr  Zr48  1  0.20178115  0.79104353  0.01437694  1
  Zr  Zr49  1  0.51858488  0.10014041  0.88106049  1
  Zr  Zr50  1  0.40264553  0.18913355  0.25610974  1
  Zr  Zr51  1  0.69579087  0.90752174  0.62342898  1
  Zr  Zr52  1  0.09824730  0.88878583  0.88463811  1
  Zr  Zr53  1  0.79729956  0.59567411  0.23803254  1
  Zr  Zr54  1  -0.00398125  0.00109123  0.75971931  1
  Zr  Zr55  1  0.69779802  0.29060229  0.87728486  1
  Zr  Zr56  1  0.13003072  0.31110463  0.37209627  1
  Zr  Zr57  1  0.90236957  0.89218827  0.35997210  1
  Zr  Zr58  1  0.79554629  0.80410490  -0.00044284  1
  Zr  Zr59  1  0.20945823  0.01035714  -0.00249151  1
  Zr  Zr60  1  0.59845432  0.61349440  0.00040580  1
  Zr  Zr61  1  0.60185657  0.41213640  0.25063230  1
  Zr  Zr62  1  0.49975787  0.68588671  0.37599138  1
  Zr  Zr63  1  0.29449118  0.48626486  0.88041252  1
  Zr  Zr64  1  -0.00582584  0.59524861  0.75101846  1
  Zr  Zr65  1  0.50548044  0.10420161  0.60502517  1
  Zr  Zr66  1  0.69695415  0.30835502  0.60914776  1
  Zr  Zr67  1  0.70662582  0.31815691  0.12595436  1
  Zr  Zr68  1  0.19103336  0.58451946  0.25432662  1
  Zr  Zr69  1  0.29283453  0.69445397  0.37874278  1
  Zr  Zr70  1  0.68927710  0.11304814  0.13484036  1
  Zr  Zr71  1  0.38597988  0.21303869  0.49378603  1
  Zr  Zr72  1  -0.00808300  0.78936690  0.01332938  1
  Zr  Zr73  1  0.29015797  0.67916742  0.12483307  1
  Zr  Zr74  1  0.00935599  0.20493956  0.00174065  1
  Zr  Zr75  1  0.69620581  0.51041828  0.61393578  1
  Zr  Zr76  1  0.90142865  0.10483230  0.14716604  1
  Zr  Zr77  1  0.49552846  0.89708991  0.37860336  1
  Zr  Zr78  1  -0.00012875  0.40018362  0.00818599  1
  Zr  Zr79  1  0.69423391  0.91717747  0.86646610  1
  Ta  Ta80  1  0.79265541  0.20646803  0.74189241  1
  Ta  Ta81  1  0.49863063  0.70080770  0.12717502  1
  Ta  Ta82  1  0.09962880  0.10707344  0.36923423  1
  Ta  Ta83  1  0.40458622  0.58104563  0.24306773  1
  Ta  Ta84  1  0.00300346  0.78458926  0.23649524  1
  Ta  Ta85  1  0.69629968  0.11055410  0.60624625  1
  Ta  Ta86  1  0.59378174  0.39855031  -0.00464777  1
  Ta  Ta87  1  0.10725861  0.90541214  0.12546733  1
  Ta  Ta88  1  0.49031899  0.31604441  0.37661184  1
  Ta  Ta89  1  0.49358803  0.50097445  0.62680660  1
  Ta  Ta90  1  0.21466201  -0.00427732  0.25076631  1
  Ta  Ta91  1  0.49815865  0.90011760  0.86919009  1
  Ta  Ta92  1  -0.00024064  0.39962194  0.74467077  1
  Ta  Ta93  1  0.80853025  0.40233351  0.74879973  1
  Ta  Ta94  1  0.19175926  0.80423225  0.24332619  1
  Ta  Ta95  1  -0.01069249  0.59272761  0.50217810  1
  Ta  Ta96  1  0.39749389  0.57364769  0.49567511  1
  Ta  Ta97  1  0.39725505  0.38928590  0.23174514  1
  Ta  Ta98  1  0.69943724  0.69708281  0.62778228  1
  Ta  Ta99  1  0.81243436  0.41045572  0.26499745  1
  Ta  Ta100  1  0.50310343  0.10135669  0.39224905  1
  Ta  Ta101  1  0.48641807  0.90652528  0.61484074  1
  Ta  Ta102  1  0.50484867  0.28665522  0.11944246  1
  Ta  Ta103  1  0.40121072  0.38800672  0.00962051  1
  Ta  Ta104  1  -0.00272097  0.19649081  0.50261858  1
  Ta  Ta105  1  0.22846362  0.39947274  0.52110004  1
  Ta  Ta106  1  0.10751866  0.11026215  0.13380733  1
  Ta  Ta107  1  0.90203205  0.09919564  0.36609895  1
  Ta  Ta108  1  0.29077885  0.88365049  0.61713237  1
  Ta  Ta109  1  0.90008279  0.30528329  0.62111157  1
  Ta  Ta110  1  0.89584538  0.69359364  0.62526033  1
  Ta  Ta111  1  0.29041879  0.69407093  0.87642275  1
  Ta  Ta112  1  0.10272344  0.70708522  0.61271534  1
  Ta  Ta113  1  0.09281644  0.08874379  0.62407828  1
  Ta  Ta114  1  0.40597326  0.79393602  0.00911970  1
  Ta  Ta115  1  0.39080139  0.79328625  0.50053633  1
  Ta  Ta116  1  0.10220267  0.68487775  0.87963251  1
  Ta  Ta117  1  0.38280136  -0.00751114  0.48974648  1
  Ta  Ta118  1  0.10750563  0.90084891  0.61393048  1
  Ta  Ta119  1  0.59148692  0.01051812  0.73871978  1
  Ti  Ti120  1  0.58939992  0.80851224  0.24279870  1
  Ti  Ti121  1  0.69224144  0.31109780  0.38786220  1
  Ti  Ti122  1  0.50785876  0.09334875  0.11866783  1
  Ti  Ti123  1  0.00951127  0.00586111  0.48879078  1
  Ti  Ti124  1  0.20200197  0.20641176  0.24790579  1
  Ti  Ti125  1  0.12291015  0.90176349  0.38312139  1
  Ti  Ti126  1  0.57751381  0.41851513  0.49180779  1
  Ti  Ti127  1  0.50186270  0.49412270  0.11808932  1
  Ti  Ti128  1  0.32301314  0.09164652  0.85789621  1
  Ti  Ti129  1  0.19918516  0.39244975  0.00918967  1
  Ti  Ti130  1  0.60321820  0.19956929  0.74268276  1
  Ti  Ti131  1  0.11762774  0.50415096  0.11606596  1
  Ti  Ti132  1  0.09931293  0.31039243  0.87500019  1
  Ti  Ti133  1  -0.00293921  0.59459567  0.23958090  1
  Ti  Ti134  1  0.89282202  0.89433551  0.86976454  1
  Ti  Ti135  1  0.90826399  0.30139411  0.14186501  1
  Ti  Ti136  1  0.59452250  0.60236267  0.23677872  1
  Ti  Ti137  1  0.90538019  0.50281077  0.88332607  1
  Ti  Ti138  1  0.58940818  0.82571904  0.00810786  1
  Ti  Ti139  1  0.89803145  0.31373524  0.87311821  1
  Ti  Ti140  1  0.89626779  0.50127027  0.62675231  1
  Ti  Ti141  1  0.89236065  0.49586787  0.11711928  1
  Ti  Ti142  1  0.29069618  0.09320099  0.37631221  1
  Ti  Ti143  1  0.78761488  0.01187610  0.74586419  1
  Ti  Ti144  1  0.80441679  0.79532229  0.74706791  1
  Ti  Ti145  1  0.59408509  0.80399686  0.50584424  1
  Ti  Ti146  1  0.59264919  0.21101548  0.26682640  1
  Ti  Ti147  1  0.49682611  0.70535644  0.87673354  1
  Ti  Ti148  1  0.70523613  0.50596788  0.10567111  1
  Ti  Ti149  1  0.78983599  0.59734813  0.75074997  1
  Ti  Ti150  1  0.80418640  0.20904912  0.48844299  1
  Ti  Ti151  1  0.69083432  0.10958747  0.38853696  1
  Ti  Ti152  1  0.39798068  0.19171952  0.00092261  1
  Ti  Ti153  1  0.00359415  0.60072183  0.01076663  1
  Ti  Ti154  1  0.58877987  0.01799775  0.25547499  1
  Ti  Ti155  1  0.40180639  -0.00813972  0.25233669  1
  Ti  Ti156  1  0.68697233  0.91812014  0.14209872  1
  Ti  Ti157  1  0.10050628  0.50011563  0.87634475  1
  Ti  Ti158  1  0.89806941  0.69264416  0.87570261  1
  Ti  Ti159  1  0.29451803  0.29251429  0.11696646  1
  Mo  Mo160  1  0.09428912  0.69320326  0.13120359  1
  Mo  Mo161  1  0.60146314  0.21361264  0.48512687  1
  Mo  Mo162  1  0.30696715  0.48502812  0.11804528  1
  Mo  Mo163  1  0.49613294  0.50060367  0.36516738  1
  Mo  Mo164  1  0.40836258  0.18456675  0.74811109  1
  Mo  Mo165  1  0.29666606  0.89969626  0.37449072  1
  Mo  Mo166  1  0.59467494  0.00142289  0.50100892  1
  Mo  Mo167  1  0.30425479  0.28895128  0.36888625  1
  Mo  Mo168  1  0.19441354  -0.00040106  0.49700520  1
  Mo  Mo169  1  0.10736831  0.29650548  0.13002272  1
  Mo  Mo170  1  0.59311166  0.61001818  0.50292654  1
  Mo  Mo171  1  0.39873524  0.39003204  0.75356778  1
  Mo  Mo172  1  0.18847948  0.58801083  -0.00320479  1
  Mo  Mo173  1  0.69787734  0.10964812  0.86545202  1
  Mo  Mo174  1  0.19717962  0.78426697  0.74828763  1
  Mo  Mo175  1  0.60228921  -0.00187010  0.00484918  1
  Mo  Mo176  1  0.79037821  0.01123772  0.26298880  1
  Mo  Mo177  1  0.89903916  0.68896877  0.12802275  1
  Mo  Mo178  1  0.31445170  0.49575432  0.63186776  1
  Mo  Mo179  1  0.09375888  0.29860937  0.62427942  1
  Mo  Mo180  1  0.20077270  0.79874426  0.49784790  1
  Mo  Mo181  1  0.19775065  0.61124563  0.75652861  1
  Mo  Mo182  1  0.21366603  0.39486359  0.23050243  1
  Mo  Mo183  1  0.19099183  0.58524407  0.49192509  1
  Mo  Mo184  1  0.91831127  0.50088772  0.37134854  1
  Mo  Mo185  1  0.40316233  0.39854936  0.50341594  1
  Mo  Mo186  1  0.50486650  0.90177472  0.13582054  1
  Mo  Mo187  1  0.30905089  0.29606583  0.64045396  1
  Mo  Mo188  1  0.00969010  0.19928336  0.25125555  1
  Mo  Mo189  1  0.81687066  0.60366573  0.00662696  1
  Mo  Mo190  1  0.79234858  0.80212466  0.24405984  1
  Mo  Mo191  1  0.30134700  0.89782106  0.12857379  1
  Mo  Mo192  1  0.60278590  0.60653425  0.75929475  1
  Mo  Mo193  1  0.59005552  0.20399198  0.00425745  1
  Mo  Mo194  1  0.40986583  -0.00994077  0.74613404  1
  Mo  Mo195  1  0.80647605  0.40465649  0.00063292  1
  Mo  Mo196  1  0.20595269  0.20478592  0.00644178  1
  Mo  Mo197  1  0.10336848  0.50429729  0.38353057  1
  Mo  Mo198  1  0.50381533  0.49669114  0.88867919  1
  Mo  Mo199  1  0.80364471  0.60602995  0.50752153  1
