# generated using pymatgen
data_HfZrTaTiMo
_symmetry_space_group_name_H-M   'P 1'
_cell_length_a   15.21014214
_cell_length_b   15.21667021
_cell_length_c   16.82386733
_cell_angle_alpha   89.97973021
_cell_angle_beta   89.95927392
_cell_angle_gamma   90.04326804
_symmetry_Int_Tables_number   1
_chemical_formula_structural   HfZrTaTiMo
_chemical_formula_sum   'Hf40 Zr40 Ta40 Ti40 Mo40'
_cell_volume   3893.84334277
_cell_formula_units_Z   40
loop_
 _symmetry_equiv_pos_site_id
 _symmetry_equiv_pos_as_xyz
  1  'x, y, z'
loop_
 _atom_site_type_symbol
 _atom_site_label
 _atom_site_symmetry_multiplicity
 _atom_site_fract_x
 _atom_site_fract_y
 _atom_site_fract_z
 _atom_site_occupancy
  Hf  Hf0  1  0.49789437  0.49668749  0.35879963  1
  Hf  Hf1  1  0.00088011  0.20368936  0.26507337  1
  Hf  Hf2  1  0.41582397  0.40477411  0.00509396  1
  Hf  Hf3  1  0.30650504  0.10179003  0.13293917  1
  Hf  Hf4  1  0.90227815  0.50116049  0.37491711  1
  Hf  Hf5  1  0.78230519  0.40495097  0.00132686  1
  Hf  Hf6  1  0.79638214  0.58060460  0.51278371  1
  Hf  Hf7  1  0.39328706  0.20908676  0.51492301  1
  Hf  Hf8  1  0.00311783  0.79870781  0.72418646  1
  Hf  Hf9  1  0.90232999  0.90468932  0.86255448  1
  Hf  Hf10  1  0.10173521  0.89900525  0.86542594  1
  Hf  Hf11  1  0.90083097  0.90863167  0.13539255  1
  Hf  Hf12  1  0.61987150  0.39645560  0.50138200  1
  Hf  Hf13  1  0.60090989  0.19930644  0.50212476  1
  Hf  Hf14  1  0.90367707  0.69890793  0.12774224  1
  Hf  Hf15  1  0.89745878  0.31243813  0.37824760  1
  Hf  Hf16  1  0.29705831  0.10288145  0.86279547  1
  Hf  Hf17  1  0.39492047  0.80298351  -0.00436616  1
  Hf  Hf18  1  0.90324118  0.70120972  0.38436353  1
  Hf  Hf19  1  0.68823131  0.90237456  0.61014638  1
  Hf  Hf20  1  0.09676296  0.30147044  0.12338498  1
  Hf  Hf21  1  0.29950273  0.31436786  0.13350944  1
  Hf  Hf22  1  0.80295256  0.60832433  0.73628469  1
  Hf  Hf23  1  0.79285795  0.00037645  -0.00711873  1
  Hf  Hf24  1  0.01497325  0.59372496  0.25249781  1
  Hf  Hf25  1  -0.00278180  0.00322050  -0.00069060  1
  Hf  Hf26  1  0.29628100  0.51849340  0.39153625  1
  Hf  Hf27  1  0.38742543  0.40172678  0.73004514  1
  Hf  Hf28  1  0.68739569  0.49120236  0.86134725  1
  Hf  Hf29  1  0.20500942  -0.00148671  0.50091986  1
  Hf  Hf30  1  0.20754615  0.59524790  0.73899669  1
  Hf  Hf31  1  0.37432847  0.59844051  0.23738126  1
  Hf  Hf32  1  0.00597754  0.01038935  0.48533240  1
  Hf  Hf33  1  0.50418604  0.30409766  0.86096856  1
  Hf  Hf34  1  0.20665692  0.79913429  0.73767716  1
  Hf  Hf35  1  0.49578740  0.29324014  0.36132052  1
  Hf  Hf36  1  0.50440330  0.91400634  0.88678761  1
  Hf  Hf37  1  -0.00117096  0.39196851  -0.01217123  1
  Hf  Hf38  1  0.90179453  0.11145378  0.62185220  1
  Hf  Hf39  1  0.39726254  0.19663683  0.00383836  1
  Zr  Zr40  1  0.89855859  0.31562745  0.62047359  1
  Zr  Zr41  1  0.19414470  0.41913013  0.25817080  1
  Zr  Zr42  1  0.89970534  0.29071499  0.12819173  1
  Zr  Zr43  1  0.79813231  -0.00237611  0.74844071  1
  Zr  Zr44  1  0.50331693  0.70580145  0.12368469  1
  Zr  Zr45  1  0.10748509  0.49833121  0.86877184  1
  Zr  Zr46  1  0.10013110  0.70529557  0.12172704  1
  Zr  Zr47  1  0.81280649  0.80240334  0.00223278  1
  Zr  Zr48  1  0.50862638  0.08760766  0.62376287  1
  Zr  Zr49  1  0.19281788  0.79514371  0.51172426  1
  Zr  Zr50  1  0.59357542  0.17520919  0.24614466  1
  Zr  Zr51  1  0.10214406  0.47954203  0.61668777  1
  Zr  Zr52  1  0.67966274  0.69248939  0.61900690  1
  Zr  Zr53  1  0.48719272  0.70389128  0.36089315  1
  Zr  Zr54  1  0.41256135  0.61378345  0.75452223  1
  Zr  Zr55  1  0.19742641  0.60652203  -0.00896541  1
  Zr  Zr56  1  0.29602344  0.30982173  0.87200087  1
  Zr  Zr57  1  0.89551988  0.50816569  0.87451730  1
  Zr  Zr58  1  0.79186694  0.80525191  0.25476844  1
  Zr  Zr59  1  0.70439416  0.49392270  0.35489356  1
  Zr  Zr60  1  0.31246172  0.10222485  0.37786902  1
  Zr  Zr61  1  -0.00043273  0.00040480  0.26557711  1
  Zr  Zr62  1  0.19339085  0.21961466  0.73898270  1
  Zr  Zr63  1  0.91562811  0.70140310  0.87344098  1
  Zr  Zr64  1  0.70973181  0.68865182  0.88920379  1
  Zr  Zr65  1  0.52165966  0.51630978  0.63148538  1
  Zr  Zr66  1  0.20402295  0.00815616  -0.00408049  1
  Zr  Zr67  1  0.60209399  0.57062132  0.01453345  1
  Zr  Zr68  1  0.90325611  0.90520760  0.61007666  1
  Zr  Zr69  1  0.09417649  0.10032022  0.12654005  1
  Zr  Zr70  1  0.41509489  0.40322971  0.51026290  1
  Zr  Zr71  1  0.41233647  0.00431558  0.25101875  1
  Zr  Zr72  1  0.09437723  0.49305040  0.40242456  1
  Zr  Zr73  1  0.20338731  0.78803481  0.26073964  1
  Zr  Zr74  1  0.79295212  0.20721327  0.49840726  1
  Zr  Zr75  1  0.68643071  0.08988533  0.87439241  1
  Zr  Zr76  1  0.20124351  0.19872183  0.26508284  1
  Zr  Zr77  1  0.69959023  0.30862925  0.14302138  1
  Zr  Zr78  1  0.49322719  0.10657553  0.86871916  1
  Zr  Zr79  1  0.60057957  0.79055370  0.76282600  1
  Ta  Ta80  1  0.60288657  0.21024197  0.00878146  1
  Ta  Ta81  1  0.32082657  0.70858430  0.62154933  1
  Ta  Ta82  1  0.18930726  0.19401359  0.49778416  1
  Ta  Ta83  1  0.10276462  0.49802277  0.11999031  1
  Ta  Ta84  1  0.00163655  0.79952039  0.26285617  1
  Ta  Ta85  1  0.49262431  0.87989529  0.62181696  1
  Ta  Ta86  1  0.10837950  0.68663266  0.39052944  1
  Ta  Ta87  1  0.60959547  0.81046442  -0.00386629  1
  Ta  Ta88  1  0.29650985  0.90056141  0.12484924  1
  Ta  Ta89  1  0.30168457  0.90613180  0.86987715  1
  Ta  Ta90  1  -0.00834078  0.20181066  0.76337686  1
  Ta  Ta91  1  0.70555608  0.09700865  0.12287445  1
  Ta  Ta92  1  0.30959018  0.50346741  0.87403518  1
  Ta  Ta93  1  0.88925286  0.90123720  0.38426773  1
  Ta  Ta94  1  0.19592819  -0.00004933  0.73860673  1
  Ta  Ta95  1  0.49410795  0.29267596  0.14188125  1
  Ta  Ta96  1  0.29489042  0.70421098  0.11759522  1
  Ta  Ta97  1  0.89911842  0.49284931  0.13062006  1
  Ta  Ta98  1  0.10405724  0.89967847  0.13129154  1
  Ta  Ta99  1  0.31072805  0.88812904  0.38088288  1
  Ta  Ta100  1  0.70450316  0.29555467  0.35355249  1
  Ta  Ta101  1  0.80202427  0.19912260  0.76297677  1
  Ta  Ta102  1  0.69410248  0.90235130  0.12519687  1
  Ta  Ta103  1  0.69650681  0.69914586  0.37797286  1
  Ta  Ta104  1  0.00205082  0.59820694  0.72729219  1
  Ta  Ta105  1  0.58504451  0.79391915  0.49090436  1
  Ta  Ta106  1  0.40383762  0.80632784  0.76110175  1
  Ta  Ta107  1  0.69381287  0.29399403  0.64684734  1
  Ta  Ta108  1  0.69424114  0.89980048  0.38587362  1
  Ta  Ta109  1  0.70420583  0.69758864  0.11757938  1
  Ta  Ta110  1  0.39935939  0.80795411  0.24043900  1
  Ta  Ta111  1  0.09108504  0.09685732  0.62843722  1
  Ta  Ta112  1  0.39627217  0.59548422  0.00640642  1
  Ta  Ta113  1  0.50936684  0.08947052  0.38850236  1
  Ta  Ta114  1  -0.00172667  0.61279001  0.52520539  1
  Ta  Ta115  1  0.39564637  -0.00561741  0.74058879  1
  Ta  Ta116  1  0.69197733  0.29560349  0.86573193  1
  Ta  Ta117  1  0.80287200  0.20182730  -0.01415911  1
  Ta  Ta118  1  0.01268632  0.38887930  0.75908489  1
  Ta  Ta119  1  0.49915557  0.91441773  0.11197568  1
  Ti  Ti120  1  0.09546295  0.88740896  0.38111372  1
  Ti  Ti121  1  0.21228911  0.38449742  0.50361977  1
  Ti  Ti122  1  0.40733227  0.62284748  0.50034385  1
  Ti  Ti123  1  0.80066413  0.60304602  0.24455235  1
  Ti  Ti124  1  0.59596829  0.59703247  0.48635841  1
  Ti  Ti125  1  0.19856381  0.80856821  -0.00491345  1
  Ti  Ti126  1  0.09438679  0.09914809  0.86240207  1
  Ti  Ti127  1  0.50252438  0.90181018  0.37822799  1
  Ti  Ti128  1  -0.00547924  0.19680623  -0.02170320  1
  Ti  Ti129  1  0.40904274  -0.00676916  0.50424038  1
  Ti  Ti130  1  0.70199179  0.09174582  0.37053501  1
  Ti  Ti131  1  0.50511899  0.68968578  0.89025122  1
  Ti  Ti132  1  0.20041237  -0.00981408  0.26311231  1
  Ti  Ti133  1  0.59743944  0.80246762  0.24916038  1
  Ti  Ti134  1  0.30559212  0.90400117  0.62302441  1
  Ti  Ti135  1  0.71220098  0.48084297  0.64234203  1
  Ti  Ti136  1  0.09534550  0.29969587  0.39114993  1
  Ti  Ti137  1  0.20612665  0.40480139  -0.00011988  1
  Ti  Ti138  1  0.30351063  0.50818121  0.60875997  1
  Ti  Ti139  1  0.88991860  0.10472773  0.37388300  1
  Ti  Ti140  1  0.60493128  0.60457254  0.24019269  1
  Ti  Ti141  1  0.01073718  0.80442524  -0.00100014  1
  Ti  Ti142  1  0.88944740  0.10215236  0.13365138  1
  Ti  Ti143  1  0.79706617  0.80241575  0.74296223  1
  Ti  Ti144  1  0.08966568  0.28817222  0.60958463  1
  Ti  Ti145  1  0.50127020  0.48376224  0.14488716  1
  Ti  Ti146  1  0.29311715  0.10250702  0.62449172  1
  Ti  Ti147  1  0.81279559  0.39312646  0.76066859  1
  Ti  Ti148  1  0.10160058  0.70114481  0.86621958  1
  Ti  Ti149  1  0.40432076  0.20330158  0.72613024  1
  Ti  Ti150  1  0.18781925  0.20932241  -0.00948780  1
  Ti  Ti151  1  0.79107246  0.00643213  0.49772522  1
  Ti  Ti152  1  0.30404223  0.31059750  0.37113755  1
  Ti  Ti153  1  0.60773279  -0.01293169  0.24879795  1
  Ti  Ti154  1  0.79825687  0.79142757  0.50136409  1
  Ti  Ti155  1  -0.00661862  0.59732548  0.00385860  1
  Ti  Ti156  1  0.49965541  0.49784304  0.86776735  1
  Ti  Ti157  1  0.29999534  0.70237355  0.87650400  1
  Ti  Ti158  1  0.59554792  -0.01132146  0.74749370  1
  Ti  Ti159  1  0.70121956  0.10024842  0.63156762  1
  Mo  Mo160  1  0.39878792  0.20052483  0.25204556  1
  Mo  Mo161  1  0.39612956  0.80837715  0.49655523  1
  Mo  Mo162  1  0.80145495  0.18902105  0.25707321  1
  Mo  Mo163  1  0.10724728  0.69680686  0.62154223  1
  Mo  Mo164  1  0.00342315  0.40111972  0.24544857  1
  Mo  Mo165  1  0.59722096  0.39537477  0.74487901  1
  Mo  Mo166  1  0.79259112  0.40074155  0.50354120  1
  Mo  Mo167  1  0.59898710  0.00719511  0.00989044  1
  Mo  Mo168  1  0.29628031  0.70103885  0.38078851  1
  Mo  Mo169  1  0.89295526  0.30249484  0.87450252  1
  Mo  Mo170  1  0.90090544  0.49602136  0.63673530  1
  Mo  Mo171  1  0.59748755  0.39737656  0.24945755  1
  Mo  Mo172  1  0.78946834  0.00608104  0.25569312  1
  Mo  Mo173  1  -0.00465496  0.80257048  0.50014984  1
  Mo  Mo174  1  0.19314440  0.60271743  0.25141576  1
  Mo  Mo175  1  0.81017631  0.40257976  0.24467966  1
  Mo  Mo176  1  0.20697040  0.60161270  0.51816493  1
  Mo  Mo177  1  0.39271545  0.40013813  0.25025348  1
  Mo  Mo178  1  0.69850181  0.89344479  0.87371476  1
  Mo  Mo179  1  0.29458949  0.50627486  0.11605999  1
  Mo  Mo180  1  0.39259339  0.00086335  0.00425808  1
  Mo  Mo181  1  0.59396612  0.38714081  0.00531433  1
  Mo  Mo182  1  0.60350313  0.59830453  0.76001824  1
  Mo  Mo183  1  0.80491634  0.59337070  0.01741546  1
  Mo  Mo184  1  0.00312778  0.20059374  0.48797259  1
  Mo  Mo185  1  0.10315190  0.91079496  0.62462298  1
  Mo  Mo186  1  0.90136294  0.10192056  0.87408938  1
  Mo  Mo187  1  0.60167537  -0.00496181  0.49658122  1
  Mo  Mo188  1  0.50148802  0.70586989  0.62114347  1
  Mo  Mo189  1  -0.00747455  0.39965361  0.50413295  1
  Mo  Mo190  1  0.89372191  0.70354811  0.61692177  1
  Mo  Mo191  1  0.50712695  0.09885093  0.11610916  1
  Mo  Mo192  1  0.19903619  0.40442294  0.74110743  1
  Mo  Mo193  1  0.28802003  0.30199473  0.61852377  1
  Mo  Mo194  1  0.10210422  0.29394583  0.87932309  1
  Mo  Mo195  1  0.50676410  0.29900456  0.63569833  1
  Mo  Mo196  1  0.70124881  0.50508327  0.14316982  1
  Mo  Mo197  1  0.60145513  0.19156625  0.74467380  1
  Mo  Mo198  1  0.00552263  0.00841150  0.74679888  1
  Mo  Mo199  1  0.10490275  0.09594268  0.37584265  1
