# generated using pymatgen
data_HfZrTaTiMo
_symmetry_space_group_name_H-M   'P 1'
_cell_length_a   15.21249721
_cell_length_b   15.20103167
_cell_length_c   16.85035186
_cell_angle_alpha   89.99611909
_cell_angle_beta   89.98833403
_cell_angle_gamma   90.02051434
_symmetry_Int_Tables_number   1
_chemical_formula_structural   HfZrTaTiMo
_chemical_formula_sum   'Hf40 Zr40 Ta40 Ti40 Mo40'
_cell_volume   3896.57026299
_cell_formula_units_Z   40
loop_
 _symmetry_equiv_pos_site_id
 _symmetry_equiv_pos_as_xyz
  1  'x, y, z'
loop_
 _atom_site_type_symbol
 _atom_site_label
 _atom_site_symmetry_multiplicity
 _atom_site_fract_x
 _atom_site_fract_y
 _atom_site_fract_z
 _atom_site_occupancy
  Hf  Hf0  1  0.88564615  0.91374976  0.63717600  1
  Hf  Hf1  1  0.29626604  0.69523360  0.62439233  1
  Hf  Hf2  1  0.20349838  0.39590051  0.24115767  1
  Hf  Hf3  1  0.88610432  0.89918680  0.36877119  1
  Hf  Hf4  1  0.30548592  0.28567761  0.37570816  1
  Hf  Hf5  1  -0.00567757  0.02356901  0.76721617  1
  Hf  Hf6  1  0.90924728  0.50862737  0.35228462  1
  Hf  Hf7  1  -0.00984437  0.39529941  0.74653663  1
  Hf  Hf8  1  0.28637622  0.90467575  0.11602390  1
  Hf  Hf9  1  0.69789055  0.09909938  0.11986778  1
  Hf  Hf10  1  0.71103296  0.49388675  0.36100053  1
  Hf  Hf11  1  0.78716724  0.00135776  0.49971667  1
  Hf  Hf12  1  0.52134946  0.71123885  0.38751286  1
  Hf  Hf13  1  0.41220369  0.59547609  0.76049035  1
  Hf  Hf14  1  0.79776494  0.60309529  0.00542270  1
  Hf  Hf15  1  0.19411816  0.59475399  0.75163888  1
  Hf  Hf16  1  0.47834062  0.07894183  0.38299342  1
  Hf  Hf17  1  0.50257322  0.49289520  0.12476303  1
  Hf  Hf18  1  0.67871896  0.10610057  0.37006927  1
  Hf  Hf19  1  0.00470294  -0.00455237  0.25247641  1
  Hf  Hf20  1  0.09359521  0.88644764  0.38126553  1
  Hf  Hf21  1  0.18912492  0.80703031  0.25271368  1
  Hf  Hf22  1  0.60457465  0.36553740  0.25944399  1
  Hf  Hf23  1  0.10869136  0.09862799  0.36924816  1
  Hf  Hf24  1  0.70831964  0.10297032  0.87223455  1
  Hf  Hf25  1  0.08831437  0.90410825  0.64183536  1
  Hf  Hf26  1  0.88099864  0.51042842  0.63519541  1
  Hf  Hf27  1  0.67972825  0.89047660  0.37227658  1
  Hf  Hf28  1  0.18726488  0.39184688  -0.00406680  1
  Hf  Hf29  1  0.62662079  0.59747325  0.49633494  1
  Hf  Hf30  1  0.61680234  0.38234232  0.49436561  1
  Hf  Hf31  1  0.19950710  0.20875492  0.50650866  1
  Hf  Hf32  1  0.50408829  0.09639584  0.86545001  1
  Hf  Hf33  1  0.31382162  0.29574417  0.11576889  1
  Hf  Hf34  1  0.29670935  0.49733221  0.38626874  1
  Hf  Hf35  1  0.90171254  0.11147649  0.13564086  1
  Hf  Hf36  1  0.79420273  0.80128184  -0.01670424  1
  Hf  Hf37  1  0.81144055  0.00326406  -0.00967128  1
  Hf  Hf38  1  0.10273883  0.09238313  0.12294563  1
  Hf  Hf39  1  0.10321053  0.50447129  0.36900172  1
  Zr  Zr40  1  0.80629926  0.80999698  0.76449941  1
  Zr  Zr41  1  0.19322041  0.79727876  0.51233247  1
  Zr  Zr42  1  0.30090532  0.70595911  0.87366017  1
  Zr  Zr43  1  -0.00811311  0.81130380  -0.01679870  1
  Zr  Zr44  1  -0.00958045  0.00640352  0.50014419  1
  Zr  Zr45  1  0.40323948  0.39953792  0.75748552  1
  Zr  Zr46  1  0.70495253  0.89344695  0.12178627  1
  Zr  Zr47  1  0.70044703  0.49393187  0.13774697  1
  Zr  Zr48  1  0.89551015  0.71954434  0.13168265  1
  Zr  Zr49  1  0.71409424  0.29847598  0.63488350  1
  Zr  Zr50  1  0.19761349  0.00447373  0.51605200  1
  Zr  Zr51  1  -0.00664197  0.20623926  0.49285620  1
  Zr  Zr52  1  0.50535491  0.10591205  0.10970904  1
  Zr  Zr53  1  0.60880856  0.78375168  0.23790906  1
  Zr  Zr54  1  0.39805977  0.38320906  0.49986503  1
  Zr  Zr55  1  0.50989174  0.49605239  0.61845839  1
  Zr  Zr56  1  0.92400546  0.70659065  0.64448697  1
  Zr  Zr57  1  0.88110011  0.49442484  0.86560742  1
  Zr  Zr58  1  0.30188828  0.50467270  0.11337204  1
  Zr  Zr59  1  0.01680831  0.40557297  0.50391156  1
  Zr  Zr60  1  0.48977508  0.89449652  0.11708978  1
  Zr  Zr61  1  0.81478023  0.40461976  0.49390988  1
  Zr  Zr62  1  0.40021530  0.60437130  0.49048330  1
  Zr  Zr63  1  0.51165775  0.69719022  0.61849180  1
  Zr  Zr64  1  0.40920264  0.40301261  0.25819885  1
  Zr  Zr65  1  0.32037413  0.70568768  0.11407929  1
  Zr  Zr66  1  0.29320833  0.28012430  0.86512314  1
  Zr  Zr67  1  0.40001956  0.80005077  0.74403302  1
  Zr  Zr68  1  0.28557524  0.48464858  0.61710074  1
  Zr  Zr69  1  0.21398548  0.60760361  0.24756424  1
  Zr  Zr70  1  0.40746058  0.40064525  -0.01897660  1
  Zr  Zr71  1  0.40611380  0.81993848  0.50124107  1
  Zr  Zr72  1  0.58751737  0.00033267  0.51683920  1
  Zr  Zr73  1  0.21346191  0.18380337  0.24705327  1
  Zr  Zr74  1  0.41939615  0.60854172  -0.01832362  1
  Zr  Zr75  1  0.10350188  0.70561621  0.11276951  1
  Zr  Zr76  1  0.50347102  0.28947394  0.63017372  1
  Zr  Zr77  1  0.40093064  0.80137877  0.26240675  1
  Zr  Zr78  1  0.30404182  0.09766424  0.10311214  1
  Zr  Zr79  1  0.79754577  0.39963414  0.01050025  1
  Ta  Ta80  1  0.51903389  0.26758511  0.39029908  1
  Ta  Ta81  1  0.50255171  0.89500224  0.86549430  1
  Ta  Ta82  1  0.00247173  0.01254404  -0.01540596  1
  Ta  Ta83  1  0.09543945  0.69721977  0.87266443  1
  Ta  Ta84  1  0.79156933  0.19924084  0.49563378  1
  Ta  Ta85  1  0.19339181  -0.00353906  -0.02253291  1
  Ta  Ta86  1  0.08898903  0.29383346  0.13147561  1
  Ta  Ta87  1  0.07746043  0.28936818  0.87334065  1
  Ta  Ta88  1  0.78161968  0.21439441  0.24908960  1
  Ta  Ta89  1  0.59259402  0.59343945  0.25756798  1
  Ta  Ta90  1  0.19892221  0.80490270  -0.01306208  1
  Ta  Ta91  1  0.29049827  0.49674558  0.87628550  1
  Ta  Ta92  1  0.19348461  0.59803741  -0.00892613  1
  Ta  Ta93  1  0.59925549  -0.01055241  -0.00833572  1
  Ta  Ta94  1  0.78838674  0.62559888  0.25026134  1
  Ta  Ta95  1  0.59437966  0.78142350  -0.00222037  1
  Ta  Ta96  1  0.08834883  0.49676254  0.87562608  1
  Ta  Ta97  1  0.60692537  0.79538879  0.74351074  1
  Ta  Ta98  1  0.41687278  0.20407605  -0.01476873  1
  Ta  Ta99  1  0.09348672  0.49934110  0.12531300  1
  Ta  Ta100  1  0.29887212  0.92354102  0.37693231  1
  Ta  Ta101  1  0.68931863  0.90185349  0.86840284  1
  Ta  Ta102  1  0.90770124  0.50860948  0.14519408  1
  Ta  Ta103  1  0.88745637  0.11334441  0.35952425  1
  Ta  Ta104  1  0.89715045  0.30861354  0.14301204  1
  Ta  Ta105  1  0.42245548  0.20119068  0.24771277  1
  Ta  Ta106  1  0.29615091  0.28811915  0.64303627  1
  Ta  Ta107  1  0.71250208  0.30709544  0.86722609  1
  Ta  Ta108  1  0.69738106  0.68746982  0.86803030  1
  Ta  Ta109  1  0.72008195  0.68869364  0.63542947  1
  Ta  Ta110  1  0.19270207  0.80248858  0.74607991  1
  Ta  Ta111  1  0.80058511  0.79418923  0.50657307  1
  Ta  Ta112  1  0.38203586  0.00891580  0.24714664  1
  Ta  Ta113  1  0.61291456  0.19828338  0.75202839  1
  Ta  Ta114  1  0.18762692  0.39107372  0.75856057  1
  Ta  Ta115  1  -0.00853252  0.39891805  0.00662564  1
  Ta  Ta116  1  0.38952155  0.00385097  0.75269897  1
  Ta  Ta117  1  0.29096006  0.10114632  0.64348167  1
  Ta  Ta118  1  -0.00063604  0.61224355  0.49676759  1
  Ta  Ta119  1  -0.00460362  0.59322328  -0.00164641  1
  Ti  Ti120  1  0.70608968  0.09095782  0.64020335  1
  Ti  Ti121  1  0.08812730  0.51006692  0.63141420  1
  Ti  Ti122  1  -0.00587679  0.79664787  0.50489898  1
  Ti  Ti123  1  0.40621768  0.80688971  -0.01467495  1
  Ti  Ti124  1  0.57851295  -0.00485061  0.24631120  1
  Ti  Ti125  1  0.68036476  0.28852245  0.11685119  1
  Ti  Ti126  1  0.50477193  0.90706134  0.64335629  1
  Ti  Ti127  1  0.09087829  0.89964991  0.11653914  1
  Ti  Ti128  1  0.40177079  0.18479764  0.51415220  1
  Ti  Ti129  1  0.51432742  0.29617405  0.86065224  1
  Ti  Ti130  1  0.29629973  0.90555561  0.86567394  1
  Ti  Ti131  1  0.90632610  0.69193706  0.86259169  1
  Ti  Ti132  1  0.90333955  0.29922373  0.62306898  1
  Ti  Ti133  1  0.82593837  0.20394598  0.75959095  1
  Ti  Ti134  1  0.61294620  0.40943485  0.75268856  1
  Ti  Ti135  1  0.90111670  0.91261123  0.12935530  1
  Ti  Ti136  1  -0.00613708  0.20632108  0.00314468  1
  Ti  Ti137  1  0.90012031  0.30708215  0.35178584  1
  Ti  Ti138  1  0.60875444  0.59340249  0.75273445  1
  Ti  Ti139  1  0.61752461  0.80632330  0.51975229  1
  Ti  Ti140  1  0.59781657  0.38746661  -0.01024991  1
  Ti  Ti141  1  0.18432593  0.17958674  0.75662122  1
  Ti  Ti142  1  0.39708684  -0.00149368  -0.01955615  1
  Ti  Ti143  1  0.18227313  0.59663211  0.50553424  1
  Ti  Ti144  1  0.19251264  0.19369394  -0.00718222  1
  Ti  Ti145  1  0.81354301  0.61009515  0.49037938  1
  Ti  Ti146  1  0.10510414  0.29697360  0.63179686  1
  Ti  Ti147  1  0.50619185  0.49000927  0.38259149  1
  Ti  Ti148  1  0.90678432  0.71234519  0.36477590  1
  Ti  Ti149  1  0.38740905  0.00048112  0.52571188  1
  Ti  Ti150  1  0.90105252  0.11142366  0.62805928  1
  Ti  Ti151  1  0.09595666  0.30235351  0.36148571  1
  Ti  Ti152  1  0.78594528  0.00172524  0.25118923  1
  Ti  Ti153  1  0.09654747  0.90132966  0.86267153  1
  Ti  Ti154  1  0.49811119  0.10235086  0.64627596  1
  Ti  Ti155  1  0.60418909  0.58864041  -0.00652690  1
  Ti  Ti156  1  0.28360714  0.70737558  0.38492599  1
  Ti  Ti157  1  0.40981717  0.60667275  0.26233825  1
  Ti  Ti158  1  0.80292907  0.20930253  -0.00006805  1
  Ti  Ti159  1  0.01357170  0.62314577  0.24918375  1
  Mo  Mo160  1  0.69906811  0.89644049  0.63365035  1
  Mo  Mo161  1  0.50652520  0.29703539  0.11472767  1
  Mo  Mo162  1  0.30200436  0.09566234  0.87941467  1
  Mo  Mo163  1  -0.00329352  0.20358079  0.25670448  1
  Mo  Mo164  1  0.49174087  0.90122392  0.37486335  1
  Mo  Mo165  1  0.60315642  0.18391481  0.51546180  1
  Mo  Mo166  1  0.00471791  0.80587783  0.76859439  1
  Mo  Mo167  1  0.00265613  0.59732644  0.76048720  1
  Mo  Mo168  1  0.79456340  0.01706733  0.75591103  1
  Mo  Mo169  1  0.79146159  0.59920462  0.75550175  1
  Mo  Mo170  1  0.09872386  0.69459218  0.63214593  1
  Mo  Mo171  1  0.89864589  0.30000517  0.88086734  1
  Mo  Mo172  1  0.10537154  0.11018221  0.88264700  1
  Mo  Mo173  1  0.51718425  0.70617518  0.86621127  1
  Mo  Mo174  1  -0.00424563  0.80570249  0.24560323  1
  Mo  Mo175  1  0.20179992  -0.00803619  0.24948468  1
  Mo  Mo176  1  0.71781088  0.70399154  0.37975493  1
  Mo  Mo177  1  0.79274151  0.39425924  0.74662359  1
  Mo  Mo178  1  0.19753716  -0.00181418  0.76149832  1
  Mo  Mo179  1  0.60882101  0.20578725  -0.01751060  1
  Mo  Mo180  1  0.71561152  0.28609464  0.37925097  1
  Mo  Mo181  1  0.90837671  0.12699457  0.88276693  1
  Mo  Mo182  1  0.69005811  0.49502058  0.87775505  1
  Mo  Mo183  1  0.51600147  0.49737671  0.87072952  1
  Mo  Mo184  1  0.69993154  0.50460713  0.62546097  1
  Mo  Mo185  1  0.19332556  0.39734103  0.50574516  1
  Mo  Mo186  1  0.89406000  0.91695982  0.86919781  1
  Mo  Mo187  1  0.50912341  0.68487169  0.12480197  1
  Mo  Mo188  1  0.68906727  0.69035274  0.11811710  1
  Mo  Mo189  1  0.00788070  0.40388986  0.24470933  1
  Mo  Mo190  1  0.59424852  0.18509406  0.24857184  1
  Mo  Mo191  1  0.29891804  0.90616172  0.64098621  1
  Mo  Mo192  1  0.40176506  0.19589333  0.75195376  1
  Mo  Mo193  1  0.30239250  0.10126870  0.38353642  1
  Mo  Mo194  1  0.00522304  0.20922385  0.74068920  1
  Mo  Mo195  1  0.09320702  0.11080730  0.63048820  1
  Mo  Mo196  1  0.79983762  0.40321187  0.24322685  1
  Mo  Mo197  1  0.80332832  0.81042515  0.24853239  1
  Mo  Mo198  1  0.60167609  -0.00427371  0.74417027  1
  Mo  Mo199  1  0.09093304  0.69674026  0.37869862  1
