# generated using pymatgen
data_HfZrTaTiMo
_symmetry_space_group_name_H-M   'P 1'
_cell_length_a   15.19044371
_cell_length_b   15.19926381
_cell_length_c   16.78299944
_cell_angle_alpha   89.95763822
_cell_angle_beta   89.89399494
_cell_angle_gamma   89.92615543
_symmetry_Int_Tables_number   1
_chemical_formula_structural   HfZrTaTiMo
_chemical_formula_sum   'Hf40 Zr40 Ta40 Ti40 Mo40'
_cell_volume   3874.90777880
_cell_formula_units_Z   40
loop_
 _symmetry_equiv_pos_site_id
 _symmetry_equiv_pos_as_xyz
  1  'x, y, z'
loop_
 _atom_site_type_symbol
 _atom_site_label
 _atom_site_symmetry_multiplicity
 _atom_site_fract_x
 _atom_site_fract_y
 _atom_site_fract_z
 _atom_site_occupancy
  Hf  Hf0  1  0.61045476  0.79413198  0.26562794  1
  Hf  Hf1  1  0.59209918  0.59238073  0.49250498  1
  Hf  Hf2  1  0.00848344  0.79599360  -0.02362930  1
  Hf  Hf3  1  0.49418642  0.09371638  0.10943424  1
  Hf  Hf4  1  0.40769603  0.40100467  0.25126812  1
  Hf  Hf5  1  0.70561505  0.71090058  0.63713636  1
  Hf  Hf6  1  0.29520815  0.50485803  0.12237699  1
  Hf  Hf7  1  0.20523964  0.39454865  0.26091387  1
  Hf  Hf8  1  0.08283647  0.89411933  0.12197660  1
  Hf  Hf9  1  0.70400630  0.30682094  0.10740237  1
  Hf  Hf10  1  0.41734924  0.39001849  0.52337771  1
  Hf  Hf11  1  0.88890245  0.10718228  0.87915840  1
  Hf  Hf12  1  0.28918762  0.70675615  0.38200196  1
  Hf  Hf13  1  0.20900255  0.79252276  -0.00376920  1
  Hf  Hf14  1  0.90147155  0.49110340  0.89143224  1
  Hf  Hf15  1  0.49279231  0.29544134  0.11489133  1
  Hf  Hf16  1  0.31839512  0.49925085  0.39151028  1
  Hf  Hf17  1  0.49593971  0.50945052  0.11804325  1
  Hf  Hf18  1  0.60184817  0.19221988  0.75245262  1
  Hf  Hf19  1  0.58407465  0.62324234  -0.00867231  1
  Hf  Hf20  1  0.31719862  0.89246877  0.64354675  1
  Hf  Hf21  1  0.21216886  -0.00373633  0.50969653  1
  Hf  Hf22  1  0.20496029  -0.00060757  0.24207417  1
  Hf  Hf23  1  0.19195140  -0.00661466  -0.02322133  1
  Hf  Hf24  1  0.69589006  0.91113642  0.61011965  1
  Hf  Hf25  1  0.01696075  0.38253994  0.00128487  1
  Hf  Hf26  1  0.50188064  0.29879945  0.37724939  1
  Hf  Hf27  1  0.70067724  0.50841908  0.11134987  1
  Hf  Hf28  1  0.31076274  0.90423047  0.37529647  1
  Hf  Hf29  1  0.30336972  0.09341324  0.63983980  1
  Hf  Hf30  1  0.19487455  0.21813916  -0.01471771  1
  Hf  Hf31  1  0.20480595  0.79001335  0.23307246  1
  Hf  Hf32  1  0.00558593  0.40099172  0.24233538  1
  Hf  Hf33  1  0.89135515  0.10264518  0.61945683  1
  Hf  Hf34  1  0.59331795  0.40553336  -0.01527851  1
  Hf  Hf35  1  0.29906384  0.10653232  0.10781736  1
  Hf  Hf36  1  0.50144935  0.08670584  0.61862936  1
  Hf  Hf37  1  0.60110042  0.40408216  0.76119194  1
  Hf  Hf38  1  0.08284903  0.70413144  0.37154870  1
  Hf  Hf39  1  0.91038089  0.89871626  0.38169698  1
  Zr  Zr40  1  0.89531964  0.89308836  0.63715371  1
  Zr  Zr41  1  0.59413639  0.59485051  0.25806229  1
  Zr  Zr42  1  0.01022885  0.58960862  0.76146318  1
  Zr  Zr43  1  0.39638085  0.39182256  0.73974692  1
  Zr  Zr44  1  0.88523457  0.50598058  0.62608516  1
  Zr  Zr45  1  0.77773587  -0.00268194  0.75833011  1
  Zr  Zr46  1  0.58365189  0.19529865  0.25147581  1
  Zr  Zr47  1  0.80239474  0.00247437  0.25491168  1
  Zr  Zr48  1  0.58962092  -0.00656379  0.26277356  1
  Zr  Zr49  1  0.01932835  0.00111613  0.52032713  1
  Zr  Zr50  1  0.90674137  0.27630135  0.11872668  1
  Zr  Zr51  1  0.00765526  0.79194503  0.52172447  1
  Zr  Zr52  1  0.78710084  0.59711177  0.76331889  1
  Zr  Zr53  1  0.68414300  0.09836732  0.39200165  1
  Zr  Zr54  1  0.51154992  0.88910132  0.11495492  1
  Zr  Zr55  1  0.48440815  0.69804219  0.38386653  1
  Zr  Zr56  1  0.70216972  0.10456591  0.11616774  1
  Zr  Zr57  1  0.80224615  0.41922540  0.25159922  1
  Zr  Zr58  1  0.08800796  0.49583622  0.38961606  1
  Zr  Zr59  1  0.39497762  -0.01381646  -0.01508769  1
  Zr  Zr60  1  0.69967670  0.30817452  0.62486365  1
  Zr  Zr61  1  0.19669618  0.20157797  0.75137785  1
  Zr  Zr62  1  0.71272473  0.90192765  0.12218999  1
  Zr  Zr63  1  0.79381773  0.21444283  0.48944991  1
  Zr  Zr64  1  0.90827538  0.31237411  0.61324739  1
  Zr  Zr65  1  0.19183336  0.59093483  0.25481815  1
  Zr  Zr66  1  0.91458470  0.10343242  0.38197155  1
  Zr  Zr67  1  0.50573522  0.70585989  0.63145592  1
  Zr  Zr68  1  0.00532584  0.00564409  0.75443331  1
  Zr  Zr69  1  0.89916158  0.50727221  0.10534159  1
  Zr  Zr70  1  0.80148698  0.80596803  -0.01566332  1
  Zr  Zr71  1  0.30781015  0.27671270  0.38652639  1
  Zr  Zr72  1  0.91089407  0.31594863  0.37897351  1
  Zr  Zr73  1  0.08301150  0.49445079  0.61660492  1
  Zr  Zr74  1  0.19228416  0.60985731  0.51298205  1
  Zr  Zr75  1  0.10568752  0.89646961  0.36918821  1
  Zr  Zr76  1  0.80915110  0.39222090  0.76170972  1
  Zr  Zr77  1  0.79516976  0.21182586  0.26161474  1
  Zr  Zr78  1  0.08748057  0.10371436  0.11519460  1
  Zr  Zr79  1  0.38345484  0.40443942  -0.01289435  1
  Ta  Ta80  1  0.49280403  0.70785680  0.85669849  1
  Ta  Ta81  1  0.19937430  0.80430008  0.52509875  1
  Ta  Ta82  1  0.90001143  0.71614870  0.12034201  1
  Ta  Ta83  1  0.78819262  0.61580873  0.49938897  1
  Ta  Ta84  1  0.11327756  0.29719241  0.13006927  1
  Ta  Ta85  1  0.79745945  0.19878580  0.74966293  1
  Ta  Ta86  1  0.60924284  0.79402892  0.48943956  1
  Ta  Ta87  1  0.10332730  0.28905924  0.38157858  1
  Ta  Ta88  1  0.20927753  0.19438741  0.24945600  1
  Ta  Ta89  1  -0.01413928  0.60668263  0.24091343  1
  Ta  Ta90  1  0.60285592  0.82442014  0.75348079  1
  Ta  Ta91  1  0.69232102  0.70670232  0.12041952  1
  Ta  Ta92  1  -0.00658165  0.21260076  0.74762479  1
  Ta  Ta93  1  0.20772444  0.59870358  -0.00657435  1
  Ta  Ta94  1  0.69577670  0.09924072  0.60872708  1
  Ta  Ta95  1  0.48788187  0.51376612  0.86468912  1
  Ta  Ta96  1  0.40886936  0.77263553  0.00338652  1
  Ta  Ta97  1  0.58140222  0.20987643  0.50695316  1
  Ta  Ta98  1  0.89067076  0.70314138  0.37116506  1
  Ta  Ta99  1  -0.00787070  -0.01371698  -0.02222832  1
  Ta  Ta100  1  0.01271566  0.79709022  0.76066219  1
  Ta  Ta101  1  0.30061911  0.29882979  0.12275535  1
  Ta  Ta102  1  0.71043369  0.29129699  0.88783390  1
  Ta  Ta103  1  0.19956589  0.18976288  0.51596909  1
  Ta  Ta104  1  0.29437840  0.49496950  0.62377183  1
  Ta  Ta105  1  0.40632549  0.80655769  0.24350332  1
  Ta  Ta106  1  0.68323147  0.51135979  0.62681497  1
  Ta  Ta107  1  0.60809948  0.39693884  0.25334040  1
  Ta  Ta108  1  0.89992491  0.69882478  0.86541180  1
  Ta  Ta109  1  0.39237113  0.61219037  0.24758576  1
  Ta  Ta110  1  0.11297647  0.10145239  0.37350163  1
  Ta  Ta111  1  0.20557895  -0.00582246  0.76928531  1
  Ta  Ta112  1  0.18804713  0.40395345  0.74189824  1
  Ta  Ta113  1  0.79321549  0.42286950  0.49022451  1
  Ta  Ta114  1  0.39584416  0.59989632  0.73336126  1
  Ta  Ta115  1  0.09597898  0.68875643  0.11984776  1
  Ta  Ta116  1  0.20278789  0.38647296  0.50857315  1
  Ta  Ta117  1  0.49217568  0.29105976  0.87616809  1
  Ta  Ta118  1  0.10214051  0.49812535  0.11559049  1
  Ta  Ta119  1  0.59380520  0.19650563  -0.00925489  1
  Ti  Ti120  1  0.50078475  0.90359531  0.39000161  1
  Ti  Ti121  1  0.71139165  0.89767940  0.38873360  1
  Ti  Ti122  1  0.81228659  0.80364486  0.24864718  1
  Ti  Ti123  1  0.29411138  0.50485191  0.86161708  1
  Ti  Ti124  1  -0.01926006  0.60524801  0.50620690  1
  Ti  Ti125  1  0.42002495  -0.00939330  0.76441106  1
  Ti  Ti126  1  0.90030710  0.69833954  0.64522241  1
  Ti  Ti127  1  0.68888401  0.09522584  0.88432515  1
  Ti  Ti128  1  0.11050662  0.48980250  0.87946550  1
  Ti  Ti129  1  0.10116134  0.29848281  0.62419540  1
  Ti  Ti130  1  0.30767436  0.89822381  0.11954305  1
  Ti  Ti131  1  0.31241357  0.10949599  0.87185557  1
  Ti  Ti132  1  0.29100670  0.30893106  0.86688977  1
  Ti  Ti133  1  0.39895237  0.59704418  0.52418874  1
  Ti  Ti134  1  0.40583312  0.20057385  0.74578294  1
  Ti  Ti135  1  0.51696324  0.89544314  0.88615073  1
  Ti  Ti136  1  0.89729116  0.51859789  0.37659327  1
  Ti  Ti137  1  0.60577159  0.40254144  0.49659579  1
  Ti  Ti138  1  0.31556590  0.87801288  0.86459513  1
  Ti  Ti139  1  0.46866188  0.09835797  0.39472181  1
  Ti  Ti140  1  0.50179384  0.09471545  0.88058186  1
  Ti  Ti141  1  0.39762950  0.01484452  0.24891423  1
  Ti  Ti142  1  0.80708107  0.79900004  0.50034744  1
  Ti  Ti143  1  0.20198035  0.78978542  0.74869464  1
  Ti  Ti144  1  0.79733738  -0.00517509  -0.01299296  1
  Ti  Ti145  1  0.79300975  0.61716386  0.24553906  1
  Ti  Ti146  1  -0.00251865  0.00390391  0.24613500  1
  Ti  Ti147  1  0.30506459  0.68909107  0.86342176  1
  Ti  Ti148  1  0.09102330  0.11309159  0.87636856  1
  Ti  Ti149  1  0.90716716  0.29197740  0.88842243  1
  Ti  Ti150  1  0.01428434  0.20262296  0.50715886  1
  Ti  Ti151  1  0.01093787  0.60620762  -0.01079826  1
  Ti  Ti152  1  0.39474078  0.79867423  0.50805278  1
  Ti  Ti153  1  0.69924665  0.50680490  0.37258171  1
  Ti  Ti154  1  0.68937844  0.71408057  0.86540646  1
  Ti  Ti155  1  0.50760117  0.89982242  0.61567166  1
  Ti  Ti156  1  0.69702818  0.50644832  0.88494205  1
  Ti  Ti157  1  0.89863910  0.08107249  0.10754209  1
  Ti  Ti158  1  0.79738037  0.61384424  -0.00842232  1
  Ti  Ti159  1  0.19896744  0.60287964  0.73871424  1
  Mo  Mo160  1  0.60567271  -0.00114324  -0.00515326  1
  Mo  Mo161  1  0.50698980  0.50006171  0.63636156  1
  Mo  Mo162  1  0.70924152  0.70445055  0.37618285  1
  Mo  Mo163  1  0.49799917  0.69906116  0.13282025  1
  Mo  Mo164  1  0.39533407  0.20147134  -0.01789303  1
  Mo  Mo165  1  0.39093972  0.60217298  -0.01122851  1
  Mo  Mo166  1  0.69354828  0.31529268  0.37876785  1
  Mo  Mo167  1  0.11624490  0.68629971  0.87106539  1
  Mo  Mo168  1  0.39186224  0.19147004  0.24563711  1
  Mo  Mo169  1  0.59556563  0.60436594  0.76128726  1
  Mo  Mo170  1  0.69333194  0.90514573  0.87964124  1
  Mo  Mo171  1  0.50639877  0.29169739  0.63136281  1
  Mo  Mo172  1  0.40650803  0.80227292  0.75397238  1
  Mo  Mo173  1  0.29797996  0.09472262  0.37753127  1
  Mo  Mo174  1  0.80010071  0.40002893  -0.00961699  1
  Mo  Mo175  1  0.09499610  0.30485561  0.86528094  1
  Mo  Mo176  1  0.29596218  0.29549891  0.62520764  1
  Mo  Mo177  1  0.09978267  0.10416589  0.63552263  1
  Mo  Mo178  1  0.20117054  0.40755495  -0.00417828  1
  Mo  Mo179  1  0.11602867  0.90265008  0.65164056  1
  Mo  Mo180  1  0.00306692  0.18643436  -0.00417793  1
  Mo  Mo181  1  -0.00859620  0.79551111  0.24208061  1
  Mo  Mo182  1  0.00592104  0.39128412  0.76087518  1
  Mo  Mo183  1  0.79848069  0.19245628  -0.00339979  1
  Mo  Mo184  1  0.50040488  0.49322398  0.37511371  1
  Mo  Mo185  1  0.00003549  0.40157276  0.49395949  1
  Mo  Mo186  1  0.11179236  0.89439339  0.86290427  1
  Mo  Mo187  1  0.09485608  0.70381987  0.63730399  1
  Mo  Mo188  1  0.60122597  0.79913253  -0.00655914  1
  Mo  Mo189  1  0.59510943  -0.00402926  0.48918407  1
  Mo  Mo190  1  0.29973856  0.69812794  0.63177715  1
  Mo  Mo191  1  0.30503951  0.70092798  0.12542650  1
  Mo  Mo192  1  0.90626843  0.90629896  0.11959158  1
  Mo  Mo193  1  0.02073375  0.19802193  0.25667648  1
  Mo  Mo194  1  0.80261111  0.80132614  0.76316016  1
  Mo  Mo195  1  0.80305276  -0.00297605  0.49680804  1
  Mo  Mo196  1  0.39072475  0.19493793  0.51707956  1
  Mo  Mo197  1  0.90020946  0.89778554  0.85970044  1
  Mo  Mo198  1  0.59052885  0.00320599  0.75222289  1
  Mo  Mo199  1  0.40025396  -0.00994164  0.50387046  1
