# generated using pymatgen
data_HfZrTaTiMo
_symmetry_space_group_name_H-M   'P 1'
_cell_length_a   15.21288004
_cell_length_b   15.22581872
_cell_length_c   16.84390314
_cell_angle_alpha   89.96143219
_cell_angle_beta   89.92700145
_cell_angle_gamma   90.02384162
_symmetry_Int_Tables_number   1
_chemical_formula_structural   HfZrTaTiMo
_chemical_formula_sum   'Hf40 Zr40 Ta40 Ti40 Mo40'
_cell_volume   3901.52453368
_cell_formula_units_Z   40
loop_
 _symmetry_equiv_pos_site_id
 _symmetry_equiv_pos_as_xyz
  1  'x, y, z'
loop_
 _atom_site_type_symbol
 _atom_site_label
 _atom_site_symmetry_multiplicity
 _atom_site_fract_x
 _atom_site_fract_y
 _atom_site_fract_z
 _atom_site_occupancy
  Hf  Hf0  1  0.20238000  0.82575059  0.50978664  1
  Hf  Hf1  1  0.29790566  0.29814753  0.12311846  1
  Hf  Hf2  1  0.79404380  0.19457199  0.48377646  1
  Hf  Hf3  1  0.17400606  0.19970195  0.75358268  1
  Hf  Hf4  1  0.10454502  0.91473863  0.87964346  1
  Hf  Hf5  1  0.68787757  0.30462112  0.11246200  1
  Hf  Hf6  1  0.39891489  0.40157622  0.24419608  1
  Hf  Hf7  1  0.71097004  0.68894987  0.63006198  1
  Hf  Hf8  1  0.79231428  0.39662968  0.25082396  1
  Hf  Hf9  1  0.58766557  0.20372882  0.25708928  1
  Hf  Hf10  1  0.68913859  0.88914179  0.12145578  1
  Hf  Hf11  1  0.12357964  0.70402787  0.88365004  1
  Hf  Hf12  1  0.38598127  -0.00888954  -0.00461954  1
  Hf  Hf13  1  0.90739510  0.70648704  0.12530751  1
  Hf  Hf14  1  0.79862851  0.40212672  -0.01005386  1
  Hf  Hf15  1  0.39511795  -0.00546344  0.26418284  1
  Hf  Hf16  1  -0.00097234  0.20242154  0.25038102  1
  Hf  Hf17  1  0.80333170  0.19460058  -0.01361350  1
  Hf  Hf18  1  0.90146978  0.90025424  0.87884945  1
  Hf  Hf19  1  0.29953109  0.69939351  0.37902161  1
  Hf  Hf20  1  0.78971918  0.19421585  0.26887307  1
  Hf  Hf21  1  0.59441805  0.40323428  0.25157059  1
  Hf  Hf22  1  0.69802756  0.68765341  0.86989103  1
  Hf  Hf23  1  0.60172943  0.79644038  0.26155326  1
  Hf  Hf24  1  0.90488319  0.49591390  0.12246102  1
  Hf  Hf25  1  0.69640258  0.09011112  0.86248482  1
  Hf  Hf26  1  0.91967606  0.89751812  0.35835778  1
  Hf  Hf27  1  0.69393158  0.09961451  0.12167442  1
  Hf  Hf28  1  0.81016166  0.79588669  0.49212724  1
  Hf  Hf29  1  0.00823618  0.40362088  0.50181463  1
  Hf  Hf30  1  0.39829378  0.59468290  0.51826968  1
  Hf  Hf31  1  0.40820237  0.61903381  -0.00074879  1
  Hf  Hf32  1  0.40679253  0.80584775  0.50363237  1
  Hf  Hf33  1  0.20952630  0.81124132  0.73981399  1
  Hf  Hf34  1  0.18982057  0.20214888  0.50726025  1
  Hf  Hf35  1  0.90552573  0.69895611  0.88495796  1
  Hf  Hf36  1  0.39809132  0.41663899  0.73704926  1
  Hf  Hf37  1  0.69568696  0.88716728  0.87343320  1
  Hf  Hf38  1  0.69642676  0.89105088  0.63034904  1
  Hf  Hf39  1  0.50791584  0.68535898  0.38298154  1
  Zr  Zr40  1  0.29941725  0.30600477  0.37664743  1
  Zr  Zr41  1  0.59252041  0.39137400  0.51869685  1
  Zr  Zr42  1  0.00070828  0.01730431  0.01230970  1
  Zr  Zr43  1  0.00647808  0.60360347  0.49578517  1
  Zr  Zr44  1  0.01521197  0.58846272  0.00103990  1
  Zr  Zr45  1  0.58978792  -0.00967477  -0.00107943  1
  Zr  Zr46  1  0.79777929  -0.00141948  0.47682977  1
  Zr  Zr47  1  0.88947462  0.10242059  0.13267365  1
  Zr  Zr48  1  0.39686220  0.40179191  -0.00353752  1
  Zr  Zr49  1  0.21462024  0.60347714  0.73798043  1
  Zr  Zr50  1  0.00217372  0.40337449  0.24896364  1
  Zr  Zr51  1  0.39369684  -0.00999036  0.75670578  1
  Zr  Zr52  1  0.29627616  0.88969350  0.12997892  1
  Zr  Zr53  1  0.18922222  0.20006862  -0.00231779  1
  Zr  Zr54  1  0.59757782  0.40032520  0.73861859  1
  Zr  Zr55  1  0.09374279  0.70260263  0.62588183  1
  Zr  Zr56  1  0.12773204  0.70041554  0.11630497  1
  Zr  Zr57  1  0.58816177  -0.01392206  0.47846151  1
  Zr  Zr58  1  0.71234223  0.28309512  0.63263196  1
  Zr  Zr59  1  0.88812624  0.10906931  0.64117486  1
  Zr  Zr60  1  0.51567396  0.49806716  0.11082952  1
  Zr  Zr61  1  0.49026024  0.87583873  0.87611143  1
  Zr  Zr62  1  0.79781997  0.59875616  0.23981889  1
  Zr  Zr63  1  0.09564975  0.09513550  0.37091239  1
  Zr  Zr64  1  0.90602442  0.89823449  0.63027384  1
  Zr  Zr65  1  0.48952323  0.09515411  0.12410259  1
  Zr  Zr66  1  0.28380998  0.30204961  0.63738714  1
  Zr  Zr67  1  0.69238385  0.49954800  0.38317986  1
  Zr  Zr68  1  0.00985241  -0.00516044  0.50092405  1
  Zr  Zr69  1  0.39795371  0.20198851  0.50715489  1
  Zr  Zr70  1  0.92163984  0.10873098  0.85609268  1
  Zr  Zr71  1  -0.00973598  0.20413576  0.50430836  1
  Zr  Zr72  1  0.30259613  0.52090790  0.87635671  1
  Zr  Zr73  1  0.68950865  0.08284529  0.63426840  1
  Zr  Zr74  1  0.59924339  -0.00313607  0.26663569  1
  Zr  Zr75  1  0.48865619  0.09054793  0.62284823  1
  Zr  Zr76  1  0.90830628  0.50717507  0.63409265  1
  Zr  Zr77  1  0.28198890  0.30943117  0.86753131  1
  Zr  Zr78  1  0.49557961  0.30660040  0.87397209  1
  Zr  Zr79  1  0.81574332  0.39505040  0.75956896  1
  Ta  Ta80  1  0.11519167  0.50731699  0.37305645  1
  Ta  Ta81  1  0.18727026  -0.00843865  0.24230471  1
  Ta  Ta82  1  0.39316933  0.19819576  0.25340362  1
  Ta  Ta83  1  0.80818773  0.59814810  0.49442011  1
  Ta  Ta84  1  0.71117659  0.69452661  0.37625366  1
  Ta  Ta85  1  0.32005080  0.70314845  0.13113531  1
  Ta  Ta86  1  0.19230466  -0.00209056  0.01213269  1
  Ta  Ta87  1  0.40551905  0.79764566  0.26007459  1
  Ta  Ta88  1  0.29486441  0.51279988  0.12013130  1
  Ta  Ta89  1  0.80722866  0.78727678  0.75376674  1
  Ta  Ta90  1  0.10581946  0.30876746  0.37315421  1
  Ta  Ta91  1  0.00514858  0.79991160  0.49430548  1
  Ta  Ta92  1  0.21161973  0.60119629  0.25174248  1
  Ta  Ta93  1  0.69844221  0.29355125  0.86836649  1
  Ta  Ta94  1  0.10601340  0.71205077  0.37130781  1
  Ta  Ta95  1  0.89532312  0.90003649  0.12934260  1
  Ta  Ta96  1  0.28530267  0.09140760  0.87417841  1
  Ta  Ta97  1  0.90076331  0.30549428  0.37692777  1
  Ta  Ta98  1  0.78840379  0.60151000  0.01053620  1
  Ta  Ta99  1  0.39757736  0.78809729  0.73413066  1
  Ta  Ta100  1  0.59369068  0.79272642  0.74519184  1
  Ta  Ta101  1  0.39402178  0.19022750  -0.00995375  1
  Ta  Ta102  1  0.19944101  0.40838272  0.24433470  1
  Ta  Ta103  1  0.60446533  0.59970018  0.24327205  1
  Ta  Ta104  1  0.41201693  0.59906826  0.24674659  1
  Ta  Ta105  1  0.01203770  0.81158388  0.01026408  1
  Ta  Ta106  1  0.91042344  0.69931647  0.35995454  1
  Ta  Ta107  1  0.58658468  0.19229876  0.75179296  1
  Ta  Ta108  1  0.18413236  0.41515837  0.00675585  1
  Ta  Ta109  1  0.01719475  0.60291715  0.24858932  1
  Ta  Ta110  1  0.39124589  0.19748132  0.75125279  1
  Ta  Ta111  1  -0.00245460  0.21097683  0.00509517  1
  Ta  Ta112  1  0.90396009  0.50349040  0.37166341  1
  Ta  Ta113  1  0.20213141  0.41362208  0.50825906  1
  Ta  Ta114  1  0.79855420  -0.00613911  -0.00193048  1
  Ta  Ta115  1  0.80709881  0.40019637  0.50089538  1
  Ta  Ta116  1  0.19138535  0.00232237  0.74769368  1
  Ta  Ta117  1  0.37559576  -0.00553114  0.48728625  1
  Ta  Ta118  1  0.39857808  0.40261537  0.52151168  1
  Ta  Ta119  1  0.00613146  0.80613331  0.75466258  1
  Ti  Ti120  1  0.88987192  0.29748811  0.12491380  1
  Ti  Ti121  1  0.90138810  0.69945320  0.63312485  1
  Ti  Ti122  1  0.68810273  0.49695031  0.87507424  1
  Ti  Ti123  1  0.49482746  0.29084954  0.11230685  1
  Ti  Ti124  1  0.30511782  0.50074929  0.37790052  1
  Ti  Ti125  1  0.28668740  0.08955657  0.62702988  1
  Ti  Ti126  1  0.20164814  0.60347281  0.51157709  1
  Ti  Ti127  1  0.50225447  0.68684600  0.86952774  1
  Ti  Ti128  1  0.48823176  0.10715756  0.38068582  1
  Ti  Ti129  1  0.68846250  0.30147557  0.38421364  1
  Ti  Ti130  1  0.59604969  0.19255652  0.49910342  1
  Ti  Ti131  1  0.79676458  0.79756266  0.00652187  1
  Ti  Ti132  1  0.07838140  0.30461794  0.87385072  1
  Ti  Ti133  1  0.41125159  0.60731435  0.73208332  1
  Ti  Ti134  1  0.51429189  0.70286830  0.61978881  1
  Ti  Ti135  1  0.90395160  0.50183840  0.87422132  1
  Ti  Ti136  1  0.10388327  0.49537648  0.86899318  1
  Ti  Ti137  1  0.59886437  0.59273912  0.74330452  1
  Ti  Ti138  1  0.08927093  0.09773066  0.62993971  1
  Ti  Ti139  1  0.00110350  0.60250088  0.75890898  1
  Ti  Ti140  1  -0.01963333  0.23574356  0.73677813  1
  Ti  Ti141  1  0.79893910  0.80031817  0.24915233  1
  Ti  Ti142  1  0.51587530  0.71200124  0.12164260  1
  Ti  Ti143  1  -0.00076286  0.39398930  0.00218268  1
  Ti  Ti144  1  0.49307852  0.30324115  0.38243172  1
  Ti  Ti145  1  0.00283854  0.00213441  0.23600318  1
  Ti  Ti146  1  0.80360808  -0.01034557  0.75475672  1
  Ti  Ti147  1  0.28708708  0.09894977  0.37193232  1
  Ti  Ti148  1  0.09684398  0.30404850  0.12688328  1
  Ti  Ti149  1  0.59176547  0.19961562  -0.01265371  1
  Ti  Ti150  1  0.79471407  -0.00426152  0.26460235  1
  Ti  Ti151  1  0.19700050  0.20079582  0.24695464  1
  Ti  Ti152  1  0.50099749  0.90172553  0.62772043  1
  Ti  Ti153  1  0.71241190  0.50031781  0.62761217  1
  Ti  Ti154  1  0.49378408  0.49308269  0.38177392  1
  Ti  Ti155  1  0.49432552  0.09523713  0.86890461  1
  Ti  Ti156  1  0.29226336  0.10122350  0.12964527  1
  Ti  Ti157  1  0.60753746  0.59428681  0.50876472  1
  Ti  Ti158  1  0.02587644  0.80860160  0.23726489  1
  Ti  Ti159  1  0.61065094  0.79521691  0.49103697  1
  Mo  Mo160  1  0.41284695  0.80272171  0.00714545  1
  Mo  Mo161  1  0.10920420  0.89622729  0.36847211  1
  Mo  Mo162  1  0.51199746  0.50737092  0.62221667  1
  Mo  Mo163  1  0.30797405  0.70885627  0.61650784  1
  Mo  Mo164  1  0.49498254  0.29003962  0.63405810  1
  Mo  Mo165  1  0.89395146  0.30910448  0.61770870  1
  Mo  Mo166  1  0.90075758  0.09784739  0.36089471  1
  Mo  Mo167  1  0.70047168  0.49858605  0.11698932  1
  Mo  Mo168  1  0.10027607  0.91145608  0.63291769  1
  Mo  Mo169  1  0.28701637  0.90146423  0.36639273  1
  Mo  Mo170  1  0.01165143  0.41019520  0.75244800  1
  Mo  Mo171  1  0.20608588  0.79783891  0.25556581  1
  Mo  Mo172  1  0.68770997  0.10289732  0.37351486  1
  Mo  Mo173  1  0.10910594  0.49274786  0.63248971  1
  Mo  Mo174  1  0.59434229  -0.01267218  0.75331983  1
  Mo  Mo175  1  0.29058323  0.89050251  0.87965103  1
  Mo  Mo176  1  0.29808518  0.50626223  0.62612693  1
  Mo  Mo177  1  0.49042061  0.88405960  0.12633998  1
  Mo  Mo178  1  0.10754220  0.11000862  0.13462729  1
  Mo  Mo179  1  0.60376701  0.39414316  -0.01300549  1
  Mo  Mo180  1  0.60526298  0.59629517  -0.00462630  1
  Mo  Mo181  1  0.00911736  -0.00137035  0.74579438  1
  Mo  Mo182  1  0.10862284  0.49775292  0.12898727  1
  Mo  Mo183  1  0.22003054  0.80411010  -0.00526202  1
  Mo  Mo184  1  0.69893435  0.69751363  0.12331268  1
  Mo  Mo185  1  0.80571652  0.59933034  0.75739151  1
  Mo  Mo186  1  0.30965623  0.91601017  0.62546119  1
  Mo  Mo187  1  0.10145306  0.10953703  0.87378325  1
  Mo  Mo188  1  0.49055153  0.88976230  0.38095949  1
  Mo  Mo189  1  0.51337540  0.51281072  0.87458581  1
  Mo  Mo190  1  0.09614080  0.90054736  0.12006612  1
  Mo  Mo191  1  0.18469305  0.40606477  0.75172632  1
  Mo  Mo192  1  0.79389101  0.20055734  0.76155150  1
  Mo  Mo193  1  0.90479456  0.30751555  0.88040745  1
  Mo  Mo194  1  0.60343931  0.77699449  0.00070329  1
  Mo  Mo195  1  0.31869813  0.72182224  0.87341889  1
  Mo  Mo196  1  0.21380226  0.60096782  -0.00174787  1
  Mo  Mo197  1  0.08864211  0.30697942  0.62704067  1
  Mo  Mo198  1  0.20032185  0.01137711  0.50418208  1
  Mo  Mo199  1  0.70718350  0.88480820  0.37038597  1
