# generated using pymatgen
data_HfZrTaTiMo
_symmetry_space_group_name_H-M   'P 1'
_cell_length_a   15.18329302
_cell_length_b   15.19134853
_cell_length_c   16.82039642
_cell_angle_alpha   89.91605044
_cell_angle_beta   89.96461776
_cell_angle_gamma   89.97445937
_symmetry_Int_Tables_number   1
_chemical_formula_structural   HfZrTaTiMo
_chemical_formula_sum   'Hf40 Zr40 Ta40 Ti40 Mo40'
_cell_volume   3879.69813722
_cell_formula_units_Z   40
loop_
 _symmetry_equiv_pos_site_id
 _symmetry_equiv_pos_as_xyz
  1  'x, y, z'
loop_
 _atom_site_type_symbol
 _atom_site_label
 _atom_site_symmetry_multiplicity
 _atom_site_fract_x
 _atom_site_fract_y
 _atom_site_fract_z
 _atom_site_occupancy
  Hf  Hf0  1  0.09342318  0.90426725  0.11731790  1
  Hf  Hf1  1  0.61429285  0.19326120  0.00679931  1
  Hf  Hf2  1  0.49688951  0.69701724  0.37328917  1
  Hf  Hf3  1  0.72102222  0.50433660  0.87853365  1
  Hf  Hf4  1  0.00642940  0.79579110  -0.01800950  1
  Hf  Hf5  1  0.52070302  0.49720039  0.61468655  1
  Hf  Hf6  1  0.50977523  0.49179034  0.38235955  1
  Hf  Hf7  1  0.67343787  0.89401280  0.89003297  1
  Hf  Hf8  1  0.38606996  0.59564003  0.49143491  1
  Hf  Hf9  1  0.89476473  0.09949709  0.61983043  1
  Hf  Hf10  1  0.19346722  0.79056063  0.48722330  1
  Hf  Hf11  1  0.70444394  0.29310817  0.87213878  1
  Hf  Hf12  1  0.20527527  0.41405795  0.00004955  1
  Hf  Hf13  1  0.91528060  0.50321516  0.36890527  1
  Hf  Hf14  1  0.00868966  0.60405963  0.74727734  1
  Hf  Hf15  1  0.29805144  0.30020122  0.37860924  1
  Hf  Hf16  1  0.90647149  0.69542216  0.13534540  1
  Hf  Hf17  1  0.01246475  0.40304024  0.23981675  1
  Hf  Hf18  1  0.30822979  0.90488534  0.36220165  1
  Hf  Hf19  1  0.31155187  0.30046834  0.11438836  1
  Hf  Hf20  1  0.90639596  0.10558439  0.37821389  1
  Hf  Hf21  1  0.90002504  0.11980024  0.87027267  1
  Hf  Hf22  1  0.89943323  0.29622058  0.37055835  1
  Hf  Hf23  1  0.61501678  0.01216350  0.25961913  1
  Hf  Hf24  1  0.59785164  0.01060375  0.75382701  1
  Hf  Hf25  1  0.19427059  0.19931866  0.51762513  1
  Hf  Hf26  1  0.79909377  0.60030003  0.50353305  1
  Hf  Hf27  1  -0.00229259  0.79610625  0.49158008  1
  Hf  Hf28  1  0.68948967  0.47766454  0.12531379  1
  Hf  Hf29  1  0.30996216  0.50863452  0.63506175  1
  Hf  Hf30  1  0.81228938  0.20373141  0.00784958  1
  Hf  Hf31  1  0.41150111  -0.00675806  -0.00823018  1
  Hf  Hf32  1  0.01394391  0.00052234  0.49873959  1
  Hf  Hf33  1  0.09310970  0.29325061  0.88917638  1
  Hf  Hf34  1  0.69833900  0.91334439  0.11869296  1
  Hf  Hf35  1  0.69343371  0.89883267  0.62017177  1
  Hf  Hf36  1  0.89773188  0.89382206  0.62827314  1
  Hf  Hf37  1  0.09744714  0.10287434  0.11110202  1
  Hf  Hf38  1  0.10887738  0.88960160  0.62971028  1
  Hf  Hf39  1  -0.01636987  0.40807618  0.01287187  1
  Zr  Zr40  1  0.10503022  0.70411874  0.12509507  1
  Zr  Zr41  1  0.39777001  0.78500947  0.24641478  1
  Zr  Zr42  1  0.00426840  0.21879332  0.73036053  1
  Zr  Zr43  1  0.38658076  0.80588075  0.50021066  1
  Zr  Zr44  1  0.60546893  0.60011621  0.75882103  1
  Zr  Zr45  1  0.39942190  -0.00500048  0.76847704  1
  Zr  Zr46  1  0.30316651  0.67761655  0.11581481  1
  Zr  Zr47  1  0.89865543  0.90131758  0.11990016  1
  Zr  Zr48  1  0.50667303  0.70948688  0.87509066  1
  Zr  Zr49  1  0.79464995  0.79756246  0.48912901  1
  Zr  Zr50  1  0.89227031  0.69177915  0.35782320  1
  Zr  Zr51  1  0.80810733  0.39600424  0.50125872  1
  Zr  Zr52  1  0.28936259  0.89780583  0.11935641  1
  Zr  Zr53  1  0.81100284  0.57603488  0.02004483  1
  Zr  Zr54  1  0.40618180  0.39992781  0.24989501  1
  Zr  Zr55  1  0.40802992  0.20255569  -0.00583050  1
  Zr  Zr56  1  0.20728120  0.40786058  0.24123378  1
  Zr  Zr57  1  0.88234860  0.89641895  0.88352919  1
  Zr  Zr58  1  0.68857840  0.10291813  0.60991687  1
  Zr  Zr59  1  0.40480938  0.19816513  0.76498005  1
  Zr  Zr60  1  0.21363804  -0.00408274  0.49989585  1
  Zr  Zr61  1  0.19554576  0.18974266  0.74097923  1
  Zr  Zr62  1  -0.00278449  0.21402888  0.51862942  1
  Zr  Zr63  1  0.58300834  0.21101180  0.49307210  1
  Zr  Zr64  1  0.78967468  0.39375331  0.25428376  1
  Zr  Zr65  1  0.59218163  0.80869888  0.49135011  1
  Zr  Zr66  1  0.48679667  0.69707217  0.62634539  1
  Zr  Zr67  1  0.20057780  0.20227191  0.24276152  1
  Zr  Zr68  1  0.90062623  0.29390094  0.13456565  1
  Zr  Zr69  1  0.30996603  0.30296740  0.63274456  1
  Zr  Zr70  1  0.00979847  0.00412585  0.75736390  1
  Zr  Zr71  1  0.78375674  0.81016143  0.25327565  1
  Zr  Zr72  1  0.49145144  0.90492373  0.13823252  1
  Zr  Zr73  1  0.18535923  0.79301414  0.76654426  1
  Zr  Zr74  1  0.79458079  -0.00748264  0.75626547  1
  Zr  Zr75  1  0.79102558  0.20605741  0.74191751  1
  Zr  Zr76  1  0.69171990  0.31247791  0.61855709  1
  Zr  Zr77  1  0.40659125  0.41999179  0.77097198  1
  Zr  Zr78  1  0.88299767  0.67776702  0.87240197  1
  Zr  Zr79  1  0.19042950  0.80072973  0.26117033  1
  Ta  Ta80  1  0.40207259  0.58598980  -0.01754409  1
  Ta  Ta81  1  0.30273636  0.69527745  0.87598512  1
  Ta  Ta82  1  0.69936843  0.50749351  0.37241031  1
  Ta  Ta83  1  0.69190800  0.69196509  0.62177260  1
  Ta  Ta84  1  0.78902107  0.18471076  0.24594540  1
  Ta  Ta85  1  0.39000559  0.80056763  0.74809918  1
  Ta  Ta86  1  0.41256931  0.00408103  0.49438858  1
  Ta  Ta87  1  0.09095266  0.68523832  0.36724974  1
  Ta  Ta88  1  0.89936497  0.90773332  0.36794078  1
  Ta  Ta89  1  0.70426946  0.11162791  0.38466688  1
  Ta  Ta90  1  0.49311369  0.10618515  0.62780255  1
  Ta  Ta91  1  0.78004074  0.77810612  0.00757361  1
  Ta  Ta92  1  0.20017016  0.00806949  0.25111441  1
  Ta  Ta93  1  0.48526125  0.50175507  0.11511925  1
  Ta  Ta94  1  0.51748146  0.30962154  0.12550283  1
  Ta  Ta95  1  0.09758981  0.30234865  0.38005526  1
  Ta  Ta96  1  0.00779124  0.60329131  0.50909377  1
  Ta  Ta97  1  0.29084766  0.10086724  0.88778884  1
  Ta  Ta98  1  -0.00995287  0.01044180  -0.01118129  1
  Ta  Ta99  1  0.39397270  0.19066582  0.50329651  1
  Ta  Ta100  1  0.80739658  0.41377067  0.73935518  1
  Ta  Ta101  1  0.79838004  -0.00142573  0.49070850  1
  Ta  Ta102  1  0.31267599  0.10351096  0.37072301  1
  Ta  Ta103  1  0.01592994  0.41003408  0.50959153  1
  Ta  Ta104  1  0.20429556  -0.00657148  0.76087797  1
  Ta  Ta105  1  0.41077426  0.38744771  0.49973308  1
  Ta  Ta106  1  0.59029244  0.80959282  0.74615694  1
  Ta  Ta107  1  0.19286779  0.39998224  0.75758165  1
  Ta  Ta108  1  0.20968527  0.40856915  0.50180983  1
  Ta  Ta109  1  0.58991257  0.59240847  0.23757630  1
  Ta  Ta110  1  0.60778565  0.39821009  0.75797764  1
  Ta  Ta111  1  -0.00888419  0.80004641  0.76411681  1
  Ta  Ta112  1  0.58766242  0.79642958  0.01955427  1
  Ta  Ta113  1  0.00750410  0.00239499  0.25559945  1
  Ta  Ta114  1  0.89833825  0.32270069  0.87471485  1
  Ta  Ta115  1  0.78111402  0.78356998  0.75246172  1
  Ta  Ta116  1  0.48953435  0.91216631  0.62492180  1
  Ta  Ta117  1  0.00775995  0.59578511  -0.00474707  1
  Ta  Ta118  1  0.50886989  0.10322728  0.12803569  1
  Ta  Ta119  1  0.60539176  0.60735476  0.00547603  1
  Ti  Ti120  1  0.10404392  0.29436297  0.10767357  1
  Ti  Ti121  1  0.00292290  0.40683158  0.73994659  1
  Ti  Ti122  1  0.19423192  -0.00860303  -0.01102749  1
  Ti  Ti123  1  0.28005509  0.70336385  0.63295857  1
  Ti  Ti124  1  0.79199949  0.59475907  0.23734315  1
  Ti  Ti125  1  0.69085148  0.30836293  0.38090509  1
  Ti  Ti126  1  0.89747471  0.08877569  0.13023272  1
  Ti  Ti127  1  0.90105255  0.70174850  0.63234733  1
  Ti  Ti128  1  0.68771701  0.69438779  0.36681715  1
  Ti  Ti129  1  0.10415693  0.10320242  0.88769854  1
  Ti  Ti130  1  0.59836276  0.78927622  0.23750848  1
  Ti  Ti131  1  0.50981749  0.30010037  0.87352748  1
  Ti  Ti132  1  -0.00145542  0.80572698  0.25828126  1
  Ti  Ti133  1  0.60119621  0.40234354  -0.00961018  1
  Ti  Ti134  1  0.50150038  0.30040616  0.63514367  1
  Ti  Ti135  1  0.19787782  0.60748245  -0.01569552  1
  Ti  Ti136  1  0.10698446  0.51483189  0.12305382  1
  Ti  Ti137  1  0.11306193  0.50960379  0.62814686  1
  Ti  Ti138  1  0.39706373  0.78951745  0.00313352  1
  Ti  Ti139  1  0.20776061  0.59466247  0.76317591  1
  Ti  Ti140  1  0.49598477  0.28950838  0.36726363  1
  Ti  Ti141  1  0.11200917  0.49657407  0.37646140  1
  Ti  Ti142  1  0.30464443  0.07631445  0.62927844  1
  Ti  Ti143  1  0.19415177  0.59939980  0.49690379  1
  Ti  Ti144  1  0.52231177  0.09729987  0.88327231  1
  Ti  Ti145  1  0.78300071  0.01283843  -0.00617075  1
  Ti  Ti146  1  0.50376373  0.90861966  0.35720207  1
  Ti  Ti147  1  0.40671353  0.18917583  0.24233212  1
  Ti  Ti148  1  0.59431872  0.00479871  0.48374156  1
  Ti  Ti149  1  0.60395064  0.21157700  0.24855662  1
  Ti  Ti150  1  0.00674885  0.19592860  0.24931505  1
  Ti  Ti151  1  0.30303384  0.09367345  0.11530122  1
  Ti  Ti152  1  0.29664297  0.89076711  0.88694397  1
  Ti  Ti153  1  0.90258667  0.50526141  0.62381877  1
  Ti  Ti154  1  0.39255442  0.58899125  0.25639040  1
  Ti  Ti155  1  0.09308323  0.49769440  0.87451723  1
  Ti  Ti156  1  0.40556691  0.40314368  -0.01449796  1
  Ti  Ti157  1  0.20698982  0.59563366  0.25846344  1
  Ti  Ti158  1  0.11106069  0.10585036  0.37513617  1
  Ti  Ti159  1  0.29137960  0.29959533  0.87932219  1
  Mo  Mo160  1  0.09813981  0.69220785  0.87722597  1
  Mo  Mo161  1  0.69391289  0.69540486  0.13238777  1
  Mo  Mo162  1  0.20297042  0.79752552  -0.01544102  1
  Mo  Mo163  1  0.30174474  0.50095240  0.11342029  1
  Mo  Mo164  1  0.90732939  0.50249484  0.14042937  1
  Mo  Mo165  1  0.80946008  0.00522040  0.25865348  1
  Mo  Mo166  1  0.01611787  0.59637670  0.24818456  1
  Mo  Mo167  1  0.48967677  0.89255543  0.87967638  1
  Mo  Mo168  1  0.59110176  0.20416592  0.75271834  1
  Mo  Mo169  1  0.39751136  0.01360818  0.24501945  1
  Mo  Mo170  1  0.09546141  0.69495814  0.62496582  1
  Mo  Mo171  1  0.69398821  0.29015337  0.12681994  1
  Mo  Mo172  1  0.60124372  0.40674971  0.49393959  1
  Mo  Mo173  1  0.69891605  0.90809739  0.37742982  1
  Mo  Mo174  1  0.20562784  0.19756867  0.00170029  1
  Mo  Mo175  1  0.79222476  0.39174090  0.00282389  1
  Mo  Mo176  1  0.49615670  0.10380465  0.36699570  1
  Mo  Mo177  1  0.51230434  0.49734143  0.88680456  1
  Mo  Mo178  1  0.09528329  0.90632342  0.36928125  1
  Mo  Mo179  1  0.00068602  0.19948557  -0.00042908  1
  Mo  Mo180  1  0.80275732  0.60007865  0.73416956  1
  Mo  Mo181  1  0.59606485  0.39804056  0.25376010  1
  Mo  Mo182  1  0.11085727  0.32596422  0.62384932  1
  Mo  Mo183  1  0.59600442  0.00208111  0.00591057  1
  Mo  Mo184  1  0.09888710  0.90820952  0.88087566  1
  Mo  Mo185  1  0.90299105  0.31549343  0.62398495  1
  Mo  Mo186  1  0.60765261  0.60581563  0.49419549  1
  Mo  Mo187  1  0.39587507  0.60854101  0.76065679  1
  Mo  Mo188  1  0.70576154  0.09976624  0.13014014  1
  Mo  Mo189  1  0.30520500  0.89330499  0.62979540  1
  Mo  Mo190  1  0.79647367  0.19771210  0.49634074  1
  Mo  Mo191  1  0.29957455  0.49795349  0.38159802  1
  Mo  Mo192  1  0.70337355  0.09680418  0.87694117  1
  Mo  Mo193  1  0.70598879  0.50719268  0.62760915  1
  Mo  Mo194  1  0.28984161  0.68631764  0.37121460  1
  Mo  Mo195  1  0.11012060  0.08765543  0.63209987  1
  Mo  Mo196  1  0.91025023  0.49177667  0.86774654  1
  Mo  Mo197  1  0.69990756  0.70336883  0.88101180  1
  Mo  Mo198  1  0.49848073  0.68813364  0.11937218  1
  Mo  Mo199  1  0.29414951  0.49899466  0.87266156  1
