# generated using pymatgen
data_HfZrTaTiMo
_symmetry_space_group_name_H-M   'P 1'
_cell_length_a   15.21798385
_cell_length_b   15.21167504
_cell_length_c   16.85489166
_cell_angle_alpha   89.92912690
_cell_angle_beta   89.96058016
_cell_angle_gamma   89.92078935
_symmetry_Int_Tables_number   1
_chemical_formula_structural   HfZrTaTiMo
_chemical_formula_sum   'Hf40 Zr40 Ta40 Ti40 Mo40'
_cell_volume   3901.74851651
_cell_formula_units_Z   40
loop_
 _symmetry_equiv_pos_site_id
 _symmetry_equiv_pos_as_xyz
  1  'x, y, z'
loop_
 _atom_site_type_symbol
 _atom_site_label
 _atom_site_symmetry_multiplicity
 _atom_site_fract_x
 _atom_site_fract_y
 _atom_site_fract_z
 _atom_site_occupancy
  Hf  Hf0  1  0.28668816  0.49258868  0.13243030  1
  Hf  Hf1  1  0.49051182  0.50785236  0.39215625  1
  Hf  Hf2  1  0.21715170  0.79895488  0.24962839  1
  Hf  Hf3  1  0.38293879  0.61805106  0.25168177  1
  Hf  Hf4  1  0.88772517  0.50177339  0.15925261  1
  Hf  Hf5  1  0.10958224  0.08163937  0.62543189  1
  Hf  Hf6  1  0.00497534  0.19642318  0.74582437  1
  Hf  Hf7  1  0.50549291  0.11472728  0.10728269  1
  Hf  Hf8  1  0.80765329  0.00410305  0.25024446  1
  Hf  Hf9  1  0.89338759  0.09245098  0.87057840  1
  Hf  Hf10  1  0.90425755  0.69214395  0.35861445  1
  Hf  Hf11  1  0.69890738  0.70150619  0.14805383  1
  Hf  Hf12  1  0.01328789  0.20155296  0.49985101  1
  Hf  Hf13  1  0.89615908  0.51665422  0.85665192  1
  Hf  Hf14  1  0.59097057  0.21302523  0.75244527  1
  Hf  Hf15  1  0.01081093  -0.00777325  -0.00494316  1
  Hf  Hf16  1  0.29182179  0.09985325  0.11371818  1
  Hf  Hf17  1  0.60064906  0.00133275  0.50156029  1
  Hf  Hf18  1  0.01231173  0.40509073  0.75092238  1
  Hf  Hf19  1  0.50413790  0.31182429  0.38550453  1
  Hf  Hf20  1  0.48895197  0.72326986  0.12240014  1
  Hf  Hf21  1  0.00141630  -0.02234439  0.74576630  1
  Hf  Hf22  1  0.59319868  0.01231158  0.25147551  1
  Hf  Hf23  1  0.39323949  0.01538075  0.76541756  1
  Hf  Hf24  1  0.00501162  0.57830114  0.49599336  1
  Hf  Hf25  1  0.31765866  0.88927489  0.11983371  1
  Hf  Hf26  1  -0.00543921  0.57873019  -0.00239480  1
  Hf  Hf27  1  0.08360314  0.48524515  0.14308873  1
  Hf  Hf28  1  0.48361123  0.30504226  0.61559585  1
  Hf  Hf29  1  0.38862419  0.61774683  0.00216084  1
  Hf  Hf30  1  0.68691616  0.49617733  0.14687928  1
  Hf  Hf31  1  0.21505315  0.79511763  0.00111349  1
  Hf  Hf32  1  0.29612410  0.30044783  0.37010617  1
  Hf  Hf33  1  0.29798472  0.12492327  0.62969764  1
  Hf  Hf34  1  0.79875098  0.20411099  0.50063971  1
  Hf  Hf35  1  0.78720563  0.40386406  0.74882562  1
  Hf  Hf36  1  0.18312543  0.80409224  0.51235788  1
  Hf  Hf37  1  0.19384374  0.39316308  -0.00586875  1
  Hf  Hf38  1  0.80368639  0.80297604  0.74048155  1
  Hf  Hf39  1  0.50284255  0.50310695  0.87682543  1
  Zr  Zr40  1  0.60568175  0.79744973  -0.00847323  1
  Zr  Zr41  1  0.80152023  -0.00037888  0.00526330  1
  Zr  Zr42  1  0.10820602  0.69358994  0.37671280  1
  Zr  Zr43  1  0.69661358  0.72739378  0.36376674  1
  Zr  Zr44  1  0.59362506  0.20077954  0.50407747  1
  Zr  Zr45  1  0.00587073  0.18470151  0.25763820  1
  Zr  Zr46  1  0.39274436  0.01853011  0.49630789  1
  Zr  Zr47  1  0.01268850  0.77953360  -0.00863661  1
  Zr  Zr48  1  0.60030332  0.79448112  0.74343226  1
  Zr  Zr49  1  0.91110453  0.89583897  0.12912339  1
  Zr  Zr50  1  0.69356331  0.89967819  0.13114950  1
  Zr  Zr51  1  0.69357011  0.29504371  0.11521589  1
  Zr  Zr52  1  0.79344372  0.60242844  0.00601117  1
  Zr  Zr53  1  0.50258850  0.90192488  0.87990695  1
  Zr  Zr54  1  0.18302566  0.39258425  0.49933274  1
  Zr  Zr55  1  0.40763173  0.40262848  0.24492973  1
  Zr  Zr56  1  0.70618606  0.68762752  0.86433916  1
  Zr  Zr57  1  0.10782017  0.08850790  0.86306562  1
  Zr  Zr58  1  0.79500830  0.19226116  0.75017573  1
  Zr  Zr59  1  0.90529278  0.69514095  0.14695516  1
  Zr  Zr60  1  0.29207496  0.50610038  0.86958283  1
  Zr  Zr61  1  0.69680665  0.30398961  0.88636854  1
  Zr  Zr62  1  0.49832471  0.90938998  0.62586972  1
  Zr  Zr63  1  0.81192012  0.41038368  0.00015810  1
  Zr  Zr64  1  0.81093887  0.79557610  -0.00889848  1
  Zr  Zr65  1  0.57738781  0.61001693  0.26258414  1
  Zr  Zr66  1  0.39218445  0.00208292  0.25255959  1
  Zr  Zr67  1  0.28648543  0.91683941  0.62773281  1
  Zr  Zr68  1  0.18681848  0.60126180  0.00359584  1
  Zr  Zr69  1  0.90878062  0.30456650  0.12844714  1
  Zr  Zr70  1  0.50553718  0.49310578  0.60764367  1
  Zr  Zr71  1  0.11551974  0.28461772  0.12969496  1
  Zr  Zr72  1  0.90350868  0.29927906  0.62410487  1
  Zr  Zr73  1  0.61222951  0.00548715  0.75016206  1
  Zr  Zr74  1  0.79926551  -0.00982050  0.50119206  1
  Zr  Zr75  1  0.70070891  0.10555076  0.37414651  1
  Zr  Zr76  1  0.40069051  0.60151940  0.74310933  1
  Zr  Zr77  1  0.89645614  0.88948563  0.37621867  1
  Zr  Zr78  1  0.79962725  0.59919156  0.49144614  1
  Zr  Zr79  1  0.50175876  0.70045595  0.61189232  1
  Ta  Ta80  1  0.29251031  0.69815014  0.62716404  1
  Ta  Ta81  1  0.28698717  0.50464302  0.37404799  1
  Ta  Ta82  1  0.48840592  0.11326211  0.37140173  1
  Ta  Ta83  1  0.39567307  0.40310522  0.00966201  1
  Ta  Ta84  1  0.90412793  0.48828883  0.35654021  1
  Ta  Ta85  1  0.69083626  0.31138059  0.62550705  1
  Ta  Ta86  1  0.18949743  0.79469749  0.73733487  1
  Ta  Ta87  1  0.12067772  0.29217407  0.63017922  1
  Ta  Ta88  1  0.49507561  0.30879486  0.88408937  1
  Ta  Ta89  1  0.28741236  0.71214400  0.86026383  1
  Ta  Ta90  1  0.11482110  0.87849714  0.86657542  1
  Ta  Ta91  1  0.91343566  0.88459524  0.61764764  1
  Ta  Ta92  1  0.90738160  0.30082952  0.87653443  1
  Ta  Ta93  1  0.70277258  0.10096830  0.62684422  1
  Ta  Ta94  1  0.69834855  0.49481044  0.36377051  1
  Ta  Ta95  1  0.21110887  0.18785336  0.25187556  1
  Ta  Ta96  1  0.00689793  0.19935635  -0.00426169  1
  Ta  Ta97  1  0.09984075  0.90049480  0.37716179  1
  Ta  Ta98  1  0.59529092  0.59833357  0.00611132  1
  Ta  Ta99  1  0.01762896  0.80612847  0.24912662  1
  Ta  Ta100  1  0.69175544  0.10152170  0.88912939  1
  Ta  Ta101  1  0.01306650  -0.00079137  0.25207059  1
  Ta  Ta102  1  0.50561856  0.89991361  0.38328367  1
  Ta  Ta103  1  0.61129140  0.58581109  0.73782318  1
  Ta  Ta104  1  0.40474223  0.20384490  0.24048671  1
  Ta  Ta105  1  0.81142775  0.40364674  0.49414049  1
  Ta  Ta106  1  0.20653316  0.39597791  0.75241580  1
  Ta  Ta107  1  0.49490735  0.50810404  0.12292985  1
  Ta  Ta108  1  0.91230026  0.10381178  0.12165238  1
  Ta  Ta109  1  0.90846255  0.50175647  0.63058959  1
  Ta  Ta110  1  0.29282131  0.90739086  0.38528600  1
  Ta  Ta111  1  0.29466654  0.48945213  0.62814828  1
  Ta  Ta112  1  0.89986767  0.29644024  0.37327410  1
  Ta  Ta113  1  0.79883472  0.19510659  0.25006994  1
  Ta  Ta114  1  0.59971274  0.22158624  0.25127164  1
  Ta  Ta115  1  0.40344155  0.39337117  0.75194180  1
  Ta  Ta116  1  0.20332572  0.59193015  0.50917909  1
  Ta  Ta117  1  0.20388946  0.19403879  -0.01372416  1
  Ta  Ta118  1  0.39028919  0.80600630  0.74984384  1
  Ta  Ta119  1  0.90118136  0.08578356  0.62281654  1
  Ti  Ti120  1  0.39221987  -0.00092918  -0.01483827  1
  Ti  Ti121  1  0.41180695  0.80778759  0.26524473  1
  Ti  Ti122  1  0.21293517  0.20176063  0.76755594  1
  Ti  Ti123  1  0.59071142  0.40338365  0.00742596  1
  Ti  Ti124  1  0.10456046  0.69667465  0.13480837  1
  Ti  Ti125  1  0.49424325  0.71340498  0.39450600  1
  Ti  Ti126  1  0.00070723  0.77708191  0.75581286  1
  Ti  Ti127  1  0.79787750  0.79527234  0.51219751  1
  Ti  Ti128  1  0.71175881  0.91277068  0.87146864  1
  Ti  Ti129  1  0.01219442  -0.02024620  0.50439677  1
  Ti  Ti130  1  0.70021459  0.10471114  0.11503920  1
  Ti  Ti131  1  0.20452537  -0.00478051  -0.01004417  1
  Ti  Ti132  1  0.61206445  0.60831156  0.49709439  1
  Ti  Ti133  1  0.78337762  0.37976336  0.26074705  1
  Ti  Ti134  1  0.62275107  0.40421339  0.49490664  1
  Ti  Ti135  1  0.89715829  0.68816747  0.62436615  1
  Ti  Ti136  1  0.19460160  0.59887975  0.24994616  1
  Ti  Ti137  1  0.09608953  0.48597621  0.35828367  1
  Ti  Ti138  1  0.38098136  0.21496012  0.49626618  1
  Ti  Ti139  1  0.39403036  0.80879192  0.50543067  1
  Ti  Ti140  1  0.10190109  0.30147132  0.87328358  1
  Ti  Ti141  1  0.11217826  0.90711234  0.12482577  1
  Ti  Ti142  1  0.19623866  0.00000870  0.25126869  1
  Ti  Ti143  1  0.49450828  0.69807370  0.87159682  1
  Ti  Ti144  1  0.80805142  0.20018578  -0.00036089  1
  Ti  Ti145  1  0.91440818  0.09336843  0.38350873  1
  Ti  Ti146  1  0.30254187  0.70636564  0.39061862  1
  Ti  Ti147  1  0.38702288  0.60286124  0.50594034  1
  Ti  Ti148  1  0.50301556  0.11189851  0.89336644  1
  Ti  Ti149  1  0.12022296  0.09371039  0.38676161  1
  Ti  Ti150  1  0.49618744  0.10748693  0.63143788  1
  Ti  Ti151  1  0.08669194  0.68912511  0.62268121  1
  Ti  Ti152  1  0.39373711  0.21765577  -0.00067377  1
  Ti  Ti153  1  0.39490258  0.21112271  0.76674050  1
  Ti  Ti154  1  0.61450511  0.80869954  0.50968569  1
  Ti  Ti155  1  0.70976910  0.50508228  0.62006973  1
  Ti  Ti156  1  0.50448025  0.91502215  0.10753995  1
  Ti  Ti157  1  0.09824802  0.29788811  0.36598827  1
  Ti  Ti158  1  0.90491870  0.89057354  0.86962542  1
  Ti  Ti159  1  0.69073913  0.49850162  0.87301760  1
  Mo  Mo160  1  0.80398883  -0.00354984  0.74078594  1
  Mo  Mo161  1  0.29804487  0.30283220  0.63026779  1
  Mo  Mo162  1  0.09702822  0.49375631  0.86995942  1
  Mo  Mo163  1  0.30784573  0.10582631  0.88836236  1
  Mo  Mo164  1  0.00353263  0.39037499  -0.01395721  1
  Mo  Mo165  1  0.59372892  0.40074249  0.25468818  1
  Mo  Mo166  1  0.59537559  0.20694097  -0.00390653  1
  Mo  Mo167  1  -0.00276044  0.38574094  0.25833604  1
  Mo  Mo168  1  0.79962063  0.60210724  0.73393319  1
  Mo  Mo169  1  0.20089977  0.39175184  0.25895317  1
  Mo  Mo170  1  0.29680445  0.70034166  0.13250653  1
  Mo  Mo171  1  0.29392153  0.90207110  0.86674793  1
  Mo  Mo172  1  0.69031135  0.90287255  0.36812997  1
  Mo  Mo173  1  0.20170297  0.19420512  0.49655495  1
  Mo  Mo174  1  -0.00702634  0.39416705  0.49575750  1
  Mo  Mo175  1  0.00949006  0.59969751  0.25734311  1
  Mo  Mo176  1  0.10181067  0.49634861  0.62526097  1
  Mo  Mo177  1  0.09346961  0.88533580  0.62985531  1
  Mo  Mo178  1  -0.01011789  0.78794892  0.50387051  1
  Mo  Mo179  1  0.37827341  0.41530228  0.49716920  1
  Mo  Mo180  1  0.60221235  0.00682236  -0.00474592  1
  Mo  Mo181  1  0.71089005  0.90363596  0.62476114  1
  Mo  Mo182  1  0.18746480  0.59552151  0.73647169  1
  Mo  Mo183  1  0.70508686  0.30394022  0.37603807  1
  Mo  Mo184  1  0.20439216  -0.00571863  0.75846361  1
  Mo  Mo185  1  0.10155842  0.08639138  0.11780443  1
  Mo  Mo186  1  0.49695873  0.31104939  0.11876947  1
  Mo  Mo187  1  0.70350218  0.69495610  0.62107626  1
  Mo  Mo188  1  0.80240684  0.80920810  0.25030508  1
  Mo  Mo189  1  0.19538330  0.00182019  0.49518371  1
  Mo  Mo190  1  0.00617635  0.60232261  0.74126139  1
  Mo  Mo191  1  0.59297475  0.40440175  0.74774996  1
  Mo  Mo192  1  0.79240219  0.59638378  0.26583889  1
  Mo  Mo193  1  0.29891746  0.10414091  0.36910776  1
  Mo  Mo194  1  0.30434838  0.30332844  0.87674397  1
  Mo  Mo195  1  0.39871261  0.80443372  -0.01432791  1
  Mo  Mo196  1  0.10356205  0.68001653  0.86163300  1
  Mo  Mo197  1  0.58187900  0.82008054  0.25123330  1
  Mo  Mo198  1  0.30507064  0.29211373  0.12728004  1
  Mo  Mo199  1  0.90586979  0.70142068  0.86580248  1
