# generated using pymatgen
data_HfZrTaTiMo
_symmetry_space_group_name_H-M   'P 1'
_cell_length_a   15.22064717
_cell_length_b   15.21549566
_cell_length_c   16.84176499
_cell_angle_alpha   90.03348585
_cell_angle_beta   90.00666870
_cell_angle_gamma   89.90775269
_symmetry_Int_Tables_number   1
_chemical_formula_structural   HfZrTaTiMo
_chemical_formula_sum   'Hf40 Zr40 Ta40 Ti40 Mo40'
_cell_volume   3900.37340226
_cell_formula_units_Z   40
loop_
 _symmetry_equiv_pos_site_id
 _symmetry_equiv_pos_as_xyz
  1  'x, y, z'
loop_
 _atom_site_type_symbol
 _atom_site_label
 _atom_site_symmetry_multiplicity
 _atom_site_fract_x
 _atom_site_fract_y
 _atom_site_fract_z
 _atom_site_occupancy
  Hf  Hf0  1  0.79642180  0.19366486  0.25145416  1
  Hf  Hf1  1  0.40758923  0.58313432  0.23933824  1
  Hf  Hf2  1  0.20396707  0.61404620  0.75020684  1
  Hf  Hf3  1  0.00803711  0.80320536  0.48241113  1
  Hf  Hf4  1  -0.00039476  0.59742445  0.49434145  1
  Hf  Hf5  1  0.60191281  -0.00971163  0.49662756  1
  Hf  Hf6  1  0.09122104  0.90391783  0.11376903  1
  Hf  Hf7  1  0.69095408  0.70623322  0.62327099  1
  Hf  Hf8  1  0.51191337  0.09283490  0.12739494  1
  Hf  Hf9  1  0.79943834  0.40258003  0.50255852  1
  Hf  Hf10  1  0.40302593  0.59998276  0.01172675  1
  Hf  Hf11  1  0.71359183  0.70277370  0.13860061  1
  Hf  Hf12  1  0.90314770  0.70890886  0.61799021  1
  Hf  Hf13  1  0.20902609  0.21133887  0.23826593  1
  Hf  Hf14  1  0.10238683  0.49528024  0.61660030  1
  Hf  Hf15  1  0.78306783  0.00027979  -0.01179702  1
  Hf  Hf16  1  0.51552960  0.70126705  0.13911230  1
  Hf  Hf17  1  0.41496197  -0.00312109  0.00296239  1
  Hf  Hf18  1  0.80175993  0.20213306  0.51090032  1
  Hf  Hf19  1  0.49081686  0.11417083  0.62268564  1
  Hf  Hf20  1  0.19197192  -0.00405380  0.50489106  1
  Hf  Hf21  1  0.39702214  0.40355498  0.01805900  1
  Hf  Hf22  1  0.59329539  0.61540560  0.47970728  1
  Hf  Hf23  1  0.80220944  0.79811873  0.75907156  1
  Hf  Hf24  1  0.90459713  0.29507609  0.12347530  1
  Hf  Hf25  1  0.59474902  0.00655610  0.26584975  1
  Hf  Hf26  1  0.29475849  0.11658836  0.37840464  1
  Hf  Hf27  1  0.59107717  0.40230679  0.49233838  1
  Hf  Hf28  1  0.01121118  0.18924374  0.24102437  1
  Hf  Hf29  1  0.89334762  0.50464748  0.36842226  1
  Hf  Hf30  1  0.10399862  0.48394958  0.37994111  1
  Hf  Hf31  1  0.10036123  0.88403702  0.62078825  1
  Hf  Hf32  1  0.20013197  -0.02189792  0.74069769  1
  Hf  Hf33  1  0.29581051  0.90027187  0.12822605  1
  Hf  Hf34  1  0.81541529  0.19947233  -0.01751938  1
  Hf  Hf35  1  0.11531757  0.09679695  0.88614466  1
  Hf  Hf36  1  0.31130163  0.49788719  0.61707879  1
  Hf  Hf37  1  0.49382074  0.88391642  0.62321654  1
  Hf  Hf38  1  0.39279203  0.00884374  0.74252364  1
  Hf  Hf39  1  0.57434677  0.40292432  0.25751563  1
  Zr  Zr40  1  0.91269867  0.70286998  0.12408435  1
  Zr  Zr41  1  0.29682653  0.90550120  0.88790896  1
  Zr  Zr42  1  0.01166088  0.79442413  0.75958957  1
  Zr  Zr43  1  0.59361843  0.81100125  -0.00704621  1
  Zr  Zr44  1  0.10780521  0.70339685  0.13576514  1
  Zr  Zr45  1  0.72691302  0.70565258  0.35972928  1
  Zr  Zr46  1  0.29948307  0.29241841  0.87660563  1
  Zr  Zr47  1  0.89847178  0.92292008  0.61568423  1
  Zr  Zr48  1  -0.00480089  0.40627063  0.00047263  1
  Zr  Zr49  1  0.91865951  0.30085310  0.37431612  1
  Zr  Zr50  1  0.40878577  0.20255660  0.24423919  1
  Zr  Zr51  1  0.69511194  0.50814149  0.62163213  1
  Zr  Zr52  1  0.40358417  0.80312270  0.26601255  1
  Zr  Zr53  1  0.59488154  0.20980985  0.50133381  1
  Zr  Zr54  1  0.00089554  0.59801745  0.74629923  1
  Zr  Zr55  1  0.80639473  0.40349915  0.74569842  1
  Zr  Zr56  1  0.88890231  0.50673003  0.12853007  1
  Zr  Zr57  1  0.49366045  0.30233060  0.87070896  1
  Zr  Zr58  1  0.20180319  0.39519564  0.74301467  1
  Zr  Zr59  1  0.79813597  -0.00930216  0.24785571  1
  Zr  Zr60  1  0.69480295  0.89954614  0.63742496  1
  Zr  Zr61  1  0.69685809  0.29500116  0.12340868  1
  Zr  Zr62  1  0.21099270  0.18358664  0.73565310  1
  Zr  Zr63  1  0.89979069  0.09923613  0.38189460  1
  Zr  Zr64  1  0.69821809  0.30000919  0.86684163  1
  Zr  Zr65  1  0.69876916  0.50358860  0.87557977  1
  Zr  Zr66  1  0.00054419  0.81591317  0.26375555  1
  Zr  Zr67  1  0.09441265  0.29595575  0.88531607  1
  Zr  Zr68  1  0.79082682  0.39989226  0.25095170  1
  Zr  Zr69  1  0.09357602  0.10269248  0.38383593  1
  Zr  Zr70  1  0.40840350  0.59876878  0.75472877  1
  Zr  Zr71  1  0.59874385  0.40329278  0.00663278  1
  Zr  Zr72  1  0.79891087  0.79558360  -0.01330859  1
  Zr  Zr73  1  0.41648012  0.78848288  0.47236225  1
  Zr  Zr74  1  0.38961287  -0.00419222  0.50014970  1
  Zr  Zr75  1  0.19663739  0.60346896  0.00333218  1
  Zr  Zr76  1  -0.01115555  0.00186704  -0.01481719  1
  Zr  Zr77  1  0.88697479  0.90384998  0.38645856  1
  Zr  Zr78  1  0.21248710  0.21709648  0.52552477  1
  Zr  Zr79  1  0.37927401  0.79730698  0.75167534  1
  Ta  Ta80  1  0.69142085  0.30006795  0.63719875  1
  Ta  Ta81  1  0.10928343  0.69024604  0.37130556  1
  Ta  Ta82  1  0.10500299  0.50572156  0.87664419  1
  Ta  Ta83  1  0.90450999  0.09237927  0.12063716  1
  Ta  Ta84  1  0.60900261  0.81198078  0.26740038  1
  Ta  Ta85  1  -0.00005891  0.20133028  0.74693650  1
  Ta  Ta86  1  0.49700182  0.68989848  0.61767411  1
  Ta  Ta87  1  0.10669914  0.88955413  0.88351152  1
  Ta  Ta88  1  0.20440416  0.40501973  0.00555004  1
  Ta  Ta89  1  0.49615326  0.10957471  0.38313298  1
  Ta  Ta90  1  0.59940797  0.60452449  0.75316628  1
  Ta  Ta91  1  0.58297470  0.79030974  0.76181556  1
  Ta  Ta92  1  0.11789607  0.70001605  0.60942269  1
  Ta  Ta93  1  0.89025561  0.89872219  0.11903722  1
  Ta  Ta94  1  0.80225583  0.60637617  0.75383749  1
  Ta  Ta95  1  0.38987421  0.37643148  0.49752493  1
  Ta  Ta96  1  0.10783273  0.29777552  0.11089514  1
  Ta  Ta97  1  0.20510380  0.58439196  0.25163557  1
  Ta  Ta98  1  0.20624437  0.80203271  0.27105033  1
  Ta  Ta99  1  0.08471226  0.08884956  0.62661957  1
  Ta  Ta100  1  0.00262865  0.59943948  0.26012049  1
  Ta  Ta101  1  0.90444131  0.50197141  0.87669462  1
  Ta  Ta102  1  0.70582229  0.09949036  0.63292170  1
  Ta  Ta103  1  0.68784861  0.90571830  0.86013436  1
  Ta  Ta104  1  0.80784211  0.19884947  0.75394143  1
  Ta  Ta105  1  0.40468616  0.19904005  0.01066594  1
  Ta  Ta106  1  0.30363300  0.49449401  0.87484469  1
  Ta  Ta107  1  0.60123993  0.18496392  -0.00541403  1
  Ta  Ta108  1  0.36992082  0.39447496  0.23740781  1
  Ta  Ta109  1  0.80435764  0.00845308  0.76292819  1
  Ta  Ta110  1  0.21351012  0.80087483  0.47295587  1
  Ta  Ta111  1  0.00391962  0.19952549  0.52034449  1
  Ta  Ta112  1  0.18177352  0.00155256  0.25030665  1
  Ta  Ta113  1  0.68862792  0.90368561  0.12496392  1
  Ta  Ta114  1  -0.00181824  0.00422873  0.76367605  1
  Ta  Ta115  1  0.69834398  0.30143018  0.37510585  1
  Ta  Ta116  1  0.80242500  0.60820442  0.49651725  1
  Ta  Ta117  1  0.58571489  0.41137004  0.74644274  1
  Ta  Ta118  1  0.40130227  0.79134977  0.00399832  1
  Ta  Ta119  1  0.60149164  0.60756878  0.00190202  1
  Ti  Ti120  1  0.30542681  0.70780729  0.60771158  1
  Ti  Ti121  1  0.00327119  0.78189623  -0.01545399  1
  Ti  Ti122  1  0.20330763  0.79822160  0.00242371  1
  Ti  Ti123  1  0.10311429  0.09983364  0.10586792  1
  Ti  Ti124  1  0.47869150  0.50068617  0.38055865  1
  Ti  Ti125  1  0.30827564  0.10182134  0.88716726  1
  Ti  Ti126  1  0.29294488  0.48009314  0.38126405  1
  Ti  Ti127  1  0.38848879  0.00272161  0.26018644  1
  Ti  Ti128  1  0.09586938  0.50345688  0.12600500  1
  Ti  Ti129  1  0.50344727  0.29779891  0.12491580  1
  Ti  Ti130  1  0.50012001  0.10034218  0.87128685  1
  Ti  Ti131  1  0.00760514  0.38672503  0.50859725  1
  Ti  Ti132  1  0.59605031  0.20040368  0.74743976  1
  Ti  Ti133  1  0.69285970  0.69894567  0.87270142  1
  Ti  Ti134  1  0.60228255  0.20427544  0.26346662  1
  Ti  Ti135  1  0.49778024  0.90245001  0.87062205  1
  Ti  Ti136  1  0.30117911  0.70160046  0.13548168  1
  Ti  Ti137  1  0.89846728  0.50412929  0.62222404  1
  Ti  Ti138  1  0.21113310  0.59686184  0.49352495  1
  Ti  Ti139  1  0.69479159  0.50584608  0.36685056  1
  Ti  Ti140  1  0.31200966  0.67255592  0.37188253  1
  Ti  Ti141  1  0.29736842  0.69920195  0.88226020  1
  Ti  Ti142  1  0.80529528  0.60025233  -0.00683355  1
  Ti  Ti143  1  0.12210874  0.29841139  0.38058415  1
  Ti  Ti144  1  0.89937514  0.89661582  0.87445072  1
  Ti  Ti145  1  0.68263543  0.51236900  0.13721551  1
  Ti  Ti146  1  0.79800592  0.40169197  -0.00361152  1
  Ti  Ti147  1  0.49778095  0.50819004  0.87885952  1
  Ti  Ti148  1  0.59373895  0.00201892  0.74662505  1
  Ti  Ti149  1  -0.00016328  0.39700007  0.75309694  1
  Ti  Ti150  1  0.01458552  0.39671430  0.24321134  1
  Ti  Ti151  1  0.69090840  0.09856132  0.86489125  1
  Ti  Ti152  1  0.70348347  0.09866460  0.38586156  1
  Ti  Ti153  1  0.49972070  0.50317483  0.61632367  1
  Ti  Ti154  1  0.70307941  0.09732004  0.11968920  1
  Ti  Ti155  1  0.78343283  0.80923270  0.50020244  1
  Ti  Ti156  1  0.29544273  0.09662926  0.11787114  1
  Ti  Ti157  1  0.90370485  0.30145120  0.63010931  1
  Ti  Ti158  1  0.48819549  0.31052710  0.63737288  1
  Ti  Ti159  1  0.49977452  0.89851428  0.13377671  1
  Mo  Mo160  1  0.18715781  0.39988968  0.24014808  1
  Mo  Mo161  1  0.49972432  0.90902753  0.37038552  1
  Mo  Mo162  1  0.60372798  0.59658924  0.26195305  1
  Mo  Mo163  1  0.40471645  0.20003247  0.75316097  1
  Mo  Mo164  1  0.89908864  0.69012986  0.87870076  1
  Mo  Mo165  1  0.28640046  0.50164474  0.12697673  1
  Mo  Mo166  1  0.69902361  0.90608824  0.38171251  1
  Mo  Mo167  1  0.29394507  0.30870014  0.37280444  1
  Mo  Mo168  1  0.29870413  0.09025374  0.62476401  1
  Mo  Mo169  1  0.20097850  0.78865947  0.74895281  1
  Mo  Mo170  1  0.89597344  0.10800579  0.63597142  1
  Mo  Mo171  1  0.50483387  0.49959413  0.12660581  1
  Mo  Mo172  1  0.50864424  0.68996114  0.35516189  1
  Mo  Mo173  1  0.29275854  0.91609327  0.36358200  1
  Mo  Mo174  1  0.09238932  0.29916644  0.63441472  1
  Mo  Mo175  1  0.29212477  0.87890184  0.61489462  1
  Mo  Mo176  1  0.49016245  0.30417595  0.37110569  1
  Mo  Mo177  1  0.40050806  0.58812314  0.49400338  1
  Mo  Mo178  1  0.90451465  0.10699892  0.86618073  1
  Mo  Mo179  1  0.00051634  0.00510678  0.23531952  1
  Mo  Mo180  1  0.10596614  0.69934132  0.88145090  1
  Mo  Mo181  1  0.79132705  0.01054416  0.50792803  1
  Mo  Mo182  1  -0.00344463  0.00701429  0.50640531  1
  Mo  Mo183  1  0.21041308  0.19694177  0.00978726  1
  Mo  Mo184  1  0.40334024  0.40635158  0.75114350  1
  Mo  Mo185  1  0.90387001  0.30676191  0.87021532  1
  Mo  Mo186  1  0.20528459  -0.00355905  0.00402413  1
  Mo  Mo187  1  0.60027527  0.00402342  -0.00698582  1
  Mo  Mo188  1  0.19905254  0.40135958  0.51007582  1
  Mo  Mo189  1  0.29874659  0.29368210  0.11444566  1
  Mo  Mo190  1  0.40300430  0.20208195  0.49818272  1
  Mo  Mo191  1  0.49870285  0.69789218  0.88298248  1
  Mo  Mo192  1  0.80736559  0.59928091  0.24728434  1
  Mo  Mo193  1  0.00263876  0.19731568  0.00677386  1
  Mo  Mo194  1  0.10163660  0.90550860  0.37342936  1
  Mo  Mo195  1  0.90707410  0.69689004  0.37405282  1
  Mo  Mo196  1  0.80191571  0.80893282  0.24160735  1
  Mo  Mo197  1  -0.00221078  0.60110123  -0.00918670  1
  Mo  Mo198  1  0.60290671  0.80044384  0.48137387  1
  Mo  Mo199  1  0.31840225  0.29370181  0.63796436  1
