# generated using pymatgen
data_HfZrTaTiMo
_symmetry_space_group_name_H-M   'P 1'
_cell_length_a   15.21155199
_cell_length_b   15.21240440
_cell_length_c   16.83827754
_cell_angle_alpha   89.98446192
_cell_angle_beta   90.00252111
_cell_angle_gamma   90.05877153
_symmetry_Int_Tables_number   1
_chemical_formula_structural   HfZrTaTiMo
_chemical_formula_sum   'Hf40 Zr40 Ta40 Ti40 Mo40'
_cell_volume   3896.44729995
_cell_formula_units_Z   40
loop_
 _symmetry_equiv_pos_site_id
 _symmetry_equiv_pos_as_xyz
  1  'x, y, z'
loop_
 _atom_site_type_symbol
 _atom_site_label
 _atom_site_symmetry_multiplicity
 _atom_site_fract_x
 _atom_site_fract_y
 _atom_site_fract_z
 _atom_site_occupancy
  Hf  Hf0  1  0.20419541  0.19873006  0.75716084  1
  Hf  Hf1  1  0.01237670  0.21228184  0.48520107  1
  Hf  Hf2  1  0.41416324  0.00301272  0.49609321  1
  Hf  Hf3  1  0.00393879  0.00866012  0.24726361  1
  Hf  Hf4  1  0.59056139  0.59261786  -0.00289641  1
  Hf  Hf5  1  -0.02253311  0.60112494  0.00958083  1
  Hf  Hf6  1  0.09529508  0.47270411  0.62350175  1
  Hf  Hf7  1  0.58878089  -0.00626949  0.23392549  1
  Hf  Hf8  1  0.19853430  0.39872726  0.76233285  1
  Hf  Hf9  1  0.09136791  0.70017991  0.88112658  1
  Hf  Hf10  1  0.58230015  0.79002478  0.50070626  1
  Hf  Hf11  1  0.60375995  0.19083713  0.50021320  1
  Hf  Hf12  1  0.21533968  0.20243488  0.48553145  1
  Hf  Hf13  1  -0.00202382  0.19941446  -0.00141487  1
  Hf  Hf14  1  0.09887253  0.49480569  0.11804742  1
  Hf  Hf15  1  0.48312497  0.28200873  0.35629739  1
  Hf  Hf16  1  0.21293293  -0.00575310  0.48512651  1
  Hf  Hf17  1  0.10417034  0.69508691  0.61717840  1
  Hf  Hf18  1  0.62200127  0.80182270  0.75460324  1
  Hf  Hf19  1  0.70749399  0.70304212  0.62199282  1
  Hf  Hf20  1  0.80180192  0.61500585  0.74721348  1
  Hf  Hf21  1  0.79139773  0.41474904  -0.00309794  1
  Hf  Hf22  1  0.10317669  0.69750172  0.12086246  1
  Hf  Hf23  1  0.30360493  0.91253581  0.86980743  1
  Hf  Hf24  1  0.89979802  0.10088705  0.61392795  1
  Hf  Hf25  1  0.78743873  0.80831280  0.49369828  1
  Hf  Hf26  1  0.10433770  0.10365441  0.61936743  1
  Hf  Hf27  1  0.09730893  0.90433829  0.62120007  1
  Hf  Hf28  1  0.20029458  0.80663594  -0.00886401  1
  Hf  Hf29  1  0.19739718  0.79564086  0.75941450  1
  Hf  Hf30  1  0.21542416  0.20194076  0.25540431  1
  Hf  Hf31  1  0.22815832  0.40075787  -0.00284167  1
  Hf  Hf32  1  0.00351813  0.59654002  0.74501752  1
  Hf  Hf33  1  0.50278084  0.90135565  0.87963774  1
  Hf  Hf34  1  0.50430125  0.31310336  0.63656471  1
  Hf  Hf35  1  0.90023408  0.09193192  0.87899551  1
  Hf  Hf36  1  0.49854570  0.49904316  0.36747824  1
  Hf  Hf37  1  0.80793390  0.20974223  0.75730805  1
  Hf  Hf38  1  0.28913344  0.50072369  0.37581025  1
  Hf  Hf39  1  0.60720405  -0.01132322  0.50370377  1
  Zr  Zr40  1  0.10002715  0.89234933  0.37692705  1
  Zr  Zr41  1  0.30592905  0.09610284  0.63587276  1
  Zr  Zr42  1  0.11559154  0.29670792  0.12217829  1
  Zr  Zr43  1  0.10146137  0.68119458  0.38487723  1
  Zr  Zr44  1  0.41683899  0.80048096  0.25090606  1
  Zr  Zr45  1  0.69328819  0.29221961  0.36563203  1
  Zr  Zr46  1  0.69951185  0.50441833  0.13955142  1
  Zr  Zr47  1  -0.00660392  0.39807391  -0.01221856  1
  Zr  Zr48  1  0.71225969  0.28651088  0.14303070  1
  Zr  Zr49  1  0.69930220  0.09530818  0.87451818  1
  Zr  Zr50  1  0.89806647  0.89509326  0.88335243  1
  Zr  Zr51  1  0.60662751  -0.00266247  0.00882696  1
  Zr  Zr52  1  0.30187534  0.90358446  0.64080087  1
  Zr  Zr53  1  0.50344933  0.29495774  0.86604700  1
  Zr  Zr54  1  0.00033019  0.21016977  0.25733020  1
  Zr  Zr55  1  0.60902986  0.19986756  0.74701881  1
  Zr  Zr56  1  0.11314105  0.90556789  0.13083430  1
  Zr  Zr57  1  -0.00009983  0.79108836  0.24671554  1
  Zr  Zr58  1  0.11636460  0.08218294  0.88018013  1
  Zr  Zr59  1  -0.02140595  0.79521248  0.73905313  1
  Zr  Zr60  1  -0.01874419  0.38996835  0.76972110  1
  Zr  Zr61  1  0.00676178  0.19808888  0.75722992  1
  Zr  Zr62  1  0.40888071  0.61273939  0.50006131  1
  Zr  Zr63  1  0.21578505  0.79784491  0.25656972  1
  Zr  Zr64  1  0.60127052  0.19494344  0.01177097  1
  Zr  Zr65  1  0.69826870  0.89587121  0.35694128  1
  Zr  Zr66  1  0.71340222  0.30323824  0.61445557  1
  Zr  Zr67  1  0.39055079  0.40374706  0.50358318  1
  Zr  Zr68  1  0.91351790  0.30615834  0.60902061  1
  Zr  Zr69  1  0.31535849  0.90706024  0.11055798  1
  Zr  Zr70  1  0.10338266  0.50414153  0.88331865  1
  Zr  Zr71  1  0.40889037  0.20275324  0.50945858  1
  Zr  Zr72  1  0.90675584  0.31908480  0.13178571  1
  Zr  Zr73  1  0.48837035  0.69316415  0.86450956  1
  Zr  Zr74  1  0.68742462  0.70619160  0.13065292  1
  Zr  Zr75  1  0.00599661  -0.00464011  0.01516869  1
  Zr  Zr76  1  0.31698543  0.70349315  0.62899143  1
  Zr  Zr77  1  0.89318025  0.70673640  0.37052931  1
  Zr  Zr78  1  0.58677226  0.39262078  0.01165606  1
  Zr  Zr79  1  0.88146883  0.49823981  0.62243478  1
  Ta  Ta80  1  0.68498859  0.49647555  0.62183037  1
  Ta  Ta81  1  0.31682948  0.10633153  0.87822285  1
  Ta  Ta82  1  0.87905642  0.51693060  0.87486055  1
  Ta  Ta83  1  0.49649676  0.89456557  0.64046668  1
  Ta  Ta84  1  0.70939559  0.09207694  0.62542796  1
  Ta  Ta85  1  0.58806455  0.39773167  0.24174925  1
  Ta  Ta86  1  0.50785304  0.87993976  0.10394709  1
  Ta  Ta87  1  0.70754233  0.69557746  0.88747186  1
  Ta  Ta88  1  0.18787642  0.59275309  0.24870591  1
  Ta  Ta89  1  0.21901421  0.60497204  -0.00272990  1
  Ta  Ta90  1  0.30643873  0.69044386  0.12363177  1
  Ta  Ta91  1  0.10471821  0.09835845  0.37393703  1
  Ta  Ta92  1  0.79259143  0.40676660  0.48127488  1
  Ta  Ta93  1  0.90292054  0.50972405  0.37726948  1
  Ta  Ta94  1  0.46932279  0.49404543  0.13133458  1
  Ta  Ta95  1  0.01009086  0.41777978  0.26532379  1
  Ta  Ta96  1  -0.00729365  0.59333583  0.50816187  1
  Ta  Ta97  1  0.70526331  0.89395812  0.13197626  1
  Ta  Ta98  1  0.88306461  0.89929295  0.61899358  1
  Ta  Ta99  1  0.40382002  0.21214649  0.01292511  1
  Ta  Ta100  1  0.89727245  0.90960633  0.36785157  1
  Ta  Ta101  1  0.79018357  0.60176350  0.49156628  1
  Ta  Ta102  1  0.48972978  0.50745880  0.64223794  1
  Ta  Ta103  1  0.79896601  0.01271453  0.24387519  1
  Ta  Ta104  1  0.68180538  0.69518067  0.36145842  1
  Ta  Ta105  1  0.80835941  0.40466273  0.26422895  1
  Ta  Ta106  1  0.32859059  0.10571696  0.36546197  1
  Ta  Ta107  1  0.38573315  0.60014149  0.25276493  1
  Ta  Ta108  1  0.21067223  0.59360657  0.74566391  1
  Ta  Ta109  1  0.79712716  -0.01297019  0.74565746  1
  Ta  Ta110  1  0.28483093  0.31163539  0.62975324  1
  Ta  Ta111  1  -0.00977322  0.79978118  0.50479114  1
  Ta  Ta112  1  0.88846118  0.11389633  0.12700703  1
  Ta  Ta113  1  0.89204166  0.10430285  0.37906457  1
  Ta  Ta114  1  0.89265150  0.89973268  0.13457924  1
  Ta  Ta115  1  0.18210713  0.38847553  0.48866812  1
  Ta  Ta116  1  0.49619517  0.48846605  0.85807550  1
  Ta  Ta117  1  0.69480250  0.50356690  0.36339754  1
  Ta  Ta118  1  0.60079363  0.59307891  0.49903176  1
  Ta  Ta119  1  0.60933374  0.59078480  0.75668445  1
  Ti  Ti120  1  0.49832451  0.90182521  0.36989128  1
  Ti  Ti121  1  0.50667105  0.69908630  0.64502884  1
  Ti  Ti122  1  0.20237239  0.40053874  0.25661998  1
  Ti  Ti123  1  0.80473653  0.60257133  0.25412271  1
  Ti  Ti124  1  0.11148040  0.10080887  0.12330259  1
  Ti  Ti125  1  0.40112583  0.20368200  0.74538422  1
  Ti  Ti126  1  0.30539371  0.70313603  0.37895980  1
  Ti  Ti127  1  0.31669496  0.51100146  0.87111308  1
  Ti  Ti128  1  0.39579666  0.77763717  -0.00985745  1
  Ti  Ti129  1  0.89231007  0.70740987  0.88405908  1
  Ti  Ti130  1  0.32202582  0.31929955  0.13330027  1
  Ti  Ti131  1  -0.00276375  -0.00271332  0.49202597  1
  Ti  Ti132  1  0.59336552  0.40221981  0.49501749  1
  Ti  Ti133  1  0.88671941  0.69891389  0.13350352  1
  Ti  Ti134  1  0.57906630  0.60655022  0.24712843  1
  Ti  Ti135  1  0.60314544  -0.00360143  0.74857771  1
  Ti  Ti136  1  0.21326008  0.00174209  0.26102075  1
  Ti  Ti137  1  0.59144064  0.18281836  0.23530170  1
  Ti  Ti138  1  0.79625600  0.79867205  0.01007541  1
  Ti  Ti139  1  0.20578626  0.58505768  0.51203761  1
  Ti  Ti140  1  0.09252554  0.90038110  0.87211577  1
  Ti  Ti141  1  -0.00801518  0.80119529  0.01294571  1
  Ti  Ti142  1  0.89682974  0.30335104  0.37846473  1
  Ti  Ti143  1  0.49619621  0.09653355  0.87341726  1
  Ti  Ti144  1  0.49144778  0.69161635  0.11414569  1
  Ti  Ti145  1  0.21286187  0.19541707  -0.00051649  1
  Ti  Ti146  1  0.77425115  0.40855701  0.76823787  1
  Ti  Ti147  1  0.10841606  0.29295217  0.88749891  1
  Ti  Ti148  1  0.31678542  0.30529895  0.87408708  1
  Ti  Ti149  1  0.30284609  0.10131465  0.12102793  1
  Ti  Ti150  1  0.40177006  0.00607009  0.24712626  1
  Ti  Ti151  1  0.39409988  0.81328069  0.48964800  1
  Ti  Ti152  1  0.70864225  0.89357717  0.88619436  1
  Ti  Ti153  1  0.50618098  0.09162161  0.63675001  1
  Ti  Ti154  1  0.79871308  0.20874555  -0.00716495  1
  Ti  Ti155  1  0.20617532  0.79672270  0.49564906  1
  Ti  Ti156  1  0.79833201  0.00630960  0.49345698  1
  Ti  Ti157  1  -0.00144095  -0.00340279  0.74494922  1
  Ti  Ti158  1  0.69660177  0.09913511  0.36730005  1
  Ti  Ti159  1  0.80143093  0.00594505  0.01630342  1
  Mo  Mo160  1  0.80118551  0.19931502  0.25981422  1
  Mo  Mo161  1  0.29044325  0.49909729  0.62194045  1
  Mo  Mo162  1  0.89627882  0.50698862  0.14109380  1
  Mo  Mo163  1  0.10539170  0.30369218  0.36411843  1
  Mo  Mo164  1  0.79916938  0.80464819  0.75315582  1
  Mo  Mo165  1  0.10530110  0.29517128  0.62281689  1
  Mo  Mo166  1  0.79660820  0.80457856  0.24898617  1
  Mo  Mo167  1  0.60163758  0.79521713  -0.00652539  1
  Mo  Mo168  1  0.30938807  0.90321408  0.37436909  1
  Mo  Mo169  1  0.40946065  0.80373727  0.75613089  1
  Mo  Mo170  1  0.70629902  0.09352439  0.12885071  1
  Mo  Mo171  1  0.79605200  0.60891888  0.00494019  1
  Mo  Mo172  1  0.41162326  0.00953067  0.75542189  1
  Mo  Mo173  1  0.09716605  0.50399781  0.38153814  1
  Mo  Mo174  1  0.51140750  0.09234712  0.36706091  1
  Mo  Mo175  1  0.40434444  0.40369087  -0.00191926  1
  Mo  Mo176  1  0.69501852  0.90815987  0.62431439  1
  Mo  Mo177  1  0.68939974  0.50629185  0.87750084  1
  Mo  Mo178  1  0.38947422  0.39935855  0.25613631  1
  Mo  Mo179  1  0.30169869  0.30159797  0.36536666  1
  Mo  Mo180  1  0.29486016  0.69634415  0.86929708  1
  Mo  Mo181  1  0.88885044  0.30370307  0.88031156  1
  Mo  Mo182  1  0.48728466  0.08845585  0.11812183  1
  Mo  Mo183  1  0.70405068  0.30675528  0.87901853  1
  Mo  Mo184  1  0.21233902  0.01038378  0.00109597  1
  Mo  Mo185  1  0.49788758  0.29696599  0.13994637  1
  Mo  Mo186  1  0.49930677  0.69659379  0.37457113  1
  Mo  Mo187  1  0.28969244  0.50413859  0.13295477  1
  Mo  Mo188  1  0.40499129  0.01590440  -0.00188222  1
  Mo  Mo189  1  0.59214570  0.79556135  0.24463626  1
  Mo  Mo190  1  -0.00635347  0.59494401  0.23952391  1
  Mo  Mo191  1  0.19133971  0.00135265  0.75326214  1
  Mo  Mo192  1  0.60214537  0.40367641  0.74912449  1
  Mo  Mo193  1  0.39736314  0.59809343  0.74631903  1
  Mo  Mo194  1  0.40432232  0.19051447  0.22903894  1
  Mo  Mo195  1  0.89891567  0.70192432  0.60878745  1
  Mo  Mo196  1  0.79858561  0.19336040  0.48799669  1
  Mo  Mo197  1  -0.00376132  0.40557361  0.48080210  1
  Mo  Mo198  1  0.39537675  0.58636422  -0.00094918  1
  Mo  Mo199  1  0.38980703  0.40178224  0.74603044  1
