# generated using pymatgen
data_HfZrTaTiMo
_symmetry_space_group_name_H-M   'P 1'
_cell_length_a   15.21368494
_cell_length_b   15.21023832
_cell_length_c   16.80989774
_cell_angle_alpha   89.95940231
_cell_angle_beta   89.98529864
_cell_angle_gamma   89.90792225
_symmetry_Int_Tables_number   1
_chemical_formula_structural   HfZrTaTiMo
_chemical_formula_sum   'Hf40 Zr40 Ta40 Ti40 Mo40'
_cell_volume   3889.86764675
_cell_formula_units_Z   40
loop_
 _symmetry_equiv_pos_site_id
 _symmetry_equiv_pos_as_xyz
  1  'x, y, z'
loop_
 _atom_site_type_symbol
 _atom_site_label
 _atom_site_symmetry_multiplicity
 _atom_site_fract_x
 _atom_site_fract_y
 _atom_site_fract_z
 _atom_site_occupancy
  Hf  Hf0  1  0.10816046  0.49282928  0.37536137  1
  Hf  Hf1  1  0.51972991  0.33081945  0.88588761  1
  Hf  Hf2  1  0.00651703  0.59630840  0.50030935  1
  Hf  Hf3  1  0.38938740  0.40980444  0.48210583  1
  Hf  Hf4  1  0.48970860  0.31073152  0.62369069  1
  Hf  Hf5  1  0.89936391  0.69437682  0.62492419  1
  Hf  Hf6  1  0.58707657  0.39691369  0.47788292  1
  Hf  Hf7  1  0.89074360  0.49482670  0.64121742  1
  Hf  Hf8  1  0.00893785  0.19499855  0.50780315  1
  Hf  Hf9  1  0.68335547  0.09173325  0.61540462  1
  Hf  Hf10  1  0.70030930  0.88903841  0.63142878  1
  Hf  Hf11  1  0.79905505  -0.01448594  0.50135485  1
  Hf  Hf12  1  0.50781056  0.68681813  0.62579996  1
  Hf  Hf13  1  0.60294451  0.00473375  0.23539641  1
  Hf  Hf14  1  0.49949062  0.09538210  0.86553835  1
  Hf  Hf15  1  0.60097423  0.21116193  0.75767059  1
  Hf  Hf16  1  0.70489659  0.69020926  0.62581082  1
  Hf  Hf17  1  0.11353462  0.28985578  0.64395117  1
  Hf  Hf18  1  0.20054669  0.01602072  0.49196080  1
  Hf  Hf19  1  0.69547121  0.67905483  0.12305509  1
  Hf  Hf20  1  0.19654749  0.00406118  0.23745378  1
  Hf  Hf21  1  0.70519335  0.49593347  0.37000333  1
  Hf  Hf22  1  0.77253597  0.39259634  0.76101325  1
  Hf  Hf23  1  0.19596241  0.80737983  0.49789578  1
  Hf  Hf24  1  0.89579262  0.30558929  0.36224171  1
  Hf  Hf25  1  0.80227267  -0.01097267  0.75079436  1
  Hf  Hf26  1  0.50475832  0.71056170  0.36576371  1
  Hf  Hf27  1  0.50072735  0.89880124  0.64590753  1
  Hf  Hf28  1  0.28822484  0.12633824  0.64142226  1
  Hf  Hf29  1  0.22220367  0.39199672  0.76449935  1
  Hf  Hf30  1  0.09954959  0.49956598  0.10019041  1
  Hf  Hf31  1  0.21899433  0.59562980  0.24644541  1
  Hf  Hf32  1  0.31205245  0.50332334  0.63183220  1
  Hf  Hf33  1  0.69750047  0.29258685  0.61029440  1
  Hf  Hf34  1  0.30036981  0.90017069  0.36140234  1
  Hf  Hf35  1  0.69803888  0.88757341  0.35956969  1
  Hf  Hf36  1  0.90092182  0.69606049  0.36800480  1
  Hf  Hf37  1  0.10210884  0.49949487  0.64664489  1
  Hf  Hf38  1  0.89106696  0.29321496  0.13248416  1
  Hf  Hf39  1  0.79686220  0.57972209  -0.00989303  1
  Zr  Zr40  1  0.49085665  0.09820846  0.64206995  1
  Zr  Zr41  1  0.59543334  0.57112427  0.76679101  1
  Zr  Zr42  1  0.69722839  0.69699282  0.36548699  1
  Zr  Zr43  1  0.11169457  0.69280619  0.10003232  1
  Zr  Zr44  1  0.00874473  0.17864170  0.75334791  1
  Zr  Zr45  1  0.60580870  0.20363322  0.00412079  1
  Zr  Zr46  1  0.10222757  0.49650531  0.88033200  1
  Zr  Zr47  1  0.89520133  0.89903563  0.35359291  1
  Zr  Zr48  1  0.38743320  0.40918517  0.24615155  1
  Zr  Zr49  1  0.81071991  0.58523495  0.24664811  1
  Zr  Zr50  1  0.89739640  0.09391447  0.62134241  1
  Zr  Zr51  1  0.70257042  0.09135364  0.37392073  1
  Zr  Zr52  1  0.40635005  0.80714174  0.49591564  1
  Zr  Zr53  1  0.10643332  0.90985340  0.89563204  1
  Zr  Zr54  1  0.40316086  0.01045781  0.49049053  1
  Zr  Zr55  1  0.90576258  0.09831129  0.36179170  1
  Zr  Zr56  1  0.00591480  0.80285209  0.23287883  1
  Zr  Zr57  1  0.10130521  0.70791733  0.63356957  1
  Zr  Zr58  1  0.79907694  0.80355208  0.01056104  1
  Zr  Zr59  1  0.19990614  0.82240690  0.76010920  1
  Zr  Zr60  1  0.29199299  0.91757588  0.62786378  1
  Zr  Zr61  1  0.00899898  -0.01029185  0.50280084  1
  Zr  Zr62  1  0.90652453  0.88830227  0.88304074  1
  Zr  Zr63  1  0.09187634  0.10409172  0.11641226  1
  Zr  Zr64  1  0.49911713  0.89571529  0.86712304  1
  Zr  Zr65  1  0.67888238  0.49570172  0.61212638  1
  Zr  Zr66  1  0.39628809  0.20868152  -0.00667377  1
  Zr  Zr67  1  0.10679338  0.29791136  0.11239113  1
  Zr  Zr68  1  0.79676739  0.18869048  0.75396894  1
  Zr  Zr69  1  0.01445808  0.59463841  0.24413534  1
  Zr  Zr70  1  0.30596677  0.70933760  0.63095798  1
  Zr  Zr71  1  0.10316560  0.29327846  0.36963821  1
  Zr  Zr72  1  0.39570728  0.61345088  0.76955745  1
  Zr  Zr73  1  0.69284256  0.69973545  0.88635184  1
  Zr  Zr74  1  0.00085109  0.39645005  0.50702074  1
  Zr  Zr75  1  0.60131691  -0.00202693  0.01164442  1
  Zr  Zr76  1  -0.01888050  0.38928912  -0.00891239  1
  Zr  Zr77  1  -0.01119414  0.61127062  0.77162454  1
  Zr  Zr78  1  0.11391702  0.70677978  0.37215583  1
  Zr  Zr79  1  0.40060712  0.20745450  0.48529211  1
  Ta  Ta80  1  0.38793068  0.22570994  0.76806559  1
  Ta  Ta81  1  0.39457912  0.00686987  0.00536567  1
  Ta  Ta82  1  0.42062064  0.41529149  0.75692732  1
  Ta  Ta83  1  0.59728820  0.40053928  0.25117847  1
  Ta  Ta84  1  0.41462913  0.41263859  0.01558002  1
  Ta  Ta85  1  0.29557336  0.51012276  0.10570882  1
  Ta  Ta86  1  0.80362769  0.79228196  0.49802296  1
  Ta  Ta87  1  0.81178367  0.78546988  0.76091609  1
  Ta  Ta88  1  0.79564529  0.00370841  0.01732989  1
  Ta  Ta89  1  0.90398772  0.69425576  0.11552668  1
  Ta  Ta90  1  0.59809429  0.79678077  0.22594925  1
  Ta  Ta91  1  0.69760082  0.28848005  0.14347880  1
  Ta  Ta92  1  0.49642847  0.51811083  0.35570963  1
  Ta  Ta93  1  0.21275017  0.00825797  0.01453162  1
  Ta  Ta94  1  0.01464468  -0.02013586  0.74250472  1
  Ta  Ta95  1  0.80495646  0.39558349  0.49689460  1
  Ta  Ta96  1  0.89582953  0.49392517  0.11620326  1
  Ta  Ta97  1  0.09527923  0.71493344  0.89214145  1
  Ta  Ta98  1  0.19486277  0.40046695  0.23555640  1
  Ta  Ta99  1  0.58462354  0.20001372  0.25887101  1
  Ta  Ta100  1  0.48827088  0.90632097  0.12949222  1
  Ta  Ta101  1  0.70164676  0.29398149  0.36297514  1
  Ta  Ta102  1  0.31171573  0.70305845  0.11629383  1
  Ta  Ta103  1  0.20298096  0.39761255  0.51054842  1
  Ta  Ta104  1  0.80350737  0.59021218  0.49245615  1
  Ta  Ta105  1  0.39998037  0.81589446  0.00729454  1
  Ta  Ta106  1  0.40363512  0.61391796  -0.00600842  1
  Ta  Ta107  1  0.00714384  0.19903484  0.24466049  1
  Ta  Ta108  1  0.80285637  0.18969164  0.00002034  1
  Ta  Ta109  1  -0.00507202  0.40663733  0.24261145  1
  Ta  Ta110  1  0.20209438  0.61019414  0.77500063  1
  Ta  Ta111  1  -0.00428253  0.80178771  0.49508206  1
  Ta  Ta112  1  0.20969761  0.79972572  0.23315608  1
  Ta  Ta113  1  0.59023270  0.79660711  0.01721282  1
  Ta  Ta114  1  0.90144928  0.30210378  0.63654610  1
  Ta  Ta115  1  0.10119776  0.29184778  0.87380982  1
  Ta  Ta116  1  0.49956295  0.52029922  0.13744069  1
  Ta  Ta117  1  0.30211790  0.12452596  0.13276595  1
  Ta  Ta118  1  0.20698823  0.20903214  0.49895240  1
  Ta  Ta119  1  0.21564362  0.59405049  0.49756549  1
  Ti  Ti120  1  0.60477845  0.78999881  0.75523491  1
  Ti  Ti121  1  0.40142525  0.01528098  0.24611449  1
  Ti  Ti122  1  0.90044631  0.08537285  0.88026557  1
  Ti  Ti123  1  0.31250405  0.50106501  0.88999029  1
  Ti  Ti124  1  0.89182254  0.09566901  0.14039719  1
  Ti  Ti125  1  0.70243584  0.09192217  0.87687297  1
  Ti  Ti126  1  0.28971858  0.10042367  0.87279218  1
  Ti  Ti127  1  0.09631807  0.09587495  0.88745721  1
  Ti  Ti128  1  -0.00988514  0.60281481  -0.01554366  1
  Ti  Ti129  1  0.49346528  0.30438964  0.13315182  1
  Ti  Ti130  1  0.89306965  0.48305568  0.86781657  1
  Ti  Ti131  1  -0.01402546  -0.00438645  0.01272856  1
  Ti  Ti132  1  0.29991964  0.72721796  0.88450994  1
  Ti  Ti133  1  0.69608897  0.90152413  0.87332792  1
  Ti  Ti134  1  0.20490413  0.20214966  -0.01078568  1
  Ti  Ti135  1  0.49649869  0.11231892  0.12782036  1
  Ti  Ti136  1  0.41211762  0.59984809  0.49396634  1
  Ti  Ti137  1  0.31132025  0.69351830  0.36993131  1
  Ti  Ti138  1  0.50125942  0.90563221  0.35663334  1
  Ti  Ti139  1  0.09701388  0.90135847  0.11634141  1
  Ti  Ti140  1  0.09684785  0.90532898  0.36090464  1
  Ti  Ti141  1  0.58898530  0.19195632  0.47726812  1
  Ti  Ti142  1  0.59343154  0.57935530  -0.00130598  1
  Ti  Ti143  1  0.58918626  -0.00915419  0.48998374  1
  Ti  Ti144  1  0.10607605  0.10198347  0.36178367  1
  Ti  Ti145  1  0.50010534  0.70618209  0.88226932  1
  Ti  Ti146  1  -0.01127393  0.19237101  -0.00629195  1
  Ti  Ti147  1  0.79038231  0.59602980  0.77228766  1
  Ti  Ti148  1  0.21406189  0.39248158  -0.00815247  1
  Ti  Ti149  1  0.90746914  0.88256100  0.62961397  1
  Ti  Ti150  1  0.77866558  0.38133890  -0.00599009  1
  Ti  Ti151  1  0.29915374  0.11561497  0.35580970  1
  Ti  Ti152  1  0.37701726  -0.00515170  0.76226410  1
  Ti  Ti153  1  0.80340507  0.20179354  0.49572519  1
  Ti  Ti154  1  0.29182583  0.30737385  0.36329361  1
  Ti  Ti155  1  0.60440891  0.79777165  0.50060536  1
  Ti  Ti156  1  0.89711549  0.28718016  0.86641755  1
  Ti  Ti157  1  0.21436587  0.81382625  0.01000587  1
  Ti  Ti158  1  0.39854504  0.79998698  0.23666712  1
  Ti  Ti159  1  0.70042990  0.48103974  0.13134023  1
  Mo  Mo160  1  0.00486394  0.00316624  0.24263074  1
  Mo  Mo161  1  0.20536859  0.20830286  0.24698772  1
  Mo  Mo162  1  0.49569604  0.50344448  0.61657637  1
  Mo  Mo163  1  0.79812019  -0.00660885  0.22811121  1
  Mo  Mo164  1  0.59825700  0.59640020  0.24384530  1
  Mo  Mo165  1  0.30070155  0.31045754  0.11774625  1
  Mo  Mo166  1  0.49694594  0.09495068  0.36676101  1
  Mo  Mo167  1  0.69921463  0.89626255  0.12952984  1
  Mo  Mo168  1  0.30181914  0.30952799  0.62803397  1
  Mo  Mo169  1  0.40301919  0.80348655  0.75876802  1
  Mo  Mo170  1  0.10984961  0.09163383  0.62772128  1
  Mo  Mo171  1  0.90096535  0.90374437  0.13038129  1
  Mo  Mo172  1  0.09651753  0.89991623  0.62115145  1
  Mo  Mo173  1  -0.00314146  0.80054704  0.75462162  1
  Mo  Mo174  1  0.89906366  0.69533726  0.88753853  1
  Mo  Mo175  1  0.79801121  0.79692435  0.22375291  1
  Mo  Mo176  1  0.60152617  0.40042132  0.02991547  1
  Mo  Mo177  1  0.70328946  0.10780580  0.13148143  1
  Mo  Mo178  1  0.00153230  0.80035768  0.01630142  1
  Mo  Mo179  1  0.18762346  0.01895651  0.75669614  1
  Mo  Mo180  1  0.68843149  0.47685588  0.88931307  1
  Mo  Mo181  1  0.49948423  0.50871573  0.89027548  1
  Mo  Mo182  1  0.90318121  0.49490741  0.38061892  1
  Mo  Mo183  1  0.21265732  0.60631607  -0.02264784  1
  Mo  Mo184  1  0.61034189  -0.00039892  0.75570335  1
  Mo  Mo185  1  0.39824507  0.20631031  0.25116959  1
  Mo  Mo186  1  0.20267435  0.19924447  0.77557132  1
  Mo  Mo187  1  0.49987386  0.30460633  0.36181362  1
  Mo  Mo188  1  0.70551259  0.28689080  0.88513392  1
  Mo  Mo189  1  0.30882325  0.31066206  0.88811348  1
  Mo  Mo190  1  0.80087075  0.39522735  0.24761787  1
  Mo  Mo191  1  0.29690200  0.50601068  0.37754303  1
  Mo  Mo192  1  0.79386528  0.19331436  0.24996346  1
  Mo  Mo193  1  0.49702914  0.70171274  0.11844755  1
  Mo  Mo194  1  0.59489553  0.39301101  0.74688610  1
  Mo  Mo195  1  0.30206358  0.91062936  0.13280552  1
  Mo  Mo196  1  0.39581160  0.61425410  0.24470610  1
  Mo  Mo197  1  -0.00935741  0.38867329  0.76052118  1
  Mo  Mo198  1  0.30259646  0.91470082  0.88541490  1
  Mo  Mo199  1  0.59442877  0.60263888  0.49078767  1
