# generated using pymatgen
data_HfZrTaTiMo
_symmetry_space_group_name_H-M   'P 1'
_cell_length_a   15.20020360
_cell_length_b   15.19920299
_cell_length_c   16.78100349
_cell_angle_alpha   89.99529533
_cell_angle_beta   89.97317455
_cell_angle_gamma   90.06079880
_symmetry_Int_Tables_number   1
_chemical_formula_structural   HfZrTaTiMo
_chemical_formula_sum   'Hf40 Zr40 Ta40 Ti40 Mo40'
_cell_volume   3876.92906190
_cell_formula_units_Z   40
loop_
 _symmetry_equiv_pos_site_id
 _symmetry_equiv_pos_as_xyz
  1  'x, y, z'
loop_
 _atom_site_type_symbol
 _atom_site_label
 _atom_site_symmetry_multiplicity
 _atom_site_fract_x
 _atom_site_fract_y
 _atom_site_fract_z
 _atom_site_occupancy
  Hf  Hf0  1  0.49295505  0.68477429  0.62617290  1
  Hf  Hf1  1  0.81651319  0.80354954  0.00347807  1
  Hf  Hf2  1  0.49358354  0.29321972  0.35823288  1
  Hf  Hf3  1  0.58842255  0.79641979  0.23811280  1
  Hf  Hf4  1  0.91073766  0.29771681  0.38935619  1
  Hf  Hf5  1  0.17645230  0.80024549  0.00356753  1
  Hf  Hf6  1  0.48242311  0.29954174  0.14286710  1
  Hf  Hf7  1  0.81164493  0.38919761  0.74322803  1
  Hf  Hf8  1  0.90775579  0.50366610  0.61617807  1
  Hf  Hf9  1  0.11064426  0.10054146  0.10814931  1
  Hf  Hf10  1  0.29060177  0.68048097  0.11434478  1
  Hf  Hf11  1  0.01382671  0.41245861  0.25779157  1
  Hf  Hf12  1  0.00535585  0.00480900  0.25121237  1
  Hf  Hf13  1  0.70343303  0.69952203  0.88979756  1
  Hf  Hf14  1  0.61533981  0.40677177  0.24694451  1
  Hf  Hf15  1  0.21868445  0.40690057  0.51361595  1
  Hf  Hf16  1  0.09519798  0.90295943  0.37937013  1
  Hf  Hf17  1  0.00378604  0.21523422  0.75124832  1
  Hf  Hf18  1  0.89516286  0.10066160  0.63435056  1
  Hf  Hf19  1  0.59822191  0.80048668  0.75001997  1
  Hf  Hf20  1  0.11327869  0.71324881  0.61012665  1
  Hf  Hf21  1  0.10338070  0.50821282  0.61992990  1
  Hf  Hf22  1  0.79495207  0.40497615  0.49955650  1
  Hf  Hf23  1  0.40893794  0.39590449  0.49413119  1
  Hf  Hf24  1  0.38185218  0.78309158  0.50095697  1
  Hf  Hf25  1  0.38393907  -0.00410761  0.25084280  1
  Hf  Hf26  1  0.67769587  0.09123418  0.86225541  1
  Hf  Hf27  1  0.01226719  0.21629123  0.24873301  1
  Hf  Hf28  1  0.48768710  0.69645435  0.36854888  1
  Hf  Hf29  1  0.29475066  0.10061165  0.62332209  1
  Hf  Hf30  1  -0.00842842  -0.01648397  -0.00154519  1
  Hf  Hf31  1  0.50135626  0.09384708  0.63459964  1
  Hf  Hf32  1  0.48592869  0.69922656  0.10387386  1
  Hf  Hf33  1  0.91016660  0.31114634  0.89352302  1
  Hf  Hf34  1  0.28449286  0.89040119  0.62251372  1
  Hf  Hf35  1  0.59867379  0.57957931  0.00930170  1
  Hf  Hf36  1  0.79881827  0.81202688  0.48887820  1
  Hf  Hf37  1  0.90170051  0.90003793  0.63442375  1
  Hf  Hf38  1  0.28887937  0.29848337  0.36489506  1
  Hf  Hf39  1  0.11496923  0.30500817  0.10757883  1
  Zr  Zr40  1  0.78723157  0.60540236  0.48847865  1
  Zr  Zr41  1  0.60446533  0.60045815  0.75930699  1
  Zr  Zr42  1  0.89166500  0.09436424  0.85999930  1
  Zr  Zr43  1  0.60259167  0.79135469  0.50443980  1
  Zr  Zr44  1  0.38847130  -0.00530896  0.76659206  1
  Zr  Zr45  1  0.90072923  0.69882069  0.14070528  1
  Zr  Zr46  1  0.78934839  0.19976344  0.00255823  1
  Zr  Zr47  1  0.39227820  0.78759783  0.76392939  1
  Zr  Zr48  1  0.70987066  0.48744295  0.87957747  1
  Zr  Zr49  1  0.49361125  0.69256061  0.89814315  1
  Zr  Zr50  1  0.09599431  0.11070696  0.88412636  1
  Zr  Zr51  1  0.90882643  0.31547004  0.10644813  1
  Zr  Zr52  1  0.92399046  0.30271847  0.60869386  1
  Zr  Zr53  1  0.11073359  0.50076926  0.87636487  1
  Zr  Zr54  1  0.79014674  -0.00387132  -0.00243934  1
  Zr  Zr55  1  0.70086714  0.29503034  0.86935188  1
  Zr  Zr56  1  0.10535537  0.11376802  0.38708061  1
  Zr  Zr57  1  0.60031969  -0.01081293  0.25827505  1
  Zr  Zr58  1  0.49218041  0.09752620  0.13340096  1
  Zr  Zr59  1  0.29222347  0.69035463  0.89922553  1
  Zr  Zr60  1  0.49719355  0.48630241  0.63938116  1
  Zr  Zr61  1  0.00358756  0.61442141  0.00369772  1
  Zr  Zr62  1  0.21519757  0.39978018  0.73669202  1
  Zr  Zr63  1  0.79823147  0.59267712  0.26306451  1
  Zr  Zr64  1  0.19788688  0.80465654  0.23974550  1
  Zr  Zr65  1  0.60292860  0.39871323  0.49583387  1
  Zr  Zr66  1  0.78602697  0.00297654  0.50263809  1
  Zr  Zr67  1  0.29554287  0.89247993  0.37667048  1
  Zr  Zr68  1  0.59760313  0.19568595  0.50233851  1
  Zr  Zr69  1  0.30132373  0.47735425  0.14689927  1
  Zr  Zr70  1  0.89407414  0.10021847  0.37406506  1
  Zr  Zr71  1  0.90474772  0.69875708  0.61224670  1
  Zr  Zr72  1  0.57862408  0.19717152  0.00191780  1
  Zr  Zr73  1  0.48864507  0.89762479  0.62552906  1
  Zr  Zr74  1  0.59438293  -0.00207911  0.48910539  1
  Zr  Zr75  1  0.78991719  0.81396282  0.26500915  1
  Zr  Zr76  1  0.90576177  0.10526926  0.12250299  1
  Zr  Zr77  1  0.70673439  0.29336061  0.36895086  1
  Zr  Zr78  1  0.81657108  0.59996367  0.75341759  1
  Zr  Zr79  1  0.08153086  0.90142066  0.86536470  1
  Ta  Ta80  1  0.09496257  0.69669745  0.86802843  1
  Ta  Ta81  1  0.41342781  0.38999784  0.00052942  1
  Ta  Ta82  1  0.40447491  0.01862614  -0.01496880  1
  Ta  Ta83  1  0.49044074  0.90139254  0.11017201  1
  Ta  Ta84  1  0.10599655  0.50718091  0.12545646  1
  Ta  Ta85  1  0.59807189  0.60293352  0.23502029  1
  Ta  Ta86  1  0.10904704  0.70666379  0.38420423  1
  Ta  Ta87  1  0.89889556  0.90228540  0.13792639  1
  Ta  Ta88  1  0.50099443  0.50524275  0.35836950  1
  Ta  Ta89  1  0.12436621  0.50548951  0.38118824  1
  Ta  Ta90  1  0.21273260  -0.00569365  -0.01027057  1
  Ta  Ta91  1  0.79162857  0.19819811  0.51257245  1
  Ta  Ta92  1  0.69906627  0.50802507  0.63149067  1
  Ta  Ta93  1  0.31247826  0.49654756  0.87970110  1
  Ta  Ta94  1  0.91198811  0.71197926  0.38050180  1
  Ta  Ta95  1  0.19964248  0.80520156  0.75786687  1
  Ta  Ta96  1  0.30202005  0.30244899  0.87673723  1
  Ta  Ta97  1  -0.00828336  -0.00467473  0.50018416  1
  Ta  Ta98  1  0.81405851  0.39816722  0.25291604  1
  Ta  Ta99  1  0.80401905  0.20395462  0.24133359  1
  Ta  Ta100  1  0.50947660  0.91016317  0.88305713  1
  Ta  Ta101  1  0.69946997  0.69800862  0.11755793  1
  Ta  Ta102  1  0.69930740  0.09745354  0.13535409  1
  Ta  Ta103  1  0.29160110  0.68095239  0.36174226  1
  Ta  Ta104  1  0.09307990  0.10657741  0.61787724  1
  Ta  Ta105  1  0.79374151  0.79403022  0.74570528  1
  Ta  Ta106  1  0.39070001  0.58446515  0.49658332  1
  Ta  Ta107  1  0.29735582  0.10072735  0.38230225  1
  Ta  Ta108  1  0.00996756  0.60063326  0.48566044  1
  Ta  Ta109  1  0.49921204  0.29765901  0.86045951  1
  Ta  Ta110  1  0.49630284  0.29439219  0.63909580  1
  Ta  Ta111  1  0.90817240  0.71198571  0.87356980  1
  Ta  Ta112  1  0.59354396  0.58992642  0.49694710  1
  Ta  Ta113  1  0.19818809  0.20646286  0.74259197  1
  Ta  Ta114  1  0.10971746  0.30517553  0.89312002  1
  Ta  Ta115  1  0.20625516  0.61036782  0.74640493  1
  Ta  Ta116  1  0.39359495  0.20022177  0.50325524  1
  Ta  Ta117  1  -0.00004784  0.78955225  0.74407255  1
  Ta  Ta118  1  0.70404024  0.89610642  0.86988286  1
  Ta  Ta119  1  0.29620107  0.11253678  0.87474357  1
  Ti  Ti120  1  0.70122528  0.09674541  0.36239363  1
  Ti  Ti121  1  0.01085569  0.60549046  0.26684777  1
  Ti  Ti122  1  0.48908723  0.10006046  0.36893382  1
  Ti  Ti123  1  0.59823557  0.00040174  0.00345041  1
  Ti  Ti124  1  0.60321354  0.19562782  0.24705678  1
  Ti  Ti125  1  0.39474859  0.79558710  0.23723470  1
  Ti  Ti126  1  0.90916102  0.50247184  0.12482029  1
  Ti  Ti127  1  0.39647146  0.00005045  0.49454962  1
  Ti  Ti128  1  0.90764274  0.49979070  0.38227113  1
  Ti  Ti129  1  0.09306092  0.90828040  0.62680071  1
  Ti  Ti130  1  0.30612984  0.49655110  0.35211165  1
  Ti  Ti131  1  0.19623626  0.00014456  0.50456656  1
  Ti  Ti132  1  0.01081272  0.40987676  0.75161882  1
  Ti  Ti133  1  0.78705615  -0.00279884  0.74610320  1
  Ti  Ti134  1  0.49270601  0.49923738  0.13702177  1
  Ti  Ti135  1  0.68487035  0.69618455  0.36931193  1
  Ti  Ti136  1  0.70581208  0.29997429  0.12749041  1
  Ti  Ti137  1  0.49527681  0.89278649  0.37615331  1
  Ti  Ti138  1  0.38295620  0.82976555  -0.00921994  1
  Ti  Ti139  1  0.09360908  0.69950840  0.13447420  1
  Ti  Ti140  1  0.10241165  0.30728372  0.39944954  1
  Ti  Ti141  1  -0.00221643  0.80276107  0.25806030  1
  Ti  Ti142  1  0.39264838  0.58925913  0.75565339  1
  Ti  Ti143  1  0.39039138  0.20528941  0.74860712  1
  Ti  Ti144  1  0.60283935  0.19679710  0.74334138  1
  Ti  Ti145  1  0.21977211  0.40816476  0.00260992  1
  Ti  Ti146  1  0.20774516  0.18900874  0.24262617  1
  Ti  Ti147  1  0.60598951  0.38976791  0.01024395  1
  Ti  Ti148  1  0.50413412  0.48464110  0.87106724  1
  Ti  Ti149  1  0.29364233  0.91316333  0.12058468  1
  Ti  Ti150  1  0.91359117  0.50590075  0.88079422  1
  Ti  Ti151  1  0.18812187  0.00701821  0.75273012  1
  Ti  Ti152  1  0.71707410  0.49534962  0.12256538  1
  Ti  Ti153  1  0.09544315  0.90314374  0.12826512  1
  Ti  Ti154  1  0.69215870  0.90458106  0.63207503  1
  Ti  Ti155  1  0.80719565  0.59509268  0.00233938  1
  Ti  Ti156  1  0.69991200  0.90235604  0.12584028  1
  Ti  Ti157  1  0.69748997  0.29845158  0.63300019  1
  Ti  Ti158  1  0.60598236  0.80976863  0.00500593  1
  Ti  Ti159  1  0.30355971  0.11098680  0.11358431  1
  Mo  Mo160  1  0.30003749  0.69155751  0.63120577  1
  Mo  Mo161  1  0.69635594  0.10195521  0.63864575  1
  Mo  Mo162  1  0.19761662  0.59117691  0.00547433  1
  Mo  Mo163  1  0.11239640  0.29563739  0.61422399  1
  Mo  Mo164  1  0.79898909  0.41448998  0.00689600  1
  Mo  Mo165  1  0.18632485  0.59209693  0.25080687  1
  Mo  Mo166  1  0.39086490  0.18737541  0.25705110  1
  Mo  Mo167  1  0.00349755  -0.00015639  0.74108789  1
  Mo  Mo168  1  0.29144963  0.90539980  0.87682869  1
  Mo  Mo169  1  0.01151997  0.41581156  0.00164462  1
  Mo  Mo170  1  0.30037322  0.28783415  0.13149454  1
  Mo  Mo171  1  0.88982826  0.89282407  0.85266332  1
  Mo  Mo172  1  0.01057440  0.41109481  0.48982950  1
  Mo  Mo173  1  0.39885688  0.56599428  0.00276090  1
  Mo  Mo174  1  0.31425833  0.29973595  0.62746968  1
  Mo  Mo175  1  0.21649365  0.20264476  -0.00248957  1
  Mo  Mo176  1  0.79785716  0.00679408  0.24588126  1
  Mo  Mo177  1  0.01006532  0.59980615  0.75338286  1
  Mo  Mo178  1  0.69710527  0.69973597  0.62389865  1
  Mo  Mo179  1  0.31068456  0.51380254  0.62965966  1
  Mo  Mo180  1  0.18739302  0.38411435  0.25618526  1
  Mo  Mo181  1  0.69024126  0.89894720  0.37259815  1
  Mo  Mo182  1  0.90113540  0.90516201  0.37050989  1
  Mo  Mo183  1  0.69617924  0.50528498  0.36663550  1
  Mo  Mo184  1  0.20573819  0.20366285  0.51207292  1
  Mo  Mo185  1  0.21716604  0.60826213  0.49677799  1
  Mo  Mo186  1  0.39517458  0.20636842  -0.00729432  1
  Mo  Mo187  1  -0.00383232  0.80561193  0.00592126  1
  Mo  Mo188  1  0.79497071  0.19969056  0.73757802  1
  Mo  Mo189  1  0.20018793  0.00845718  0.24089267  1
  Mo  Mo190  1  0.40293133  0.60581499  0.24537036  1
  Mo  Mo191  1  0.00551032  0.20183945  -0.00789164  1
  Mo  Mo192  1  0.00152023  0.19424451  0.50422225  1
  Mo  Mo193  1  -0.00002028  0.80874239  0.49658980  1
  Mo  Mo194  1  0.40249226  0.39777093  0.25841524  1
  Mo  Mo195  1  0.59644977  -0.00797454  0.75136417  1
  Mo  Mo196  1  0.19703244  0.80421927  0.49702477  1
  Mo  Mo197  1  0.49359333  0.10849962  0.86231306  1
  Mo  Mo198  1  0.40406830  0.39670112  0.76038928  1
  Mo  Mo199  1  0.60650327  0.39320497  0.74671908  1
