# generated using pymatgen
data_HfZrTaTiMo
_symmetry_space_group_name_H-M   'P 1'
_cell_length_a   15.18506070
_cell_length_b   15.19055148
_cell_length_c   16.83675162
_cell_angle_alpha   89.98789702
_cell_angle_beta   90.00904191
_cell_angle_gamma   89.99510510
_symmetry_Int_Tables_number   1
_chemical_formula_structural   HfZrTaTiMo
_chemical_formula_sum   'Hf40 Zr40 Ta40 Ti40 Mo40'
_cell_volume   3883.72402492
_cell_formula_units_Z   40
loop_
 _symmetry_equiv_pos_site_id
 _symmetry_equiv_pos_as_xyz
  1  'x, y, z'
loop_
 _atom_site_type_symbol
 _atom_site_label
 _atom_site_symmetry_multiplicity
 _atom_site_fract_x
 _atom_site_fract_y
 _atom_site_fract_z
 _atom_site_occupancy
  Hf  Hf0  1  0.18900241  0.17575193  -0.00597036  1
  Hf  Hf1  1  0.10675863  0.29441893  0.12167494  1
  Hf  Hf2  1  0.08859639  0.10573922  0.62262937  1
  Hf  Hf3  1  0.20078264  0.58371823  -0.01461483  1
  Hf  Hf4  1  0.30504037  0.69566147  0.87066062  1
  Hf  Hf5  1  0.38824460  0.20042739  0.00378977  1
  Hf  Hf6  1  0.19182342  0.19693018  0.25791588  1
  Hf  Hf7  1  0.89274626  0.70168098  0.86432962  1
  Hf  Hf8  1  0.40417742  0.59300855  0.51223344  1
  Hf  Hf9  1  0.91238912  0.09391314  0.85711103  1
  Hf  Hf10  1  0.70105560  0.09809660  0.62783440  1
  Hf  Hf11  1  0.90956689  0.30521700  0.63388297  1
  Hf  Hf12  1  0.18939923  0.80710518  0.25196402  1
  Hf  Hf13  1  0.49276806  0.50401090  0.87748204  1
  Hf  Hf14  1  0.48825823  0.30378731  0.12515219  1
  Hf  Hf15  1  0.00544013  0.59430520  0.51276348  1
  Hf  Hf16  1  0.70178365  0.29458186  0.11827894  1
  Hf  Hf17  1  0.69095306  0.70021149  0.62073465  1
  Hf  Hf18  1  0.60025314  0.79791033  0.74635799  1
  Hf  Hf19  1  0.69902512  0.29982560  0.62474154  1
  Hf  Hf20  1  0.90410653  0.49523814  0.37921374  1
  Hf  Hf21  1  0.50992969  0.11137955  0.62261613  1
  Hf  Hf22  1  0.30640479  0.09515460  0.37700214  1
  Hf  Hf23  1  -0.00006135  0.40094718  0.24729329  1
  Hf  Hf24  1  0.29099251  0.69289840  0.37768889  1
  Hf  Hf25  1  0.70380038  0.30940455  0.88775846  1
  Hf  Hf26  1  0.59663159  0.19975295  0.76258264  1
  Hf  Hf27  1  0.11211010  0.91454693  0.11148714  1
  Hf  Hf28  1  0.90865556  0.89961006  0.39460268  1
  Hf  Hf29  1  0.39360655  0.79891827  0.51456030  1
  Hf  Hf30  1  -0.01338517  0.21808325  0.49179074  1
  Hf  Hf31  1  0.81863317  0.41423375  0.00607720  1
  Hf  Hf32  1  0.71549244  0.89920344  0.87922417  1
  Hf  Hf33  1  0.70091911  0.51447522  0.87723919  1
  Hf  Hf34  1  0.39401032  -0.00456855  0.00166536  1
  Hf  Hf35  1  -0.00888473  0.80569568  -0.01636327  1
  Hf  Hf36  1  0.58676618  0.40197884  0.50076924  1
  Hf  Hf37  1  0.19329237  -0.01041065  0.73428792  1
  Hf  Hf38  1  0.50897981  0.89609699  0.87763113  1
  Hf  Hf39  1  0.91023615  0.90032521  0.12327115  1
  Zr  Zr40  1  0.80473710  0.39066778  0.49729094  1
  Zr  Zr41  1  0.80809795  0.81288735  0.73842606  1
  Zr  Zr42  1  0.49988135  0.09907175  0.88055067  1
  Zr  Zr43  1  0.30036602  0.89463231  0.37332081  1
  Zr  Zr44  1  0.30165031  0.48393913  0.37188860  1
  Zr  Zr45  1  0.20218970  0.59032651  0.51060584  1
  Zr  Zr46  1  0.09667466  0.70998590  0.11077469  1
  Zr  Zr47  1  0.49832703  0.30569739  0.36220754  1
  Zr  Zr48  1  0.60374840  0.40472427  0.75377911  1
  Zr  Zr49  1  0.51259131  0.91072964  0.62847724  1
  Zr  Zr50  1  0.39225561  0.21062447  0.75335693  1
  Zr  Zr51  1  0.20584494  -0.02029768  0.51752380  1
  Zr  Zr52  1  0.49644378  0.70254055  0.37358022  1
  Zr  Zr53  1  0.60117077  0.40327429  0.24207420  1
  Zr  Zr54  1  0.59013655  0.61034150  0.01456089  1
  Zr  Zr55  1  0.81525141  0.00208762  -0.00166354  1
  Zr  Zr56  1  0.40870379  0.79254790  0.23861917  1
  Zr  Zr57  1  0.01582561  -0.00301814  0.25980159  1
  Zr  Zr58  1  0.09930167  0.09095840  0.39177195  1
  Zr  Zr59  1  0.40287417  -0.00147096  0.75209806  1
  Zr  Zr60  1  0.19598446  0.59290318  0.24568339  1
  Zr  Zr61  1  0.18406640  0.37921718  0.75346349  1
  Zr  Zr62  1  0.69574023  0.50013574  0.36915318  1
  Zr  Zr63  1  0.89400772  0.10081808  0.62960576  1
  Zr  Zr64  1  0.60778550  0.81624277  0.25073390  1
  Zr  Zr65  1  0.60124330  0.60628754  0.49730501  1
  Zr  Zr66  1  0.80774432  0.79799015  0.25749124  1
  Zr  Zr67  1  0.79865741  0.62682779  0.01705730  1
  Zr  Zr68  1  0.80251832  0.21433304  0.76310554  1
  Zr  Zr69  1  0.09212876  0.49278143  0.11195863  1
  Zr  Zr70  1  0.79837285  0.60115461  0.23918142  1
  Zr  Zr71  1  0.49999197  0.09917054  0.13377538  1
  Zr  Zr72  1  0.40739811  0.20972820  0.49374233  1
  Zr  Zr73  1  -0.00659697  0.61089026  0.24340277  1
  Zr  Zr74  1  0.30486534  0.89537172  0.12247095  1
  Zr  Zr75  1  0.30645558  0.09845870  0.61730736  1
  Zr  Zr76  1  0.48222732  0.50533847  0.12082789  1
  Zr  Zr77  1  0.30625207  0.67524698  0.11115362  1
  Zr  Zr78  1  0.29680473  0.49040896  0.64678764  1
  Zr  Zr79  1  0.80343924  0.00006099  0.25650114  1
  Ta  Ta80  1  0.80264137  0.59976101  0.50703017  1
  Ta  Ta81  1  0.09553917  0.31261040  0.37861121  1
  Ta  Ta82  1  0.90339550  0.69937002  0.39174767  1
  Ta  Ta83  1  0.29706921  0.69297284  0.64273218  1
  Ta  Ta84  1  -0.01050805  0.20334861  0.25990687  1
  Ta  Ta85  1  0.90713926  0.29881314  0.12009250  1
  Ta  Ta86  1  0.09221085  0.70296359  0.38395025  1
  Ta  Ta87  1  0.39886839  0.80054687  0.74249250  1
  Ta  Ta88  1  0.41260514  0.60435587  0.74843620  1
  Ta  Ta89  1  0.00751014  0.81131746  0.74777371  1
  Ta  Ta90  1  0.10198165  0.50136072  0.37582562  1
  Ta  Ta91  1  0.61143634  0.19950127  0.48953819  1
  Ta  Ta92  1  0.60295108  0.19760599  -0.00328763  1
  Ta  Ta93  1  0.50455556  0.69990973  0.87578855  1
  Ta  Ta94  1  0.20063655  0.79979512  0.74702165  1
  Ta  Ta95  1  0.09621782  0.68060659  0.65072232  1
  Ta  Ta96  1  0.90123394  0.50473363  0.63683774  1
  Ta  Ta97  1  0.28935521  0.29357787  0.62531292  1
  Ta  Ta98  1  0.60683753  0.00149109  0.00977785  1
  Ta  Ta99  1  0.91010921  0.90865005  0.60761374  1
  Ta  Ta100  1  0.90773518  0.10955935  0.12450529  1
  Ta  Ta101  1  0.08519096  0.49496603  0.87288951  1
  Ta  Ta102  1  0.70892634  0.91005290  0.61476242  1
  Ta  Ta103  1  0.51001614  0.09942485  0.36027606  1
  Ta  Ta104  1  0.10307130  0.91199342  0.87254589  1
  Ta  Ta105  1  0.29020833  0.46376308  0.12708257  1
  Ta  Ta106  1  0.39270845  0.20324014  0.24787633  1
  Ta  Ta107  1  0.59569951  0.61514670  0.23719859  1
  Ta  Ta108  1  0.79940001  0.20345105  0.24835844  1
  Ta  Ta109  1  0.42250713  -0.00592801  0.49183230  1
  Ta  Ta110  1  0.79678284  0.79765696  0.50149543  1
  Ta  Ta111  1  0.59748316  0.82161504  0.48959336  1
  Ta  Ta112  1  0.49284163  0.30805745  0.88670158  1
  Ta  Ta113  1  -0.01198919  0.59205958  -0.00310721  1
  Ta  Ta114  1  0.01770469  0.01821895  -0.00870708  1
  Ta  Ta115  1  0.61200660  0.80231237  0.01313997  1
  Ta  Ta116  1  0.70712851  0.10301298  0.12556271  1
  Ta  Ta117  1  0.50866769  0.50732547  0.63760933  1
  Ta  Ta118  1  0.29391108  0.29279813  0.87271901  1
  Ta  Ta119  1  0.41533969  0.78645942  0.00462214  1
  Ti  Ti120  1  0.19798621  0.20839953  0.49785366  1
  Ti  Ti121  1  0.38117174  0.40428375  -0.00578126  1
  Ti  Ti122  1  -0.00378248  0.40082987  0.75287754  1
  Ti  Ti123  1  0.49132430  0.31167514  0.63039707  1
  Ti  Ti124  1  0.29190013  0.30187023  0.37499072  1
  Ti  Ti125  1  0.28572061  0.08940932  0.86763405  1
  Ti  Ti126  1  0.89528860  0.50388546  0.86211845  1
  Ti  Ti127  1  0.79184153  0.60117219  0.74269133  1
  Ti  Ti128  1  0.70522523  0.49730652  0.62970310  1
  Ti  Ti129  1  0.39879721  0.59056494  0.24811543  1
  Ti  Ti130  1  0.90230049  0.70328123  0.62611324  1
  Ti  Ti131  1  0.20426115  0.80275849  -0.01313993  1
  Ti  Ti132  1  0.70580488  0.29329619  0.36712524  1
  Ti  Ti133  1  0.80726441  0.39641382  0.24082640  1
  Ti  Ti134  1  0.30219852  0.89464852  0.87585488  1
  Ti  Ti135  1  0.91343718  0.31129517  0.87264029  1
  Ti  Ti136  1  -0.00325182  0.20685391  -0.00941238  1
  Ti  Ti137  1  0.18852249  0.78338175  0.52490855  1
  Ti  Ti138  1  0.70847714  0.90311812  0.11995066  1
  Ti  Ti139  1  0.70437779  0.70440130  0.38006605  1
  Ti  Ti140  1  0.60388303  0.00136777  0.24496071  1
  Ti  Ti141  1  0.70227124  0.09395196  0.87310964  1
  Ti  Ti142  1  0.28473535  0.09213172  0.13622608  1
  Ti  Ti143  1  0.09962031  0.88701417  0.39697710  1
  Ti  Ti144  1  0.69564213  0.70597953  0.87373545  1
  Ti  Ti145  1  -0.00139838  0.79887882  0.25384737  1
  Ti  Ti146  1  0.18131218  0.39852209  0.51393778  1
  Ti  Ti147  1  0.69732704  0.10060607  0.36911494  1
  Ti  Ti148  1  0.09740651  0.69468049  0.86352085  1
  Ti  Ti149  1  0.59589866  0.40192633  0.00459161  1
  Ti  Ti150  1  0.79071165  0.00830139  0.49064036  1
  Ti  Ti151  1  0.38802601  0.40057951  0.50803698  1
  Ti  Ti152  1  0.89141404  0.10953604  0.38113427  1
  Ti  Ti153  1  0.70047533  0.50118289  0.12411034  1
  Ti  Ti154  1  0.19296596  0.38235570  -0.01508828  1
  Ti  Ti155  1  0.49550347  0.50095707  0.36489856  1
  Ti  Ti156  1  0.80689594  0.19828376  -0.00620043  1
  Ti  Ti157  1  0.40278890  -0.00666945  0.24941178  1
  Ti  Ti158  1  0.29794214  0.49157010  0.85847090  1
  Ti  Ti159  1  0.09371344  0.10073806  0.13179728  1
  Mo  Mo160  1  0.60830419  0.19312056  0.25012362  1
  Mo  Mo161  1  0.80012453  0.80642484  0.00166334  1
  Mo  Mo162  1  0.80670586  0.41304236  0.75359030  1
  Mo  Mo163  1  0.01833591  0.21080359  0.75493761  1
  Mo  Mo164  1  0.19685133  0.19118476  0.75160174  1
  Mo  Mo165  1  0.30186209  0.88806172  0.62544465  1
  Mo  Mo166  1  0.09137677  0.88725695  0.61961025  1
  Mo  Mo167  1  0.89780360  0.49719377  0.12421145  1
  Mo  Mo168  1  0.70115286  0.90627223  0.38686557  1
  Mo  Mo169  1  0.60550200  0.00967681  0.48896737  1
  Mo  Mo170  1  -0.00978882  0.59971273  0.75235985  1
  Mo  Mo171  1  0.10100404  0.29807116  0.61847122  1
  Mo  Mo172  1  0.49859689  0.70569253  0.12603799  1
  Mo  Mo173  1  0.40023100  0.39790858  0.75476387  1
  Mo  Mo174  1  0.90943630  0.70847275  0.12158689  1
  Mo  Mo175  1  -0.00398620  0.00405694  0.49383907  1
  Mo  Mo176  1  0.79071603  0.19825005  0.49039629  1
  Mo  Mo177  1  0.89398547  0.29957259  0.36526267  1
  Mo  Mo178  1  0.08689767  0.48913513  0.63907005  1
  Mo  Mo179  1  0.70047484  0.71287685  0.13217262  1
  Mo  Mo180  1  0.10205556  0.10218606  0.85629054  1
  Mo  Mo181  1  0.91216024  0.90236302  0.86931440  1
  Mo  Mo182  1  0.38679557  0.39414845  0.24888340  1
  Mo  Mo183  1  0.20741429  0.00142636  0.25241473  1
  Mo  Mo184  1  0.62065892  -0.00204042  0.75442364  1
  Mo  Mo185  1  0.49812318  0.70082628  0.62718525  1
  Mo  Mo186  1  0.20250046  -0.00373419  -0.01051929  1
  Mo  Mo187  1  0.51096290  0.90476705  0.11548133  1
  Mo  Mo188  1  0.38943276  0.59180069  -0.00658986  1
  Mo  Mo189  1  0.00602747  0.40665676  0.50158204  1
  Mo  Mo190  1  0.19466645  0.38911257  0.25470825  1
  Mo  Mo191  1  0.00214786  0.39856521  -0.00867681  1
  Mo  Mo192  1  0.00436336  0.79137623  0.51512881  1
  Mo  Mo193  1  0.79658627  -0.00221710  0.74809805  1
  Mo  Mo194  1  0.19446582  0.59586798  0.76830969  1
  Mo  Mo195  1  0.60323256  0.60683439  0.75233903  1
  Mo  Mo196  1  0.50088324  0.91217007  0.37231044  1
  Mo  Mo197  1  0.09460536  0.29391392  0.88082600  1
  Mo  Mo198  1  -0.00477053  -0.00904115  0.74612930  1
  Mo  Mo199  1  0.29351655  0.28613216  0.12463480  1
