# generated using pymatgen
data_HfZrTaTiMo
_symmetry_space_group_name_H-M   'P 1'
_cell_length_a   15.20294835
_cell_length_b   15.20748347
_cell_length_c   16.84316294
_cell_angle_alpha   90.02567403
_cell_angle_beta   89.96171919
_cell_angle_gamma   90.03146790
_symmetry_Int_Tables_number   1
_chemical_formula_structural   HfZrTaTiMo
_chemical_formula_sum   'Hf40 Zr40 Ta40 Ti40 Mo40'
_cell_volume   3894.11360410
_cell_formula_units_Z   40
loop_
 _symmetry_equiv_pos_site_id
 _symmetry_equiv_pos_as_xyz
  1  'x, y, z'
loop_
 _atom_site_type_symbol
 _atom_site_label
 _atom_site_symmetry_multiplicity
 _atom_site_fract_x
 _atom_site_fract_y
 _atom_site_fract_z
 _atom_site_occupancy
  Hf  Hf0  1  0.08055328  0.68876181  0.11587087  1
  Hf  Hf1  1  0.70925702  0.90605822  0.12890942  1
  Hf  Hf2  1  0.30339696  0.30040661  0.86939478  1
  Hf  Hf3  1  -0.00188596  0.00083677  0.49838473  1
  Hf  Hf4  1  0.01197049  0.19839903  0.75082918  1
  Hf  Hf5  1  0.81090739  0.79499792  -0.00181911  1
  Hf  Hf6  1  0.79445232  0.39585255  0.25084236  1
  Hf  Hf7  1  0.09952652  0.10601253  0.37372760  1
  Hf  Hf8  1  0.39130393  0.79775630  0.74188741  1
  Hf  Hf9  1  0.09065977  0.10251760  0.10375530  1
  Hf  Hf10  1  0.09351598  0.49711271  0.38754317  1
  Hf  Hf11  1  0.10334902  0.70931274  0.88110529  1
  Hf  Hf12  1  0.70181251  0.29956928  0.38485214  1
  Hf  Hf13  1  0.91427157  0.50851196  0.11251408  1
  Hf  Hf14  1  0.49580160  0.10452363  0.88126906  1
  Hf  Hf15  1  0.30516929  0.29776011  0.38685604  1
  Hf  Hf16  1  0.81078988  0.19492594  0.51415257  1
  Hf  Hf17  1  0.49896723  0.31725040  0.13288365  1
  Hf  Hf18  1  0.40401499  0.78991969  0.23956375  1
  Hf  Hf19  1  0.58071649  0.41557448  -0.00606937  1
  Hf  Hf20  1  0.59989241  0.01209363  0.24851049  1
  Hf  Hf21  1  0.48168944  0.51981744  0.14639156  1
  Hf  Hf22  1  0.29979870  0.09764294  0.11081796  1
  Hf  Hf23  1  0.19587842  0.82046224  0.75100412  1
  Hf  Hf24  1  0.10444753  0.90261541  0.37041535  1
  Hf  Hf25  1  0.90993156  0.08328521  0.86343897  1
  Hf  Hf26  1  0.61692488  0.22146341  -0.00336994  1
  Hf  Hf27  1  0.60711111  0.00481720  0.50793489  1
  Hf  Hf28  1  0.58967241  0.59513178  0.74793013  1
  Hf  Hf29  1  0.19784878  0.61110335  0.74025136  1
  Hf  Hf30  1  0.47483659  0.69146786  0.87229649  1
  Hf  Hf31  1  0.89351335  0.70141574  0.64304390  1
  Hf  Hf32  1  0.38182769  0.00322639  0.51021421  1
  Hf  Hf33  1  0.39935474  0.22070027  0.00162410  1
  Hf  Hf34  1  0.51148309  0.70318355  0.61321820  1
  Hf  Hf35  1  0.40135142  0.58284010  0.51381850  1
  Hf  Hf36  1  0.28744232  0.49233071  0.37941028  1
  Hf  Hf37  1  0.69820524  0.70375613  0.87535614  1
  Hf  Hf38  1  0.37966757  -0.00158985  0.74003217  1
  Hf  Hf39  1  0.49370446  0.90228938  0.38088512  1
  Zr  Zr40  1  0.61727206  0.60254335  0.49174677  1
  Zr  Zr41  1  0.81696653  0.00056750  0.00038835  1
  Zr  Zr42  1  0.49525183  0.90393302  0.88722652  1
  Zr  Zr43  1  0.50582110  0.11182407  0.37625637  1
  Zr  Zr44  1  0.20724978  0.40270461  -0.00828715  1
  Zr  Zr45  1  0.30000531  0.69252018  0.37597348  1
  Zr  Zr46  1  0.60172400  0.80145602  0.24612693  1
  Zr  Zr47  1  0.29228686  0.07728827  0.89535427  1
  Zr  Zr48  1  0.20905980  0.18679990  0.50631874  1
  Zr  Zr49  1  0.01053324  0.40691314  0.24953125  1
  Zr  Zr50  1  -0.01000550  0.39620697  0.50526691  1
  Zr  Zr51  1  0.80625610  -0.00560936  0.50620702  1
  Zr  Zr52  1  0.71683701  0.11993553  0.13031388  1
  Zr  Zr53  1  0.11753972  0.08050147  0.62496876  1
  Zr  Zr54  1  0.59179288  0.61395756  0.00206266  1
  Zr  Zr55  1  0.20654835  0.18351349  0.75608691  1
  Zr  Zr56  1  0.10145414  0.31053253  0.11574323  1
  Zr  Zr57  1  0.59052894  0.40962481  0.49186346  1
  Zr  Zr58  1  0.60265255  0.80201598  0.74531534  1
  Zr  Zr59  1  0.10477196  0.69142353  0.38156275  1
  Zr  Zr60  1  -0.00199440  0.79619449  0.25706543  1
  Zr  Zr61  1  0.30424186  0.09404674  0.36499715  1
  Zr  Zr62  1  0.90592018  0.28829407  0.37309883  1
  Zr  Zr63  1  0.60309282  0.00534441  0.73787997  1
  Zr  Zr64  1  0.50346156  0.31124706  0.61997792  1
  Zr  Zr65  1  0.19480192  -0.00036528  0.23368633  1
  Zr  Zr66  1  0.08048135  0.50524233  0.87238409  1
  Zr  Zr67  1  0.18666854  0.39636353  0.75298706  1
  Zr  Zr68  1  0.40187211  0.41274803  0.73949971  1
  Zr  Zr69  1  0.70592454  0.11046077  0.87169223  1
  Zr  Zr70  1  -0.01212358  0.79965416  0.49110541  1
  Zr  Zr71  1  0.60562244  0.21154332  0.74443480  1
  Zr  Zr72  1  0.89229271  0.28907848  0.12461191  1
  Zr  Zr73  1  0.70955783  0.90235835  0.36991430  1
  Zr  Zr74  1  0.30420859  0.52066264  0.87134914  1
  Zr  Zr75  1  0.50512982  0.10667958  0.11726246  1
  Zr  Zr76  1  0.79093056  0.39368287  -0.01221771  1
  Zr  Zr77  1  0.69498106  0.49472401  0.12596975  1
  Zr  Zr78  1  0.70927058  0.91046177  0.87474291  1
  Zr  Zr79  1  0.40412440  0.78101016  0.02024192  1
  Ta  Ta80  1  -0.00883245  0.60160079  0.25277422  1
  Ta  Ta81  1  0.39928731  -0.00777069  0.24012192  1
  Ta  Ta82  1  0.90757164  0.69288029  0.86104869  1
  Ta  Ta83  1  -0.01462986  0.59926483  0.51103743  1
  Ta  Ta84  1  0.61198210  0.19849661  0.50995414  1
  Ta  Ta85  1  0.60288991  0.60577122  0.26105642  1
  Ta  Ta86  1  0.11114883  0.30167590  0.38081827  1
  Ta  Ta87  1  0.29732172  0.89337153  0.36748013  1
  Ta  Ta88  1  0.48696098  0.50341111  0.36320877  1
  Ta  Ta89  1  0.91019899  0.89798636  0.13368406  1
  Ta  Ta90  1  0.49552139  0.89936524  0.61526219  1
  Ta  Ta91  1  0.40293906  0.19984281  0.74450123  1
  Ta  Ta92  1  0.79689073  0.78964857  0.50127560  1
  Ta  Ta93  1  0.39272155  0.60245830  0.72518608  1
  Ta  Ta94  1  0.09125968  0.70510990  0.62396122  1
  Ta  Ta95  1  0.20531797  0.79684733  0.01852452  1
  Ta  Ta96  1  0.30244517  0.67302514  0.13434690  1
  Ta  Ta97  1  0.90220539  0.29841097  0.86164260  1
  Ta  Ta98  1  0.70830176  0.69752753  0.12647591  1
  Ta  Ta99  1  0.10052905  0.30077178  0.62197230  1
  Ta  Ta100  1  0.10576194  0.91546629  0.89544183  1
  Ta  Ta101  1  0.08552785  0.50014617  0.63086076  1
  Ta  Ta102  1  0.01797621  -0.01898101  0.75491994  1
  Ta  Ta103  1  0.71031438  0.31077724  0.62069200  1
  Ta  Ta104  1  0.88707352  0.50997654  0.37747520  1
  Ta  Ta105  1  0.50162044  0.69934521  0.38197669  1
  Ta  Ta106  1  0.20623051  0.21530645  0.24288845  1
  Ta  Ta107  1  0.18681262  0.58227911  0.24015044  1
  Ta  Ta108  1  0.90700112  0.09091522  0.13821341  1
  Ta  Ta109  1  0.00895215  0.19535742  0.24899079  1
  Ta  Ta110  1  0.29756127  0.30229526  0.61987690  1
  Ta  Ta111  1  0.80209456  0.19709912  0.73807993  1
  Ta  Ta112  1  0.20302330  0.79128912  0.23121058  1
  Ta  Ta113  1  0.80380768  0.60218351  0.24757921  1
  Ta  Ta114  1  0.00144745  0.19486401  0.51126559  1
  Ta  Ta115  1  0.80563122  0.59996374  -0.00845968  1
  Ta  Ta116  1  0.50246313  0.31401031  0.86886232  1
  Ta  Ta117  1  0.61149365  0.21989076  0.24906647  1
  Ta  Ta118  1  0.88974689  0.49729177  0.64183089  1
  Ta  Ta119  1  0.79602923  0.41379532  0.50320016  1
  Ti  Ti120  1  0.71288674  0.10727557  0.36567468  1
  Ti  Ti121  1  0.60459224  0.80572617  0.01069721  1
  Ti  Ti122  1  0.69609228  0.50638790  0.62898310  1
  Ti  Ti123  1  0.90429496  0.30503007  0.63757521  1
  Ti  Ti124  1  0.41163499  0.20389884  0.50897646  1
  Ti  Ti125  1  0.59782311  0.40740051  0.26325871  1
  Ti  Ti126  1  -0.00366356  0.39423121  -0.01134449  1
  Ti  Ti127  1  0.19216986  0.59264395  0.51879578  1
  Ti  Ti128  1  0.60168888  0.40738357  0.75234592  1
  Ti  Ti129  1  0.81552213  0.20259098  -0.00931596  1
  Ti  Ti130  1  0.78699139  0.60199878  0.75200976  1
  Ti  Ti131  1  0.39438088  0.58056392  0.00420702  1
  Ti  Ti132  1  0.10229594  0.89320761  0.61895862  1
  Ti  Ti133  1  0.39713538  0.80095691  0.50161432  1
  Ti  Ti134  1  0.90494526  0.08826228  0.64031586  1
  Ti  Ti135  1  0.90047681  0.08454940  0.35761148  1
  Ti  Ti136  1  0.80944238  0.81481768  0.75909467  1
  Ti  Ti137  1  0.80907605  0.79267361  0.25165729  1
  Ti  Ti138  1  0.90838609  0.89558384  0.63626412  1
  Ti  Ti139  1  0.40414794  0.19889956  0.24263139  1
  Ti  Ti140  1  0.80233524  0.60266418  0.50766546  1
  Ti  Ti141  1  0.89340080  0.50088467  0.86097249  1
  Ti  Ti142  1  0.20374834  0.80910130  0.50229956  1
  Ti  Ti143  1  0.49702949  0.90685803  0.11654397  1
  Ti  Ti144  1  0.70931312  0.89308205  0.62812496  1
  Ti  Ti145  1  0.18799587  0.20493790  -0.01259642  1
  Ti  Ti146  1  0.50090615  0.10247671  0.62451204  1
  Ti  Ti147  1  0.71407119  0.69481383  0.37036778  1
  Ti  Ti148  1  0.38181429  0.39232176  0.25319725  1
  Ti  Ti149  1  0.29166980  0.70957271  0.61434721  1
  Ti  Ti150  1  -0.00402193  0.80064065  -0.00124421  1
  Ti  Ti151  1  0.28868796  0.47846879  0.13148848  1
  Ti  Ti152  1  0.78962833  0.39670661  0.75441526  1
  Ti  Ti153  1  0.69193827  0.50122460  0.87324891  1
  Ti  Ti154  1  0.60983349  0.80316986  0.49977143  1
  Ti  Ti155  1  0.60483870  0.00681908  0.00421907  1
  Ti  Ti156  1  0.19771852  0.60127186  0.00580903  1
  Ti  Ti157  1  0.09599968  0.90190022  0.11584360  1
  Ti  Ti158  1  0.29987608  0.88435886  0.89286695  1
  Ti  Ti159  1  0.49595313  0.30312165  0.37567230  1
  Mo  Mo160  1  0.80867718  -0.00812716  0.25196822  1
  Mo  Mo161  1  0.70535911  0.31030889  0.86489469  1
  Mo  Mo162  1  0.00679268  0.79985363  0.75298062  1
  Mo  Mo163  1  0.50254294  0.50393715  0.62348314  1
  Mo  Mo164  1  0.89245968  0.69278777  0.37872043  1
  Mo  Mo165  1  -0.01129258  0.39605813  0.74672102  1
  Mo  Mo166  1  -0.00334555  0.59901520  0.74182154  1
  Mo  Mo167  1  0.09698942  0.09802558  0.89376720  1
  Mo  Mo168  1  0.70245973  0.50501225  0.36790218  1
  Mo  Mo169  1  0.29128512  0.70490108  0.88071523  1
  Mo  Mo170  1  0.51109114  0.69760170  0.13038490  1
  Mo  Mo171  1  0.70585722  0.10326466  0.62767672  1
  Mo  Mo172  1  0.39343085  0.39489665  0.49934205  1
  Mo  Mo173  1  0.89040474  0.70111259  0.12215692  1
  Mo  Mo174  1  0.31078715  0.10465395  0.62721461  1
  Mo  Mo175  1  0.70818912  0.70548113  0.62716577  1
  Mo  Mo176  1  0.39776908  0.40732305  0.00217187  1
  Mo  Mo177  1  0.30175455  0.29640694  0.12740185  1
  Mo  Mo178  1  0.19680765  0.40075241  0.51535780  1
  Mo  Mo179  1  0.69387595  0.30824420  0.12867180  1
  Mo  Mo180  1  0.28599421  0.49664877  0.61923197  1
  Mo  Mo181  1  0.08904373  0.29457240  0.88207583  1
  Mo  Mo182  1  0.00306182  -0.00012671  0.24760333  1
  Mo  Mo183  1  0.30098183  0.89137098  0.12635724  1
  Mo  Mo184  1  0.10457459  0.50602456  0.11274330  1
  Mo  Mo185  1  0.39236143  0.59857228  0.26082090  1
  Mo  Mo186  1  0.91736602  0.88381118  0.86690604  1
  Mo  Mo187  1  -0.01364426  0.60193072  -0.01198462  1
  Mo  Mo188  1  0.28883367  0.89922580  0.61716912  1
  Mo  Mo189  1  0.20200570  -0.01443541  0.01657961  1
  Mo  Mo190  1  0.89657326  0.89881257  0.36432029  1
  Mo  Mo191  1  -0.00957442  0.19967622  -0.01326128  1
  Mo  Mo192  1  0.40848759  -0.00871341  0.00530903  1
  Mo  Mo193  1  0.20006459  -0.01491504  0.49338910  1
  Mo  Mo194  1  0.49546476  0.50148290  0.87078006  1
  Mo  Mo195  1  0.19777310  0.39515226  0.25160038  1
  Mo  Mo196  1  0.19930765  -0.00588424  0.75941332  1
  Mo  Mo197  1  0.80919841  -0.00454690  0.73744700  1
  Mo  Mo198  1  0.80214197  0.19517567  0.25550497  1
  Mo  Mo199  1  -0.00371074  -0.00898639  0.00109823  1
