# generated using pymatgen
data_HfZrTaTiMo
_symmetry_space_group_name_H-M   'P 1'
_cell_length_a   15.20664072
_cell_length_b   15.19667415
_cell_length_c   16.87965360
_cell_angle_alpha   89.98910499
_cell_angle_beta   90.01206064
_cell_angle_gamma   89.95485190
_symmetry_Int_Tables_number   1
_chemical_formula_structural   HfZrTaTiMo
_chemical_formula_sum   'Hf40 Zr40 Ta40 Ti40 Mo40'
_cell_volume   3900.72392395
_cell_formula_units_Z   40
loop_
 _symmetry_equiv_pos_site_id
 _symmetry_equiv_pos_as_xyz
  1  'x, y, z'
loop_
 _atom_site_type_symbol
 _atom_site_label
 _atom_site_symmetry_multiplicity
 _atom_site_fract_x
 _atom_site_fract_y
 _atom_site_fract_z
 _atom_site_occupancy
  Hf  Hf0  1  0.60250969  -0.01271555  -0.01273995  1
  Hf  Hf1  1  0.50519924  0.50286948  0.61478635  1
  Hf  Hf2  1  0.61039047  0.39586862  0.75571461  1
  Hf  Hf3  1  0.83170569  0.80788099  0.73595370  1
  Hf  Hf4  1  0.90976021  0.91049516  0.88135667  1
  Hf  Hf5  1  0.10858712  0.10957486  0.13442416  1
  Hf  Hf6  1  0.90166381  0.10589331  0.13501594  1
  Hf  Hf7  1  0.60291813  0.80272335  0.74571621  1
  Hf  Hf8  1  -0.00985304  0.19061759  0.74465009  1
  Hf  Hf9  1  0.78917915  0.20844617  0.26055436  1
  Hf  Hf10  1  0.69784832  0.88079189  0.11301673  1
  Hf  Hf11  1  0.89458925  0.69690845  0.12449339  1
  Hf  Hf12  1  0.50622185  0.51089112  0.37306689  1
  Hf  Hf13  1  0.20544109  0.38858582  0.49146085  1
  Hf  Hf14  1  0.59271580  0.18264483  0.25694323  1
  Hf  Hf15  1  0.09243319  0.08238346  0.86610998  1
  Hf  Hf16  1  0.28093760  0.30573791  0.12184384  1
  Hf  Hf17  1  0.00722402  0.79980648  0.00421569  1
  Hf  Hf18  1  0.61479776  0.00723030  0.75224774  1
  Hf  Hf19  1  0.69213953  0.90401968  0.38467332  1
  Hf  Hf20  1  0.81355989  0.80603165  0.50735685  1
  Hf  Hf21  1  0.79306132  -0.00002766  0.24688641  1
  Hf  Hf22  1  0.49172734  0.09904737  0.88343689  1
  Hf  Hf23  1  0.70870278  0.69268529  0.63331215  1
  Hf  Hf24  1  0.00206277  0.40808714  0.49391403  1
  Hf  Hf25  1  0.36940432  0.20742225  0.52832241  1
  Hf  Hf26  1  0.70848789  0.68930462  0.85877677  1
  Hf  Hf27  1  0.69631515  0.30410499  0.11893055  1
  Hf  Hf28  1  0.91726500  0.31587749  0.12249894  1
  Hf  Hf29  1  0.19638233  0.78813034  0.49878590  1
  Hf  Hf30  1  0.00313382  0.01709373  0.00585021  1
  Hf  Hf31  1  0.08993598  0.29403686  0.87133405  1
  Hf  Hf32  1  0.08575520  0.08877452  0.61498028  1
  Hf  Hf33  1  0.50856771  0.30406412  0.61921846  1
  Hf  Hf34  1  0.40492038  0.01796639  0.24788957  1
  Hf  Hf35  1  0.10885470  0.68676892  0.13241271  1
  Hf  Hf36  1  0.60979937  0.39408862  0.26704489  1
  Hf  Hf37  1  0.50397814  0.09661119  0.10851853  1
  Hf  Hf38  1  0.58539550  0.59750318  0.74981035  1
  Hf  Hf39  1  0.39720915  0.00185505  0.73172093  1
  Zr  Zr40  1  0.40686163  0.61389218  0.01150525  1
  Zr  Zr41  1  0.00778738  0.20887934  0.26592671  1
  Zr  Zr42  1  0.81091533  0.60407868  0.50577939  1
  Zr  Zr43  1  0.47976203  0.27805657  0.37495358  1
  Zr  Zr44  1  0.28473256  0.51290574  0.13648779  1
  Zr  Zr45  1  0.80900671  0.41167699  0.25748989  1
  Zr  Zr46  1  0.81230159  0.20083246  -0.00192803  1
  Zr  Zr47  1  0.30495814  0.29649783  0.87759232  1
  Zr  Zr48  1  0.19721189  0.60509480  -0.01338067  1
  Zr  Zr49  1  0.49144514  0.88876653  0.86856486  1
  Zr  Zr50  1  0.40365805  0.41173302  0.00891877  1
  Zr  Zr51  1  0.10995175  0.29237505  0.62559505  1
  Zr  Zr52  1  0.79560930  0.79928755  0.25300834  1
  Zr  Zr53  1  0.40095153  0.40733119  0.49294477  1
  Zr  Zr54  1  0.87065128  0.50460079  0.86053927  1
  Zr  Zr55  1  0.10263158  0.90123380  0.13876878  1
  Zr  Zr56  1  0.40392853  0.61411883  0.24102514  1
  Zr  Zr57  1  0.20245297  0.39550104  0.75751982  1
  Zr  Zr58  1  0.79119709  0.61251540  0.00278962  1
  Zr  Zr59  1  0.39614752  0.20764655  0.73984066  1
  Zr  Zr60  1  0.09627404  0.50651354  0.62905797  1
  Zr  Zr61  1  0.89542633  0.30186428  0.62356312  1
  Zr  Zr62  1  0.21412947  0.20568124  0.26341671  1
  Zr  Zr63  1  0.31219274  0.50689311  0.86918093  1
  Zr  Zr64  1  0.89886860  0.08927324  0.37632160  1
  Zr  Zr65  1  0.49114629  0.90407169  0.38870113  1
  Zr  Zr66  1  0.50042158  0.70595070  0.39020365  1
  Zr  Zr67  1  0.19143707  0.60806957  0.75987184  1
  Zr  Zr68  1  0.59221455  0.17169881  0.49609290  1
  Zr  Zr69  1  0.28985473  0.51097977  0.36363830  1
  Zr  Zr70  1  0.21071067  -0.00831623  0.51396602  1
  Zr  Zr71  1  0.32162534  0.10770815  0.38322718  1
  Zr  Zr72  1  0.60125954  0.20023137  0.76052478  1
  Zr  Zr73  1  0.39913734  0.81100285  0.00783830  1
  Zr  Zr74  1  0.08405466  0.47873387  0.12124936  1
  Zr  Zr75  1  0.29941274  0.71217165  0.37081105  1
  Zr  Zr76  1  0.79581070  0.40267190  0.48647844  1
  Zr  Zr77  1  0.19157117  -0.01951403  0.73586616  1
  Zr  Zr78  1  0.39742504  0.20058731  0.00190358  1
  Zr  Zr79  1  0.18741455  0.19257499  -0.00487146  1
  Ta  Ta80  1  0.60941571  0.79962920  0.51571341  1
  Ta  Ta81  1  0.69661652  0.09525373  0.11780202  1
  Ta  Ta82  1  0.89166897  0.29734481  0.86885560  1
  Ta  Ta83  1  0.70316478  0.28947020  0.61822995  1
  Ta  Ta84  1  0.90692410  0.51678184  0.37382147  1
  Ta  Ta85  1  0.89536083  0.50940005  0.64057137  1
  Ta  Ta86  1  0.70592059  0.48574375  0.62915677  1
  Ta  Ta87  1  0.51328416  0.49626563  0.13782115  1
  Ta  Ta88  1  0.30144983  0.50038868  0.62952867  1
  Ta  Ta89  1  0.39408054  0.38947265  0.24977634  1
  Ta  Ta90  1  0.50209972  0.30150489  0.12843206  1
  Ta  Ta91  1  0.60619463  0.77603920  -0.01398067  1
  Ta  Ta92  1  0.09541495  0.68505545  0.36125798  1
  Ta  Ta93  1  0.79258596  0.19330182  0.75453427  1
  Ta  Ta94  1  0.00353955  0.79068280  0.49305814  1
  Ta  Ta95  1  0.38457331  0.60993467  0.50887834  1
  Ta  Ta96  1  -0.01060874  0.62114078  0.75814601  1
  Ta  Ta97  1  -0.01746678  -0.01405645  0.73917386  1
  Ta  Ta98  1  -0.00323025  0.59378196  -0.01367491  1
  Ta  Ta99  1  0.11080156  0.08499108  0.38346421  1
  Ta  Ta100  1  0.29191562  0.91059268  0.36596634  1
  Ta  Ta101  1  0.71565557  0.91701848  0.62548940  1
  Ta  Ta102  1  0.39721891  0.79330635  0.73608829  1
  Ta  Ta103  1  0.41317111  0.01182242  0.52427156  1
  Ta  Ta104  1  0.52171484  0.70104305  0.12624220  1
  Ta  Ta105  1  0.49440070  0.70261080  0.61470577  1
  Ta  Ta106  1  0.90423161  0.70277680  0.36819420  1
  Ta  Ta107  1  0.69881661  0.69326745  0.38176225  1
  Ta  Ta108  1  0.28729642  0.89433241  0.86870281  1
  Ta  Ta109  1  0.59933535  -0.01432799  0.24399052  1
  Ta  Ta110  1  0.89930580  0.90064845  0.12065835  1
  Ta  Ta111  1  0.20761940  -0.01232777  -0.00165666  1
  Ta  Ta112  1  -0.00533245  0.40850107  0.75878670  1
  Ta  Ta113  1  0.69893431  0.50963417  0.13033841  1
  Ta  Ta114  1  0.59825933  0.79092282  0.25306710  1
  Ta  Ta115  1  -0.00015219  0.19641003  0.49135144  1
  Ta  Ta116  1  0.40701119  0.81281855  0.23885964  1
  Ta  Ta117  1  0.31762327  0.70927941  0.86477170  1
  Ta  Ta118  1  0.29837285  0.91055665  0.13480172  1
  Ta  Ta119  1  0.09981762  0.89030018  0.36646131  1
  Ti  Ti120  1  0.00450974  0.60779093  0.50121720  1
  Ti  Ti121  1  0.60017781  0.58521424  -0.00505494  1
  Ti  Ti122  1  0.20827086  0.79789259  0.00616143  1
  Ti  Ti123  1  0.09012171  0.87071911  0.62534727  1
  Ti  Ti124  1  0.39015937  0.81199113  0.51497836  1
  Ti  Ti125  1  0.90147799  0.30164751  0.37992520  1
  Ti  Ti126  1  0.60952750  0.39250708  0.48354497  1
  Ti  Ti127  1  0.50562305  0.50505923  0.87745487  1
  Ti  Ti128  1  0.80316505  -0.00295592  0.00560914  1
  Ti  Ti129  1  0.20569235  0.79501237  0.24753388  1
  Ti  Ti130  1  -0.00550943  -0.01630639  0.49789684  1
  Ti  Ti131  1  0.79410067  0.41483027  0.00413964  1
  Ti  Ti132  1  0.50539217  0.31304023  0.88628460  1
  Ti  Ti133  1  0.70485061  0.31661612  0.88507793  1
  Ti  Ti134  1  0.90448390  0.89539924  0.37218943  1
  Ti  Ti135  1  0.18399740  0.40680407  -0.01331085  1
  Ti  Ti136  1  0.50257695  0.90112455  0.11869062  1
  Ti  Ti137  1  0.29833067  0.08740710  0.87345787  1
  Ti  Ti138  1  0.10482450  0.72158166  0.87417302  1
  Ti  Ti139  1  0.87936247  0.09339007  0.61733165  1
  Ti  Ti140  1  0.79073602  0.19860759  0.48624377  1
  Ti  Ti141  1  0.79054248  0.60301964  0.25080258  1
  Ti  Ti142  1  0.00490715  -0.00349167  0.25398283  1
  Ti  Ti143  1  0.28755783  0.69941247  0.63170509  1
  Ti  Ti144  1  0.60902679  0.59447330  0.50389137  1
  Ti  Ti145  1  0.00486566  0.40097205  0.26635565  1
  Ti  Ti146  1  0.60677317  0.20542286  -0.00751719  1
  Ti  Ti147  1  0.30183894  0.09781214  0.12241079  1
  Ti  Ti148  1  0.71847100  0.09670842  0.88271651  1
  Ti  Ti149  1  0.41132866  0.41128784  0.74805986  1
  Ti  Ti150  1  0.50923884  0.90104565  0.62353732  1
  Ti  Ti151  1  0.90155646  0.71292813  0.87817892  1
  Ti  Ti152  1  -0.00282413  0.79632044  0.24683209  1
  Ti  Ti153  1  -0.00680021  0.58791277  0.24549102  1
  Ti  Ti154  1  -0.01066925  0.40221603  -0.01683883  1
  Ti  Ti155  1  0.18523372  0.39917452  0.26484450  1
  Ti  Ti156  1  0.20609632  0.18566798  0.74488982  1
  Ti  Ti157  1  0.71748619  0.89161734  0.87599945  1
  Ti  Ti158  1  0.78948031  0.00864759  0.49766996  1
  Ti  Ti159  1  0.19201464  0.59469339  0.50030785  1
  Mo  Mo160  1  0.20179056  0.79574110  0.74783540  1
  Mo  Mo161  1  0.60190125  0.40399664  0.00396691  1
  Mo  Mo162  1  0.79707535  0.59947348  0.74025252  1
  Mo  Mo163  1  0.69532997  0.08987509  0.37244155  1
  Mo  Mo164  1  0.50491801  0.09690463  0.63375165  1
  Mo  Mo165  1  0.39861863  0.60296507  0.73300004  1
  Mo  Mo166  1  0.80518959  0.00910353  0.75176667  1
  Mo  Mo167  1  0.70743561  0.10708050  0.62468406  1
  Mo  Mo168  1  0.89949385  0.10432472  0.87261760  1
  Mo  Mo169  1  0.08291632  0.50639578  0.87407780  1
  Mo  Mo170  1  0.18764091  0.59941753  0.24789627  1
  Mo  Mo171  1  0.30615986  0.88832085  0.62434259  1
  Mo  Mo172  1  0.38863817  -0.00261169  0.00026766  1
  Mo  Mo173  1  0.49759120  0.69263720  0.87261040  1
  Mo  Mo174  1  0.69419802  0.69475656  0.12397867  1
  Mo  Mo175  1  0.69952583  0.29456385  0.38349868  1
  Mo  Mo176  1  0.89592625  0.50551938  0.12257535  1
  Mo  Mo177  1  -0.00134458  0.20998775  -0.00329987  1
  Mo  Mo178  1  0.92380340  0.70458549  0.62526611  1
  Mo  Mo179  1  0.40332697  0.20707958  0.23043973  1
  Mo  Mo180  1  0.09687964  0.69422494  0.62336784  1
  Mo  Mo181  1  0.68998130  0.49367997  0.87596369  1
  Mo  Mo182  1  0.91132675  0.91098992  0.61341954  1
  Mo  Mo183  1  0.28594633  0.10195396  0.62854832  1
  Mo  Mo184  1  0.30232453  0.71669715  0.13311129  1
  Mo  Mo185  1  0.79840011  0.80836340  -0.00643374  1
  Mo  Mo186  1  0.51286952  0.07628442  0.37535805  1
  Mo  Mo187  1  0.29673022  0.31368858  0.63780418  1
  Mo  Mo188  1  0.09648198  0.29564117  0.38408722  1
  Mo  Mo189  1  0.10464049  0.89592355  0.87981039  1
  Mo  Mo190  1  0.09272370  0.50453423  0.37454405  1
  Mo  Mo191  1  0.29849239  0.30370602  0.36936334  1
  Mo  Mo192  1  0.20049362  -0.00103949  0.25853817  1
  Mo  Mo193  1  0.60440229  -0.01118172  0.51665802  1
  Mo  Mo194  1  0.01889686  0.80451851  0.75538539  1
  Mo  Mo195  1  0.70144718  0.51062855  0.37637782  1
  Mo  Mo196  1  0.18617011  0.19727588  0.49200796  1
  Mo  Mo197  1  0.09766696  0.30355250  0.12045995  1
  Mo  Mo198  1  0.79692680  0.38785444  0.74513292  1
  Mo  Mo199  1  0.60858559  0.60210847  0.25340760  1
