# generated using pymatgen
data_HfZrTaTiMo
_symmetry_space_group_name_H-M   'P 1'
_cell_length_a   15.23194721
_cell_length_b   15.19925925
_cell_length_c   16.86119587
_cell_angle_alpha   90.08066995
_cell_angle_beta   89.95024117
_cell_angle_gamma   90.18954019
_symmetry_Int_Tables_number   1
_chemical_formula_structural   HfZrTaTiMo
_chemical_formula_sum   'Hf40 Zr40 Ta40 Ti40 Mo40'
_cell_volume   3903.58151896
_cell_formula_units_Z   40
loop_
 _symmetry_equiv_pos_site_id
 _symmetry_equiv_pos_as_xyz
  1  'x, y, z'
loop_
 _atom_site_type_symbol
 _atom_site_label
 _atom_site_symmetry_multiplicity
 _atom_site_fract_x
 _atom_site_fract_y
 _atom_site_fract_z
 _atom_site_occupancy
  Hf  Hf0  1  0.19912382  0.78392981  -0.00880555  1
  Hf  Hf1  1  0.81247595  0.81071461  0.24363165  1
  Hf  Hf2  1  0.60743779  0.41764751  0.75761093  1
  Hf  Hf3  1  0.70976040  0.51641668  0.61855686  1
  Hf  Hf4  1  0.80553913  0.19037630  0.75258623  1
  Hf  Hf5  1  0.59722244  0.62560792  0.51266182  1
  Hf  Hf6  1  0.49568397  0.71198645  0.86950086  1
  Hf  Hf7  1  0.38087713  0.60406742  0.52029418  1
  Hf  Hf8  1  0.79907027  0.20467009  0.24203693  1
  Hf  Hf9  1  0.58294578  0.20976059  -0.02248161  1
  Hf  Hf10  1  0.21095028  0.00446278  0.74584927  1
  Hf  Hf11  1  0.30203738  0.48794649  0.12235421  1
  Hf  Hf12  1  0.90429877  0.89406788  0.86967319  1
  Hf  Hf13  1  0.19008536  0.38054417  0.76245196  1
  Hf  Hf14  1  0.21399034  -0.01268325  0.26470970  1
  Hf  Hf15  1  0.29616452  0.67537801  0.85614265  1
  Hf  Hf16  1  0.00920594  0.00114597  0.00314418  1
  Hf  Hf17  1  0.49271512  0.50120806  0.63025034  1
  Hf  Hf18  1  0.69139377  0.89661014  0.88785427  1
  Hf  Hf19  1  0.18178205  0.59208171  0.52688365  1
  Hf  Hf20  1  0.50209419  0.29862306  0.63041679  1
  Hf  Hf21  1  0.70274206  0.90944365  0.10814669  1
  Hf  Hf22  1  0.19965310  0.79652795  0.73715218  1
  Hf  Hf23  1  0.69733618  0.72054777  0.36845142  1
  Hf  Hf24  1  0.39262367  0.79364145  0.24622678  1
  Hf  Hf25  1  -0.02049614  0.59008031  0.74025050  1
  Hf  Hf26  1  0.21211734  0.18027848  -0.00315923  1
  Hf  Hf27  1  0.10365366  0.90188415  0.61345983  1
  Hf  Hf28  1  0.09069423  0.49898482  0.86604106  1
  Hf  Hf29  1  0.11703136  0.10861929  0.61386655  1
  Hf  Hf30  1  0.86638001  0.69082185  0.61872705  1
  Hf  Hf31  1  0.80944005  0.40167486  0.50241154  1
  Hf  Hf32  1  0.31291432  0.09111495  0.39109288  1
  Hf  Hf33  1  0.30942881  0.27852900  0.12050558  1
  Hf  Hf34  1  0.10887386  0.09961573  0.37762265  1
  Hf  Hf35  1  0.19506042  0.39011700  -0.01875430  1
  Hf  Hf36  1  0.19497757  0.59640681  0.25408445  1
  Hf  Hf37  1  0.40315221  0.18696548  0.75777294  1
  Hf  Hf38  1  0.40587037  -0.01006312  0.74540740  1
  Hf  Hf39  1  0.60090735  0.19812783  0.24341795  1
  Zr  Zr40  1  0.79990791  0.40812120  0.25355790  1
  Zr  Zr41  1  0.09654238  0.88255173  0.13040741  1
  Zr  Zr42  1  0.59934121  0.41892977  -0.01897328  1
  Zr  Zr43  1  0.91450175  0.70258659  0.12306323  1
  Zr  Zr44  1  0.00401454  0.20555296  0.49466606  1
  Zr  Zr45  1  -0.01952810  0.58541331  0.51573045  1
  Zr  Zr46  1  0.59344554  0.82271002  0.23748089  1
  Zr  Zr47  1  0.09560565  0.52015159  0.11377109  1
  Zr  Zr48  1  0.90673675  0.30279757  0.37785581  1
  Zr  Zr49  1  0.92677615  0.30053068  0.86473208  1
  Zr  Zr50  1  0.72224017  0.32042066  0.87834586  1
  Zr  Zr51  1  0.70542459  0.30666730  0.10874818  1
  Zr  Zr52  1  0.49711850  0.29365095  0.38291638  1
  Zr  Zr53  1  0.90000199  0.08713528  0.62444548  1
  Zr  Zr54  1  0.10369766  0.90296175  0.86531932  1
  Zr  Zr55  1  0.11864063  0.09385662  0.13895651  1
  Zr  Zr56  1  0.91250020  0.30030927  0.63030794  1
  Zr  Zr57  1  0.60464257  0.20661637  0.76549244  1
  Zr  Zr58  1  0.78757535  0.79473751  0.75530854  1
  Zr  Zr59  1  0.69176837  0.50500691  0.12563596  1
  Zr  Zr60  1  0.48468705  0.50361856  0.39012701  1
  Zr  Zr61  1  0.58823292  0.40651231  0.25795738  1
  Zr  Zr62  1  0.49631938  0.31734490  0.12278376  1
  Zr  Zr63  1  0.47433948  0.09952573  0.10955212  1
  Zr  Zr64  1  0.88532826  0.08727852  0.37503680  1
  Zr  Zr65  1  0.58050296  0.61299650  0.23914585  1
  Zr  Zr66  1  0.00186821  -0.01031663  0.48927642  1
  Zr  Zr67  1  0.09158566  0.69906737  0.38666235  1
  Zr  Zr68  1  0.79010902  0.00689412  0.23578239  1
  Zr  Zr69  1  0.30803830  0.90422922  0.12375598  1
  Zr  Zr70  1  0.48700600  0.71403902  0.38048062  1
  Zr  Zr71  1  0.00673086  0.41077641  0.24920827  1
  Zr  Zr72  1  0.69999212  0.51453537  0.38255205  1
  Zr  Zr73  1  0.70714964  0.92391036  0.61847576  1
  Zr  Zr74  1  0.56920366  0.61096588  0.01178129  1
  Zr  Zr75  1  0.81915710  0.20020056  -0.00345667  1
  Zr  Zr76  1  0.11427516  0.30782881  0.13352015  1
  Zr  Zr77  1  0.50794976  0.90261731  0.62470465  1
  Zr  Zr78  1  0.39935570  0.40413651  -0.02197719  1
  Zr  Zr79  1  0.00611004  0.19433392  0.25346455  1
  Ta  Ta80  1  0.69597137  0.92926919  0.38186653  1
  Ta  Ta81  1  0.79155783  0.60116265  -0.00836353  1
  Ta  Ta82  1  0.59682206  0.62348776  0.73989865  1
  Ta  Ta83  1  -0.00447841  0.40069573  0.00083812  1
  Ta  Ta84  1  0.78711961  0.18482087  0.50592820  1
  Ta  Ta85  1  0.41404219  0.19355851  0.50716925  1
  Ta  Ta86  1  0.48108646  0.52301239  0.85757684  1
  Ta  Ta87  1  0.37983672  0.38929097  0.51040127  1
  Ta  Ta88  1  0.28773186  0.70091751  0.38811669  1
  Ta  Ta89  1  0.70954978  0.09437640  0.88747593  1
  Ta  Ta90  1  0.01541216  0.20148879  0.00421456  1
  Ta  Ta91  1  0.81201948  -0.00264148  -0.00052184  1
  Ta  Ta92  1  0.08717976  0.69752450  0.85694457  1
  Ta  Ta93  1  0.60660588  0.01083579  0.76370655  1
  Ta  Ta94  1  0.29942863  0.28826169  0.63619599  1
  Ta  Ta95  1  0.31536272  0.09293583  0.61018308  1
  Ta  Ta96  1  0.89316305  0.50200005  0.11367198  1
  Ta  Ta97  1  0.80880042  0.79471437  -0.00215467  1
  Ta  Ta98  1  0.00153619  0.79387818  -0.00694286  1
  Ta  Ta99  1  -0.00823559  0.60715512  0.25214552  1
  Ta  Ta100  1  0.42399399  -0.01240280  0.49239012  1
  Ta  Ta101  1  0.21247457  -0.01306011  -0.00668000  1
  Ta  Ta102  1  0.37977930  0.39228226  0.26083489  1
  Ta  Ta103  1  0.70248880  0.70686262  0.11972781  1
  Ta  Ta104  1  0.21954690  0.21786686  0.49585207  1
  Ta  Ta105  1  0.89923514  0.89356169  0.62053404  1
  Ta  Ta106  1  0.69941708  0.29596379  0.38403607  1
  Ta  Ta107  1  0.88540876  0.49675502  0.88088086  1
  Ta  Ta108  1  0.30439329  0.89268364  0.60086987  1
  Ta  Ta109  1  0.12348489  0.31653407  0.37653283  1
  Ta  Ta110  1  0.39828164  0.79185357  0.00307413  1
  Ta  Ta111  1  0.59896311  0.39883744  0.50599682  1
  Ta  Ta112  1  -0.00781025  0.79577304  0.73618697  1
  Ta  Ta113  1  0.90930388  0.30396036  0.12087150  1
  Ta  Ta114  1  0.89105450  0.69723167  0.38043895  1
  Ta  Ta115  1  0.41427181  -0.00994486  0.26288856  1
  Ta  Ta116  1  0.40129731  0.18527852  0.25754907  1
  Ta  Ta117  1  0.39769752  0.79471296  0.74216354  1
  Ta  Ta118  1  0.78319274  0.59885701  0.76556382  1
  Ta  Ta119  1  0.48685804  0.90598685  0.88078767  1
  Ti  Ti120  1  -0.00044220  0.78633939  0.51223405  1
  Ti  Ti121  1  0.59170486  0.82457114  0.49642241  1
  Ti  Ti122  1  0.81031027  0.41036418  0.74191095  1
  Ti  Ti123  1  0.69629432  0.10816716  0.10176893  1
  Ti  Ti124  1  -0.00895843  -0.01644997  0.25207652  1
  Ti  Ti125  1  0.52276942  0.09199786  0.37899212  1
  Ti  Ti126  1  0.80099694  -0.00249570  0.75759482  1
  Ti  Ti127  1  0.89828344  0.88571721  0.38473555  1
  Ti  Ti128  1  0.90570894  0.09453086  0.12446584  1
  Ti  Ti129  1  0.78872375  0.80238347  0.49899746  1
  Ti  Ti130  1  0.69144517  0.69981911  0.88605054  1
  Ti  Ti131  1  0.28241460  0.48743507  0.38613962  1
  Ti  Ti132  1  0.20008903  0.79044045  0.25435412  1
  Ti  Ti133  1  0.21945235  0.20935928  0.26357123  1
  Ti  Ti134  1  0.60719216  0.20043301  0.50604336  1
  Ti  Ti135  1  0.58757495  0.00365308  -0.00403697  1
  Ti  Ti136  1  0.59418318  0.01048876  0.23680897  1
  Ti  Ti137  1  0.58976784  0.80405556  0.01283509  1
  Ti  Ti138  1  0.00264638  -0.00154960  0.74326310  1
  Ti  Ti139  1  0.01927696  0.40409432  0.50529473  1
  Ti  Ti140  1  0.90054582  0.50883482  0.37501963  1
  Ti  Ti141  1  0.28540388  0.48896497  0.64475614  1
  Ti  Ti142  1  0.10807753  0.10630312  0.86914680  1
  Ti  Ti143  1  0.79984932  0.60801379  0.24544646  1
  Ti  Ti144  1  0.52064407  0.09712072  0.62370970  1
  Ti  Ti145  1  0.39686755  0.39794134  0.76133558  1
  Ti  Ti146  1  0.38914227  0.59161268  0.25359994  1
  Ti  Ti147  1  0.91409780  0.09399475  0.87236803  1
  Ti  Ti148  1  0.31408369  0.07532918  0.87844852  1
  Ti  Ti149  1  0.00863417  0.79825143  0.26098728  1
  Ti  Ti150  1  0.29426977  0.68641627  0.12074812  1
  Ti  Ti151  1  0.02850914  0.19993849  0.74728306  1
  Ti  Ti152  1  0.59631012  0.81391433  0.75008936  1
  Ti  Ti153  1  0.11326014  0.30539164  0.62194387  1
  Ti  Ti154  1  0.20270983  0.59271725  -0.01130240  1
  Ti  Ti155  1  0.14034281  0.88557347  0.40380171  1
  Ti  Ti156  1  -0.00448132  0.60847544  -0.01366394  1
  Ti  Ti157  1  0.09651731  0.50165139  0.37847752  1
  Ti  Ti158  1  0.29999796  0.28134891  0.86982079  1
  Ti  Ti159  1  0.70432154  0.30139806  0.62569255  1
  Mo  Mo160  1  0.20967126  0.18636156  0.75052899  1
  Mo  Mo161  1  0.08990701  0.48396714  0.64232022  1
  Mo  Mo162  1  0.80114043  -0.00399910  0.49714266  1
  Mo  Mo163  1  0.10320979  0.28515757  0.87955341  1
  Mo  Mo164  1  0.90016887  0.69539188  0.87748806  1
  Mo  Mo165  1  0.30819195  0.88291978  0.87515339  1
  Mo  Mo166  1  0.69047339  0.51963644  0.87400655  1
  Mo  Mo167  1  0.20234352  0.40343230  0.51170677  1
  Mo  Mo168  1  0.49615599  0.71078567  0.63127386  1
  Mo  Mo169  1  0.50057449  0.90116091  0.11530733  1
  Mo  Mo170  1  -0.00157484  0.39445743  0.74606251  1
  Mo  Mo171  1  0.49289811  0.30959811  0.86105871  1
  Mo  Mo172  1  0.20597615  0.40546698  0.25522735  1
  Mo  Mo173  1  0.69555825  0.11503774  0.37122578  1
  Mo  Mo174  1  0.39617949  0.59744128  0.73215605  1
  Mo  Mo175  1  0.18648004  0.59375545  0.73240071  1
  Mo  Mo176  1  0.39347161  -0.00553104  -0.00596684  1
  Mo  Mo177  1  0.29636163  0.69454731  0.63692876  1
  Mo  Mo178  1  0.50301122  0.09421084  0.87970958  1
  Mo  Mo179  1  0.30651315  0.29678714  0.38004765  1
  Mo  Mo180  1  0.39603145  0.19597252  -0.02246202  1
  Mo  Mo181  1  0.90525875  0.90347792  0.11700586  1
  Mo  Mo182  1  0.47563279  0.50729976  0.13177828  1
  Mo  Mo183  1  0.88861126  0.49229013  0.62689985  1
  Mo  Mo184  1  0.79003697  0.60921749  0.48910589  1
  Mo  Mo185  1  0.69984341  0.11192161  0.63395450  1
  Mo  Mo186  1  0.31577216  0.88137275  0.39378628  1
  Mo  Mo187  1  0.21406452  0.00224342  0.49873903  1
  Mo  Mo188  1  0.08537555  0.69978862  0.63669144  1
  Mo  Mo189  1  0.29885257  0.09417570  0.13520282  1
  Mo  Mo190  1  0.61009573  0.02392909  0.49967958  1
  Mo  Mo191  1  0.68372664  0.72082768  0.62406229  1
  Mo  Mo192  1  0.37875326  0.60464773  -0.00291703  1
  Mo  Mo193  1  0.29391956  0.49652936  0.85886629  1
  Mo  Mo194  1  0.48152223  0.70453985  0.12469239  1
  Mo  Mo195  1  0.80939828  0.41040964  0.00054177  1
  Mo  Mo196  1  0.50800529  0.90690328  0.37420555  1
  Mo  Mo197  1  0.10733165  0.69714003  0.12472271  1
  Mo  Mo198  1  0.40682749  0.79129287  0.50482258  1
  Mo  Mo199  1  0.20573650  0.78346659  0.51656061  1
