# generated using pymatgen
data_HfZrTaTiMo
_symmetry_space_group_name_H-M   'P 1'
_cell_length_a   15.19314321
_cell_length_b   15.18424418
_cell_length_c   16.79055629
_cell_angle_alpha   89.96242910
_cell_angle_beta   89.96959115
_cell_angle_gamma   89.81079366
_symmetry_Int_Tables_number   1
_chemical_formula_structural   HfZrTaTiMo
_chemical_formula_sum   'Hf40 Zr40 Ta40 Ti40 Mo40'
_cell_volume   3873.49833439
_cell_formula_units_Z   40
loop_
 _symmetry_equiv_pos_site_id
 _symmetry_equiv_pos_as_xyz
  1  'x, y, z'
loop_
 _atom_site_type_symbol
 _atom_site_label
 _atom_site_symmetry_multiplicity
 _atom_site_fract_x
 _atom_site_fract_y
 _atom_site_fract_z
 _atom_site_occupancy
  Hf  Hf0  1  0.40993020  0.60340252  0.25379059  1
  Hf  Hf1  1  0.09310313  0.69542463  0.36158642  1
  Hf  Hf2  1  0.49484937  0.89148237  0.13046365  1
  Hf  Hf3  1  0.29291089  0.90578731  0.11864311  1
  Hf  Hf4  1  0.69999664  0.88151576  0.38100968  1
  Hf  Hf5  1  0.09114563  0.90420245  0.37883066  1
  Hf  Hf6  1  0.90518378  0.69588783  0.12066186  1
  Hf  Hf7  1  0.89661514  0.70387027  0.36453122  1
  Hf  Hf8  1  0.30227750  0.48924236  0.88622187  1
  Hf  Hf9  1  0.20225636  0.38438898  -0.00323130  1
  Hf  Hf10  1  -0.00690039  0.78889697  0.50171878  1
  Hf  Hf11  1  0.10035397  0.50329290  0.62993476  1
  Hf  Hf12  1  0.83849818  0.58664869  0.49642401  1
  Hf  Hf13  1  0.79544491  0.38668477  0.00292350  1
  Hf  Hf14  1  0.21121366  0.19691370  0.76453276  1
  Hf  Hf15  1  0.39819784  0.60903999  0.75925221  1
  Hf  Hf16  1  0.38802364  0.00913008  0.24975982  1
  Hf  Hf17  1  0.69134353  0.90054959  0.11462860  1
  Hf  Hf18  1  0.21228207  0.60538165  0.25733314  1
  Hf  Hf19  1  0.09245440  0.50389039  0.13968229  1
  Hf  Hf20  1  0.17676582  0.59849324  -0.01163474  1
  Hf  Hf21  1  0.70724210  0.49295667  0.86622600  1
  Hf  Hf22  1  0.29146876  0.10875192  0.11585979  1
  Hf  Hf23  1  0.19747872  0.58793434  0.76455759  1
  Hf  Hf24  1  0.41876500  0.80132305  -0.01961650  1
  Hf  Hf25  1  0.69276645  0.28957094  0.39319322  1
  Hf  Hf26  1  0.69705509  0.08676148  0.38954085  1
  Hf  Hf27  1  0.60716616  0.60656705  0.74827633  1
  Hf  Hf28  1  0.50016699  0.71256939  0.61742880  1
  Hf  Hf29  1  0.30853400  0.70485217  0.11462011  1
  Hf  Hf30  1  0.59414256  -0.00219285  0.75688650  1
  Hf  Hf31  1  0.19187572  0.40037236  0.49347455  1
  Hf  Hf32  1  0.58912513  -0.00444812  -0.01336889  1
  Hf  Hf33  1  0.90365725  0.09829456  0.88215379  1
  Hf  Hf34  1  0.48611067  0.10943873  0.37800635  1
  Hf  Hf35  1  0.00177417  0.41610945  -0.00780447  1
  Hf  Hf36  1  0.50314509  0.30014944  0.86422005  1
  Hf  Hf37  1  0.81208536  0.19353477  0.26124367  1
  Hf  Hf38  1  0.29565787  0.29697877  0.61353895  1
  Hf  Hf39  1  0.59769919  0.57531866  0.25669207  1
  Zr  Zr40  1  0.30248075  0.90830300  0.38062861  1
  Zr  Zr41  1  0.20641979  0.19154879  0.26509175  1
  Zr  Zr42  1  0.30896586  0.49589290  0.38038548  1
  Zr  Zr43  1  0.08962330  0.10462235  0.11882797  1
  Zr  Zr44  1  0.81720346  0.18440497  0.51216588  1
  Zr  Zr45  1  0.39225219  0.01054699  0.76532210  1
  Zr  Zr46  1  0.61254308  0.20191732  0.00175320  1
  Zr  Zr47  1  0.09980251  0.71084050  0.13322984  1
  Zr  Zr48  1  0.70659589  0.69789047  0.60969481  1
  Zr  Zr49  1  0.71144394  0.48541509  0.39377394  1
  Zr  Zr50  1  0.89147210  0.90518054  0.62090272  1
  Zr  Zr51  1  0.50586655  0.09835324  0.13048250  1
  Zr  Zr52  1  0.38608414  0.40439625  0.73622675  1
  Zr  Zr53  1  0.29221730  0.90265497  0.62293652  1
  Zr  Zr54  1  0.78877602  0.39056101  0.24710881  1
  Zr  Zr55  1  0.48960213  0.51047467  0.61017461  1
  Zr  Zr56  1  0.29416293  0.68972551  0.62095801  1
  Zr  Zr57  1  0.50693583  0.49664066  0.87203681  1
  Zr  Zr58  1  -0.00899845  0.02246545  0.49999549  1
  Zr  Zr59  1  -0.01158931  0.01352471  0.25283723  1
  Zr  Zr60  1  0.57826592  -0.00854093  0.50230342  1
  Zr  Zr61  1  0.90627346  0.68669464  0.64303877  1
  Zr  Zr62  1  0.67983988  0.48509841  0.12057604  1
  Zr  Zr63  1  0.59814644  0.78174101  0.25105448  1
  Zr  Zr64  1  0.72687871  0.49745165  0.62436516  1
  Zr  Zr65  1  0.78594065  0.00165108  0.24273866  1
  Zr  Zr66  1  0.19534868  0.79223941  0.76603942  1
  Zr  Zr67  1  0.80155152  -0.00136503  0.74885316  1
  Zr  Zr68  1  0.81026484  0.19422462  0.73123996  1
  Zr  Zr69  1  0.79973987  0.79967918  0.23843698  1
  Zr  Zr70  1  0.40180219  0.80192963  0.76984119  1
  Zr  Zr71  1  0.89347656  0.30446425  0.86920606  1
  Zr  Zr72  1  0.40023252  0.21052212  -0.00381000  1
  Zr  Zr73  1  0.10837905  0.29771431  0.13464989  1
  Zr  Zr74  1  0.30496799  0.49791898  0.12155933  1
  Zr  Zr75  1  0.09750839  0.90201859  0.62768201  1
  Zr  Zr76  1  0.19970787  0.80116367  -0.01566022  1
  Zr  Zr77  1  0.79843835  0.59235041  0.24802977  1
  Zr  Zr78  1  0.60110382  0.19148353  0.72776485  1
  Zr  Zr79  1  0.69203707  0.88800560  0.61907971  1
  Ta  Ta80  1  0.90947951  0.29678153  0.12251713  1
  Ta  Ta81  1  0.88661505  0.11132185  0.10985772  1
  Ta  Ta82  1  0.39534288  0.00636436  -0.01681105  1
  Ta  Ta83  1  0.31677509  0.29491220  0.38405968  1
  Ta  Ta84  1  0.19863871  0.19415599  0.48569185  1
  Ta  Ta85  1  0.19270954  0.00638503  -0.01474085  1
  Ta  Ta86  1  0.49752711  0.69733609  0.38580383  1
  Ta  Ta87  1  0.79161655  0.79346777  0.76202385  1
  Ta  Ta88  1  0.50803613  0.49462476  0.39830505  1
  Ta  Ta89  1  0.00941479  0.21981314  0.49278553  1
  Ta  Ta90  1  0.70139687  0.89361529  0.88465221  1
  Ta  Ta91  1  0.18748342  0.60007821  0.48831178  1
  Ta  Ta92  1  0.40300952  0.19975262  0.74906466  1
  Ta  Ta93  1  0.69850739  0.29847959  0.85936486  1
  Ta  Ta94  1  0.40957692  0.21882417  0.24983773  1
  Ta  Ta95  1  0.89918475  0.70095991  0.87532433  1
  Ta  Ta96  1  0.70231332  0.10644427  0.87347616  1
  Ta  Ta97  1  0.09565576  0.29623431  0.62546884  1
  Ta  Ta98  1  0.80467205  0.59170062  -0.00184943  1
  Ta  Ta99  1  0.51581080  0.31550101  0.13340468  1
  Ta  Ta100  1  0.90091972  0.51240380  0.85796164  1
  Ta  Ta101  1  0.09793868  0.31239536  0.36845567  1
  Ta  Ta102  1  0.08342879  0.90910571  0.86969166  1
  Ta  Ta103  1  0.00153060  0.79826549  -0.00761812  1
  Ta  Ta104  1  0.90425789  0.90529062  0.10821407  1
  Ta  Ta105  1  0.20430893  0.81035761  0.25329392  1
  Ta  Ta106  1  0.59759444  0.80059431  0.76289031  1
  Ta  Ta107  1  0.89372927  0.89844868  0.88450113  1
  Ta  Ta108  1  -0.00681340  0.42193088  0.49499720  1
  Ta  Ta109  1  0.00770153  0.40488707  0.75705369  1
  Ta  Ta110  1  0.11641402  0.10773009  0.62446025  1
  Ta  Ta111  1  0.58470587  0.19810855  0.52150802  1
  Ta  Ta112  1  0.60141591  0.39539641  0.72717328  1
  Ta  Ta113  1  0.48731047  0.90551681  0.62911239  1
  Ta  Ta114  1  0.01734185  0.20385305  0.75763847  1
  Ta  Ta115  1  0.39273057  0.79360550  0.25712493  1
  Ta  Ta116  1  0.59805773  0.39291346  0.52082900  1
  Ta  Ta117  1  0.60785213  0.19279745  0.25148965  1
  Ta  Ta118  1  0.19854015  0.79228099  0.49271110  1
  Ta  Ta119  1  0.90913070  0.32068094  0.62765029  1
  Ti  Ti120  1  0.21270763  0.39602787  0.25824182  1
  Ti  Ti121  1  0.18853130  0.00211917  0.25612008  1
  Ti  Ti122  1  -0.00066779  0.00184870  -0.00021695  1
  Ti  Ti123  1  0.19371644  0.38712797  0.76290196  1
  Ti  Ti124  1  0.00368999  0.20959195  -0.00833923  1
  Ti  Ti125  1  0.31088392  0.30355176  0.13254456  1
  Ti  Ti126  1  0.09712105  0.90470635  0.12206311  1
  Ti  Ti127  1  0.31029808  0.09739661  0.61451920  1
  Ti  Ti128  1  0.79115230  0.00962144  0.00234486  1
  Ti  Ti129  1  0.19733191  0.19776331  -0.02613136  1
  Ti  Ti130  1  0.89620870  0.31047397  0.38398450  1
  Ti  Ti131  1  0.70970245  0.29964089  0.61773532  1
  Ti  Ti132  1  0.59731683  0.59983176  -0.00503039  1
  Ti  Ti133  1  0.59232198  0.79422080  0.49351242  1
  Ti  Ti134  1  0.41791856  0.40866343  0.24989069  1
  Ti  Ti135  1  -0.00254090  0.81443656  0.24617847  1
  Ti  Ti136  1  -0.00041577  0.20453181  0.26417139  1
  Ti  Ti137  1  0.41076040  0.40215896  0.00861212  1
  Ti  Ti138  1  0.70299959  0.08114583  0.61162463  1
  Ti  Ti139  1  0.50815725  0.69126935  0.11804963  1
  Ti  Ti140  1  0.50201893  0.90260066  0.36238518  1
  Ti  Ti141  1  0.29423468  0.90637887  0.87768755  1
  Ti  Ti142  1  0.79837666  0.79584030  0.00040351  1
  Ti  Ti143  1  0.38958210  0.60860461  0.49403548  1
  Ti  Ti144  1  -0.01000001  0.40177179  0.25452646  1
  Ti  Ti145  1  0.10037745  0.70076833  0.62825386  1
  Ti  Ti146  1  -0.00657812  0.80602081  0.75691627  1
  Ti  Ti147  1  0.69739591  0.68478303  0.39200430  1
  Ti  Ti148  1  0.71110680  0.27537452  0.12828964  1
  Ti  Ti149  1  0.88814138  0.91089115  0.38508293  1
  Ti  Ti150  1  0.69667693  0.69218356  0.11268071  1
  Ti  Ti151  1  0.59815959  0.39566708  -0.00494087  1
  Ti  Ti152  1  0.39958018  0.81160439  0.49364256  1
  Ti  Ti153  1  0.40504293  0.60320407  -0.00876217  1
  Ti  Ti154  1  0.70226280  0.69616857  0.88381656  1
  Ti  Ti155  1  0.19118068  0.00781766  0.76391155  1
  Ti  Ti156  1  0.89709706  0.49735270  0.12477562  1
  Ti  Ti157  1  0.50106715  0.30712990  0.38560953  1
  Ti  Ti158  1  0.19990124  0.00707225  0.49322449  1
  Ti  Ti159  1  0.00057149  0.01069844  0.74706815  1
  Mo  Mo160  1  0.80164648  0.79358818  0.49304067  1
  Mo  Mo161  1  0.00889209  0.61084651  0.75896948  1
  Mo  Mo162  1  0.93564026  0.11971265  0.63460684  1
  Mo  Mo163  1  0.60062913  0.59976538  0.49559533  1
  Mo  Mo164  1  0.09705438  0.49624540  0.35633067  1
  Mo  Mo165  1  0.49803817  0.50314062  0.11617787  1
  Mo  Mo166  1  0.60875689  0.78706036  -0.00150795  1
  Mo  Mo167  1  0.91318238  0.49699471  0.64419443  1
  Mo  Mo168  1  0.81385917  0.38770743  0.50241389  1
  Mo  Mo169  1  0.69831865  0.09703113  0.12689487  1
  Mo  Mo170  1  0.51491605  0.69499402  0.87997675  1
  Mo  Mo171  1  0.29846556  0.10384136  0.37783833  1
  Mo  Mo172  1  0.80397267  0.19896056  -0.00379405  1
  Mo  Mo173  1  0.09268768  0.49703774  0.87139304  1
  Mo  Mo174  1  0.30175478  0.70719540  0.38159415  1
  Mo  Mo175  1  0.89896251  0.10733850  0.37697852  1
  Mo  Mo176  1  0.79839935  0.39764413  0.74738984  1
  Mo  Mo177  1  0.50574026  0.90252047  0.87522682  1
  Mo  Mo178  1  -0.00322908  0.59550290  0.24475832  1
  Mo  Mo179  1  0.49529919  0.29821847  0.62692276  1
  Mo  Mo180  1  0.79512779  -0.01100320  0.49663332  1
  Mo  Mo181  1  0.30843936  0.30322260  0.87429313  1
  Mo  Mo182  1  0.39794717  0.20025980  0.50257769  1
  Mo  Mo183  1  0.58779364  0.38114839  0.26180014  1
  Mo  Mo184  1  0.08570227  0.70276995  0.87137258  1
  Mo  Mo185  1  -0.01282365  0.60291941  -0.00352535  1
  Mo  Mo186  1  0.09394905  0.09774863  0.87954174  1
  Mo  Mo187  1  0.91946077  0.49678961  0.36453077  1
  Mo  Mo188  1  0.09980183  0.30293161  0.87562062  1
  Mo  Mo189  1  0.48683985  0.09385727  0.62238173  1
  Mo  Mo190  1  0.59307642  -0.00170228  0.25693193  1
  Mo  Mo191  1  0.30055078  0.69376454  0.88832078  1
  Mo  Mo192  1  0.39117969  0.00154232  0.50102692  1
  Mo  Mo193  1  0.28956736  0.50667045  0.60995843  1
  Mo  Mo194  1  0.09679357  0.10653937  0.37843919  1
  Mo  Mo195  1  0.30144882  0.10207979  0.88183201  1
  Mo  Mo196  1  0.01647484  0.60070687  0.49926543  1
  Mo  Mo197  1  0.79990691  0.60616848  0.76019159  1
  Mo  Mo198  1  0.50572649  0.10866186  0.87460059  1
  Mo  Mo199  1  0.40117238  0.39742820  0.50641759  1
