# generated using pymatgen
data_HfZrTaTiMo
_symmetry_space_group_name_H-M   'P 1'
_cell_length_a   15.21606241
_cell_length_b   15.21436288
_cell_length_c   16.84468575
_cell_angle_alpha   89.98331378
_cell_angle_beta   90.03075861
_cell_angle_gamma   90.11692268
_symmetry_Int_Tables_number   1
_chemical_formula_structural   HfZrTaTiMo
_chemical_formula_sum   'Hf40 Zr40 Ta40 Ti40 Mo40'
_cell_volume   3899.58130379
_cell_formula_units_Z   40
loop_
 _symmetry_equiv_pos_site_id
 _symmetry_equiv_pos_as_xyz
  1  'x, y, z'
loop_
 _atom_site_type_symbol
 _atom_site_label
 _atom_site_symmetry_multiplicity
 _atom_site_fract_x
 _atom_site_fract_y
 _atom_site_fract_z
 _atom_site_occupancy
  Hf  Hf0  1  0.81828948  0.59504039  -0.00711802  1
  Hf  Hf1  1  0.59214896  0.59481176  0.24892446  1
  Hf  Hf2  1  0.70739745  0.70399524  0.85923774  1
  Hf  Hf3  1  0.61243043  0.19100819  -0.02558416  1
  Hf  Hf4  1  0.49616163  0.88937658  0.86765940  1
  Hf  Hf5  1  0.40298664  0.60318091  0.75522088  1
  Hf  Hf6  1  0.01558776  0.60023198  0.50728211  1
  Hf  Hf7  1  0.80565530  0.00513333  0.23919518  1
  Hf  Hf8  1  0.19672168  0.01584078  0.74956392  1
  Hf  Hf9  1  0.80530547  0.38847870  0.26502568  1
  Hf  Hf10  1  0.60228440  0.00268333  0.25029209  1
  Hf  Hf11  1  0.29425719  0.31253484  0.88740942  1
  Hf  Hf12  1  0.61910705  0.01079294  0.49366136  1
  Hf  Hf13  1  0.80075450  0.59220045  0.26173755  1
  Hf  Hf14  1  0.40343886  0.00214617  0.49802463  1
  Hf  Hf15  1  0.30145114  0.71213321  0.87931550  1
  Hf  Hf16  1  0.21462153  0.62304386  0.23762586  1
  Hf  Hf17  1  0.19382371  0.21521194  0.74804637  1
  Hf  Hf18  1  0.68371485  0.69320740  0.62322793  1
  Hf  Hf19  1  -0.00017931  -0.00158800  0.02246583  1
  Hf  Hf20  1  0.59722765  -0.00827019  -0.00192226  1
  Hf  Hf21  1  0.78798594  0.17188125  0.50127764  1
  Hf  Hf22  1  0.72101377  0.29771203  0.11563438  1
  Hf  Hf23  1  -0.01078075  0.41384243  -0.00109685  1
  Hf  Hf24  1  0.79272626  0.00351242  0.00145830  1
  Hf  Hf25  1  0.41789007  0.41257441  0.50421812  1
  Hf  Hf26  1  0.79837503  0.80356985  0.49905215  1
  Hf  Hf27  1  0.29786216  0.91824042  0.87565942  1
  Hf  Hf28  1  0.20061837  0.80212401  0.74510284  1
  Hf  Hf29  1  0.68717302  0.68518451  0.38864418  1
  Hf  Hf30  1  0.10524326  0.10236523  0.89146795  1
  Hf  Hf31  1  0.50805341  0.29840294  0.12191438  1
  Hf  Hf32  1  0.91478677  0.48806100  0.38376838  1
  Hf  Hf33  1  0.70558266  0.89446408  0.36691126  1
  Hf  Hf34  1  -0.00225884  0.80134649  0.75321077  1
  Hf  Hf35  1  0.31178745  0.50052660  0.62773519  1
  Hf  Hf36  1  0.18989984  0.01496713  0.23424808  1
  Hf  Hf37  1  0.49643943  0.89393096  0.36814059  1
  Hf  Hf38  1  0.10115273  0.70356303  0.37018601  1
  Hf  Hf39  1  0.91417182  0.67766421  0.13238363  1
  Zr  Zr40  1  0.19482401  0.21047800  0.50289995  1
  Zr  Zr41  1  0.48983675  0.69075650  0.11808641  1
  Zr  Zr42  1  0.48196105  0.68786351  0.37688826  1
  Zr  Zr43  1  0.19740541  0.00641486  0.49743731  1
  Zr  Zr44  1  0.08525256  0.52263482  0.12790090  1
  Zr  Zr45  1  0.29276913  0.69506177  0.61859031  1
  Zr  Zr46  1  0.39873777  0.19493321  -0.00826826  1
  Zr  Zr47  1  0.90869012  0.28113066  0.63643971  1
  Zr  Zr48  1  0.90358029  0.69838456  0.62689768  1
  Zr  Zr49  1  0.88778675  0.08299183  0.62921881  1
  Zr  Zr50  1  0.89339540  0.87965139  0.13282162  1
  Zr  Zr51  1  0.71219933  0.50005035  0.87094735  1
  Zr  Zr52  1  0.21527001  0.41177504  0.23959237  1
  Zr  Zr53  1  0.20529099  0.41389562  0.49454206  1
  Zr  Zr54  1  0.08955529  0.90983076  0.63177036  1
  Zr  Zr55  1  -0.00561800  0.19274557  0.22990346  1
  Zr  Zr56  1  0.18648964  0.61556741  0.00013565  1
  Zr  Zr57  1  0.50327791  0.10148387  0.62660626  1
  Zr  Zr58  1  0.70308458  0.50226471  0.11330367  1
  Zr  Zr59  1  0.29362758  0.88867769  0.36125646  1
  Zr  Zr60  1  0.09110856  0.30741164  0.88421313  1
  Zr  Zr61  1  0.79267963  0.57692345  0.51230811  1
  Zr  Zr62  1  0.29623261  0.11021698  0.36708274  1
  Zr  Zr63  1  0.49351856  0.49133245  0.10495555  1
  Zr  Zr64  1  -0.00943969  -0.00115629  0.49430289  1
  Zr  Zr65  1  0.69813981  0.91081017  0.63189178  1
  Zr  Zr66  1  0.51035179  0.30611089  0.63146246  1
  Zr  Zr67  1  0.50563802  0.10132660  0.12747088  1
  Zr  Zr68  1  0.39527945  0.19721253  0.76187609  1
  Zr  Zr69  1  0.20465599  0.00997322  0.02374425  1
  Zr  Zr70  1  0.60785453  0.38917175  -0.02102686  1
  Zr  Zr71  1  0.39769639  -0.00798812  0.01419964  1
  Zr  Zr72  1  0.80904289  0.37914021  0.51544829  1
  Zr  Zr73  1  0.60901202  0.79709262  0.00725228  1
  Zr  Zr74  1  0.60492013  0.40218544  0.25522949  1
  Zr  Zr75  1  0.80057240  0.00284292  0.76404566  1
  Zr  Zr76  1  0.90001416  0.89164764  0.88085030  1
  Zr  Zr77  1  0.09639238  0.30554429  0.36411152  1
  Zr  Zr78  1  0.18803165  0.80171315  0.50575310  1
  Zr  Zr79  1  0.49844557  0.30922907  0.37678739  1
  Ta  Ta80  1  0.90065022  0.10698460  0.88583547  1
  Ta  Ta81  1  0.30208811  0.30361338  0.62744026  1
  Ta  Ta82  1  0.09958109  0.90083024  0.88005190  1
  Ta  Ta83  1  0.40038399  0.80066027  0.50949607  1
  Ta  Ta84  1  0.61777893  0.41320000  0.50238770  1
  Ta  Ta85  1  0.19663255  0.81285428  0.00877092  1
  Ta  Ta86  1  0.59981058  0.39743830  0.76085219  1
  Ta  Ta87  1  -0.00125428  0.40250706  0.24661050  1
  Ta  Ta88  1  0.19807323  0.60085065  0.75797143  1
  Ta  Ta89  1  -0.00743366  0.20477486  0.49309345  1
  Ta  Ta90  1  0.00612633  0.78287534  0.00082764  1
  Ta  Ta91  1  0.10025794  0.50382910  0.87134605  1
  Ta  Ta92  1  0.89426349  0.89389797  0.63311899  1
  Ta  Ta93  1  0.30585807  0.51007667  0.10266051  1
  Ta  Ta94  1  0.09020382  0.90632619  0.35625427  1
  Ta  Ta95  1  0.01073186  0.39564701  0.51659064  1
  Ta  Ta96  1  0.39734407  0.00460091  0.24425405  1
  Ta  Ta97  1  0.39977199  0.21121434  0.24549550  1
  Ta  Ta98  1  0.50415321  0.69777165  0.87816586  1
  Ta  Ta99  1  -0.01469403  0.20671732  0.01559660  1
  Ta  Ta100  1  0.79750062  0.39433173  0.73480106  1
  Ta  Ta101  1  0.30536234  0.30988520  0.36626444  1
  Ta  Ta102  1  0.61100975  0.20142643  0.25594336  1
  Ta  Ta103  1  0.79920287  0.19776490  0.25670069  1
  Ta  Ta104  1  0.60318022  0.79109877  0.24551219  1
  Ta  Ta105  1  -0.00351502  0.18681949  0.76013049  1
  Ta  Ta106  1  0.19710633  0.20969997  0.02175321  1
  Ta  Ta107  1  0.30044551  0.88758705  0.14173420  1
  Ta  Ta108  1  0.49171735  0.50029688  0.88319486  1
  Ta  Ta109  1  0.70661800  0.29106435  0.38299058  1
  Ta  Ta110  1  0.50193502  0.10670127  0.37053021  1
  Ta  Ta111  1  -0.00687472  0.80509468  0.49417278  1
  Ta  Ta112  1  0.90313163  0.89105226  0.35556447  1
  Ta  Ta113  1  0.32569367  0.51080689  0.37134726  1
  Ta  Ta114  1  0.89569807  0.09396021  0.37068216  1
  Ta  Ta115  1  0.11075696  0.50724812  0.63066021  1
  Ta  Ta116  1  0.08854046  0.10283970  0.36438978  1
  Ta  Ta117  1  0.08651727  0.11649636  0.62686545  1
  Ta  Ta118  1  0.69607727  0.89547841  0.86526686  1
  Ta  Ta119  1  0.80260730  0.58988153  0.73374031  1
  Ti  Ti120  1  0.20287235  0.21048467  0.22791726  1
  Ti  Ti121  1  0.00737533  0.59595962  0.74072657  1
  Ti  Ti122  1  0.49962444  0.89713699  0.62856531  1
  Ti  Ti123  1  0.78809681  0.19729953  0.75847404  1
  Ti  Ti124  1  0.48815640  0.08884102  0.87199958  1
  Ti  Ti125  1  0.71308865  0.70155712  0.12918471  1
  Ti  Ti126  1  0.40295912  0.40339358  0.75705166  1
  Ti  Ti127  1  0.89116520  0.48375411  0.12895474  1
  Ti  Ti128  1  0.59772484  0.00843025  0.75660267  1
  Ti  Ti129  1  0.58765788  0.80021827  0.50524636  1
  Ti  Ti130  1  0.89254060  0.30363090  0.86785677  1
  Ti  Ti131  1  0.80195401  0.79322928  -0.00186976  1
  Ti  Ti132  1  0.29715369  0.10678103  0.62074755  1
  Ti  Ti133  1  0.29440450  0.69305563  0.38921171  1
  Ti  Ti134  1  0.59861710  0.20825399  0.49987941  1
  Ti  Ti135  1  0.40109306  0.80000800  0.73931828  1
  Ti  Ti136  1  0.89981363  0.69738079  0.37388774  1
  Ti  Ti137  1  0.60294644  0.20162700  0.77052126  1
  Ti  Ti138  1  0.90961304  0.49601058  0.85579252  1
  Ti  Ti139  1  0.31227560  0.31563929  0.11480745  1
  Ti  Ti140  1  0.70362506  0.10737842  0.12043945  1
  Ti  Ti141  1  0.39839050  -0.00087718  0.74488410  1
  Ti  Ti142  1  0.09434606  0.70191440  0.87227781  1
  Ti  Ti143  1  0.60556081  0.60440214  -0.00712580  1
  Ti  Ti144  1  0.39698008  0.79822176  0.00677220  1
  Ti  Ti145  1  0.90134892  0.68975564  0.86170710  1
  Ti  Ti146  1  0.00909959  0.39615829  0.73942500  1
  Ti  Ti147  1  0.59469752  0.59236150  0.74788446  1
  Ti  Ti148  1  0.39679471  0.20523477  0.49861494  1
  Ti  Ti149  1  0.20393035  0.40860942  0.74899840  1
  Ti  Ti150  1  0.59389192  0.79478935  0.74394167  1
  Ti  Ti151  1  0.38904148  0.77321319  0.24473648  1
  Ti  Ti152  1  0.69859474  0.89131812  0.13414647  1
  Ti  Ti153  1  0.11408394  0.50931688  0.36657775  1
  Ti  Ti154  1  0.00080172  0.78462796  0.25000219  1
  Ti  Ti155  1  0.49798072  0.88948550  0.13861165  1
  Ti  Ti156  1  0.09490988  0.88891239  0.14070632  1
  Ti  Ti157  1  0.30286056  0.90842657  0.62447188  1
  Ti  Ti158  1  0.29476668  0.50438294  0.89017285  1
  Ti  Ti159  1  0.09659355  0.31698292  0.11928777  1
  Mo  Mo160  1  -0.00591790  0.60491081  -0.01594333  1
  Mo  Mo161  1  0.70057000  0.49238006  0.38204692  1
  Mo  Mo162  1  0.29545087  0.10398916  0.87734497  1
  Mo  Mo163  1  0.00340733  0.00563866  0.76299298  1
  Mo  Mo164  1  0.90027804  0.30871094  0.12524375  1
  Mo  Mo165  1  0.69214809  0.48765911  0.63831711  1
  Mo  Mo166  1  0.09539707  0.11017628  0.11919859  1
  Mo  Mo167  1  0.10009537  0.69634681  0.62882403  1
  Mo  Mo168  1  0.91229314  0.49017757  0.63834397  1
  Mo  Mo169  1  0.20545231  0.59459006  0.49243318  1
  Mo  Mo170  1  0.00210493  0.59217136  0.26357937  1
  Mo  Mo171  1  0.19766044  0.40547298  0.01158137  1
  Mo  Mo172  1  0.39649851  0.39990475  -0.01116212  1
  Mo  Mo173  1  0.19934841  0.80537343  0.25128912  1
  Mo  Mo174  1  0.51131526  0.50495909  0.37774980  1
  Mo  Mo175  1  0.79285693  0.78487876  0.25455062  1
  Mo  Mo176  1  0.39994239  0.40583447  0.24484697  1
  Mo  Mo177  1  0.58041088  0.58882788  0.50852447  1
  Mo  Mo178  1  0.88400356  0.10936696  0.11610046  1
  Mo  Mo179  1  0.40224423  0.60200698  0.50581350  1
  Mo  Mo180  1  0.10418853  0.30599568  0.63074337  1
  Mo  Mo181  1  0.69369993  0.28528664  0.63404569  1
  Mo  Mo182  1  0.69950038  0.09130076  0.87239048  1
  Mo  Mo183  1  0.49601733  0.70624091  0.62589750  1
  Mo  Mo184  1  0.09750333  0.71512496  0.12830507  1
  Mo  Mo185  1  0.39472533  0.58315187  0.24194170  1
  Mo  Mo186  1  0.80349569  0.20579815  -0.01257017  1
  Mo  Mo187  1  0.81151731  -0.01875640  0.48646603  1
  Mo  Mo188  1  0.30406989  0.11518532  0.13858236  1
  Mo  Mo189  1  0.90640863  0.28691459  0.38137420  1
  Mo  Mo190  1  0.69531323  0.10064586  0.37081304  1
  Mo  Mo191  1  0.71232598  0.29768488  0.86240404  1
  Mo  Mo192  1  0.51158171  0.51048820  0.63388619  1
  Mo  Mo193  1  0.49867481  0.30463743  0.86427317  1
  Mo  Mo194  1  0.68240627  0.11721757  0.63964971  1
  Mo  Mo195  1  0.81348428  0.39125786  -0.01175146  1
  Mo  Mo196  1  0.30009708  0.70570626  0.11312193  1
  Mo  Mo197  1  0.79302779  0.79326321  0.74698396  1
  Mo  Mo198  1  -0.00288951  -0.00306310  0.24105737  1
  Mo  Mo199  1  0.40035010  0.60657278  -0.01789992  1
