# generated using pymatgen
data_HfZrTaTiMo
_symmetry_space_group_name_H-M   'P 1'
_cell_length_a   15.21891909
_cell_length_b   15.21210784
_cell_length_c   16.83913790
_cell_angle_alpha   89.95007810
_cell_angle_beta   89.99839384
_cell_angle_gamma   90.05566044
_symmetry_Int_Tables_number   1
_chemical_formula_structural   HfZrTaTiMo
_chemical_formula_sum   'Hf40 Zr40 Ta40 Ti40 Mo40'
_cell_volume   3898.45645434
_cell_formula_units_Z   40
loop_
 _symmetry_equiv_pos_site_id
 _symmetry_equiv_pos_as_xyz
  1  'x, y, z'
loop_
 _atom_site_type_symbol
 _atom_site_label
 _atom_site_symmetry_multiplicity
 _atom_site_fract_x
 _atom_site_fract_y
 _atom_site_fract_z
 _atom_site_occupancy
  Hf  Hf0  1  0.09795142  0.69492254  0.89452564  1
  Hf  Hf1  1  0.80902565  0.80385472  0.51328876  1
  Hf  Hf2  1  0.71961681  0.71325940  0.36518587  1
  Hf  Hf3  1  0.71232345  0.91133635  0.38058529  1
  Hf  Hf4  1  0.27721415  0.09163929  0.61470931  1
  Hf  Hf5  1  0.20457953  0.80270714  0.50569297  1
  Hf  Hf6  1  0.08772757  0.49822280  0.62681045  1
  Hf  Hf7  1  0.29165839  0.30057016  0.62058837  1
  Hf  Hf8  1  0.20018425  0.79586429  0.21779157  1
  Hf  Hf9  1  0.20591512  0.59313958  0.75711186  1
  Hf  Hf10  1  0.01363640  0.80205127  0.50952859  1
  Hf  Hf11  1  0.90161538  0.32101990  0.61541326  1
  Hf  Hf12  1  0.10136036  0.10194431  0.35347470  1
  Hf  Hf13  1  0.79134603  0.19765764  0.50237216  1
  Hf  Hf14  1  0.18902931  0.40177329  0.00752277  1
  Hf  Hf15  1  0.58968674  0.41780742  0.76181315  1
  Hf  Hf16  1  0.10819705  0.88781769  0.36309982  1
  Hf  Hf17  1  0.60262123  0.79784635  0.00713510  1
  Hf  Hf18  1  0.69117904  0.28638046  0.12143947  1
  Hf  Hf19  1  0.50252592  0.89843930  0.37864362  1
  Hf  Hf20  1  0.20059038  0.40120188  0.25366297  1
  Hf  Hf21  1  0.79714856  0.00031585  0.23781673  1
  Hf  Hf22  1  0.38749302  -0.00348146  0.75496057  1
  Hf  Hf23  1  0.80914808  0.58748308  0.74245985  1
  Hf  Hf24  1  -0.00534495  0.21728010  -0.00349992  1
  Hf  Hf25  1  0.49037764  0.30274972  0.12614644  1
  Hf  Hf26  1  0.89645183  0.09322528  0.38282754  1
  Hf  Hf27  1  0.10411435  0.89966826  0.90127584  1
  Hf  Hf28  1  0.59143742  0.21374036  0.49739611  1
  Hf  Hf29  1  0.20063626  0.20156467  0.01070990  1
  Hf  Hf30  1  0.30695590  0.49691840  0.61825265  1
  Hf  Hf31  1  0.59299401  0.00593048  0.24599136  1
  Hf  Hf32  1  0.69031977  0.51807052  0.37058203  1
  Hf  Hf33  1  0.59483212  -0.00511363  0.74884506  1
  Hf  Hf34  1  0.30759505  0.90349498  0.37068753  1
  Hf  Hf35  1  0.49291867  0.32522048  0.62696227  1
  Hf  Hf36  1  0.39291164  0.40086535  -0.01148633  1
  Hf  Hf37  1  0.28655676  0.29764314  0.87246037  1
  Hf  Hf38  1  0.60903650  0.00431825  0.50350227  1
  Hf  Hf39  1  0.48733643  0.10351531  0.37318280  1
  Zr  Zr40  1  0.88128566  0.10747545  0.10718693  1
  Zr  Zr41  1  0.40143710  0.81485149  0.22438932  1
  Zr  Zr42  1  0.50758244  0.29059379  0.87760476  1
  Zr  Zr43  1  0.79062241  0.37777846  0.26716254  1
  Zr  Zr44  1  0.39763543  0.19853437  0.74975933  1
  Zr  Zr45  1  0.69116201  0.10532779  0.88475133  1
  Zr  Zr46  1  0.41484253  0.59323262  0.76704506  1
  Zr  Zr47  1  0.79066558  0.40735525  0.49066366  1
  Zr  Zr48  1  0.40204339  0.59632615  0.24419950  1
  Zr  Zr49  1  0.89292840  0.31290800  0.87398852  1
  Zr  Zr50  1  0.20795915  0.80486264  0.75702140  1
  Zr  Zr51  1  0.09032767  0.28802903  0.62371792  1
  Zr  Zr52  1  0.09561883  0.09201347  0.12381387  1
  Zr  Zr53  1  0.71070031  0.50972620  0.87967628  1
  Zr  Zr54  1  0.49213156  0.09930467  0.61979327  1
  Zr  Zr55  1  0.18166081  0.39950993  0.48714251  1
  Zr  Zr56  1  0.90663627  0.69246284  0.87532149  1
  Zr  Zr57  1  0.51048245  0.69251563  0.36716091  1
  Zr  Zr58  1  0.29021707  0.70072500  0.37127297  1
  Zr  Zr59  1  0.48873639  0.09848110  0.12712153  1
  Zr  Zr60  1  0.90548948  0.89304938  0.37241772  1
  Zr  Zr61  1  0.09130697  0.29932557  0.14269624  1
  Zr  Zr62  1  0.91344226  0.10404740  0.61790567  1
  Zr  Zr63  1  0.91272023  0.69719462  0.63877403  1
  Zr  Zr64  1  0.00129349  0.59537910  0.50249980  1
  Zr  Zr65  1  0.79495141  0.20285843  0.74728094  1
  Zr  Zr66  1  0.30151283  0.89643551  0.62413569  1
  Zr  Zr67  1  0.81975431  0.59084507  0.24548876  1
  Zr  Zr68  1  0.69854807  0.49332148  0.13343120  1
  Zr  Zr69  1  0.41570837  0.59879584  -0.00454120  1
  Zr  Zr70  1  -0.00205476  0.19138199  0.76283776  1
  Zr  Zr71  1  0.19141825  0.18851068  0.75471523  1
  Zr  Zr72  1  0.80704437  0.81258461  0.75410726  1
  Zr  Zr73  1  0.41757308  0.79946778  0.75657623  1
  Zr  Zr74  1  0.68074660  0.50288745  0.62091611  1
  Zr  Zr75  1  0.92460061  0.69828747  0.36518973  1
  Zr  Zr76  1  0.79193957  0.78535700  -0.01033376  1
  Zr  Zr77  1  0.30022614  0.70211378  0.89299205  1
  Zr  Zr78  1  -0.00055409  -0.01170576  0.23768701  1
  Zr  Zr79  1  0.61282710  0.80656483  0.24273173  1
  Ta  Ta80  1  0.29641764  0.50207295  0.37385537  1
  Ta  Ta81  1  0.20402553  0.60286260  0.22674192  1
  Ta  Ta82  1  0.90699737  0.69652841  0.11554140  1
  Ta  Ta83  1  0.90236344  0.89654677  0.10303545  1
  Ta  Ta84  1  0.30703072  0.90475182  0.89556443  1
  Ta  Ta85  1  0.39661753  0.19406360  -0.00202558  1
  Ta  Ta86  1  0.22642029  0.19436088  0.23919828  1
  Ta  Ta87  1  0.09956000  0.52019856  0.36414590  1
  Ta  Ta88  1  -0.00976629  0.40928550  0.25693795  1
  Ta  Ta89  1  0.69412445  0.70781351  0.63663767  1
  Ta  Ta90  1  0.60775736  0.79566724  0.50531188  1
  Ta  Ta91  1  0.41198259  0.78793739  0.50431689  1
  Ta  Ta92  1  0.49255661  0.08793291  0.88182950  1
  Ta  Ta93  1  0.29444530  0.09457164  0.37959130  1
  Ta  Ta94  1  0.58278771  0.40946353  0.47952356  1
  Ta  Ta95  1  0.31151719  0.69073150  0.62273128  1
  Ta  Ta96  1  0.17662817  0.18338586  0.49460438  1
  Ta  Ta97  1  0.01737909  0.59987080  0.22798734  1
  Ta  Ta98  1  0.80198071  0.39600872  0.00581269  1
  Ta  Ta99  1  0.51463923  0.69069332  0.12768907  1
  Ta  Ta100  1  0.38753655  0.41010763  0.76723838  1
  Ta  Ta101  1  0.50624216  0.68577580  0.62609538  1
  Ta  Ta102  1  0.31041341  0.48518035  0.12814980  1
  Ta  Ta103  1  0.89496200  0.09615591  0.89076088  1
  Ta  Ta104  1  0.41321029  0.80835259  0.01234543  1
  Ta  Ta105  1  0.70909245  0.90768014  0.62692846  1
  Ta  Ta106  1  0.88841597  0.30496730  0.12960207  1
  Ta  Ta107  1  0.58300129  0.40163996  0.26989872  1
  Ta  Ta108  1  0.68734803  0.89381767  0.87032374  1
  Ta  Ta109  1  0.70310464  0.09841612  0.62824447  1
  Ta  Ta110  1  0.28960747  0.09086647  0.88672355  1
  Ta  Ta111  1  0.11323186  0.70304445  0.63710880  1
  Ta  Ta112  1  0.02614496  0.00660312  0.49833960  1
  Ta  Ta113  1  0.50629150  0.49505425  0.12779450  1
  Ta  Ta114  1  0.29293603  0.28518255  0.37929701  1
  Ta  Ta115  1  0.59782497  0.40589052  -0.00449248  1
  Ta  Ta116  1  0.59998053  0.20284357  0.74352470  1
  Ta  Ta117  1  0.71148386  0.69748111  0.13659277  1
  Ta  Ta118  1  0.90662133  0.90600241  0.88934533  1
  Ta  Ta119  1  0.39644182  0.39783344  0.48295094  1
  Ti  Ti120  1  0.79329130  0.39840021  0.74405136  1
  Ti  Ti121  1  0.20897608  0.80043962  0.02318541  1
  Ti  Ti122  1  0.20313511  0.59088237  0.01859588  1
  Ti  Ti123  1  0.38902893  0.20193132  0.50057145  1
  Ti  Ti124  1  0.69898626  0.30055140  0.88379529  1
  Ti  Ti125  1  0.01235180  0.81434646  0.75185780  1
  Ti  Ti126  1  0.31148075  0.92693416  0.10798491  1
  Ti  Ti127  1  0.80877379  0.00540503  0.75814223  1
  Ti  Ti128  1  0.08989443  0.29605447  0.36338945  1
  Ti  Ti129  1  0.81377598  0.58739121  0.01216313  1
  Ti  Ti130  1  0.09121462  0.09059992  0.89047642  1
  Ti  Ti131  1  0.91584069  0.91698219  0.62919384  1
  Ti  Ti132  1  0.59433416  0.60491508  0.50003152  1
  Ti  Ti133  1  0.70218855  0.10964842  0.37172682  1
  Ti  Ti134  1  0.90052428  0.29176073  0.38243742  1
  Ti  Ti135  1  0.58391546  -0.00968165  0.00049540  1
  Ti  Ti136  1  -0.00444340  0.41664328  0.01375645  1
  Ti  Ti137  1  0.91361886  0.50461071  0.88318718  1
  Ti  Ti138  1  0.50995894  0.88780054  0.61834988  1
  Ti  Ti139  1  0.40488674  0.59298987  0.49438907  1
  Ti  Ti140  1  0.52972175  0.70538466  0.87391290  1
  Ti  Ti141  1  0.19273654  0.40128453  0.75304813  1
  Ti  Ti142  1  0.68798647  0.10102913  0.10844887  1
  Ti  Ti143  1  0.09080693  0.31223708  0.87176856  1
  Ti  Ti144  1  0.09883354  0.50257035  0.87800362  1
  Ti  Ti145  1  0.21315954  -0.00442509  0.23333708  1
  Ti  Ti146  1  -0.01043177  0.42149211  0.75201574  1
  Ti  Ti147  1  0.78612720  -0.00705411  -0.00590541  1
  Ti  Ti148  1  0.69058514  0.30369252  0.62513897  1
  Ti  Ti149  1  0.19880880  0.60715021  0.50000880  1
  Ti  Ti150  1  0.00622709  0.79354712  0.22420417  1
  Ti  Ti151  1  0.60156422  0.21027724  0.26226195  1
  Ti  Ti152  1  0.70225948  0.90082414  0.12032747  1
  Ti  Ti153  1  0.39633237  -0.00678050  0.50287075  1
  Ti  Ti154  1  -0.02692079  0.20086566  0.24865671  1
  Ti  Ti155  1  0.90406826  0.49905270  0.37916887  1
  Ti  Ti156  1  0.39486770  0.38663477  0.26301803  1
  Ti  Ti157  1  0.61710753  0.60284596  0.00059790  1
  Ti  Ti158  1  0.17889545  -0.00442649  0.75794275  1
  Ti  Ti159  1  0.79788500  0.60699004  0.51092484  1
  Mo  Mo160  1  0.11134070  0.69668872  0.36358942  1
  Mo  Mo161  1  0.40215227  0.20467871  0.25618771  1
  Mo  Mo162  1  0.81667858  0.80601835  0.23082142  1
  Mo  Mo163  1  0.01251563  0.59936627  0.75366420  1
  Mo  Mo164  1  0.00651567  0.58864752  0.01311849  1
  Mo  Mo165  1  0.69128115  0.29708176  0.37657927  1
  Mo  Mo166  1  0.10242325  0.69632505  0.10279148  1
  Mo  Mo167  1  0.48714354  0.50538167  0.61912356  1
  Mo  Mo168  1  0.28656191  0.49705990  0.87953800  1
  Mo  Mo169  1  0.00312038  0.20542175  0.48721952  1
  Mo  Mo170  1  0.09388859  0.08267506  0.62736153  1
  Mo  Mo171  1  0.48856465  0.50300415  0.37157918  1
  Mo  Mo172  1  0.40208211  0.00093151  -0.00509465  1
  Mo  Mo173  1  0.20059331  -0.00454475  0.49012136  1
  Mo  Mo174  1  0.09997135  0.89800092  0.10717650  1
  Mo  Mo175  1  0.60394026  0.59768228  0.24281166  1
  Mo  Mo176  1  0.30856741  0.30061997  0.12673297  1
  Mo  Mo177  1  0.90259983  0.48896146  0.12782858  1
  Mo  Mo178  1  0.50115576  0.89717162  0.87895532  1
  Mo  Mo179  1  0.80637248  -0.00161068  0.50997570  1
  Mo  Mo180  1  0.50654300  0.50271041  0.88633237  1
  Mo  Mo181  1  -0.00562679  -0.00883066  0.76587055  1
  Mo  Mo182  1  0.31093664  0.69310078  0.10688813  1
  Mo  Mo183  1  -0.00581732  0.00442567  0.00096439  1
  Mo  Mo184  1  0.09986282  0.90998147  0.63144322  1
  Mo  Mo185  1  0.20147746  0.00200863  0.00665026  1
  Mo  Mo186  1  0.38448065  0.01335040  0.24971082  1
  Mo  Mo187  1  0.60356515  0.80308047  0.74253617  1
  Mo  Mo188  1  0.00002542  0.79639756  0.00774478  1
  Mo  Mo189  1  0.60306702  0.60961606  0.75331891  1
  Mo  Mo190  1  0.48710047  0.29703181  0.37407807  1
  Mo  Mo191  1  -0.00228003  0.39842978  0.47550657  1
  Mo  Mo192  1  0.50577887  0.90286671  0.12481460  1
  Mo  Mo193  1  0.70110287  0.70060475  0.85983129  1
  Mo  Mo194  1  0.30235032  0.10702698  0.11869184  1
  Mo  Mo195  1  0.10394339  0.49434922  0.13390161  1
  Mo  Mo196  1  0.59293887  0.19932150  -0.00012518  1
  Mo  Mo197  1  0.79070727  0.19131737  0.25384915  1
  Mo  Mo198  1  0.79130809  0.20528644  -0.00355857  1
  Mo  Mo199  1  0.89528442  0.49734225  0.62236545  1
