# generated using pymatgen
data_HfZrTaTiMo
_symmetry_space_group_name_H-M   'P 1'
_cell_length_a   15.18425751
_cell_length_b   15.18215460
_cell_length_c   16.83813338
_cell_angle_alpha   89.95673156
_cell_angle_beta   89.99627318
_cell_angle_gamma   90.00037825
_symmetry_Int_Tables_number   1
_chemical_formula_structural   HfZrTaTiMo
_chemical_formula_sum   'Hf40 Zr40 Ta40 Ti40 Mo40'
_cell_volume   3881.68947972
_cell_formula_units_Z   40
loop_
 _symmetry_equiv_pos_site_id
 _symmetry_equiv_pos_as_xyz
  1  'x, y, z'
loop_
 _atom_site_type_symbol
 _atom_site_label
 _atom_site_symmetry_multiplicity
 _atom_site_fract_x
 _atom_site_fract_y
 _atom_site_fract_z
 _atom_site_occupancy
  Hf  Hf0  1  0.68621516  0.90626154  0.61759634  1
  Hf  Hf1  1  0.89814831  0.10783152  0.86874281  1
  Hf  Hf2  1  0.09485146  0.27948751  0.62304362  1
  Hf  Hf3  1  0.78946435  0.79439871  0.49758728  1
  Hf  Hf4  1  0.09926300  0.29229489  0.87770001  1
  Hf  Hf5  1  0.60734981  0.40400442  0.73755338  1
  Hf  Hf6  1  0.20995065  0.79192309  0.75568349  1
  Hf  Hf7  1  0.60545695  0.63286684  0.73562910  1
  Hf  Hf8  1  0.49751176  0.29110434  0.87240688  1
  Hf  Hf9  1  0.41444741  0.00987468  0.00621154  1
  Hf  Hf10  1  -0.00639321  0.79464237  0.49387720  1
  Hf  Hf11  1  0.29657496  0.50734418  0.61931373  1
  Hf  Hf12  1  0.80081654  0.41806785  0.75068287  1
  Hf  Hf13  1  0.50574535  0.09524418  0.37767636  1
  Hf  Hf14  1  -0.01204087  0.38296292  0.74937286  1
  Hf  Hf15  1  0.09124643  0.49928201  0.37397767  1
  Hf  Hf16  1  0.21277084  0.79401258  0.25586221  1
  Hf  Hf17  1  0.01208239  0.79365747  -0.02133294  1
  Hf  Hf18  1  0.00459065  0.59401446  -0.00088658  1
  Hf  Hf19  1  0.59317837  0.59242045  0.24009510  1
  Hf  Hf20  1  0.10544943  0.09865720  0.86865032  1
  Hf  Hf21  1  0.70459114  0.73126338  0.88745378  1
  Hf  Hf22  1  0.60222034  0.62490671  0.50677594  1
  Hf  Hf23  1  0.79690105  -0.00020608  0.74311304  1
  Hf  Hf24  1  0.08526305  0.28800439  0.37166508  1
  Hf  Hf25  1  0.80552051  0.01204224  0.50468817  1
  Hf  Hf26  1  0.30421522  0.31044677  0.13414429  1
  Hf  Hf27  1  0.30036457  0.28967921  0.37589507  1
  Hf  Hf28  1  0.19661355  0.38945341  0.50014070  1
  Hf  Hf29  1  0.29531534  0.08219389  0.37168540  1
  Hf  Hf30  1  0.69906954  0.29776758  0.11755699  1
  Hf  Hf31  1  0.41342632  -0.00811873  0.75369275  1
  Hf  Hf32  1  0.69690475  0.51618386  0.87608023  1
  Hf  Hf33  1  0.79783284  0.21926228  0.75018001  1
  Hf  Hf34  1  0.20908550  0.20131640  0.00180218  1
  Hf  Hf35  1  0.00881508  0.00865272  0.50071828  1
  Hf  Hf36  1  0.40828998  0.39203528  0.50613121  1
  Hf  Hf37  1  0.08810664  0.49455662  0.62916758  1
  Hf  Hf38  1  0.19758143  0.60648750  -0.00823425  1
  Hf  Hf39  1  0.20635273  0.78852894  0.49833317  1
  Zr  Zr40  1  0.80209397  0.60985989  0.01127839  1
  Zr  Zr41  1  0.89415151  0.68759658  0.36658376  1
  Zr  Zr42  1  0.59262627  0.60081338  0.01993796  1
  Zr  Zr43  1  0.29408022  0.09875953  0.12778875  1
  Zr  Zr44  1  0.60282709  0.38217362  0.25566066  1
  Zr  Zr45  1  0.57719689  0.81128685  0.23147660  1
  Zr  Zr46  1  0.10754132  0.09559693  0.64103569  1
  Zr  Zr47  1  0.48601359  0.47443460  0.12674121  1
  Zr  Zr48  1  0.00035598  -0.01664372  0.75985759  1
  Zr  Zr49  1  0.69146284  0.70938633  0.35682490  1
  Zr  Zr50  1  0.71423296  0.50343041  0.37688999  1
  Zr  Zr51  1  0.58690823  0.19027191  0.00987085  1
  Zr  Zr52  1  0.11168584  0.91369499  0.36991060  1
  Zr  Zr53  1  0.29277704  0.88890195  0.11089102  1
  Zr  Zr54  1  0.30838720  0.09146043  0.61512679  1
  Zr  Zr55  1  0.91517199  0.71565257  0.12801819  1
  Zr  Zr56  1  0.62009121  -0.01127008  0.00785286  1
  Zr  Zr57  1  0.00136883  0.80437779  0.25794634  1
  Zr  Zr58  1  0.50558214  0.70030938  0.88118476  1
  Zr  Zr59  1  0.70759780  0.13077324  0.38231250  1
  Zr  Zr60  1  0.70656014  0.70521659  0.13865054  1
  Zr  Zr61  1  0.49871383  0.50261261  0.87065576  1
  Zr  Zr62  1  0.69238882  0.92129304  0.36990786  1
  Zr  Zr63  1  0.30431816  0.49099104  0.86834267  1
  Zr  Zr64  1  0.10137994  0.89049496  0.62503638  1
  Zr  Zr65  1  0.09633275  0.49357150  0.86550841  1
  Zr  Zr66  1  0.40831471  0.39448897  0.73200014  1
  Zr  Zr67  1  -0.01354617  -0.00271348  -0.00233998  1
  Zr  Zr68  1  0.21774273  -0.00966740  0.75798966  1
  Zr  Zr69  1  0.20942029  0.37617330  0.74159127  1
  Zr  Zr70  1  0.49464941  0.51003337  0.38190883  1
  Zr  Zr71  1  0.41321052  0.20380405  0.24628768  1
  Zr  Zr72  1  0.09498053  0.89736326  0.12422562  1
  Zr  Zr73  1  0.40387811  -0.01833351  0.23771937  1
  Zr  Zr74  1  0.09100840  0.68726530  0.62892061  1
  Zr  Zr75  1  0.87767227  0.30146532  0.38603535  1
  Zr  Zr76  1  -0.00924409  0.78243930  0.76694835  1
  Zr  Zr77  1  0.58765458  0.20988814  0.51376029  1
  Zr  Zr78  1  0.09621342  0.29856199  0.12836236  1
  Zr  Zr79  1  0.49517774  0.89594842  0.37468796  1
  Ta  Ta80  1  -0.00546121  0.39701181  0.50188170  1
  Ta  Ta81  1  0.39234368  0.59067556  0.00641933  1
  Ta  Ta82  1  0.00795275  0.59361188  0.24082243  1
  Ta  Ta83  1  0.11530869  0.69593913  0.12661176  1
  Ta  Ta84  1  0.41045821  0.79127926  0.00648611  1
  Ta  Ta85  1  0.59552788  0.20428496  0.73826700  1
  Ta  Ta86  1  0.81118354  0.02076425  0.25266056  1
  Ta  Ta87  1  0.41257291  0.79913671  0.75097962  1
  Ta  Ta88  1  0.30782495  0.68642543  0.37819045  1
  Ta  Ta89  1  0.70676890  0.31217562  0.61475635  1
  Ta  Ta90  1  0.70211076  0.11083219  0.62326384  1
  Ta  Ta91  1  0.39560211  0.61278222  0.73870534  1
  Ta  Ta92  1  0.50317956  0.51811839  0.61867227  1
  Ta  Ta93  1  0.80313158  0.39512028  0.24619770  1
  Ta  Ta94  1  0.31553524  0.89475163  0.88930024  1
  Ta  Ta95  1  0.89760036  0.91191679  0.37308004  1
  Ta  Ta96  1  0.00195157  0.01505522  0.24835502  1
  Ta  Ta97  1  0.89637183  0.49808718  0.88709503  1
  Ta  Ta98  1  0.90880638  0.11295865  0.63178912  1
  Ta  Ta99  1  0.78456387  0.79372792  0.74200091  1
  Ta  Ta100  1  0.19423465  0.59610588  0.49746871  1
  Ta  Ta101  1  0.30604409  0.69958245  0.87908017  1
  Ta  Ta102  1  -0.01929417  0.20038360  0.24183774  1
  Ta  Ta103  1  0.87971349  0.68191085  0.62449314  1
  Ta  Ta104  1  0.31204767  0.11150231  0.87945841  1
  Ta  Ta105  1  0.51030392  0.29953179  0.38089815  1
  Ta  Ta106  1  0.60013586  0.39313044  -0.00519299  1
  Ta  Ta107  1  0.31874483  0.88013178  0.61787125  1
  Ta  Ta108  1  0.71951859  0.52705656  0.62272923  1
  Ta  Ta109  1  0.60300614  0.00557186  0.75113377  1
  Ta  Ta110  1  0.87389367  0.89121836  0.87609562  1
  Ta  Ta111  1  0.20952602  -0.01055574  0.50273550  1
  Ta  Ta112  1  0.39528912  0.19736607  0.74608814  1
  Ta  Ta113  1  0.69531188  0.11093434  0.87043521  1
  Ta  Ta114  1  0.60670010  0.41470378  0.51099562  1
  Ta  Ta115  1  0.19841846  0.40387307  0.00102767  1
  Ta  Ta116  1  0.10327409  0.49564832  0.12746544  1
  Ta  Ta117  1  0.81705739  0.58236015  0.23550958  1
  Ta  Ta118  1  0.80115473  0.83406598  0.01918606  1
  Ta  Ta119  1  -0.01247425  0.40330625  0.24690905  1
  Ti  Ti120  1  0.91288394  0.11072607  0.38185558  1
  Ti  Ti121  1  0.30157773  0.69337585  0.12081028  1
  Ti  Ti122  1  -0.00469726  0.20193435  0.00613759  1
  Ti  Ti123  1  -0.02442992  0.59130453  0.75985859  1
  Ti  Ti124  1  0.19828234  0.60047192  0.75438293  1
  Ti  Ti125  1  0.89900709  0.30293198  0.61522320  1
  Ti  Ti126  1  0.19568429  -0.00888110  -0.01308542  1
  Ti  Ti127  1  0.09420507  0.09572095  0.12222435  1
  Ti  Ti128  1  0.10266810  0.69316668  0.37416379  1
  Ti  Ti129  1  0.58176452  0.81581837  0.50406936  1
  Ti  Ti130  1  0.20265480  0.59447761  0.25329803  1
  Ti  Ti131  1  0.51821654  0.89316890  0.88166636  1
  Ti  Ti132  1  0.39373521  0.60467231  0.24395431  1
  Ti  Ti133  1  0.89494724  0.30077078  0.11402817  1
  Ti  Ti134  1  0.70531688  0.48934035  0.12305998  1
  Ti  Ti135  1  0.80770525  0.42188590  0.50757558  1
  Ti  Ti136  1  0.71876533  0.09327165  0.12572934  1
  Ti  Ti137  1  -0.01804168  0.58977622  0.49827641  1
  Ti  Ti138  1  0.39726266  0.40601117  0.26303188  1
  Ti  Ti139  1  0.41204014  -0.01017726  0.50220857  1
  Ti  Ti140  1  0.48905001  0.70320594  0.37278363  1
  Ti  Ti141  1  0.50400863  0.09699386  0.87092087  1
  Ti  Ti142  1  0.79535043  0.19472238  -0.00410820  1
  Ti  Ti143  1  0.18684149  0.18030013  0.48935810  1
  Ti  Ti144  1  0.39545839  0.38264404  -0.00260424  1
  Ti  Ti145  1  0.28857004  0.50159158  0.12750019  1
  Ti  Ti146  1  0.80428129  0.82090950  0.24433672  1
  Ti  Ti147  1  0.31024053  0.88522879  0.38014112  1
  Ti  Ti148  1  0.79739522  0.21033718  0.24660194  1
  Ti  Ti149  1  0.18315258  0.18013365  0.25365216  1
  Ti  Ti150  1  0.90535379  0.48541273  0.11140735  1
  Ti  Ti151  1  0.30565058  0.27748152  0.60891055  1
  Ti  Ti152  1  0.79407557  0.39658864  -0.00783933  1
  Ti  Ti153  1  0.89501392  0.30275096  0.88686482  1
  Ti  Ti154  1  0.19703115  0.40161742  0.25709541  1
  Ti  Ti155  1  0.29743864  0.50090864  0.38423729  1
  Ti  Ti156  1  0.89884482  0.89223656  0.62482783  1
  Ti  Ti157  1  0.50137515  0.09619963  0.62050511  1
  Ti  Ti158  1  0.60252003  0.80286650  0.02536736  1
  Ti  Ti159  1  0.60604019  0.18952475  0.23993888  1
  Mo  Mo160  1  0.69958859  0.30092609  0.88206248  1
  Mo  Mo161  1  0.39394490  0.60328830  0.50321891  1
  Mo  Mo162  1  0.69317642  0.71339190  0.62098670  1
  Mo  Mo163  1  0.21270562  0.19716855  0.75449864  1
  Mo  Mo164  1  0.49574341  0.91230339  0.62063729  1
  Mo  Mo165  1  -0.00391532  0.19766552  0.50167980  1
  Mo  Mo166  1  0.29838603  0.69456886  0.62556958  1
  Mo  Mo167  1  0.48514349  0.71957111  0.62144229  1
  Mo  Mo168  1  0.10227395  0.68875330  0.86042941  1
  Mo  Mo169  1  0.69806560  0.91327379  0.87208435  1
  Mo  Mo170  1  0.80152345  0.01472484  -0.00414498  1
  Mo  Mo171  1  0.48752684  0.69120761  0.12174531  1
  Mo  Mo172  1  0.50057861  0.30034518  0.62657926  1
  Mo  Mo173  1  0.90197338  0.11675438  0.12274696  1
  Mo  Mo174  1  0.20556502  0.79500476  -0.01211949  1
  Mo  Mo175  1  0.90263338  0.50006666  0.62548451  1
  Mo  Mo176  1  0.49717763  0.89778269  0.11781884  1
  Mo  Mo177  1  0.69736401  0.31435003  0.39529916  1
  Mo  Mo178  1  0.90639959  0.49531449  0.36924492  1
  Mo  Mo179  1  0.40087124  0.20258792  0.00451173  1
  Mo  Mo180  1  0.70752470  0.91153873  0.14306406  1
  Mo  Mo181  1  0.80112751  0.60556097  0.49563962  1
  Mo  Mo182  1  0.30379355  0.29429395  0.87795226  1
  Mo  Mo183  1  0.88797642  0.69539871  0.88113603  1
  Mo  Mo184  1  0.39177777  0.78038470  0.24475364  1
  Mo  Mo185  1  0.11788494  0.89148920  0.88050563  1
  Mo  Mo186  1  0.59307555  0.82281626  0.74989677  1
  Mo  Mo187  1  0.80361546  0.61401683  0.76032026  1
  Mo  Mo188  1  0.89347873  0.92456457  0.13495449  1
  Mo  Mo189  1  0.60576185  0.01215922  0.23562181  1
  Mo  Mo190  1  0.39226542  0.19581132  0.49073800  1
  Mo  Mo191  1  -0.00498918  0.19979025  0.75466375  1
  Mo  Mo192  1  0.50960467  0.09528876  0.13423409  1
  Mo  Mo193  1  -0.00256020  0.39507368  0.00164234  1
  Mo  Mo194  1  0.49852547  0.29511553  0.12280527  1
  Mo  Mo195  1  0.40274827  0.78853580  0.49920677  1
  Mo  Mo196  1  0.80386273  0.20941477  0.51768413  1
  Mo  Mo197  1  0.09847879  0.10298384  0.37114597  1
  Mo  Mo198  1  0.19261754  -0.00125560  0.24577714  1
  Mo  Mo199  1  0.60139531  0.00749134  0.50453421  1
