# generated using pymatgen
data_HfZrTaTiMo
_symmetry_space_group_name_H-M   'P 1'
_cell_length_a   15.20475096
_cell_length_b   15.22473239
_cell_length_c   16.87502083
_cell_angle_alpha   89.99899595
_cell_angle_beta   90.03799161
_cell_angle_gamma   90.02911072
_symmetry_Int_Tables_number   1
_chemical_formula_structural   HfZrTaTiMo
_chemical_formula_sum   'Hf40 Zr40 Ta40 Ti40 Mo40'
_cell_volume   3906.36792021
_cell_formula_units_Z   40
loop_
 _symmetry_equiv_pos_site_id
 _symmetry_equiv_pos_as_xyz
  1  'x, y, z'
loop_
 _atom_site_type_symbol
 _atom_site_label
 _atom_site_symmetry_multiplicity
 _atom_site_fract_x
 _atom_site_fract_y
 _atom_site_fract_z
 _atom_site_occupancy
  Hf  Hf0  1  0.70220070  0.49270095  0.37727663  1
  Hf  Hf1  1  -0.00092845  0.79329027  -0.00587605  1
  Hf  Hf2  1  0.91073089  0.90361370  0.37751526  1
  Hf  Hf3  1  0.50462240  0.89234710  0.37776428  1
  Hf  Hf4  1  0.11158947  0.68479220  0.11653287  1
  Hf  Hf5  1  0.70345751  0.49389345  0.86693884  1
  Hf  Hf6  1  0.12145472  0.50156279  0.36749115  1
  Hf  Hf7  1  0.10679257  0.11195087  0.63100398  1
  Hf  Hf8  1  0.80988740  0.00703304  0.25207123  1
  Hf  Hf9  1  0.50984544  0.91715092  0.61621626  1
  Hf  Hf10  1  0.61630717  0.81379424  0.74475198  1
  Hf  Hf11  1  0.10148387  0.88350859  0.63356090  1
  Hf  Hf12  1  0.18917323  0.18819444  -0.00770428  1
  Hf  Hf13  1  0.89541473  0.68976075  0.13326131  1
  Hf  Hf14  1  0.39689346  0.01359907  0.26184126  1
  Hf  Hf15  1  0.29672590  0.88945900  0.38582820  1
  Hf  Hf16  1  -0.00187705  0.58279174  -0.00929636  1
  Hf  Hf17  1  0.41110833  0.02405612  0.00728348  1
  Hf  Hf18  1  0.61651081  0.80606440  0.50569403  1
  Hf  Hf19  1  -0.01333928  0.18720683  0.24989241  1
  Hf  Hf20  1  -0.02619327  -0.00353335  0.72804336  1
  Hf  Hf21  1  0.18888511  0.20599484  0.26411121  1
  Hf  Hf22  1  0.39581304  0.21944275  0.25954249  1
  Hf  Hf23  1  0.29973251  0.90820643  0.12365648  1
  Hf  Hf24  1  0.58402540  0.38796619  0.74804379  1
  Hf  Hf25  1  0.79929928  0.39396818  0.50896613  1
  Hf  Hf26  1  0.48484953  0.70157459  0.38842334  1
  Hf  Hf27  1  0.68611160  0.28414622  0.63083339  1
  Hf  Hf28  1  0.41296096  0.22120168  0.48859675  1
  Hf  Hf29  1  0.41261612  0.81006368  -0.00661532  1
  Hf  Hf30  1  0.00094369  0.20994466  0.50713654  1
  Hf  Hf31  1  0.49409157  0.30721751  0.11565982  1
  Hf  Hf32  1  0.89125832  0.06533653  0.88210192  1
  Hf  Hf33  1  0.38391646  0.42860110  0.01329820  1
  Hf  Hf34  1  0.89191171  0.29168923  0.64302631  1
  Hf  Hf35  1  0.90806851  0.49639393  0.63997451  1
  Hf  Hf36  1  0.39768838  0.02230657  0.49675054  1
  Hf  Hf37  1  0.60941158  0.01548851  0.75581030  1
  Hf  Hf38  1  0.70554220  0.08779914  0.62057950  1
  Hf  Hf39  1  0.30339175  0.92934076  0.87822804  1
  Zr  Zr40  1  0.10660812  0.09221145  0.86067797  1
  Zr  Zr41  1  0.08967493  0.08616739  0.38203382  1
  Zr  Zr42  1  0.39594146  0.61564794  0.74523152  1
  Zr  Zr43  1  0.69543817  0.08310246  0.11283355  1
  Zr  Zr44  1  0.69329495  0.69603932  0.37160142  1
  Zr  Zr45  1  0.78933900  0.17105949  0.76298874  1
  Zr  Zr46  1  0.19453734  -0.00989762  0.50712619  1
  Zr  Zr47  1  0.58525046  0.18813702  0.00602973  1
  Zr  Zr48  1  0.19355709  0.39436076  0.51345655  1
  Zr  Zr49  1  0.40677219  0.21867196  0.75770923  1
  Zr  Zr50  1  0.48888853  0.49577905  0.38255569  1
  Zr  Zr51  1  0.90206011  0.69181094  0.37138529  1
  Zr  Zr52  1  0.79926929  0.59600064  -0.00517517  1
  Zr  Zr53  1  0.61181118  -0.00550170  0.26528098  1
  Zr  Zr54  1  0.61022266  0.01457698  0.48160948  1
  Zr  Zr55  1  0.01584243  0.38333283  0.25191701  1
  Zr  Zr56  1  0.01095699  0.79668785  0.25490474  1
  Zr  Zr57  1  0.68805773  0.27819001  0.38313658  1
  Zr  Zr58  1  0.20865310  0.78827028  0.24964818  1
  Zr  Zr59  1  0.38962634  0.42332550  0.23282761  1
  Zr  Zr60  1  0.21269278  0.19522394  0.48805126  1
  Zr  Zr61  1  0.18430373  0.59532644  0.51721387  1
  Zr  Zr62  1  0.49633577  0.51336796  0.87478023  1
  Zr  Zr63  1  0.51247221  0.91225913  0.12732769  1
  Zr  Zr64  1  0.79704824  0.79792282  -0.00731548  1
  Zr  Zr65  1  0.79776778  0.19455793  -0.01002714  1
  Zr  Zr66  1  0.69980321  0.50622552  0.12452848  1
  Zr  Zr67  1  0.60209329  0.59303178  0.51207507  1
  Zr  Zr68  1  0.40061514  0.01983412  0.73719295  1
  Zr  Zr69  1  0.90321605  0.50095628  0.36893612  1
  Zr  Zr70  1  0.09229071  0.90317586  0.86240703  1
  Zr  Zr71  1  0.89520004  0.30056941  0.37777925  1
  Zr  Zr72  1  0.21187853  0.79545829  0.75750488  1
  Zr  Zr73  1  0.49238042  0.31479265  0.89278911  1
  Zr  Zr74  1  0.11427693  0.48003831  0.12008827  1
  Zr  Zr75  1  0.90376464  0.90131172  0.12511486  1
  Zr  Zr76  1  0.20052460  0.80631802  -0.00843559  1
  Zr  Zr77  1  0.38608912  0.61398783  0.24758380  1
  Zr  Zr78  1  0.60189523  0.60773801  0.74103081  1
  Zr  Zr79  1  0.59863277  0.40050071  0.24589141  1
  Ta  Ta80  1  0.79156257  0.19887243  0.24123974  1
  Ta  Ta81  1  0.29513168  0.11152583  0.13215551  1
  Ta  Ta82  1  0.89456730  0.29996823  0.86186239  1
  Ta  Ta83  1  -0.01402060  0.79268176  0.75307525  1
  Ta  Ta84  1  0.29443773  0.32996172  0.37206854  1
  Ta  Ta85  1  0.71680497  0.70533597  0.62583369  1
  Ta  Ta86  1  0.70155841  0.88937925  0.12377553  1
  Ta  Ta87  1  0.00238979  0.59933619  0.75527595  1
  Ta  Ta88  1  0.30332851  0.29520463  0.62970226  1
  Ta  Ta89  1  0.80600461  0.39574683  -0.00402304  1
  Ta  Ta90  1  0.01495773  -0.00063928  0.00420184  1
  Ta  Ta91  1  0.90434907  0.48778836  0.12872827  1
  Ta  Ta92  1  0.29671361  0.49723805  0.86316007  1
  Ta  Ta93  1  0.50517942  0.71486858  0.87124485  1
  Ta  Ta94  1  0.28336478  0.68922907  0.39129411  1
  Ta  Ta95  1  0.89874341  0.29685089  0.11873502  1
  Ta  Ta96  1  0.30837612  0.69580234  0.10789707  1
  Ta  Ta97  1  0.01949233  0.79420553  0.49425183  1
  Ta  Ta98  1  0.41004903  0.81418719  0.75074119  1
  Ta  Ta99  1  0.70458712  0.30020100  0.11851520  1
  Ta  Ta100  1  0.20191835  0.39033940  0.75314695  1
  Ta  Ta101  1  0.80445881  0.59722101  0.51253095  1
  Ta  Ta102  1  0.27590051  0.30978202  0.12468656  1
  Ta  Ta103  1  0.49531087  0.71349831  0.61752032  1
  Ta  Ta104  1  0.29753222  0.71214600  0.61815215  1
  Ta  Ta105  1  0.00678406  0.40970084  0.50564870  1
  Ta  Ta106  1  0.59367438  0.61335575  -0.00229850  1
  Ta  Ta107  1  0.29522508  0.49757303  0.64105754  1
  Ta  Ta108  1  0.70391316  0.49171755  0.63469999  1
  Ta  Ta109  1  0.37710768  0.21388291  -0.00110393  1
  Ta  Ta110  1  0.59756686  0.19676105  0.23626732  1
  Ta  Ta111  1  0.10247738  0.68883571  0.87211482  1
  Ta  Ta112  1  0.00972679  -0.00149365  0.24779393  1
  Ta  Ta113  1  0.88604550  0.10329163  0.39032255  1
  Ta  Ta114  1  0.49167384  0.49468274  0.62632022  1
  Ta  Ta115  1  0.78709378  0.80422219  0.25446502  1
  Ta  Ta116  1  0.50576348  0.70621272  0.12090211  1
  Ta  Ta117  1  -0.00991555  -0.00522476  0.51852744  1
  Ta  Ta118  1  0.58503615  0.38621804  0.50912599  1
  Ta  Ta119  1  0.09860522  0.49135137  0.86492696  1
  Ti  Ti120  1  0.49900956  0.10579008  0.87636864  1
  Ti  Ti121  1  0.60528757  0.41270635  0.00540217  1
  Ti  Ti122  1  0.69161008  0.70534857  0.13226745  1
  Ti  Ti123  1  0.60846038  0.80641982  -0.00983121  1
  Ti  Ti124  1  0.19828153  -0.00280259  0.26050414  1
  Ti  Ti125  1  0.09090409  0.28452671  0.11559868  1
  Ti  Ti126  1  -0.00227390  0.19429906  0.75263147  1
  Ti  Ti127  1  0.90652068  0.70441622  0.62399573  1
  Ti  Ti128  1  0.10506391  0.09179004  0.12708770  1
  Ti  Ti129  1  0.30839834  0.69963172  0.88024828  1
  Ti  Ti130  1  0.19748295  0.59889232  0.74903669  1
  Ti  Ti131  1  0.21157162  0.00415120  0.73408945  1
  Ti  Ti132  1  0.01387456  0.59554761  0.24720128  1
  Ti  Ti133  1  0.10695257  0.90219822  0.12349166  1
  Ti  Ti134  1  0.70072172  0.70429866  0.86659739  1
  Ti  Ti135  1  0.38997471  0.60066897  0.51422699  1
  Ti  Ti136  1  0.09378253  0.31170176  0.64322278  1
  Ti  Ti137  1  0.21547482  0.19595168  0.75799996  1
  Ti  Ti138  1  0.09319685  0.29783751  0.86485298  1
  Ti  Ti139  1  0.30936743  0.89751349  0.61687342  1
  Ti  Ti140  1  -0.00571359  0.19828439  -0.01112285  1
  Ti  Ti141  1  0.89873634  0.69435033  0.86813620  1
  Ti  Ti142  1  0.80208372  0.39215580  0.24284365  1
  Ti  Ti143  1  -0.00488956  0.38747382  -0.00971534  1
  Ti  Ti144  1  0.79377795  0.59415490  0.24690359  1
  Ti  Ti145  1  0.09556392  0.69194704  0.63552902  1
  Ti  Ti146  1  0.80362319  0.60623869  0.74636078  1
  Ti  Ti147  1  -0.00209619  0.59912000  0.50324853  1
  Ti  Ti148  1  0.21050063  0.58785462  -0.01342682  1
  Ti  Ti149  1  0.89877002  0.48730568  0.85764158  1
  Ti  Ti150  1  0.58771681  0.60371374  0.24561551  1
  Ti  Ti151  1  0.51429855  0.12480162  0.36990031  1
  Ti  Ti152  1  0.39015296  0.40990791  0.50662369  1
  Ti  Ti153  1  0.19476179  0.38926743  -0.01630435  1
  Ti  Ti154  1  0.51396025  0.91088599  0.87367296  1
  Ti  Ti155  1  0.69363421  0.29305182  0.87145619  1
  Ti  Ti156  1  0.40779498  0.80419149  0.24561067  1
  Ti  Ti157  1  0.81239811  0.79757307  0.49652505  1
  Ti  Ti158  1  0.90627961  0.09897321  0.11191801  1
  Ti  Ti159  1  0.80019641  -0.01052112  0.49854813  1
  Mo  Mo160  1  0.79043598  0.39618450  0.75399761  1
  Mo  Mo161  1  0.28622702  0.51693598  0.11561750  1
  Mo  Mo162  1  0.59723766  0.19939467  0.50232833  1
  Mo  Mo163  1  0.51116910  0.12843511  0.62152150  1
  Mo  Mo164  1  0.30625260  0.10814816  0.87866930  1
  Mo  Mo165  1  0.49222575  0.30524090  0.62462865  1
  Mo  Mo166  1  0.20382924  0.00625345  0.01090807  1
  Mo  Mo167  1  0.89293059  0.88219100  0.61174041  1
  Mo  Mo168  1  0.70916640  0.10028464  0.37203427  1
  Mo  Mo169  1  0.59404048  0.19527261  0.76015290  1
  Mo  Mo170  1  0.10131236  0.69566851  0.37822094  1
  Mo  Mo171  1  0.10125756  0.89411345  0.37917169  1
  Mo  Mo172  1  0.48495304  0.11296729  0.13759116  1
  Mo  Mo173  1  0.90220816  0.88682949  0.87580238  1
  Mo  Mo174  1  0.09790202  0.49912167  0.64724209  1
  Mo  Mo175  1  0.69098220  0.08743270  0.88655083  1
  Mo  Mo176  1  0.20865528  0.39679092  0.24813947  1
  Mo  Mo177  1  0.49950692  0.31225979  0.37001244  1
  Mo  Mo178  1  0.71485627  0.90711150  0.87588143  1
  Mo  Mo179  1  0.20010621  0.79290481  0.50801109  1
  Mo  Mo180  1  0.09512871  0.30594490  0.38099467  1
  Mo  Mo181  1  0.80698975  0.79223392  0.75140208  1
  Mo  Mo182  1  0.79392222  -0.03302380  0.74442334  1
  Mo  Mo183  1  0.80022704  0.18601016  0.50816839  1
  Mo  Mo184  1  0.71228825  0.89412244  0.61931698  1
  Mo  Mo185  1  0.30438151  0.10837752  0.62509459  1
  Mo  Mo186  1  -0.00039907  0.39142672  0.75949386  1
  Mo  Mo187  1  0.80647572  -0.01003606  0.00712570  1
  Mo  Mo188  1  0.30171463  0.10375002  0.36817925  1
  Mo  Mo189  1  0.59667302  0.79042222  0.24845192  1
  Mo  Mo190  1  0.50221264  0.52350612  0.11395137  1
  Mo  Mo191  1  0.39908130  0.61709842  -0.01001428  1
  Mo  Mo192  1  0.20412750  0.59733107  0.24667690  1
  Mo  Mo193  1  0.30488053  0.50986233  0.38492310  1
  Mo  Mo194  1  0.60794447  -0.01281395  -0.01529379  1
  Mo  Mo195  1  0.71590836  0.89286581  0.37546494  1
  Mo  Mo196  1  0.38955845  0.40794387  0.74721735  1
  Mo  Mo197  1  0.89588362  0.09722421  0.61253387  1
  Mo  Mo198  1  0.28697246  0.30768403  0.87906862  1
  Mo  Mo199  1  0.40062424  0.80260373  0.50771593  1
