# generated using pymatgen
data_HfZrTaTiMo
_symmetry_space_group_name_H-M   'P 1'
_cell_length_a   15.21044761
_cell_length_b   15.20998353
_cell_length_c   16.81766672
_cell_angle_alpha   90.07075804
_cell_angle_beta   89.97561572
_cell_angle_gamma   89.99191891
_symmetry_Int_Tables_number   1
_chemical_formula_structural   HfZrTaTiMo
_chemical_formula_sum   'Hf40 Zr40 Ta40 Ti40 Mo40'
_cell_volume   3890.77489830
_cell_formula_units_Z   40
loop_
 _symmetry_equiv_pos_site_id
 _symmetry_equiv_pos_as_xyz
  1  'x, y, z'
loop_
 _atom_site_type_symbol
 _atom_site_label
 _atom_site_symmetry_multiplicity
 _atom_site_fract_x
 _atom_site_fract_y
 _atom_site_fract_z
 _atom_site_occupancy
  Hf  Hf0  1  0.59088813  0.18526949  -0.01855474  1
  Hf  Hf1  1  0.21967608  0.60769942  0.73065878  1
  Hf  Hf2  1  0.51100783  0.30389056  0.37397785  1
  Hf  Hf3  1  0.91391183  0.90627077  0.37554470  1
  Hf  Hf4  1  0.82395234  0.59261862  0.73585921  1
  Hf  Hf5  1  0.80486158  -0.00807753  0.24080187  1
  Hf  Hf6  1  0.49495990  0.50952932  0.12160698  1
  Hf  Hf7  1  0.19247890  0.80774115  0.74172875  1
  Hf  Hf8  1  0.49129743  0.08979308  0.12632610  1
  Hf  Hf9  1  0.70313798  0.49637977  0.37584816  1
  Hf  Hf10  1  0.70687279  0.30131717  0.36486614  1
  Hf  Hf11  1  0.59768757  0.39242171  0.75536186  1
  Hf  Hf12  1  -0.00212131  0.19328169  0.49443881  1
  Hf  Hf13  1  0.49722659  0.29257553  0.12886783  1
  Hf  Hf14  1  0.71180217  0.09369626  0.38059503  1
  Hf  Hf15  1  0.59914544  0.80118419  -0.00781966  1
  Hf  Hf16  1  0.79874632  0.60469820  0.24132433  1
  Hf  Hf17  1  0.70939286  0.49634521  0.87262063  1
  Hf  Hf18  1  0.81294917  0.58963519  0.51267547  1
  Hf  Hf19  1  0.39711663  0.19382196  0.25967500  1
  Hf  Hf20  1  0.61240781  0.59392427  0.72948814  1
  Hf  Hf21  1  0.59813977  0.79159171  0.27174656  1
  Hf  Hf22  1  0.80305639  0.20985590  0.49607776  1
  Hf  Hf23  1  0.28418639  0.28901150  0.87036195  1
  Hf  Hf24  1  0.49016336  0.50782743  0.86797006  1
  Hf  Hf25  1  0.80357707  0.19067298  0.23379201  1
  Hf  Hf26  1  0.49981190  0.09412136  0.38722160  1
  Hf  Hf27  1  0.40100900  0.41242633  0.26409530  1
  Hf  Hf28  1  0.19882557  0.40160811  0.49077420  1
  Hf  Hf29  1  0.18925022  0.40817249  0.73493206  1
  Hf  Hf30  1  0.58493797  0.18671656  0.77357189  1
  Hf  Hf31  1  0.79327170  0.79785486  0.00823582  1
  Hf  Hf32  1  0.30551132  0.91252283  0.12932895  1
  Hf  Hf33  1  0.49360300  0.69611538  0.63227310  1
  Hf  Hf34  1  0.48072306  0.88989173  0.62350691  1
  Hf  Hf35  1  0.09696722  0.10269194  0.62702735  1
  Hf  Hf36  1  0.49424244  0.70916343  0.84359526  1
  Hf  Hf37  1  0.19366771  0.19952030  0.49790843  1
  Hf  Hf38  1  0.20420825  0.00982881  0.74529091  1
  Hf  Hf39  1  0.50800788  0.88671997  0.12939694  1
  Zr  Zr40  1  0.59828748  -0.00675488  0.26175165  1
  Zr  Zr41  1  0.09287321  0.31325283  0.87768801  1
  Zr  Zr42  1  0.79825231  0.79639217  0.50562101  1
  Zr  Zr43  1  -0.01242200  0.41619340  0.74738812  1
  Zr  Zr44  1  0.38892265  0.40197682  0.74772246  1
  Zr  Zr45  1  0.48651565  0.29672653  0.62402841  1
  Zr  Zr46  1  0.90509199  0.90098804  0.11430447  1
  Zr  Zr47  1  0.40008598  0.60505034  0.26729751  1
  Zr  Zr48  1  0.39159497  0.20400865  0.49103438  1
  Zr  Zr49  1  0.19855652  0.41177978  0.26331779  1
  Zr  Zr50  1  0.39358500  0.38994515  -0.00515735  1
  Zr  Zr51  1  0.02455774  0.61725444  0.74879455  1
  Zr  Zr52  1  -0.01664427  0.40011851  0.48802977  1
  Zr  Zr53  1  0.60978899  -0.01700990  0.50465101  1
  Zr  Zr54  1  0.79513574  0.19224813  0.00718827  1
  Zr  Zr55  1  0.59611127  0.61030392  -0.00540456  1
  Zr  Zr56  1  0.20013844  0.81748889  0.00741216  1
  Zr  Zr57  1  0.28630443  0.50032731  0.88688923  1
  Zr  Zr58  1  0.00716690  0.40492609  0.24698848  1
  Zr  Zr59  1  0.28936433  0.50380007  0.11198711  1
  Zr  Zr60  1  0.89976681  0.89289629  0.89121123  1
  Zr  Zr61  1  0.60355283  -0.00281079  0.74146056  1
  Zr  Zr62  1  0.90073741  0.50456462  0.36364776  1
  Zr  Zr63  1  0.11424152  0.10855124  0.87801713  1
  Zr  Zr64  1  0.28856200  0.29500968  0.13384301  1
  Zr  Zr65  1  0.08985367  0.52077725  0.60020341  1
  Zr  Zr66  1  -0.00758688  -0.00151362  0.75178383  1
  Zr  Zr67  1  0.29398231  0.70223724  0.87220617  1
  Zr  Zr68  1  0.30518389  0.91130477  0.87498339  1
  Zr  Zr69  1  0.49933218  0.10045349  0.61467393  1
  Zr  Zr70  1  0.69339642  0.28100433  0.63911174  1
  Zr  Zr71  1  0.88758951  0.30743616  0.63468651  1
  Zr  Zr72  1  0.59629724  0.39136028  -0.00802628  1
  Zr  Zr73  1  0.80056174  0.60623566  0.01071721  1
  Zr  Zr74  1  0.09900839  0.52212549  0.89592841  1
  Zr  Zr75  1  0.90315668  0.49562031  0.89305251  1
  Zr  Zr76  1  0.39696986  0.80100065  0.27590308  1
  Zr  Zr77  1  0.19780716  0.61629321  0.24694322  1
  Zr  Zr78  1  0.90371163  0.08746345  0.89678935  1
  Zr  Zr79  1  0.71362140  0.70941597  0.85113100  1
  Ta  Ta80  1  0.40006999  0.40558932  0.48960230  1
  Ta  Ta81  1  0.09916177  0.89813530  0.14530470  1
  Ta  Ta82  1  0.91760976  0.69830357  0.87883187  1
  Ta  Ta83  1  0.61064880  0.39824402  0.50834056  1
  Ta  Ta84  1  0.60042883  0.40487472  0.24391184  1
  Ta  Ta85  1  0.08914467  0.08364027  0.36524102  1
  Ta  Ta86  1  0.28338341  0.09752081  0.37363882  1
  Ta  Ta87  1  0.61455687  0.59814721  0.51831954  1
  Ta  Ta88  1  0.71649085  0.08473434  0.61745896  1
  Ta  Ta89  1  0.31063451  0.51048306  0.60390483  1
  Ta  Ta90  1  0.71060517  0.89110670  0.38027728  1
  Ta  Ta91  1  0.18562718  -0.00408223  0.49543872  1
  Ta  Ta92  1  0.79874670  0.39194221  0.01674904  1
  Ta  Ta93  1  0.69018234  0.08295049  0.11989227  1
  Ta  Ta94  1  0.70228500  0.90400495  0.86647701  1
  Ta  Ta95  1  0.09811320  0.28388886  0.36363537  1
  Ta  Ta96  1  0.89675078  0.29571590  0.88023610  1
  Ta  Ta97  1  0.90701641  0.29635220  0.12684157  1
  Ta  Ta98  1  0.09753731  0.90334325  0.88084187  1
  Ta  Ta99  1  0.39580002  0.18756529  -0.01223564  1
  Ta  Ta100  1  -0.00261615  0.20233650  0.75235581  1
  Ta  Ta101  1  0.59471405  0.59815867  0.25233962  1
  Ta  Ta102  1  0.30137800  0.09500886  0.61786969  1
  Ta  Ta103  1  0.69479163  0.49971404  0.12455472  1
  Ta  Ta104  1  0.31219801  0.71309262  0.12640388  1
  Ta  Ta105  1  0.70829440  0.29330172  0.87206963  1
  Ta  Ta106  1  0.01217548  0.20288301  0.01452106  1
  Ta  Ta107  1  0.40934375  0.80218551  -0.00219145  1
  Ta  Ta108  1  0.79927575  0.17692696  0.76335555  1
  Ta  Ta109  1  0.92181367  0.70758663  0.61979071  1
  Ta  Ta110  1  0.10769510  0.53453705  0.39069047  1
  Ta  Ta111  1  0.39809034  0.61682370  0.00088990  1
  Ta  Ta112  1  0.79757575  0.39688776  0.22952876  1
  Ta  Ta113  1  0.89926732  0.09949924  0.62319205  1
  Ta  Ta114  1  0.59379251  0.78670323  0.49700357  1
  Ta  Ta115  1  0.68391290  0.70848128  0.13482889  1
  Ta  Ta116  1  0.39689568  -0.00580801  0.26983670  1
  Ta  Ta117  1  0.27958745  0.70309694  0.39118043  1
  Ta  Ta118  1  0.90391059  0.50208077  0.12314506  1
  Ta  Ta119  1  0.51257178  0.50633720  0.39060969  1
  Ti  Ti120  1  0.29417395  0.30014236  0.36919299  1
  Ti  Ti121  1  0.10869138  0.09524263  0.13042354  1
  Ti  Ti122  1  0.40017302  0.00098997  -0.00627491  1
  Ti  Ti123  1  0.20420545  0.81268002  0.50449991  1
  Ti  Ti124  1  0.18739373  0.62708995  0.01324110  1
  Ti  Ti125  1  0.69204364  0.29318113  0.12547309  1
  Ti  Ti126  1  0.72243053  0.47606223  0.62737853  1
  Ti  Ti127  1  0.09081157  0.30067430  0.62513678  1
  Ti  Ti128  1  0.20144692  0.00125719  0.25462204  1
  Ti  Ti129  1  0.80175564  0.79823080  0.24873729  1
  Ti  Ti130  1  0.80151872  -0.01601240  0.74651522  1
  Ti  Ti131  1  0.49843557  0.49573696  0.61662772  1
  Ti  Ti132  1  0.20355868  0.19681551  0.00840269  1
  Ti  Ti133  1  0.70546123  0.68989524  0.37893090  1
  Ti  Ti134  1  0.91360661  0.70301068  0.13115133  1
  Ti  Ti135  1  0.50219514  0.89648846  0.85884550  1
  Ti  Ti136  1  0.90618274  0.09727797  0.37085045  1
  Ti  Ti137  1  0.38598624  0.18659175  0.75989864  1
  Ti  Ti138  1  0.01166094  0.80645528  0.49734399  1
  Ti  Ti139  1  0.00112792  0.39660223  0.01514919  1
  Ti  Ti140  1  0.09706045  0.50643430  0.11494831  1
  Ti  Ti141  1  0.29042468  0.29657799  0.62564800  1
  Ti  Ti142  1  0.00637792  0.18878438  0.23780804  1
  Ti  Ti143  1  0.01242686  0.78738364  0.00561047  1
  Ti  Ti144  1  0.90826674  0.70551872  0.37273861  1
  Ti  Ti145  1  0.29841922  0.10119534  0.13264722  1
  Ti  Ti146  1  0.30829283  0.72258859  0.61341369  1
  Ti  Ti147  1  0.00808082  0.61233913  0.24809717  1
  Ti  Ti148  1  0.89301174  0.90982090  0.61304394  1
  Ti  Ti149  1  0.40664910  0.61196132  0.49218515  1
  Ti  Ti150  1  0.09091820  0.90214159  0.61998883  1
  Ti  Ti151  1  -0.00668355  0.80656470  0.74810727  1
  Ti  Ti152  1  0.91144890  0.08859823  0.10988566  1
  Ti  Ti153  1  0.90091454  0.29394288  0.35493371  1
  Ti  Ti154  1  0.59689465  -0.00793500  -0.01041141  1
  Ti  Ti155  1  0.10602977  0.88911807  0.35789730  1
  Ti  Ti156  1  0.60542490  0.19984043  0.50054805  1
  Ti  Ti157  1  0.38124504  -0.01772573  0.48821419  1
  Ti  Ti158  1  0.60340897  0.19417050  0.24843374  1
  Ti  Ti159  1  0.39850236  0.00047559  0.74772357  1
  Mo  Mo160  1  0.09641521  0.72004923  0.87806146  1
  Mo  Mo161  1  0.49830766  0.89520700  0.39173013  1
  Mo  Mo162  1  0.69673358  0.89456745  0.13049601  1
  Mo  Mo163  1  0.10195093  0.70746183  0.13142936  1
  Mo  Mo164  1  0.20571718  0.01374574  0.01091005  1
  Mo  Mo165  1  0.09902619  0.29435008  0.12880384  1
  Mo  Mo166  1  0.09182034  0.71589496  0.37762030  1
  Mo  Mo167  1  0.49419169  0.70029322  0.12704093  1
  Mo  Mo168  1  0.81671544  0.80334099  0.73781708  1
  Mo  Mo169  1  -0.00141243  0.62206531  0.49065385  1
  Mo  Mo170  1  0.70304726  0.88722632  0.62910910  1
  Mo  Mo171  1  0.79365412  0.39564948  0.49636177  1
  Mo  Mo172  1  0.00144919  0.00389576  0.24373474  1
  Mo  Mo173  1  0.10564444  0.72224769  0.61543343  1
  Mo  Mo174  1  0.03360526  -0.00585390  0.00941562  1
  Mo  Mo175  1  -0.00628146  0.79476370  0.25141189  1
  Mo  Mo176  1  0.39535494  0.80025718  0.48679756  1
  Mo  Mo177  1  0.79784569  0.38763305  0.76050851  1
  Mo  Mo178  1  0.39083548  0.80754815  0.74462821  1
  Mo  Mo179  1  0.30029621  0.10041399  0.87426378  1
  Mo  Mo180  1  0.20191403  0.80516089  0.24866777  1
  Mo  Mo181  1  0.20062672  0.20852900  0.73387734  1
  Mo  Mo182  1  0.29047121  0.91023314  0.62036660  1
  Mo  Mo183  1  0.90416839  0.50300590  0.62182334  1
  Mo  Mo184  1  0.48499728  0.07864192  0.87569554  1
  Mo  Mo185  1  0.30158940  0.50954134  0.39705358  1
  Mo  Mo186  1  0.81160163  0.00068812  0.49882491  1
  Mo  Mo187  1  0.19457061  0.19232395  0.25522793  1
  Mo  Mo188  1  0.18119406  0.38225171  0.01188131  1
  Mo  Mo189  1  0.70367603  0.08481466  0.87665095  1
  Mo  Mo190  1  0.39824385  0.59595678  0.73304484  1
  Mo  Mo191  1  0.61039075  0.80578290  0.73846160  1
  Mo  Mo192  1  0.00240144  -0.00257944  0.50043493  1
  Mo  Mo193  1  0.70722116  0.70388308  0.63371281  1
  Mo  Mo194  1  0.77480684  -0.00782966  0.00815749  1
  Mo  Mo195  1  0.20600634  0.62123923  0.51152297  1
  Mo  Mo196  1  -0.00059181  0.60986895  0.01474705  1
  Mo  Mo197  1  0.49093155  0.29164713  0.87161743  1
  Mo  Mo198  1  0.28685644  0.90519916  0.37555191  1
  Mo  Mo199  1  0.51100048  0.68961057  0.39136381  1
