# generated using pymatgen
data_HfZrTaTiMo
_symmetry_space_group_name_H-M   'P 1'
_cell_length_a   15.21641777
_cell_length_b   15.21387918
_cell_length_c   16.83773125
_cell_angle_alpha   90.02354558
_cell_angle_beta   90.00981767
_cell_angle_gamma   90.08811247
_symmetry_Int_Tables_number   1
_chemical_formula_structural   HfZrTaTiMo
_chemical_formula_sum   'Hf40 Zr40 Ta40 Ti40 Mo40'
_cell_volume   3897.94227226
_cell_formula_units_Z   40
loop_
 _symmetry_equiv_pos_site_id
 _symmetry_equiv_pos_as_xyz
  1  'x, y, z'
loop_
 _atom_site_type_symbol
 _atom_site_label
 _atom_site_symmetry_multiplicity
 _atom_site_fract_x
 _atom_site_fract_y
 _atom_site_fract_z
 _atom_site_occupancy
  Hf  Hf0  1  0.69300423  0.10262147  0.88453085  1
  Hf  Hf1  1  0.09983331  0.49380506  0.89154056  1
  Hf  Hf2  1  0.09844859  0.89261312  0.61273626  1
  Hf  Hf3  1  0.90137288  0.28830418  0.89726543  1
  Hf  Hf4  1  0.10163116  0.29800402  0.63135469  1
  Hf  Hf5  1  -0.00363796  0.19092180  0.74811461  1
  Hf  Hf6  1  0.10410763  0.49846907  0.63490852  1
  Hf  Hf7  1  -0.00936851  0.59778034  0.75420928  1
  Hf  Hf8  1  0.79099519  0.18175733  0.49574645  1
  Hf  Hf9  1  0.88772156  0.29332940  0.36862690  1
  Hf  Hf10  1  0.49856194  0.30423860  0.37277218  1
  Hf  Hf11  1  0.50243937  0.10140763  0.38589868  1
  Hf  Hf12  1  0.09848001  0.69205777  0.37294516  1
  Hf  Hf13  1  0.40253732  0.20428936  0.74373281  1
  Hf  Hf14  1  0.90627235  0.09667703  0.36169834  1
  Hf  Hf15  1  0.90145396  0.08979287  0.88948976  1
  Hf  Hf16  1  0.10933666  0.69796821  0.62809471  1
  Hf  Hf17  1  0.79733709  0.79722776  0.75701470  1
  Hf  Hf18  1  0.59814725  0.19591902  0.01551352  1
  Hf  Hf19  1  0.92858405  0.89360950  0.13220333  1
  Hf  Hf20  1  -0.00045862  0.38922119  0.75925570  1
  Hf  Hf21  1  0.19211816  0.81008094  0.00862837  1
  Hf  Hf22  1  0.30354941  0.28586534  0.88302277  1
  Hf  Hf23  1  -0.01766279  0.38984066  0.23014830  1
  Hf  Hf24  1  0.20077272  0.19671707  0.25007242  1
  Hf  Hf25  1  0.79992751  0.80585385  0.48045857  1
  Hf  Hf26  1  0.49680983  0.31776554  0.12646153  1
  Hf  Hf27  1  0.81030906  0.20688767  0.22491624  1
  Hf  Hf28  1  0.50767254  0.31858904  0.62098807  1
  Hf  Hf29  1  0.21716797  0.17278587  0.00506613  1
  Hf  Hf30  1  -0.00501400  0.60119173  0.23547088  1
  Hf  Hf31  1  0.51088265  0.89700835  0.60994118  1
  Hf  Hf32  1  0.89235374  0.70727450  0.62489780  1
  Hf  Hf33  1  0.60594210  0.40566642  0.76922908  1
  Hf  Hf34  1  0.72050896  0.90424918  0.61950672  1
  Hf  Hf35  1  0.40016206  0.41061057  0.76495569  1
  Hf  Hf36  1  0.81000348  0.78612708  0.24251678  1
  Hf  Hf37  1  0.30597137  0.89760263  0.60485821  1
  Hf  Hf38  1  -0.00143568  -0.00670266  0.75484112  1
  Hf  Hf39  1  0.70955758  0.29917379  0.62799420  1
  Zr  Zr40  1  0.79691809  0.39566120  0.77184233  1
  Zr  Zr41  1  0.20006982  0.40835001  0.23875371  1
  Zr  Zr42  1  0.29844326  0.30807794  0.37296146  1
  Zr  Zr43  1  0.89409754  0.50052147  0.37109661  1
  Zr  Zr44  1  0.00675274  0.80417194  0.76213504  1
  Zr  Zr45  1  0.89110237  0.70366048  0.88911527  1
  Zr  Zr46  1  0.90002704  0.50595512  0.89753320  1
  Zr  Zr47  1  -0.00775437  0.38743344  0.50474592  1
  Zr  Zr48  1  0.59233174  0.61163516  0.75386979  1
  Zr  Zr49  1  0.30384432  0.70684107  0.36227948  1
  Zr  Zr50  1  0.67178354  0.50926741  0.12698092  1
  Zr  Zr51  1  0.49492314  0.52026076  0.62062230  1
  Zr  Zr52  1  0.79778825  0.00297170  0.02475613  1
  Zr  Zr53  1  0.40064361  0.80955423  0.00040694  1
  Zr  Zr54  1  0.19301789  0.80838292  0.24128736  1
  Zr  Zr55  1  0.08438614  0.29904692  0.36523393  1
  Zr  Zr56  1  0.69696542  0.31220770  0.13030956  1
  Zr  Zr57  1  0.29337164  0.49819588  0.63405900  1
  Zr  Zr58  1  0.88590693  0.48215908  0.62690338  1
  Zr  Zr59  1  0.78267100  0.59797618  0.49747663  1
  Zr  Zr60  1  0.80189923  -0.00690162  0.76146837  1
  Zr  Zr61  1  0.30467803  0.10062630  0.39880708  1
  Zr  Zr62  1  0.40351032  0.00076738  0.74365935  1
  Zr  Zr63  1  0.63645937  0.00821229  0.49618811  1
  Zr  Zr64  1  0.50096680  0.71120883  0.35997374  1
  Zr  Zr65  1  0.20160888  -0.01440789  0.74594962  1
  Zr  Zr66  1  0.09672704  0.28760828  0.11619040  1
  Zr  Zr67  1  0.00261705  0.59475365  0.50205040  1
  Zr  Zr68  1  0.80281139  0.00214820  0.23300335  1
  Zr  Zr69  1  0.09611139  0.50346576  0.10269076  1
  Zr  Zr70  1  0.30850175  0.70002139  0.13263931  1
  Zr  Zr71  1  0.30922086  0.69625288  0.62338626  1
  Zr  Zr72  1  0.39404202  0.40808522  0.49718847  1
  Zr  Zr73  1  0.19058105  0.21388834  0.49961301  1
  Zr  Zr74  1  0.30528650  0.93032637  0.12686489  1
  Zr  Zr75  1  0.50733316  0.11052866  0.60884877  1
  Zr  Zr76  1  0.11388966  0.90146648  0.38571254  1
  Zr  Zr77  1  0.10741953  0.06939632  0.13448718  1
  Zr  Zr78  1  0.88246712  0.08205679  0.61776810  1
  Zr  Zr79  1  0.50443875  0.90937218  0.87916074  1
  Ta  Ta80  1  0.10122130  0.09183440  0.61588075  1
  Ta  Ta81  1  0.60687381  0.00771724  0.74695228  1
  Ta  Ta82  1  0.40880894  0.60952238  -0.00571472  1
  Ta  Ta83  1  0.09590486  0.09711628  0.37402720  1
  Ta  Ta84  1  0.69076622  0.30520283  0.35659112  1
  Ta  Ta85  1  0.39162927  0.61703089  0.77327039  1
  Ta  Ta86  1  0.78495949  0.59616466  0.75451319  1
  Ta  Ta87  1  0.51213541  0.70186851  0.13638916  1
  Ta  Ta88  1  0.68151019  0.89008689  0.13653398  1
  Ta  Ta89  1  0.30251393  0.51144222  0.36814982  1
  Ta  Ta90  1  0.30803182  0.29701243  0.11959466  1
  Ta  Ta91  1  -0.01002601  -0.00482295  0.49521068  1
  Ta  Ta92  1  0.68651778  0.49905261  0.62144294  1
  Ta  Ta93  1  0.51717400  0.50744459  0.37681274  1
  Ta  Ta94  1  0.59998982  0.79311361  0.00736377  1
  Ta  Ta95  1  0.59839687  0.81217759  0.75222640  1
  Ta  Ta96  1  0.79797956  0.19747884  0.75522062  1
  Ta  Ta97  1  0.70042641  0.10390187  0.35185371  1
  Ta  Ta98  1  0.11441066  0.09109456  0.87668147  1
  Ta  Ta99  1  0.79409375  0.80218164  0.01440415  1
  Ta  Ta100  1  0.19975480  0.59779307  0.23849566  1
  Ta  Ta101  1  -0.00657985  0.79848189  0.49445815  1
  Ta  Ta102  1  0.32248446  0.90493594  0.39109180  1
  Ta  Ta103  1  0.50679027  0.29966603  0.88587148  1
  Ta  Ta104  1  0.38961831  0.02578655  -0.00708016  1
  Ta  Ta105  1  0.59288377  0.19379730  0.24039754  1
  Ta  Ta106  1  0.70355917  0.89728110  0.88884783  1
  Ta  Ta107  1  0.78232716  0.39442977  -0.00902761  1
  Ta  Ta108  1  0.68514884  0.70204379  0.88189535  1
  Ta  Ta109  1  0.29642297  0.50632024  0.88736571  1
  Ta  Ta110  1  0.10873908  0.69750502  0.87937179  1
  Ta  Ta111  1  0.29767740  0.10324243  0.60708919  1
  Ta  Ta112  1  0.01880914  -0.01787591  -0.00830721  1
  Ta  Ta113  1  0.69653200  0.89410559  0.35422823  1
  Ta  Ta114  1  0.88470941  0.49506251  0.10410076  1
  Ta  Ta115  1  0.49481061  0.11170463  0.87687809  1
  Ta  Ta116  1  0.69775080  0.67948048  0.35273149  1
  Ta  Ta117  1  0.20203703  0.19024023  0.74901239  1
  Ta  Ta118  1  0.40254644  0.40633753  -0.00629792  1
  Ta  Ta119  1  0.78111828  0.38924713  0.49158259  1
  Ti  Ti120  1  0.22051883  0.00288411  0.26413215  1
  Ti  Ti121  1  0.90061840  0.69552588  0.36761954  1
  Ti  Ti122  1  0.30853299  0.49763440  0.11312003  1
  Ti  Ti123  1  0.39734422  0.19281922  0.24817198  1
  Ti  Ti124  1  0.69859460  0.69531877  0.13671675  1
  Ti  Ti125  1  0.39544734  0.80231851  0.75906627  1
  Ti  Ti126  1  0.48355354  0.09210697  0.12854963  1
  Ti  Ti127  1  0.40074011  0.40837012  0.24865723  1
  Ti  Ti128  1  0.20766540  0.78871538  0.49309655  1
  Ti  Ti129  1  0.90228787  0.68883215  0.11137944  1
  Ti  Ti130  1  0.58117805  -0.00575169  0.24609824  1
  Ti  Ti131  1  0.00174172  0.79517421  -0.00482170  1
  Ti  Ti132  1  0.29997740  0.30151453  0.62571685  1
  Ti  Ti133  1  0.40573122  0.61329619  0.48884462  1
  Ti  Ti134  1  0.49860164  0.70933355  0.62120112  1
  Ti  Ti135  1  0.20766285  0.59404708  0.49347748  1
  Ti  Ti136  1  0.00329159  0.18182760  0.00913363  1
  Ti  Ti137  1  0.59225640  -0.00364100  0.01544246  1
  Ti  Ti138  1  0.19264768  0.41131593  0.49301670  1
  Ti  Ti139  1  0.28691744  0.90427162  0.87673308  1
  Ti  Ti140  1  0.78912330  0.41733020  0.24682142  1
  Ti  Ti141  1  0.41710785  0.83374613  0.24260347  1
  Ti  Ti142  1  0.10250785  0.49851856  0.36644347  1
  Ti  Ti143  1  0.50633888  0.90603120  0.38903792  1
  Ti  Ti144  1  0.20528671  0.38991204  0.00025186  1
  Ti  Ti145  1  0.20259934  0.38937791  0.76583597  1
  Ti  Ti146  1  0.50446866  0.51778444  0.88250981  1
  Ti  Ti147  1  0.68839791  0.70007303  0.62497075  1
  Ti  Ti148  1  0.91530004  0.89474247  0.35376076  1
  Ti  Ti149  1  0.79842836  0.19413088  0.02375234  1
  Ti  Ti150  1  0.20539432  0.61223074  0.00293076  1
  Ti  Ti151  1  0.60701383  0.78297848  0.49061575  1
  Ti  Ti152  1  0.20157282  0.60339527  0.76519505  1
  Ti  Ti153  1  0.59689838  0.41501051  -0.01187136  1
  Ti  Ti154  1  -0.01023042  0.19513089  0.50843542  1
  Ti  Ti155  1  0.10089769  0.28625022  0.88551116  1
  Ti  Ti156  1  0.40669481  0.59045584  0.24384300  1
  Ti  Ti157  1  0.60794978  0.22047179  0.49405872  1
  Ti  Ti158  1  0.77517826  0.60360212  0.00120513  1
  Ti  Ti159  1  0.60577882  0.20515615  0.75670129  1
  Mo  Mo160  1  0.89933514  0.30505463  0.10090657  1
  Mo  Mo161  1  0.48032633  0.50996889  0.11881420  1
  Mo  Mo162  1  0.91732972  0.10134459  0.12152804  1
  Mo  Mo163  1  -0.00319043  0.39058305  0.00102617  1
  Mo  Mo164  1  -0.00272187  0.18867579  0.23660078  1
  Mo  Mo165  1  0.89518528  0.28904588  0.62629832  1
  Mo  Mo166  1  0.60825685  0.40962030  0.49612135  1
  Mo  Mo167  1  0.90510889  0.89086048  0.61426109  1
  Mo  Mo168  1  0.69668943  0.50934018  0.88495034  1
  Mo  Mo169  1  0.69700216  0.49418127  0.36609325  1
  Mo  Mo170  1  0.60209444  0.80385320  0.25048905  1
  Mo  Mo171  1  0.40827982  0.20521367  0.00452012  1
  Mo  Mo172  1  0.19584456  0.00101159  0.50096122  1
  Mo  Mo173  1  0.59009222  0.61124853  -0.00097394  1
  Mo  Mo174  1  0.40490606  0.20985202  0.51445832  1
  Mo  Mo175  1  0.69457386  0.29100825  0.88741389  1
  Mo  Mo176  1  0.30588726  0.09604891  0.86459531  1
  Mo  Mo177  1  0.58650387  0.40315153  0.25356400  1
  Mo  Mo178  1  0.09886034  0.89240966  0.87399157  1
  Mo  Mo179  1  0.41034583  0.00068038  0.50621598  1
  Mo  Mo180  1  0.29593215  0.70493139  0.88007842  1
  Mo  Mo181  1  0.10449494  0.89188967  0.12806251  1
  Mo  Mo182  1  0.30692429  0.10865241  0.13542974  1
  Mo  Mo183  1  0.59582021  0.59713047  0.24788097  1
  Mo  Mo184  1  0.81183865  -0.01659323  0.46508707  1
  Mo  Mo185  1  0.00286640  0.79128493  0.25383409  1
  Mo  Mo186  1  0.68293436  0.09410916  0.13988455  1
  Mo  Mo187  1  0.69403958  0.10998516  0.64203511  1
  Mo  Mo188  1  0.00353198  0.60852499  0.00681732  1
  Mo  Mo189  1  0.50045483  0.90527466  0.11962415  1
  Mo  Mo190  1  0.41128630  0.79676072  0.49490814  1
  Mo  Mo191  1  0.01913563  -0.00843974  0.25856274  1
  Mo  Mo192  1  0.80416481  0.59434773  0.23903175  1
  Mo  Mo193  1  0.49769809  0.71393123  0.87482084  1
  Mo  Mo194  1  0.59853516  0.60907825  0.49854947  1
  Mo  Mo195  1  0.09070845  0.70375786  0.11922719  1
  Mo  Mo196  1  0.21594376  0.78703983  0.75691767  1
  Mo  Mo197  1  0.40747446  0.00852092  0.26162599  1
  Mo  Mo198  1  0.89318834  0.89620030  0.89677425  1
  Mo  Mo199  1  0.20558709  -0.00579702  -0.00870774  1
