# generated using pymatgen
data_HfZrTaTiMo
_symmetry_space_group_name_H-M   'P 1'
_cell_length_a   15.19556299
_cell_length_b   15.17638550
_cell_length_c   16.81139810
_cell_angle_alpha   89.98104191
_cell_angle_beta   90.00257245
_cell_angle_gamma   90.01240343
_symmetry_Int_Tables_number   1
_chemical_formula_structural   HfZrTaTiMo
_chemical_formula_sum   'Hf40 Zr40 Ta40 Ti40 Mo40'
_cell_volume   3876.93878047
_cell_formula_units_Z   40
loop_
 _symmetry_equiv_pos_site_id
 _symmetry_equiv_pos_as_xyz
  1  'x, y, z'
loop_
 _atom_site_type_symbol
 _atom_site_label
 _atom_site_symmetry_multiplicity
 _atom_site_fract_x
 _atom_site_fract_y
 _atom_site_fract_z
 _atom_site_occupancy
  Hf  Hf0  1  0.09363773  0.49706350  0.86729499  1
  Hf  Hf1  1  0.89949396  0.70060511  0.38031023  1
  Hf  Hf2  1  0.90342064  0.90015933  0.38054277  1
  Hf  Hf3  1  -0.00627357  0.41242197  0.49797947  1
  Hf  Hf4  1  0.90466815  0.89832916  0.11987120  1
  Hf  Hf5  1  0.89108229  0.30106924  0.86531172  1
  Hf  Hf6  1  0.78529662  0.19920154  0.51559519  1
  Hf  Hf7  1  0.69288491  0.88600013  0.87000940  1
  Hf  Hf8  1  0.00932321  0.01084381  0.74755986  1
  Hf  Hf9  1  0.60028995  0.00856186  -0.00594218  1
  Hf  Hf10  1  0.88769041  0.50865322  0.86610844  1
  Hf  Hf11  1  0.30521300  0.29201220  0.59580328  1
  Hf  Hf12  1  0.32318120  0.69180411  0.62162976  1
  Hf  Hf13  1  0.29547157  0.28927579  0.87606205  1
  Hf  Hf14  1  0.88278556  0.52206299  0.62788478  1
  Hf  Hf15  1  0.52306583  0.70345064  0.37574153  1
  Hf  Hf16  1  0.19901122  0.79703578  0.25648883  1
  Hf  Hf17  1  0.11086763  0.91108627  0.87226304  1
  Hf  Hf18  1  0.90856033  0.69726756  0.12250021  1
  Hf  Hf19  1  0.20387207  0.39718509  0.24846124  1
  Hf  Hf20  1  0.52741796  0.69563495  0.62746976  1
  Hf  Hf21  1  0.49816052  0.10462204  0.14432172  1
  Hf  Hf22  1  0.50453102  0.29910789  0.85958528  1
  Hf  Hf23  1  0.20498986  0.00987946  0.26584678  1
  Hf  Hf24  1  0.17902445  0.39548109  0.01224146  1
  Hf  Hf25  1  0.11268094  0.69800583  0.87315330  1
  Hf  Hf26  1  0.09163724  0.29552429  0.86786262  1
  Hf  Hf27  1  0.09508324  0.51730221  0.36929702  1
  Hf  Hf28  1  0.81220076  0.01225110  0.24898614  1
  Hf  Hf29  1  0.77996493  0.39880232  -0.00262993  1
  Hf  Hf30  1  0.79972075  0.59767374  0.25927286  1
  Hf  Hf31  1  -0.00622271  0.40496910  0.73567446  1
  Hf  Hf32  1  0.50776528  0.89979629  0.13875329  1
  Hf  Hf33  1  0.80516676  -0.00324498  -0.01069217  1
  Hf  Hf34  1  0.30736864  0.69694799  0.38339780  1
  Hf  Hf35  1  0.59040244  0.40333864  0.49772189  1
  Hf  Hf36  1  0.00011758  0.80608534  0.75467764  1
  Hf  Hf37  1  0.59276648  0.21374581  -0.00067361  1
  Hf  Hf38  1  0.29900467  0.10075724  0.13490934  1
  Hf  Hf39  1  0.10851482  0.29873409  0.39343445  1
  Zr  Zr40  1  0.69463274  0.69763725  0.11948786  1
  Zr  Zr41  1  0.48819490  0.50156162  0.62901762  1
  Zr  Zr42  1  0.60518036  0.57604223  -0.01233955  1
  Zr  Zr43  1  0.79044569  0.42441310  0.48675476  1
  Zr  Zr44  1  0.80346556  0.19463033  -0.00361744  1
  Zr  Zr45  1  0.69118170  0.29152122  0.37807069  1
  Zr  Zr46  1  0.69052972  0.08645106  0.37819955  1
  Zr  Zr47  1  0.42146254  0.80605824  0.74318023  1
  Zr  Zr48  1  0.42035848  0.39920654  -0.00532051  1
  Zr  Zr49  1  0.10476706  0.89168965  0.11556207  1
  Zr  Zr50  1  0.70086546  0.89701639  0.12518742  1
  Zr  Zr51  1  0.31020926  0.89338807  0.88452368  1
  Zr  Zr52  1  0.39127439  0.40216319  0.74554290  1
  Zr  Zr53  1  0.30234603  0.29602456  0.12090560  1
  Zr  Zr54  1  -0.01158214  0.19516679  0.24702756  1
  Zr  Zr55  1  0.67874297  0.08640583  0.63194603  1
  Zr  Zr56  1  0.51925123  0.71334035  0.88125743  1
  Zr  Zr57  1  -0.00245144  0.40061176  0.25728908  1
  Zr  Zr58  1  0.09979923  0.29697740  0.60595875  1
  Zr  Zr59  1  0.69999720  0.88361655  0.36767780  1
  Zr  Zr60  1  0.69467528  0.10522941  0.85392054  1
  Zr  Zr61  1  0.30764926  0.89307789  0.12720739  1
  Zr  Zr62  1  0.30437632  0.50353713  0.12559150  1
  Zr  Zr63  1  0.20068847  0.00360836  0.00268656  1
  Zr  Zr64  1  0.19721020  0.60533833  0.50733505  1
  Zr  Zr65  1  0.20026475  -0.00231348  0.48567818  1
  Zr  Zr66  1  0.69422951  0.30605321  0.14339315  1
  Zr  Zr67  1  0.70349860  0.10738183  0.13719615  1
  Zr  Zr68  1  -0.01092066  0.61297511  0.50874554  1
  Zr  Zr69  1  0.29349795  0.49729582  0.87933284  1
  Zr  Zr70  1  0.19214531  0.18306826  0.73997747  1
  Zr  Zr71  1  -0.00097284  0.01904392  -0.01047341  1
  Zr  Zr72  1  0.01097997  -0.00312953  0.25380519  1
  Zr  Zr73  1  0.40653753  0.00801685  0.00066206  1
  Zr  Zr74  1  0.32141921  0.90343965  0.37470191  1
  Zr  Zr75  1  0.21137524  0.59321195  0.73809166  1
  Zr  Zr76  1  0.50427852  0.50089711  0.13715183  1
  Zr  Zr77  1  0.21714616  0.80831160  0.73823682  1
  Zr  Zr78  1  0.11428110  0.91100315  0.62429390  1
  Zr  Zr79  1  0.89555630  0.49377334  0.12865067  1
  Ta  Ta80  1  0.38631142  0.20439315  0.26515872  1
  Ta  Ta81  1  -0.00879934  0.00566440  0.50999966  1
  Ta  Ta82  1  -0.00243114  0.79965816  -0.01783809  1
  Ta  Ta83  1  0.81182179  0.79536255  0.76417699  1
  Ta  Ta84  1  0.30306560  0.70050049  0.11968012  1
  Ta  Ta85  1  0.89231891  0.10351942  0.39214452  1
  Ta  Ta86  1  0.78824703  0.21037336  0.73055155  1
  Ta  Ta87  1  0.79871730  0.39870275  0.27221286  1
  Ta  Ta88  1  0.19877247  0.39134602  0.73708907  1
  Ta  Ta89  1  0.00326160  0.79065010  0.25246961  1
  Ta  Ta90  1  0.09313940  0.51280259  0.13298019  1
  Ta  Ta91  1  0.30001413  0.49223030  0.38466748  1
  Ta  Ta92  1  0.00205302  0.21263835  0.01042740  1
  Ta  Ta93  1  0.48673093  0.10125535  0.85609687  1
  Ta  Ta94  1  0.90018063  0.29226577  0.38768500  1
  Ta  Ta95  1  0.71315642  0.88462041  0.64005906  1
  Ta  Ta96  1  0.19152948  0.20526314  0.25778448  1
  Ta  Ta97  1  0.50137381  0.28777048  0.61777408  1
  Ta  Ta98  1  0.61027112  0.58598081  0.76213669  1
  Ta  Ta99  1  0.78324214  0.40920229  0.73880730  1
  Ta  Ta100  1  0.88755024  0.30765895  0.61657657  1
  Ta  Ta101  1  0.49154486  0.08915596  0.36881273  1
  Ta  Ta102  1  0.40257756  0.60548894  -0.00757877  1
  Ta  Ta103  1  0.51897744  0.90376718  0.62031765  1
  Ta  Ta104  1  0.79070824  -0.01746148  0.51054374  1
  Ta  Ta105  1  0.89035718  0.09467665  0.62984235  1
  Ta  Ta106  1  0.19107251  0.19363980  -0.00179146  1
  Ta  Ta107  1  0.40863065  0.78879581  0.25067890  1
  Ta  Ta108  1  0.42376067  0.80563176  0.50448194  1
  Ta  Ta109  1  0.29204703  0.08729476  0.61253345  1
  Ta  Ta110  1  0.49804755  0.70252741  0.11888842  1
  Ta  Ta111  1  0.41569168  0.59568985  0.49364107  1
  Ta  Ta112  1  0.31109635  0.70078126  0.87795595  1
  Ta  Ta113  1  0.69664446  0.49704000  0.13761030  1
  Ta  Ta114  1  -0.00957170  0.20382552  0.73241978  1
  Ta  Ta115  1  0.00320198  0.59814970  -0.00389235  1
  Ta  Ta116  1  0.49702890  0.30136392  0.14008711  1
  Ta  Ta117  1  0.58658785  -0.01366593  0.75426913  1
  Ta  Ta118  1  0.40201726  0.39441136  0.26893809  1
  Ta  Ta119  1  0.80612473  0.59522835  -0.00121882  1
  Ti  Ti120  1  0.48420518  0.29006893  0.38977306  1
  Ti  Ti121  1  0.68821475  0.50939380  0.62026003  1
  Ti  Ti122  1  0.49952495  0.90245105  0.87984714  1
  Ti  Ti123  1  0.90045492  0.10528012  0.85512133  1
  Ti  Ti124  1  0.89136051  0.29308458  0.13224847  1
  Ti  Ti125  1  0.28859665  0.09276192  0.86903083  1
  Ti  Ti126  1  0.71577403  0.69093111  0.63452103  1
  Ti  Ti127  1  0.48642655  0.09523085  0.63116913  1
  Ti  Ti128  1  0.58305692  0.17935105  0.50281433  1
  Ti  Ti129  1  0.08599839  0.10714492  0.38809557  1
  Ti  Ti130  1  0.39137903  0.19536923  0.74078046  1
  Ti  Ti131  1  -0.00880537  0.61416243  0.74531338  1
  Ti  Ti132  1  -0.01199050  0.40221306  0.00616063  1
  Ti  Ti133  1  0.59057873  0.20361549  0.26282972  1
  Ti  Ti134  1  0.80329801  0.79127739  -0.01513821  1
  Ti  Ti135  1  0.39961419  0.59807317  0.25731987  1
  Ti  Ti136  1  0.89206449  0.72229197  0.62237818  1
  Ti  Ti137  1  0.60145222  0.38918908  0.73479915  1
  Ti  Ti138  1  0.10093979  0.70440142  0.62803547  1
  Ti  Ti139  1  0.19963829  0.60244931  0.00323604  1
  Ti  Ti140  1  0.09971937  0.71058832  0.38308946  1
  Ti  Ti141  1  0.41527990  0.00102005  0.50126457  1
  Ti  Ti142  1  0.71788949  0.68142104  0.87145195  1
  Ti  Ti143  1  0.59699688  0.40804377  0.26860225  1
  Ti  Ti144  1  0.21317773  0.80155140  0.50715899  1
  Ti  Ti145  1  0.39866748  0.19484327  -0.00406021  1
  Ti  Ti146  1  0.51366795  0.90285723  0.36271494  1
  Ti  Ti147  1  0.38407766  -0.00403518  0.74083370  1
  Ti  Ti148  1  0.69462670  0.30328982  0.86216663  1
  Ti  Ti149  1  0.09760261  0.89502600  0.38313570  1
  Ti  Ti150  1  0.20080029  0.60655038  0.24887018  1
  Ti  Ti151  1  0.29929095  0.11953964  0.38934767  1
  Ti  Ti152  1  0.29585884  0.48689752  0.60283852  1
  Ti  Ti153  1  0.50180197  0.50696120  0.37408836  1
  Ti  Ti154  1  0.10378772  0.70124994  0.11790895  1
  Ti  Ti155  1  0.09735207  0.11012862  0.12895653  1
  Ti  Ti156  1  0.63069886  0.79358987  0.50536953  1
  Ti  Ti157  1  0.80244095  0.79731943  0.24669494  1
  Ti  Ti158  1  0.10036327  0.50304517  0.62434302  1
  Ti  Ti159  1  0.00275353  0.81158513  0.51128448  1
  Mo  Mo160  1  0.59177450  -0.01972322  0.50103466  1
  Mo  Mo161  1  -0.01423057  0.19626010  0.50937443  1
  Mo  Mo162  1  0.68468268  0.51433085  0.36689266  1
  Mo  Mo163  1  0.60932352  0.59867159  0.50051205  1
  Mo  Mo164  1  0.58575188  0.19874690  0.73839955  1
  Mo  Mo165  1  0.80322901  -0.00401139  0.75250873  1
  Mo  Mo166  1  0.32222259  0.90291800  0.61041525  1
  Mo  Mo167  1  0.81155379  0.79881774  0.50693507  1
  Mo  Mo168  1  0.69689858  0.48433122  0.86514501  1
  Mo  Mo169  1  0.69026116  0.30580684  0.62051294  1
  Mo  Mo170  1  0.80449536  0.20714821  0.26142112  1
  Mo  Mo171  1  0.09604168  0.11397576  0.87363341  1
  Mo  Mo172  1  0.39949406  0.00223613  0.26025877  1
  Mo  Mo173  1  0.20347045  0.78306440  -0.00101323  1
  Mo  Mo174  1  0.19679292  0.40888993  0.49782380  1
  Mo  Mo175  1  0.59409410  0.60051280  0.24707925  1
  Mo  Mo176  1  0.09279419  0.30216664  0.12472583  1
  Mo  Mo177  1  0.40369993  0.18727697  0.49931195  1
  Mo  Mo178  1  0.89828265  0.90258839  0.87487198  1
  Mo  Mo179  1  0.60083430  0.00254389  0.25401908  1
  Mo  Mo180  1  0.09375807  0.10289101  0.61116422  1
  Mo  Mo181  1  0.60002396  0.80406401  0.00099207  1
  Mo  Mo182  1  0.59985148  0.39133725  0.00137961  1
  Mo  Mo183  1  0.79987269  0.60569970  0.74834580  1
  Mo  Mo184  1  0.41319134  0.60232006  0.77232331  1
  Mo  Mo185  1  0.29952524  0.30131800  0.38854664  1
  Mo  Mo186  1  0.19453581  0.19015228  0.49874749  1
  Mo  Mo187  1  0.01174971  0.61315790  0.25021858  1
  Mo  Mo188  1  0.60194671  0.79078182  0.24714148  1
  Mo  Mo189  1  0.77989468  0.61879069  0.49515871  1
  Mo  Mo190  1  0.40259994  0.40009329  0.48512484  1
  Mo  Mo191  1  0.50040986  0.49930688  0.86215698  1
  Mo  Mo192  1  0.40832265  0.79493198  0.00549146  1
  Mo  Mo193  1  0.70497323  0.70060473  0.37283661  1
  Mo  Mo194  1  0.89602740  0.50225744  0.37465557  1
  Mo  Mo195  1  0.21037900  0.00416690  0.74710620  1
  Mo  Mo196  1  0.90334087  0.10487657  0.12091901  1
  Mo  Mo197  1  0.90594281  0.69863431  0.88099049  1
  Mo  Mo198  1  0.89789566  0.90450739  0.62787822  1
  Mo  Mo199  1  0.61815861  0.79189707  0.74654289  1
