# generated using pymatgen
data_HfZrTaTiMo
_symmetry_space_group_name_H-M   'P 1'
_cell_length_a   15.21733654
_cell_length_b   15.21257913
_cell_length_c   16.85038454
_cell_angle_alpha   90.03526280
_cell_angle_beta   90.01637505
_cell_angle_gamma   89.96365789
_symmetry_Int_Tables_number   1
_chemical_formula_structural   HfZrTaTiMo
_chemical_formula_sum   'Hf40 Zr40 Ta40 Ti40 Mo40'
_cell_volume   3900.77701274
_cell_formula_units_Z   40
loop_
 _symmetry_equiv_pos_site_id
 _symmetry_equiv_pos_as_xyz
  1  'x, y, z'
loop_
 _atom_site_type_symbol
 _atom_site_label
 _atom_site_symmetry_multiplicity
 _atom_site_fract_x
 _atom_site_fract_y
 _atom_site_fract_z
 _atom_site_occupancy
  Hf  Hf0  1  0.28942545  0.29743032  0.61734232  1
  Hf  Hf1  1  0.89481209  0.29836963  0.88207231  1
  Hf  Hf2  1  0.39859684  0.20730351  0.73613728  1
  Hf  Hf3  1  -0.01162526  0.61117765  -0.00337761  1
  Hf  Hf4  1  0.18748883  0.80899406  0.00302588  1
  Hf  Hf5  1  0.60322809  0.60251575  -0.00188258  1
  Hf  Hf6  1  0.38412773  0.80715490  0.23903629  1
  Hf  Hf7  1  0.70677536  0.70065793  0.38002884  1
  Hf  Hf8  1  0.60349060  0.40417943  0.24290541  1
  Hf  Hf9  1  0.01340212  -0.00390709  0.74087317  1
  Hf  Hf10  1  0.49890369  0.31092880  0.37099580  1
  Hf  Hf11  1  0.19849205  0.39931167  0.25429181  1
  Hf  Hf12  1  0.91564759  0.30685523  0.61574518  1
  Hf  Hf13  1  0.49789245  0.11574059  0.87029171  1
  Hf  Hf14  1  0.68603821  0.72316243  0.62266292  1
  Hf  Hf15  1  0.49483346  0.69882830  0.36670693  1
  Hf  Hf16  1  0.09042825  0.69877243  0.63162298  1
  Hf  Hf17  1  0.01107865  -0.00615153  0.25780558  1
  Hf  Hf18  1  0.20761433  0.39336921  0.47635057  1
  Hf  Hf19  1  -0.00446533  0.40013281  0.26445813  1
  Hf  Hf20  1  0.49672556  0.70883307  0.87756347  1
  Hf  Hf21  1  0.59782131  0.81446755  0.25511114  1
  Hf  Hf22  1  0.60395441  0.19762061  0.73213391  1
  Hf  Hf23  1  0.69939783  0.90989343  0.37331462  1
  Hf  Hf24  1  0.00273262  0.80116351  0.26352517  1
  Hf  Hf25  1  0.10033878  0.28888613  0.88968646  1
  Hf  Hf26  1  0.19270472  0.38961272  0.75769913  1
  Hf  Hf27  1  0.60644938  0.20570105  0.50424422  1
  Hf  Hf28  1  0.80831513  0.41144383  0.74385497  1
  Hf  Hf29  1  0.40262458  0.20533465  0.49966767  1
  Hf  Hf30  1  0.90060441  0.09051253  0.38536582  1
  Hf  Hf31  1  0.69368319  0.29611983  0.87169642  1
  Hf  Hf32  1  0.08440894  0.71965031  0.86027399  1
  Hf  Hf33  1  0.47360414  0.49688758  0.87931159  1
  Hf  Hf34  1  0.88447082  0.28386291  0.37705170  1
  Hf  Hf35  1  0.60669069  0.00358363  -0.00528165  1
  Hf  Hf36  1  0.31408527  0.29804994  0.88072459  1
  Hf  Hf37  1  0.09000765  0.48594855  0.61805444  1
  Hf  Hf38  1  0.10922940  0.70430086  0.37730753  1
  Hf  Hf39  1  -0.00985198  0.18097729  0.01432225  1
  Zr  Zr40  1  -0.00278620  0.59688766  0.26185460  1
  Zr  Zr41  1  0.29238746  0.90242859  0.38154503  1
  Zr  Zr42  1  0.59461199  -0.00656706  0.50007356  1
  Zr  Zr43  1  -0.01590266  0.57922549  0.75499275  1
  Zr  Zr44  1  0.79213037  0.39457986  0.25317787  1
  Zr  Zr45  1  0.00740842  0.40400876  0.47002887  1
  Zr  Zr46  1  0.10502581  0.09066832  0.88121984  1
  Zr  Zr47  1  0.81849881  -0.00193328  0.00691770  1
  Zr  Zr48  1  0.59010808  0.61019574  0.75118339  1
  Zr  Zr49  1  0.70414026  0.09869939  0.87040045  1
  Zr  Zr50  1  0.19222534  0.60364071  0.00806412  1
  Zr  Zr51  1  0.80863931  0.78948658  0.00557016  1
  Zr  Zr52  1  0.39389296  0.59866661  0.50319116  1
  Zr  Zr53  1  -0.00058521  0.18968403  0.24657259  1
  Zr  Zr54  1  0.29759701  0.69613692  0.86853648  1
  Zr  Zr55  1  0.78794827  0.39806917  0.49410581  1
  Zr  Zr56  1  0.69462284  0.69996149  0.13134304  1
  Zr  Zr57  1  0.87238662  0.69292057  0.85744430  1
  Zr  Zr58  1  0.79385710  0.59647026  0.24614255  1
  Zr  Zr59  1  0.30867881  0.50961783  0.36315600  1
  Zr  Zr60  1  0.39269573  0.41064694  0.74292416  1
  Zr  Zr61  1  0.60041321  0.39359236  0.00641852  1
  Zr  Zr62  1  0.39535761  0.39501314  0.02543180  1
  Zr  Zr63  1  0.80692534  -0.00227440  0.24219218  1
  Zr  Zr64  1  0.50992151  0.91534001  0.12624494  1
  Zr  Zr65  1  0.39327793  0.81288138  0.00852234  1
  Zr  Zr66  1  0.79229074  -0.00119166  0.73371446  1
  Zr  Zr67  1  0.90257320  0.09831009  0.86795807  1
  Zr  Zr68  1  0.59220579  0.39960829  0.74343777  1
  Zr  Zr69  1  0.09792898  0.30044220  0.12406121  1
  Zr  Zr70  1  0.41749986  0.80245625  0.50828074  1
  Zr  Zr71  1  0.20489039  0.40499883  0.01065177  1
  Zr  Zr72  1  0.79846467  -0.00138930  0.51657684  1
  Zr  Zr73  1  0.30654238  0.10624013  0.37879629  1
  Zr  Zr74  1  0.39741903  -0.00086451  0.74228124  1
  Zr  Zr75  1  0.90703515  0.88178859  0.62851274  1
  Zr  Zr76  1  0.21534081  0.00133756  0.00615593  1
  Zr  Zr77  1  0.38616220  0.60281836  0.01975423  1
  Zr  Zr78  1  0.71675684  0.51137509  0.87146675  1
  Zr  Zr79  1  0.20223102  0.58928587  0.75282279  1
  Ta  Ta80  1  0.20754906  -0.01338282  0.24193836  1
  Ta  Ta81  1  0.60934928  0.20210748  0.25438259  1
  Ta  Ta82  1  0.79888345  0.19620557  0.51774794  1
  Ta  Ta83  1  0.11484918  0.08299966  0.38619423  1
  Ta  Ta84  1  0.20355966  0.18621283  0.24173841  1
  Ta  Ta85  1  -0.01107054  0.60512468  0.49041434  1
  Ta  Ta86  1  0.67681578  0.50072692  0.38577610  1
  Ta  Ta87  1  0.50722984  0.51061270  0.12889499  1
  Ta  Ta88  1  0.78855517  0.20145254  0.01656050  1
  Ta  Ta89  1  0.28927156  0.49985618  0.61653810  1
  Ta  Ta90  1  0.00461273  0.79516580  0.49750763  1
  Ta  Ta91  1  0.50260156  0.09483682  0.62377990  1
  Ta  Ta92  1  0.88725645  0.68838021  0.62916467  1
  Ta  Ta93  1  0.69276668  0.09783907  0.12898759  1
  Ta  Ta94  1  0.79805490  0.40127386  0.01170394  1
  Ta  Ta95  1  0.40116609  0.40486321  0.23668971  1
  Ta  Ta96  1  0.80862454  0.20659998  0.72984709  1
  Ta  Ta97  1  0.19039561  0.59967636  0.49972733  1
  Ta  Ta98  1  0.50732822  0.90620256  0.86418317  1
  Ta  Ta99  1  0.20668395  0.00208168  0.74225352  1
  Ta  Ta100  1  0.40375752  0.79216540  0.73987361  1
  Ta  Ta101  1  0.90144671  0.49960672  0.12423951  1
  Ta  Ta102  1  0.08224626  0.71503911  0.12838756  1
  Ta  Ta103  1  0.10843553  0.10543737  0.61338615  1
  Ta  Ta104  1  0.58973324  0.61142179  0.50282191  1
  Ta  Ta105  1  0.89513626  0.30089621  0.12449402  1
  Ta  Ta106  1  0.40111508  0.19589930  0.01190549  1
  Ta  Ta107  1  0.71209386  0.88750844  0.86651393  1
  Ta  Ta108  1  0.69727847  0.51589089  0.61661256  1
  Ta  Ta109  1  0.92223565  0.88930538  0.86566826  1
  Ta  Ta110  1  0.52101366  0.88817507  0.63784861  1
  Ta  Ta111  1  0.01205741  -0.00862201  0.50242959  1
  Ta  Ta112  1  0.92688507  0.88869249  0.12142789  1
  Ta  Ta113  1  0.20749118  0.79914826  0.51164307  1
  Ta  Ta114  1  0.58357698  0.40792353  0.50792551  1
  Ta  Ta115  1  0.29597184  0.70486218  0.37163912  1
  Ta  Ta116  1  0.60495916  0.80630719  -0.00690737  1
  Ta  Ta117  1  0.90139520  0.88949901  0.38604172  1
  Ta  Ta118  1  0.00056113  0.38889798  0.75922700  1
  Ta  Ta119  1  0.50429074  0.10573164  0.13362926  1
  Ti  Ti120  1  0.69991974  0.31161305  0.62449528  1
  Ti  Ti121  1  0.11466284  0.27601755  0.37038203  1
  Ti  Ti122  1  0.20183738  0.81403940  0.74230179  1
  Ti  Ti123  1  0.11422605  0.90175361  0.61899519  1
  Ti  Ti124  1  0.79849291  0.19681379  0.23431307  1
  Ti  Ti125  1  0.19830475  0.19181328  0.74857035  1
  Ti  Ti126  1  0.89355024  0.50261279  0.61046275  1
  Ti  Ti127  1  0.91320085  0.10429685  0.62115334  1
  Ti  Ti128  1  0.40084894  -0.00624564  0.50921453  1
  Ti  Ti129  1  0.59429891  0.59866211  0.25083896  1
  Ti  Ti130  1  0.70788414  0.11643409  0.37243481  1
  Ti  Ti131  1  0.49134971  0.50985312  0.62647090  1
  Ti  Ti132  1  0.79949813  0.79460546  0.50084374  1
  Ti  Ti133  1  0.81143923  0.79766640  0.24714226  1
  Ti  Ti134  1  0.50389203  0.29095642  0.13467530  1
  Ti  Ti135  1  0.87870132  0.51673680  0.38439634  1
  Ti  Ti136  1  0.21232422  0.19936969  0.01990314  1
  Ti  Ti137  1  0.59410367  0.20212603  0.00479209  1
  Ti  Ti138  1  0.30055392  0.10234946  0.87621105  1
  Ti  Ti139  1  0.51088036  0.09250065  0.36957882  1
  Ti  Ti140  1  0.50032427  0.70934906  0.12464518  1
  Ti  Ti141  1  0.40733195  0.00609853  -0.00336816  1
  Ti  Ti142  1  0.29409617  0.09426351  0.61145700  1
  Ti  Ti143  1  0.00765283  0.20186125  0.74604525  1
  Ti  Ti144  1  0.20017976  0.61302122  0.23871315  1
  Ti  Ti145  1  0.09688669  0.49595327  0.88123967  1
  Ti  Ti146  1  0.09615159  0.07941359  0.12075511  1
  Ti  Ti147  1  0.09438339  0.50663343  0.12807856  1
  Ti  Ti148  1  0.30045619  0.69811345  0.63130094  1
  Ti  Ti149  1  0.31270773  0.09584054  0.13330255  1
  Ti  Ti150  1  0.40109376  0.40391621  0.49836068  1
  Ti  Ti151  1  0.41011473  0.00150775  0.25450704  1
  Ti  Ti152  1  -0.00573388  0.40589549  0.00066796  1
  Ti  Ti153  1  0.79904346  0.59210175  0.01209634  1
  Ti  Ti154  1  0.70524909  0.90121906  0.12782658  1
  Ti  Ti155  1  0.00846641  0.19586686  0.49409700  1
  Ti  Ti156  1  0.40174882  0.20386980  0.25226865  1
  Ti  Ti157  1  0.30224901  0.90106169  0.86794792  1
  Ti  Ti158  1  0.10201380  0.29218857  0.61657481  1
  Ti  Ti159  1  0.39606577  0.60494346  0.23340699  1
  Mo  Mo160  1  0.90083537  0.09390046  0.12428384  1
  Mo  Mo161  1  0.49869576  0.29174034  0.88075069  1
  Mo  Mo162  1  0.69205004  0.70518159  0.87632660  1
  Mo  Mo163  1  0.19631143  0.19890315  0.49488751  1
  Mo  Mo164  1  0.70024230  0.10483455  0.62685193  1
  Mo  Mo165  1  0.59890145  0.80348455  0.48939096  1
  Mo  Mo166  1  -0.00165311  0.80525999  -0.00543162  1
  Mo  Mo167  1  0.69660962  0.29078508  0.12375364  1
  Mo  Mo168  1  0.30418270  0.89596181  0.62643413  1
  Mo  Mo169  1  0.19527421  0.80057066  0.24422750  1
  Mo  Mo170  1  0.10513202  0.89987644  0.38890619  1
  Mo  Mo171  1  0.49596485  0.69774322  0.62887688  1
  Mo  Mo172  1  0.70045839  0.49809808  0.12046490  1
  Mo  Mo173  1  0.60269942  0.01371303  0.25771865  1
  Mo  Mo174  1  0.01070185  -0.02165060  -0.00133342  1
  Mo  Mo175  1  0.49678047  0.30688151  0.61310915  1
  Mo  Mo176  1  0.78963399  0.59625454  0.73267326  1
  Mo  Mo177  1  0.69361218  0.29424296  0.37936543  1
  Mo  Mo178  1  0.90278035  0.69761017  0.12707187  1
  Mo  Mo179  1  0.89489102  0.70610627  0.38416533  1
  Mo  Mo180  1  0.00442838  0.79873526  0.73978548  1
  Mo  Mo181  1  0.30390289  0.29486320  0.35457757  1
  Mo  Mo182  1  0.59777221  -0.00066329  0.74713194  1
  Mo  Mo183  1  0.49357101  0.91026931  0.36951010  1
  Mo  Mo184  1  0.30513304  0.91163400  0.12654593  1
  Mo  Mo185  1  0.90494656  0.48780807  0.88773982  1
  Mo  Mo186  1  0.50173285  0.50654901  0.36915945  1
  Mo  Mo187  1  0.79772138  0.79612331  0.74811219  1
  Mo  Mo188  1  0.39277038  0.60168557  0.73954345  1
  Mo  Mo189  1  0.10263948  0.50779116  0.37511155  1
  Mo  Mo190  1  0.30668858  0.28630379  0.14417751  1
  Mo  Mo191  1  0.29046460  0.49764474  0.87707367  1
  Mo  Mo192  1  0.69975380  0.90028092  0.62599319  1
  Mo  Mo193  1  0.11281585  0.90217804  0.86284297  1
  Mo  Mo194  1  0.10775277  0.89842523  0.12855490  1
  Mo  Mo195  1  0.20661552  -0.00426494  0.51275264  1
  Mo  Mo196  1  0.79254709  0.60333524  0.50461277  1
  Mo  Mo197  1  0.60240240  0.80897333  0.76085822  1
  Mo  Mo198  1  0.28533394  0.70764068  0.13385317  1
  Mo  Mo199  1  0.29528810  0.50453606  0.14518814  1
