# generated using pymatgen
data_HfZrTaTiMo
_symmetry_space_group_name_H-M   'P 1'
_cell_length_a   15.22216101
_cell_length_b   15.22109841
_cell_length_c   16.87329828
_cell_angle_alpha   90.00303498
_cell_angle_beta   89.96718222
_cell_angle_gamma   90.16945379
_symmetry_Int_Tables_number   1
_chemical_formula_structural   HfZrTaTiMo
_chemical_formula_sum   'Hf40 Zr40 Ta40 Ti40 Mo40'
_cell_volume   3909.49190146
_cell_formula_units_Z   40
loop_
 _symmetry_equiv_pos_site_id
 _symmetry_equiv_pos_as_xyz
  1  'x, y, z'
loop_
 _atom_site_type_symbol
 _atom_site_label
 _atom_site_symmetry_multiplicity
 _atom_site_fract_x
 _atom_site_fract_y
 _atom_site_fract_z
 _atom_site_occupancy
  Hf  Hf0  1  0.32336822  0.30764637  0.87724550  1
  Hf  Hf1  1  0.78124972  0.79809551  0.48953708  1
  Hf  Hf2  1  0.49398244  0.70032455  0.61525141  1
  Hf  Hf3  1  0.02081820  0.40422007  0.25687107  1
  Hf  Hf4  1  0.79941091  0.59806907  -0.00205078  1
  Hf  Hf5  1  0.79581296  -0.00250112  0.00364994  1
  Hf  Hf6  1  0.01257521  0.20709164  0.24704503  1
  Hf  Hf7  1  0.29943976  0.89334478  0.87244373  1
  Hf  Hf8  1  -0.00254779  0.40345805  0.75107833  1
  Hf  Hf9  1  0.50397702  0.89021653  0.61352797  1
  Hf  Hf10  1  0.58057841  0.58908322  0.75563880  1
  Hf  Hf11  1  0.51704601  0.31187353  0.61243422  1
  Hf  Hf12  1  0.10133491  0.29767639  0.87692546  1
  Hf  Hf13  1  0.88752447  0.69947898  0.36005903  1
  Hf  Hf14  1  0.28880000  0.70449264  0.14127275  1
  Hf  Hf15  1  0.00956062  0.00450736  0.50528396  1
  Hf  Hf16  1  0.61200052  -0.00158314  0.75402772  1
  Hf  Hf17  1  0.90898178  0.88977977  0.13182538  1
  Hf  Hf18  1  0.70243567  0.50155980  0.14115134  1
  Hf  Hf19  1  0.47414289  0.69439204  0.88114680  1
  Hf  Hf20  1  0.69002158  0.29895460  0.88114476  1
  Hf  Hf21  1  0.59267763  0.38273757  0.01608173  1
  Hf  Hf22  1  0.02525189  -0.00187476  0.23633021  1
  Hf  Hf23  1  0.90325270  0.90096465  0.35989793  1
  Hf  Hf24  1  0.20880192  0.41301499  -0.00775891  1
  Hf  Hf25  1  0.90430321  0.51650181  0.62037851  1
  Hf  Hf26  1  0.17616771  0.59143283  0.25465553  1
  Hf  Hf27  1  0.79443539  0.82101881  0.77154871  1
  Hf  Hf28  1  0.20197088  0.78687027  0.74733714  1
  Hf  Hf29  1  0.28567605  0.28220359  0.37802471  1
  Hf  Hf30  1  0.90234636  0.50370453  0.38362684  1
  Hf  Hf31  1  0.68939008  0.69560970  0.87007691  1
  Hf  Hf32  1  0.39198943  0.60850234  0.47391342  1
  Hf  Hf33  1  0.41154900  0.41553316  0.74570817  1
  Hf  Hf34  1  0.88663165  0.69458094  0.13233996  1
  Hf  Hf35  1  0.17950306  0.59441387  0.48871293  1
  Hf  Hf36  1  0.21027202  0.20067658  -0.00007409  1
  Hf  Hf37  1  0.39695944  0.38904065  0.25236219  1
  Hf  Hf38  1  0.50336137  0.90648513  0.88155662  1
  Hf  Hf39  1  0.89369606  0.29618068  0.88212757  1
  Zr  Zr40  1  0.20678265  0.01118180  0.51332032  1
  Zr  Zr41  1  0.79601255  0.80059365  -0.00854183  1
  Zr  Zr42  1  0.70011436  0.90706696  0.62154251  1
  Zr  Zr43  1  0.69781282  0.49662512  0.62668449  1
  Zr  Zr44  1  0.20469537  0.40750129  0.75595317  1
  Zr  Zr45  1  0.09300931  0.90312183  0.64705609  1
  Zr  Zr46  1  0.21372076  0.19367219  0.23594861  1
  Zr  Zr47  1  0.31339461  0.10003209  0.87970327  1
  Zr  Zr48  1  0.51426118  0.09240481  0.60757680  1
  Zr  Zr49  1  0.40600344  0.00172368  0.74618128  1
  Zr  Zr50  1  0.38911721  0.19413654  0.51017984  1
  Zr  Zr51  1  0.08036029  0.68728011  0.62574354  1
  Zr  Zr52  1  0.28613032  0.49408659  0.13655931  1
  Zr  Zr53  1  0.70083625  0.70322545  0.63502368  1
  Zr  Zr54  1  0.40264845  0.20408769  0.73486572  1
  Zr  Zr55  1  0.91057049  0.29630738  0.11267629  1
  Zr  Zr56  1  0.60199199  0.60009127  0.48046213  1
  Zr  Zr57  1  0.69046167  0.48528810  0.35819818  1
  Zr  Zr58  1  0.08455758  0.70999239  0.36833696  1
  Zr  Zr59  1  0.42178644  0.19972365  0.24843809  1
  Zr  Zr60  1  0.20701156  -0.01235088  0.01255738  1
  Zr  Zr61  1  0.49714612  0.70803344  0.14211825  1
  Zr  Zr62  1  0.28486492  0.49361623  0.36416526  1
  Zr  Zr63  1  0.60032093  0.00112184  0.26342973  1
  Zr  Zr64  1  0.89769466  0.09545488  0.64026372  1
  Zr  Zr65  1  0.49842842  0.50638596  0.61166060  1
  Zr  Zr66  1  0.19891163  0.80453232  0.50511236  1
  Zr  Zr67  1  -0.01808234  0.79769332  0.50790424  1
  Zr  Zr68  1  0.49316140  0.48278924  0.88926117  1
  Zr  Zr69  1  0.92439361  0.10384442  0.37379958  1
  Zr  Zr70  1  0.81166837  0.38762816  0.24661355  1
  Zr  Zr71  1  0.39422455  0.01014855  0.24642313  1
  Zr  Zr72  1  0.59562552  0.60188884  0.00508010  1
  Zr  Zr73  1  0.89888140  0.50282348  0.87838050  1
  Zr  Zr74  1  0.00844681  0.39469296  0.50305564  1
  Zr  Zr75  1  0.40682327  0.40146282  0.48180127  1
  Zr  Zr76  1  0.59850835  0.20361624  0.75231519  1
  Zr  Zr77  1  0.00321420  -0.00239899  0.00006657  1
  Zr  Zr78  1  0.49487172  0.50410392  0.14129647  1
  Zr  Zr79  1  0.80516916  -0.00039662  0.49605004  1
  Ta  Ta80  1  0.28756800  0.71555623  0.35618244  1
  Ta  Ta81  1  0.10095615  0.10093885  0.65017229  1
  Ta  Ta82  1  0.89839618  0.09396613  0.86797524  1
  Ta  Ta83  1  0.08436046  0.70758035  0.12475663  1
  Ta  Ta84  1  0.10138178  0.90988927  0.37216706  1
  Ta  Ta85  1  0.49360549  0.70101788  0.35101570  1
  Ta  Ta86  1  0.81028930  0.20494341  0.50185656  1
  Ta  Ta87  1  0.29985701  0.53126512  0.87839344  1
  Ta  Ta88  1  0.70783977  0.29823582  0.62638626  1
  Ta  Ta89  1  0.50078333  0.10717864  0.38870983  1
  Ta  Ta90  1  0.39868926  0.78779689  0.74611665  1
  Ta  Ta91  1  -0.00223899  0.20131076  0.75584936  1
  Ta  Ta92  1  0.80587692  0.19101920  0.24820694  1
  Ta  Ta93  1  0.79228972  0.39921235  0.74978025  1
  Ta  Ta94  1  0.29812816  0.50558886  0.61312986  1
  Ta  Ta95  1  0.10349500  0.09095292  0.85841022  1
  Ta  Ta96  1  0.28647176  0.91568569  0.36839073  1
  Ta  Ta97  1  -0.00064334  0.79112640  -0.01541894  1
  Ta  Ta98  1  0.11003936  0.69028944  0.88040322  1
  Ta  Ta99  1  0.61813309  0.20796010  0.48930739  1
  Ta  Ta100  1  0.39203192  0.80568097  0.01077714  1
  Ta  Ta101  1  0.69699171  0.27728046  0.12499111  1
  Ta  Ta102  1  0.69248109  0.69817544  0.34797122  1
  Ta  Ta103  1  0.79261087  0.39225372  0.49829996  1
  Ta  Ta104  1  0.18600989  0.20218439  0.51582850  1
  Ta  Ta105  1  0.79317623  0.39682121  0.00860083  1
  Ta  Ta106  1  0.59562294  0.80779863  0.00235577  1
  Ta  Ta107  1  0.11425768  0.31150753  0.11439937  1
  Ta  Ta108  1  0.69081574  0.90039912  0.12960288  1
  Ta  Ta109  1  0.20683222  0.19916335  0.74759977  1
  Ta  Ta110  1  0.41797822  0.00577191  0.00721287  1
  Ta  Ta111  1  0.09944608  0.89680167  0.86497097  1
  Ta  Ta112  1  0.71320185  0.10421171  0.37724334  1
  Ta  Ta113  1  0.39925029  -0.00868710  0.49220280  1
  Ta  Ta114  1  -0.01249625  0.59524562  0.24429665  1
  Ta  Ta115  1  0.69578967  0.09300514  0.88254812  1
  Ta  Ta116  1  0.08946394  0.50782444  0.11060593  1
  Ta  Ta117  1  0.39407504  0.81856966  0.25474719  1
  Ta  Ta118  1  0.30704770  0.89867977  0.63027302  1
  Ta  Ta119  1  -0.01325843  0.78719129  0.76776492  1
  Ti  Ti120  1  0.10573873  0.10429331  0.11816452  1
  Ti  Ti121  1  0.37938116  0.60353968  0.01126771  1
  Ti  Ti122  1  0.00493973  0.20034673  0.51110330  1
  Ti  Ti123  1  0.53244067  0.10658428  0.11695681  1
  Ti  Ti124  1  0.19549367  0.39275107  0.49890181  1
  Ti  Ti125  1  0.80147616  0.60682348  0.50030547  1
  Ti  Ti126  1  0.29517639  0.31007961  0.62286769  1
  Ti  Ti127  1  0.50024774  0.90608787  0.12469558  1
  Ti  Ti128  1  0.90531092  0.29625335  0.37993408  1
  Ti  Ti129  1  0.39424835  0.80533921  0.48026409  1
  Ti  Ti130  1  0.61522489  0.20234111  0.26015508  1
  Ti  Ti131  1  0.79623744  0.19848589  0.75423082  1
  Ti  Ti132  1  0.58933287  0.80296531  0.47043427  1
  Ti  Ti133  1  0.79614299  0.19233192  0.00408834  1
  Ti  Ti134  1  0.68894128  0.70344924  0.14440031  1
  Ti  Ti135  1  0.70585103  0.10531428  0.62021091  1
  Ti  Ti136  1  0.00327566  0.19196238  -0.00591904  1
  Ti  Ti137  1  0.18595057  0.82856229  0.23742583  1
  Ti  Ti138  1  0.79935337  0.00567563  0.24511731  1
  Ti  Ti139  1  0.10617038  0.49573568  0.62640307  1
  Ti  Ti140  1  0.10048916  0.50968800  0.88559125  1
  Ti  Ti141  1  0.21004714  0.59824184  0.74543618  1
  Ti  Ti142  1  0.19817441  0.79320902  0.00389750  1
  Ti  Ti143  1  0.89690691  0.30105391  0.63117290  1
  Ti  Ti144  1  0.31939948  0.10470103  0.11235572  1
  Ti  Ti145  1  0.89455576  0.89458871  0.63893691  1
  Ti  Ti146  1  0.52871958  0.31509320  0.37480189  1
  Ti  Ti147  1  0.78609181  0.81140145  0.24975074  1
  Ti  Ti148  1  0.81289872  0.61091895  0.75453674  1
  Ti  Ti149  1  -0.00107149  0.40388011  -0.00365099  1
  Ti  Ti150  1  0.00591847  0.60138991  0.75805138  1
  Ti  Ti151  1  0.60507019  -0.00780638  0.47793697  1
  Ti  Ti152  1  0.69658611  0.49210163  0.87294702  1
  Ti  Ti153  1  0.13100689  0.10149112  0.37043189  1
  Ti  Ti154  1  0.90077965  0.10076005  0.12491919  1
  Ti  Ti155  1  0.39824779  0.38652757  0.02097501  1
  Ti  Ti156  1  0.30093950  0.69607501  0.61560144  1
  Ti  Ti157  1  0.59038987  0.80086173  0.75641708  1
  Ti  Ti158  1  0.09971135  0.29878956  0.63752762  1
  Ti  Ti159  1  0.90365812  0.49923701  0.11884519  1
  Mo  Mo160  1  0.20733339  0.00170572  0.23185011  1
  Mo  Mo161  1  0.60540829  -0.00729380  0.00557083  1
  Mo  Mo162  1  0.88350266  0.70671844  0.63442380  1
  Mo  Mo163  1  0.29415878  0.09784942  0.63257194  1
  Mo  Mo164  1  0.50665054  0.29067491  0.13208153  1
  Mo  Mo165  1  0.19407832  0.61103237  0.00626348  1
  Mo  Mo166  1  0.29571048  0.70606574  0.88139852  1
  Mo  Mo167  1  0.38267966  0.60651830  0.74145609  1
  Mo  Mo168  1  0.50669076  0.11230253  0.88758354  1
  Mo  Mo169  1  0.59516894  0.81008639  0.25315432  1
  Mo  Mo170  1  0.49068949  0.90167178  0.37939362  1
  Mo  Mo171  1  0.30935565  0.89777474  0.12070224  1
  Mo  Mo172  1  0.61140231  0.39527125  0.49193798  1
  Mo  Mo173  1  0.30392826  0.29548802  0.11807692  1
  Mo  Mo174  1  0.90547495  0.90460030  0.87724528  1
  Mo  Mo175  1  0.70100017  0.90044927  0.36616935  1
  Mo  Mo176  1  0.59424815  0.59632888  0.25451234  1
  Mo  Mo177  1  0.09520699  0.28497496  0.38405060  1
  Mo  Mo178  1  0.79636728  0.01119834  0.75801233  1
  Mo  Mo179  1  0.49831846  0.29020528  0.88151826  1
  Mo  Mo180  1  0.00072335  0.79958331  0.24584088  1
  Mo  Mo181  1  0.19190167  0.38540814  0.24472899  1
  Mo  Mo182  1  0.00137571  0.60195675  0.00249926  1
  Mo  Mo183  1  0.71198812  0.09481225  0.13117870  1
  Mo  Mo184  1  0.60789828  0.39858875  0.75294768  1
  Mo  Mo185  1  0.09220736  0.49420788  0.38134223  1
  Mo  Mo186  1  -0.01257077  0.60220198  0.50181167  1
  Mo  Mo187  1  0.60563889  0.18533854  -0.00086804  1
  Mo  Mo188  1  0.79948003  0.59793238  0.24445104  1
  Mo  Mo189  1  0.20420197  -0.00109687  0.74874052  1
  Mo  Mo190  1  0.59783289  0.37967055  0.23658860  1
  Mo  Mo191  1  0.50005261  0.50042744  0.35460241  1
  Mo  Mo192  1  0.90429808  0.69503929  0.87572809  1
  Mo  Mo193  1  0.10463344  0.88957879  0.11395652  1
  Mo  Mo194  1  0.30307607  0.09622455  0.37866834  1
  Mo  Mo195  1  0.38761504  0.60628153  0.26391003  1
  Mo  Mo196  1  0.42041584  0.20471752  0.00945344  1
  Mo  Mo197  1  -0.00856884  -0.00925387  0.76169043  1
  Mo  Mo198  1  0.69389517  0.90183603  0.88226869  1
  Mo  Mo199  1  0.71617005  0.28979251  0.37129560  1
