# generated using pymatgen
data_HfZrTaTiMo
_symmetry_space_group_name_H-M   'P 1'
_cell_length_a   15.21494680
_cell_length_b   15.20789853
_cell_length_c   16.86657361
_cell_angle_alpha   90.05557671
_cell_angle_beta   90.06211316
_cell_angle_gamma   89.95299828
_symmetry_Int_Tables_number   1
_chemical_formula_structural   HfZrTaTiMo
_chemical_formula_sum   'Hf40 Zr40 Ta40 Ti40 Mo40'
_cell_volume   3902.70661881
_cell_formula_units_Z   40
loop_
 _symmetry_equiv_pos_site_id
 _symmetry_equiv_pos_as_xyz
  1  'x, y, z'
loop_
 _atom_site_type_symbol
 _atom_site_label
 _atom_site_symmetry_multiplicity
 _atom_site_fract_x
 _atom_site_fract_y
 _atom_site_fract_z
 _atom_site_occupancy
  Hf  Hf0  1  0.48988265  0.11356441  0.87381134  1
  Hf  Hf1  1  0.30363480  0.30613897  0.13880090  1
  Hf  Hf2  1  0.59649571  0.60408331  0.76931564  1
  Hf  Hf3  1  0.31037197  0.71887390  0.38031181  1
  Hf  Hf4  1  0.89952870  0.30079402  0.37044160  1
  Hf  Hf5  1  0.39265753  0.01704289  0.25379432  1
  Hf  Hf6  1  0.79128372  0.60088614  -0.01381999  1
  Hf  Hf7  1  -0.01039248  0.59978018  0.76273690  1
  Hf  Hf8  1  0.19396491  0.58932391  -0.01209340  1
  Hf  Hf9  1  0.49650247  0.51100935  0.10115520  1
  Hf  Hf10  1  0.38531102  0.01164309  0.49135906  1
  Hf  Hf11  1  0.27406484  0.91814662  0.36647109  1
  Hf  Hf12  1  0.01395142  -0.01942053  0.49096945  1
  Hf  Hf13  1  0.40491415  0.63057858  0.24911986  1
  Hf  Hf14  1  -0.00692804  0.80317700  0.01210090  1
  Hf  Hf15  1  0.30431099  0.90703769  0.88655446  1
  Hf  Hf16  1  0.10197769  0.09283588  0.88928175  1
  Hf  Hf17  1  0.69075164  0.08664334  0.87906852  1
  Hf  Hf18  1  0.38335429  0.01708455  0.74834095  1
  Hf  Hf19  1  0.90414151  0.08889537  0.36585052  1
  Hf  Hf20  1  0.41591200  0.20816306  0.48123772  1
  Hf  Hf21  1  0.09348497  0.68195834  0.12893521  1
  Hf  Hf22  1  0.58682007  -0.00193188  0.48293549  1
  Hf  Hf23  1  0.79599439  0.18226318  0.01223552  1
  Hf  Hf24  1  0.11552758  0.08044374  0.62548392  1
  Hf  Hf25  1  0.90681808  0.28480525  0.88895309  1
  Hf  Hf26  1  0.20869324  0.40235699  0.73857000  1
  Hf  Hf27  1  0.27911756  0.91171731  0.62799832  1
  Hf  Hf28  1  0.60335054  0.39252765  0.00480253  1
  Hf  Hf29  1  0.30931979  0.31489242  0.37382093  1
  Hf  Hf30  1  0.80729346  0.19786276  0.75206876  1
  Hf  Hf31  1  0.11219392  0.29062248  0.86806870  1
  Hf  Hf32  1  0.61110021  0.20532359  0.49051404  1
  Hf  Hf33  1  0.39638385  0.81025561  0.51449097  1
  Hf  Hf34  1  0.21009087  0.41016484  0.51384940  1
  Hf  Hf35  1  0.79977077  0.39406195  0.75946089  1
  Hf  Hf36  1  0.89943523  0.50653251  0.11514741  1
  Hf  Hf37  1  -0.01245385  0.59203486  0.25907929  1
  Hf  Hf38  1  0.49221689  0.10503622  0.62768494  1
  Hf  Hf39  1  0.19755484  0.61683711  0.49683520  1
  Zr  Zr40  1  0.68852488  0.48405413  0.37156093  1
  Zr  Zr41  1  -0.00058650  0.79000776  0.49482655  1
  Zr  Zr42  1  0.69620600  0.89449738  0.62469941  1
  Zr  Zr43  1  0.01187477  0.19561648  0.24512327  1
  Zr  Zr44  1  0.91325798  0.30104374  0.12239811  1
  Zr  Zr45  1  0.90196831  0.08482449  0.61294755  1
  Zr  Zr46  1  -0.00271872  0.60236781  -0.01225107  1
  Zr  Zr47  1  0.20112493  0.59997938  0.26166672  1
  Zr  Zr48  1  0.21075812  0.78771874  0.00853310  1
  Zr  Zr49  1  -0.00048327  0.39784652  0.50507394  1
  Zr  Zr50  1  0.10005965  0.51176447  0.63519705  1
  Zr  Zr51  1  0.47815559  0.72372420  0.10322928  1
  Zr  Zr52  1  0.89301574  0.69397820  0.63001955  1
  Zr  Zr53  1  0.22855890  0.18471903  0.75019631  1
  Zr  Zr54  1  0.51278727  0.91561684  0.86618824  1
  Zr  Zr55  1  0.00276826  0.18329651  0.74828442  1
  Zr  Zr56  1  0.79913491  -0.00549752  0.75040124  1
  Zr  Zr57  1  0.59616671  0.79235739  0.50163686  1
  Zr  Zr58  1  0.60508884  0.20501590  0.75049528  1
  Zr  Zr59  1  0.31693498  0.29023148  0.61669297  1
  Zr  Zr60  1  -0.01143821  0.00091590  0.01415484  1
  Zr  Zr61  1  0.67129598  0.68425815  0.36824762  1
  Zr  Zr62  1  0.70070892  0.09955356  0.61556457  1
  Zr  Zr63  1  0.20711554  0.37843765  -0.00430575  1
  Zr  Zr64  1  0.59908567  0.62131649  -0.02301906  1
  Zr  Zr65  1  0.87899198  0.69814617  0.36523107  1
  Zr  Zr66  1  0.87976092  0.49236271  0.62810522  1
  Zr  Zr67  1  0.80264676  0.39949539  0.23699823  1
  Zr  Zr68  1  -0.00682061  0.59477313  0.48919181  1
  Zr  Zr69  1  0.11158322  0.29807282  0.36990308  1
  Zr  Zr70  1  0.00932932  0.18850960  0.49413727  1
  Zr  Zr71  1  0.40936532  0.40694735  0.73923887  1
  Zr  Zr72  1  0.41179807  0.42152956  0.24942811  1
  Zr  Zr73  1  0.10151624  0.72072040  0.64197683  1
  Zr  Zr74  1  0.09905292  0.46651555  0.14243928  1
  Zr  Zr75  1  0.49956476  0.69185611  0.62935414  1
  Zr  Zr76  1  0.20088409  0.81197431  0.22810977  1
  Zr  Zr77  1  0.69848452  0.88784731  0.35920664  1
  Zr  Zr78  1  0.48388939  0.50110644  0.88801174  1
  Zr  Zr79  1  0.29915441  0.51679324  0.11836436  1
  Ta  Ta80  1  0.20078100  -0.00642805  0.01957836  1
  Ta  Ta81  1  0.78529441  0.59576607  0.77384663  1
  Ta  Ta82  1  -0.00164910  0.38738807  0.74710577  1
  Ta  Ta83  1  0.71012427  0.31185601  0.62149865  1
  Ta  Ta84  1  0.40492789  0.22158632  0.00756767  1
  Ta  Ta85  1  0.89452829  0.09073122  0.13465005  1
  Ta  Ta86  1  0.68749112  0.08059453  0.14369045  1
  Ta  Ta87  1  0.90286962  0.89126464  0.36060704  1
  Ta  Ta88  1  0.52113124  0.31190156  0.62099510  1
  Ta  Ta89  1  0.01412020  -0.01343365  0.23599286  1
  Ta  Ta90  1  0.70140666  0.09532462  0.35952399  1
  Ta  Ta91  1  0.21317067  0.18205794  0.49397704  1
  Ta  Ta92  1  0.79163538  0.79896630  -0.00053145  1
  Ta  Ta93  1  0.50054187  0.52569747  0.38265137  1
  Ta  Ta94  1  0.60363257  0.82660581  -0.00158181  1
  Ta  Ta95  1  0.70319625  0.29198140  0.36271739  1
  Ta  Ta96  1  0.87913151  0.70633952  0.13050824  1
  Ta  Ta97  1  0.40009814  0.80641966  0.74491770  1
  Ta  Ta98  1  0.09259065  0.89302210  0.88607603  1
  Ta  Ta99  1  0.22065092  0.18790069  0.25074635  1
  Ta  Ta100  1  0.30789893  0.51193498  0.38433087  1
  Ta  Ta101  1  0.42001608  0.42497865  0.51025574  1
  Ta  Ta102  1  0.31243605  0.10403371  0.11540638  1
  Ta  Ta103  1  0.77681946  0.59452162  0.50203957  1
  Ta  Ta104  1  0.00904013  0.39861818  -0.00742709  1
  Ta  Ta105  1  0.68843415  0.28312921  0.12840222  1
  Ta  Ta106  1  0.61148982  0.40861427  0.75765681  1
  Ta  Ta107  1  0.89896497  0.48702295  0.87889403  1
  Ta  Ta108  1  0.79855879  0.79545319  0.49960149  1
  Ta  Ta109  1  0.79671663  0.19237765  0.24195402  1
  Ta  Ta110  1  -0.00222612  -0.02152054  0.75830968  1
  Ta  Ta111  1  0.09855386  0.49002879  0.86158781  1
  Ta  Ta112  1  0.78031975  0.59348137  0.23745664  1
  Ta  Ta113  1  0.68529188  0.69458392  0.12414135  1
  Ta  Ta114  1  0.70036644  0.88497704  0.14047907  1
  Ta  Ta115  1  0.10453219  0.28898134  0.62643783  1
  Ta  Ta116  1  0.51348668  0.92513962  0.13223869  1
  Ta  Ta117  1  0.50468214  0.12515555  0.14113263  1
  Ta  Ta118  1  0.51653087  0.32415610  0.37194089  1
  Ta  Ta119  1  0.80321437  0.79288960  0.75536257  1
  Ti  Ti120  1  0.58888796  0.58879201  0.23609493  1
  Ti  Ti121  1  0.80365852  0.19602565  0.49106574  1
  Ti  Ti122  1  0.89890914  0.71675428  0.87478407  1
  Ti  Ti123  1  0.39545988  0.60486049  0.75349671  1
  Ti  Ti124  1  0.70887537  0.89755757  0.87090978  1
  Ti  Ti125  1  0.90360367  0.29059428  0.61861458  1
  Ti  Ti126  1  0.32222458  0.89641231  0.11837136  1
  Ti  Ti127  1  0.29845998  0.10761633  0.90390666  1
  Ti  Ti128  1  0.88741185  0.49484929  0.37643744  1
  Ti  Ti129  1  0.09834763  0.72046666  0.36275943  1
  Ti  Ti130  1  0.11191039  0.10331862  0.12503278  1
  Ti  Ti131  1  0.18906613  -0.00709995  0.76376993  1
  Ti  Ti132  1  0.79952525  -0.01200003  0.48751839  1
  Ti  Ti133  1  0.57819835  0.78877767  0.24629986  1
  Ti  Ti134  1  0.20814233  0.60208195  0.75780503  1
  Ti  Ti135  1  0.60286579  0.40028562  0.22909811  1
  Ti  Ti136  1  0.48614355  0.89051119  0.36274226  1
  Ti  Ti137  1  0.10183550  0.70307528  0.86927566  1
  Ti  Ti138  1  0.78708232  -0.01756986  0.01304836  1
  Ti  Ti139  1  0.79754437  0.39494655  0.00418847  1
  Ti  Ti140  1  0.70079274  0.68536267  0.62996896  1
  Ti  Ti141  1  0.78965706  0.39448533  0.49842081  1
  Ti  Ti142  1  0.42070331  0.00778739  0.00938958  1
  Ti  Ti143  1  0.31383558  0.70333341  0.87403121  1
  Ti  Ti144  1  0.50352898  0.30427825  0.87546999  1
  Ti  Ti145  1  0.31826936  0.29700036  0.87283489  1
  Ti  Ti146  1  0.70092210  0.29434755  0.88529326  1
  Ti  Ti147  1  0.59594327  0.19070054  0.00603263  1
  Ti  Ti148  1  0.60147065  0.80313949  0.75033017  1
  Ti  Ti149  1  0.80600157  -0.01456785  0.24558413  1
  Ti  Ti150  1  0.20191054  0.80522668  0.76289788  1
  Ti  Ti151  1  0.18591415  0.82204548  0.49892025  1
  Ti  Ti152  1  -0.00966409  0.80179109  0.23488760  1
  Ti  Ti153  1  0.29562048  0.69793673  0.63102785  1
  Ti  Ti154  1  0.01770151  0.20340081  0.01454546  1
  Ti  Ti155  1  0.90669283  0.88684572  0.62551039  1
  Ti  Ti156  1  0.29706343  0.49375418  0.87631885  1
  Ti  Ti157  1  0.89625053  0.08217890  0.88369723  1
  Ti  Ti158  1  0.10525105  0.48944315  0.37009055  1
  Ti  Ti159  1  0.12218053  0.07543028  0.36185454  1
  Mo  Mo160  1  0.60039386  0.20678199  0.25736478  1
  Mo  Mo161  1  0.60600243  0.39914215  0.49995768  1
  Mo  Mo162  1  0.40754962  0.81811949  -0.01139602  1
  Mo  Mo163  1  0.51249725  0.50247897  0.63216421  1
  Mo  Mo164  1  0.09989103  0.89817482  0.11615107  1
  Mo  Mo165  1  -0.00427851  0.80376141  0.76440833  1
  Mo  Mo166  1  0.39913563  0.40053861  -0.00433692  1
  Mo  Mo167  1  0.41210717  0.21348732  0.26367982  1
  Mo  Mo168  1  0.60814340  0.00927282  0.01080986  1
  Mo  Mo169  1  0.11022348  0.28973672  0.13422962  1
  Mo  Mo170  1  0.29828653  0.11159784  0.36944763  1
  Mo  Mo171  1  0.09321601  0.89620785  0.63670061  1
  Mo  Mo172  1  0.69867950  0.71912711  0.87148912  1
  Mo  Mo173  1  0.40117868  0.81731387  0.24685911  1
  Mo  Mo174  1  0.59165495  -0.00729739  0.74234450  1
  Mo  Mo175  1  0.40751808  0.21152235  0.75401901  1
  Mo  Mo176  1  0.30062440  0.10478814  0.61907553  1
  Mo  Mo177  1  0.20668988  0.19100925  0.00809349  1
  Mo  Mo178  1  0.50074630  0.30345270  0.12584374  1
  Mo  Mo179  1  0.50755559  0.11106638  0.36031426  1
  Mo  Mo180  1  0.69765764  0.50242416  0.11825242  1
  Mo  Mo181  1  0.08962484  0.89411044  0.35857838  1
  Mo  Mo182  1  0.69107854  0.50034988  0.62959677  1
  Mo  Mo183  1  0.20114898  0.00578196  0.22208304  1
  Mo  Mo184  1  0.70188921  0.48781981  0.88130064  1
  Mo  Mo185  1  0.48963564  0.72106001  0.87114882  1
  Mo  Mo186  1  0.49405164  0.70684471  0.38094271  1
  Mo  Mo187  1  0.89017270  0.89633824  0.13528895  1
  Mo  Mo188  1  0.58856824  0.58341039  0.51013523  1
  Mo  Mo189  1  0.00013259  0.40340021  0.26276516  1
  Mo  Mo190  1  0.19335328  -0.00232755  0.49464137  1
  Mo  Mo191  1  0.59468617  -0.00453997  0.26293346  1
  Mo  Mo192  1  0.38338965  0.61488520  -0.01446762  1
  Mo  Mo193  1  0.79018143  0.78783817  0.24449456  1
  Mo  Mo194  1  0.49637121  0.90548919  0.63983149  1
  Mo  Mo195  1  0.39333883  0.60576153  0.50773787  1
  Mo  Mo196  1  0.20701232  0.39931336  0.26373597  1
  Mo  Mo197  1  0.31107255  0.52275486  0.62314814  1
  Mo  Mo198  1  0.30003846  0.70243137  0.11814404  1
  Mo  Mo199  1  0.89281167  0.89995464  0.88242324  1
