# generated using pymatgen
data_HfZrTaTiMo
_symmetry_space_group_name_H-M   'P 1'
_cell_length_a   15.20290479
_cell_length_b   15.22964114
_cell_length_c   16.86259086
_cell_angle_alpha   89.98718093
_cell_angle_beta   89.95654461
_cell_angle_gamma   90.11191146
_symmetry_Int_Tables_number   1
_chemical_formula_structural   HfZrTaTiMo
_chemical_formula_sum   'Hf40 Zr40 Ta40 Ti40 Mo40'
_cell_volume   3904.26766800
_cell_formula_units_Z   40
loop_
 _symmetry_equiv_pos_site_id
 _symmetry_equiv_pos_as_xyz
  1  'x, y, z'
loop_
 _atom_site_type_symbol
 _atom_site_label
 _atom_site_symmetry_multiplicity
 _atom_site_fract_x
 _atom_site_fract_y
 _atom_site_fract_z
 _atom_site_occupancy
  Hf  Hf0  1  0.52560903  0.30092122  0.60686374  1
  Hf  Hf1  1  0.90572667  0.29185547  0.13699551  1
  Hf  Hf2  1  0.08367144  0.88668583  0.87583889  1
  Hf  Hf3  1  0.38884835  0.79270970  0.25061122  1
  Hf  Hf4  1  0.38704894  0.20025669  0.26138885  1
  Hf  Hf5  1  0.80011308  0.40118943  0.49597184  1
  Hf  Hf6  1  0.00041948  0.38188296  0.73299116  1
  Hf  Hf7  1  0.70487568  0.89091319  0.38530077  1
  Hf  Hf8  1  0.88124653  0.89454791  0.63085540  1
  Hf  Hf9  1  0.01357564  0.60584364  0.23705926  1
  Hf  Hf10  1  0.19819303  0.60219018  0.74681295  1
  Hf  Hf11  1  0.32323436  0.49555355  0.11215725  1
  Hf  Hf12  1  0.60282775  0.59794301  0.24800968  1
  Hf  Hf13  1  0.61495432  0.20013280  0.73890052  1
  Hf  Hf14  1  0.19746485  0.80195986  0.74720144  1
  Hf  Hf15  1  0.39158892  0.00251062  0.26647306  1
  Hf  Hf16  1  0.30266083  0.50887216  0.62623872  1
  Hf  Hf17  1  0.40705819  0.39535570  0.75937723  1
  Hf  Hf18  1  0.01876261  0.38788372  0.24586477  1
  Hf  Hf19  1  0.91509226  0.50059508  0.37279144  1
  Hf  Hf20  1  0.68088089  0.90428270  0.63536108  1
  Hf  Hf21  1  0.40764326  0.61977540  0.49975024  1
  Hf  Hf22  1  0.80552226  0.60510427  -0.01877828  1
  Hf  Hf23  1  0.19828636  0.18992339  0.73457615  1
  Hf  Hf24  1  0.50706683  0.29562870  0.39883402  1
  Hf  Hf25  1  0.39568350  0.80820168  -0.00483997  1
  Hf  Hf26  1  0.81581838  0.61211999  0.51015127  1
  Hf  Hf27  1  0.09196965  0.28648797  0.87327547  1
  Hf  Hf28  1  0.69693516  0.68919893  0.37931161  1
  Hf  Hf29  1  0.89790214  0.49393391  0.12894938  1
  Hf  Hf30  1  0.58741764  0.00401446  0.50101801  1
  Hf  Hf31  1  0.29267496  0.91691317  0.61940949  1
  Hf  Hf32  1  0.18662085  0.40752846  0.51643023  1
  Hf  Hf33  1  -0.00964320  0.19498743  0.51107548  1
  Hf  Hf34  1  0.70608108  0.70562193  0.11723098  1
  Hf  Hf35  1  0.68337131  0.10462216  0.87633853  1
  Hf  Hf36  1  0.68237534  0.10465347  0.11226863  1
  Hf  Hf37  1  0.60794983  0.00688874  0.26229581  1
  Hf  Hf38  1  0.49361870  0.30671597  0.12040872  1
  Hf  Hf39  1  0.28809125  0.89748945  0.12744145  1
  Zr  Zr40  1  0.40639640  0.19227504  0.72722706  1
  Zr  Zr41  1  0.70660615  0.50026960  0.85659040  1
  Zr  Zr42  1  0.29054595  0.10003931  0.12995376  1
  Zr  Zr43  1  0.40949344  0.40139879  0.25988123  1
  Zr  Zr44  1  0.58936392  0.20662430  0.25387839  1
  Zr  Zr45  1  0.79017104  0.18899743  0.26694731  1
  Zr  Zr46  1  0.49684927  0.91685016  0.12936326  1
  Zr  Zr47  1  0.60195608  0.61496363  0.74475615  1
  Zr  Zr48  1  0.39768242  0.40974708  0.49890292  1
  Zr  Zr49  1  -0.00861920  -0.00145520  0.74520440  1
  Zr  Zr50  1  0.10205582  0.49578782  0.88010237  1
  Zr  Zr51  1  0.52086087  0.50329337  0.38395476  1
  Zr  Zr52  1  0.81457817  0.63828368  0.76300518  1
  Zr  Zr53  1  0.78808765  -0.00370678  -0.01917448  1
  Zr  Zr54  1  0.79555364  0.01471559  0.50294557  1
  Zr  Zr55  1  0.89477687  0.50267620  0.64075533  1
  Zr  Zr56  1  0.12813951  0.49942838  0.36877634  1
  Zr  Zr57  1  0.08582269  0.89961234  0.37991878  1
  Zr  Zr58  1  0.49522624  0.69807726  0.12009944  1
  Zr  Zr59  1  0.01051035  0.60485368  0.00951753  1
  Zr  Zr60  1  0.20198478  0.38799108  0.00384751  1
  Zr  Zr61  1  0.18466418  -0.00226586  -0.00048215  1
  Zr  Zr62  1  0.70251559  0.30542084  0.12273124  1
  Zr  Zr63  1  0.89476028  0.08576143  0.13317963  1
  Zr  Zr64  1  0.61467505  0.59338359  0.51885464  1
  Zr  Zr65  1  0.90502836  0.71046382  0.12261259  1
  Zr  Zr66  1  0.28690580  0.29993021  0.38632214  1
  Zr  Zr67  1  0.90221177  0.71159376  0.37230034  1
  Zr  Zr68  1  0.60371385  0.40622586  -0.01789631  1
  Zr  Zr69  1  0.70645829  0.90908256  0.12657528  1
  Zr  Zr70  1  0.70465878  0.50080975  0.12133400  1
  Zr  Zr71  1  0.40609200  0.60675255  0.75890887  1
  Zr  Zr72  1  0.69860630  0.47229290  0.64356769  1
  Zr  Zr73  1  0.31625108  0.71966919  0.62319075  1
  Zr  Zr74  1  0.60813375  0.81533317  -0.00615558  1
  Zr  Zr75  1  0.10707105  0.69972968  0.37370578  1
  Zr  Zr76  1  0.20398672  0.39158471  0.74468572  1
  Zr  Zr77  1  0.02735920  0.59383280  0.51862746  1
  Zr  Zr78  1  0.81175308  0.20215226  -0.00284084  1
  Zr  Zr79  1  0.90899573  0.48686295  0.86392287  1
  Ta  Ta80  1  0.21483988  0.60307855  0.22636109  1
  Ta  Ta81  1  0.79636971  0.79997856  0.25187123  1
  Ta  Ta82  1  0.89647091  0.89872606  0.12170909  1
  Ta  Ta83  1  0.00232290  0.18815042  0.25897954  1
  Ta  Ta84  1  -0.01558621  0.79419598  0.51078621  1
  Ta  Ta85  1  0.09525404  0.09651055  0.87103192  1
  Ta  Ta86  1  0.59931461  0.80165736  0.25142085  1
  Ta  Ta87  1  0.40083176  0.17870575  0.51107664  1
  Ta  Ta88  1  0.90607021  0.29575072  0.37584944  1
  Ta  Ta89  1  0.38711428  0.01391028  -0.01075051  1
  Ta  Ta90  1  0.30922405  0.27558993  0.87599554  1
  Ta  Ta91  1  0.10239010  0.10763868  0.38172022  1
  Ta  Ta92  1  0.47662531  0.11493424  0.87406336  1
  Ta  Ta93  1  0.08349480  0.90420451  0.13118430  1
  Ta  Ta94  1  0.58769025  0.79254914  0.50568849  1
  Ta  Ta95  1  0.81850325  0.80587252  -0.02952170  1
  Ta  Ta96  1  0.49841308  0.70699810  0.37111646  1
  Ta  Ta97  1  -0.01554960  -0.00264184  -0.00806871  1
  Ta  Ta98  1  0.29170855  0.90432551  0.87642944  1
  Ta  Ta99  1  0.71889685  0.29695096  0.87032767  1
  Ta  Ta100  1  0.29570034  0.70376901  0.88038518  1
  Ta  Ta101  1  0.40941184  0.59817237  -0.01529651  1
  Ta  Ta102  1  0.60146790  0.60637872  -0.01613625  1
  Ta  Ta103  1  0.21114229  0.60816420  0.01413847  1
  Ta  Ta104  1  0.21424597  0.39811191  0.23736121  1
  Ta  Ta105  1  0.10230142  0.69610399  0.87941608  1
  Ta  Ta106  1  0.39841853  0.59601187  0.25579250  1
  Ta  Ta107  1  0.09328973  0.88990688  0.61643878  1
  Ta  Ta108  1  0.09987727  0.08393387  0.61737281  1
  Ta  Ta109  1  0.50887520  0.71603131  0.87605512  1
  Ta  Ta110  1  0.49643987  0.89362897  0.37672926  1
  Ta  Ta111  1  0.18728851  0.20848050  0.25101096  1
  Ta  Ta112  1  0.41049222  0.39080411  -0.02280588  1
  Ta  Ta113  1  0.40995155  0.81653681  0.76450899  1
  Ta  Ta114  1  0.30024975  0.49951087  0.88191745  1
  Ta  Ta115  1  0.78501752  0.01839338  0.75072958  1
  Ta  Ta116  1  0.19739352  0.00187437  0.49073610  1
  Ta  Ta117  1  0.20003078  0.19530672  0.51380183  1
  Ta  Ta118  1  0.48233611  0.89180211  0.62120194  1
  Ta  Ta119  1  0.57028503  0.00186319  0.75065843  1
  Ti  Ti120  1  0.90631490  0.08988300  0.37556582  1
  Ti  Ti121  1  0.29952100  0.29269709  0.11914256  1
  Ti  Ti122  1  0.20089992  0.19000937  -0.00041136  1
  Ti  Ti123  1  0.81457427  -0.01396365  0.26695367  1
  Ti  Ti124  1  0.90218291  0.11343897  0.86876391  1
  Ti  Ti125  1  0.80277988  0.59830314  0.25357979  1
  Ti  Ti126  1  0.09051198  0.09819819  0.13336822  1
  Ti  Ti127  1  0.19800803  0.78944881  0.50344301  1
  Ti  Ti128  1  -0.00860840  0.81637398  0.25145084  1
  Ti  Ti129  1  -0.00609575  -0.00369838  0.50635793  1
  Ti  Ti130  1  0.50150836  0.50021524  0.62541203  1
  Ti  Ti131  1  0.09421099  0.30023556  0.38436247  1
  Ti  Ti132  1  0.51076417  0.50144811  0.11868283  1
  Ti  Ti133  1  0.58137422  0.21028586  -0.00938206  1
  Ti  Ti134  1  0.59494596  0.39261280  0.76397800  1
  Ti  Ti135  1  -0.00864106  0.78813834  0.74387287  1
  Ti  Ti136  1  0.81283993  0.39775386  -0.00720659  1
  Ti  Ti137  1  0.18868994  0.79291376  0.00894571  1
  Ti  Ti138  1  0.57819543  0.00526344  -0.01211194  1
  Ti  Ti139  1  0.19284867  -0.00115066  0.75126719  1
  Ti  Ti140  1  0.29494743  0.69051722  0.37806048  1
  Ti  Ti141  1  -0.00227670  0.39308237  0.51915859  1
  Ti  Ti142  1  0.01108904  0.60559901  0.74105928  1
  Ti  Ti143  1  0.00806396  0.19108816  0.00466720  1
  Ti  Ti144  1  0.18837005  0.00568491  0.26358455  1
  Ti  Ti145  1  0.48626111  0.10930205  0.11758984  1
  Ti  Ti146  1  0.19179632  0.79382066  0.24355108  1
  Ti  Ti147  1  0.71690554  0.72219645  0.63062793  1
  Ti  Ti148  1  0.38196126  0.00606243  0.75477557  1
  Ti  Ti149  1  0.29078398  0.88891219  0.37827652  1
  Ti  Ti150  1  0.68457048  0.89651355  0.85442486  1
  Ti  Ti151  1  0.30668341  0.29889858  0.61650555  1
  Ti  Ti152  1  0.79670735  0.40029706  0.26740597  1
  Ti  Ti153  1  0.38940772  -0.00313868  0.48671773  1
  Ti  Ti154  1  0.60983540  0.40096704  0.25729034  1
  Ti  Ti155  1  0.50115280  0.10267090  0.38148985  1
  Ti  Ti156  1  0.69720960  0.29500892  0.39161776  1
  Ti  Ti157  1  -0.00868026  0.19234701  0.72832469  1
  Ti  Ti158  1  0.10847901  0.49088311  0.12104255  1
  Ti  Ti159  1  0.00055051  0.38292444  0.00858780  1
  Mo  Mo160  1  0.59610633  0.80633520  0.74956307  1
  Mo  Mo161  1  0.21400996  0.60365882  0.50546075  1
  Mo  Mo162  1  0.72255402  0.27311167  0.60791597  1
  Mo  Mo163  1  0.28988660  0.09764055  0.37973456  1
  Mo  Mo164  1  0.91250933  0.29288356  0.87714054  1
  Mo  Mo165  1  0.51166259  0.71656611  0.62909546  1
  Mo  Mo166  1  0.30348715  0.70037099  0.11828349  1
  Mo  Mo167  1  0.78993685  0.79964513  0.50541234  1
  Mo  Mo168  1  0.39202653  0.20288305  0.00055798  1
  Mo  Mo169  1  0.81158492  0.19624914  0.75100317  1
  Mo  Mo170  1  0.69736236  0.09977678  0.37478518  1
  Mo  Mo171  1  0.29510541  0.09066046  0.61728423  1
  Mo  Mo172  1  0.89243541  0.29603879  0.61676776  1
  Mo  Mo173  1  0.49224069  0.91673477  0.87458753  1
  Mo  Mo174  1  0.49378633  0.08103053  0.62182302  1
  Mo  Mo175  1  0.90616707  0.71050973  0.62838014  1
  Mo  Mo176  1  0.39608347  0.81037269  0.48580799  1
  Mo  Mo177  1  0.71477653  0.49507695  0.37114282  1
  Mo  Mo178  1  0.10682823  0.28494153  0.12314816  1
  Mo  Mo179  1  0.10101189  0.28919386  0.62060652  1
  Mo  Mo180  1  0.10390271  0.49856722  0.63302458  1
  Mo  Mo181  1  0.49828597  0.50541539  0.87154521  1
  Mo  Mo182  1  0.70101313  0.71143812  0.87835112  1
  Mo  Mo183  1  0.61197043  0.18538177  0.50273129  1
  Mo  Mo184  1  0.80198224  0.19746136  0.48230501  1
  Mo  Mo185  1  0.10523337  0.70550221  0.62397649  1
  Mo  Mo186  1  0.00043197  0.00203654  0.25569155  1
  Mo  Mo187  1  0.89900528  0.89935790  0.38347252  1
  Mo  Mo188  1  0.00400418  0.81195704  0.00127463  1
  Mo  Mo189  1  0.79696584  0.36607404  0.74671776  1
  Mo  Mo190  1  0.89691835  0.91354290  0.86013983  1
  Mo  Mo191  1  0.88450578  0.10536863  0.62662846  1
  Mo  Mo192  1  0.10828763  0.71506417  0.12973767  1
  Mo  Mo193  1  0.80319901  0.81888781  0.76684140  1
  Mo  Mo194  1  0.51013256  0.29233803  0.86919989  1
  Mo  Mo195  1  0.69129113  0.10107438  0.62765123  1
  Mo  Mo196  1  0.30125895  0.51026883  0.37040379  1
  Mo  Mo197  1  0.61139741  0.39772444  0.50236615  1
  Mo  Mo198  1  0.92567938  0.71322074  0.87808778  1
  Mo  Mo199  1  0.28459445  0.09848901  0.87146400  1
