# generated using pymatgen
data_HfZrTaTiMo
_symmetry_space_group_name_H-M   'P 1'
_cell_length_a   15.20957469
_cell_length_b   15.21077226
_cell_length_c   16.86617584
_cell_angle_alpha   90.00667627
_cell_angle_beta   90.02214899
_cell_angle_gamma   89.97749386
_symmetry_Int_Tables_number   1
_chemical_formula_structural   HfZrTaTiMo
_chemical_formula_sum   'Hf40 Zr40 Ta40 Ti40 Mo40'
_cell_volume   3901.97864977
_cell_formula_units_Z   40
loop_
 _symmetry_equiv_pos_site_id
 _symmetry_equiv_pos_as_xyz
  1  'x, y, z'
loop_
 _atom_site_type_symbol
 _atom_site_label
 _atom_site_symmetry_multiplicity
 _atom_site_fract_x
 _atom_site_fract_y
 _atom_site_fract_z
 _atom_site_occupancy
  Hf  Hf0  1  -0.00532303  0.39009377  0.24670331  1
  Hf  Hf1  1  0.20148584  0.19388667  0.73628762  1
  Hf  Hf2  1  0.91430166  0.69885031  0.64340946  1
  Hf  Hf3  1  0.01428192  0.40019885  -0.01070193  1
  Hf  Hf4  1  0.00730752  0.00028490  0.75046277  1
  Hf  Hf5  1  0.90323958  0.49887774  0.37772905  1
  Hf  Hf6  1  0.41109605  0.19686493  0.49666134  1
  Hf  Hf7  1  0.89260388  0.09045190  0.88402796  1
  Hf  Hf8  1  0.88417992  0.70973868  0.11301140  1
  Hf  Hf9  1  0.10037827  0.87499443  0.62608165  1
  Hf  Hf10  1  0.91566578  0.89323207  0.37167510  1
  Hf  Hf11  1  0.08481497  0.71180150  0.36346006  1
  Hf  Hf12  1  0.69495365  0.49240091  0.63669495  1
  Hf  Hf13  1  0.11086540  0.09819093  0.87768335  1
  Hf  Hf14  1  0.00287931  0.21104118  0.76385789  1
  Hf  Hf15  1  0.80170033  0.40361086  0.24105552  1
  Hf  Hf16  1  0.70194048  0.70054352  0.64263724  1
  Hf  Hf17  1  0.19351481  0.19790458  0.25448658  1
  Hf  Hf18  1  0.69455004  0.10535915  0.89414599  1
  Hf  Hf19  1  0.82260238  0.19663378  0.23576798  1
  Hf  Hf20  1  0.38714411  0.19082519  0.00979792  1
  Hf  Hf21  1  0.41041021  -0.01706334  0.25375321  1
  Hf  Hf22  1  0.38624509  0.39976798  0.00711080  1
  Hf  Hf23  1  0.20102744  -0.00732431  0.00120883  1
  Hf  Hf24  1  0.30588175  0.08470002  0.37915421  1
  Hf  Hf25  1  0.20514397  0.60517833  -0.00051266  1
  Hf  Hf26  1  0.59499275  0.01287245  0.75945778  1
  Hf  Hf27  1  0.69348256  0.90819973  0.36761649  1
  Hf  Hf28  1  0.31544418  0.88702034  0.12351220  1
  Hf  Hf29  1  0.28146413  0.29942372  0.87105592  1
  Hf  Hf30  1  0.59179427  0.60549861  -0.01160365  1
  Hf  Hf31  1  0.21530222  -0.01087705  0.73449170  1
  Hf  Hf32  1  0.59653743  0.21340862  0.75340002  1
  Hf  Hf33  1  0.09836169  0.50793107  0.38413069  1
  Hf  Hf34  1  0.19582493  0.59927400  0.74541493  1
  Hf  Hf35  1  0.19313024  0.79976675  0.48741274  1
  Hf  Hf36  1  0.49227260  0.50697906  0.13016106  1
  Hf  Hf37  1  0.59071010  0.59976484  0.50524321  1
  Hf  Hf38  1  0.00988333  0.81157754  0.00531846  1
  Hf  Hf39  1  0.69169206  0.08988874  0.11351124  1
  Zr  Zr40  1  0.89745033  0.89515346  0.63660027  1
  Zr  Zr41  1  0.69893514  0.30230214  0.11072084  1
  Zr  Zr42  1  0.79670554  0.59848553  0.50153327  1
  Zr  Zr43  1  0.80218037  -0.02688526  0.01526689  1
  Zr  Zr44  1  0.59866011  0.61874889  0.25679506  1
  Zr  Zr45  1  0.10030026  0.09617503  0.38439728  1
  Zr  Zr46  1  0.10010236  0.10193930  0.61239136  1
  Zr  Zr47  1  0.10619432  0.30718815  0.12219504  1
  Zr  Zr48  1  0.79299015  0.39395228  0.75763082  1
  Zr  Zr49  1  0.38830797  0.39290787  0.24757354  1
  Zr  Zr50  1  0.70356968  0.29167546  0.36603766  1
  Zr  Zr51  1  0.62581241  0.79997557  -0.01619662  1
  Zr  Zr52  1  0.60072116  0.39855555  0.24598967  1
  Zr  Zr53  1  0.90014229  0.50169587  0.10847265  1
  Zr  Zr54  1  0.47897498  0.71808247  0.62692440  1
  Zr  Zr55  1  0.57823757  0.80279996  0.76689765  1
  Zr  Zr56  1  0.59195145  0.80613099  0.49922212  1
  Zr  Zr57  1  0.31890769  0.08649325  0.87337725  1
  Zr  Zr58  1  0.11494315  0.90591818  0.14038106  1
  Zr  Zr59  1  0.79282288  0.19245091  0.75493556  1
  Zr  Zr60  1  0.89639428  0.09822007  0.62387243  1
  Zr  Zr61  1  0.19813928  0.40039212  0.73748376  1
  Zr  Zr62  1  0.80743386  -0.00977901  0.23326767  1
  Zr  Zr63  1  0.60115564  0.00792343  0.50669247  1
  Zr  Zr64  1  0.90536527  0.70120982  0.87125313  1
  Zr  Zr65  1  0.39875135  0.19412918  0.24741294  1
  Zr  Zr66  1  0.19999535  0.39612608  0.50201431  1
  Zr  Zr67  1  0.80744932  0.79487657  0.49943596  1
  Zr  Zr68  1  0.31497630  0.29538018  0.62129129  1
  Zr  Zr69  1  0.00475025  0.40696232  0.76392611  1
  Zr  Zr70  1  0.59707457  0.39401030  0.49861783  1
  Zr  Zr71  1  0.39633221  0.61658515  0.75634843  1
  Zr  Zr72  1  0.49889558  0.70818766  0.12442802  1
  Zr  Zr73  1  0.48892466  0.29893012  0.87630372  1
  Zr  Zr74  1  0.52322040  0.90460499  0.11037497  1
  Zr  Zr75  1  0.49203574  0.50658281  0.36853061  1
  Zr  Zr76  1  0.89893403  0.30730291  0.62669921  1
  Zr  Zr77  1  0.80391147  0.39091723  0.49980700  1
  Zr  Zr78  1  0.80269147  0.00292887  0.49818452  1
  Zr  Zr79  1  0.19631988  0.40080234  0.26270648  1
  Ta  Ta80  1  0.21755525  0.78993418  0.74264235  1
  Ta  Ta81  1  0.69668413  0.50435951  0.87008394  1
  Ta  Ta82  1  0.21705944  -0.01216202  0.50989781  1
  Ta  Ta83  1  0.49598132  0.09278863  0.11993661  1
  Ta  Ta84  1  0.30689911  0.51231362  0.61723852  1
  Ta  Ta85  1  0.29936803  0.69409186  0.13801092  1
  Ta  Ta86  1  0.88947674  0.29810586  0.89284709  1
  Ta  Ta87  1  0.29992955  0.50290121  0.38537270  1
  Ta  Ta88  1  0.00137961  0.19530460  -0.00710766  1
  Ta  Ta89  1  0.39443474  0.78690915  -0.01138917  1
  Ta  Ta90  1  -0.00810547  0.60278323  0.24334174  1
  Ta  Ta91  1  0.49628565  0.29438741  0.12103613  1
  Ta  Ta92  1  0.00353880  0.01538823  0.24704218  1
  Ta  Ta93  1  0.78538430  0.61466451  -0.01163918  1
  Ta  Ta94  1  0.10470270  0.70096825  0.13415191  1
  Ta  Ta95  1  0.89449285  0.50397462  0.88326205  1
  Ta  Ta96  1  0.79957512  0.60155791  0.25106559  1
  Ta  Ta97  1  0.39559194  0.61057099  0.50089807  1
  Ta  Ta98  1  0.48615492  0.91574881  0.89071605  1
  Ta  Ta99  1  0.30093410  0.69009162  0.36805364  1
  Ta  Ta100  1  0.08797758  0.50714696  0.61364164  1
  Ta  Ta101  1  0.09328001  0.10726470  0.12503616  1
  Ta  Ta102  1  0.69803840  0.51969621  0.11858443  1
  Ta  Ta103  1  0.49626954  0.10445723  0.62586379  1
  Ta  Ta104  1  0.11576296  0.71892076  0.87688011  1
  Ta  Ta105  1  0.10157094  0.51046500  0.12428963  1
  Ta  Ta106  1  0.71335402  0.90631472  0.86408997  1
  Ta  Ta107  1  0.28874929  0.49973563  0.12713248  1
  Ta  Ta108  1  0.69614631  0.90490416  0.64401520  1
  Ta  Ta109  1  0.01118166  -0.01698926  0.49713155  1
  Ta  Ta110  1  0.49520703  0.49992759  0.87378463  1
  Ta  Ta111  1  -0.01276053  0.20815180  0.49437951  1
  Ta  Ta112  1  -0.00744323  0.80450285  0.23870046  1
  Ta  Ta113  1  0.51717501  0.09356423  0.36953317  1
  Ta  Ta114  1  0.79637853  0.78797134  0.25413344  1
  Ta  Ta115  1  0.28545052  0.88277154  0.88068307  1
  Ta  Ta116  1  -0.00266144  0.62028205  0.50118035  1
  Ta  Ta117  1  0.91178559  0.89797872  0.86664227  1
  Ta  Ta118  1  0.70505613  0.10250473  0.36212324  1
  Ta  Ta119  1  0.40583831  -0.01663345  0.73774609  1
  Ti  Ti120  1  0.00546682  0.60685156  -0.00334736  1
  Ti  Ti121  1  0.59601873  0.81428102  0.25687805  1
  Ti  Ti122  1  0.40881018  -0.01229427  0.50482902  1
  Ti  Ti123  1  0.40269407  0.40856524  0.74248841  1
  Ti  Ti124  1  0.80081110  0.79813412  0.75942552  1
  Ti  Ti125  1  0.50076426  0.29373047  0.36981049  1
  Ti  Ti126  1  0.30098124  0.49717785  0.87352161  1
  Ti  Ti127  1  0.60561482  0.20093690  0.50068024  1
  Ti  Ti128  1  0.10883937  0.50290138  0.87982835  1
  Ti  Ti129  1  0.69523380  0.30667010  0.89189582  1
  Ti  Ti130  1  0.20479695  0.19493263  0.50278302  1
  Ti  Ti131  1  0.59465060  0.59957560  0.75822763  1
  Ti  Ti132  1  0.00186945  0.00018553  0.00658604  1
  Ti  Ti133  1  0.79116716  0.40987210  -0.00185439  1
  Ti  Ti134  1  0.69709172  0.10446430  0.62994461  1
  Ti  Ti135  1  0.51016158  0.30840260  0.62671042  1
  Ti  Ti136  1  0.39151880  0.80625219  0.48281028  1
  Ti  Ti137  1  0.59063027  0.40569381  0.75236909  1
  Ti  Ti138  1  0.59182642  0.40837897  0.00092312  1
  Ti  Ti139  1  0.40891829  0.78729278  0.26801721  1
  Ti  Ti140  1  0.58631331  0.20224831  -0.00061967  1
  Ti  Ti141  1  0.09115110  0.30490650  0.61327869  1
  Ti  Ti142  1  0.30137516  0.29898241  0.38523704  1
  Ti  Ti143  1  0.20016569  0.60863977  0.50458162  1
  Ti  Ti144  1  0.39653404  0.59942813  -0.00690599  1
  Ti  Ti145  1  0.19950076  0.60012256  0.25256279  1
  Ti  Ti146  1  0.19613932  0.20972366  0.00614155  1
  Ti  Ti147  1  0.90210843  0.50536955  0.62947487  1
  Ti  Ti148  1  0.29064058  0.08960310  0.13127810  1
  Ti  Ti149  1  0.69861000  0.50099890  0.37290749  1
  Ti  Ti150  1  0.00632747  0.60095760  0.75866947  1
  Ti  Ti151  1  0.08228889  0.30084119  0.38408919  1
  Ti  Ti152  1  0.20988099  0.81080877  0.26460779  1
  Ti  Ti153  1  0.40054524  0.18749520  0.74402651  1
  Ti  Ti154  1  0.59932139  0.19112823  0.24015750  1
  Ti  Ti155  1  0.40706799  0.40840241  0.50335431  1
  Ti  Ti156  1  0.79210560  0.19801765  0.49925702  1
  Ti  Ti157  1  0.90345873  0.29069426  0.10362327  1
  Ti  Ti158  1  0.90143465  0.10577080  0.37610266  1
  Ti  Ti159  1  0.69965024  0.69925193  0.37854622  1
  Mo  Mo160  1  0.69707816  0.70298037  0.12602696  1
  Mo  Mo161  1  0.80733712  0.79830149  -0.01495275  1
  Mo  Mo162  1  0.10725102  0.91020681  0.36038972  1
  Mo  Mo163  1  0.29715997  0.29425133  0.12379813  1
  Mo  Mo164  1  0.10045406  0.29639111  0.88171616  1
  Mo  Mo165  1  0.01921531  0.79538612  0.75999037  1
  Mo  Mo166  1  0.10235437  0.89950310  0.87014106  1
  Mo  Mo167  1  0.80097498  0.59416062  0.75732490  1
  Mo  Mo168  1  0.49143026  0.49794101  0.63168647  1
  Mo  Mo169  1  0.49608246  0.70549927  0.38017754  1
  Mo  Mo170  1  0.50447084  0.90794107  0.62738526  1
  Mo  Mo171  1  0.38939675  0.81099594  0.76269997  1
  Mo  Mo172  1  0.49308212  0.10283282  0.87711874  1
  Mo  Mo173  1  -0.00058863  0.19868540  0.25299899  1
  Mo  Mo174  1  0.79519363  -0.00416212  0.75382133  1
  Mo  Mo175  1  0.10083781  0.68954209  0.62581575  1
  Mo  Mo176  1  0.69173648  0.28827522  0.62053467  1
  Mo  Mo177  1  0.30073227  0.89640604  0.37414730  1
  Mo  Mo178  1  0.38549835  0.60080975  0.25160518  1
  Mo  Mo179  1  0.39491119  -0.00536591  0.00796500  1
  Mo  Mo180  1  0.29915711  0.69260337  0.87778026  1
  Mo  Mo181  1  0.90348916  0.29085367  0.37580247  1
  Mo  Mo182  1  0.28982754  0.70665963  0.61449550  1
  Mo  Mo183  1  -0.00111940  0.40783544  0.50302798  1
  Mo  Mo184  1  0.71096846  0.87240444  0.13419065  1
  Mo  Mo185  1  0.80061324  0.20365414  0.00466314  1
  Mo  Mo186  1  0.20626178  0.00174007  0.24838321  1
  Mo  Mo187  1  0.20394196  0.79225620  0.00781425  1
  Mo  Mo188  1  0.31640022  0.88388502  0.61717072  1
  Mo  Mo189  1  0.91082186  0.10167334  0.11149328  1
  Mo  Mo190  1  0.20368852  0.40719643  -0.00165102  1
  Mo  Mo191  1  -0.00070886  0.79889756  0.49681944  1
  Mo  Mo192  1  0.91170852  0.89858213  0.13115483  1
  Mo  Mo193  1  0.89625642  0.69442645  0.36630159  1
  Mo  Mo194  1  0.60353819  0.00444663  0.24765117  1
  Mo  Mo195  1  0.31153034  0.09127807  0.61250471  1
  Mo  Mo196  1  0.70386176  0.69467066  0.85456148  1
  Mo  Mo197  1  0.49573890  0.90480063  0.37471440  1
  Mo  Mo198  1  0.59260010  0.00642911  -0.01486205  1
  Mo  Mo199  1  0.49620648  0.70029827  0.87909425  1
