# generated using pymatgen
data_HfZrTaTiMo
_symmetry_space_group_name_H-M   'P 1'
_cell_length_a   15.21525809
_cell_length_b   15.21160538
_cell_length_c   16.85272031
_cell_angle_alpha   89.95233617
_cell_angle_beta   89.99241841
_cell_angle_gamma   90.08304141
_symmetry_Int_Tables_number   1
_chemical_formula_structural   HfZrTaTiMo
_chemical_formula_sum   'Hf40 Zr40 Ta40 Ti40 Mo40'
_cell_volume   3900.53138791
_cell_formula_units_Z   40
loop_
 _symmetry_equiv_pos_site_id
 _symmetry_equiv_pos_as_xyz
  1  'x, y, z'
loop_
 _atom_site_type_symbol
 _atom_site_label
 _atom_site_symmetry_multiplicity
 _atom_site_fract_x
 _atom_site_fract_y
 _atom_site_fract_z
 _atom_site_occupancy
  Hf  Hf0  1  0.90436511  0.51314841  0.37453943  1
  Hf  Hf1  1  0.49858741  0.90494380  0.89179847  1
  Hf  Hf2  1  0.30070642  0.10409439  0.37395517  1
  Hf  Hf3  1  -0.00115488  0.19721578  0.75214960  1
  Hf  Hf4  1  0.60881391  0.39256006  -0.00829833  1
  Hf  Hf5  1  0.38652214  0.38368251  0.50194530  1
  Hf  Hf6  1  0.92605466  0.30286350  0.39258346  1
  Hf  Hf7  1  0.49715217  0.70537927  0.10992283  1
  Hf  Hf8  1  0.20390536  0.80089458  0.48449658  1
  Hf  Hf9  1  0.10863204  0.09637824  0.87719809  1
  Hf  Hf10  1  0.90219878  0.30024416  0.12609670  1
  Hf  Hf11  1  0.90788956  0.09275115  0.37847230  1
  Hf  Hf12  1  0.20040124  0.21953343  0.75195365  1
  Hf  Hf13  1  0.39991941  0.77924594  0.74714980  1
  Hf  Hf14  1  0.10464171  0.50242165  0.12959156  1
  Hf  Hf15  1  0.91038531  0.70918680  0.13712524  1
  Hf  Hf16  1  0.10454404  0.69453444  0.61782850  1
  Hf  Hf17  1  0.49716300  0.49558025  0.37294555  1
  Hf  Hf18  1  0.08048424  0.89189390  0.12164605  1
  Hf  Hf19  1  0.81404043  0.61115643  0.75476387  1
  Hf  Hf20  1  0.88565035  0.89499220  0.63882457  1
  Hf  Hf21  1  0.59970948  0.40543963  0.25468602  1
  Hf  Hf22  1  0.70551131  0.89794261  0.36151409  1
  Hf  Hf23  1  0.39592661  -0.00945858  0.50424880  1
  Hf  Hf24  1  0.79792085  0.23420307  0.73978476  1
  Hf  Hf25  1  0.48780502  0.29033649  0.62435598  1
  Hf  Hf26  1  0.48389864  0.70132702  0.89597746  1
  Hf  Hf27  1  0.70206380  0.71111796  0.11413933  1
  Hf  Hf28  1  -0.00487942  0.79011512  0.76633517  1
  Hf  Hf29  1  0.69212151  0.10314914  0.86671752  1
  Hf  Hf30  1  0.09481040  0.90062619  0.62828558  1
  Hf  Hf31  1  0.29046080  0.88789815  0.12511502  1
  Hf  Hf32  1  0.49882236  0.29034756  0.87458640  1
  Hf  Hf33  1  0.60399164  -0.01121088  0.49726925  1
  Hf  Hf34  1  0.29707316  0.48156528  0.36320277  1
  Hf  Hf35  1  0.90350083  0.71904153  0.35750757  1
  Hf  Hf36  1  0.59979035  0.60611776  0.77078676  1
  Hf  Hf37  1  0.18210754  0.79534224  0.26088918  1
  Hf  Hf38  1  0.50513961  0.89554636  0.36167916  1
  Hf  Hf39  1  0.70448433  0.30663476  0.12367507  1
  Zr  Zr40  1  0.69146177  0.52031717  0.62807019  1
  Zr  Zr41  1  0.20339111  0.80199229  0.75430706  1
  Zr  Zr42  1  0.61335718  0.81275151  0.76531765  1
  Zr  Zr43  1  0.79919520  0.62318638  0.49900827  1
  Zr  Zr44  1  0.40142306  0.79258062  0.24943891  1
  Zr  Zr45  1  0.19631758  -0.00067593  0.50252667  1
  Zr  Zr46  1  0.79890755  0.40144260  0.26636735  1
  Zr  Zr47  1  0.60997338  0.59419100  -0.01213295  1
  Zr  Zr48  1  0.90429656  0.50577045  0.14208349  1
  Zr  Zr49  1  -0.00744853  -0.00592540  -0.01854795  1
  Zr  Zr50  1  0.70054964  0.08766809  0.64169992  1
  Zr  Zr51  1  0.39520611  -0.01283000  0.74146870  1
  Zr  Zr52  1  0.80349608  0.41019271  0.51628034  1
  Zr  Zr53  1  0.48653840  0.50104187  0.63221402  1
  Zr  Zr54  1  0.29524079  0.89621644  0.89009260  1
  Zr  Zr55  1  0.82380792  0.60077004  -0.00377735  1
  Zr  Zr56  1  0.01109713  0.18984545  0.24737328  1
  Zr  Zr57  1  0.11028331  0.67954257  0.88622175  1
  Zr  Zr58  1  0.19156164  0.59732850  0.26334860  1
  Zr  Zr59  1  0.80387612  0.20441554  0.51522729  1
  Zr  Zr60  1  0.37484575  0.39743650  0.74722795  1
  Zr  Zr61  1  -0.00846745  0.40126756  -0.00321061  1
  Zr  Zr62  1  0.30022212  0.13179690  0.61047288  1
  Zr  Zr63  1  -0.00659487  0.80003885  0.49746616  1
  Zr  Zr64  1  0.39932127  0.01246487  0.02097088  1
  Zr  Zr65  1  0.39816684  0.00613307  0.23452893  1
  Zr  Zr66  1  0.79996840  0.00158868  0.50307717  1
  Zr  Zr67  1  0.80369232  0.19835241  0.25938947  1
  Zr  Zr68  1  0.50423192  0.49872958  0.12569815  1
  Zr  Zr69  1  -0.01690006  0.39462195  0.74764734  1
  Zr  Zr70  1  0.60517865  0.19868633  0.25316934  1
  Zr  Zr71  1  0.72623971  0.47421592  0.86549989  1
  Zr  Zr72  1  0.20042173  0.00713457  0.74218946  1
  Zr  Zr73  1  0.29186967  0.30497703  0.88522571  1
  Zr  Zr74  1  0.20082573  0.19624766  0.01404294  1
  Zr  Zr75  1  0.50182141  0.09374111  0.62565021  1
  Zr  Zr76  1  0.21686447  0.59365043  0.74528163  1
  Zr  Zr77  1  0.09078044  0.49255251  0.61410509  1
  Zr  Zr78  1  0.51856635  0.69105578  0.61906005  1
  Zr  Zr79  1  0.40805274  0.79801616  0.49283386  1
  Ta  Ta80  1  0.59904967  0.19235913  0.00333886  1
  Ta  Ta81  1  0.52080622  0.69073525  0.37246710  1
  Ta  Ta82  1  0.50137909  0.09813009  0.37450062  1
  Ta  Ta83  1  0.10183773  0.30184969  0.12205767  1
  Ta  Ta84  1  0.49152919  0.49311745  0.86858125  1
  Ta  Ta85  1  0.40531316  0.59594896  0.24812271  1
  Ta  Ta86  1  0.19034010  0.38472819  0.49271956  1
  Ta  Ta87  1  0.09019628  0.48912136  0.38318830  1
  Ta  Ta88  1  0.20545143  0.40929395  0.00653373  1
  Ta  Ta89  1  0.30766955  0.69085567  0.61127632  1
  Ta  Ta90  1  0.09851016  0.69552955  0.11541063  1
  Ta  Ta91  1  0.20277515  0.19680440  0.23579117  1
  Ta  Ta92  1  0.51513415  0.89148711  0.62757252  1
  Ta  Ta93  1  0.40030122  0.59379361  0.49031462  1
  Ta  Ta94  1  0.79949606  0.21430012  -0.01148785  1
  Ta  Ta95  1  0.19976038  0.59575418  0.48489368  1
  Ta  Ta96  1  0.79630554  0.01255778  -0.00530173  1
  Ta  Ta97  1  0.49169315  0.29360851  0.37591365  1
  Ta  Ta98  1  0.40394393  0.20203020  0.23959669  1
  Ta  Ta99  1  -0.00968487  0.78749901  -0.01482666  1
  Ta  Ta100  1  0.19372405  0.00061823  0.01404416  1
  Ta  Ta101  1  0.60635573  -0.00064563  0.23563320  1
  Ta  Ta102  1  0.29084174  0.68784756  0.12310213  1
  Ta  Ta103  1  0.59472647  0.20029308  0.74836137  1
  Ta  Ta104  1  0.30908230  0.10120414  0.88052728  1
  Ta  Ta105  1  0.40086657  0.40133152  0.00102937  1
  Ta  Ta106  1  0.59820545  0.19943935  0.49590005  1
  Ta  Ta107  1  -0.00360562  0.00218143  0.50346735  1
  Ta  Ta108  1  0.69023024  0.52021525  0.38402148  1
  Ta  Ta109  1  0.59664312  0.39939395  0.50174102  1
  Ta  Ta110  1  0.70855411  0.10186526  0.11906893  1
  Ta  Ta111  1  0.07974342  0.90932253  0.36819269  1
  Ta  Ta112  1  0.30106331  0.51436020  0.88047148  1
  Ta  Ta113  1  0.50010835  0.29989829  0.12287233  1
  Ta  Ta114  1  0.30418202  0.30987391  0.13067336  1
  Ta  Ta115  1  0.60985010  0.38799999  0.74666851  1
  Ta  Ta116  1  0.90071574  0.09826713  0.11573202  1
  Ta  Ta117  1  -0.00590154  -0.00723286  0.76636541  1
  Ta  Ta118  1  0.79686468  0.81274585  0.49470259  1
  Ta  Ta119  1  0.18203740  0.00904204  0.23934977  1
  Ti  Ti120  1  0.60488431  0.61360417  0.24464664  1
  Ti  Ti121  1  0.88225301  0.88709556  0.87568902  1
  Ti  Ti122  1  0.29578820  0.29126644  0.36197111  1
  Ti  Ti123  1  0.51063753  0.89360668  0.12002427  1
  Ti  Ti124  1  0.71899876  0.71844183  0.89067173  1
  Ti  Ti125  1  0.69621303  0.30711945  0.38754418  1
  Ti  Ti126  1  0.40332440  0.20026908  0.01401609  1
  Ti  Ti127  1  0.10454390  0.11108501  0.38389172  1
  Ti  Ti128  1  0.69698958  0.90531472  0.89485206  1
  Ti  Ti129  1  0.61499720  0.78915127  0.49648017  1
  Ti  Ti130  1  0.70916334  0.50407794  0.12334594  1
  Ti  Ti131  1  0.78857760  -0.01492016  0.76039269  1
  Ti  Ti132  1  0.90725020  0.69385672  0.62359789  1
  Ti  Ti133  1  0.88645725  0.90338296  0.11440627  1
  Ti  Ti134  1  0.80090546  0.00591794  0.24258889  1
  Ti  Ti135  1  -0.01072706  -0.00639158  0.24341930  1
  Ti  Ti136  1  0.91671857  0.50240562  0.87480264  1
  Ti  Ti137  1  0.08972182  0.30274164  0.88110673  1
  Ti  Ti138  1  0.69769705  0.10038535  0.37466898  1
  Ti  Ti139  1  0.91013603  0.09938090  0.63298555  1
  Ti  Ti140  1  0.38554130  0.59217140  0.00784253  1
  Ti  Ti141  1  0.11070375  0.48785797  0.87498835  1
  Ti  Ti142  1  0.30253171  0.49330168  0.13983103  1
  Ti  Ti143  1  0.49716497  0.09567844  0.87195587  1
  Ti  Ti144  1  0.00789127  0.59377584  0.74991041  1
  Ti  Ti145  1  0.09651063  0.10489607  0.62091534  1
  Ti  Ti146  1  0.71322995  0.72598982  0.63344743  1
  Ti  Ti147  1  0.89036762  0.10868338  0.86671310  1
  Ti  Ti148  1  0.29309099  0.90806362  0.36069433  1
  Ti  Ti149  1  0.39420345  0.19352627  0.75491084  1
  Ti  Ti150  1  0.09895551  0.29314691  0.61696713  1
  Ti  Ti151  1  0.01716694  0.39729202  0.25587150  1
  Ti  Ti152  1  -0.00646254  0.19641817  -0.00545761  1
  Ti  Ti153  1  0.79119006  0.60818484  0.25452611  1
  Ti  Ti154  1  0.28848134  0.49725054  0.61454089  1
  Ti  Ti155  1  0.59881351  0.00858009  0.01195897  1
  Ti  Ti156  1  0.69907627  0.90302457  0.11425427  1
  Ti  Ti157  1  0.79577568  0.81348035  0.24191434  1
  Ti  Ti158  1  0.19681897  0.79346324  -0.00305650  1
  Ti  Ti159  1  0.31063067  0.69227735  0.37345915  1
  Mo  Mo160  1  0.00102694  0.60294244  0.49561997  1
  Mo  Mo161  1  0.51082537  0.10644629  0.12615591  1
  Mo  Mo162  1  0.11332105  0.29456933  0.37200164  1
  Mo  Mo163  1  0.91279998  0.30147563  0.61026457  1
  Mo  Mo164  1  0.88834877  0.30745782  0.87771286  1
  Mo  Mo165  1  0.01194677  0.59728992  -0.00042597  1
  Mo  Mo166  1  0.29584199  0.10324898  0.13160938  1
  Mo  Mo167  1  0.09244217  0.69271920  0.38306444  1
  Mo  Mo168  1  0.70011133  0.70744436  0.36292540  1
  Mo  Mo169  1  0.39032188  0.79910245  0.01641167  1
  Mo  Mo170  1  0.69504717  0.89388700  0.62639674  1
  Mo  Mo171  1  0.09572289  0.89874572  0.88263373  1
  Mo  Mo172  1  0.68367105  0.30425583  0.61652592  1
  Mo  Mo173  1  0.20618890  0.59065066  0.00849283  1
  Mo  Mo174  1  0.08933148  0.09584123  0.11910687  1
  Mo  Mo175  1  0.40170593  0.39119998  0.24768675  1
  Mo  Mo176  1  0.80178820  0.39954369  0.00265425  1
  Mo  Mo177  1  0.69772196  0.29390785  0.87058046  1
  Mo  Mo178  1  -0.00009856  0.39778740  0.50412590  1
  Mo  Mo179  1  0.80605998  0.81302168  0.00370832  1
  Mo  Mo180  1  0.79924280  0.40964310  0.72367097  1
  Mo  Mo181  1  0.80322775  0.80127386  0.76000852  1
  Mo  Mo182  1  0.89812724  0.91104385  0.36827901  1
  Mo  Mo183  1  0.18290676  0.40372556  0.75502622  1
  Mo  Mo184  1  0.01350205  0.19248214  0.50831246  1
  Mo  Mo185  1  -0.00230111  0.80976470  0.24709615  1
  Mo  Mo186  1  0.19643621  0.38680487  0.24872878  1
  Mo  Mo187  1  0.30332730  0.87653837  0.62104621  1
  Mo  Mo188  1  0.90411611  0.69200017  0.87712054  1
  Mo  Mo189  1  0.40081834  0.59954272  0.75422566  1
  Mo  Mo190  1  0.28446090  0.31459438  0.62518277  1
  Mo  Mo191  1  0.59805038  0.60151552  0.49537210  1
  Mo  Mo192  1  0.60558655  0.80255828  0.23936256  1
  Mo  Mo193  1  0.30507531  0.69627673  0.89119132  1
  Mo  Mo194  1  0.20442924  0.20709533  0.49364033  1
  Mo  Mo195  1  0.59552991  -0.00127560  0.75809093  1
  Mo  Mo196  1  0.90285988  0.51419987  0.62485585  1
  Mo  Mo197  1  0.60166908  0.81105034  -0.00464823  1
  Mo  Mo198  1  0.00792739  0.60759584  0.25642378  1
  Mo  Mo199  1  0.40577509  0.19834094  0.48552710  1
