# generated using pymatgen
data_HfZrTaTiMo
_symmetry_space_group_name_H-M   'P 1'
_cell_length_a   15.21797896
_cell_length_b   15.21368993
_cell_length_c   16.84538691
_cell_angle_alpha   90.00294195
_cell_angle_beta   90.07953482
_cell_angle_gamma   89.99167463
_symmetry_Int_Tables_number   1
_chemical_formula_structural   HfZrTaTiMo
_chemical_formula_sum   'Hf40 Zr40 Ta40 Ti40 Mo40'
_cell_volume   3900.06734931
_cell_formula_units_Z   40
loop_
 _symmetry_equiv_pos_site_id
 _symmetry_equiv_pos_as_xyz
  1  'x, y, z'
loop_
 _atom_site_type_symbol
 _atom_site_label
 _atom_site_symmetry_multiplicity
 _atom_site_fract_x
 _atom_site_fract_y
 _atom_site_fract_z
 _atom_site_occupancy
  Hf  Hf0  1  0.90693048  0.70554142  0.38184611  1
  Hf  Hf1  1  0.19469562  0.58815991  -0.00145626  1
  Hf  Hf2  1  0.59151329  0.20648868  0.48535657  1
  Hf  Hf3  1  0.28885838  0.29958600  0.87269923  1
  Hf  Hf4  1  0.39262394  0.79130529  0.23357123  1
  Hf  Hf5  1  0.71083687  0.91156726  0.62725999  1
  Hf  Hf6  1  0.20324794  0.38838054  0.01216955  1
  Hf  Hf7  1  0.30186114  0.29182048  0.36621627  1
  Hf  Hf8  1  0.10750504  0.90753899  0.88001802  1
  Hf  Hf9  1  0.28575640  0.09429612  0.89126617  1
  Hf  Hf10  1  0.31639133  0.89238233  0.87924131  1
  Hf  Hf11  1  0.50685649  0.49092213  0.62372611  1
  Hf  Hf12  1  0.30193833  0.90311192  0.62949088  1
  Hf  Hf13  1  0.41349773  0.58824782  0.24072882  1
  Hf  Hf14  1  0.50413797  0.90852618  0.62482261  1
  Hf  Hf15  1  0.49338097  0.30181794  0.35527198  1
  Hf  Hf16  1  0.60357660  0.21025221  0.00751967  1
  Hf  Hf17  1  0.71546306  0.90587593  0.87562153  1
  Hf  Hf18  1  0.29835357  0.49025912  0.37127462  1
  Hf  Hf19  1  0.69941481  0.70353142  0.87166524  1
  Hf  Hf20  1  0.02630288  0.79994191  0.25339440  1
  Hf  Hf21  1  0.89320699  0.70662150  0.87326177  1
  Hf  Hf22  1  0.60753597  0.01572873  0.75877318  1
  Hf  Hf23  1  0.80448137  0.80440804  0.24529546  1
  Hf  Hf24  1  0.69454801  0.49288571  0.86332388  1
  Hf  Hf25  1  -0.00094318  0.01533871  0.75181014  1
  Hf  Hf26  1  0.19055303  0.39043217  0.73188803  1
  Hf  Hf27  1  0.79145703  0.59880452  0.00660582  1
  Hf  Hf28  1  0.09901902  0.28511219  0.38397654  1
  Hf  Hf29  1  0.37980302  -0.00196689  0.22976174  1
  Hf  Hf30  1  0.39890664  0.39899057  0.74616355  1
  Hf  Hf31  1  0.20843406  0.39998092  0.51099794  1
  Hf  Hf32  1  0.50477986  0.90710498  0.35906117  1
  Hf  Hf33  1  0.09667826  0.47572073  0.86781455  1
  Hf  Hf34  1  0.19501771  0.79326683  0.75408018  1
  Hf  Hf35  1  0.61269830  0.80613634  0.48904543  1
  Hf  Hf36  1  0.90053217  0.70214038  0.61435403  1
  Hf  Hf37  1  0.19565861  0.58927248  0.74619277  1
  Hf  Hf38  1  0.50481826  0.10646246  0.14190407  1
  Hf  Hf39  1  0.20120108  -0.00166992  0.50719523  1
  Zr  Zr40  1  0.50427494  0.49248149  0.38189435  1
  Zr  Zr41  1  0.08918082  0.69731701  0.61247094  1
  Zr  Zr42  1  0.29562556  0.69813920  0.37911315  1
  Zr  Zr43  1  -0.00975526  -0.01217876  0.50940535  1
  Zr  Zr44  1  -0.00668248  0.21772333  0.73814845  1
  Zr  Zr45  1  0.06713230  0.09329375  0.11134438  1
  Zr  Zr46  1  0.49674359  0.31713183  0.14439917  1
  Zr  Zr47  1  0.19386857  0.18738224  0.74748583  1
  Zr  Zr48  1  0.49222654  0.70603582  0.87745500  1
  Zr  Zr49  1  0.22268744  0.79077918  0.00060445  1
  Zr  Zr50  1  0.38813501  0.61125995  0.01173876  1
  Zr  Zr51  1  0.90359299  0.29326140  0.12902905  1
  Zr  Zr52  1  0.59312768  0.59337119  -0.00272815  1
  Zr  Zr53  1  0.49735210  0.10054044  0.35150459  1
  Zr  Zr54  1  0.91010849  0.10116168  0.37775108  1
  Zr  Zr55  1  0.50518966  0.69924644  0.62108376  1
  Zr  Zr56  1  0.40358987  -0.00895446  0.01599563  1
  Zr  Zr57  1  0.92228541  0.91037562  0.12855447  1
  Zr  Zr58  1  0.69381211  0.30306149  0.61530264  1
  Zr  Zr59  1  0.61506030  0.79303052  0.24889971  1
  Zr  Zr60  1  0.80750650  0.39338874  0.73490908  1
  Zr  Zr61  1  0.89992617  0.69054725  0.13014204  1
  Zr  Zr62  1  0.50444200  0.10411986  0.62642075  1
  Zr  Zr63  1  0.18209609  0.39722018  0.24543437  1
  Zr  Zr64  1  0.60621636  0.80131010  0.74908670  1
  Zr  Zr65  1  -0.00411655  0.57708519  0.26647081  1
  Zr  Zr66  1  0.61748927  0.00449879  0.01084851  1
  Zr  Zr67  1  0.19550559  0.60907379  0.24947948  1
  Zr  Zr68  1  0.29284509  0.89873403  0.37159555  1
  Zr  Zr69  1  0.29383591  0.09914992  0.36982735  1
  Zr  Zr70  1  0.40323515  0.80177957  0.49631370  1
  Zr  Zr71  1  0.10244654  0.69956720  0.12124369  1
  Zr  Zr72  1  0.41024951  0.41020850  -0.00019415  1
  Zr  Zr73  1  0.29474926  0.69299794  0.61766668  1
  Zr  Zr74  1  -0.00188097  0.58916965  -0.00485822  1
  Zr  Zr75  1  0.79223199  0.40358804  0.26434806  1
  Zr  Zr76  1  0.90013318  0.29108530  0.87635801  1
  Zr  Zr77  1  0.39150768  0.21036734  0.00915876  1
  Zr  Zr78  1  0.62943756  0.21687302  0.25310762  1
  Zr  Zr79  1  0.89177272  0.49162636  0.87317044  1
  Ta  Ta80  1  0.70438156  0.50618065  0.61388095  1
  Ta  Ta81  1  0.00367072  0.79846240  -0.01233810  1
  Ta  Ta82  1  0.61472389  0.40083588  0.00870275  1
  Ta  Ta83  1  0.50929356  0.90199048  0.88286535  1
  Ta  Ta84  1  0.00320587  0.37799256  0.00152933  1
  Ta  Ta85  1  0.40107900  0.79980516  0.74900217  1
  Ta  Ta86  1  0.79999904  0.00909379  0.24317016  1
  Ta  Ta87  1  0.39307275  0.58451885  0.50448780  1
  Ta  Ta88  1  0.70946182  0.70476120  0.61991204  1
  Ta  Ta89  1  0.26993278  0.10053303  0.11069307  1
  Ta  Ta90  1  0.40753028  0.00627643  0.49641774  1
  Ta  Ta91  1  0.51580599  0.69394431  0.12588404  1
  Ta  Ta92  1  0.50003760  0.29390738  0.63224733  1
  Ta  Ta93  1  0.89827349  0.89767676  0.64232893  1
  Ta  Ta94  1  0.39607256  0.59940369  0.74435841  1
  Ta  Ta95  1  0.90071709  0.90889538  0.86846075  1
  Ta  Ta96  1  0.79716751  0.20312369  0.48627344  1
  Ta  Ta97  1  0.60247279  0.60240578  0.49850790  1
  Ta  Ta98  1  0.81861549  0.20997113  0.26795920  1
  Ta  Ta99  1  0.81208062  0.82175657  0.49503042  1
  Ta  Ta100  1  0.09403603  0.89662559  0.63337734  1
  Ta  Ta101  1  0.71263066  0.11237735  0.87972869  1
  Ta  Ta102  1  0.20337520  0.19484012  0.51213600  1
  Ta  Ta103  1  0.50151074  0.10507443  0.88149965  1
  Ta  Ta104  1  0.17765522  -0.01491845  0.24078551  1
  Ta  Ta105  1  0.77814338  0.60497299  0.26351582  1
  Ta  Ta106  1  0.18707983  0.18446111  0.24406838  1
  Ta  Ta107  1  0.29571647  0.69106129  0.86629585  1
  Ta  Ta108  1  0.40457264  0.19423499  0.76090717  1
  Ta  Ta109  1  0.50690914  0.69291444  0.37459105  1
  Ta  Ta110  1  0.90465561  0.90767494  0.36544639  1
  Ta  Ta111  1  -0.00502669  0.59519882  0.75129423  1
  Ta  Ta112  1  0.40316202  0.00190900  0.76164986  1
  Ta  Ta113  1  0.00103682  0.40561557  0.49227466  1
  Ta  Ta114  1  0.60967130  0.80219551  0.01292184  1
  Ta  Ta115  1  0.40639039  0.38460124  0.50895791  1
  Ta  Ta116  1  0.10047450  0.09701596  0.62244957  1
  Ta  Ta117  1  0.82093368  0.01885426  0.00779900  1
  Ta  Ta118  1  0.60358052  0.21315086  0.75983425  1
  Ta  Ta119  1  0.79859041  0.60699998  0.73921656  1
  Ti  Ti120  1  0.89629897  0.30750151  0.60376077  1
  Ti  Ti121  1  0.79648544  0.18541140  0.74536952  1
  Ti  Ti122  1  0.08132252  0.11236427  0.89445273  1
  Ti  Ti123  1  0.11438447  0.90244806  0.10420233  1
  Ti  Ti124  1  0.79851237  0.21183944  0.00690748  1
  Ti  Ti125  1  0.10035770  0.08736248  0.37764419  1
  Ti  Ti126  1  0.09175697  0.29907548  0.61275697  1
  Ti  Ti127  1  0.79386085  0.60812965  0.48995759  1
  Ti  Ti128  1  0.80335098  0.81378206  0.01425965  1
  Ti  Ti129  1  0.88907270  0.49496452  0.38999493  1
  Ti  Ti130  1  0.30230183  0.48935615  0.13383299  1
  Ti  Ti131  1  0.08757149  0.50141983  0.61852838  1
  Ti  Ti132  1  0.08026604  0.48714312  0.12631775  1
  Ti  Ti133  1  -0.00047350  0.79430597  0.75945025  1
  Ti  Ti134  1  0.60075162  0.59605385  0.74220821  1
  Ti  Ti135  1  0.30893055  0.09749386  0.63004542  1
  Ti  Ti136  1  0.00057950  0.19541332  0.50819819  1
  Ti  Ti137  1  0.60701348  0.00696570  0.49214610  1
  Ti  Ti138  1  0.09847362  0.28488976  0.12709970  1
  Ti  Ti139  1  0.50967854  0.30880462  0.87262712  1
  Ti  Ti140  1  0.88672211  0.09771887  0.61637049  1
  Ti  Ti141  1  0.69334705  0.50940330  0.13055870  1
  Ti  Ti142  1  0.70373252  0.30483380  0.87523243  1
  Ti  Ti143  1  0.30379489  0.49862106  0.87239756  1
  Ti  Ti144  1  0.70292478  0.09761510  0.37050347  1
  Ti  Ti145  1  0.70234834  0.10543610  0.61693514  1
  Ti  Ti146  1  0.09734900  0.89262892  0.37991567  1
  Ti  Ti147  1  0.39561911  0.19540831  0.50108661  1
  Ti  Ti148  1  0.49978239  0.50094988  0.86252177  1
  Ti  Ti149  1  0.71440769  0.11415171  0.13301528  1
  Ti  Ti150  1  0.30734293  0.28803624  0.62865733  1
  Ti  Ti151  1  0.51457108  0.89959293  0.13429570  1
  Ti  Ti152  1  0.89942764  0.50583294  0.60993638  1
  Ti  Ti153  1  0.20329139  -0.00135122  0.74892789  1
  Ti  Ti154  1  0.18597445  0.59146439  0.49130358  1
  Ti  Ti155  1  0.70961294  0.91120814  0.37094474  1
  Ti  Ti156  1  -0.01220350  0.37894784  0.27259539  1
  Ti  Ti157  1  0.89024980  0.48781591  0.12662760  1
  Ti  Ti158  1  0.60403290  0.42528840  0.25114678  1
  Ti  Ti159  1  0.18848786  0.80037425  0.50241503  1
  Mo  Mo160  1  0.29512577  0.89774661  0.12025411  1
  Mo  Mo161  1  0.00072403  0.80746605  0.49822072  1
  Mo  Mo162  1  0.20390072  0.80717905  0.24071683  1
  Mo  Mo163  1  0.10273440  0.70315745  0.38829577  1
  Mo  Mo164  1  -0.00016777  0.40834153  0.72684837  1
  Mo  Mo165  1  0.70993570  0.31446112  0.12546161  1
  Mo  Mo166  1  0.70311865  0.70693449  0.38587246  1
  Mo  Mo167  1  0.37555450  0.19866844  0.22863613  1
  Mo  Mo168  1  0.42128811  0.80182183  0.01807578  1
  Mo  Mo169  1  -0.01977177  0.19033790  -0.00303082  1
  Mo  Mo170  1  0.00376568  0.00075114  0.25771400  1
  Mo  Mo171  1  0.79374109  0.39946769  0.00864619  1
  Mo  Mo172  1  0.09689279  0.29622797  0.87722150  1
  Mo  Mo173  1  0.69800722  0.50910724  0.38970170  1
  Mo  Mo174  1  0.88905589  0.09746457  0.87168313  1
  Mo  Mo175  1  0.59950692  0.39895263  0.75198820  1
  Mo  Mo176  1  0.61737514  -0.00024408  0.24075824  1
  Mo  Mo177  1  0.70929059  0.91035563  0.12275131  1
  Mo  Mo178  1  0.09410524  0.49502865  0.38274022  1
  Mo  Mo179  1  0.70015338  0.31377796  0.38982137  1
  Mo  Mo180  1  0.59720380  0.39940616  0.49850628  1
  Mo  Mo181  1  0.70581413  0.70249512  0.12149023  1
  Mo  Mo182  1  -0.00180089  0.59464552  0.48677258  1
  Mo  Mo183  1  0.19654604  0.00099280  -0.00232921  1
  Mo  Mo184  1  0.17708870  0.20945475  -0.00104228  1
  Mo  Mo185  1  0.79118698  0.00342900  0.49640316  1
  Mo  Mo186  1  0.50591222  0.50222596  0.12704332  1
  Mo  Mo187  1  0.79699856  0.40761879  0.49926500  1
  Mo  Mo188  1  0.90258886  0.30099865  0.39325567  1
  Mo  Mo189  1  -0.00655220  -0.01086971  -0.01170774  1
  Mo  Mo190  1  0.00743332  0.20043202  0.25776263  1
  Mo  Mo191  1  0.29980213  0.49554558  0.61883341  1
  Mo  Mo192  1  0.80897657  0.80002556  0.74690273  1
  Mo  Mo193  1  0.89232919  0.10552843  0.13580260  1
  Mo  Mo194  1  0.60733459  0.60173017  0.25498910  1
  Mo  Mo195  1  0.28927842  0.29316124  0.13532376  1
  Mo  Mo196  1  0.80236285  0.01139128  0.74897370  1
  Mo  Mo197  1  0.30437757  0.69403616  0.12802001  1
  Mo  Mo198  1  0.09547461  0.69338477  0.87233247  1
  Mo  Mo199  1  0.39059080  0.40109259  0.24456317  1
