# generated using pymatgen
data_HfZrTaTiMo
_symmetry_space_group_name_H-M   'P 1'
_cell_length_a   15.21104860
_cell_length_b   15.20851265
_cell_length_c   16.81691908
_cell_angle_alpha   90.04553361
_cell_angle_beta   89.98496492
_cell_angle_gamma   90.16403164
_symmetry_Int_Tables_number   1
_chemical_formula_structural   HfZrTaTiMo
_chemical_formula_sum   'Hf40 Zr40 Ta40 Ti40 Mo40'
_cell_volume   3890.36545364
_cell_formula_units_Z   40
loop_
 _symmetry_equiv_pos_site_id
 _symmetry_equiv_pos_as_xyz
  1  'x, y, z'
loop_
 _atom_site_type_symbol
 _atom_site_label
 _atom_site_symmetry_multiplicity
 _atom_site_fract_x
 _atom_site_fract_y
 _atom_site_fract_z
 _atom_site_occupancy
  Hf  Hf0  1  0.19270994  -0.01683436  0.48939248  1
  Hf  Hf1  1  0.09154540  0.70446556  0.61861609  1
  Hf  Hf2  1  -0.00828957  0.60301331  0.48554066  1
  Hf  Hf3  1  -0.01289540  0.40907868  0.00639280  1
  Hf  Hf4  1  0.50342323  0.90497609  0.38297050  1
  Hf  Hf5  1  0.29457507  0.08846064  0.61802974  1
  Hf  Hf6  1  0.60843598  0.40577201  0.00189702  1
  Hf  Hf7  1  0.09446190  0.69987334  0.12332322  1
  Hf  Hf8  1  0.69826243  0.69123815  0.37832176  1
  Hf  Hf9  1  0.70765799  0.89581239  0.13246940  1
  Hf  Hf10  1  0.00205939  0.40171660  0.51923173  1
  Hf  Hf11  1  0.01000606  0.00610152  0.75167468  1
  Hf  Hf12  1  0.49342208  0.70956758  0.37553387  1
  Hf  Hf13  1  0.71131164  0.49303289  0.13256718  1
  Hf  Hf14  1  0.10364385  0.51639045  0.88338361  1
  Hf  Hf15  1  0.40375412  0.59718110  0.50130185  1
  Hf  Hf16  1  0.30193907  0.49124212  0.62999441  1
  Hf  Hf17  1  0.90452114  0.91170760  0.14267248  1
  Hf  Hf18  1  0.51531410  0.70008656  0.88065210  1
  Hf  Hf19  1  0.69348456  0.09958398  0.87348344  1
  Hf  Hf20  1  0.70715545  0.90261051  0.36819402  1
  Hf  Hf21  1  0.79966897  0.41039234  0.73867686  1
  Hf  Hf22  1  0.28947270  0.28636461  0.86756915  1
  Hf  Hf23  1  0.81196520  0.78910113  0.25988968  1
  Hf  Hf24  1  0.39095881  0.18966804  0.24553967  1
  Hf  Hf25  1  0.80451517  0.19937971  -0.00204572  1
  Hf  Hf26  1  0.89350020  0.47791212  0.37107802  1
  Hf  Hf27  1  0.49181405  0.10130232  0.38556491  1
  Hf  Hf28  1  0.19438799  0.38159319  0.25010927  1
  Hf  Hf29  1  0.19960282  0.38764529  0.50636934  1
  Hf  Hf30  1  0.10475535  0.90217462  0.62982955  1
  Hf  Hf31  1  0.18528036  0.79655073  0.76504136  1
  Hf  Hf32  1  -0.00882285  0.80173759  0.00212181  1
  Hf  Hf33  1  0.89393919  0.90044921  0.86484383  1
  Hf  Hf34  1  0.48978316  0.91461195  0.61934968  1
  Hf  Hf35  1  0.90121381  0.89134216  0.63440739  1
  Hf  Hf36  1  0.19436810  0.59476438  0.74469052  1
  Hf  Hf37  1  0.19208586  0.59316608  0.49489775  1
  Hf  Hf38  1  0.21478786  0.80421970  0.24757546  1
  Hf  Hf39  1  0.00534088  0.21389196  -0.00051025  1
  Zr  Zr40  1  0.69536002  0.89347227  0.87174886  1
  Zr  Zr41  1  0.48811675  0.30812278  0.12067292  1
  Zr  Zr42  1  0.40763928  0.80726950  0.01268251  1
  Zr  Zr43  1  -0.00141446  0.01587502  0.00127141  1
  Zr  Zr44  1  0.39365356  0.39845919  -0.00809707  1
  Zr  Zr45  1  0.60923434  0.00775509  0.50715589  1
  Zr  Zr46  1  0.90573069  0.49815426  0.86617164  1
  Zr  Zr47  1  0.70381207  0.68923862  0.62147387  1
  Zr  Zr48  1  0.59963448  0.59671212  0.49721650  1
  Zr  Zr49  1  0.31145036  0.48830840  0.36900574  1
  Zr  Zr50  1  0.50071956  0.28907591  0.88244358  1
  Zr  Zr51  1  0.70969801  0.10981654  0.63261812  1
  Zr  Zr52  1  0.49415708  0.12643833  0.61721681  1
  Zr  Zr53  1  0.19114790  0.38939302  0.00226944  1
  Zr  Zr54  1  0.50309105  0.50195518  0.86553759  1
  Zr  Zr55  1  0.79757864  0.37712904  0.50961222  1
  Zr  Zr56  1  0.81151398  0.59376040  -0.00124891  1
  Zr  Zr57  1  0.81333586  -0.00056923  0.49950771  1
  Zr  Zr58  1  0.29854603  0.70683407  0.61949423  1
  Zr  Zr59  1  0.38973017  0.80856612  0.75245788  1
  Zr  Zr60  1  0.31174180  0.48497684  0.13710981  1
  Zr  Zr61  1  0.50048984  0.30512333  0.37155779  1
  Zr  Zr62  1  0.59264919  0.78598920  0.23702182  1
  Zr  Zr63  1  0.50982012  0.51413833  0.64112546  1
  Zr  Zr64  1  0.19591069  0.60372647  0.26165820  1
  Zr  Zr65  1  0.59917697  0.40223647  0.51024314  1
  Zr  Zr66  1  0.09872628  0.50702432  0.12563963  1
  Zr  Zr67  1  0.50194995  0.90783311  0.87860182  1
  Zr  Zr68  1  0.59259198  0.79122859  0.73546524  1
  Zr  Zr69  1  0.58523986  0.00259476  0.23912114  1
  Zr  Zr70  1  0.60643890  0.20681105  0.23535385  1
  Zr  Zr71  1  -0.02110966  0.20044748  0.50558287  1
  Zr  Zr72  1  0.01025218  0.81072903  0.47672251  1
  Zr  Zr73  1  0.29476928  0.68762926  0.88880008  1
  Zr  Zr74  1  0.11097817  0.91413715  0.13428965  1
  Zr  Zr75  1  0.40696885  0.62006490  0.24186058  1
  Zr  Zr76  1  0.70797719  0.11533367  0.37196135  1
  Zr  Zr77  1  0.09868001  0.90667291  0.87861297  1
  Zr  Zr78  1  0.31403502  0.89767725  0.37299986  1
  Zr  Zr79  1  0.17894276  0.19225009  0.50179411  1
  Ta  Ta80  1  0.50483966  0.50272410  0.35808814  1
  Ta  Ta81  1  0.39987622  0.01677971  0.75664612  1
  Ta  Ta82  1  0.30009053  0.90866900  0.88444558  1
  Ta  Ta83  1  0.89797354  0.69478276  0.62544457  1
  Ta  Ta84  1  0.89785846  0.10288621  0.86312596  1
  Ta  Ta85  1  0.91532629  0.92213014  0.35635005  1
  Ta  Ta86  1  0.88952360  0.28873371  0.63914546  1
  Ta  Ta87  1  0.90081648  0.29886399  0.86074579  1
  Ta  Ta88  1  0.49286650  0.10239352  0.89155573  1
  Ta  Ta89  1  0.29537981  0.69623218  0.11251634  1
  Ta  Ta90  1  0.59650296  0.00842819  0.74552194  1
  Ta  Ta91  1  0.09597370  0.48739618  0.37101352  1
  Ta  Ta92  1  0.01214659  0.79809039  0.26515173  1
  Ta  Ta93  1  0.60290218  0.40064015  0.24576193  1
  Ta  Ta94  1  -0.00655999  0.39434584  0.24493628  1
  Ta  Ta95  1  0.90010925  0.69574997  0.13167433  1
  Ta  Ta96  1  0.79731118  0.79343486  0.00173437  1
  Ta  Ta97  1  0.71210864  0.09658506  0.12164949  1
  Ta  Ta98  1  0.48854753  0.09815672  0.10547394  1
  Ta  Ta99  1  0.28035151  0.27333683  0.12029068  1
  Ta  Ta100  1  0.80230649  0.58246129  0.49909616  1
  Ta  Ta101  1  0.00448477  0.20500265  0.74452454  1
  Ta  Ta102  1  0.40297919  0.38738083  0.75004697  1
  Ta  Ta103  1  0.00396322  0.00842613  0.50223813  1
  Ta  Ta104  1  0.60622253  0.39460813  0.74172610  1
  Ta  Ta105  1  0.60272819  -0.00199834  0.01017732  1
  Ta  Ta106  1  0.40960620  0.59532865  0.01050913  1
  Ta  Ta107  1  0.10759784  0.11782550  0.12663590  1
  Ta  Ta108  1  0.29632665  0.29192349  0.37426663  1
  Ta  Ta109  1  0.19763286  0.80152728  0.00043734  1
  Ta  Ta110  1  0.09127397  0.31023359  0.86028323  1
  Ta  Ta111  1  0.18790793  0.18923157  0.26047381  1
  Ta  Ta112  1  0.40586677  0.60895610  0.74845491  1
  Ta  Ta113  1  0.80294593  -0.00357073  0.00074114  1
  Ta  Ta114  1  -0.00803221  0.60590510  0.26919111  1
  Ta  Ta115  1  0.30735941  0.28729431  0.63459103  1
  Ta  Ta116  1  0.29630181  0.09613099  0.37808391  1
  Ta  Ta117  1  0.80199862  0.78395446  0.75508364  1
  Ta  Ta118  1  0.60361998  0.80221448  0.51186073  1
  Ta  Ta119  1  0.60841278  0.60433923  0.00488564  1
  Ti  Ti120  1  0.90012848  0.09331323  0.63882062  1
  Ti  Ti121  1  0.40450337  0.39586121  0.50635666  1
  Ti  Ti122  1  0.70006831  0.30633202  0.87120731  1
  Ti  Ti123  1  0.38967506  0.20921683  0.49701116  1
  Ti  Ti124  1  0.20382127  0.00649135  -0.00068243  1
  Ti  Ti125  1  0.39988704  0.80476957  0.50716015  1
  Ti  Ti126  1  -0.00429438  0.60600953  0.74420315  1
  Ti  Ti127  1  0.29599502  0.89934860  0.62033191  1
  Ti  Ti128  1  0.79847431  0.39223295  -0.00432915  1
  Ti  Ti129  1  0.69949644  0.51462218  0.86535558  1
  Ti  Ti130  1  0.19219013  0.39348336  0.74037041  1
  Ti  Ti131  1  0.58226649  0.20553038  0.75099195  1
  Ti  Ti132  1  0.89299682  0.30077595  0.12531957  1
  Ti  Ti133  1  0.60810738  0.79596417  0.01354811  1
  Ti  Ti134  1  0.40756734  0.82015505  0.22039821  1
  Ti  Ti135  1  0.90364085  0.50668635  0.13865934  1
  Ti  Ti136  1  0.90708179  0.69684055  0.87171340  1
  Ti  Ti137  1  0.30118438  0.49452267  0.86561222  1
  Ti  Ti138  1  0.69581731  0.48410441  0.36868867  1
  Ti  Ti139  1  0.20897966  0.00217426  0.75493609  1
  Ti  Ti140  1  0.79948849  0.59176133  0.25950866  1
  Ti  Ti141  1  0.00658641  0.40826418  0.72901158  1
  Ti  Ti142  1  0.61684335  0.21903916  0.50272306  1
  Ti  Ti143  1  0.80568714  0.19512800  0.23656424  1
  Ti  Ti144  1  0.81042058  0.79152741  0.48920492  1
  Ti  Ti145  1  0.51093950  0.51106043  0.13798814  1
  Ti  Ti146  1  0.79571522  0.37746734  0.25040320  1
  Ti  Ti147  1  0.08897387  0.08620924  0.36436760  1
  Ti  Ti148  1  0.70867451  0.90180086  0.63532530  1
  Ti  Ti149  1  0.30128278  0.10000937  0.88202019  1
  Ti  Ti150  1  0.70388096  0.68734470  0.13167807  1
  Ti  Ti151  1  0.10720199  0.11743964  0.87588142  1
  Ti  Ti152  1  0.29552886  0.08372017  0.12247685  1
  Ti  Ti153  1  0.79254088  0.20216260  0.75706178  1
  Ti  Ti154  1  0.29704358  0.70403777  0.38620257  1
  Ti  Ti155  1  0.90124756  0.10745846  0.36484922  1
  Ti  Ti156  1  0.19438879  0.19075366  0.73960837  1
  Ti  Ti157  1  0.08010521  0.29531716  0.37362407  1
  Ti  Ti158  1  -0.00541874  0.20489642  0.24151234  1
  Ti  Ti159  1  0.60704731  0.20264513  0.00954885  1
  Mo  Mo160  1  0.09269747  0.29823560  0.13196277  1
  Mo  Mo161  1  0.90050382  0.10511826  0.12658833  1
  Mo  Mo162  1  0.70676846  0.69848162  0.88112326  1
  Mo  Mo163  1  0.08972547  0.69762875  0.88725663  1
  Mo  Mo164  1  -0.00586666  0.78902575  0.75316443  1
  Mo  Mo165  1  0.09396913  0.09505830  0.62758587  1
  Mo  Mo166  1  0.90075700  0.50991138  0.62559901  1
  Mo  Mo167  1  0.29871095  0.90581660  0.11610676  1
  Mo  Mo168  1  0.19137362  0.19199351  -0.00599042  1
  Mo  Mo169  1  0.79647872  -0.00080272  0.75162049  1
  Mo  Mo170  1  0.10624187  0.69942247  0.37333976  1
  Mo  Mo171  1  0.39502976  -0.00007184  0.24145388  1
  Mo  Mo172  1  0.80284385  0.00827130  0.24981587  1
  Mo  Mo173  1  0.50801247  0.69589530  0.11517606  1
  Mo  Mo174  1  -0.00086833  0.60979247  0.00304436  1
  Mo  Mo175  1  0.70958852  0.30494721  0.36992039  1
  Mo  Mo176  1  0.70981322  0.50157586  0.63018253  1
  Mo  Mo177  1  0.79916110  0.19420097  0.50335431  1
  Mo  Mo178  1  0.10622626  0.90816768  0.35678623  1
  Mo  Mo179  1  0.60974495  0.59337637  0.25278782  1
  Mo  Mo180  1  0.49220596  0.30589143  0.62796777  1
  Mo  Mo181  1  0.69141978  0.29319992  0.63768020  1
  Mo  Mo182  1  0.20936010  0.60044499  0.00370529  1
  Mo  Mo183  1  0.38482280  0.19284757  0.00684362  1
  Mo  Mo184  1  0.61344953  0.59912483  0.75423362  1
  Mo  Mo185  1  0.39400312  0.00756048  0.50149690  1
  Mo  Mo186  1  0.89338991  0.70014899  0.37594973  1
  Mo  Mo187  1  0.80503393  0.60673183  0.75443633  1
  Mo  Mo188  1  0.00840120  0.02083094  0.24453199  1
  Mo  Mo189  1  0.40064597  0.39189639  0.24683716  1
  Mo  Mo190  1  0.20445603  0.79442107  0.49157613  1
  Mo  Mo191  1  0.39415462  0.00389092  -0.00446998  1
  Mo  Mo192  1  0.09764836  0.50444538  0.62696458  1
  Mo  Mo193  1  0.89288411  0.28723551  0.36355159  1
  Mo  Mo194  1  0.70447036  0.29865706  0.11822902  1
  Mo  Mo195  1  0.39215536  0.19330154  0.75474268  1
  Mo  Mo196  1  0.21405386  0.01109886  0.25282028  1
  Mo  Mo197  1  0.10147466  0.29854448  0.63938379  1
  Mo  Mo198  1  0.49624291  0.70799037  0.62200516  1
  Mo  Mo199  1  0.50352214  0.90794604  0.11544902  1
