# generated using pymatgen
data_HfZrTaTiMo
_symmetry_space_group_name_H-M   'P 1'
_cell_length_a   15.22132029
_cell_length_b   15.20915254
_cell_length_c   16.85474447
_cell_angle_alpha   90.05918312
_cell_angle_beta   90.00913975
_cell_angle_gamma   89.91514114
_symmetry_Int_Tables_number   1
_chemical_formula_structural   HfZrTaTiMo
_chemical_formula_sum   'Hf40 Zr40 Ta40 Ti40 Mo40'
_cell_volume   3901.92393976
_cell_formula_units_Z   40
loop_
 _symmetry_equiv_pos_site_id
 _symmetry_equiv_pos_as_xyz
  1  'x, y, z'
loop_
 _atom_site_type_symbol
 _atom_site_label
 _atom_site_symmetry_multiplicity
 _atom_site_fract_x
 _atom_site_fract_y
 _atom_site_fract_z
 _atom_site_occupancy
  Hf  Hf0  1  0.88287363  0.08403336  0.86631576  1
  Hf  Hf1  1  0.69141831  0.89753082  0.12652830  1
  Hf  Hf2  1  0.30711663  0.89392801  0.12840061  1
  Hf  Hf3  1  -0.00765071  0.40533279  0.23986149  1
  Hf  Hf4  1  -0.00323681  0.21210759  0.76952004  1
  Hf  Hf5  1  0.10641278  0.30485398  0.63442458  1
  Hf  Hf6  1  0.59394293  0.79752057  0.24436881  1
  Hf  Hf7  1  0.79358082  0.00364394  0.24291205  1
  Hf  Hf8  1  0.50506173  0.68780911  0.86713123  1
  Hf  Hf9  1  -0.00860557  0.19897293  -0.01699405  1
  Hf  Hf10  1  0.50079480  0.91252233  0.37616476  1
  Hf  Hf11  1  0.88926267  0.11190914  0.63629261  1
  Hf  Hf12  1  0.80776098  0.40345035  0.77581407  1
  Hf  Hf13  1  0.88257285  0.52175601  0.11867087  1
  Hf  Hf14  1  0.71327016  0.49978701  0.63453162  1
  Hf  Hf15  1  0.50134505  0.28518130  0.88695904  1
  Hf  Hf16  1  0.21042241  0.19460769  0.50754244  1
  Hf  Hf17  1  0.40858020  0.59697745  -0.00289493  1
  Hf  Hf18  1  0.00383714  0.00713201  0.51070812  1
  Hf  Hf19  1  0.80601764  -0.00321044  0.00555236  1
  Hf  Hf20  1  0.00182962  0.20542845  0.50049413  1
  Hf  Hf21  1  -0.00817284  0.40689297  0.49917663  1
  Hf  Hf22  1  -0.00002547  0.20054768  0.24722896  1
  Hf  Hf23  1  0.00229067  0.60064891  0.50461535  1
  Hf  Hf24  1  0.59653133  0.19673204  0.74690849  1
  Hf  Hf25  1  0.21454674  0.01446067  0.00105267  1
  Hf  Hf26  1  0.89081403  0.51249820  0.36299704  1
  Hf  Hf27  1  0.70241243  0.91986606  0.85571673  1
  Hf  Hf28  1  0.89499362  0.89740827  0.62909590  1
  Hf  Hf29  1  0.70071069  0.70205793  0.64375251  1
  Hf  Hf30  1  0.29098168  0.89044766  0.62581067  1
  Hf  Hf31  1  0.80373991  0.79274379  -0.01425058  1
  Hf  Hf32  1  0.09383443  0.70962035  0.10508507  1
  Hf  Hf33  1  0.39589722  0.79411588  -0.01092931  1
  Hf  Hf34  1  0.18987590  0.80264617  0.24299634  1
  Hf  Hf35  1  0.09879105  0.70643977  0.88181974  1
  Hf  Hf36  1  0.40790923  -0.00872925  0.00008027  1
  Hf  Hf37  1  0.40994176  0.19472917  0.23924130  1
  Hf  Hf38  1  0.68728833  0.90876530  0.63694659  1
  Hf  Hf39  1  0.79109451  0.00440043  0.50169073  1
  Zr  Zr40  1  0.70756177  0.68000833  0.11156994  1
  Zr  Zr41  1  0.49807107  0.70080309  0.62190845  1
  Zr  Zr42  1  0.11245400  0.71006945  0.62357973  1
  Zr  Zr43  1  0.20936077  0.20422355  0.75457407  1
  Zr  Zr44  1  0.09401696  0.30215232  0.11839904  1
  Zr  Zr45  1  0.30451104  0.29304074  0.36738168  1
  Zr  Zr46  1  -0.00851393  0.40166035  -0.01257856  1
  Zr  Zr47  1  0.09668343  0.90877274  0.37815883  1
  Zr  Zr48  1  0.29500310  0.30342965  0.12781112  1
  Zr  Zr49  1  0.40477760  0.58779400  0.49091589  1
  Zr  Zr50  1  0.89552879  0.89808059  0.37777946  1
  Zr  Zr51  1  0.59904864  0.39685521  0.75356075  1
  Zr  Zr52  1  0.11575182  0.70388347  0.39068888  1
  Zr  Zr53  1  0.29432912  0.89299844  0.37256655  1
  Zr  Zr54  1  0.10799877  0.50436497  0.10971267  1
  Zr  Zr55  1  0.69850880  0.69838456  0.86108440  1
  Zr  Zr56  1  0.69578633  0.88613710  0.37488131  1
  Zr  Zr57  1  0.00848323  -0.00208440  0.74481076  1
  Zr  Zr58  1  0.00295574  0.00485658  0.24437802  1
  Zr  Zr59  1  0.11202238  0.50235424  0.88937682  1
  Zr  Zr60  1  0.40535924  0.37775752  0.50344786  1
  Zr  Zr61  1  0.88982695  0.30798249  0.37067663  1
  Zr  Zr62  1  0.80128884  0.60423284  0.50214455  1
  Zr  Zr63  1  0.67934581  0.10431378  0.37323264  1
  Zr  Zr64  1  0.21402046  0.61135736  0.24676139  1
  Zr  Zr65  1  0.29023515  0.49261888  0.62270976  1
  Zr  Zr66  1  0.89780445  0.31658091  0.63473228  1
  Zr  Zr67  1  0.20509880  0.61161274  0.75768480  1
  Zr  Zr68  1  0.31339115  0.09105190  0.37557882  1
  Zr  Zr69  1  0.40561500  0.58720755  0.74747297  1
  Zr  Zr70  1  0.79346290  0.21051350  0.24377191  1
  Zr  Zr71  1  0.60981543  0.59109716  0.25015074  1
  Zr  Zr72  1  0.31534663  0.50851850  0.13294121  1
  Zr  Zr73  1  0.09331158  0.91079662  0.11492437  1
  Zr  Zr74  1  0.00019781  0.61737562  0.24447442  1
  Zr  Zr75  1  0.19339509  0.39984422  0.49675392  1
  Zr  Zr76  1  0.10179750  0.91530270  0.88006206  1
  Zr  Zr77  1  0.68473738  0.48856210  0.37863051  1
  Zr  Zr78  1  0.39613054  0.77644828  0.25318348  1
  Zr  Zr79  1  0.60915797  0.00905683  -0.00607909  1
  Ta  Ta80  1  0.79337335  0.39877283  0.50245654  1
  Ta  Ta81  1  -0.02528861  0.61791532  -0.01061196  1
  Ta  Ta82  1  0.90040908  0.10273782  0.37847229  1
  Ta  Ta83  1  0.59539115  0.38353101  0.23777884  1
  Ta  Ta84  1  0.58571755  0.00534536  0.50850641  1
  Ta  Ta85  1  0.52091949  0.28642605  0.37352623  1
  Ta  Ta86  1  0.57879633  0.81079585  0.74562311  1
  Ta  Ta87  1  0.30323511  0.30189624  0.88389231  1
  Ta  Ta88  1  0.40493451  0.39163229  0.00667293  1
  Ta  Ta89  1  0.90264330  0.68912192  0.64203229  1
  Ta  Ta90  1  0.08519994  0.50292675  0.63912218  1
  Ta  Ta91  1  0.31262968  0.49222521  0.87927621  1
  Ta  Ta92  1  0.09935610  0.50075392  0.37016287  1
  Ta  Ta93  1  0.59686741  0.20038470  0.51299028  1
  Ta  Ta94  1  0.60210078  0.19441991  0.22979149  1
  Ta  Ta95  1  0.00485785  0.40506961  0.77420454  1
  Ta  Ta96  1  0.59200730  0.79818235  -0.00108281  1
  Ta  Ta97  1  0.39788707  0.18725373  0.01206771  1
  Ta  Ta98  1  0.50822156  0.08770902  0.12083428  1
  Ta  Ta99  1  0.39918118  0.79905264  0.49311774  1
  Ta  Ta100  1  0.41566081  -0.00685320  0.23876084  1
  Ta  Ta101  1  0.10647562  0.10679570  0.37492731  1
  Ta  Ta102  1  0.38485331  0.79349468  0.75803368  1
  Ta  Ta103  1  0.39770809  0.38069775  0.74381544  1
  Ta  Ta104  1  0.77801294  0.20075322  -0.00781288  1
  Ta  Ta105  1  0.79146163  0.20758094  0.49712472  1
  Ta  Ta106  1  0.00456590  0.79770393  0.75196960  1
  Ta  Ta107  1  0.90010999  0.10539230  0.11566466  1
  Ta  Ta108  1  0.30556028  0.09277641  0.63162522  1
  Ta  Ta109  1  -0.00263309  0.80283728  0.51179325  1
  Ta  Ta110  1  0.19771792  0.40291976  0.25666966  1
  Ta  Ta111  1  0.51946000  0.69819182  0.38676190  1
  Ta  Ta112  1  0.20952453  0.80701028  -0.01012732  1
  Ta  Ta113  1  0.79031412  0.40400552  -0.01202721  1
  Ta  Ta114  1  0.20235225  0.21007301  -0.00839675  1
  Ta  Ta115  1  0.78088402  0.41197540  0.23527549  1
  Ta  Ta116  1  0.29621693  0.50207294  0.37360134  1
  Ta  Ta117  1  0.70225046  0.29662306  0.62666323  1
  Ta  Ta118  1  0.50983473  0.49041204  0.62543511  1
  Ta  Ta119  1  0.50577611  0.48635752  0.88161800  1
  Ti  Ti120  1  -0.00128559  0.00543697  -0.00286038  1
  Ti  Ti121  1  -0.00762103  0.80319487  0.24831700  1
  Ti  Ti122  1  0.10636041  0.10992304  0.11713953  1
  Ti  Ti123  1  0.31174080  0.09776579  0.86792211  1
  Ti  Ti124  1  0.19984747  0.81801934  0.76359178  1
  Ti  Ti125  1  0.89791292  0.88846975  0.12695314  1
  Ti  Ti126  1  0.41416329  0.18616713  0.51057146  1
  Ti  Ti127  1  0.40282728  0.19648474  0.74335377  1
  Ti  Ti128  1  0.60591486  0.59675596  0.50074109  1
  Ti  Ti129  1  0.89671901  0.70848476  0.37747740  1
  Ti  Ti130  1  0.09969110  0.30070734  0.36953884  1
  Ti  Ti131  1  0.88450738  0.30403541  0.11314898  1
  Ti  Ti132  1  0.68920265  0.51036304  0.87640959  1
  Ti  Ti133  1  -0.01183752  0.81339968  -0.01282577  1
  Ti  Ti134  1  0.81023154  0.80678019  0.75731970  1
  Ti  Ti135  1  0.11162828  0.09239262  0.63419183  1
  Ti  Ti136  1  0.41797735  0.59026610  0.27176506  1
  Ti  Ti137  1  0.20383356  0.40187106  0.75739425  1
  Ti  Ti138  1  0.21728574  0.61146890  -0.00183280  1
  Ti  Ti139  1  0.78726185  0.20695323  0.76968716  1
  Ti  Ti140  1  0.41160875  0.40113702  0.25748480  1
  Ti  Ti141  1  0.29922756  0.69411708  0.60875120  1
  Ti  Ti142  1  0.60378225  0.39344017  0.00846963  1
  Ti  Ti143  1  0.51365930  0.49789058  0.12042569  1
  Ti  Ti144  1  0.11211092  0.10632802  0.87262852  1
  Ti  Ti145  1  0.49519699  0.69563167  0.12010224  1
  Ti  Ti146  1  0.79770599  0.79362770  0.50714594  1
  Ti  Ti147  1  0.19926439  0.19851023  0.24748090  1
  Ti  Ti148  1  0.40015484  -0.00404675  0.50900714  1
  Ti  Ti149  1  0.50406054  0.09220598  0.87119127  1
  Ti  Ti150  1  0.50082092  0.08534507  0.63397416  1
  Ti  Ti151  1  0.59991495  0.80369080  0.50724229  1
  Ti  Ti152  1  0.49906084  0.89855168  0.86924975  1
  Ti  Ti153  1  0.19983860  -0.00592360  0.50541417  1
  Ti  Ti154  1  0.69814091  0.10185332  0.63111369  1
  Ti  Ti155  1  0.60010274  0.39135295  0.50637337  1
  Ti  Ti156  1  -0.00999447  0.59566549  0.76379219  1
  Ti  Ti157  1  0.20884835  0.01388002  0.23915322  1
  Ti  Ti158  1  0.79959123  0.77659619  0.24781461  1
  Ti  Ti159  1  0.40247304  -0.01301955  0.74914920  1
  Mo  Mo160  1  0.89956001  0.71541626  0.11925720  1
  Mo  Mo161  1  0.70657821  0.10201884  0.12508739  1
  Mo  Mo162  1  0.69827142  0.30104609  0.11338587  1
  Mo  Mo163  1  0.49958781  0.10238442  0.37740653  1
  Mo  Mo164  1  0.11118272  0.30266918  0.87677882  1
  Mo  Mo165  1  0.59357196  0.00452266  0.24311494  1
  Mo  Mo166  1  0.30669441  0.90714977  0.86751205  1
  Mo  Mo167  1  0.79988498  0.60518778  0.25503096  1
  Mo  Mo168  1  0.58606463  0.00360347  0.74770465  1
  Mo  Mo169  1  0.59830782  0.59427985  0.74468604  1
  Mo  Mo170  1  0.20352592  0.80061852  0.50206232  1
  Mo  Mo171  1  0.29665041  0.69833230  0.87221209  1
  Mo  Mo172  1  0.70533375  0.69983394  0.38133288  1
  Mo  Mo173  1  0.90796810  0.50327390  0.63620421  1
  Mo  Mo174  1  0.59743980  0.59119055  0.00057371  1
  Mo  Mo175  1  0.80391099  0.59928592  0.75547128  1
  Mo  Mo176  1  0.69406547  0.30011272  0.37805058  1
  Mo  Mo177  1  0.31005241  0.69317068  0.38761075  1
  Mo  Mo178  1  0.79384351  0.59667075  -0.01443998  1
  Mo  Mo179  1  0.59058938  0.20312801  0.01639530  1
  Mo  Mo180  1  0.19827995  0.59285901  0.49795242  1
  Mo  Mo181  1  0.89297676  0.29813993  0.88203220  1
  Mo  Mo182  1  0.10134067  0.90211258  0.62419857  1
  Mo  Mo183  1  0.48763194  0.89878486  0.62067539  1
  Mo  Mo184  1  0.49831155  0.48286319  0.37369357  1
  Mo  Mo185  1  0.30657563  0.28729050  0.62868589  1
  Mo  Mo186  1  0.79366981  0.01165458  0.74137848  1
  Mo  Mo187  1  0.90160238  0.89679032  0.86599844  1
  Mo  Mo188  1  0.21319396  0.00461301  0.75232810  1
  Mo  Mo189  1  0.49740819  0.30121416  0.11954777  1
  Mo  Mo190  1  0.89292556  0.51134906  0.88275159  1
  Mo  Mo191  1  0.50361028  0.29182465  0.62529665  1
  Mo  Mo192  1  0.29859080  0.09908496  0.12899626  1
  Mo  Mo193  1  0.29775958  0.70068213  0.11523148  1
  Mo  Mo194  1  0.21442802  0.40563222  -0.00411607  1
  Mo  Mo195  1  0.50452932  0.88771215  0.11966095  1
  Mo  Mo196  1  0.68990051  0.30393904  0.88649529  1
  Mo  Mo197  1  0.68573033  0.11314694  0.87143506  1
  Mo  Mo198  1  0.90100712  0.70519517  0.85680051  1
  Mo  Mo199  1  0.69722668  0.49088610  0.11618934  1
