# generated using pymatgen
data_HfZrTaTiMo
_symmetry_space_group_name_H-M   'P 1'
_cell_length_a   15.21042741
_cell_length_b   15.21639090
_cell_length_c   16.85131955
_cell_angle_alpha   89.98357774
_cell_angle_beta   89.98722143
_cell_angle_gamma   90.10151390
_symmetry_Int_Tables_number   1
_chemical_formula_structural   HfZrTaTiMo
_chemical_formula_sum   'Hf40 Zr40 Ta40 Ti40 Mo40'
_cell_volume   3900.19461491
_cell_formula_units_Z   40
loop_
 _symmetry_equiv_pos_site_id
 _symmetry_equiv_pos_as_xyz
  1  'x, y, z'
loop_
 _atom_site_type_symbol
 _atom_site_label
 _atom_site_symmetry_multiplicity
 _atom_site_fract_x
 _atom_site_fract_y
 _atom_site_fract_z
 _atom_site_occupancy
  Hf  Hf0  1  0.09119160  0.50938261  0.87594907  1
  Hf  Hf1  1  0.39943108  0.20675355  0.50444987  1
  Hf  Hf2  1  0.60466215  0.80218628  0.75390488  1
  Hf  Hf3  1  0.51433107  0.31915332  0.62468613  1
  Hf  Hf4  1  0.29987727  0.30356273  0.62615731  1
  Hf  Hf5  1  0.40151103  0.39048591  0.24374287  1
  Hf  Hf6  1  0.89902325  0.48699945  0.36931380  1
  Hf  Hf7  1  0.72082812  0.29263343  0.60526755  1
  Hf  Hf8  1  0.39310772  -0.00059464  -0.02075540  1
  Hf  Hf9  1  0.59169828  0.80941059  0.23767139  1
  Hf  Hf10  1  0.59912497  0.40268011  -0.02068761  1
  Hf  Hf11  1  0.10197352  0.90010215  0.64661450  1
  Hf  Hf12  1  0.29745780  0.50137515  0.37445470  1
  Hf  Hf13  1  0.00361955  -0.01043851  0.50118108  1
  Hf  Hf14  1  0.19757730  0.60813873  0.50980008  1
  Hf  Hf15  1  0.50778271  0.90800467  0.63128370  1
  Hf  Hf16  1  0.90011867  0.88856123  0.09985929  1
  Hf  Hf17  1  -0.00461139  0.38552673  0.23373377  1
  Hf  Hf18  1  0.19850028  0.40431695  0.00373114  1
  Hf  Hf19  1  0.70969513  0.12236270  0.12753410  1
  Hf  Hf20  1  0.59284094  0.60695673  -0.00055736  1
  Hf  Hf21  1  0.70002736  0.92369806  0.88289841  1
  Hf  Hf22  1  0.38635613  0.59765899  0.00817961  1
  Hf  Hf23  1  0.70994291  0.70621825  0.11102017  1
  Hf  Hf24  1  0.89549065  0.89800900  0.88908058  1
  Hf  Hf25  1  0.28196858  0.09702821  0.62939294  1
  Hf  Hf26  1  0.10099773  0.69522395  0.37636458  1
  Hf  Hf27  1  0.71247674  0.30956501  0.39283660  1
  Hf  Hf28  1  0.90195929  0.08030419  0.13427629  1
  Hf  Hf29  1  0.80044361  0.01137516  0.50167486  1
  Hf  Hf30  1  0.39413702  -0.00279709  0.50877278  1
  Hf  Hf31  1  0.49798745  0.50423173  0.37403761  1
  Hf  Hf32  1  0.60311145  0.59346501  0.75859720  1
  Hf  Hf33  1  0.69671092  0.49425507  0.62180111  1
  Hf  Hf34  1  0.19512391  0.78879069  0.24872570  1
  Hf  Hf35  1  0.20325987  0.19547219  -0.00158025  1
  Hf  Hf36  1  0.09796638  0.49858563  0.37262357  1
  Hf  Hf37  1  0.10153528  0.48791672  0.62373632  1
  Hf  Hf38  1  0.60419494  0.81573781  0.50106661  1
  Hf  Hf39  1  0.62035316  0.22809672  0.76115848  1
  Zr  Zr40  1  0.70213354  0.09140074  0.64448549  1
  Zr  Zr41  1  0.39362720  0.61264694  0.24361144  1
  Zr  Zr42  1  0.28859389  0.88822542  0.85940310  1
  Zr  Zr43  1  0.40538764  0.18942726  0.24624038  1
  Zr  Zr44  1  0.91721078  0.69435189  0.89232452  1
  Zr  Zr45  1  0.49961441  0.11134943  0.64046411  1
  Zr  Zr46  1  -0.00984128  0.39384794  0.75406415  1
  Zr  Zr47  1  0.20462450  0.20288322  0.23984092  1
  Zr  Zr48  1  0.49452227  0.70773595  0.37570324  1
  Zr  Zr49  1  0.70883535  0.11170806  0.36091344  1
  Zr  Zr50  1  0.80651298  0.79980729  0.24518414  1
  Zr  Zr51  1  0.80562774  0.80759746  0.49413490  1
  Zr  Zr52  1  0.70196007  0.91273073  0.36405847  1
  Zr  Zr53  1  0.70651147  0.71338669  0.89026551  1
  Zr  Zr54  1  0.39653993  0.40002669  -0.00058517  1
  Zr  Zr55  1  0.09961133  0.09268906  0.36679969  1
  Zr  Zr56  1  0.39423114  0.00352455  0.75941908  1
  Zr  Zr57  1  0.81187593  0.60220775  0.75594081  1
  Zr  Zr58  1  -0.00332596  0.78630579  0.50437738  1
  Zr  Zr59  1  0.38977029  0.79286865  0.50798508  1
  Zr  Zr60  1  0.52548541  0.09975328  0.86237103  1
  Zr  Zr61  1  0.60863224  0.60874062  0.24334320  1
  Zr  Zr62  1  0.50367088  0.30307922  0.38294025  1
  Zr  Zr63  1  0.60396364  0.60949642  0.49954416  1
  Zr  Zr64  1  0.81457436  0.60471955  0.49989888  1
  Zr  Zr65  1  0.10051048  0.89879399  0.11641871  1
  Zr  Zr66  1  0.09545342  0.30020421  0.37804383  1
  Zr  Zr67  1  0.58862750  0.00968103  0.23410741  1
  Zr  Zr68  1  0.50397362  0.09627327  0.37805673  1
  Zr  Zr69  1  0.41515168  0.19971683  -0.01155455  1
  Zr  Zr70  1  0.21419020  -0.01045276  0.24652532  1
  Zr  Zr71  1  0.07757887  0.69187679  0.64574857  1
  Zr  Zr72  1  -0.01836475  0.19177275  0.50050915  1
  Zr  Zr73  1  0.40563952  0.40247165  0.75866067  1
  Zr  Zr74  1  0.78246670  0.39427097  0.76150563  1
  Zr  Zr75  1  0.10004184  0.51582691  0.12927882  1
  Zr  Zr76  1  0.29969618  0.67992911  0.86825649  1
  Zr  Zr77  1  0.28350380  0.70349758  0.11971678  1
  Zr  Zr78  1  0.20040009  0.39717591  0.75889148  1
  Zr  Zr79  1  -0.00880439  0.38968813  0.01245204  1
  Ta  Ta80  1  0.19481620  0.18931190  0.49979192  1
  Ta  Ta81  1  0.39785727  0.58627677  0.52084435  1
  Ta  Ta82  1  0.51906616  0.30377539  0.12083829  1
  Ta  Ta83  1  0.60389649  0.40923455  0.25075740  1
  Ta  Ta84  1  0.70791524  0.70707248  0.63033646  1
  Ta  Ta85  1  0.78908082  0.38964982  0.24142629  1
  Ta  Ta86  1  0.19353519  0.80194728  -0.00984486  1
  Ta  Ta87  1  0.50194347  0.49985143  0.12689144  1
  Ta  Ta88  1  0.19695630  0.19904065  0.76286538  1
  Ta  Ta89  1  0.29013494  0.70300165  0.63589802  1
  Ta  Ta90  1  0.29691628  0.29819359  0.38166450  1
  Ta  Ta91  1  0.70368371  0.91528886  0.11112551  1
  Ta  Ta92  1  0.61321718  0.22462944  0.24649772  1
  Ta  Ta93  1  0.08338859  0.89928460  0.86543782  1
  Ta  Ta94  1  0.91364942  0.69057183  0.10789301  1
  Ta  Ta95  1  0.60987153  0.18353826  0.50429479  1
  Ta  Ta96  1  0.38939416  0.82376696  0.24403757  1
  Ta  Ta97  1  0.10202907  0.09557926  0.12293508  1
  Ta  Ta98  1  0.48492656  0.51458950  0.87575683  1
  Ta  Ta99  1  0.09145029  0.29114126  0.88185108  1
  Ta  Ta100  1  0.90598862  0.50763599  0.62299746  1
  Ta  Ta101  1  0.29895592  0.09480744  0.38300915  1
  Ta  Ta102  1  0.29221972  0.89824429  0.64013890  1
  Ta  Ta103  1  0.40311022  0.79008066  0.74437120  1
  Ta  Ta104  1  0.30844385  0.07856054  0.11673756  1
  Ta  Ta105  1  0.10138340  0.28581403  0.62174921  1
  Ta  Ta106  1  0.48041232  0.91387440  0.11462265  1
  Ta  Ta107  1  0.90031012  0.09057436  0.87268655  1
  Ta  Ta108  1  0.50596843  0.69754297  0.62685555  1
  Ta  Ta109  1  0.69763724  0.49212231  0.11829257  1
  Ta  Ta110  1  0.40124113  0.59293449  0.73159831  1
  Ta  Ta111  1  -0.00053258  0.18605335  0.00574564  1
  Ta  Ta112  1  0.59860945  0.01589468  0.00587796  1
  Ta  Ta113  1  0.90020985  0.89952762  0.64022938  1
  Ta  Ta114  1  0.20063784  0.39616941  0.24161544  1
  Ta  Ta115  1  0.90470158  0.69272150  0.36589861  1
  Ta  Ta116  1  0.00469918  0.19185544  0.75371677  1
  Ta  Ta117  1  0.48961476  0.90659560  0.37432009  1
  Ta  Ta118  1  0.89958186  0.08182882  0.35125375  1
  Ta  Ta119  1  0.70552027  0.50200096  0.37517187  1
  Ti  Ti120  1  0.88398115  0.28060446  0.12345402  1
  Ti  Ti121  1  0.39500830  0.80072062  -0.00382226  1
  Ti  Ti122  1  0.09199978  0.09558481  0.62842853  1
  Ti  Ti123  1  0.62361068  0.20907098  -0.01284486  1
  Ti  Ti124  1  0.90567235  0.30079656  0.62501136  1
  Ti  Ti125  1  0.00069270  0.60671751  0.24459760  1
  Ti  Ti126  1  0.89642439  0.10111426  0.64170591  1
  Ti  Ti127  1  0.20999208  0.39643576  0.50264186  1
  Ti  Ti128  1  0.50142977  0.11079962  0.11753442  1
  Ti  Ti129  1  0.29695186  0.49956082  0.13581446  1
  Ti  Ti130  1  0.29925769  0.30237565  0.87860863  1
  Ti  Ti131  1  0.18378422  0.01473671  0.76734714  1
  Ti  Ti132  1  0.89581108  0.28489287  0.37020389  1
  Ti  Ti133  1  0.89488975  0.49005555  0.88411480  1
  Ti  Ti134  1  0.09509784  0.89721829  0.37270788  1
  Ti  Ti135  1  0.80597029  0.80418656  0.75359079  1
  Ti  Ti136  1  0.70517503  0.70081377  0.36839509  1
  Ti  Ti137  1  0.80104365  0.58528532  -0.00104512  1
  Ti  Ti138  1  0.80280216  0.59342848  0.24490329  1
  Ti  Ti139  1  0.00306886  0.19458839  0.23883757  1
  Ti  Ti140  1  -0.00248308  0.80017930  0.24686936  1
  Ti  Ti141  1  0.20399461  0.59031729  0.74515341  1
  Ti  Ti142  1  0.79277469  0.38678054  -0.00097493  1
  Ti  Ti143  1  0.59058485  0.81546789  0.00542939  1
  Ti  Ti144  1  -0.00637871  0.40056609  0.50314342  1
  Ti  Ti145  1  0.89067424  0.49710798  0.12477358  1
  Ti  Ti146  1  0.50315411  0.89645850  0.87235596  1
  Ti  Ti147  1  0.10062536  0.70746076  0.85460613  1
  Ti  Ti148  1  0.39480044  0.20540854  0.76444034  1
  Ti  Ti149  1  0.70641415  0.90337416  0.63430253  1
  Ti  Ti150  1  0.89300356  0.28216016  0.88003106  1
  Ti  Ti151  1  0.49210075  0.71097957  0.12083372  1
  Ti  Ti152  1  0.49440958  0.70738079  0.87569526  1
  Ti  Ti153  1  0.29378646  0.90052336  0.38188764  1
  Ti  Ti154  1  0.17809331  0.61246831  -0.00394187  1
  Ti  Ti155  1  0.19571571  0.81513493  0.50584946  1
  Ti  Ti156  1  0.59614229  0.40916192  0.49756783  1
  Ti  Ti157  1  0.29882870  0.70267781  0.37699338  1
  Ti  Ti158  1  0.19201227  0.00170343  -0.01533271  1
  Ti  Ti159  1  0.30568300  0.29184651  0.11973103  1
  Mo  Mo160  1  0.71135155  0.29912194  0.88204165  1
  Mo  Mo161  1  0.89040926  0.70388180  0.63356496  1
  Mo  Mo162  1  0.19850248  0.79604815  0.75199100  1
  Mo  Mo163  1  0.50116926  0.30394106  0.87076652  1
  Mo  Mo164  1  0.10267366  0.29216201  0.12313992  1
  Mo  Mo165  1  0.19709471  0.59584603  0.25527350  1
  Mo  Mo166  1  0.29792673  0.49935514  0.62179649  1
  Mo  Mo167  1  0.80525191  -0.00391864  0.75098003  1
  Mo  Mo168  1  0.29898617  0.89951178  0.10820088  1
  Mo  Mo169  1  0.09246089  0.09918449  0.88069696  1
  Mo  Mo170  1  -0.00308666  0.58906777  0.75469639  1
  Mo  Mo171  1  -0.00335233  0.58766248  0.00412117  1
  Mo  Mo172  1  0.50536768  0.50171354  0.62523394  1
  Mo  Mo173  1  0.59862427  0.00151597  0.50003448  1
  Mo  Mo174  1  0.19840092  -0.00704785  0.50041547  1
  Mo  Mo175  1  -0.00458001  0.59058110  0.49804445  1
  Mo  Mo176  1  -0.01240840  0.79741145  0.75471697  1
  Mo  Mo177  1  0.00165618  -0.01793102  0.25060827  1
  Mo  Mo178  1  0.00951440  0.00334288  -0.00551827  1
  Mo  Mo179  1  0.60670680  -0.00406725  0.75681856  1
  Mo  Mo180  1  -0.00600789  0.00225433  0.75024248  1
  Mo  Mo181  1  0.29268939  0.50354998  0.87824715  1
  Mo  Mo182  1  0.59619112  0.41488508  0.77449044  1
  Mo  Mo183  1  0.82097335  0.20379225  0.75113818  1
  Mo  Mo184  1  0.91352625  0.89935237  0.36641143  1
  Mo  Mo185  1  0.81277795  0.20972529  0.25054763  1
  Mo  Mo186  1  0.69998932  0.31021679  0.11765824  1
  Mo  Mo187  1  0.29249790  0.10716661  0.86981371  1
  Mo  Mo188  1  0.72387990  0.11085962  0.87356078  1
  Mo  Mo189  1  0.01629557  0.79061462  -0.00654287  1
  Mo  Mo190  1  0.79693803  0.01462071  0.00089081  1
  Mo  Mo191  1  0.39758148  -0.00281578  0.24919973  1
  Mo  Mo192  1  0.81758446  0.39993085  0.50044293  1
  Mo  Mo193  1  0.39782570  0.40334857  0.50169748  1
  Mo  Mo194  1  0.79519630  0.79888514  0.00365468  1
  Mo  Mo195  1  0.08922579  0.70489653  0.12301847  1
  Mo  Mo196  1  0.80923369  0.19168094  0.49866164  1
  Mo  Mo197  1  0.80024381  -0.00694647  0.24090067  1
  Mo  Mo198  1  0.81261833  0.20125016  -0.00080514  1
  Mo  Mo199  1  0.70482912  0.50698831  0.89001873  1
