# generated using pymatgen
data_HfZrTaTiMo
_symmetry_space_group_name_H-M   'P 1'
_cell_length_a   15.20735509
_cell_length_b   15.21445563
_cell_length_c   16.86682275
_cell_angle_alpha   90.05726842
_cell_angle_beta   90.00490528
_cell_angle_gamma   90.02056796
_symmetry_Int_Tables_number   1
_chemical_formula_structural   HfZrTaTiMo
_chemical_formula_sum   'Hf40 Zr40 Ta40 Ti40 Mo40'
_cell_volume   3902.50204709
_cell_formula_units_Z   40
loop_
 _symmetry_equiv_pos_site_id
 _symmetry_equiv_pos_as_xyz
  1  'x, y, z'
loop_
 _atom_site_type_symbol
 _atom_site_label
 _atom_site_symmetry_multiplicity
 _atom_site_fract_x
 _atom_site_fract_y
 _atom_site_fract_z
 _atom_site_occupancy
  Hf  Hf0  1  0.62509166  0.59786246  0.50100296  1
  Hf  Hf1  1  0.49527583  0.49953968  0.11800824  1
  Hf  Hf2  1  0.09959438  0.49508975  0.37488944  1
  Hf  Hf3  1  0.50849576  0.90727483  0.12986543  1
  Hf  Hf4  1  0.11070498  0.68134438  0.88125213  1
  Hf  Hf5  1  0.68816747  0.31557390  0.37193815  1
  Hf  Hf6  1  0.69185933  0.11378304  0.36723681  1
  Hf  Hf7  1  0.39591592  0.41178044  0.76940140  1
  Hf  Hf8  1  0.21559250  0.80383788  0.74693424  1
  Hf  Hf9  1  0.39296278  -0.01047504  0.75977842  1
  Hf  Hf10  1  0.00469904  0.58397866  0.00237347  1
  Hf  Hf11  1  0.29030294  0.29987851  0.63458592  1
  Hf  Hf12  1  0.57297246  0.41026926  0.51104794  1
  Hf  Hf13  1  -0.00336249  0.00958825  0.74788659  1
  Hf  Hf14  1  0.09733821  0.12359114  0.87974966  1
  Hf  Hf15  1  0.00532302  0.78907053  0.75458208  1
  Hf  Hf16  1  0.58849073  0.20916367  0.50332772  1
  Hf  Hf17  1  0.92255466  0.69741416  0.36599903  1
  Hf  Hf18  1  0.18353361  0.40565743  0.75885041  1
  Hf  Hf19  1  0.48921585  0.10039296  0.62803725  1
  Hf  Hf20  1  0.08707137  0.29598027  0.62640575  1
  Hf  Hf21  1  0.89833036  0.89723469  0.88000746  1
  Hf  Hf22  1  0.11429499  0.90040656  0.87787929  1
  Hf  Hf23  1  0.50441891  0.69013961  0.37790653  1
  Hf  Hf24  1  0.19733760  0.20118728  0.24206784  1
  Hf  Hf25  1  0.20386122  0.39405737  0.49663448  1
  Hf  Hf26  1  0.00044710  0.79604405  0.00763031  1
  Hf  Hf27  1  0.90809657  0.50078849  0.61467920  1
  Hf  Hf28  1  0.30212422  0.89765695  0.37037411  1
  Hf  Hf29  1  0.19272114  -0.01936779  0.49551936  1
  Hf  Hf30  1  0.31554860  0.49205031  0.37205402  1
  Hf  Hf31  1  0.28223980  0.29722400  0.88809953  1
  Hf  Hf32  1  0.20547531  0.00369808  0.01882027  1
  Hf  Hf33  1  0.31246672  0.71191054  0.88092816  1
  Hf  Hf34  1  0.50411682  0.70063059  0.61530127  1
  Hf  Hf35  1  0.79592487  0.59411516  0.74538948  1
  Hf  Hf36  1  0.71092828  0.50216909  0.12848257  1
  Hf  Hf37  1  0.89795981  0.10467118  0.37764401  1
  Hf  Hf38  1  0.59176762  0.19965139  0.75749446  1
  Hf  Hf39  1  0.08461002  0.09795447  0.60813157  1
  Zr  Zr40  1  0.30417864  0.31534098  0.11825944  1
  Zr  Zr41  1  0.59414919  -0.00335120  0.48457391  1
  Zr  Zr42  1  0.81169909  0.79732900  0.47844632  1
  Zr  Zr43  1  0.69330627  0.08910361  0.62852306  1
  Zr  Zr44  1  0.29656987  0.69516404  0.38102974  1
  Zr  Zr45  1  0.09318281  0.09436414  0.37899547  1
  Zr  Zr46  1  0.28715359  0.10276525  0.61322029  1
  Zr  Zr47  1  0.70307842  0.69923638  0.12285361  1
  Zr  Zr48  1  0.29771465  0.10192830  0.37539993  1
  Zr  Zr49  1  0.21190928  0.79949725  0.01941881  1
  Zr  Zr50  1  0.88725425  0.09166521  0.12891897  1
  Zr  Zr51  1  0.69551495  0.30047351  0.63102162  1
  Zr  Zr52  1  0.09845783  0.68462117  0.12563295  1
  Zr  Zr53  1  0.89528236  0.89490332  0.62458280  1
  Zr  Zr54  1  0.79345821  -0.00431181  0.49094565  1
  Zr  Zr55  1  0.79422804  0.79368715  0.76056443  1
  Zr  Zr56  1  0.59820052  0.42031910  0.75870135  1
  Zr  Zr57  1  0.69554056  0.09671614  0.87303879  1
  Zr  Zr58  1  0.19739946  -0.00491869  0.23667884  1
  Zr  Zr59  1  0.30920289  0.88713857  0.61390860  1
  Zr  Zr60  1  0.59508762  -0.00093408  -0.00241545  1
  Zr  Zr61  1  0.78523708  0.20073125  0.00886018  1
  Zr  Zr62  1  0.78317973  0.41742823  0.50620752  1
  Zr  Zr63  1  0.79105787  -0.00404537  0.74785792  1
  Zr  Zr64  1  0.60591639  0.40042931  -0.00711267  1
  Zr  Zr65  1  0.80627632  0.39456780  0.74458877  1
  Zr  Zr66  1  0.90458078  0.49778618  0.87262226  1
  Zr  Zr67  1  0.91000779  0.31220875  0.38685383  1
  Zr  Zr68  1  0.48670827  0.10938372  0.36471164  1
  Zr  Zr69  1  0.38124922  0.19710952  0.76097216  1
  Zr  Zr70  1  0.40185389  0.60216103  0.23839811  1
  Zr  Zr71  1  0.21226712  0.60134327  0.73689355  1
  Zr  Zr72  1  0.79186667  -0.00857228  0.25847585  1
  Zr  Zr73  1  0.89687793  0.10236065  0.88521650  1
  Zr  Zr74  1  0.70864405  0.71959573  0.62088227  1
  Zr  Zr75  1  0.80751210  0.40570131  -0.00295950  1
  Zr  Zr76  1  0.61013843  0.80373883  0.26361646  1
  Zr  Zr77  1  0.00136343  -0.00272821  0.01347776  1
  Zr  Zr78  1  0.89900702  0.29935927  0.12713517  1
  Zr  Zr79  1  0.19857206  0.01151964  0.74800328  1
  Ta  Ta80  1  0.80067515  0.79363863  0.00020477  1
  Ta  Ta81  1  0.60909657  0.80692007  0.47869023  1
  Ta  Ta82  1  0.09483709  0.88839652  0.62219451  1
  Ta  Ta83  1  -0.00125959  -0.00798198  0.24797686  1
  Ta  Ta84  1  0.29851462  0.30098498  0.36395710  1
  Ta  Ta85  1  0.42099011  0.80038583  0.75246566  1
  Ta  Ta86  1  0.47723400  0.10192766  0.11999136  1
  Ta  Ta87  1  0.51141162  0.71335957  0.88353811  1
  Ta  Ta88  1  0.70817525  0.29914693  0.86771450  1
  Ta  Ta89  1  0.29111033  0.51538777  0.88942935  1
  Ta  Ta90  1  0.58746998  -0.02217771  0.76092701  1
  Ta  Ta91  1  0.80877908  0.40834104  0.25133419  1
  Ta  Ta92  1  0.20550206  0.59542843  0.23947514  1
  Ta  Ta93  1  0.20678949  0.59370174  0.50790112  1
  Ta  Ta94  1  0.40449829  0.80756745  0.25066342  1
  Ta  Ta95  1  0.41381662  0.57939604  0.50267558  1
  Ta  Ta96  1  0.70731956  0.90102453  0.12630109  1
  Ta  Ta97  1  0.18319870  0.21299284  0.01511551  1
  Ta  Ta98  1  0.69820973  0.67639105  0.89092303  1
  Ta  Ta99  1  0.68609657  0.87834956  0.88196509  1
  Ta  Ta100  1  0.09346016  0.31228999  0.13643624  1
  Ta  Ta101  1  0.70651524  0.51356367  0.35958216  1
  Ta  Ta102  1  0.50291090  0.52610564  0.89092292  1
  Ta  Ta103  1  -0.00320001  0.20357682  0.25485577  1
  Ta  Ta104  1  0.50143602  0.29706409  0.11552030  1
  Ta  Ta105  1  0.78991111  0.21101517  0.24723746  1
  Ta  Ta106  1  0.39229219  0.21886053  0.50006647  1
  Ta  Ta107  1  0.51093444  0.49272838  0.36263567  1
  Ta  Ta108  1  0.41094810  0.60574749  0.75312963  1
  Ta  Ta109  1  0.48535229  0.31068982  0.36545504  1
  Ta  Ta110  1  0.01436698  0.60883792  0.49508513  1
  Ta  Ta111  1  0.51641594  0.89570586  0.62145806  1
  Ta  Ta112  1  0.67877734  0.10102414  0.13476481  1
  Ta  Ta113  1  0.40343497  -0.00061144  0.49795544  1
  Ta  Ta114  1  0.48588808  0.09930454  0.88693060  1
  Ta  Ta115  1  0.20698630  0.79135494  0.23671380  1
  Ta  Ta116  1  0.91659619  0.49687605  0.13004429  1
  Ta  Ta117  1  0.00935143  0.58483295  0.74895712  1
  Ta  Ta118  1  0.91586818  0.29060752  0.87279726  1
  Ta  Ta119  1  0.02081557  0.38631884  -0.00386224  1
  Ti  Ti120  1  0.89897002  0.50583262  0.38258018  1
  Ti  Ti121  1  0.31643937  0.49574021  0.62271107  1
  Ti  Ti122  1  0.20262347  0.40613167  0.24823535  1
  Ti  Ti123  1  0.60925903  0.60304262  0.24794022  1
  Ti  Ti124  1  0.59840602  0.39796185  0.23817360  1
  Ti  Ti125  1  0.50097660  0.70783533  0.12316897  1
  Ti  Ti126  1  0.31822689  0.91292118  0.13351669  1
  Ti  Ti127  1  0.89873537  0.10848028  0.60912566  1
  Ti  Ti128  1  0.58685180  0.00127714  0.25811932  1
  Ti  Ti129  1  0.91384094  0.69847679  0.61597926  1
  Ti  Ti130  1  0.10038171  0.49441668  0.61602264  1
  Ti  Ti131  1  0.90543238  0.29680404  0.61104634  1
  Ti  Ti132  1  0.18581932  0.78204675  0.49786371  1
  Ti  Ti133  1  0.08786938  0.10933219  0.12611954  1
  Ti  Ti134  1  0.59073271  0.20899452  0.23962102  1
  Ti  Ti135  1  0.80702556  0.79406923  0.26102966  1
  Ti  Ti136  1  0.39399125  0.41046418  -0.00881025  1
  Ti  Ti137  1  0.81418021  0.19617792  0.74476197  1
  Ti  Ti138  1  0.39575900  0.20384946  0.23844348  1
  Ti  Ti139  1  0.60127244  0.79722565  0.00600770  1
  Ti  Ti140  1  0.10178681  0.69411373  0.62534906  1
  Ti  Ti141  1  0.60071783  0.61128934  0.74886963  1
  Ti  Ti142  1  0.00482415  0.58469567  0.24910188  1
  Ti  Ti143  1  0.48378881  0.31172792  0.63632573  1
  Ti  Ti144  1  0.89756509  0.88685172  0.12976922  1
  Ti  Ti145  1  0.89941757  0.69319150  0.88125498  1
  Ti  Ti146  1  0.59394270  0.20202845  0.00208495  1
  Ti  Ti147  1  0.39549956  0.61746367  0.01150583  1
  Ti  Ti148  1  0.79435871  0.20605744  0.50028067  1
  Ti  Ti149  1  0.29325636  0.09785257  0.89271124  1
  Ti  Ti150  1  0.09364397  0.87233898  0.36808068  1
  Ti  Ti151  1  0.49512800  0.29769544  0.88626710  1
  Ti  Ti152  1  0.79153065  -0.01084569  0.00492965  1
  Ti  Ti153  1  0.31159358  0.69337861  0.61396792  1
  Ti  Ti154  1  0.40656980  0.81977221  0.00216638  1
  Ti  Ti155  1  0.18768518  0.20517454  0.48669565  1
  Ti  Ti156  1  0.00860302  0.79794640  0.23895343  1
  Ti  Ti157  1  -0.00830515  -0.02562358  0.48859151  1
  Ti  Ti158  1  0.41087429  0.80292781  0.49116764  1
  Ti  Ti159  1  0.89174113  0.68788715  0.13163384  1
  Mo  Mo160  1  0.00108489  0.20501355  0.00930251  1
  Mo  Mo161  1  0.81488672  0.60385298  0.49661025  1
  Mo  Mo162  1  0.00612192  0.40558601  0.49972267  1
  Mo  Mo163  1  0.10306478  0.49629360  0.87474066  1
  Mo  Mo164  1  0.30669710  0.90623234  0.88087424  1
  Mo  Mo165  1  0.68778637  0.89601806  0.62348289  1
  Mo  Mo166  1  0.69549026  0.51466628  0.62869499  1
  Mo  Mo167  1  0.40566437  0.39505434  0.24208299  1
  Mo  Mo168  1  0.59368408  0.60518706  0.00689879  1
  Mo  Mo169  1  -0.00464547  0.39884600  0.74664750  1
  Mo  Mo170  1  0.80661462  0.60262235  0.00282875  1
  Mo  Mo171  1  0.70152850  0.90014074  0.36596798  1
  Mo  Mo172  1  0.10636622  0.29953594  0.36409852  1
  Mo  Mo173  1  0.39980661  0.00323769  0.24569324  1
  Mo  Mo174  1  0.11164088  0.69180286  0.36132358  1
  Mo  Mo175  1  0.19540885  0.41134434  -0.00014420  1
  Mo  Mo176  1  0.91589089  0.89818779  0.36164717  1
  Mo  Mo177  1  0.39772170  0.39517179  0.50177589  1
  Mo  Mo178  1  0.81213410  0.59880009  0.24905627  1
  Mo  Mo179  1  0.00249007  0.39847288  0.25472866  1
  Mo  Mo180  1  -0.00611476  0.20144163  0.49381575  1
  Mo  Mo181  1  0.31379253  0.71043718  0.12440046  1
  Mo  Mo182  1  0.71254418  0.69147421  0.36889073  1
  Mo  Mo183  1  0.18563944  0.19524137  0.75279683  1
  Mo  Mo184  1  0.01532565  0.79572152  0.49968489  1
  Mo  Mo185  1  0.09296696  0.30187026  0.87085807  1
  Mo  Mo186  1  0.49498107  0.50874763  0.63567058  1
  Mo  Mo187  1  0.29907603  0.10925861  0.11712384  1
  Mo  Mo188  1  0.09504922  0.89757803  0.13603925  1
  Mo  Mo189  1  0.59816811  0.79190532  0.75543167  1
  Mo  Mo190  1  0.29691503  0.50832424  0.11441566  1
  Mo  Mo191  1  0.49191936  0.89934343  0.37134226  1
  Mo  Mo192  1  0.20914678  0.59254633  0.01043143  1
  Mo  Mo193  1  0.10528484  0.48919650  0.13389167  1
  Mo  Mo194  1  -0.01116917  0.20283233  0.74248214  1
  Mo  Mo195  1  0.49542141  0.89549138  0.88216001  1
  Mo  Mo196  1  0.39929429  0.20256617  -0.00379854  1
  Mo  Mo197  1  0.69101184  0.29871242  0.13619168  1
  Mo  Mo198  1  0.39364276  -0.00058305  -0.00299123  1
  Mo  Mo199  1  0.69577017  0.50211560  0.87843968  1
