# generated using pymatgen
data_HfZrTaTiMo
_symmetry_space_group_name_H-M   'P 1'
_cell_length_a   15.18884839
_cell_length_b   15.17449783
_cell_length_c   16.82981654
_cell_angle_alpha   90.09564178
_cell_angle_beta   89.93217947
_cell_angle_gamma   90.07013317
_symmetry_Int_Tables_number   1
_chemical_formula_structural   HfZrTaTiMo
_chemical_formula_sum   'Hf40 Zr40 Ta40 Ti40 Mo40'
_cell_volume   3878.97805801
_cell_formula_units_Z   40
loop_
 _symmetry_equiv_pos_site_id
 _symmetry_equiv_pos_as_xyz
  1  'x, y, z'
loop_
 _atom_site_type_symbol
 _atom_site_label
 _atom_site_symmetry_multiplicity
 _atom_site_fract_x
 _atom_site_fract_y
 _atom_site_fract_z
 _atom_site_occupancy
  Hf  Hf0  1  -0.00533252  0.78795822  -0.00218980  1
  Hf  Hf1  1  0.70612924  0.50976594  0.12161942  1
  Hf  Hf2  1  0.32252696  0.49363948  0.63253125  1
  Hf  Hf3  1  0.11046153  0.50329521  0.37336545  1
  Hf  Hf4  1  0.09957830  0.90172744  0.12079034  1
  Hf  Hf5  1  0.39393693  0.78469030  0.49631884  1
  Hf  Hf6  1  0.22332614  0.60014396  0.51296540  1
  Hf  Hf7  1  0.60197548  0.42222174  0.49235303  1
  Hf  Hf8  1  0.00975675  0.39848175  0.51014319  1
  Hf  Hf9  1  0.41711940  0.60051547  0.76389707  1
  Hf  Hf10  1  0.09444927  0.09712082  0.11007203  1
  Hf  Hf11  1  0.39619523  0.20367524  0.50734045  1
  Hf  Hf12  1  -0.00156920  -0.00123683  0.25322493  1
  Hf  Hf13  1  0.48635929  0.92006565  0.89732453  1
  Hf  Hf14  1  0.08419021  0.49343185  0.12066516  1
  Hf  Hf15  1  0.79432434  0.79214718  0.25203984  1
  Hf  Hf16  1  0.31510673  0.29528244  0.12433265  1
  Hf  Hf17  1  -0.00294376  0.20874347  0.75346977  1
  Hf  Hf18  1  0.89030137  0.89404836  0.87261603  1
  Hf  Hf19  1  0.79186068  0.79890096  0.74187103  1
  Hf  Hf20  1  0.21492427  0.61387536  0.73758148  1
  Hf  Hf21  1  0.49799707  0.31292257  0.63472163  1
  Hf  Hf22  1  0.31280555  0.49001854  0.36122450  1
  Hf  Hf23  1  0.88581744  0.10657433  0.87086347  1
  Hf  Hf24  1  0.19758236  0.59854401  0.23717429  1
  Hf  Hf25  1  0.72145230  0.30121259  0.86126207  1
  Hf  Hf26  1  0.40639208  0.40595148  0.49706616  1
  Hf  Hf27  1  0.49660705  0.91299074  0.10648380  1
  Hf  Hf28  1  0.41280693  0.19749804  -0.00905220  1
  Hf  Hf29  1  0.79654436  0.59305865  0.76002279  1
  Hf  Hf30  1  0.19973337  0.19399201  0.49774163  1
  Hf  Hf31  1  0.60941140  0.22288736  0.00949234  1
  Hf  Hf32  1  0.11014629  0.90379972  0.63331307  1
  Hf  Hf33  1  0.40261494  -0.00385450  0.49982546  1
  Hf  Hf34  1  0.10375670  0.29477405  0.10900285  1
  Hf  Hf35  1  0.60212048  0.81790880  0.24209910  1
  Hf  Hf36  1  0.78910540  0.19466791  0.49746626  1
  Hf  Hf37  1  0.09844032  0.09895803  0.88036246  1
  Hf  Hf38  1  0.19579254  0.18827379  0.25093468  1
  Hf  Hf39  1  0.10280951  0.89161963  0.86393114  1
  Zr  Zr40  1  0.89467792  0.08824689  0.38846909  1
  Zr  Zr41  1  0.58945297  0.81970617  0.75005950  1
  Zr  Zr42  1  0.90211828  0.66648694  0.12850141  1
  Zr  Zr43  1  0.90356920  0.46607630  0.86196295  1
  Zr  Zr44  1  0.90082752  0.69832423  0.39048511  1
  Zr  Zr45  1  0.80522943  0.19268849  0.25749887  1
  Zr  Zr46  1  0.90747500  0.50234055  0.37756988  1
  Zr  Zr47  1  0.40205967  0.79102580  0.23869994  1
  Zr  Zr48  1  0.76898772  -0.00228796  0.73741809  1
  Zr  Zr49  1  0.89806729  0.89366403  0.39238596  1
  Zr  Zr50  1  0.89342487  0.09938993  0.62272996  1
  Zr  Zr51  1  0.28767229  0.89436312  0.37582446  1
  Zr  Zr52  1  0.00433364  0.78541059  0.25287953  1
  Zr  Zr53  1  0.80122698  0.39723662  0.49702249  1
  Zr  Zr54  1  0.59524742  0.21534060  0.49858419  1
  Zr  Zr55  1  0.60670469  0.61598805  0.76015283  1
  Zr  Zr56  1  0.01820716  0.60264727  0.51932366  1
  Zr  Zr57  1  0.10342210  0.69282657  0.86657601  1
  Zr  Zr58  1  0.49720115  0.11379943  0.13623698  1
  Zr  Zr59  1  0.50425084  0.71435286  0.89690629  1
  Zr  Zr60  1  0.50238499  0.10754572  0.36646127  1
  Zr  Zr61  1  0.51341663  0.31799319  0.87377328  1
  Zr  Zr62  1  -0.00900932  -0.00454873  0.74526483  1
  Zr  Zr63  1  0.40382037  0.19566169  0.75818269  1
  Zr  Zr64  1  0.78231994  -0.00667125  0.24671138  1
  Zr  Zr65  1  0.08889282  0.31383525  0.89136884  1
  Zr  Zr66  1  0.29534892  0.09461626  0.63314509  1
  Zr  Zr67  1  0.87862127  0.69114371  0.60850224  1
  Zr  Zr68  1  0.59420073  0.81445558  0.49950653  1
  Zr  Zr69  1  0.68103714  0.10047012  0.88151528  1
  Zr  Zr70  1  -0.00028463  0.57670863  -0.01543185  1
  Zr  Zr71  1  0.11836568  0.29521325  0.63150851  1
  Zr  Zr72  1  0.30236879  0.50106633  0.88375914  1
  Zr  Zr73  1  0.20237948  0.79725444  0.00455627  1
  Zr  Zr74  1  0.70620552  0.51036255  0.62397586  1
  Zr  Zr75  1  0.30401725  0.29034296  0.36160931  1
  Zr  Zr76  1  0.00007241  0.59267225  0.73450423  1
  Zr  Zr77  1  0.30540095  0.68519891  0.36477057  1
  Zr  Zr78  1  0.29617872  0.08812066  0.12456227  1
  Zr  Zr79  1  0.89377906  0.89090383  0.12023392  1
  Ta  Ta80  1  -0.00300242  0.79218595  0.72966626  1
  Ta  Ta81  1  0.29735608  0.30888936  0.88822727  1
  Ta  Ta82  1  0.67965242  0.70017169  0.37814552  1
  Ta  Ta83  1  0.00054883  0.20035152  0.50198251  1
  Ta  Ta84  1  0.60538451  0.20602442  0.24981833  1
  Ta  Ta85  1  0.09963383  0.09293794  0.38128416  1
  Ta  Ta86  1  0.79080619  0.59654655  0.26140288  1
  Ta  Ta87  1  0.68894617  0.49224649  0.88417672  1
  Ta  Ta88  1  0.59950091  0.62025695  0.23669547  1
  Ta  Ta89  1  0.00494332  0.19892465  0.25472707  1
  Ta  Ta90  1  0.90156375  0.09986403  0.12068065  1
  Ta  Ta91  1  0.48989573  0.69233564  0.62433729  1
  Ta  Ta92  1  0.30428212  0.71173032  0.88366831  1
  Ta  Ta93  1  0.40065078  -0.00453251  0.25410218  1
  Ta  Ta94  1  0.68640531  0.90114683  0.89251963  1
  Ta  Ta95  1  0.79806159  0.39730256  0.00631392  1
  Ta  Ta96  1  0.81353162  0.20869540  0.00712842  1
  Ta  Ta97  1  0.40008544  0.59694611  0.00968717  1
  Ta  Ta98  1  0.89775339  0.30632892  0.63257919  1
  Ta  Ta99  1  0.90789607  0.29645025  0.37486934  1
  Ta  Ta100  1  0.19684046  0.39319727  0.24164856  1
  Ta  Ta101  1  0.80295756  0.59530097  -0.01485562  1
  Ta  Ta102  1  0.50628484  0.53029952  0.36682549  1
  Ta  Ta103  1  0.80172699  0.40269701  0.25472632  1
  Ta  Ta104  1  0.60150327  0.41692102  0.74738475  1
  Ta  Ta105  1  0.20920942  0.19380029  -0.01096175  1
  Ta  Ta106  1  0.70328894  0.70733524  0.11119791  1
  Ta  Ta107  1  0.70355764  0.30599384  0.13769400  1
  Ta  Ta108  1  0.00198065  0.39693883  0.25112363  1
  Ta  Ta109  1  0.69680513  0.30603699  0.36371123  1
  Ta  Ta110  1  0.19644589  0.79881033  0.24212879  1
  Ta  Ta111  1  0.90595836  0.30162339  0.13162066  1
  Ta  Ta112  1  0.59782586  0.42302106  0.24590650  1
  Ta  Ta113  1  0.09916580  0.29979776  0.37591258  1
  Ta  Ta114  1  0.50080026  0.90279605  0.36969616  1
  Ta  Ta115  1  0.69884733  0.10065023  0.11900786  1
  Ta  Ta116  1  0.20727395  0.20567826  0.76874671  1
  Ta  Ta117  1  0.41346266  0.58817469  0.22227988  1
  Ta  Ta118  1  0.49753962  0.31946673  0.35354589  1
  Ta  Ta119  1  0.79557094  0.00381198  0.00202265  1
  Ti  Ti120  1  0.29956719  0.69688443  0.11756134  1
  Ti  Ti121  1  0.29859885  0.48788927  0.11511887  1
  Ti  Ti122  1  0.09780143  0.69340103  0.12269817  1
  Ti  Ti123  1  0.11473957  0.48928824  0.63689576  1
  Ti  Ti124  1  0.19499248  -0.00989394  0.25511360  1
  Ti  Ti125  1  0.20931239  -0.00759531  -0.01189753  1
  Ti  Ti126  1  0.30324305  0.88993090  0.62804620  1
  Ti  Ti127  1  0.50616222  0.70630674  0.10534763  1
  Ti  Ti128  1  0.19122509  0.79242313  0.51002535  1
  Ti  Ti129  1  0.30025078  0.09048523  0.37105296  1
  Ti  Ti130  1  0.09654943  0.89516204  0.38409089  1
  Ti  Ti131  1  0.19895650  -0.00498235  0.50113069  1
  Ti  Ti132  1  0.60310045  0.59614019  -0.00087593  1
  Ti  Ti133  1  0.70478155  0.70758872  0.88833201  1
  Ti  Ti134  1  0.80029517  0.79625741  -0.00161057  1
  Ti  Ti135  1  0.30097558  0.89841467  0.12440351  1
  Ti  Ti136  1  -0.00860211  -0.00342724  -0.00678197  1
  Ti  Ti137  1  0.21121407  0.39295955  0.50228603  1
  Ti  Ti138  1  0.70318049  0.29680389  0.63706998  1
  Ti  Ti139  1  0.90195862  0.69775474  0.86768811  1
  Ti  Ti140  1  0.50753182  0.09577966  0.62857573  1
  Ti  Ti141  1  0.21254444  -0.00273175  0.75832591  1
  Ti  Ti142  1  0.10427000  0.70265542  0.37656434  1
  Ti  Ti143  1  0.49701784  0.90249700  0.62613872  1
  Ti  Ti144  1  0.10318473  0.10091196  0.63211982  1
  Ti  Ti145  1  0.40708952  -0.00651521  0.75253944  1
  Ti  Ti146  1  0.60500298  0.01480908  0.50255511  1
  Ti  Ti147  1  -0.00145793  0.80665173  0.52107032  1
  Ti  Ti148  1  0.77431065  0.59701400  0.48487926  1
  Ti  Ti149  1  0.78676087  -0.01502836  0.51837466  1
  Ti  Ti150  1  0.69125748  0.90576196  0.10529182  1
  Ti  Ti151  1  0.69611138  0.91465950  0.37997817  1
  Ti  Ti152  1  0.11271608  0.49200788  0.85775854  1
  Ti  Ti153  1  0.68594688  0.71130746  0.61242349  1
  Ti  Ti154  1  0.19891911  0.59284343  0.00228003  1
  Ti  Ti155  1  0.38730611  0.80001606  0.75175752  1
  Ti  Ti156  1  0.60463178  0.19308659  0.74538510  1
  Ti  Ti157  1  0.00544437  0.00031401  0.51164028  1
  Ti  Ti158  1  0.31126711  0.08811330  0.87666489  1
  Ti  Ti159  1  0.39976804  0.40103469  0.75946660  1
  Mo  Mo160  1  0.20804923  0.80560532  0.74838576  1
  Mo  Mo161  1  0.59645378  0.01820962  0.00492979  1
  Mo  Mo162  1  0.50588468  0.31382037  0.14341947  1
  Mo  Mo163  1  0.50386140  0.50116021  0.11072452  1
  Mo  Mo164  1  0.30195469  0.30292508  0.63540553  1
  Mo  Mo165  1  0.30889784  0.70702264  0.62731891  1
  Mo  Mo166  1  0.69219480  0.09748298  0.37759539  1
  Mo  Mo167  1  0.40317992  0.40691300  0.23950159  1
  Mo  Mo168  1  0.69487079  0.50620645  0.36477790  1
  Mo  Mo169  1  0.50966220  0.50544484  0.62986600  1
  Mo  Mo170  1  0.50348129  0.50255658  0.89266385  1
  Mo  Mo171  1  0.90375860  0.48993983  0.63048905  1
  Mo  Mo172  1  0.38367020  0.00781811  0.00028121  1
  Mo  Mo173  1  0.89505989  0.89364321  0.61457074  1
  Mo  Mo174  1  0.79401372  0.19961233  0.73860283  1
  Mo  Mo175  1  0.21190915  0.39541434  0.75427932  1
  Mo  Mo176  1  0.20227321  0.40343640  0.00703117  1
  Mo  Mo177  1  0.00838897  0.39843792  0.73726304  1
  Mo  Mo178  1  0.60135778  0.00299975  0.24963438  1
  Mo  Mo179  1  0.39107086  0.79867466  0.01200603  1
  Mo  Mo180  1  0.89831543  0.29050840  0.87142010  1
  Mo  Mo181  1  0.29883350  0.89863967  0.86974279  1
  Mo  Mo182  1  0.68754123  0.90469359  0.62031593  1
  Mo  Mo183  1  0.68542730  0.10556095  0.62410717  1
  Mo  Mo184  1  -0.01944642  0.38282188  0.00756835  1
  Mo  Mo185  1  0.49849447  0.70814345  0.36148714  1
  Mo  Mo186  1  0.49911545  0.10887657  0.87331283  1
  Mo  Mo187  1  0.89141728  0.48811610  0.13128781  1
  Mo  Mo188  1  0.10806340  0.70625783  0.62463275  1
  Mo  Mo189  1  0.00180571  0.59138678  0.25318431  1
  Mo  Mo190  1  0.79828894  0.39851829  0.74032243  1
  Mo  Mo191  1  0.78692341  0.79973716  0.49865707  1
  Mo  Mo192  1  -0.00651435  0.18968595  -0.00193186  1
  Mo  Mo193  1  0.57801670  0.00711629  0.74965419  1
  Mo  Mo194  1  0.60615498  0.40540060  0.01015002  1
  Mo  Mo195  1  0.40977672  0.40186043  0.00624997  1
  Mo  Mo196  1  0.41612171  0.59497543  0.49893195  1
  Mo  Mo197  1  0.58803879  0.61232352  0.49859726  1
  Mo  Mo198  1  0.60658641  0.80475019  0.00392904  1
  Mo  Mo199  1  0.39989346  0.19890547  0.25474049  1
