# generated using pymatgen
data_HfZrTaTiMo
_symmetry_space_group_name_H-M   'P 1'
_cell_length_a   15.21672089
_cell_length_b   15.21694417
_cell_length_c   16.83916034
_cell_angle_alpha   90.00606462
_cell_angle_beta   89.97534368
_cell_angle_gamma   90.02006737
_symmetry_Int_Tables_number   1
_chemical_formula_structural   HfZrTaTiMo
_chemical_formula_sum   'Hf40 Zr40 Ta40 Ti40 Mo40'
_cell_volume   3899.14050123
_cell_formula_units_Z   40
loop_
 _symmetry_equiv_pos_site_id
 _symmetry_equiv_pos_as_xyz
  1  'x, y, z'
loop_
 _atom_site_type_symbol
 _atom_site_label
 _atom_site_symmetry_multiplicity
 _atom_site_fract_x
 _atom_site_fract_y
 _atom_site_fract_z
 _atom_site_occupancy
  Hf  Hf0  1  0.11748714  0.31347277  0.62152244  1
  Hf  Hf1  1  0.21326040  0.40991825  0.24529253  1
  Hf  Hf2  1  0.51166624  0.08676734  0.36120257  1
  Hf  Hf3  1  0.89546950  0.49838990  0.13562101  1
  Hf  Hf4  1  0.70101195  0.09440359  0.38025496  1
  Hf  Hf5  1  0.79359793  0.78859973  0.49311009  1
  Hf  Hf6  1  0.78396134  0.80635931  0.26773921  1
  Hf  Hf7  1  0.30743066  0.29371266  0.62847208  1
  Hf  Hf8  1  0.79099944  0.00399940  0.00700594  1
  Hf  Hf9  1  0.31083551  0.50816057  0.88933132  1
  Hf  Hf10  1  0.27627261  0.71175471  0.38833271  1
  Hf  Hf11  1  0.41757201  0.19511960  0.00370294  1
  Hf  Hf12  1  0.00281501  0.20584742  0.50346118  1
  Hf  Hf13  1  0.29817649  0.90005405  0.88129342  1
  Hf  Hf14  1  0.40124952  0.37302730  0.48758459  1
  Hf  Hf15  1  0.60256928  0.40098623  0.76560526  1
  Hf  Hf16  1  0.00294497  0.39032829  0.01044838  1
  Hf  Hf17  1  0.09946759  0.90306532  0.62372513  1
  Hf  Hf18  1  0.30729660  0.09139872  0.11784046  1
  Hf  Hf19  1  0.80291587  0.79219452  0.73537530  1
  Hf  Hf20  1  0.68122316  0.49699183  0.13627092  1
  Hf  Hf21  1  0.20971309  0.61890474  0.23949783  1
  Hf  Hf22  1  0.21301377  0.60648588  0.74875300  1
  Hf  Hf23  1  0.29491884  0.49325374  0.61676776  1
  Hf  Hf24  1  0.08851127  0.90713521  0.12130658  1
  Hf  Hf25  1  0.69271508  0.30106682  0.62554735  1
  Hf  Hf26  1  0.32815608  0.09864339  0.63422005  1
  Hf  Hf27  1  0.00525873  0.40643216  0.50421153  1
  Hf  Hf28  1  0.40347938  0.40201322  0.76295295  1
  Hf  Hf29  1  -0.01273886  0.60887561  0.49475039  1
  Hf  Hf30  1  0.48988914  0.72055101  0.37834493  1
  Hf  Hf31  1  0.38956248  0.77414859  0.73689262  1
  Hf  Hf32  1  0.70292784  0.50026448  0.62152939  1
  Hf  Hf33  1  0.80046404  0.39903414  0.49745789  1
  Hf  Hf34  1  0.00212301  0.40642994  0.74753282  1
  Hf  Hf35  1  0.00083128  0.61311073  0.25300706  1
  Hf  Hf36  1  0.89486535  0.10664481  0.36922641  1
  Hf  Hf37  1  0.19674389  0.00755513  0.75446881  1
  Hf  Hf38  1  0.89833542  0.10085680  0.87686884  1
  Hf  Hf39  1  0.79516147  0.37258466  0.24030256  1
  Zr  Zr40  1  0.91581034  0.29738051  0.87340864  1
  Zr  Zr41  1  0.61003001  0.19546314  -0.00124604  1
  Zr  Zr42  1  -0.00431699  0.79874401  0.50222297  1
  Zr  Zr43  1  0.49314547  0.69185597  0.87695041  1
  Zr  Zr44  1  0.70231354  0.90070920  0.62203726  1
  Zr  Zr45  1  0.20716294  0.20968032  0.23784226  1
  Zr  Zr46  1  0.09964157  0.71603311  0.12191480  1
  Zr  Zr47  1  0.41548564  0.20800746  0.23879497  1
  Zr  Zr48  1  0.00303780  -0.00266258  0.26046192  1
  Zr  Zr49  1  0.70423307  0.29032717  0.37871365  1
  Zr  Zr50  1  0.78612455  0.60635187  0.26754907  1
  Zr  Zr51  1  0.89037411  0.69881238  0.87537339  1
  Zr  Zr52  1  0.09889295  0.50253130  0.87586940  1
  Zr  Zr53  1  0.57890100  0.00427474  0.52021762  1
  Zr  Zr54  1  0.61001506  0.59929790  0.48565766  1
  Zr  Zr55  1  -0.00875137  0.59956331  0.00368043  1
  Zr  Zr56  1  0.39809581  0.58642765  0.25832546  1
  Zr  Zr57  1  0.88607818  0.89778476  0.13250041  1
  Zr  Zr58  1  0.00339189  0.00116075  0.49351887  1
  Zr  Zr59  1  0.30356526  0.10522725  0.88266684  1
  Zr  Zr60  1  0.58311533  -0.01364830  -0.00719386  1
  Zr  Zr61  1  0.69200635  0.88952107  0.86545538  1
  Zr  Zr62  1  0.89112352  0.90281299  0.87569645  1
  Zr  Zr63  1  0.10723022  0.51122693  0.37151896  1
  Zr  Zr64  1  0.12379544  0.10830688  0.61601444  1
  Zr  Zr65  1  0.78308384  0.59690107  0.00066002  1
  Zr  Zr66  1  0.00338237  0.19563801  0.73449990  1
  Zr  Zr67  1  0.80922996  0.21394718  0.02097189  1
  Zr  Zr68  1  0.31899149  0.32498722  0.10850897  1
  Zr  Zr69  1  0.41219679  -0.02401815  0.23742903  1
  Zr  Zr70  1  0.37401885  0.78716342  0.23542042  1
  Zr  Zr71  1  0.30814265  0.09879680  0.36452362  1
  Zr  Zr72  1  0.49850548  0.68562860  0.12103327  1
  Zr  Zr73  1  0.71959418  0.30132353  0.87277226  1
  Zr  Zr74  1  0.09442757  0.11644448  0.87653460  1
  Zr  Zr75  1  0.08499888  0.90876105  0.87864766  1
  Zr  Zr76  1  0.10884144  0.10562677  0.37204024  1
  Zr  Zr77  1  0.90102688  0.48728766  0.36125487  1
  Zr  Zr78  1  0.50465188  0.48174385  0.61399185  1
  Zr  Zr79  1  0.40089084  0.61118864  0.50669736  1
  Ta  Ta80  1  0.22422952  -0.00805559  0.49861858  1
  Ta  Ta81  1  0.29594799  0.90275227  0.63660439  1
  Ta  Ta82  1  0.59421586  0.20385283  0.50703655  1
  Ta  Ta83  1  0.89710354  0.51193898  0.62577559  1
  Ta  Ta84  1  0.49876715  0.09303140  0.86262030  1
  Ta  Ta85  1  -0.01203625  0.80507907  0.00033184  1
  Ta  Ta86  1  0.29478684  0.70337266  0.89095415  1
  Ta  Ta87  1  0.89026379  0.70804574  0.13184600  1
  Ta  Ta88  1  0.52096005  0.08391202  0.13154272  1
  Ta  Ta89  1  0.00990446  0.19043878  0.02194678  1
  Ta  Ta90  1  0.40665673  0.80672161  0.00309390  1
  Ta  Ta91  1  0.91054850  0.29420090  0.37120485  1
  Ta  Ta92  1  0.09718578  0.51046304  0.62818808  1
  Ta  Ta93  1  0.49265493  0.48647321  0.12398471  1
  Ta  Ta94  1  0.19720305  0.21486241  0.01357476  1
  Ta  Ta95  1  0.18585799  0.01040933  0.00186651  1
  Ta  Ta96  1  0.18791699  0.60804884  0.50880797  1
  Ta  Ta97  1  0.49061514  0.89515245  0.85585632  1
  Ta  Ta98  1  0.09779674  0.70727001  0.87619608  1
  Ta  Ta99  1  0.69525845  0.70642763  0.13111684  1
  Ta  Ta100  1  -0.00724370  0.60926135  0.74749106  1
  Ta  Ta101  1  0.80169894  0.19195352  0.51307997  1
  Ta  Ta102  1  0.58279146  0.79654313  0.52111788  1
  Ta  Ta103  1  0.19098325  0.79921627  0.75341633  1
  Ta  Ta104  1  0.10871775  0.31075825  0.37242553  1
  Ta  Ta105  1  0.58575502  0.59907877  0.74609133  1
  Ta  Ta106  1  0.19640986  0.60446753  0.00500060  1
  Ta  Ta107  1  0.59160819  0.79273595  0.73128371  1
  Ta  Ta108  1  0.58467732  0.80880595  0.24937181  1
  Ta  Ta109  1  0.29729188  0.49429565  0.39114370  1
  Ta  Ta110  1  0.80118912  -0.00470357  0.50371171  1
  Ta  Ta111  1  0.59758023  0.19819205  0.75396595  1
  Ta  Ta112  1  0.70157523  0.09458075  0.86301200  1
  Ta  Ta113  1  0.28560326  0.89077480  0.10335461  1
  Ta  Ta114  1  -0.00023803  0.21767282  0.23676217  1
  Ta  Ta115  1  0.39296244  0.81884601  0.51928187  1
  Ta  Ta116  1  0.62777422  0.19716725  0.23368553  1
  Ta  Ta117  1  0.79971424  0.00429875  0.73867957  1
  Ta  Ta118  1  0.59558597  0.00200351  0.73790486  1
  Ta  Ta119  1  0.11939861  0.88594044  0.37733208  1
  Ti  Ti120  1  0.51241605  0.29154468  0.36713118  1
  Ti  Ti121  1  0.11501040  0.30654643  0.88381592  1
  Ti  Ti122  1  0.90108417  0.09667555  0.13630491  1
  Ti  Ti123  1  0.89652170  0.90114536  0.37334702  1
  Ti  Ti124  1  0.89815519  0.08936290  0.61987524  1
  Ti  Ti125  1  0.43203543  0.40417147  -0.01568376  1
  Ti  Ti126  1  0.30580337  0.30483724  0.89029894  1
  Ti  Ti127  1  0.88606645  0.49224742  0.87775364  1
  Ti  Ti128  1  0.78161251  0.00614899  0.24825545  1
  Ti  Ti129  1  0.79301476  0.59305218  0.75388936  1
  Ti  Ti130  1  0.20885531  -0.01528668  0.24658542  1
  Ti  Ti131  1  0.21351980  0.21449840  0.75969149  1
  Ti  Ti132  1  0.60113693  0.78916350  0.00119287  1
  Ti  Ti133  1  0.31524943  0.89939579  0.37880325  1
  Ti  Ti134  1  0.20418915  0.40418378  0.75745926  1
  Ti  Ti135  1  0.49497415  0.28419900  0.63051551  1
  Ti  Ti136  1  0.10305701  0.09863524  0.13296005  1
  Ti  Ti137  1  0.09770530  0.70143497  0.62981526  1
  Ti  Ti138  1  0.79889038  0.19389096  0.73528304  1
  Ti  Ti139  1  -0.00959068  -0.00415761  0.73918299  1
  Ti  Ti140  1  0.89860543  0.30580177  0.62611637  1
  Ti  Ti141  1  0.78843009  0.79634571  0.00485183  1
  Ti  Ti142  1  0.80557486  0.40374274  0.74626258  1
  Ti  Ti143  1  0.69010994  0.69349482  0.86711163  1
  Ti  Ti144  1  -0.00585413  0.80027847  0.73983290  1
  Ti  Ti145  1  0.10513483  0.49661805  0.12626420  1
  Ti  Ti146  1  0.52590171  0.30869199  0.12613101  1
  Ti  Ti147  1  0.62042928  0.40215437  -0.01299877  1
  Ti  Ti148  1  0.59133292  0.58749664  -0.00630719  1
  Ti  Ti149  1  0.68789348  0.48418639  0.36654795  1
  Ti  Ti150  1  0.79996907  0.60032456  0.47939734  1
  Ti  Ti151  1  0.41085702  0.17879591  0.49334593  1
  Ti  Ti152  1  0.68031841  0.90274089  0.12784532  1
  Ti  Ti153  1  0.70089556  0.68726328  0.62293737  1
  Ti  Ti154  1  0.67190891  0.89699562  0.38807676  1
  Ti  Ti155  1  0.40666562  0.39728135  0.26173726  1
  Ti  Ti156  1  0.50218889  0.48841020  0.38166783  1
  Ti  Ti157  1  0.22042855  0.21447371  0.48697928  1
  Ti  Ti158  1  0.59219346  0.60309016  0.26405042  1
  Ti  Ti159  1  0.30805331  0.51438664  0.10652201  1
  Mo  Mo160  1  0.89975542  0.90134214  0.62389360  1
  Mo  Mo161  1  0.20060831  0.80325381  0.51269427  1
  Mo  Mo162  1  0.50317235  0.11130247  0.63784688  1
  Mo  Mo163  1  0.61034426  -0.01228338  0.25008606  1
  Mo  Mo164  1  0.49775044  0.89597694  0.38232147  1
  Mo  Mo165  1  0.20135271  0.40215108  0.49377132  1
  Mo  Mo166  1  0.28533231  0.70257902  0.61847609  1
  Mo  Mo167  1  0.40634926  0.20752235  0.76707988  1
  Mo  Mo168  1  0.10812406  0.30741753  0.12530017  1
  Mo  Mo169  1  0.29545787  0.70197120  0.10035541  1
  Mo  Mo170  1  0.50063988  0.69276629  0.62213745  1
  Mo  Mo171  1  0.09564937  0.70882970  0.37393163  1
  Mo  Mo172  1  -0.00547165  0.80056833  0.26630479  1
  Mo  Mo173  1  0.01261542  0.39834458  0.24294024  1
  Mo  Mo174  1  0.90868237  0.30224670  0.12704125  1
  Mo  Mo175  1  0.70418590  0.50925405  0.86784422  1
  Mo  Mo176  1  0.70567428  0.09153166  0.12514424  1
  Mo  Mo177  1  0.51045431  0.50053061  0.87710160  1
  Mo  Mo178  1  0.19437235  0.81315529  0.24739090  1
  Mo  Mo179  1  0.40202457  0.59282375  0.74202697  1
  Mo  Mo180  1  0.89225008  0.68981280  0.62873041  1
  Mo  Mo181  1  0.40469267  0.59874182  0.00348990  1
  Mo  Mo182  1  0.39946310  -0.00289813  0.00412603  1
  Mo  Mo183  1  0.40146061  -0.00618071  0.75535033  1
  Mo  Mo184  1  0.70339232  0.10717067  0.62855665  1
  Mo  Mo185  1  0.80205739  0.41034774  0.00869982  1
  Mo  Mo186  1  0.68394113  0.70833116  0.37893965  1
  Mo  Mo187  1  0.20392670  0.40774536  0.00335296  1
  Mo  Mo188  1  0.59715076  0.38844233  0.49351902  1
  Mo  Mo189  1  0.58590674  0.39556519  0.25324429  1
  Mo  Mo190  1  0.30389383  0.29963896  0.37203308  1
  Mo  Mo191  1  0.48668504  0.90491981  0.64483066  1
  Mo  Mo192  1  0.69995363  0.30695547  0.11840081  1
  Mo  Mo193  1  0.19044410  0.80324005  -0.01221322  1
  Mo  Mo194  1  -0.00627687  0.01091902  0.01056081  1
  Mo  Mo195  1  0.50144903  0.29253823  0.87700232  1
  Mo  Mo196  1  0.89844929  0.70892659  0.36823465  1
  Mo  Mo197  1  0.49894437  0.88925910  0.11818015  1
  Mo  Mo198  1  0.80945948  0.18964187  0.23840009  1
  Mo  Mo199  1  0.40062694  -0.00010357  0.50097635  1
