# generated using pymatgen
data_HfZrTaTiMo
_symmetry_space_group_name_H-M   'P 1'
_cell_length_a   15.19009512
_cell_length_b   15.21228584
_cell_length_c   16.87205739
_cell_angle_alpha   90.01418143
_cell_angle_beta   89.99398761
_cell_angle_gamma   89.77494034
_symmetry_Int_Tables_number   1
_chemical_formula_structural   HfZrTaTiMo
_chemical_formula_sum   'Hf40 Zr40 Ta40 Ti40 Mo40'
_cell_volume   3898.69847644
_cell_formula_units_Z   40
loop_
 _symmetry_equiv_pos_site_id
 _symmetry_equiv_pos_as_xyz
  1  'x, y, z'
loop_
 _atom_site_type_symbol
 _atom_site_label
 _atom_site_symmetry_multiplicity
 _atom_site_fract_x
 _atom_site_fract_y
 _atom_site_fract_z
 _atom_site_occupancy
  Hf  Hf0  1  0.60747379  0.60288338  0.25094408  1
  Hf  Hf1  1  -0.01666786  0.19733957  0.25172253  1
  Hf  Hf2  1  0.72572540  0.69390280  0.38257691  1
  Hf  Hf3  1  0.40354503  0.60748316  0.25348266  1
  Hf  Hf4  1  0.11568789  0.48364448  0.36360097  1
  Hf  Hf5  1  0.69779062  0.49085029  0.37461313  1
  Hf  Hf6  1  0.10344729  0.69580077  0.38534148  1
  Hf  Hf7  1  0.49576018  0.08295154  0.12700344  1
  Hf  Hf8  1  0.40733354  0.41290411  0.00156063  1
  Hf  Hf9  1  0.70691684  0.91353719  0.63094711  1
  Hf  Hf10  1  0.10692971  0.90595711  0.37187928  1
  Hf  Hf11  1  0.70561947  0.91311745  0.86805711  1
  Hf  Hf12  1  0.40958287  0.79965523  0.48326077  1
  Hf  Hf13  1  0.90739912  0.67365931  0.11242242  1
  Hf  Hf14  1  0.08763578  0.31009992  0.88729904  1
  Hf  Hf15  1  0.70241715  0.68645644  0.86739255  1
  Hf  Hf16  1  0.29483229  0.30603853  0.88187404  1
  Hf  Hf17  1  0.08487140  0.51217338  0.13784425  1
  Hf  Hf18  1  0.18934878  0.42006624  -0.00150324  1
  Hf  Hf19  1  0.19987813  0.00464005  0.50329490  1
  Hf  Hf20  1  0.60635172  0.39174226  0.23787004  1
  Hf  Hf21  1  0.08327654  0.29999898  0.62953119  1
  Hf  Hf22  1  0.21081454  0.81385228  0.00232025  1
  Hf  Hf23  1  0.38985925  0.20153262  0.23724354  1
  Hf  Hf24  1  0.80448652  0.39676858  0.50991655  1
  Hf  Hf25  1  0.50086778  0.51826854  0.85462018  1
  Hf  Hf26  1  0.59441234  0.20438798  0.75181974  1
  Hf  Hf27  1  0.49232067  0.29503600  0.62477357  1
  Hf  Hf28  1  0.80912739  0.58335601  0.73504453  1
  Hf  Hf29  1  0.79867273  0.19610983  0.50555357  1
  Hf  Hf30  1  0.60306826  0.39904779  0.51780396  1
  Hf  Hf31  1  0.27877245  0.31027904  0.36884755  1
  Hf  Hf32  1  0.11854558  0.68036273  0.61053117  1
  Hf  Hf33  1  0.80991990  0.78832388  0.74166338  1
  Hf  Hf34  1  0.38919471  0.41839624  0.50721127  1
  Hf  Hf35  1  0.88296963  0.30294352  0.11604818  1
  Hf  Hf36  1  0.80715053  0.00086966  0.00858307  1
  Hf  Hf37  1  0.08286676  0.31289805  0.11566340  1
  Hf  Hf38  1  0.10103702  0.89439694  0.63021362  1
  Hf  Hf39  1  0.70143048  0.48020851  0.85493300  1
  Zr  Zr40  1  0.18867693  0.20640956  0.75701380  1
  Zr  Zr41  1  0.50768700  0.31941514  0.87430158  1
  Zr  Zr42  1  0.50472339  0.10265255  0.88906417  1
  Zr  Zr43  1  0.50341331  0.71763459  0.12695629  1
  Zr  Zr44  1  0.68982302  0.89083270  0.12539482  1
  Zr  Zr45  1  0.29425718  0.08755487  0.89121575  1
  Zr  Zr46  1  0.89452651  0.50512535  0.37650921  1
  Zr  Zr47  1  0.08558946  0.10300729  0.62838599  1
  Zr  Zr48  1  0.30998195  0.10844436  0.62174731  1
  Zr  Zr49  1  0.39114051  0.20504664  0.49452082  1
  Zr  Zr50  1  0.91046990  0.89091639  0.86667208  1
  Zr  Zr51  1  0.08636937  0.10223060  0.88400972  1
  Zr  Zr52  1  0.71974911  0.90549538  0.37731265  1
  Zr  Zr53  1  0.39990456  0.20232504  0.01715328  1
  Zr  Zr54  1  0.39206098  0.19971445  0.75453005  1
  Zr  Zr55  1  0.29295351  0.50916094  0.12860741  1
  Zr  Zr56  1  0.00636161  0.37976557  0.48654712  1
  Zr  Zr57  1  0.21243064  0.77795165  0.74045740  1
  Zr  Zr58  1  0.58482428  0.80614721  -0.01472814  1
  Zr  Zr59  1  0.60807010  0.80640122  0.49500789  1
  Zr  Zr60  1  0.80653858  0.78915600  -0.00374962  1
  Zr  Zr61  1  0.59256491  0.80854701  0.75189408  1
  Zr  Zr62  1  0.72547431  0.49203769  0.12407820  1
  Zr  Zr63  1  -0.01292686  -0.00306646  0.50128298  1
  Zr  Zr64  1  0.39680829  -0.00280549  0.48203373  1
  Zr  Zr65  1  0.49963549  0.31093176  0.37980107  1
  Zr  Zr66  1  0.22026394  -0.00688321  0.73950509  1
  Zr  Zr67  1  0.11437468  0.89457274  0.86414196  1
  Zr  Zr68  1  0.81163584  -0.00127857  0.23495842  1
  Zr  Zr69  1  0.49994283  0.10822870  0.36677690  1
  Zr  Zr70  1  0.79100056  0.17586053  0.76151509  1
  Zr  Zr71  1  0.59788486  0.20106724  0.23456087  1
  Zr  Zr72  1  0.00594006  -0.01077534  0.00429794  1
  Zr  Zr73  1  -0.00058133  0.58997236  0.50388096  1
  Zr  Zr74  1  0.49961059  0.92302339  0.62013834  1
  Zr  Zr75  1  0.60869579  0.58884980  -0.00229319  1
  Zr  Zr76  1  0.18700661  0.20490499  0.23785380  1
  Zr  Zr77  1  0.00488607  0.79730209  0.24987998  1
  Zr  Zr78  1  0.39644218  0.61660178  -0.00406260  1
  Zr  Zr79  1  0.59455248  0.60077591  0.50155133  1
  Ta  Ta80  1  0.39875429  0.39982554  0.24065017  1
  Ta  Ta81  1  0.40630095  -0.02703793  0.00613232  1
  Ta  Ta82  1  0.50578764  0.49845079  0.12576839  1
  Ta  Ta83  1  -0.02109679  0.20727443  0.75884950  1
  Ta  Ta84  1  0.08423754  0.10279873  0.11546392  1
  Ta  Ta85  1  0.28991487  0.50893926  0.86629161  1
  Ta  Ta86  1  0.29352982  0.52089358  0.62919690  1
  Ta  Ta87  1  0.21612792  0.80678294  0.25690645  1
  Ta  Ta88  1  0.41291231  0.80620884  0.27263254  1
  Ta  Ta89  1  0.19793060  0.61108095  0.25249791  1
  Ta  Ta90  1  0.38536790  0.62160615  0.74731381  1
  Ta  Ta91  1  0.11305401  0.48394406  0.63012059  1
  Ta  Ta92  1  0.70045818  0.29455338  0.37930935  1
  Ta  Ta93  1  0.59637510  -0.00870070  0.25573693  1
  Ta  Ta94  1  0.91011939  0.47562555  0.62981386  1
  Ta  Ta95  1  0.79234370  0.20803209  0.24832621  1
  Ta  Ta96  1  0.29676911  0.71128039  0.13143037  1
  Ta  Ta97  1  0.60630406  0.79676367  0.26670717  1
  Ta  Ta98  1  0.27863332  0.32125297  0.62719447  1
  Ta  Ta99  1  0.49985795  0.51155035  0.64248835  1
  Ta  Ta100  1  -0.00568980  0.40282827  0.76134765  1
  Ta  Ta101  1  0.28283235  0.07840971  0.12066746  1
  Ta  Ta102  1  0.89071417  0.08995450  0.37238656  1
  Ta  Ta103  1  0.09443498  0.10586670  0.37369401  1
  Ta  Ta104  1  0.21443420  0.80160515  0.50109438  1
  Ta  Ta105  1  -0.02350077  0.42544956  -0.00588112  1
  Ta  Ta106  1  0.12585572  0.91123001  0.13435171  1
  Ta  Ta107  1  0.91498910  0.67412734  0.87808411  1
  Ta  Ta108  1  0.38604022  0.41034646  0.74388090  1
  Ta  Ta109  1  0.00161310  0.79699659  0.50479059  1
  Ta  Ta110  1  0.80813025  0.78439895  0.24359659  1
  Ta  Ta111  1  0.60402707  0.00586381  0.00070480  1
  Ta  Ta112  1  0.18991008  0.20013373  0.01089774  1
  Ta  Ta113  1  0.32526088  0.88854890  0.87340876  1
  Ta  Ta114  1  0.70125250  0.10582312  0.37375626  1
  Ta  Ta115  1  0.49225236  0.70472012  0.62865711  1
  Ta  Ta116  1  0.80141777  0.59814015  0.52750422  1
  Ta  Ta117  1  0.70836315  0.69417471  0.12318141  1
  Ta  Ta118  1  0.18461845  0.61692657  -0.00099656  1
  Ta  Ta119  1  0.81646912  0.79383366  0.51791399  1
  Ti  Ti120  1  0.60543586  0.21110731  0.01307034  1
  Ti  Ti121  1  0.09033524  0.52080334  0.86904885  1
  Ti  Ti122  1  0.78586918  0.40015105  -0.00870118  1
  Ti  Ti123  1  0.80089813  0.19141290  -0.00500262  1
  Ti  Ti124  1  0.38980313  -0.00866210  0.26105042  1
  Ti  Ti125  1  -0.00603630  0.60642921  0.26251230  1
  Ti  Ti126  1  0.90563115  0.90020015  0.63528396  1
  Ti  Ti127  1  0.18551165  0.21210434  0.49568077  1
  Ti  Ti128  1  0.90434789  0.88574122  0.37525947  1
  Ti  Ti129  1  -0.01428557  0.00830758  0.75466800  1
  Ti  Ti130  1  0.41610671  0.00554116  0.75173059  1
  Ti  Ti131  1  -0.01024309  0.19444347  0.48970519  1
  Ti  Ti132  1  0.01558793  0.78538237  -0.00181240  1
  Ti  Ti133  1  0.28249404  0.09908325  0.36632693  1
  Ti  Ti134  1  0.00635216  0.00203797  0.24349466  1
  Ti  Ti135  1  0.79900285  -0.00104734  0.50335910  1
  Ti  Ti136  1  -0.01331269  0.39177460  0.26135283  1
  Ti  Ti137  1  0.00719059  0.59819281  0.73840255  1
  Ti  Ti138  1  0.80975784  0.59284469  0.24886858  1
  Ti  Ti139  1  0.89066860  0.29932277  0.88468944  1
  Ti  Ti140  1  0.30249355  0.50147384  0.36686663  1
  Ti  Ti141  1  0.28715973  0.70013142  0.87649638  1
  Ti  Ti142  1  0.88931892  0.09636392  0.63083986  1
  Ti  Ti143  1  0.32018948  0.89504125  0.13348685  1
  Ti  Ti144  1  0.47936569  0.72248265  0.86190913  1
  Ti  Ti145  1  0.00522277  0.78172499  0.74419448  1
  Ti  Ti146  1  0.70629718  0.10526748  0.12285482  1
  Ti  Ti147  1  0.10582335  0.71028960  0.13074870  1
  Ti  Ti148  1  0.39300314  0.81792504  0.73296136  1
  Ti  Ti149  1  0.49711483  0.50178499  0.37036220  1
  Ti  Ti150  1  0.29971108  0.69576016  0.37695454  1
  Ti  Ti151  1  0.29167507  0.30892747  0.12152497  1
  Ti  Ti152  1  0.60052457  0.01577157  0.49024102  1
  Ti  Ti153  1  0.71026482  0.30544761  0.63976442  1
  Ti  Ti154  1  0.39854724  0.60719475  0.49592757  1
  Ti  Ti155  1  0.60890674  0.01734775  0.75623077  1
  Ti  Ti156  1  0.91532242  0.88590166  0.12303691  1
  Ti  Ti157  1  0.68322991  0.10626700  0.61801161  1
  Ti  Ti158  1  0.69126789  0.69295664  0.63049362  1
  Ti  Ti159  1  0.69616772  0.29162532  0.87879150  1
  Mo  Mo160  1  0.81630575  0.57951793  -0.01061875  1
  Mo  Mo161  1  0.39792254  0.79724490  -0.00007833  1
  Mo  Mo162  1  0.09242285  0.29028908  0.37186457  1
  Mo  Mo163  1  0.69928011  0.49525615  0.63955925  1
  Mo  Mo164  1  0.20230953  0.39934695  0.50196082  1
  Mo  Mo165  1  0.69970708  0.10338797  0.89211296  1
  Mo  Mo166  1  0.79973556  -0.00397690  0.74767167  1
  Mo  Mo167  1  -0.01331444  0.20369717  0.00043500  1
  Mo  Mo168  1  0.60604357  0.20253837  0.50498599  1
  Mo  Mo169  1  0.69919114  0.29658278  0.11180633  1
  Mo  Mo170  1  0.60091900  0.40135930  0.73400570  1
  Mo  Mo171  1  0.09828752  0.70178457  0.87178078  1
  Mo  Mo172  1  0.88613632  0.28829753  0.37245871  1
  Mo  Mo173  1  0.19873821  0.00563645  0.24984220  1
  Mo  Mo174  1  0.19710239  0.59297920  0.75179038  1
  Mo  Mo175  1  0.80337068  0.38737308  0.25747515  1
  Mo  Mo176  1  0.49242414  0.30687724  0.12079418  1
  Mo  Mo177  1  0.89863216  0.09870225  0.12664625  1
  Mo  Mo178  1  0.89887408  0.49303919  0.86708749  1
  Mo  Mo179  1  0.81066981  0.37590380  0.74919096  1
  Mo  Mo180  1  0.31054245  0.70062564  0.61098271  1
  Mo  Mo181  1  0.29761759  0.90039157  0.36930580  1
  Mo  Mo182  1  0.60078037  0.39673952  0.00536844  1
  Mo  Mo183  1  0.51172904  0.90581305  0.37140390  1
  Mo  Mo184  1  0.30303497  0.89690373  0.61778739  1
  Mo  Mo185  1  0.19386388  0.40752517  0.75970101  1
  Mo  Mo186  1  0.20196059  0.40394429  0.24090818  1
  Mo  Mo187  1  0.91005927  0.48995668  0.13738184  1
  Mo  Mo188  1  0.20760307  -0.00118563  0.00236381  1
  Mo  Mo189  1  0.89999550  0.28631336  0.63207601  1
  Mo  Mo190  1  0.50931496  0.10118380  0.62251557  1
  Mo  Mo191  1  0.90030205  0.70639193  0.38207534  1
  Mo  Mo192  1  0.50791570  0.69233729  0.37272098  1
  Mo  Mo193  1  0.59517469  0.60940145  0.74460237  1
  Mo  Mo194  1  0.00910311  0.59811354  -0.00057031  1
  Mo  Mo195  1  0.91056814  0.69624961  0.62706060  1
  Mo  Mo196  1  0.21831294  0.58517821  0.48989185  1
  Mo  Mo197  1  0.49924194  0.89957359  0.13902089  1
  Mo  Mo198  1  0.49958859  0.91065417  0.86704524  1
  Mo  Mo199  1  0.89526959  0.09749824  0.87850016  1
