# generated using pymatgen
data_HfZrTaTiMo
_symmetry_space_group_name_H-M   'P 1'
_cell_length_a   15.20481589
_cell_length_b   15.21316161
_cell_length_c   16.83650062
_cell_angle_alpha   90.09557449
_cell_angle_beta   89.99558101
_cell_angle_gamma   90.02852355
_symmetry_Int_Tables_number   1
_chemical_formula_structural   HfZrTaTiMo
_chemical_formula_sum   'Hf40 Zr40 Ta40 Ti40 Mo40'
_cell_volume   3894.50096596
_cell_formula_units_Z   40
loop_
 _symmetry_equiv_pos_site_id
 _symmetry_equiv_pos_as_xyz
  1  'x, y, z'
loop_
 _atom_site_type_symbol
 _atom_site_label
 _atom_site_symmetry_multiplicity
 _atom_site_fract_x
 _atom_site_fract_y
 _atom_site_fract_z
 _atom_site_occupancy
  Hf  Hf0  1  0.59498651  0.20197176  -0.01247960  1
  Hf  Hf1  1  0.11669764  0.88287577  0.37362241  1
  Hf  Hf2  1  0.21651765  -0.00227848  0.23932026  1
  Hf  Hf3  1  0.11261721  0.10396616  0.88491660  1
  Hf  Hf4  1  0.28923652  0.30166559  0.11135663  1
  Hf  Hf5  1  0.30485689  0.10486940  0.37855782  1
  Hf  Hf6  1  0.39799679  0.81083922  0.25896552  1
  Hf  Hf7  1  0.91171235  0.90955336  0.62635625  1
  Hf  Hf8  1  0.80562285  0.20432397  0.74420431  1
  Hf  Hf9  1  0.88960965  0.10088723  0.12437204  1
  Hf  Hf10  1  0.38938683  0.19098846  -0.00918733  1
  Hf  Hf11  1  0.40530888  0.40519145  -0.00815179  1
  Hf  Hf12  1  0.29217396  0.52049843  0.10545119  1
  Hf  Hf13  1  0.08808078  0.28314795  0.62638432  1
  Hf  Hf14  1  0.10197718  0.09239598  0.36583003  1
  Hf  Hf15  1  0.29714837  0.30219919  0.63619419  1
  Hf  Hf16  1  0.30646648  0.69334905  0.89805715  1
  Hf  Hf17  1  0.49165914  0.10553417  0.62619921  1
  Hf  Hf18  1  0.89776008  0.30148066  0.87943005  1
  Hf  Hf19  1  0.90580520  0.09850909  0.88278700  1
  Hf  Hf20  1  0.10639759  0.90336963  0.87476670  1
  Hf  Hf21  1  0.01712750  0.80025282  0.50372618  1
  Hf  Hf22  1  0.20942139  0.78591016  0.24230195  1
  Hf  Hf23  1  0.19657381  0.40860208  0.25939874  1
  Hf  Hf24  1  0.68660744  0.49480858  0.63171915  1
  Hf  Hf25  1  0.51407675  0.89767153  0.12132124  1
  Hf  Hf26  1  0.59184448  0.62628405  0.73812641  1
  Hf  Hf27  1  0.49139993  0.31208856  0.63548421  1
  Hf  Hf28  1  0.60577991  0.79978681  0.25462123  1
  Hf  Hf29  1  0.09609672  0.29405998  0.37730148  1
  Hf  Hf30  1  0.00131176  -0.01181356  0.24174091  1
  Hf  Hf31  1  0.50884096  0.50644746  0.13837184  1
  Hf  Hf32  1  0.31082025  0.88957859  0.10632207  1
  Hf  Hf33  1  0.70226563  0.09731808  0.87087728  1
  Hf  Hf34  1  0.01231873  0.59181072  0.50752024  1
  Hf  Hf35  1  0.19683521  0.18181459  0.51146271  1
  Hf  Hf36  1  0.58421269  0.60225319  -0.00717034  1
  Hf  Hf37  1  0.80020410  0.00233419  0.25576499  1
  Hf  Hf38  1  0.51449296  0.10399772  0.12559304  1
  Hf  Hf39  1  0.90686389  0.70143759  0.38303718  1
  Zr  Zr40  1  0.41156171  0.00410295  0.25111581  1
  Zr  Zr41  1  0.60428781  0.38768503  0.25542578  1
  Zr  Zr42  1  0.29703123  0.49689411  0.63269147  1
  Zr  Zr43  1  0.70451534  0.68503213  0.38072126  1
  Zr  Zr44  1  0.80564378  0.00340292  0.74189524  1
  Zr  Zr45  1  0.88764960  0.49688399  0.87630611  1
  Zr  Zr46  1  0.50027812  0.71901712  0.39018563  1
  Zr  Zr47  1  0.90537936  0.09873043  0.38439001  1
  Zr  Zr48  1  0.79615988  0.79983292  0.74097943  1
  Zr  Zr49  1  0.10700608  0.89350278  0.11347438  1
  Zr  Zr50  1  0.68832782  0.29360021  0.63506485  1
  Zr  Zr51  1  0.20281698  0.16988787  0.73976679  1
  Zr  Zr52  1  0.69672895  0.09310862  0.61336073  1
  Zr  Zr53  1  0.22776994  0.79921553  0.75974258  1
  Zr  Zr54  1  0.69369548  0.69519150  0.12348401  1
  Zr  Zr55  1  0.89676973  0.50119079  0.37387958  1
  Zr  Zr56  1  0.60411727  0.40253903  -0.00236151  1
  Zr  Zr57  1  0.78355107  0.38920020  0.50763834  1
  Zr  Zr58  1  0.89240087  0.69866818  0.87135896  1
  Zr  Zr59  1  0.70577915  0.89778936  0.38766622  1
  Zr  Zr60  1  0.11674499  0.68541706  0.10195541  1
  Zr  Zr61  1  0.90373415  0.50583286  0.11701684  1
  Zr  Zr62  1  0.80164743  0.60100622  0.24066503  1
  Zr  Zr63  1  0.50186491  0.51467133  0.36521655  1
  Zr  Zr64  1  0.11646837  0.90610721  0.64083962  1
  Zr  Zr65  1  0.10231762  0.48573441  0.63808645  1
  Zr  Zr66  1  0.37511114  0.61112478  0.25363970  1
  Zr  Zr67  1  0.39583729  0.60373247  0.51436814  1
  Zr  Zr68  1  0.09258935  0.30800683  0.12506605  1
  Zr  Zr69  1  0.69573055  0.50759023  0.86184605  1
  Zr  Zr70  1  0.59966044  0.60127778  0.51473920  1
  Zr  Zr71  1  0.00217995  0.77145953  0.24072517  1
  Zr  Zr72  1  -0.01029441  0.38979570  0.50480823  1
  Zr  Zr73  1  0.00028048  -0.00098423  0.01018299  1
  Zr  Zr74  1  0.38645239  0.39933761  0.25194538  1
  Zr  Zr75  1  0.19560196  0.60208951  0.76433371  1
  Zr  Zr76  1  0.38882176  -0.00466953  0.75525308  1
  Zr  Zr77  1  0.70840706  0.91162780  0.12213488  1
  Zr  Zr78  1  0.87848876  0.29039372  0.36972564  1
  Zr  Zr79  1  0.27883930  0.70820700  0.39838954  1
  Ta  Ta80  1  0.59736449  0.21085269  0.49639560  1
  Ta  Ta81  1  -0.00304860  0.40961055  0.25297425  1
  Ta  Ta82  1  0.22100231  0.01890283  0.00764650  1
  Ta  Ta83  1  0.28674918  0.29443188  0.87221168  1
  Ta  Ta84  1  0.69593348  0.70645369  0.87361708  1
  Ta  Ta85  1  0.70275056  0.30402773  0.86784125  1
  Ta  Ta86  1  0.49414079  0.74457973  0.61949487  1
  Ta  Ta87  1  0.09277453  0.49149025  0.87272094  1
  Ta  Ta88  1  -0.00534765  0.59895252  0.74772664  1
  Ta  Ta89  1  0.79275157  0.20379970  0.00462370  1
  Ta  Ta90  1  0.70338248  0.11481527  0.38713223  1
  Ta  Ta91  1  0.39988641  0.20411905  0.24806345  1
  Ta  Ta92  1  0.80087149  0.60122903  0.73044368  1
  Ta  Ta93  1  0.70425020  0.89578925  0.87705600  1
  Ta  Ta94  1  -0.00466105  0.20062095  0.24161163  1
  Ta  Ta95  1  0.57653093  0.39907730  0.49441233  1
  Ta  Ta96  1  0.32400064  0.88955474  0.62075047  1
  Ta  Ta97  1  0.39805438  0.20010679  0.76160804  1
  Ta  Ta98  1  0.48494359  0.69990021  0.12627790  1
  Ta  Ta99  1  0.81106567  0.80400270  0.24963591  1
  Ta  Ta100  1  0.80880800  0.59527048  0.52060760  1
  Ta  Ta101  1  -0.00160683  0.79318081  -0.00823579  1
  Ta  Ta102  1  0.90237343  0.90235924  0.87094495  1
  Ta  Ta103  1  0.39848936  0.21503659  0.49901360  1
  Ta  Ta104  1  0.91342835  0.11330159  0.60934533  1
  Ta  Ta105  1  0.11297750  0.11073159  0.12558784  1
  Ta  Ta106  1  0.50783917  0.11116195  0.37743702  1
  Ta  Ta107  1  0.68568490  0.89323111  0.61245693  1
  Ta  Ta108  1  0.49407708  0.29686853  0.12611451  1
  Ta  Ta109  1  0.11763756  0.69614274  0.62726015  1
  Ta  Ta110  1  0.20833287  0.20484095  0.25022758  1
  Ta  Ta111  1  -0.00206017  0.20567246  0.00901694  1
  Ta  Ta112  1  0.09683900  0.29890665  0.87315347  1
  Ta  Ta113  1  0.79454273  0.39662949  0.23924807  1
  Ta  Ta114  1  -0.00178779  0.18724971  0.75038996  1
  Ta  Ta115  1  0.41445894  0.00065101  -0.00659023  1
  Ta  Ta116  1  0.60443951  -0.00022219  -0.00887543  1
  Ta  Ta117  1  0.10119351  0.49659160  0.11418690  1
  Ta  Ta118  1  0.91220552  0.70141618  0.62681712  1
  Ta  Ta119  1  0.29462468  0.49033653  0.87476071  1
  Ti  Ti120  1  -0.00864754  0.39233301  0.74706245  1
  Ti  Ti121  1  0.50984494  0.89457027  0.87260028  1
  Ti  Ti122  1  0.21311002  -0.01790878  0.50151263  1
  Ti  Ti123  1  0.49391679  0.30730023  0.86414025  1
  Ti  Ti124  1  0.79151766  0.39801255  0.01177933  1
  Ti  Ti125  1  0.89228628  0.30080916  0.12854272  1
  Ti  Ti126  1  0.79767491  -0.00098179  -0.00171154  1
  Ti  Ti127  1  0.48849203  0.49989292  0.63863298  1
  Ti  Ti128  1  0.77647794  0.20070103  0.24456416  1
  Ti  Ti129  1  0.29341775  0.49785792  0.39114618  1
  Ti  Ti130  1  0.50153546  0.70819173  0.86792895  1
  Ti  Ti131  1  -0.00251617  0.60026417  -0.01179498  1
  Ti  Ti132  1  0.78948764  0.59954416  0.00645595  1
  Ti  Ti133  1  0.58946433  -0.00391070  0.49289835  1
  Ti  Ti134  1  0.30818317  0.90329857  0.89006029  1
  Ti  Ti135  1  0.60909410  0.01070748  0.25985462  1
  Ti  Ti136  1  0.39022568  0.62106202  0.73986514  1
  Ti  Ti137  1  0.59096684  0.40248280  0.75990101  1
  Ti  Ti138  1  0.17508162  0.59627720  0.26018639  1
  Ti  Ti139  1  0.91006918  0.89921282  0.38134233  1
  Ti  Ti140  1  0.40217979  0.00548132  0.49774326  1
  Ti  Ti141  1  0.01826907  0.00460478  0.49962749  1
  Ti  Ti142  1  0.80619711  -0.00033150  0.50176218  1
  Ti  Ti143  1  0.20332686  0.39700262  0.49399161  1
  Ti  Ti144  1  0.49840318  0.09372764  0.86828222  1
  Ti  Ti145  1  0.48423501  0.51403736  0.85767893  1
  Ti  Ti146  1  0.68835457  0.28845704  0.12481210  1
  Ti  Ti147  1  -0.00242976  0.39951004  -0.00149879  1
  Ti  Ti148  1  0.60737227  0.80042780  -0.00302295  1
  Ti  Ti149  1  0.80330609  0.79781185  -0.00251267  1
  Ti  Ti150  1  0.41788673  0.79528982  -0.00367160  1
  Ti  Ti151  1  0.69971210  0.70965293  0.61597097  1
  Ti  Ti152  1  0.00993552  0.79357621  0.75646373  1
  Ti  Ti153  1  0.69945262  0.49025321  0.37842837  1
  Ti  Ti154  1  0.48756272  0.30210155  0.37424223  1
  Ti  Ti155  1  0.80442886  0.40229002  0.73910227  1
  Ti  Ti156  1  0.89884728  0.88475663  0.11997918  1
  Ti  Ti157  1  0.59996486  -0.01058570  0.74872793  1
  Ti  Ti158  1  0.80718176  0.79872806  0.50758959  1
  Ti  Ti159  1  0.59541095  0.19716992  0.75920178  1
  Mo  Mo160  1  0.50698163  0.91901319  0.62484196  1
  Mo  Mo161  1  0.00632242  0.58869919  0.24524208  1
  Mo  Mo162  1  0.09400108  0.08172210  0.62361605  1
  Mo  Mo163  1  0.39632856  0.39728116  0.49611193  1
  Mo  Mo164  1  0.20274130  0.80635986  -0.01520161  1
  Mo  Mo165  1  0.70135957  0.49048570  0.12292538  1
  Mo  Mo166  1  0.09621251  0.68818314  0.37976023  1
  Mo  Mo167  1  0.50407911  0.91839823  0.37604505  1
  Mo  Mo168  1  0.18997538  0.59253853  -0.02079919  1
  Mo  Mo169  1  0.60531516  0.80851342  0.49701510  1
  Mo  Mo170  1  0.40897023  0.59752652  -0.00425881  1
  Mo  Mo171  1  0.19397044  0.59159014  0.50494298  1
  Mo  Mo172  1  0.68523164  0.29700264  0.37667286  1
  Mo  Mo173  1  0.30641504  0.10740247  0.12728742  1
  Mo  Mo174  1  0.20597727  0.79759854  0.51462072  1
  Mo  Mo175  1  0.60211057  0.81251223  0.75221672  1
  Mo  Mo176  1  0.39560757  0.40376444  0.76598220  1
  Mo  Mo177  1  0.30224419  0.08766590  0.61409876  1
  Mo  Mo178  1  0.79698637  0.19696659  0.50595292  1
  Mo  Mo179  1  0.29867642  0.29878719  0.38222041  1
  Mo  Mo180  1  0.30741414  0.70494781  0.09927980  1
  Mo  Mo181  1  0.89951026  0.29890489  0.63090426  1
  Mo  Mo182  1  0.69899002  0.10473624  0.11948029  1
  Mo  Mo183  1  0.19320716  0.20432892  -0.00095526  1
  Mo  Mo184  1  0.19112457  0.38654542  0.76345577  1
  Mo  Mo185  1  0.30639032  0.90580002  0.38356732  1
  Mo  Mo186  1  0.59518567  0.19442300  0.25565117  1
  Mo  Mo187  1  0.41646151  0.79613001  0.75815940  1
  Mo  Mo188  1  0.19116120  0.39985987  -0.01248606  1
  Mo  Mo189  1  0.00131370  0.19345170  0.49714994  1
  Mo  Mo190  1  0.59299362  0.60363465  0.25034365  1
  Mo  Mo191  1  0.40231025  0.82647874  0.49204061  1
  Mo  Mo192  1  0.20838180  -0.00672859  0.75450806  1
  Mo  Mo193  1  0.00595712  0.00608817  0.75401843  1
  Mo  Mo194  1  0.30200054  0.70627243  0.61821606  1
  Mo  Mo195  1  0.90271787  0.70307746  0.10856256  1
  Mo  Mo196  1  0.89773066  0.49908403  0.63357682  1
  Mo  Mo197  1  0.09398654  0.69864452  0.88194220  1
  Mo  Mo198  1  0.30504993  0.09432105  0.87815739  1
  Mo  Mo199  1  0.10236741  0.49942106  0.37996081  1
