# generated using pymatgen
data_HfZrTaTiMo
_symmetry_space_group_name_H-M   'P 1'
_cell_length_a   15.21725404
_cell_length_b   15.21444576
_cell_length_c   16.84640662
_cell_angle_alpha   90.01693049
_cell_angle_beta   90.00455175
_cell_angle_gamma   89.90368008
_symmetry_Int_Tables_number   1
_chemical_formula_structural   HfZrTaTiMo
_chemical_formula_sum   'Hf40 Zr40 Ta40 Ti40 Mo40'
_cell_volume   3900.30951311
_cell_formula_units_Z   40
loop_
 _symmetry_equiv_pos_site_id
 _symmetry_equiv_pos_as_xyz
  1  'x, y, z'
loop_
 _atom_site_type_symbol
 _atom_site_label
 _atom_site_symmetry_multiplicity
 _atom_site_fract_x
 _atom_site_fract_y
 _atom_site_fract_z
 _atom_site_occupancy
  Hf  Hf0  1  0.61405007  -0.00088431  0.50153145  1
  Hf  Hf1  1  0.29508554  0.68597395  0.88383443  1
  Hf  Hf2  1  0.29837664  0.49737398  0.12887955  1
  Hf  Hf3  1  0.88785312  0.68440578  0.89423011  1
  Hf  Hf4  1  0.39784063  0.60796776  0.49930722  1
  Hf  Hf5  1  0.58658039  0.39801693  -0.00187441  1
  Hf  Hf6  1  0.59599934  0.60692122  0.76031149  1
  Hf  Hf7  1  0.20296423  -0.00495418  0.26016215  1
  Hf  Hf8  1  0.50610975  0.69968707  0.11656385  1
  Hf  Hf9  1  0.09766125  0.68347970  0.37374791  1
  Hf  Hf10  1  0.82194077  0.20895128  0.75538297  1
  Hf  Hf11  1  0.51144264  0.10331367  0.37640805  1
  Hf  Hf12  1  0.88478684  0.50925485  0.37260043  1
  Hf  Hf13  1  0.00224565  0.39851062  0.48756605  1
  Hf  Hf14  1  0.69955651  0.30853676  0.63195907  1
  Hf  Hf15  1  0.59594837  0.60451216  0.49798221  1
  Hf  Hf16  1  0.11322665  0.49331202  0.87293632  1
  Hf  Hf17  1  0.29885250  0.11027898  0.11864965  1
  Hf  Hf18  1  0.70120807  0.69440631  0.36231941  1
  Hf  Hf19  1  0.20395606  -0.00565894  0.48107790  1
  Hf  Hf20  1  0.79919648  -0.00141555  0.23940305  1
  Hf  Hf21  1  0.00197994  0.39342740  0.26067755  1
  Hf  Hf22  1  0.59433926  0.40491502  0.24811606  1
  Hf  Hf23  1  0.11969002  0.30624552  0.11200862  1
  Hf  Hf24  1  0.90618824  0.88200005  0.88291484  1
  Hf  Hf25  1  -0.00948874  0.79045345  0.23956158  1
  Hf  Hf26  1  0.32583979  0.89549128  0.62165818  1
  Hf  Hf27  1  0.09783391  0.49027408  0.63475841  1
  Hf  Hf28  1  0.29221601  0.69382004  0.63026894  1
  Hf  Hf29  1  0.72463185  0.09857943  0.38413889  1
  Hf  Hf30  1  0.40271254  0.00084829  0.24422765  1
  Hf  Hf31  1  0.60445651  -0.00468663  -0.02104517  1
  Hf  Hf32  1  0.37414558  0.20919013  0.75201125  1
  Hf  Hf33  1  0.01851078  -0.02420419  0.00752183  1
  Hf  Hf34  1  0.09393548  0.10255890  0.62266809  1
  Hf  Hf35  1  0.68664219  0.89633626  0.12139654  1
  Hf  Hf36  1  -0.00622016  0.60092402  0.50975537  1
  Hf  Hf37  1  0.48644047  0.30921169  0.62744118  1
  Hf  Hf38  1  0.69876236  0.30217756  0.38327926  1
  Hf  Hf39  1  0.00941403  0.59052297  0.23409292  1
  Zr  Zr40  1  0.49110784  0.71398303  0.63476221  1
  Zr  Zr41  1  0.60498864  0.19945506  0.24265470  1
  Zr  Zr42  1  0.49529111  0.30586360  0.38057977  1
  Zr  Zr43  1  0.69570144  0.30819783  0.86423946  1
  Zr  Zr44  1  0.50398699  0.10485381  0.11233107  1
  Zr  Zr45  1  0.09043544  0.71451991  0.88900750  1
  Zr  Zr46  1  0.79647761  0.40101886  0.24814935  1
  Zr  Zr47  1  0.79301501  0.80606433  0.50577149  1
  Zr  Zr48  1  0.79847597  0.40294174  -0.00164715  1
  Zr  Zr49  1  0.10738983  0.89895305  0.61903892  1
  Zr  Zr50  1  0.00121026  -0.00812301  0.24408011  1
  Zr  Zr51  1  0.70312060  0.90685179  0.64004492  1
  Zr  Zr52  1  0.28299867  0.90481972  0.89168118  1
  Zr  Zr53  1  -0.01448999  0.19214219  0.48605405  1
  Zr  Zr54  1  0.18884872  0.80710802  0.75319343  1
  Zr  Zr55  1  0.19998678  0.79975560  0.25413835  1
  Zr  Zr56  1  0.10203117  0.10368853  0.12036826  1
  Zr  Zr57  1  0.19500423  0.59587127  0.74910161  1
  Zr  Zr58  1  0.71091769  0.70748631  0.11495273  1
  Zr  Zr59  1  0.69749783  0.50740633  0.12093692  1
  Zr  Zr60  1  0.00665802  0.58055953  0.01196924  1
  Zr  Zr61  1  0.90677801  0.48700358  0.86703678  1
  Zr  Zr62  1  0.91231698  0.29522608  0.11302322  1
  Zr  Zr63  1  0.09664884  0.29212545  0.89089763  1
  Zr  Zr64  1  0.88964029  0.90206023  0.37352388  1
  Zr  Zr65  1  0.41178194  0.00021369  0.76699661  1
  Zr  Zr66  1  0.20177200  0.40122730  0.48820227  1
  Zr  Zr67  1  0.70392696  0.10681191  0.63393008  1
  Zr  Zr68  1  0.59632585  0.81418213  0.77119211  1
  Zr  Zr69  1  0.92155684  0.09887812  0.88391991  1
  Zr  Zr70  1  0.79128261  0.59790157  0.51174228  1
  Zr  Zr71  1  0.89847396  0.08775623  0.62880419  1
  Zr  Zr72  1  0.29802223  0.10799725  0.61338099  1
  Zr  Zr73  1  0.19608347  0.40275393  0.26176574  1
  Zr  Zr74  1  0.70775914  0.10352515  0.86530798  1
  Zr  Zr75  1  0.21154616  0.01725487  0.75222205  1
  Zr  Zr76  1  0.57925474  0.80920366  0.50226761  1
  Zr  Zr77  1  0.20218462  0.78859324  0.49065110  1
  Zr  Zr78  1  0.30608606  0.50874664  0.36776611  1
  Zr  Zr79  1  0.19277823  0.20622334  0.48065537  1
  Ta  Ta80  1  0.58169671  0.20119003  0.75063334  1
  Ta  Ta81  1  0.68776222  0.89244026  0.35965184  1
  Ta  Ta82  1  0.40216810  0.80260615  0.23239439  1
  Ta  Ta83  1  0.20184176  0.20090300  0.26146687  1
  Ta  Ta84  1  0.60087087  0.20666800  -0.00281896  1
  Ta  Ta85  1  0.90797274  0.29865524  0.62273812  1
  Ta  Ta86  1  0.30860231  0.48548407  0.62614737  1
  Ta  Ta87  1  0.41698788  -0.00823777  0.49476808  1
  Ta  Ta88  1  -0.01315564  0.61168844  0.74407670  1
  Ta  Ta89  1  0.88730494  0.88025240  0.11463721  1
  Ta  Ta90  1  0.39725629  0.58964894  0.75617926  1
  Ta  Ta91  1  0.91158288  0.88719852  0.63025348  1
  Ta  Ta92  1  0.29529997  0.31140964  0.88708480  1
  Ta  Ta93  1  0.21607216  0.38334999  0.74750887  1
  Ta  Ta94  1  0.80777232  0.19593885  0.24077930  1
  Ta  Ta95  1  0.38993994  0.79107219  0.00373327  1
  Ta  Ta96  1  0.79797625  0.39794011  0.50439810  1
  Ta  Ta97  1  0.59600681  -0.00602091  0.24462136  1
  Ta  Ta98  1  0.50001484  0.09539419  0.62512558  1
  Ta  Ta99  1  0.70152998  0.51262297  0.87439246  1
  Ta  Ta100  1  0.49313212  0.11613820  0.88323501  1
  Ta  Ta101  1  0.79600508  0.19600425  -0.00227991  1
  Ta  Ta102  1  0.12093932  0.09489420  0.88951335  1
  Ta  Ta103  1  0.60108934  0.41427858  0.50171230  1
  Ta  Ta104  1  -0.00052609  0.19567383  0.25691685  1
  Ta  Ta105  1  0.80976215  0.78553339  0.75099830  1
  Ta  Ta106  1  -0.00411925  -0.01115052  0.48970533  1
  Ta  Ta107  1  0.70497629  0.09924505  0.11397106  1
  Ta  Ta108  1  0.31487672  0.10208406  0.37415257  1
  Ta  Ta109  1  0.59701478  0.59997332  -0.01132110  1
  Ta  Ta110  1  0.49322631  0.89877123  0.10519772  1
  Ta  Ta111  1  0.28899694  0.89770917  0.11250939  1
  Ta  Ta112  1  0.89830084  0.09427679  0.11061712  1
  Ta  Ta113  1  0.32416835  0.88955039  0.37637047  1
  Ta  Ta114  1  0.49383657  0.71919154  0.36192422  1
  Ta  Ta115  1  0.11327759  0.70564670  0.11419387  1
  Ta  Ta116  1  0.39767423  0.79746429  0.76941045  1
  Ta  Ta117  1  0.39998597  0.20132309  0.50212878  1
  Ta  Ta118  1  0.89621160  0.49115010  0.63422197  1
  Ta  Ta119  1  0.01211539  -0.01163654  0.75935166  1
  Ti  Ti120  1  0.19328722  0.59038807  0.50503624  1
  Ti  Ti121  1  0.09214891  0.09275346  0.36944702  1
  Ti  Ti122  1  0.49304149  0.70013213  0.88745196  1
  Ti  Ti123  1  0.40207832  0.40366532  0.49861273  1
  Ti  Ti124  1  0.90807072  0.29591465  0.88957241  1
  Ti  Ti125  1  0.49806864  0.50507341  0.63019317  1
  Ti  Ti126  1  0.59910729  0.60401835  0.24980936  1
  Ti  Ti127  1  0.50533816  0.51155357  0.37034751  1
  Ti  Ti128  1  0.81010190  -0.01311370  0.76140059  1
  Ti  Ti129  1  0.39069713  0.40753426  0.00640872  1
  Ti  Ti130  1  0.59680017  0.00487035  0.76547327  1
  Ti  Ti131  1  0.21381766  0.59458571  0.00898929  1
  Ti  Ti132  1  0.48862560  0.30801747  0.86843105  1
  Ti  Ti133  1  0.89469824  0.70425853  0.37289904  1
  Ti  Ti134  1  0.69716825  0.29515212  0.12067767  1
  Ti  Ti135  1  0.10645594  0.29346051  0.62809660  1
  Ti  Ti136  1  0.81219534  0.61348157  0.23934369  1
  Ti  Ti137  1  0.69651461  0.70277786  0.63269775  1
  Ti  Ti138  1  0.60145332  0.20705765  0.51028940  1
  Ti  Ti139  1  0.58871041  0.41035255  0.75542011  1
  Ti  Ti140  1  0.40140324  0.21060224  0.24169312  1
  Ti  Ti141  1  0.48475705  0.50154163  0.87861390  1
  Ti  Ti142  1  0.40360066  0.60603808  0.24356016  1
  Ti  Ti143  1  0.30776935  0.29684231  0.36985472  1
  Ti  Ti144  1  0.00201355  0.37856179  0.74894942  1
  Ti  Ti145  1  0.39528445  0.00827727  -0.00822364  1
  Ti  Ti146  1  0.40267939  0.39933470  0.24357289  1
  Ti  Ti147  1  0.79569483  0.59968492  0.74392903  1
  Ti  Ti148  1  0.69322232  0.50162669  0.63365951  1
  Ti  Ti149  1  0.80101769  0.40545103  0.74971937  1
  Ti  Ti150  1  0.20370814  0.60441529  0.23935168  1
  Ti  Ti151  1  0.08275373  0.70616123  0.62753434  1
  Ti  Ti152  1  0.49790410  0.50284623  0.12127584  1
  Ti  Ti153  1  0.89917734  0.49701000  0.12191141  1
  Ti  Ti154  1  0.70101340  0.71003074  0.88850380  1
  Ti  Ti155  1  0.40328509  0.22016588  0.00399208  1
  Ti  Ti156  1  0.88834548  0.28806234  0.37615724  1
  Ti  Ti157  1  0.30740866  0.69856881  0.36933192  1
  Ti  Ti158  1  -0.00147699  0.79758354  0.49361481  1
  Ti  Ti159  1  0.80060136  -0.00717123  -0.00566216  1
  Mo  Mo160  1  0.40198392  0.40638148  0.75379948  1
  Mo  Mo161  1  0.21504163  0.20180565  0.00131428  1
  Mo  Mo162  1  0.79603317  0.21037965  0.50900206  1
  Mo  Mo163  1  0.71046695  0.89859957  0.86481057  1
  Mo  Mo164  1  0.40053269  0.79862011  0.49448728  1
  Mo  Mo165  1  0.00040012  0.19002355  0.00344156  1
  Mo  Mo166  1  0.10216706  0.89431236  0.12945116  1
  Mo  Mo167  1  0.09320623  0.50678039  0.37741902  1
  Mo  Mo168  1  0.20687133  0.00206308  0.00509940  1
  Mo  Mo169  1  0.79251961  0.59457233  -0.00136325  1
  Mo  Mo170  1  0.10495388  0.49840535  0.12273013  1
  Mo  Mo171  1  0.20544937  0.40760387  0.00246342  1
  Mo  Mo172  1  0.01511353  0.19590881  0.74972191  1
  Mo  Mo173  1  0.09584989  0.29191316  0.36715906  1
  Mo  Mo174  1  -0.00706715  0.79672892  0.75075890  1
  Mo  Mo175  1  0.59236114  0.80161822  -0.01702877  1
  Mo  Mo176  1  0.29495922  0.30541182  0.61739478  1
  Mo  Mo177  1  0.18680064  0.20661565  0.75327856  1
  Mo  Mo178  1  0.49125213  0.89766627  0.89509387  1
  Mo  Mo179  1  0.31339684  0.30053361  0.13024398  1
  Mo  Mo180  1  0.79831267  0.79823157  0.24875471  1
  Mo  Mo181  1  -0.00564691  0.79085558  0.01720711  1
  Mo  Mo182  1  0.09363448  0.90663586  0.87500564  1
  Mo  Mo183  1  0.10126248  0.89443424  0.38175641  1
  Mo  Mo184  1  0.68967832  0.49951594  0.37480353  1
  Mo  Mo185  1  0.81234594  -0.00085304  0.50268753  1
  Mo  Mo186  1  0.89543569  0.69968807  0.62796714  1
  Mo  Mo187  1  0.40547450  0.59320352  0.00119492  1
  Mo  Mo188  1  0.18908228  0.80493145  0.00778737  1
  Mo  Mo189  1  0.50176302  0.90627556  0.36534451  1
  Mo  Mo190  1  0.49551934  0.31012713  0.12306885  1
  Mo  Mo191  1  0.00346793  0.39740417  0.00250229  1
  Mo  Mo192  1  0.30341845  0.49402632  0.88081177  1
  Mo  Mo193  1  0.59106097  0.80162619  0.24504765  1
  Mo  Mo194  1  0.78935417  0.80601605  -0.00759219  1
  Mo  Mo195  1  0.89797887  0.69214027  0.11171122  1
  Mo  Mo196  1  0.30576029  0.69890838  0.12197570  1
  Mo  Mo197  1  0.50097234  0.91423594  0.63348056  1
  Mo  Mo198  1  0.30332829  0.12002221  0.89209484  1
  Mo  Mo199  1  0.89873061  0.10156073  0.36975028  1
