# generated using pymatgen
data_HfZrTaTiMo
_symmetry_space_group_name_H-M   'P 1'
_cell_length_a   15.20262431
_cell_length_b   15.21789884
_cell_length_c   16.84462612
_cell_angle_alpha   90.03811010
_cell_angle_beta   90.02462552
_cell_angle_gamma   89.97286381
_symmetry_Int_Tables_number   1
_chemical_formula_structural   HfZrTaTiMo
_chemical_formula_sum   'Hf40 Zr40 Ta40 Ti40 Mo40'
_cell_volume   3897.03626333
_cell_formula_units_Z   40
loop_
 _symmetry_equiv_pos_site_id
 _symmetry_equiv_pos_as_xyz
  1  'x, y, z'
loop_
 _atom_site_type_symbol
 _atom_site_label
 _atom_site_symmetry_multiplicity
 _atom_site_fract_x
 _atom_site_fract_y
 _atom_site_fract_z
 _atom_site_occupancy
  Hf  Hf0  1  0.28548143  0.12256270  0.14342573  1
  Hf  Hf1  1  0.00110414  0.41404602  0.26024000  1
  Hf  Hf2  1  0.60091785  0.79344594  -0.00436203  1
  Hf  Hf3  1  0.40579481  0.39636624  0.26006696  1
  Hf  Hf4  1  0.30666650  0.71196489  0.36847486  1
  Hf  Hf5  1  0.31075691  0.31829415  0.61744204  1
  Hf  Hf6  1  0.20444250  0.42389741  0.74810487  1
  Hf  Hf7  1  0.39830511  0.78376778  0.74742546  1
  Hf  Hf8  1  0.00157437  0.80027428  -0.00248438  1
  Hf  Hf9  1  0.19077600  0.59175312  0.25219151  1
  Hf  Hf10  1  0.20186419  0.20163506  0.50970156  1
  Hf  Hf11  1  0.80683669  0.59215974  0.49741037  1
  Hf  Hf12  1  0.50473172  0.28530094  0.87143674  1
  Hf  Hf13  1  0.31303754  0.10567865  0.37763249  1
  Hf  Hf14  1  0.60386271  0.79254138  0.49973716  1
  Hf  Hf15  1  0.69395825  0.09437473  0.09965936  1
  Hf  Hf16  1  0.60805628  0.40899256  -0.01973711  1
  Hf  Hf17  1  0.29498162  0.29437069  0.86419538  1
  Hf  Hf18  1  0.18952158  0.61800729  0.73456213  1
  Hf  Hf19  1  0.28930966  0.88913394  0.63380931  1
  Hf  Hf20  1  0.40366735  -0.00138802  0.75045899  1
  Hf  Hf21  1  0.28570625  0.49127427  0.39302627  1
  Hf  Hf22  1  0.19969747  0.81095306  0.00530097  1
  Hf  Hf23  1  0.48965185  0.90065694  0.37646524  1
  Hf  Hf24  1  0.59943959  0.79620520  0.26050026  1
  Hf  Hf25  1  0.69191689  0.49133638  0.12719130  1
  Hf  Hf26  1  0.92202361  0.09632965  0.62030463  1
  Hf  Hf27  1  0.80340335  -0.00400058  0.24448906  1
  Hf  Hf28  1  0.08504304  0.31151767  0.62718054  1
  Hf  Hf29  1  0.58745525  0.38956600  0.50489818  1
  Hf  Hf30  1  0.50600254  0.69592851  0.13582358  1
  Hf  Hf31  1  0.71966741  0.09553250  0.62745978  1
  Hf  Hf32  1  0.80595040  -0.01109570  -0.01742599  1
  Hf  Hf33  1  0.80986201  0.79169183  0.24734495  1
  Hf  Hf34  1  0.09035925  0.70465743  0.38772250  1
  Hf  Hf35  1  0.70493216  0.87609743  0.87044185  1
  Hf  Hf36  1  0.18484260  0.81073038  0.25479584  1
  Hf  Hf37  1  0.40279649  0.79250800  -0.00416932  1
  Hf  Hf38  1  0.60827512  0.40151365  0.75475360  1
  Hf  Hf39  1  0.60493094  0.00143530  0.75421898  1
  Zr  Zr40  1  -0.00718347  0.61458119  0.24475207  1
  Zr  Zr41  1  0.81078923  0.19547465  0.76529480  1
  Zr  Zr42  1  0.78716020  0.19125834  0.23603926  1
  Zr  Zr43  1  0.42346542  0.19108134  0.51739688  1
  Zr  Zr44  1  0.48906709  0.48941162  0.62548143  1
  Zr  Zr45  1  0.00185289  0.19857851  0.24876833  1
  Zr  Zr46  1  0.70030890  0.89401898  0.11826689  1
  Zr  Zr47  1  0.79533358  0.38844227  0.24119382  1
  Zr  Zr48  1  0.90684971  0.31355639  0.10997408  1
  Zr  Zr49  1  0.30150414  0.69899678  0.13764491  1
  Zr  Zr50  1  0.30128154  0.09915112  0.86752265  1
  Zr  Zr51  1  0.00153144  0.80049940  0.74056548  1
  Zr  Zr52  1  0.80470539  0.59108509  0.25376894  1
  Zr  Zr53  1  0.49947128  0.52692811  0.85880210  1
  Zr  Zr54  1  -0.01426150  0.41905657  0.75680760  1
  Zr  Zr55  1  0.19231983  0.18924014  0.72906085  1
  Zr  Zr56  1  0.88830602  0.30446428  0.37672115  1
  Zr  Zr57  1  0.70719549  0.47557334  0.37908742  1
  Zr  Zr58  1  0.80691418  -0.00773732  0.76615203  1
  Zr  Zr59  1  0.02140922  0.20274509  0.00772626  1
  Zr  Zr60  1  0.59326589  0.00391894  0.50940617  1
  Zr  Zr61  1  0.50111215  0.10611272  0.11541934  1
  Zr  Zr62  1  0.09173373  0.49084454  0.12098309  1
  Zr  Zr63  1  0.30549301  0.90434410  0.14310750  1
  Zr  Zr64  1  0.30000513  0.68273191  0.87470766  1
  Zr  Zr65  1  0.70929083  0.90885265  0.37994239  1
  Zr  Zr66  1  0.19789717  0.80696521  0.49733564  1
  Zr  Zr67  1  0.19411358  0.39433084  -0.00702509  1
  Zr  Zr68  1  0.19319761  0.60218299  0.00406448  1
  Zr  Zr69  1  0.00500457  0.02190849  0.76676441  1
  Zr  Zr70  1  0.39804804  0.40889812  -0.01348628  1
  Zr  Zr71  1  -0.00147842  0.20191385  0.49430946  1
  Zr  Zr72  1  0.89513222  0.68490561  0.86138511  1
  Zr  Zr73  1  0.88739688  0.09293881  0.38125839  1
  Zr  Zr74  1  0.19627767  0.01808672  0.00659817  1
  Zr  Zr75  1  0.39977722  -0.00647984  -0.00135881  1
  Zr  Zr76  1  0.40642505  0.60288393  0.49085793  1
  Zr  Zr77  1  0.40873595  0.59577516  0.26695262  1
  Zr  Zr78  1  0.41322374  0.01350674  0.25110682  1
  Zr  Zr79  1  0.08986850  0.30047347  0.86011769  1
  Ta  Ta80  1  0.31232788  0.30726040  0.12952240  1
  Ta  Ta81  1  -0.00031681  -0.00492634  0.25045560  1
  Ta  Ta82  1  0.30568986  0.29901941  0.38908113  1
  Ta  Ta83  1  0.09361397  0.92306682  0.62855062  1
  Ta  Ta84  1  0.12585306  0.28613131  0.13924173  1
  Ta  Ta85  1  0.50532263  0.30668421  0.11833973  1
  Ta  Ta86  1  0.79681534  0.58217009  -0.00052095  1
  Ta  Ta87  1  0.89463717  0.49566244  0.62263212  1
  Ta  Ta88  1  0.60237180  0.59479133  0.48890305  1
  Ta  Ta89  1  0.30523731  0.49562573  0.12907775  1
  Ta  Ta90  1  0.90542145  0.89602416  0.11681133  1
  Ta  Ta91  1  0.09796084  0.71285759  0.86921592  1
  Ta  Ta92  1  0.39011581  0.20457004  0.00164037  1
  Ta  Ta93  1  0.40249888  0.80619623  0.50635176  1
  Ta  Ta94  1  0.41158629  0.19633282  0.73275879  1
  Ta  Ta95  1  0.88607877  0.29811302  0.62554674  1
  Ta  Ta96  1  0.60111137  0.78858978  0.74465755  1
  Ta  Ta97  1  0.60635539  0.19915484  0.73894633  1
  Ta  Ta98  1  0.50870006  0.89988162  0.12823818  1
  Ta  Ta99  1  0.50057279  0.89246574  0.86968055  1
  Ta  Ta100  1  0.00396259  -0.00101615  -0.01151054  1
  Ta  Ta101  1  0.19324520  0.00260566  0.49557792  1
  Ta  Ta102  1  0.29160078  0.89218313  0.86288157  1
  Ta  Ta103  1  0.59998153  0.58772015  0.27133028  1
  Ta  Ta104  1  0.11052558  0.31047737  0.37939569  1
  Ta  Ta105  1  0.38595552  0.59109378  0.73263471  1
  Ta  Ta106  1  0.49865568  0.89869403  0.62657870  1
  Ta  Ta107  1  0.80381373  0.77506822  0.00291137  1
  Ta  Ta108  1  0.10155414  0.09888025  0.37593460  1
  Ta  Ta109  1  0.90624703  0.09078596  0.11034397  1
  Ta  Ta110  1  0.50357550  0.69456435  0.62245094  1
  Ta  Ta111  1  0.40578998  0.59762819  0.00461991  1
  Ta  Ta112  1  0.69904780  0.49596152  0.62159464  1
  Ta  Ta113  1  0.88764714  0.30127838  0.89263870  1
  Ta  Ta114  1  0.61780090  0.20300259  0.52169487  1
  Ta  Ta115  1  0.60007057  0.60367984  -0.00201961  1
  Ta  Ta116  1  -0.01482670  0.41205471  0.49574796  1
  Ta  Ta117  1  0.30306231  0.08242217  0.62019560  1
  Ta  Ta118  1  0.79596152  0.58653580  0.74246441  1
  Ta  Ta119  1  0.29467791  0.91011947  0.37142794  1
  Ti  Ti120  1  0.69497862  0.11665714  0.89338684  1
  Ti  Ti121  1  0.90209510  0.69869257  0.38666516  1
  Ti  Ti122  1  0.39926048  0.39867703  0.75733169  1
  Ti  Ti123  1  0.09163751  0.52729536  0.87089260  1
  Ti  Ti124  1  0.20445931  0.39482107  0.25477183  1
  Ti  Ti125  1  0.70439937  0.88861056  0.63142641  1
  Ti  Ti126  1  0.09412706  0.91784906  0.12598927  1
  Ti  Ti127  1  0.51803336  0.10800241  0.37744190  1
  Ti  Ti128  1  0.69669258  0.29050603  0.09668485  1
  Ti  Ti129  1  0.70251552  0.68825455  0.12893037  1
  Ti  Ti130  1  0.10777928  0.11129086  0.87598002  1
  Ti  Ti131  1  0.89307403  0.89853821  0.62883763  1
  Ti  Ti132  1  0.70306788  0.69264166  0.62566239  1
  Ti  Ti133  1  0.89899728  0.69484645  0.62866940  1
  Ti  Ti134  1  0.91308165  0.89346355  0.38209584  1
  Ti  Ti135  1  0.69103143  0.67924295  0.86304118  1
  Ti  Ti136  1  0.09081089  0.50986956  0.39680683  1
  Ti  Ti137  1  -0.00587673  0.81141437  0.51020895  1
  Ti  Ti138  1  0.69290744  0.27198489  0.37781174  1
  Ti  Ti139  1  0.50043773  0.29314401  0.37819252  1
  Ti  Ti140  1  0.79494899  0.39477102  0.76000767  1
  Ti  Ti141  1  0.18774244  0.01207208  0.25780534  1
  Ti  Ti142  1  0.59599185  0.39032657  0.25515840  1
  Ti  Ti143  1  0.09110409  0.71104486  0.12533001  1
  Ti  Ti144  1  0.10907649  0.90585283  0.86699527  1
  Ti  Ti145  1  -0.00384691  0.80905426  0.24775319  1
  Ti  Ti146  1  0.49922552  0.49810450  0.12544285  1
  Ti  Ti147  1  0.28479876  0.50946141  0.59810821  1
  Ti  Ti148  1  0.50570642  0.09589505  0.88467942  1
  Ti  Ti149  1  0.80334858  0.79867863  0.50629056  1
  Ti  Ti150  1  0.70554878  0.69827279  0.37822228  1
  Ti  Ti151  1  0.10322297  0.71091837  0.61397282  1
  Ti  Ti152  1  0.90844667  0.88476503  0.87149886  1
  Ti  Ti153  1  0.80738612  -0.00582552  0.50319879  1
  Ti  Ti154  1  0.09071633  0.51296480  0.60768810  1
  Ti  Ti155  1  0.60953431  0.00879655  0.25300532  1
  Ti  Ti156  1  -0.01351097  0.60850705  0.00602997  1
  Ti  Ti157  1  0.78938459  0.38065583  0.50667654  1
  Ti  Ti158  1  0.59115605  0.20114739  0.24512170  1
  Ti  Ti159  1  -0.01357204  0.42453922  -0.01672664  1
  Mo  Mo160  1  0.20919847  0.20894988  0.00274538  1
  Mo  Mo161  1  0.19432396  0.80417358  0.74770924  1
  Mo  Mo162  1  0.71106441  0.50675484  0.86784915  1
  Mo  Mo163  1  0.69934315  0.29836304  0.88130477  1
  Mo  Mo164  1  0.00320652  -0.01112561  0.49738172  1
  Mo  Mo165  1  0.59986719  0.60406303  0.73450208  1
  Mo  Mo166  1  0.39158011  -0.01023753  0.50462344  1
  Mo  Mo167  1  0.39722691  0.39251987  0.49410231  1
  Mo  Mo168  1  0.29161987  0.50324350  0.86522326  1
  Mo  Mo169  1  0.50580034  0.29785869  0.63980549  1
  Mo  Mo170  1  0.79579665  0.19620644  0.50507431  1
  Mo  Mo171  1  0.51108433  0.70148022  0.37842923  1
  Mo  Mo172  1  0.89614493  0.50407221  0.11598628  1
  Mo  Mo173  1  -0.00090073  0.60354179  0.72963788  1
  Mo  Mo174  1  0.90957868  0.10782199  0.89629336  1
  Mo  Mo175  1  -0.00416433  0.61212624  0.51467183  1
  Mo  Mo176  1  0.70702758  0.30466695  0.63211589  1
  Mo  Mo177  1  0.80471254  0.19696824  -0.00191900  1
  Mo  Mo178  1  -0.00799090  0.21129241  0.75073203  1
  Mo  Mo179  1  0.69163062  0.10378704  0.37935165  1
  Mo  Mo180  1  0.41326853  0.21563836  0.25639563  1
  Mo  Mo181  1  0.20530409  0.20897283  0.26867356  1
  Mo  Mo182  1  0.79438675  0.79070981  0.73534705  1
  Mo  Mo183  1  0.89729966  0.50466928  0.87175536  1
  Mo  Mo184  1  0.10619851  0.09967876  0.61915983  1
  Mo  Mo185  1  0.40271456  0.80897014  0.25141054  1
  Mo  Mo186  1  0.59547283  -0.00844570  -0.01912287  1
  Mo  Mo187  1  0.50500230  0.48818685  0.38059978  1
  Mo  Mo188  1  0.50778248  0.09108475  0.63039013  1
  Mo  Mo189  1  0.18551429  0.39934864  0.50352153  1
  Mo  Mo190  1  0.09407473  0.09820122  0.13811396  1
  Mo  Mo191  1  0.79878919  0.40216400  -0.00395734  1
  Mo  Mo192  1  0.30527905  0.69584291  0.61725730  1
  Mo  Mo193  1  0.09175164  0.90861601  0.37567526  1
  Mo  Mo194  1  0.19403723  0.60815664  0.50417686  1
  Mo  Mo195  1  0.50569423  0.70270009  0.86841725  1
  Mo  Mo196  1  0.19859739  -0.00380589  0.75143264  1
  Mo  Mo197  1  0.89545565  0.70256234  0.11741423  1
  Mo  Mo198  1  0.90545677  0.50586611  0.38492691  1
  Mo  Mo199  1  0.59140399  0.20362214  -0.00350561  1
