# generated using pymatgen
data_HfZrTaTiMo
_symmetry_space_group_name_H-M   'P 1'
_cell_length_a   15.21040571
_cell_length_b   15.21087682
_cell_length_c   16.84431371
_cell_angle_alpha   89.99099165
_cell_angle_beta   90.03542696
_cell_angle_gamma   90.01099247
_symmetry_Int_Tables_number   1
_chemical_formula_structural   HfZrTaTiMo
_chemical_formula_sum   'Hf40 Zr40 Ta40 Ti40 Mo40'
_cell_volume   3897.16032399
_cell_formula_units_Z   40
loop_
 _symmetry_equiv_pos_site_id
 _symmetry_equiv_pos_as_xyz
  1  'x, y, z'
loop_
 _atom_site_type_symbol
 _atom_site_label
 _atom_site_symmetry_multiplicity
 _atom_site_fract_x
 _atom_site_fract_y
 _atom_site_fract_z
 _atom_site_occupancy
  Hf  Hf0  1  0.88887118  0.48806589  0.37037962  1
  Hf  Hf1  1  0.48316064  0.29899212  0.61265451  1
  Hf  Hf2  1  0.19480097  0.01624570  0.49849722  1
  Hf  Hf3  1  0.39947151  0.01231791  0.00980995  1
  Hf  Hf4  1  -0.00945208  -0.00306141  0.50453102  1
  Hf  Hf5  1  0.20047901  0.20124220  0.75209305  1
  Hf  Hf6  1  0.60131660  0.79991170  0.73797106  1
  Hf  Hf7  1  0.21163484  0.79540331  0.00869632  1
  Hf  Hf8  1  0.80857664  0.78756984  0.74662223  1
  Hf  Hf9  1  0.02134756  0.79765357  0.25358983  1
  Hf  Hf10  1  0.59641441  0.39053003  0.74343361  1
  Hf  Hf11  1  0.50795414  0.69246697  0.37325571  1
  Hf  Hf12  1  0.70671105  0.69068416  0.13680330  1
  Hf  Hf13  1  0.88446195  0.50881949  0.87600535  1
  Hf  Hf14  1  -0.01083579  0.60032117  0.00676451  1
  Hf  Hf15  1  0.08530855  0.49004431  0.87257304  1
  Hf  Hf16  1  0.90736819  0.90517967  0.87448668  1
  Hf  Hf17  1  0.30421493  0.90825086  0.86717150  1
  Hf  Hf18  1  0.50055349  0.49180915  0.86858138  1
  Hf  Hf19  1  0.61251069  0.81039464  0.00109506  1
  Hf  Hf20  1  0.10092480  0.47654462  0.62698410  1
  Hf  Hf21  1  0.00219019  0.59168912  0.48964223  1
  Hf  Hf22  1  0.89463150  0.69194722  0.36952989  1
  Hf  Hf23  1  0.31435655  0.50531215  0.36406131  1
  Hf  Hf24  1  0.90295912  0.29336266  0.37961165  1
  Hf  Hf25  1  0.00170559  0.00186609  0.26056368  1
  Hf  Hf26  1  0.40897777  0.81349107  0.00051455  1
  Hf  Hf27  1  0.10959176  0.89322921  0.86538648  1
  Hf  Hf28  1  0.41355057  0.21160584  0.00287460  1
  Hf  Hf29  1  0.10435998  0.89137328  0.61401587  1
  Hf  Hf30  1  0.31127914  0.90840978  0.39117808  1
  Hf  Hf31  1  0.08872844  0.28811712  0.11638809  1
  Hf  Hf32  1  0.29077008  0.51489303  0.13447321  1
  Hf  Hf33  1  0.50692484  0.91730546  0.86566041  1
  Hf  Hf34  1  0.79099763  0.79070937  0.49820846  1
  Hf  Hf35  1  0.18981907  0.39830207  0.23951402  1
  Hf  Hf36  1  -0.00153777  0.00014503  0.73974800  1
  Hf  Hf37  1  0.69349724  0.90653838  0.37993978  1
  Hf  Hf38  1  0.09584389  0.08039863  0.11624932  1
  Hf  Hf39  1  0.19360013  0.59754992  -0.00373295  1
  Zr  Zr40  1  0.89715299  0.89571483  0.37860132  1
  Zr  Zr41  1  -0.00313055  0.19437552  0.50731692  1
  Zr  Zr42  1  -0.01733775  0.59665503  0.74118399  1
  Zr  Zr43  1  0.19984935  -0.00444048  0.26073683  1
  Zr  Zr44  1  0.71628874  0.29224637  0.61103281  1
  Zr  Zr45  1  0.48940722  0.31363561  0.37839743  1
  Zr  Zr46  1  0.31042546  0.70552783  0.61761907  1
  Zr  Zr47  1  0.09833991  0.69739267  0.61348229  1
  Zr  Zr48  1  0.50332810  0.51084914  0.62754706  1
  Zr  Zr49  1  0.90784033  0.91083453  0.12964748  1
  Zr  Zr50  1  0.49566137  0.08883475  0.37206803  1
  Zr  Zr51  1  0.78938152  0.40563082  0.00215836  1
  Zr  Zr52  1  0.49675715  0.70541227  0.12794614  1
  Zr  Zr53  1  0.01729403  0.80961418  0.01316212  1
  Zr  Zr54  1  0.50988189  0.10372392  0.13496286  1
  Zr  Zr55  1  0.80584172  0.39535737  0.74961025  1
  Zr  Zr56  1  0.28607307  0.30638033  0.36708692  1
  Zr  Zr57  1  0.61298100  0.58930790  0.00314542  1
  Zr  Zr58  1  0.51067577  0.70361281  0.86746854  1
  Zr  Zr59  1  0.31369963  0.11606966  0.61392143  1
  Zr  Zr60  1  0.39773451  0.40742382  0.01107791  1
  Zr  Zr61  1  0.59193828  0.19372198  0.50440504  1
  Zr  Zr62  1  0.59488116  0.80997510  0.25045024  1
  Zr  Zr63  1  0.39859747  0.61008079  0.00346298  1
  Zr  Zr64  1  0.29989521  0.71124459  0.85760930  1
  Zr  Zr65  1  0.68945640  0.51599290  0.37600652  1
  Zr  Zr66  1  0.80501560  0.78904589  0.00172200  1
  Zr  Zr67  1  0.29452018  0.50167579  0.87201792  1
  Zr  Zr68  1  0.87186422  0.10269906  0.63655013  1
  Zr  Zr69  1  0.60096533  0.20435413  0.25687961  1
  Zr  Zr70  1  0.20006784  0.59866132  0.74426829  1
  Zr  Zr71  1  0.80381980  0.20240950  0.24358073  1
  Zr  Zr72  1  0.90736416  0.69313315  0.14142275  1
  Zr  Zr73  1  0.30562591  0.09869203  0.87128503  1
  Zr  Zr74  1  0.70536788  0.31095450  0.38646928  1
  Zr  Zr75  1  0.30092631  0.70934131  0.39036744  1
  Zr  Zr76  1  0.88475679  0.09412549  0.37773104  1
  Zr  Zr77  1  0.60047903  -0.00520714  0.51807704  1
  Zr  Zr78  1  0.09523363  0.09307172  0.88107951  1
  Zr  Zr79  1  0.79554047  0.00089554  0.00207027  1
  Ta  Ta80  1  0.70910082  0.49987317  0.61059109  1
  Ta  Ta81  1  0.90102277  0.10967518  0.11904391  1
  Ta  Ta82  1  0.10631411  0.87749728  0.39564968  1
  Ta  Ta83  1  0.89721777  0.49219861  0.61168318  1
  Ta  Ta84  1  -0.00769591  0.38956396  0.24831818  1
  Ta  Ta85  1  0.58862151  0.38562563  0.00629022  1
  Ta  Ta86  1  0.30513774  0.90077270  0.13617408  1
  Ta  Ta87  1  0.40713318  0.21413221  0.75569030  1
  Ta  Ta88  1  0.60826837  0.19649385  -0.00188181  1
  Ta  Ta89  1  0.28472866  0.31654374  0.62253058  1
  Ta  Ta90  1  -0.00488904  0.21632631  0.75116211  1
  Ta  Ta91  1  0.39382791  0.61765005  0.24526045  1
  Ta  Ta92  1  0.01287049  0.58760052  0.26042171  1
  Ta  Ta93  1  0.69926564  0.09428224  0.85921432  1
  Ta  Ta94  1  0.89071271  0.10610219  0.86469242  1
  Ta  Ta95  1  0.09614421  0.69944864  0.86853204  1
  Ta  Ta96  1  0.19288329  0.39322355  0.00688858  1
  Ta  Ta97  1  0.30445960  0.11246554  0.38578274  1
  Ta  Ta98  1  0.38929079  0.20027554  0.24254210  1
  Ta  Ta99  1  0.18977573  0.22515195  0.50060374  1
  Ta  Ta100  1  0.29803417  0.29475381  0.12795226  1
  Ta  Ta101  1  0.89929374  0.88819634  0.61880652  1
  Ta  Ta102  1  0.79585975  0.80574348  0.25193175  1
  Ta  Ta103  1  0.09918390  0.10891280  0.63058223  1
  Ta  Ta104  1  0.60411684  0.00657349  -0.00098003  1
  Ta  Ta105  1  0.69164078  0.29616968  0.12540193  1
  Ta  Ta106  1  0.21016227  0.19350222  0.00591146  1
  Ta  Ta107  1  0.60049426  0.19615532  0.73909507  1
  Ta  Ta108  1  0.29918045  0.30301539  0.88107554  1
  Ta  Ta109  1  0.38837791  0.39927239  0.74977518  1
  Ta  Ta110  1  0.20725412  0.58533661  0.49823539  1
  Ta  Ta111  1  0.30473398  0.90502326  0.60676970  1
  Ta  Ta112  1  0.88772647  0.49860272  0.14124336  1
  Ta  Ta113  1  0.01972053  0.38836679  0.49133001  1
  Ta  Ta114  1  0.59192656  0.78632343  0.50966594  1
  Ta  Ta115  1  0.69769358  0.68745766  0.62329981  1
  Ta  Ta116  1  0.79491885  0.20076830  -0.00431717  1
  Ta  Ta117  1  0.90709512  0.70145554  0.87569447  1
  Ta  Ta118  1  0.11893179  0.68643093  0.13787891  1
  Ta  Ta119  1  0.20788506  -0.00584324  0.73277927  1
  Ti  Ti120  1  0.19963142  -0.00993859  0.00883326  1
  Ti  Ti121  1  0.70428276  0.89909992  0.86412871  1
  Ti  Ti122  1  0.00475030  0.19721425  0.24775474  1
  Ti  Ti123  1  0.90099046  0.30234791  0.87663269  1
  Ti  Ti124  1  0.89261622  0.30411662  0.12249058  1
  Ti  Ti125  1  0.69551987  0.49456882  0.87267176  1
  Ti  Ti126  1  0.19717273  0.18988383  0.24348245  1
  Ti  Ti127  1  0.00797562  0.79466240  0.74377558  1
  Ti  Ti128  1  0.30319029  0.50049072  0.62637821  1
  Ti  Ti129  1  0.21606065  0.78999921  0.25342056  1
  Ti  Ti130  1  0.49017546  0.89989356  0.62087286  1
  Ti  Ti131  1  0.10857206  0.48914127  0.37258519  1
  Ti  Ti132  1  0.18997241  0.38899600  0.75808058  1
  Ti  Ti133  1  0.69623234  0.49067634  0.14109072  1
  Ti  Ti134  1  -0.00904087  0.19338273  -0.00629743  1
  Ti  Ti135  1  0.77835951  0.00375776  0.23539570  1
  Ti  Ti136  1  0.89266595  0.68969484  0.61157793  1
  Ti  Ti137  1  -0.00760828  0.39816655  0.00533634  1
  Ti  Ti138  1  0.50894492  0.11164787  0.86967281  1
  Ti  Ti139  1  0.71686044  0.68362921  0.87153105  1
  Ti  Ti140  1  0.59113925  0.41726503  0.50045864  1
  Ti  Ti141  1  0.40137148  -0.00125908  0.24767294  1
  Ti  Ti142  1  0.41675353  0.40771879  0.23453087  1
  Ti  Ti143  1  0.61539338  0.59662990  0.74904891  1
  Ti  Ti144  1  0.69031232  0.29179633  0.87323981  1
  Ti  Ti145  1  0.41017522  0.60509796  0.74603090  1
  Ti  Ti146  1  0.10085431  0.11518200  0.37628047  1
  Ti  Ti147  1  0.71404619  0.90378293  0.62680279  1
  Ti  Ti148  1  0.42079118  0.60446588  0.50349082  1
  Ti  Ti149  1  0.38638183  0.41012350  0.49902089  1
  Ti  Ti150  1  0.08560464  0.49635899  0.12620882  1
  Ti  Ti151  1  0.91191701  0.30649771  0.62083900  1
  Ti  Ti152  1  0.60201431  0.00159615  0.73381171  1
  Ti  Ti153  1  0.09633356  0.29608838  0.88686959  1
  Ti  Ti154  1  0.50943095  0.90974095  0.13180065  1
  Ti  Ti155  1  0.70022231  0.09933650  0.38165931  1
  Ti  Ti156  1  0.49555659  0.89524696  0.38347762  1
  Ti  Ti157  1  0.58766781  0.58607600  0.24639148  1
  Ti  Ti158  1  0.39586005  0.81242464  0.73923104  1
  Ti  Ti159  1  0.40769023  0.01391481  0.73758070  1
  Mo  Mo160  1  0.50472989  0.70377078  0.63580913  1
  Mo  Mo161  1  0.49237082  0.50230735  0.37484710  1
  Mo  Mo162  1  0.09945995  0.29634094  0.63011557  1
  Mo  Mo163  1  0.79408153  0.39692800  0.24146263  1
  Mo  Mo164  1  0.09574918  0.29723992  0.36380120  1
  Mo  Mo165  1  -0.00085737  0.39159015  0.75471426  1
  Mo  Mo166  1  0.79624864  0.20457130  0.76549569  1
  Mo  Mo167  1  0.59642813  0.40178143  0.24423063  1
  Mo  Mo168  1  0.50290393  0.29837137  0.87094111  1
  Mo  Mo169  1  0.39660796  0.81246355  0.25234928  1
  Mo  Mo170  1  0.38742502  0.20880290  0.49549633  1
  Mo  Mo171  1  0.20343206  0.79633218  0.49907660  1
  Mo  Mo172  1  0.50649490  0.50079908  0.12960110  1
  Mo  Mo173  1  0.79406743  -0.01164005  0.75704917  1
  Mo  Mo174  1  0.60536097  0.60594165  0.50077123  1
  Mo  Mo175  1  -0.00356528  0.79078862  0.49927304  1
  Mo  Mo176  1  0.79771821  0.59760998  0.50017246  1
  Mo  Mo177  1  0.79278627  -0.00084504  0.50756980  1
  Mo  Mo178  1  0.79481656  0.19202473  0.50006461  1
  Mo  Mo179  1  0.10552483  0.68759374  0.38068687  1
  Mo  Mo180  1  0.70543213  0.10069585  0.11900878  1
  Mo  Mo181  1  0.11377240  0.88909391  0.13154293  1
  Mo  Mo182  1  0.70141594  0.70690121  0.36296175  1
  Mo  Mo183  1  0.60419167  0.00165750  0.25357392  1
  Mo  Mo184  1  0.79622450  0.59754649  0.00349938  1
  Mo  Mo185  1  0.40571073  0.00832542  0.50387037  1
  Mo  Mo186  1  0.29749927  0.10075008  0.12786606  1
  Mo  Mo187  1  0.79179591  0.59739974  0.74283813  1
  Mo  Mo188  1  0.79643910  0.59987421  0.25195431  1
  Mo  Mo189  1  0.69556008  0.90552709  0.12912551  1
  Mo  Mo190  1  0.29907741  0.70909766  0.13261314  1
  Mo  Mo191  1  0.49830178  0.10201681  0.63275763  1
  Mo  Mo192  1  0.19420806  0.60292366  0.26026907  1
  Mo  Mo193  1  0.41331481  0.80510366  0.50766029  1
  Mo  Mo194  1  0.20176004  0.80951995  0.74293208  1
  Mo  Mo195  1  0.50141015  0.30459278  0.13259169  1
  Mo  Mo196  1  0.20037411  0.41012128  0.49639793  1
  Mo  Mo197  1  0.69708713  0.09490078  0.64101877  1
  Mo  Mo198  1  0.00354355  0.00630774  -0.00379634  1
  Mo  Mo199  1  0.81333656  0.39957842  0.50315023  1
