# generated using pymatgen
data_HfZrTaTiMo
_symmetry_space_group_name_H-M   'P 1'
_cell_length_a   15.20872859
_cell_length_b   15.21595615
_cell_length_c   16.83676608
_cell_angle_alpha   90.02441017
_cell_angle_beta   90.01802344
_cell_angle_gamma   89.84645312
_symmetry_Int_Tables_number   1
_chemical_formula_structural   HfZrTaTiMo
_chemical_formula_sum   'Hf40 Zr40 Ta40 Ti40 Mo40'
_cell_volume   3896.27153169
_cell_formula_units_Z   40
loop_
 _symmetry_equiv_pos_site_id
 _symmetry_equiv_pos_as_xyz
  1  'x, y, z'
loop_
 _atom_site_type_symbol
 _atom_site_label
 _atom_site_symmetry_multiplicity
 _atom_site_fract_x
 _atom_site_fract_y
 _atom_site_fract_z
 _atom_site_occupancy
  Hf  Hf0  1  0.11427513  0.51310034  0.63685778  1
  Hf  Hf1  1  -0.00092801  0.80855226  0.77119520  1
  Hf  Hf2  1  -0.00704978  0.21685531  0.01308436  1
  Hf  Hf3  1  0.79291115  -0.00571207  0.75273668  1
  Hf  Hf4  1  0.79614699  0.21042032  0.49793087  1
  Hf  Hf5  1  0.69343156  0.08792904  0.13224429  1
  Hf  Hf6  1  0.21659602  0.60146260  0.26149127  1
  Hf  Hf7  1  0.59416182  0.40631625  0.49359961  1
  Hf  Hf8  1  0.48667415  0.29804439  0.12830645  1
  Hf  Hf9  1  0.70481871  0.49673560  0.63586084  1
  Hf  Hf10  1  0.21207014  0.39931004  0.49610250  1
  Hf  Hf11  1  0.41108913  0.58435009  0.51703627  1
  Hf  Hf12  1  0.80602281  0.39128830  0.76361307  1
  Hf  Hf13  1  0.40080210  -0.00186131  -0.00361123  1
  Hf  Hf14  1  0.19647129  0.19076590  0.25847639  1
  Hf  Hf15  1  0.39321394  0.40134124  -0.02185877  1
  Hf  Hf16  1  0.30008945  0.09960412  0.12731718  1
  Hf  Hf17  1  0.68511098  0.30287628  0.62403108  1
  Hf  Hf18  1  0.49561509  0.08745600  0.13725537  1
  Hf  Hf19  1  0.08636532  0.29409514  0.38144485  1
  Hf  Hf20  1  0.49199174  0.90368410  0.85750592  1
  Hf  Hf21  1  0.01304467  0.60548763  0.23875407  1
  Hf  Hf22  1  0.80309751  0.60797783  0.00406840  1
  Hf  Hf23  1  0.41008671  0.59293477  -0.00443118  1
  Hf  Hf24  1  0.59769463  0.80057129  0.50505983  1
  Hf  Hf25  1  -0.00180938  0.21190841  0.74126584  1
  Hf  Hf26  1  0.80589910  0.60918367  0.75592786  1
  Hf  Hf27  1  0.79395572  0.19354051  0.74512497  1
  Hf  Hf28  1  0.69252290  0.51186008  0.13023679  1
  Hf  Hf29  1  0.70525724  0.28775529  0.88988281  1
  Hf  Hf30  1  0.80417001  0.59265461  0.50345144  1
  Hf  Hf31  1  0.19371298  -0.00242488  0.24960966  1
  Hf  Hf32  1  0.26592689  0.89684041  0.61660961  1
  Hf  Hf33  1  0.11366848  0.72288983  0.62786384  1
  Hf  Hf34  1  0.30968302  0.69455076  0.12161260  1
  Hf  Hf35  1  0.29329806  0.30449519  0.13199097  1
  Hf  Hf36  1  0.21274658  0.79891742  0.25515070  1
  Hf  Hf37  1  0.42033577  0.59031396  0.25387940  1
  Hf  Hf38  1  0.39783039  0.20096637  -0.01442678  1
  Hf  Hf39  1  0.41773803  0.80197046  0.00147007  1
  Zr  Zr40  1  0.68869675  0.09714777  0.61291221  1
  Zr  Zr41  1  0.90809065  0.51184079  0.36394771  1
  Zr  Zr42  1  -0.00238668  0.80371094  0.24449172  1
  Zr  Zr43  1  0.51162207  0.68963023  0.85282571  1
  Zr  Zr44  1  0.38324055  0.78600547  0.50702217  1
  Zr  Zr45  1  0.59234954  0.40512684  0.25804960  1
  Zr  Zr46  1  0.91060893  0.50046279  0.63894029  1
  Zr  Zr47  1  0.19938098  0.20601689  -0.00531417  1
  Zr  Zr48  1  0.10882816  0.30879772  0.62874891  1
  Zr  Zr49  1  0.20282398  0.18829744  0.50340323  1
  Zr  Zr50  1  0.60288161  0.80417362  0.72900126  1
  Zr  Zr51  1  -0.00918523  -0.00192211  -0.00734264  1
  Zr  Zr52  1  0.91762797  0.10543074  0.37278502  1
  Zr  Zr53  1  0.00747471  0.61492469  0.50213011  1
  Zr  Zr54  1  0.80318651  0.79560868  0.49552130  1
  Zr  Zr55  1  0.21944406  0.60772362  0.49273651  1
  Zr  Zr56  1  -0.00551682  0.00016054  0.76518408  1
  Zr  Zr57  1  0.70864476  0.49191936  0.36505067  1
  Zr  Zr58  1  0.20714423  0.80179252  -0.01372497  1
  Zr  Zr59  1  0.79227854  0.21000205  0.24614173  1
  Zr  Zr60  1  0.69274803  0.09771686  0.37460050  1
  Zr  Zr61  1  0.11638698  0.49645476  0.11986090  1
  Zr  Zr62  1  0.69040443  0.29991031  0.11510025  1
  Zr  Zr63  1  0.38637352  0.79822418  0.72627882  1
  Zr  Zr64  1  0.60154465  0.60186553  -0.00401172  1
  Zr  Zr65  1  0.80430444  0.61987577  0.23446538  1
  Zr  Zr66  1  0.87632814  0.31936790  0.36849801  1
  Zr  Zr67  1  0.10156224  0.91264148  0.37759927  1
  Zr  Zr68  1  0.31092783  0.69820316  0.86864746  1
  Zr  Zr69  1  -0.00930547  0.40403644  0.50265140  1
  Zr  Zr70  1  0.10146929  0.11334035  0.87037212  1
  Zr  Zr71  1  0.00108884  0.20951452  0.22773112  1
  Zr  Zr72  1  0.19736324  0.39894777  0.26281151  1
  Zr  Zr73  1  0.09995684  0.89927247  0.11708200  1
  Zr  Zr74  1  0.10244060  0.48220214  0.86441061  1
  Zr  Zr75  1  0.48230377  0.10952069  0.38683209  1
  Zr  Zr76  1  0.87827564  0.11654079  0.88845144  1
  Zr  Zr77  1  0.50910439  0.49138050  0.65374763  1
  Zr  Zr78  1  0.80462667  -0.00734136  0.49108193  1
  Zr  Zr79  1  0.81181104  0.40204134  0.00201906  1
  Ta  Ta80  1  0.39228822  -0.01171902  0.26133114  1
  Ta  Ta81  1  0.70068924  0.69756422  0.37497361  1
  Ta  Ta82  1  0.31305042  0.49322923  0.12617887  1
  Ta  Ta83  1  0.60388511  0.60490470  0.50545492  1
  Ta  Ta84  1  0.90233475  0.09507448  0.62304217  1
  Ta  Ta85  1  0.70250961  0.90311550  0.62212196  1
  Ta  Ta86  1  0.68984948  0.50242602  0.86732476  1
  Ta  Ta87  1  0.59133352  -0.01269881  0.00235511  1
  Ta  Ta88  1  0.21075937  0.58753709  -0.01352511  1
  Ta  Ta89  1  0.52176737  0.70287059  0.13490050  1
  Ta  Ta90  1  0.60701917  0.80171954  0.00021776  1
  Ta  Ta91  1  0.88277178  0.90507188  0.12420670  1
  Ta  Ta92  1  0.01057522  0.61472801  0.76137540  1
  Ta  Ta93  1  0.50178995  0.68987386  0.37893516  1
  Ta  Ta94  1  0.90497273  0.89889562  0.62545040  1
  Ta  Ta95  1  0.70670051  0.70923341  0.87046995  1
  Ta  Ta96  1  0.68106983  0.09091844  0.87795009  1
  Ta  Ta97  1  -0.00920023  0.00763003  0.23787825  1
  Ta  Ta98  1  0.59569212  0.19732702  0.75340649  1
  Ta  Ta99  1  0.30693584  0.09298875  0.85881167  1
  Ta  Ta100  1  0.90715194  0.70876229  0.63208167  1
  Ta  Ta101  1  0.31142575  0.09034892  0.62510895  1
  Ta  Ta102  1  0.31264546  0.28355740  0.37189600  1
  Ta  Ta103  1  0.20612884  -0.00121574  -0.01306947  1
  Ta  Ta104  1  0.10891141  0.69736257  0.10858335  1
  Ta  Ta105  1  -0.00263935  0.79833548  -0.01058078  1
  Ta  Ta106  1  0.69146349  0.90044421  0.87220505  1
  Ta  Ta107  1  0.60005172  0.79792795  0.26317925  1
  Ta  Ta108  1  0.40179214  0.19703495  0.74734063  1
  Ta  Ta109  1  0.48648976  0.92011285  0.61415291  1
  Ta  Ta110  1  0.10289578  0.50228119  0.37472703  1
  Ta  Ta111  1  0.11006939  0.08225471  0.63510384  1
  Ta  Ta112  1  0.01189883  0.00467084  0.50779119  1
  Ta  Ta113  1  0.31314162  0.90056754  0.12674215  1
  Ta  Ta114  1  0.79674167  0.80953909  0.00012250  1
  Ta  Ta115  1  0.58619626  0.19988379  0.25687143  1
  Ta  Ta116  1  0.10413873  0.70537209  0.37828810  1
  Ta  Ta117  1  0.59201676  0.18589580  -0.00147340  1
  Ta  Ta118  1  -0.00017514  0.19527433  0.51555793  1
  Ta  Ta119  1  0.90032218  0.70089387  0.88268455  1
  Ti  Ti120  1  0.10068673  0.09947798  0.11441347  1
  Ti  Ti121  1  0.00788713  0.40477180  0.01142155  1
  Ti  Ti122  1  0.92606336  0.31229163  0.87535363  1
  Ti  Ti123  1  0.58855867  0.40278606  -0.01064770  1
  Ti  Ti124  1  0.79425288  0.80961842  0.25364965  1
  Ti  Ti125  1  0.28667317  0.30268264  0.85687589  1
  Ti  Ti126  1  0.19950234  0.39448299  -0.00781437  1
  Ti  Ti127  1  0.20642905  0.19763602  0.74048634  1
  Ti  Ti128  1  0.50471759  0.29877343  0.86570970  1
  Ti  Ti129  1  0.90491382  0.70766304  0.37151666  1
  Ti  Ti130  1  0.21018140  0.60352729  0.75988330  1
  Ti  Ti131  1  0.90553315  0.50412254  0.87258805  1
  Ti  Ti132  1  0.58938745  0.00718664  0.73757546  1
  Ti  Ti133  1  0.40028986  0.38466469  0.50808781  1
  Ti  Ti134  1  0.88658397  0.10084816  0.11750634  1
  Ti  Ti135  1  0.49927340  0.09715653  0.86688581  1
  Ti  Ti136  1  0.40629322  0.79878225  0.25912560  1
  Ti  Ti137  1  0.32588593  0.48815080  0.37536483  1
  Ti  Ti138  1  0.59548785  -0.00237711  0.49449922  1
  Ti  Ti139  1  0.49873424  0.49368404  0.12358133  1
  Ti  Ti140  1  0.18818709  0.80029811  0.77295692  1
  Ti  Ti141  1  0.49011609  0.30740454  0.37393994  1
  Ti  Ti142  1  0.48808491  0.89814338  0.38878556  1
  Ti  Ti143  1  0.49113478  0.29835935  0.63498231  1
  Ti  Ti144  1  0.30548794  0.48079308  0.64660641  1
  Ti  Ti145  1  0.90878607  0.71097450  0.11302860  1
  Ti  Ti146  1  0.78225632  -0.00272611  -0.00070438  1
  Ti  Ti147  1  0.59056397  -0.01511569  0.26406750  1
  Ti  Ti148  1  0.29058782  0.08207000  0.38653695  1
  Ti  Ti149  1  0.70444066  0.69810516  0.62798537  1
  Ti  Ti150  1  0.00407518  0.81097955  0.50000742  1
  Ti  Ti151  1  0.20196573  -0.01433451  0.76288709  1
  Ti  Ti152  1  0.49666723  0.11224500  0.60916881  1
  Ti  Ti153  1  0.00849720  0.59851300  -0.00452119  1
  Ti  Ti154  1  0.68483445  0.89193898  0.13243407  1
  Ti  Ti155  1  0.80501193  0.80515128  0.75123871  1
  Ti  Ti156  1  0.90110496  0.90153125  0.36970221  1
  Ti  Ti157  1  0.89109362  0.30605003  0.62234444  1
  Ti  Ti158  1  0.79628080  -0.00558591  0.25613114  1
  Ti  Ti159  1  -0.00552573  0.40399105  0.23213285  1
  Mo  Mo160  1  0.39778331  0.00571194  0.73777054  1
  Mo  Mo161  1  -0.00212020  0.40628590  0.74554465  1
  Mo  Mo162  1  0.81682121  0.41451030  0.21625424  1
  Mo  Mo163  1  0.78888953  0.18709525  0.01236079  1
  Mo  Mo164  1  0.50274582  0.49099864  0.85544388  1
  Mo  Mo165  1  0.49913790  0.89373717  0.13769341  1
  Mo  Mo166  1  0.31104133  0.29342554  0.63349432  1
  Mo  Mo167  1  0.69211935  0.89489552  0.36911282  1
  Mo  Mo168  1  0.39541754  0.19449024  0.25568549  1
  Mo  Mo169  1  0.70618520  0.72030638  0.12659507  1
  Mo  Mo170  1  0.09455755  0.10216538  0.37831360  1
  Mo  Mo171  1  0.50140010  0.50160414  0.38561132  1
  Mo  Mo172  1  0.30678234  0.89713745  0.38135299  1
  Mo  Mo173  1  0.30120946  0.90682241  0.86724305  1
  Mo  Mo174  1  0.39431480  0.20973941  0.51118577  1
  Mo  Mo175  1  0.60339211  0.61137719  0.25501918  1
  Mo  Mo176  1  0.39914255  0.59703195  0.73537599  1
  Mo  Mo177  1  0.50706619  0.69675454  0.62713615  1
  Mo  Mo178  1  0.88137617  0.89590193  0.88469326  1
  Mo  Mo179  1  0.67443940  0.28593435  0.38537871  1
  Mo  Mo180  1  0.09925493  0.29952935  0.86516064  1
  Mo  Mo181  1  0.20424722  0.39295432  0.74699084  1
  Mo  Mo182  1  0.10307564  0.30247334  0.12454967  1
  Mo  Mo183  1  0.39980526  0.39011483  0.76648460  1
  Mo  Mo184  1  0.60670870  0.38636898  0.76671192  1
  Mo  Mo185  1  0.10031527  0.90168071  0.88703787  1
  Mo  Mo186  1  0.90940459  0.51150370  0.11845923  1
  Mo  Mo187  1  0.79412799  0.40083490  0.50213825  1
  Mo  Mo188  1  0.31195416  0.69965638  0.37256633  1
  Mo  Mo189  1  0.58565602  0.21152141  0.49727810  1
  Mo  Mo190  1  0.08589894  0.90388178  0.62903969  1
  Mo  Mo191  1  0.39721180  0.39690970  0.25439700  1
  Mo  Mo192  1  0.29370108  0.68164370  0.63735141  1
  Mo  Mo193  1  0.09972820  0.68983022  0.88630324  1
  Mo  Mo194  1  0.89506108  0.30952908  0.12151737  1
  Mo  Mo195  1  0.19734229  -0.00365347  0.50117113  1
  Mo  Mo196  1  0.39311882  0.00008531  0.50218437  1
  Mo  Mo197  1  0.18995995  0.79619267  0.48933067  1
  Mo  Mo198  1  0.61147205  0.60257050  0.75049665  1
  Mo  Mo199  1  0.30611742  0.49616269  0.85915872  1
