# generated using pymatgen
data_HfZrTaTiMo
_symmetry_space_group_name_H-M   'P 1'
_cell_length_a   15.21423481
_cell_length_b   15.20059700
_cell_length_c   16.84596884
_cell_angle_alpha   89.98947101
_cell_angle_beta   90.03577208
_cell_angle_gamma   90.10594257
_symmetry_Int_Tables_number   1
_chemical_formula_structural   HfZrTaTiMo
_chemical_formula_sum   'Hf40 Zr40 Ta40 Ti40 Mo40'
_cell_volume   3895.88311680
_cell_formula_units_Z   40
loop_
 _symmetry_equiv_pos_site_id
 _symmetry_equiv_pos_as_xyz
  1  'x, y, z'
loop_
 _atom_site_type_symbol
 _atom_site_label
 _atom_site_symmetry_multiplicity
 _atom_site_fract_x
 _atom_site_fract_y
 _atom_site_fract_z
 _atom_site_occupancy
  Hf  Hf0  1  0.80884304  0.01138613  0.23967451  1
  Hf  Hf1  1  0.20581189  0.81566857  0.49694851  1
  Hf  Hf2  1  0.60994238  0.00160274  0.01185259  1
  Hf  Hf3  1  0.79561119  0.39573554  0.50639182  1
  Hf  Hf4  1  0.90084228  0.90126440  0.60674966  1
  Hf  Hf5  1  0.50170672  0.08876404  0.88532117  1
  Hf  Hf6  1  0.19854784  0.00434821  0.00691626  1
  Hf  Hf7  1  0.38174219  0.18901055  0.49646059  1
  Hf  Hf8  1  0.19947735  0.21680215  0.01209773  1
  Hf  Hf9  1  0.29152848  0.30898641  0.87482640  1
  Hf  Hf10  1  0.39692454  0.59244747  0.52096342  1
  Hf  Hf11  1  0.79486761  0.39660436  -0.00919097  1
  Hf  Hf12  1  0.79998144  0.59081961  0.49573110  1
  Hf  Hf13  1  0.91997084  0.10077153  0.62866155  1
  Hf  Hf14  1  0.80190299  0.40236420  0.75064884  1
  Hf  Hf15  1  0.68518877  0.90890575  0.87267156  1
  Hf  Hf16  1  0.02383277  0.60405451  0.00608000  1
  Hf  Hf17  1  -0.00406254  0.40344284  0.50208293  1
  Hf  Hf18  1  0.49986784  0.09958937  0.62293859  1
  Hf  Hf19  1  0.80807174  0.19763808  0.50628982  1
  Hf  Hf20  1  0.78563974  0.80297518  0.74130078  1
  Hf  Hf21  1  0.48402105  0.68903676  0.12846887  1
  Hf  Hf22  1  -0.00058132  0.58401950  0.73255076  1
  Hf  Hf23  1  0.91783093  0.50246379  0.87447509  1
  Hf  Hf24  1  0.30594437  0.89379697  0.13758584  1
  Hf  Hf25  1  0.30909862  0.89161565  0.88096175  1
  Hf  Hf26  1  0.59377806  0.60053786  0.26491097  1
  Hf  Hf27  1  0.29500022  0.09693175  0.35649568  1
  Hf  Hf28  1  0.02363542  0.61063071  0.24932545  1
  Hf  Hf29  1  0.49169350  0.29620269  0.11656048  1
  Hf  Hf30  1  0.89433662  0.89700225  0.88176163  1
  Hf  Hf31  1  0.10270704  0.92048187  0.63339784  1
  Hf  Hf32  1  0.09484528  0.69678995  0.86444177  1
  Hf  Hf33  1  0.80530748  0.00788102  0.01134678  1
  Hf  Hf34  1  -0.00970294  0.80511066  0.75373361  1
  Hf  Hf35  1  0.81373682  0.61115202  -0.00618339  1
  Hf  Hf36  1  0.70079491  0.70805997  0.87164361  1
  Hf  Hf37  1  0.38126588  0.40845842  0.00644344  1
  Hf  Hf38  1  0.09984464  0.71543752  0.62571235  1
  Hf  Hf39  1  0.00191063  0.40563211  0.24507226  1
  Zr  Zr40  1  0.58673905  0.20544176  0.47973702  1
  Zr  Zr41  1  0.20372081  0.38734405  0.51107588  1
  Zr  Zr42  1  0.80890161  -0.00254981  0.74007001  1
  Zr  Zr43  1  0.39098020  0.19097432  0.75362211  1
  Zr  Zr44  1  0.60259464  -0.00919922  0.25285441  1
  Zr  Zr45  1  0.69150989  0.70768334  0.12367059  1
  Zr  Zr46  1  0.70814123  0.08649072  0.38418726  1
  Zr  Zr47  1  0.59538822  0.38495530  0.26545898  1
  Zr  Zr48  1  0.19997681  0.59478209  0.52123492  1
  Zr  Zr49  1  0.19220570  0.78505583  0.00865293  1
  Zr  Zr50  1  0.09488131  0.89505448  0.13438078  1
  Zr  Zr51  1  0.91121171  0.70823943  0.12987891  1
  Zr  Zr52  1  0.60052792  0.59949157  0.48771738  1
  Zr  Zr53  1  0.41450088  0.81196527  0.50115544  1
  Zr  Zr54  1  0.89213495  0.69938544  0.61292354  1
  Zr  Zr55  1  0.69747623  0.49420689  0.12511647  1
  Zr  Zr56  1  0.19836943  0.20979322  0.23282164  1
  Zr  Zr57  1  0.00876518  0.80215154  0.47896878  1
  Zr  Zr58  1  0.78549233  0.80790508  0.25476096  1
  Zr  Zr59  1  0.60897051  0.00349234  0.73942814  1
  Zr  Zr60  1  0.01487903  0.01257951  0.48850871  1
  Zr  Zr61  1  0.20901763  0.01177591  0.76522598  1
  Zr  Zr62  1  0.12188097  0.11862310  0.62460538  1
  Zr  Zr63  1  0.89682312  0.69724492  0.37638508  1
  Zr  Zr64  1  0.58290001  0.59812839  -0.00958222  1
  Zr  Zr65  1  0.80357833  0.59227868  0.25257420  1
  Zr  Zr66  1  0.78925651  0.19468051  0.73746688  1
  Zr  Zr67  1  0.30051704  0.68867870  0.38554233  1
  Zr  Zr68  1  0.69697033  0.50148879  0.87032774  1
  Zr  Zr69  1  0.51303821  0.48688654  0.62931833  1
  Zr  Zr70  1  0.50513239  0.10465010  0.12224341  1
  Zr  Zr71  1  0.09800676  0.30400251  0.36756478  1
  Zr  Zr72  1  0.19655106  0.77073899  0.25130491  1
  Zr  Zr73  1  0.20464580  0.59252302  0.72536687  1
  Zr  Zr74  1  0.58232046  0.80517457  -0.00472440  1
  Zr  Zr75  1  0.31295067  0.90826289  0.35930084  1
  Zr  Zr76  1  0.80583432  0.20340127  0.00081472  1
  Zr  Zr77  1  0.00360134  0.39233791  0.00443086  1
  Zr  Zr78  1  0.30021792  0.68882727  0.86614454  1
  Zr  Zr79  1  0.67875369  0.29777318  0.62250210  1
  Ta  Ta80  1  0.70927836  0.10851094  0.87561948  1
  Ta  Ta81  1  0.49124181  0.71037933  0.85075694  1
  Ta  Ta82  1  0.68891244  0.70110813  0.62419172  1
  Ta  Ta83  1  0.30884639  0.10445939  0.12690393  1
  Ta  Ta84  1  0.69069487  0.29971664  0.12736767  1
  Ta  Ta85  1  0.39629837  0.59255378  0.72999234  1
  Ta  Ta86  1  0.70485373  0.50511104  0.63440239  1
  Ta  Ta87  1  -0.00427419  0.81164223  0.26661078  1
  Ta  Ta88  1  0.30230341  0.30323960  0.37014721  1
  Ta  Ta89  1  0.68355361  0.88022587  0.38874751  1
  Ta  Ta90  1  0.40524705  -0.01133422  0.75511280  1
  Ta  Ta91  1  0.38742484  0.59221188  0.25664052  1
  Ta  Ta92  1  0.90539405  0.49844224  0.12332801  1
  Ta  Ta93  1  0.90000355  0.90310369  0.12511126  1
  Ta  Ta94  1  0.00049633  0.00618771  0.00765843  1
  Ta  Ta95  1  0.59187849  0.39139731  0.76500529  1
  Ta  Ta96  1  0.90992648  0.11111120  0.37197358  1
  Ta  Ta97  1  0.09267244  0.30278390  0.87083485  1
  Ta  Ta98  1  0.88896642  0.91887536  0.37989198  1
  Ta  Ta99  1  0.59400202  0.20248712  0.76145372  1
  Ta  Ta100  1  0.79077299  0.21266355  0.25602249  1
  Ta  Ta101  1  0.90401973  0.28992522  0.86115142  1
  Ta  Ta102  1  0.91297237  0.09823042  0.86850591  1
  Ta  Ta103  1  0.41051270  0.20283238  0.25779205  1
  Ta  Ta104  1  0.09494593  0.90768700  0.87690854  1
  Ta  Ta105  1  0.41279489  0.79284255  0.25604720  1
  Ta  Ta106  1  0.48855484  0.29707128  0.88494495  1
  Ta  Ta107  1  0.91326068  0.30603978  0.63921121  1
  Ta  Ta108  1  0.57830067  -0.00966439  0.49327802  1
  Ta  Ta109  1  0.80508623  0.60624613  0.74983715  1
  Ta  Ta110  1  0.49375626  0.49613348  0.12930271  1
  Ta  Ta111  1  -0.00917069  0.19791924  0.23739551  1
  Ta  Ta112  1  0.59196428  0.39709789  -0.01046150  1
  Ta  Ta113  1  0.00447676  0.59216673  0.50596561  1
  Ta  Ta114  1  0.50173002  0.70539649  0.63795877  1
  Ta  Ta115  1  0.11084073  0.91566021  0.35645236  1
  Ta  Ta116  1  0.88700268  0.30419348  0.13330453  1
  Ta  Ta117  1  0.40572944  -0.01461691  0.00848145  1
  Ta  Ta118  1  0.50555063  0.89124686  0.13541218  1
  Ta  Ta119  1  0.48274930  0.50161489  0.86306579  1
  Ti  Ti120  1  0.78861333  0.79677337  0.49359411  1
  Ti  Ti121  1  0.39412919  0.78284930  0.00367240  1
  Ti  Ti122  1  0.60670918  0.20847811  -0.01018988  1
  Ti  Ti123  1  0.21839768  0.01634752  0.49842051  1
  Ti  Ti124  1  0.59860755  0.19570204  0.27010012  1
  Ti  Ti125  1  -0.00780621  0.79986893  -0.00490571  1
  Ti  Ti126  1  0.00491553  0.01053898  0.24438722  1
  Ti  Ti127  1  0.59784468  0.39892862  0.48513289  1
  Ti  Ti128  1  0.39411413  0.39680117  0.24687797  1
  Ti  Ti129  1  0.29157307  0.28032591  0.62932364  1
  Ti  Ti130  1  0.22776446  0.58888532  0.00680802  1
  Ti  Ti131  1  0.40512414  0.38794238  0.49956565  1
  Ti  Ti132  1  0.70259100  0.11501542  0.13151938  1
  Ti  Ti133  1  0.11786351  0.49256302  0.87571181  1
  Ti  Ti134  1  0.20945440  0.41324308  0.24562544  1
  Ti  Ti135  1  0.09467370  0.30196540  0.63755068  1
  Ti  Ti136  1  0.10834617  0.51278280  0.37734966  1
  Ti  Ti137  1  0.60273307  0.60248058  0.75132328  1
  Ti  Ti138  1  0.70969422  0.48558801  0.36927667  1
  Ti  Ti139  1  0.48403107  0.30040370  0.63351192  1
  Ti  Ti140  1  0.69236182  0.90112093  0.60467965  1
  Ti  Ti141  1  0.50917288  0.71462884  0.37771912  1
  Ti  Ti142  1  0.90668393  0.49402320  0.36954638  1
  Ti  Ti143  1  0.00981227  0.21135453  0.49622110  1
  Ti  Ti144  1  0.12111190  0.50712538  0.12417954  1
  Ti  Ti145  1  0.09591520  0.10818816  0.87966591  1
  Ti  Ti146  1  0.30084374  0.49840812  0.86574547  1
  Ti  Ti147  1  0.10368374  0.10801879  0.36594103  1
  Ti  Ti148  1  0.19472934  0.20456257  0.76133102  1
  Ti  Ti149  1  0.50190693  0.89418596  0.63108134  1
  Ti  Ti150  1  -0.00172261  0.19433555  0.01230577  1
  Ti  Ti151  1  0.29641860  0.49036682  0.38128925  1
  Ti  Ti152  1  0.79245057  0.80946106  0.00710016  1
  Ti  Ti153  1  0.30674279  0.10441739  0.89517482  1
  Ti  Ti154  1  0.20028901  0.40177723  0.73868179  1
  Ti  Ti155  1  0.48335829  0.49218246  0.37738788  1
  Ti  Ti156  1  0.09860028  0.31125782  0.12609334  1
  Ti  Ti157  1  0.20727418  0.80881326  0.74653399  1
  Ti  Ti158  1  0.30686524  0.91279710  0.62685935  1
  Ti  Ti159  1  0.89192397  0.30338088  0.36663676  1
  Mo  Mo160  1  0.79731325  -0.00048212  0.50058132  1
  Mo  Mo161  1  0.19064098  0.41038387  0.00148457  1
  Mo  Mo162  1  0.70179871  0.90116901  0.12417878  1
  Mo  Mo163  1  0.01000638  0.39657573  0.75553194  1
  Mo  Mo164  1  0.80360369  0.39692753  0.24928870  1
  Mo  Mo165  1  0.30052997  0.30632598  0.13298417  1
  Mo  Mo166  1  0.50015790  0.90402507  0.36772871  1
  Mo  Mo167  1  0.39432056  0.80247955  0.74000285  1
  Mo  Mo168  1  0.09452397  0.48624278  0.62291637  1
  Mo  Mo169  1  0.69182400  0.29571805  0.87269908  1
  Mo  Mo170  1  0.89497624  0.49423902  0.62659817  1
  Mo  Mo171  1  0.09605693  0.10328541  0.12178818  1
  Mo  Mo172  1  0.48828753  0.08857457  0.36997184  1
  Mo  Mo173  1  0.70482793  0.29914481  0.37946196  1
  Mo  Mo174  1  0.59467455  0.80260408  0.74477755  1
  Mo  Mo175  1  0.39471800  0.39499945  0.75095981  1
  Mo  Mo176  1  0.69590236  0.69361833  0.37902895  1
  Mo  Mo177  1  0.90227544  0.10691105  0.13099041  1
  Mo  Mo178  1  0.40385797  0.59949741  -0.00721907  1
  Mo  Mo179  1  0.30236366  0.68441814  0.12864489  1
  Mo  Mo180  1  0.20509862  0.58504447  0.25589139  1
  Mo  Mo181  1  0.69926068  0.08727152  0.59958331  1
  Mo  Mo182  1  0.10200639  0.70073683  0.38530812  1
  Mo  Mo183  1  0.40251582  0.00355813  0.23482484  1
  Mo  Mo184  1  0.00825802  0.00143944  0.76016140  1
  Mo  Mo185  1  0.30649525  0.72048660  0.62761140  1
  Mo  Mo186  1  0.30419834  0.09296205  0.62853795  1
  Mo  Mo187  1  0.59869727  0.79562229  0.50726228  1
  Mo  Mo188  1  0.00501509  0.19841789  0.75498584  1
  Mo  Mo189  1  0.39593719  0.19570626  -0.00209734  1
  Mo  Mo190  1  0.49237068  0.89755232  0.87502423  1
  Mo  Mo191  1  0.59661214  0.79249485  0.25246230  1
  Mo  Mo192  1  0.31283074  0.46806147  0.62952111  1
  Mo  Mo193  1  0.89984562  0.70031137  0.87472241  1
  Mo  Mo194  1  0.48735850  0.30126690  0.37492110  1
  Mo  Mo195  1  0.19279413  0.19695235  0.49124202  1
  Mo  Mo196  1  0.10518802  0.69600948  0.12114035  1
  Mo  Mo197  1  0.30961484  0.50463098  0.13112862  1
  Mo  Mo198  1  0.39681463  -0.00023089  0.50244862  1
  Mo  Mo199  1  0.19399065  0.00711526  0.23460576  1
