# generated using pymatgen
data_HfZrTaTiMo
_symmetry_space_group_name_H-M   'P 1'
_cell_length_a   15.20258457
_cell_length_b   15.18085573
_cell_length_c   16.78942940
_cell_angle_alpha   90.01222577
_cell_angle_beta   89.95045286
_cell_angle_gamma   90.10362543
_symmetry_Int_Tables_number   1
_chemical_formula_structural   HfZrTaTiMo
_chemical_formula_sum   'Hf40 Zr40 Ta40 Ti40 Mo40'
_cell_volume   3874.79504187
_cell_formula_units_Z   40
loop_
 _symmetry_equiv_pos_site_id
 _symmetry_equiv_pos_as_xyz
  1  'x, y, z'
loop_
 _atom_site_type_symbol
 _atom_site_label
 _atom_site_symmetry_multiplicity
 _atom_site_fract_x
 _atom_site_fract_y
 _atom_site_fract_z
 _atom_site_occupancy
  Hf  Hf0  1  0.50222432  0.30459517  0.86868143  1
  Hf  Hf1  1  0.50881507  0.49562052  0.37031434  1
  Hf  Hf2  1  0.10459075  0.09246627  0.13029089  1
  Hf  Hf3  1  0.09885445  0.71043535  0.62020378  1
  Hf  Hf4  1  0.80048528  0.80744381  0.74783274  1
  Hf  Hf5  1  0.19827195  0.19663332  0.74901222  1
  Hf  Hf6  1  0.71987625  0.30137582  0.10490726  1
  Hf  Hf7  1  0.29538342  0.30451176  0.13173214  1
  Hf  Hf8  1  0.19600844  0.78654287  -0.00127302  1
  Hf  Hf9  1  0.50570921  0.50230414  0.13609472  1
  Hf  Hf10  1  0.41282168  0.80828212  0.49246465  1
  Hf  Hf11  1  0.31161459  0.50306481  0.36062509  1
  Hf  Hf12  1  0.17962153  0.00887625  0.48299064  1
  Hf  Hf13  1  0.89733563  0.49860992  0.87473919  1
  Hf  Hf14  1  0.18283694  0.81628882  0.24974051  1
  Hf  Hf15  1  0.90009382  0.70081532  0.62453326  1
  Hf  Hf16  1  0.30615939  0.50255347  0.14221011  1
  Hf  Hf17  1  0.70369452  0.30057839  0.87546644  1
  Hf  Hf18  1  0.00149180  0.59841091  0.50099142  1
  Hf  Hf19  1  0.29795868  0.69628734  0.13790163  1
  Hf  Hf20  1  0.60097289  0.20176603  0.24144314  1
  Hf  Hf21  1  0.20499739  0.39950554  -0.00384077  1
  Hf  Hf22  1  0.31234663  0.70255043  0.87041692  1
  Hf  Hf23  1  0.49312656  0.09860256  0.37625665  1
  Hf  Hf24  1  0.70216590  0.71139433  0.87447810  1
  Hf  Hf25  1  0.80081505  0.00904391  0.74514753  1
  Hf  Hf26  1  0.80777956  0.20117501  0.74594958  1
  Hf  Hf27  1  0.30621798  0.49759091  0.87085082  1
  Hf  Hf28  1  0.00812612  0.60032976  0.75296892  1
  Hf  Hf29  1  0.08036688  0.89154826  0.88353574  1
  Hf  Hf30  1  0.30067495  0.10139616  0.88856721  1
  Hf  Hf31  1  -0.00179861  0.19686930  0.00038234  1
  Hf  Hf32  1  0.80318960  0.80885532  0.50522100  1
  Hf  Hf33  1  0.40135780  0.60630481  -0.00188097  1
  Hf  Hf34  1  0.09326310  0.70578959  0.37000053  1
  Hf  Hf35  1  0.58431444  -0.00361500  0.23483951  1
  Hf  Hf36  1  0.07874725  0.08915274  0.61889184  1
  Hf  Hf37  1  0.51297747  0.70668902  0.37143803  1
  Hf  Hf38  1  -0.00103019  0.40080718  -0.00709714  1
  Hf  Hf39  1  0.89699773  0.11387228  0.13075242  1
  Zr  Zr40  1  0.39848091  -0.00264784  0.74987733  1
  Zr  Zr41  1  0.69072205  0.89185924  0.37613465  1
  Zr  Zr42  1  0.89749160  0.71862603  0.38059619  1
  Zr  Zr43  1  0.89522883  0.50469477  0.38655829  1
  Zr  Zr44  1  -0.01891420  0.78880417  0.01658301  1
  Zr  Zr45  1  0.09032871  0.68760943  0.13223393  1
  Zr  Zr46  1  0.30942083  0.29698896  0.87231582  1
  Zr  Zr47  1  0.41342424  0.82054230  0.25396977  1
  Zr  Zr48  1  0.89402868  0.09125385  0.36763930  1
  Zr  Zr49  1  0.80989711  0.39416500  0.25310382  1
  Zr  Zr50  1  -0.00901791  0.38881724  0.74763957  1
  Zr  Zr51  1  0.19001137  -0.00105218  0.75771735  1
  Zr  Zr52  1  0.08747210  0.29717294  0.13377190  1
  Zr  Zr53  1  0.29242041  0.90756749  0.11917191  1
  Zr  Zr54  1  0.31940147  0.29982521  0.38230321  1
  Zr  Zr55  1  0.80929577  0.80327365  0.23062191  1
  Zr  Zr56  1  0.29034715  0.90355049  0.61955436  1
  Zr  Zr57  1  0.20173782  0.40640145  0.48877068  1
  Zr  Zr58  1  0.49890843  0.70030034  0.13318808  1
  Zr  Zr59  1  0.28884388  0.10663761  0.61358786  1
  Zr  Zr60  1  -0.00172345  0.18642763  0.75156156  1
  Zr  Zr61  1  0.30725768  0.71348537  0.62650419  1
  Zr  Zr62  1  0.30528994  0.31174383  0.61862481  1
  Zr  Zr63  1  0.19530623  0.39964387  0.74647558  1
  Zr  Zr64  1  0.68749612  0.89470397  0.62339192  1
  Zr  Zr65  1  0.50485659  0.09720753  0.87862382  1
  Zr  Zr66  1  0.18920067  0.80179508  0.76321814  1
  Zr  Zr67  1  0.20590027  0.60359922  0.49652634  1
  Zr  Zr68  1  0.78681051  0.00061981  0.24000846  1
  Zr  Zr69  1  0.19743248  0.20426406  0.26751966  1
  Zr  Zr70  1  0.11030339  0.49353352  0.13572971  1
  Zr  Zr71  1  0.79758262  0.60137967  0.24891634  1
  Zr  Zr72  1  0.58513074  0.80373581  0.00188284  1
  Zr  Zr73  1  0.20423291  0.59640808  0.74240747  1
  Zr  Zr74  1  0.70391699  0.50271870  0.11340790  1
  Zr  Zr75  1  0.40559900  0.59489072  0.51076051  1
  Zr  Zr76  1  0.69901020  0.49688111  0.86238783  1
  Zr  Zr77  1  0.91025225  0.49517483  0.11965113  1
  Zr  Zr78  1  0.30349508  0.91409836  0.37339030  1
  Zr  Zr79  1  0.70114256  0.50282389  0.63629432  1
  Ta  Ta80  1  0.88420233  0.89890036  0.88339781  1
  Ta  Ta81  1  0.60935573  0.59985493  0.25704024  1
  Ta  Ta82  1  0.70513532  0.30362506  0.63458045  1
  Ta  Ta83  1  0.69379084  0.10581631  0.11271217  1
  Ta  Ta84  1  0.09641348  0.09593441  0.88694450  1
  Ta  Ta85  1  0.09556798  0.49024182  0.61854809  1
  Ta  Ta86  1  0.09981755  0.28896080  0.60595368  1
  Ta  Ta87  1  0.60519554  0.39150218  0.51008696  1
  Ta  Ta88  1  0.79595166  -0.00190990  0.00997515  1
  Ta  Ta89  1  0.69021814  0.10934998  0.38139744  1
  Ta  Ta90  1  0.10337894  0.29288962  0.88076577  1
  Ta  Ta91  1  -0.00119637  0.39208534  0.49484738  1
  Ta  Ta92  1  0.19239118  0.80769936  0.48562163  1
  Ta  Ta93  1  0.79646030  0.20575249  0.50269254  1
  Ta  Ta94  1  0.89696491  0.08978988  0.88646794  1
  Ta  Ta95  1  0.60341133  0.59587539  0.50572805  1
  Ta  Ta96  1  -0.00089141  -0.02607609  0.24581690  1
  Ta  Ta97  1  0.00265094  0.18779451  0.48576353  1
  Ta  Ta98  1  0.40816319  0.59310814  0.73384034  1
  Ta  Ta99  1  0.80699123  0.60228216  0.75088921  1
  Ta  Ta100  1  0.69788039  0.10287029  0.61995758  1
  Ta  Ta101  1  0.79553714  0.00916680  0.50213857  1
  Ta  Ta102  1  0.51911116  0.70767370  0.62517851  1
  Ta  Ta103  1  0.59488117  0.40501489  -0.00468735  1
  Ta  Ta104  1  0.41519146  0.20484692  0.51147736  1
  Ta  Ta105  1  0.60166901  -0.00250215  0.75279777  1
  Ta  Ta106  1  0.41055022  0.20452298  0.73555753  1
  Ta  Ta107  1  0.49987895  0.50154933  0.86034941  1
  Ta  Ta108  1  0.81287803  0.61093222  -0.00514606  1
  Ta  Ta109  1  0.40625531  0.19881527  0.24005112  1
  Ta  Ta110  1  0.59262771  -0.00561793  0.49977356  1
  Ta  Ta111  1  0.40198569  0.20586012  0.01133180  1
  Ta  Ta112  1  0.51981144  0.29688083  0.37910228  1
  Ta  Ta113  1  0.40428542  0.00707304  0.50533843  1
  Ta  Ta114  1  0.79267010  0.20702706  0.25445552  1
  Ta  Ta115  1  0.30481256  0.70370856  0.36320201  1
  Ta  Ta116  1  0.50800852  0.30403747  0.12037056  1
  Ta  Ta117  1  0.39231399  0.01771495  0.23686480  1
  Ta  Ta118  1  0.59821325  0.59945162  -0.01238074  1
  Ta  Ta119  1  0.70103149  0.48863835  0.39038528  1
  Ti  Ti120  1  0.59772966  -0.00121972  0.01104574  1
  Ti  Ti121  1  -0.01310083  -0.01704286  0.48534467  1
  Ti  Ti122  1  0.90826993  0.90864086  0.62415820  1
  Ti  Ti123  1  0.41732441  0.79485833  0.75185928  1
  Ti  Ti124  1  -0.00630061  -0.00838231  0.01241785  1
  Ti  Ti125  1  0.19467639  0.00807970  0.26099346  1
  Ti  Ti126  1  0.60389423  0.19467063  0.74665665  1
  Ti  Ti127  1  0.61686145  0.39508283  0.25137017  1
  Ti  Ti128  1  0.30119085  0.10996024  0.38439199  1
  Ti  Ti129  1  0.49904984  0.89810498  0.62956421  1
  Ti  Ti130  1  0.09102727  0.89611320  0.62359481  1
  Ti  Ti131  1  0.49753578  0.88831332  0.87397575  1
  Ti  Ti132  1  0.59725088  0.20026625  0.00060947  1
  Ti  Ti133  1  0.90307526  0.29364192  0.61320422  1
  Ti  Ti134  1  0.79005773  0.80636618  0.01341242  1
  Ti  Ti135  1  0.70216507  0.69933548  0.62448181  1
  Ti  Ti136  1  0.69329627  0.91095609  0.87805431  1
  Ti  Ti137  1  0.88951963  0.29975835  0.38682829  1
  Ti  Ti138  1  0.50606654  0.09527368  0.62796215  1
  Ti  Ti139  1  0.70420896  0.10075128  0.88572646  1
  Ti  Ti140  1  0.29720726  0.10767457  0.11499355  1
  Ti  Ti141  1  0.40910705  0.40495891  0.00386761  1
  Ti  Ti142  1  -0.00692444  0.20347750  0.26549602  1
  Ti  Ti143  1  0.91086374  0.70823629  0.86941540  1
  Ti  Ti144  1  0.01431245  0.39560559  0.27468407  1
  Ti  Ti145  1  0.60190309  0.19802152  0.50777785  1
  Ti  Ti146  1  0.19196498  0.00005100  -0.00005246  1
  Ti  Ti147  1  0.41521409  0.38912725  0.25110683  1
  Ti  Ti148  1  0.61174296  0.80260739  0.23633788  1
  Ti  Ti149  1  0.30611736  0.90087210  0.88941391  1
  Ti  Ti150  1  0.42104595  0.40437124  0.51331571  1
  Ti  Ti151  1  0.69727426  0.69453059  0.11549274  1
  Ti  Ti152  1  -0.00832366  0.60049143  0.25659181  1
  Ti  Ti153  1  0.19307512  0.59344625  0.26483438  1
  Ti  Ti154  1  -0.00908701  -0.01210965  0.75622050  1
  Ti  Ti155  1  0.89272936  0.29447038  0.87993058  1
  Ti  Ti156  1  0.70439589  0.68690228  0.38946923  1
  Ti  Ti157  1  0.89304981  0.49196597  0.61861589  1
  Ti  Ti158  1  0.59807584  0.61514408  0.75184571  1
  Ti  Ti159  1  0.40964756  -0.00431887  0.01017608  1
  Mo  Mo160  1  0.80800044  0.39508365  0.74278125  1
  Mo  Mo161  1  0.69233178  0.90004242  0.11690847  1
  Mo  Mo162  1  0.50395682  0.91154129  0.37562433  1
  Mo  Mo163  1  0.50190864  0.69308017  0.86794028  1
  Mo  Mo164  1  0.09737843  0.90399386  0.11776646  1
  Mo  Mo165  1  0.90555264  0.29786507  0.13270828  1
  Mo  Mo166  1  0.19462706  0.59299809  -0.00795217  1
  Mo  Mo167  1  0.59527687  0.80672917  0.75793558  1
  Mo  Mo168  1  -0.00820021  0.80714424  0.75392739  1
  Mo  Mo169  1  0.89413180  0.09666928  0.60985799  1
  Mo  Mo170  1  0.80094378  0.40123573  -0.00649907  1
  Mo  Mo171  1  0.10403641  0.49999498  0.87941997  1
  Mo  Mo172  1  0.20028473  0.40099233  0.26917677  1
  Mo  Mo173  1  0.59393144  0.39347424  0.74304921  1
  Mo  Mo174  1  0.80052341  0.39503176  0.50855355  1
  Mo  Mo175  1  0.60059732  0.79269030  0.50105954  1
  Mo  Mo176  1  0.19931174  0.19536012  0.00060770  1
  Mo  Mo177  1  0.79266231  0.59847602  0.50787158  1
  Mo  Mo178  1  0.00614313  0.81073127  0.50322424  1
  Mo  Mo179  1  0.40603926  0.60436627  0.25776755  1
  Mo  Mo180  1  0.09853007  0.50047465  0.36888798  1
  Mo  Mo181  1  0.89784976  0.90513023  0.11620499  1
  Mo  Mo182  1  0.49314884  0.90586361  0.11884238  1
  Mo  Mo183  1  0.80029340  0.19403648  -0.00789160  1
  Mo  Mo184  1  -0.00768340  0.79526804  0.23361659  1
  Mo  Mo185  1  0.09374950  0.29564124  0.38767556  1
  Mo  Mo186  1  0.01255864  0.59885812  -0.01607230  1
  Mo  Mo187  1  0.08281574  0.89858056  0.37184603  1
  Mo  Mo188  1  0.69836088  0.29743011  0.38090769  1
  Mo  Mo189  1  0.88937447  0.68646609  0.12008735  1
  Mo  Mo190  1  0.89544468  0.89886889  0.37400142  1
  Mo  Mo191  1  0.09287737  0.09487212  0.36249245  1
  Mo  Mo192  1  0.30262112  0.50016656  0.62399654  1
  Mo  Mo193  1  0.39468254  0.80631659  -0.00455264  1
  Mo  Mo194  1  0.09831720  0.68897405  0.88150716  1
  Mo  Mo195  1  0.19534453  0.20126734  0.48750658  1
  Mo  Mo196  1  0.49465612  0.10711238  0.11353200  1
  Mo  Mo197  1  0.40821379  0.40352922  0.73674211  1
  Mo  Mo198  1  0.51401235  0.29228258  0.62795215  1
  Mo  Mo199  1  0.50716025  0.49631574  0.63621310  1
