# generated using pymatgen
data_HfZrTaTiMo
_symmetry_space_group_name_H-M   'P 1'
_cell_length_a   15.21039836
_cell_length_b   15.20919098
_cell_length_c   16.86631725
_cell_angle_alpha   89.99017203
_cell_angle_beta   90.03669790
_cell_angle_gamma   89.91684137
_symmetry_Int_Tables_number   1
_chemical_formula_structural   HfZrTaTiMo
_chemical_formula_sum   'Hf40 Zr40 Ta40 Ti40 Mo40'
_cell_volume   3901.81266127
_cell_formula_units_Z   40
loop_
 _symmetry_equiv_pos_site_id
 _symmetry_equiv_pos_as_xyz
  1  'x, y, z'
loop_
 _atom_site_type_symbol
 _atom_site_label
 _atom_site_symmetry_multiplicity
 _atom_site_fract_x
 _atom_site_fract_y
 _atom_site_fract_z
 _atom_site_occupancy
  Hf  Hf0  1  -0.01637981  0.41117877  -0.01182863  1
  Hf  Hf1  1  0.09781286  0.10775262  0.62882245  1
  Hf  Hf2  1  0.38526674  0.38917032  0.74759367  1
  Hf  Hf3  1  0.17982977  0.20716592  0.24831716  1
  Hf  Hf4  1  0.50920111  0.70369254  0.85765936  1
  Hf  Hf5  1  0.80463603  0.19809639  -0.01564539  1
  Hf  Hf6  1  0.69282210  0.09052478  0.87892164  1
  Hf  Hf7  1  0.10974573  0.90159513  0.11758865  1
  Hf  Hf8  1  0.30086095  0.89227708  0.37973556  1
  Hf  Hf9  1  -0.00089672  0.57972907  0.48709086  1
  Hf  Hf10  1  0.29415487  0.09376011  0.12420011  1
  Hf  Hf11  1  0.09181062  0.90449345  0.38870449  1
  Hf  Hf12  1  -0.01291372  -0.01135509  0.52105170  1
  Hf  Hf13  1  0.82773009  0.40291281  0.48790428  1
  Hf  Hf14  1  -0.00277346  0.38258067  0.25754599  1
  Hf  Hf15  1  0.20968998  0.79593195  -0.01245869  1
  Hf  Hf16  1  0.59170226  0.41421078  0.26424371  1
  Hf  Hf17  1  0.70745449  0.50971421  0.38851646  1
  Hf  Hf18  1  0.30668366  0.50140904  0.11252178  1
  Hf  Hf19  1  0.09838503  0.88314690  0.63193146  1
  Hf  Hf20  1  0.71052736  0.11658424  0.36717934  1
  Hf  Hf21  1  0.90212412  0.07469913  0.37834313  1
  Hf  Hf22  1  0.11542653  0.49378400  0.36306875  1
  Hf  Hf23  1  0.70094247  0.71750875  0.38457343  1
  Hf  Hf24  1  0.49114375  0.71375682  0.64183700  1
  Hf  Hf25  1  0.60066470  0.61874110  0.25400256  1
  Hf  Hf26  1  0.60657459  0.82923047  0.51784627  1
  Hf  Hf27  1  0.41245409  -0.00699039  0.50808219  1
  Hf  Hf28  1  0.00180742  0.80548635  0.25673244  1
  Hf  Hf29  1  0.29050879  0.69496857  0.64116370  1
  Hf  Hf30  1  0.29544169  0.28451635  0.87442340  1
  Hf  Hf31  1  -0.00539094  0.20540875  -0.01696857  1
  Hf  Hf32  1  0.39406235  0.79255592  0.50432940  1
  Hf  Hf33  1  0.71901384  0.49202356  0.62018163  1
  Hf  Hf34  1  0.20977081  0.00402460  0.73776527  1
  Hf  Hf35  1  0.00953568  0.79205999  -0.01227088  1
  Hf  Hf36  1  0.40754955  0.80265115  -0.00635194  1
  Hf  Hf37  1  0.00091912  0.00961347  -0.01739021  1
  Hf  Hf38  1  0.40196728  0.00078412  0.24835333  1
  Hf  Hf39  1  -0.01733334  0.78535745  0.49915800  1
  Zr  Zr40  1  0.78988617  0.39203937  -0.00315629  1
  Zr  Zr41  1  0.21455109  0.40038087  0.23782825  1
  Zr  Zr42  1  0.58482569  0.00813002  0.01683897  1
  Zr  Zr43  1  0.29746429  0.10326348  0.38304535  1
  Zr  Zr44  1  0.77259351  0.79884368  0.76748326  1
  Zr  Zr45  1  0.08805989  0.50642332  0.12702705  1
  Zr  Zr46  1  0.49163315  0.69409172  0.38442971  1
  Zr  Zr47  1  0.80080897  0.80029289  -0.00882963  1
  Zr  Zr48  1  0.59524058  0.39345525  0.50393996  1
  Zr  Zr49  1  0.70191414  0.28495787  0.62914981  1
  Zr  Zr50  1  0.60346135  0.21402693  0.24636480  1
  Zr  Zr51  1  0.49706869  0.50298386  0.85367697  1
  Zr  Zr52  1  0.70357601  0.89286548  0.13143121  1
  Zr  Zr53  1  0.39266333  0.21137301  0.25317392  1
  Zr  Zr54  1  0.68898467  0.50453163  0.12421089  1
  Zr  Zr55  1  0.59851529  0.61000508  0.51797247  1
  Zr  Zr56  1  0.09809182  0.10941092  0.39253075  1
  Zr  Zr57  1  0.61963891  0.61434260  0.73086054  1
  Zr  Zr58  1  -0.01128901  0.20707604  0.50812528  1
  Zr  Zr59  1  0.82262956  0.60261060  0.74194778  1
  Zr  Zr60  1  0.72136650  0.91229396  0.35902775  1
  Zr  Zr61  1  0.60267597  0.01232718  0.23133489  1
  Zr  Zr62  1  0.70169090  0.51191200  0.86839132  1
  Zr  Zr63  1  0.21126666  0.78944107  0.25058632  1
  Zr  Zr64  1  0.19096778  0.39510393  -0.00008029  1
  Zr  Zr65  1  0.40186541  0.20442837  0.50452121  1
  Zr  Zr66  1  0.90438862  0.31569906  0.64118426  1
  Zr  Zr67  1  0.19951358  0.23176582  0.51660281  1
  Zr  Zr68  1  0.51783814  0.09790874  0.62231370  1
  Zr  Zr69  1  0.10272040  0.90341733  0.86311318  1
  Zr  Zr70  1  0.68548197  0.30492719  0.86326131  1
  Zr  Zr71  1  0.49084823  0.10100248  0.86871106  1
  Zr  Zr72  1  0.90874356  0.68619537  0.12450903  1
  Zr  Zr73  1  0.49055203  0.32254715  0.12843264  1
  Zr  Zr74  1  0.40211993  0.18747624  0.00763759  1
  Zr  Zr75  1  0.08710616  0.67912218  0.63116789  1
  Zr  Zr76  1  0.39610237  0.58938947  0.24455760  1
  Zr  Zr77  1  0.51582500  0.89518704  0.36461744  1
  Zr  Zr78  1  0.91034161  0.90428438  0.12255224  1
  Zr  Zr79  1  0.18699413  -0.00070091  0.25242997  1
  Ta  Ta80  1  0.41016268  0.59645684  -0.00578865  1
  Ta  Ta81  1  0.41264506  0.79139354  0.24100780  1
  Ta  Ta82  1  0.60323317  0.79747267  -0.00668584  1
  Ta  Ta83  1  0.31342663  0.90390620  0.86508986  1
  Ta  Ta84  1  0.89241552  0.28786699  0.13113506  1
  Ta  Ta85  1  0.89466617  0.69515192  0.36897551  1
  Ta  Ta86  1  0.11166991  0.10898824  0.85904320  1
  Ta  Ta87  1  0.60108313  0.21460152  0.01010186  1
  Ta  Ta88  1  0.89106569  0.28050402  0.36683890  1
  Ta  Ta89  1  0.60613806  -0.01309468  0.74935829  1
  Ta  Ta90  1  0.38587254  0.39957524  0.51224569  1
  Ta  Ta91  1  0.81023699  0.59160740  -0.00198486  1
  Ta  Ta92  1  0.80369931  0.59076715  0.25477953  1
  Ta  Ta93  1  0.88269616  0.88306307  0.63767869  1
  Ta  Ta94  1  0.30719966  0.50195758  0.37916834  1
  Ta  Ta95  1  0.80474303  0.19604206  0.76383903  1
  Ta  Ta96  1  0.21016540  0.00141055  -0.00910793  1
  Ta  Ta97  1  -0.00856942  0.00031060  0.74688149  1
  Ta  Ta98  1  0.00677414  0.20837718  0.75552739  1
  Ta  Ta99  1  0.50832240  0.69366555  0.11558062  1
  Ta  Ta100  1  0.90441436  0.68653888  0.88162889  1
  Ta  Ta101  1  0.59873958  0.39881619  0.73581432  1
  Ta  Ta102  1  0.78617027  -0.00462016  0.51300376  1
  Ta  Ta103  1  0.30796306  0.89510402  0.12012784  1
  Ta  Ta104  1  0.88807050  0.10234965  0.63559487  1
  Ta  Ta105  1  0.10576609  0.69511364  0.37592462  1
  Ta  Ta106  1  0.38626268  0.59044566  0.51510634  1
  Ta  Ta107  1  0.81389980  0.61814358  0.51181616  1
  Ta  Ta108  1  -0.01282017  0.78700812  0.76005045  1
  Ta  Ta109  1  0.80166948  0.00453150  -0.00082664  1
  Ta  Ta110  1  0.18839412  0.18891702  -0.00122689  1
  Ta  Ta111  1  0.50802907  0.10099060  0.37975320  1
  Ta  Ta112  1  0.10926649  0.69525315  0.12491664  1
  Ta  Ta113  1  0.48758409  0.50045162  0.63435996  1
  Ta  Ta114  1  0.29532259  0.49843348  0.87498606  1
  Ta  Ta115  1  0.79437672  0.00046190  0.75036034  1
  Ta  Ta116  1  0.17944725  0.40025045  0.75484813  1
  Ta  Ta117  1  0.30977029  0.69282301  0.86193726  1
  Ta  Ta118  1  0.58344011  0.41464155  -0.00403679  1
  Ta  Ta119  1  0.39878244  0.39858307  -0.01327415  1
  Ti  Ti120  1  0.28818602  0.31603818  0.37756793  1
  Ti  Ti121  1  0.49306159  0.30392642  0.37959437  1
  Ti  Ti122  1  0.01593407  0.58596162  0.76951117  1
  Ti  Ti123  1  0.29326722  0.68679594  0.37690372  1
  Ti  Ti124  1  0.30867159  0.89048431  0.63361667  1
  Ti  Ti125  1  0.29282161  0.29625983  0.11457640  1
  Ti  Ti126  1  0.19780710  0.59069897  0.76197576  1
  Ti  Ti127  1  0.08707512  0.29316614  0.11657009  1
  Ti  Ti128  1  0.49881550  0.89283390  0.12677772  1
  Ti  Ti129  1  0.21360895  0.20847696  0.73357412  1
  Ti  Ti130  1  0.19699416  0.79246676  0.76095456  1
  Ti  Ti131  1  0.82453979  0.01679976  0.23275028  1
  Ti  Ti132  1  0.30244188  0.09434630  0.87042111  1
  Ti  Ti133  1  0.71577063  0.11678046  0.12169193  1
  Ti  Ti134  1  0.79333328  0.39143710  0.26393573  1
  Ti  Ti135  1  0.08432112  0.09786429  0.12075095  1
  Ti  Ti136  1  0.50560369  0.90482757  0.87009332  1
  Ti  Ti137  1  0.79686673  0.19725704  0.50292897  1
  Ti  Ti138  1  0.30359847  0.69813463  0.11876348  1
  Ti  Ti139  1  0.19701144  0.59068854  0.50449446  1
  Ti  Ti140  1  0.70119429  0.30874778  0.12662595  1
  Ti  Ti141  1  0.19632822  0.79176501  0.50266038  1
  Ti  Ti142  1  0.20974395  -0.00187927  0.52071545  1
  Ti  Ti143  1  0.49601140  0.29575393  0.86796685  1
  Ti  Ti144  1  0.89015619  0.90694161  0.86967782  1
  Ti  Ti145  1  0.92690098  0.50449889  0.63015199  1
  Ti  Ti146  1  0.28174625  0.49222061  0.63306913  1
  Ti  Ti147  1  0.49217832  0.29759663  0.63186092  1
  Ti  Ti148  1  0.89122976  0.48879280  0.13360758  1
  Ti  Ti149  1  0.00135542  0.59768868  0.25915943  1
  Ti  Ti150  1  0.60659880  0.19630988  0.49446280  1
  Ti  Ti151  1  0.59601838  0.19344710  0.74841308  1
  Ti  Ti152  1  0.19328141  0.60417050  -0.01350289  1
  Ti  Ti153  1  0.09711563  0.30520204  0.87144207  1
  Ti  Ti154  1  0.40573230  0.00280943  0.73631270  1
  Ti  Ti155  1  0.02632691  0.38828410  0.48985951  1
  Ti  Ti156  1  0.70179464  0.69592873  0.11751043  1
  Ti  Ti157  1  -0.01279478  0.17780799  0.24681029  1
  Ti  Ti158  1  0.49127114  0.49930143  0.39018960  1
  Ti  Ti159  1  0.79986821  0.78737473  0.24474861  1
  Mo  Mo160  1  0.39191755  -0.01045216  0.00048684  1
  Mo  Mo161  1  0.00553903  0.00045135  0.24988666  1
  Mo  Mo162  1  -0.00551329  0.41035431  0.76846035  1
  Mo  Mo163  1  0.89852861  0.49856050  0.87318856  1
  Mo  Mo164  1  0.49606790  0.90425787  0.63414913  1
  Mo  Mo165  1  0.70166572  0.30229978  0.38537040  1
  Mo  Mo166  1  0.19818770  0.60789947  0.24633297  1
  Mo  Mo167  1  0.09700998  0.48963074  0.62680868  1
  Mo  Mo168  1  0.09795897  0.29815032  0.37214971  1
  Mo  Mo169  1  0.89316250  0.89025842  0.37200572  1
  Mo  Mo170  1  0.40336424  0.40077480  0.26257085  1
  Mo  Mo171  1  0.38680656  0.59529085  0.74217570  1
  Mo  Mo172  1  0.60185215  0.60731456  -0.00441801  1
  Mo  Mo173  1  0.80573179  0.80755411  0.50343321  1
  Mo  Mo174  1  0.30387080  0.09740389  0.62413519  1
  Mo  Mo175  1  0.29907550  0.30561037  0.63262854  1
  Mo  Mo176  1  0.89709723  0.30388263  0.85649308  1
  Mo  Mo177  1  0.90319712  0.10320884  0.11683064  1
  Mo  Mo178  1  0.90123470  0.49760422  0.36688576  1
  Mo  Mo179  1  0.71726245  0.71931208  0.61540240  1
  Mo  Mo180  1  0.09896368  0.31722876  0.63703374  1
  Mo  Mo181  1  0.79975555  0.40146262  0.75094269  1
  Mo  Mo182  1  0.49667934  0.50813927  0.11721151  1
  Mo  Mo183  1  0.10399320  0.50387305  0.88478233  1
  Mo  Mo184  1  0.90465846  0.09464166  0.85787491  1
  Mo  Mo185  1  0.39341798  0.81137213  0.75734674  1
  Mo  Mo186  1  0.60243384  0.79426331  0.23844295  1
  Mo  Mo187  1  0.60679789  0.01628720  0.49274536  1
  Mo  Mo188  1  0.69012249  0.90551833  0.88684473  1
  Mo  Mo189  1  0.20480629  0.41714548  0.50045090  1
  Mo  Mo190  1  0.69744999  0.91389301  0.62895816  1
  Mo  Mo191  1  0.70699896  0.10311495  0.63094463  1
  Mo  Mo192  1  0.39543786  0.19173522  0.74163198  1
  Mo  Mo193  1  0.59638599  0.81220915  0.74751611  1
  Mo  Mo194  1  0.50037394  0.10659663  0.12353158  1
  Mo  Mo195  1  0.10642560  0.69695103  0.86686020  1
  Mo  Mo196  1  0.80506432  0.20586762  0.24537158  1
  Mo  Mo197  1  0.00473882  0.60107783  -0.00523683  1
  Mo  Mo198  1  0.70050446  0.69869381  0.88653958  1
  Mo  Mo199  1  0.90573221  0.69870959  0.63209018  1
