# generated using pymatgen
data_HfZrTaTiMo
_symmetry_space_group_name_H-M   'P 1'
_cell_length_a   15.21581775
_cell_length_b   15.20922552
_cell_length_c   16.83259097
_cell_angle_alpha   90.06011546
_cell_angle_beta   90.04057306
_cell_angle_gamma   89.94447158
_symmetry_Int_Tables_number   1
_chemical_formula_structural   HfZrTaTiMo
_chemical_formula_sum   'Hf40 Zr40 Ta40 Ti40 Mo40'
_cell_volume   3895.40678334
_cell_formula_units_Z   40
loop_
 _symmetry_equiv_pos_site_id
 _symmetry_equiv_pos_as_xyz
  1  'x, y, z'
loop_
 _atom_site_type_symbol
 _atom_site_label
 _atom_site_symmetry_multiplicity
 _atom_site_fract_x
 _atom_site_fract_y
 _atom_site_fract_z
 _atom_site_occupancy
  Hf  Hf0  1  0.10147057  0.68796772  0.87861103  1
  Hf  Hf1  1  0.49799023  0.90548234  0.61025526  1
  Hf  Hf2  1  0.89763574  0.91416143  0.12928633  1
  Hf  Hf3  1  0.71176985  0.09799551  0.11697668  1
  Hf  Hf4  1  0.69448588  0.70314736  0.12250874  1
  Hf  Hf5  1  0.08942438  0.29185238  0.37898987  1
  Hf  Hf6  1  0.49748830  0.29956937  0.61987718  1
  Hf  Hf7  1  0.79822806  0.80105637  0.74709525  1
  Hf  Hf8  1  0.59260389  0.79467294  0.74370609  1
  Hf  Hf9  1  0.69969048  0.69418383  0.62001213  1
  Hf  Hf10  1  0.90476815  0.30174770  0.87496770  1
  Hf  Hf11  1  0.29718385  0.29456921  0.87096010  1
  Hf  Hf12  1  0.60245780  0.00403747  0.73986148  1
  Hf  Hf13  1  0.70744661  0.10791481  0.39314190  1
  Hf  Hf14  1  0.39294442  0.79975315  0.48986350  1
  Hf  Hf15  1  0.49515459  0.70207423  0.12634140  1
  Hf  Hf16  1  0.10610049  0.10148279  0.13352129  1
  Hf  Hf17  1  0.40182688  0.18982659  0.48975265  1
  Hf  Hf18  1  0.59984202  -0.00304470  0.26598319  1
  Hf  Hf19  1  0.61145224  0.19110360  0.24871525  1
  Hf  Hf20  1  0.12676551  0.09342758  0.63402091  1
  Hf  Hf21  1  0.49635161  0.50550858  0.87501765  1
  Hf  Hf22  1  0.29124809  0.91575928  0.60967104  1
  Hf  Hf23  1  0.30097019  0.49330602  0.12456528  1
  Hf  Hf24  1  0.29144521  0.29403746  0.13356918  1
  Hf  Hf25  1  0.80074423  0.19436303  0.73448405  1
  Hf  Hf26  1  0.80913032  0.22029136  0.24982427  1
  Hf  Hf27  1  0.79731147  0.80262678  -0.00252100  1
  Hf  Hf28  1  0.50274149  0.90292066  0.12821888  1
  Hf  Hf29  1  0.81564934  -0.00907037  0.50817404  1
  Hf  Hf30  1  0.59923098  0.59877539  0.25039952  1
  Hf  Hf31  1  0.40175641  0.80852969  0.00188614  1
  Hf  Hf32  1  0.49472453  0.49660783  0.13104668  1
  Hf  Hf33  1  0.30112835  0.50077558  0.62081179  1
  Hf  Hf34  1  0.70298275  0.48562266  0.36770635  1
  Hf  Hf35  1  0.40642860  0.80231148  0.26321282  1
  Hf  Hf36  1  0.79670440  -0.00195594  0.72483344  1
  Hf  Hf37  1  0.48847026  0.48608388  0.36384874  1
  Hf  Hf38  1  0.19108312  0.39581571  0.74392372  1
  Hf  Hf39  1  0.01461873  0.20168559  -0.00559210  1
  Zr  Zr40  1  0.09556107  0.89310081  0.87323096  1
  Zr  Zr41  1  0.80690562  0.00689322  0.26597280  1
  Zr  Zr42  1  0.90032601  0.50511731  0.87411448  1
  Zr  Zr43  1  0.90196088  0.70479454  0.86778696  1
  Zr  Zr44  1  0.09195992  0.48458902  0.13255590  1
  Zr  Zr45  1  -0.01647815  0.62716058  0.49800610  1
  Zr  Zr46  1  0.82149167  0.78249509  0.50017119  1
  Zr  Zr47  1  -0.00050838  0.41245559  0.50418723  1
  Zr  Zr48  1  0.00240161  -0.00360196  0.75329659  1
  Zr  Zr49  1  0.19625901  0.60821476  0.74853203  1
  Zr  Zr50  1  0.10099932  0.68987138  0.36187155  1
  Zr  Zr51  1  0.09538736  0.51800091  0.61861476  1
  Zr  Zr52  1  0.60326360  0.57799954  0.49830805  1
  Zr  Zr53  1  0.49401514  0.29387196  0.12770927  1
  Zr  Zr54  1  0.19839842  0.19049732  0.49269014  1
  Zr  Zr55  1  0.51308787  0.29496114  0.38154203  1
  Zr  Zr56  1  0.20788791  0.79435676  0.24392006  1
  Zr  Zr57  1  0.39600493  0.02416166  -0.00432356  1
  Zr  Zr58  1  0.79994125  0.39660188  0.74134741  1
  Zr  Zr59  1  0.19439679  -0.00071298  -0.00239832  1
  Zr  Zr60  1  0.30663306  0.71044177  0.87358799  1
  Zr  Zr61  1  0.49037536  0.90021134  0.86537687  1
  Zr  Zr62  1  0.48927911  0.69759373  0.61635410  1
  Zr  Zr63  1  0.71278405  0.09518115  0.87559948  1
  Zr  Zr64  1  0.50671363  0.69958027  0.38432568  1
  Zr  Zr65  1  0.60039606  -0.00846283  -0.01051890  1
  Zr  Zr66  1  0.20311041  0.79384541  0.02370167  1
  Zr  Zr67  1  0.69831158  0.90035051  0.12268329  1
  Zr  Zr68  1  0.00098414  0.80207279  0.01695895  1
  Zr  Zr69  1  0.50441131  0.50147341  0.63295985  1
  Zr  Zr70  1  0.28353511  0.50628620  0.88814608  1
  Zr  Zr71  1  0.40208795  0.19369413  0.26434324  1
  Zr  Zr72  1  0.39695300  0.39906985  0.75465443  1
  Zr  Zr73  1  0.58971998  0.19516194  -0.00431254  1
  Zr  Zr74  1  0.60442549  0.39888373  -0.00038127  1
  Zr  Zr75  1  0.71550841  0.68901049  0.38367855  1
  Zr  Zr76  1  0.89817955  0.51384103  0.36813469  1
  Zr  Zr77  1  0.92169852  0.87579825  0.62593924  1
  Zr  Zr78  1  0.88962025  0.30236367  0.39506001  1
  Zr  Zr79  1  -0.00475682  0.59910524  0.01978782  1
  Ta  Ta80  1  0.59898064  0.20039856  0.74893803  1
  Ta  Ta81  1  -0.01453322  0.38853508  0.25326020  1
  Ta  Ta82  1  0.92684565  0.10387814  0.38820682  1
  Ta  Ta83  1  0.39627244  0.00872462  0.74162159  1
  Ta  Ta84  1  0.37980610  0.59517231  0.48907169  1
  Ta  Ta85  1  0.70207701  0.29956565  0.87435885  1
  Ta  Ta86  1  0.00056377  0.40319708  0.73889275  1
  Ta  Ta87  1  0.01134797  0.83287089  0.46713334  1
  Ta  Ta88  1  0.28265365  0.70334090  0.61567024  1
  Ta  Ta89  1  0.69992251  0.89186446  0.87346715  1
  Ta  Ta90  1  0.60743053  0.80356217  0.26300729  1
  Ta  Ta91  1  0.30489362  0.10678983  0.85869409  1
  Ta  Ta92  1  0.80322916  0.79896145  0.25741396  1
  Ta  Ta93  1  0.60095689  0.39369420  0.75949300  1
  Ta  Ta94  1  0.40230432  -0.00061128  0.26653428  1
  Ta  Ta95  1  0.09771558  0.91113939  0.14603305  1
  Ta  Ta96  1  0.19232217  0.79345117  0.48721955  1
  Ta  Ta97  1  0.10163012  0.29777201  0.86856477  1
  Ta  Ta98  1  0.69850257  0.50374228  0.87066605  1
  Ta  Ta99  1  0.39328686  0.38781685  -0.00412207  1
  Ta  Ta100  1  0.39435230  0.39934229  0.49836250  1
  Ta  Ta101  1  0.28248250  0.50546846  0.37024738  1
  Ta  Ta102  1  0.70109465  0.30163535  0.39383351  1
  Ta  Ta103  1  0.91253719  0.10976929  0.12743329  1
  Ta  Ta104  1  0.78795712  0.41507236  0.51935847  1
  Ta  Ta105  1  0.79243921  0.59701646  0.00999894  1
  Ta  Ta106  1  0.80630707  0.20287122  0.00132183  1
  Ta  Ta107  1  0.08719204  0.72059148  0.62109185  1
  Ta  Ta108  1  0.19262989  0.19452594  0.26399944  1
  Ta  Ta109  1  0.38263536  0.60484728  0.25556466  1
  Ta  Ta110  1  0.28934318  0.90460638  0.37835937  1
  Ta  Ta111  1  0.61324435  0.38441112  0.24071727  1
  Ta  Ta112  1  0.90269003  0.30635935  0.11637358  1
  Ta  Ta113  1  0.18267570  0.38628420  0.00230350  1
  Ta  Ta114  1  0.80314920  0.60169390  0.23423586  1
  Ta  Ta115  1  0.30056438  0.31278932  0.36931058  1
  Ta  Ta116  1  0.90587346  0.30028038  0.61678015  1
  Ta  Ta117  1  0.00839272  0.20779122  0.74251364  1
  Ta  Ta118  1  0.21334432  0.19511467  -0.00141155  1
  Ta  Ta119  1  0.69379047  0.69258934  0.87550949  1
  Ti  Ti120  1  0.59837707  0.60203805  0.00127664  1
  Ti  Ti121  1  0.10284161  0.29624521  0.61709648  1
  Ti  Ti122  1  0.19516631  0.60354104  0.02289671  1
  Ti  Ti123  1  0.68998053  0.29969780  0.61644170  1
  Ti  Ti124  1  0.50533990  0.70075556  0.87831607  1
  Ti  Ti125  1  0.11495268  0.10481647  0.85892119  1
  Ti  Ti126  1  0.70174843  0.48856563  0.12684692  1
  Ti  Ti127  1  0.20399523  0.40669621  0.49652570  1
  Ti  Ti128  1  0.49418229  0.28614256  0.87447581  1
  Ti  Ti129  1  0.92283840  0.09981209  0.61604519  1
  Ti  Ti130  1  0.39505843  0.60220897  0.00303463  1
  Ti  Ti131  1  0.08883942  0.48907797  0.88188227  1
  Ti  Ti132  1  0.29214812  0.09069002  0.37434992  1
  Ti  Ti133  1  0.19706739  0.39676146  0.25493977  1
  Ti  Ti134  1  0.89154638  0.49179139  0.12784672  1
  Ti  Ti135  1  0.19507575  0.80989417  0.74378656  1
  Ti  Ti136  1  0.89149479  0.91127635  0.87533965  1
  Ti  Ti137  1  0.80149540  0.40127591  -0.00124973  1
  Ti  Ti138  1  0.40212451  0.61323947  0.75054135  1
  Ti  Ti139  1  0.29820423  0.28208155  0.62843325  1
  Ti  Ti140  1  -0.00812518  0.80916170  0.25595538  1
  Ti  Ti141  1  0.09708662  0.49579214  0.36757503  1
  Ti  Ti142  1  0.09217423  0.29162258  0.13506938  1
  Ti  Ti143  1  0.60338721  0.00905306  0.50579455  1
  Ti  Ti144  1  0.49693921  0.09535938  0.12934786  1
  Ti  Ti145  1  0.30366422  0.91106259  0.13444562  1
  Ti  Ti146  1  0.10416912  0.90226127  0.62033268  1
  Ti  Ti147  1  0.70280383  0.89264716  0.39265427  1
  Ti  Ti148  1  0.19568310  0.59990011  0.23481105  1
  Ti  Ti149  1  0.49683232  0.10439820  0.61879282  1
  Ti  Ti150  1  0.29318748  0.90857913  0.86606295  1
  Ti  Ti151  1  0.90064194  0.67150110  0.65230891  1
  Ti  Ti152  1  -0.00602252  0.00542187  -0.00414295  1
  Ti  Ti153  1  0.80073771  0.19597747  0.51958394  1
  Ti  Ti154  1  0.90866973  0.10330710  0.87122540  1
  Ti  Ti155  1  0.30424017  0.10014231  0.13597132  1
  Ti  Ti156  1  0.38640984  0.80585445  0.73818739  1
  Ti  Ti157  1  0.70069562  0.50597988  0.64298534  1
  Ti  Ti158  1  -0.00751313  0.60958898  0.23368407  1
  Ti  Ti159  1  0.50509733  0.90871298  0.39382480  1
  Mo  Mo160  1  0.80746410  0.58916549  0.50918506  1
  Mo  Mo161  1  0.39617424  0.00365360  0.48366054  1
  Mo  Mo162  1  0.60696438  0.19805402  0.50998729  1
  Mo  Mo163  1  0.09465427  0.70388275  0.14354619  1
  Mo  Mo164  1  0.59877922  0.79049206  -0.01344227  1
  Mo  Mo165  1  0.89781651  0.90900828  0.37046550  1
  Mo  Mo166  1  0.20966793  -0.00554096  0.75485050  1
  Mo  Mo167  1  0.69573412  0.10393022  0.61351032  1
  Mo  Mo168  1  0.01731351  0.00758062  0.50105305  1
  Mo  Mo169  1  0.00319630  0.00926589  0.25405449  1
  Mo  Mo170  1  0.40864736  0.19798911  0.74235475  1
  Mo  Mo171  1  0.19483591  0.60053742  0.49756556  1
  Mo  Mo172  1  0.59971905  0.39722213  0.50587316  1
  Mo  Mo173  1  -0.00211148  0.20202772  0.25079263  1
  Mo  Mo174  1  0.39416423  0.40299200  0.25410117  1
  Mo  Mo175  1  0.90359204  0.70634241  0.35719397  1
  Mo  Mo176  1  0.59666731  0.59853703  0.75784914  1
  Mo  Mo177  1  0.19022282  -0.01308141  0.49088215  1
  Mo  Mo178  1  0.81793494  0.00761504  -0.00574033  1
  Mo  Mo179  1  0.31345311  0.10127530  0.62386371  1
  Mo  Mo180  1  0.00370977  0.59262888  0.75389271  1
  Mo  Mo181  1  0.21396572  0.00317531  0.24628663  1
  Mo  Mo182  1  0.49536772  0.10944375  0.85864249  1
  Mo  Mo183  1  0.89233443  0.70419754  0.13521574  1
  Mo  Mo184  1  0.50472340  0.09064611  0.38409132  1
  Mo  Mo185  1  0.69568882  0.89417619  0.60880689  1
  Mo  Mo186  1  0.10332627  0.09294901  0.36894605  1
  Mo  Mo187  1  0.30637746  0.69373096  0.12415757  1
  Mo  Mo188  1  0.00226754  0.19783499  0.51428748  1
  Mo  Mo189  1  0.61030650  0.81082319  0.50301765  1
  Mo  Mo190  1  -0.00237297  0.39216600  0.00269280  1
  Mo  Mo191  1  0.78941000  0.60047490  0.75705316  1
  Mo  Mo192  1  0.29617016  0.69451697  0.37596548  1
  Mo  Mo193  1  0.39270189  0.20017713  0.00225323  1
  Mo  Mo194  1  0.71159349  0.30206419  0.11598419  1
  Mo  Mo195  1  0.01036904  0.78840607  0.75043002  1
  Mo  Mo196  1  0.89348339  0.50111616  0.63335856  1
  Mo  Mo197  1  0.79722499  0.40158632  0.24432907  1
  Mo  Mo198  1  0.10042609  0.91425376  0.35173890  1
  Mo  Mo199  1  0.20321512  0.20151978  0.74425514  1
