# generated using pymatgen
data_HfZrTaTiMo
_symmetry_space_group_name_H-M   'P 1'
_cell_length_a   15.22210905
_cell_length_b   15.20938635
_cell_length_c   16.84890468
_cell_angle_alpha   90.00244838
_cell_angle_beta   89.99368145
_cell_angle_gamma   89.81160084
_symmetry_Int_Tables_number   1
_chemical_formula_structural   HfZrTaTiMo
_chemical_formula_sum   'Hf40 Zr40 Ta40 Ti40 Mo40'
_cell_volume   3900.81939603
_cell_formula_units_Z   40
loop_
 _symmetry_equiv_pos_site_id
 _symmetry_equiv_pos_as_xyz
  1  'x, y, z'
loop_
 _atom_site_type_symbol
 _atom_site_label
 _atom_site_symmetry_multiplicity
 _atom_site_fract_x
 _atom_site_fract_y
 _atom_site_fract_z
 _atom_site_occupancy
  Hf  Hf0  1  0.00401163  0.59590878  0.50649240  1
  Hf  Hf1  1  0.09558455  0.70036012  0.12669619  1
  Hf  Hf2  1  0.49583249  0.50136185  0.62271372  1
  Hf  Hf3  1  0.59943588  0.40094597  0.01044036  1
  Hf  Hf4  1  0.39914174  0.60542165  0.50182470  1
  Hf  Hf5  1  0.69835487  0.71908468  0.12970704  1
  Hf  Hf6  1  0.11218710  0.68712887  0.63520766  1
  Hf  Hf7  1  -0.00217007  0.37881798  0.73294370  1
  Hf  Hf8  1  0.20470063  0.39833134  0.00681258  1
  Hf  Hf9  1  0.51465392  0.07871678  0.12955395  1
  Hf  Hf10  1  0.29785443  0.30239129  0.61242370  1
  Hf  Hf11  1  0.41518602  0.60319422  0.00887553  1
  Hf  Hf12  1  0.79688201  0.00146793  0.73739732  1
  Hf  Hf13  1  0.29200378  0.70485833  0.37380469  1
  Hf  Hf14  1  -0.00398981  0.20689872  0.25282056  1
  Hf  Hf15  1  0.60965252  0.60020321  0.01495168  1
  Hf  Hf16  1  0.19203267  0.41279919  0.73739953  1
  Hf  Hf17  1  0.52283878  0.90426268  0.36273947  1
  Hf  Hf18  1  0.57909524  0.81000921  0.00766071  1
  Hf  Hf19  1  0.30249878  0.71403599  0.88567038  1
  Hf  Hf20  1  0.09177347  0.71104680  0.86972678  1
  Hf  Hf21  1  0.28937497  0.50559348  0.13296964  1
  Hf  Hf22  1  0.70746487  0.51715361  0.87003049  1
  Hf  Hf23  1  0.50542303  0.50205317  0.36584741  1
  Hf  Hf24  1  0.60670583  0.19256836  0.00310872  1
  Hf  Hf25  1  0.19159742  0.01442487  0.74534146  1
  Hf  Hf26  1  0.10240378  0.50225167  0.37359268  1
  Hf  Hf27  1  0.69751194  0.71769844  0.87298284  1
  Hf  Hf28  1  0.61338887  0.17850227  0.25963917  1
  Hf  Hf29  1  0.48888464  0.88715981  0.86411399  1
  Hf  Hf30  1  0.10658014  0.28219707  0.88346566  1
  Hf  Hf31  1  0.10324123  0.88572249  0.61742126  1
  Hf  Hf32  1  0.01350271  0.17265893  0.00514862  1
  Hf  Hf33  1  0.79054772  0.60412282  0.50372561  1
  Hf  Hf34  1  0.49821770  0.09184414  0.88480486  1
  Hf  Hf35  1  0.50265500  0.48051559  0.14594764  1
  Hf  Hf36  1  0.79741642  0.41157046  0.01296325  1
  Hf  Hf37  1  0.50309927  0.28787482  0.61417757  1
  Hf  Hf38  1  0.38801508  0.19062364  0.02125298  1
  Hf  Hf39  1  0.30366487  0.30570960  0.87516483  1
  Zr  Zr40  1  0.19805960  0.21318079  0.47940248  1
  Zr  Zr41  1  0.30251343  0.51166191  0.87704858  1
  Zr  Zr42  1  0.91455690  0.08420255  0.87675540  1
  Zr  Zr43  1  0.19766988  0.02600548  0.01411633  1
  Zr  Zr44  1  0.29264350  0.11200450  0.87636822  1
  Zr  Zr45  1  0.39820224  0.40168904  0.73897060  1
  Zr  Zr46  1  0.10775645  0.29555249  0.12381778  1
  Zr  Zr47  1  0.60128797  0.00062079  0.75135811  1
  Zr  Zr48  1  -0.00928844  0.81413912  0.25646329  1
  Zr  Zr49  1  0.29762928  0.71236419  0.11025354  1
  Zr  Zr50  1  0.50103906  0.30129168  0.36101728  1
  Zr  Zr51  1  -0.00660992  0.80030953  0.49897764  1
  Zr  Zr52  1  0.00184352  0.58098378  0.74692303  1
  Zr  Zr53  1  0.89461459  0.71118373  0.13368652  1
  Zr  Zr54  1  0.39658558  0.60846449  0.24392462  1
  Zr  Zr55  1  0.21717426  -0.00480371  0.49156401  1
  Zr  Zr56  1  0.09659801  0.49565151  0.87951028  1
  Zr  Zr57  1  0.31338407  0.30347178  0.14625517  1
  Zr  Zr58  1  0.60123182  0.18233857  0.48159227  1
  Zr  Zr59  1  0.10449146  0.10665164  0.60385636  1
  Zr  Zr60  1  0.89351501  0.87578943  0.85644353  1
  Zr  Zr61  1  0.60171540  0.79274155  0.50658324  1
  Zr  Zr62  1  0.80817269  0.20253918  0.75488384  1
  Zr  Zr63  1  0.81571131  -0.01909098  0.00636326  1
  Zr  Zr64  1  0.00988229  0.18584675  0.74408202  1
  Zr  Zr65  1  0.39964145  0.81210078  0.49339078  1
  Zr  Zr66  1  0.88530795  0.71311032  0.37206938  1
  Zr  Zr67  1  0.49681078  0.30048023  0.87544259  1
  Zr  Zr68  1  0.30595838  0.90625649  0.62681443  1
  Zr  Zr69  1  0.50664653  0.50299427  0.86480624  1
  Zr  Zr70  1  0.80504545  0.41014523  0.74465934  1
  Zr  Zr71  1  0.60916026  0.40189632  0.49694207  1
  Zr  Zr72  1  0.28888970  0.90872950  0.87855770  1
  Zr  Zr73  1  0.29800581  0.49788683  0.36965820  1
  Zr  Zr74  1  0.70592899  0.30641256  0.88006439  1
  Zr  Zr75  1  0.10341581  0.89893275  0.37870083  1
  Zr  Zr76  1  0.08093201  0.09551961  0.38021704  1
  Zr  Zr77  1  0.80425199  0.39644208  0.24289301  1
  Zr  Zr78  1  0.60351695  0.19946781  0.75487151  1
  Zr  Zr79  1  0.89895984  0.49181017  0.37910440  1
  Ta  Ta80  1  0.70923000  0.29828315  0.61776176  1
  Ta  Ta81  1  0.79979581  0.00415663  0.51987729  1
  Ta  Ta82  1  0.90010807  0.70344339  0.63915254  1
  Ta  Ta83  1  0.71232267  0.06673503  0.37390460  1
  Ta  Ta84  1  0.29665183  0.90825115  0.13041605  1
  Ta  Ta85  1  0.41005158  -0.01782264  0.01466877  1
  Ta  Ta86  1  0.79509980  0.81170927  0.51760080  1
  Ta  Ta87  1  -0.00246643  0.40160499  0.01118266  1
  Ta  Ta88  1  0.79620277  0.60241038  0.25121566  1
  Ta  Ta89  1  0.50061934  0.89905796  0.63524566  1
  Ta  Ta90  1  0.49477537  0.09242063  0.61967046  1
  Ta  Ta91  1  0.10272620  0.69604080  0.37000941  1
  Ta  Ta92  1  0.72510958  0.28889653  0.37340062  1
  Ta  Ta93  1  -0.00303625  -0.01201764  0.72923405  1
  Ta  Ta94  1  0.19982862  0.19822366  0.26547230  1
  Ta  Ta95  1  0.90969158  0.30293385  0.89185506  1
  Ta  Ta96  1  0.60936599  0.40418761  0.73457543  1
  Ta  Ta97  1  0.60755343  0.59954066  0.24179409  1
  Ta  Ta98  1  0.89108649  0.68588505  0.86261501  1
  Ta  Ta99  1  0.69424767  0.10791315  0.61884354  1
  Ta  Ta100  1  -0.00766226  0.60150395  -0.00174827  1
  Ta  Ta101  1  0.71752678  0.09036554  0.12325441  1
  Ta  Ta102  1  -0.00215119  0.59695115  0.25286101  1
  Ta  Ta103  1  0.81169581  0.18534503  0.24786377  1
  Ta  Ta104  1  0.88486787  0.92780348  0.38119323  1
  Ta  Ta105  1  0.81117681  0.38756565  0.50259197  1
  Ta  Ta106  1  0.89865659  0.28842807  0.11327922  1
  Ta  Ta107  1  0.49979329  0.69794785  0.86142563  1
  Ta  Ta108  1  0.59989790  0.60173547  0.50678937  1
  Ta  Ta109  1  0.39132032  0.61459152  0.74241016  1
  Ta  Ta110  1  0.00551452  0.39008222  0.51582584  1
  Ta  Ta111  1  -0.02237486  0.80449522  0.00173585  1
  Ta  Ta112  1  0.40632839  0.80389315  0.24458344  1
  Ta  Ta113  1  0.17705687  0.82208080  0.00451595  1
  Ta  Ta114  1  -0.00158496  0.40234388  0.23872898  1
  Ta  Ta115  1  0.61249062  0.60751558  0.73228188  1
  Ta  Ta116  1  0.70032648  0.29401245  0.13259773  1
  Ta  Ta117  1  0.20185351  0.80144533  0.24433698  1
  Ta  Ta118  1  0.39771002  0.19268123  0.74187909  1
  Ta  Ta119  1  0.31085857  0.09458891  0.36192644  1
  Ti  Ti120  1  0.29805684  0.71304397  0.62250932  1
  Ti  Ti121  1  0.10311418  0.09749661  0.14255874  1
  Ti  Ti122  1  0.30088769  0.30546581  0.36559669  1
  Ti  Ti123  1  0.78022209  0.83021862  0.25286047  1
  Ti  Ti124  1  0.49727575  0.70830433  0.63630269  1
  Ti  Ti125  1  0.08516715  0.90550705  0.13049131  1
  Ti  Ti126  1  0.30656436  0.90031140  0.36284698  1
  Ti  Ti127  1  0.77998540  0.79609126  0.73008798  1
  Ti  Ti128  1  0.19962814  -0.00044325  0.25025264  1
  Ti  Ti129  1  -0.01670236  0.00170782  0.51657077  1
  Ti  Ti130  1  0.31018704  0.10687254  0.61397128  1
  Ti  Ti131  1  0.39808126  0.39795659  0.49455151  1
  Ti  Ti132  1  0.40827810  -0.00298973  0.24667880  1
  Ti  Ti133  1  0.40089998  0.19442489  0.48271021  1
  Ti  Ti134  1  0.69878785  0.49794263  0.37017050  1
  Ti  Ti135  1  0.90011997  0.49514712  0.88119144  1
  Ti  Ti136  1  0.08494622  0.91341059  0.87347987  1
  Ti  Ti137  1  0.60814434  -0.01324294  0.50635290  1
  Ti  Ti138  1  0.19216974  0.40188677  0.25115385  1
  Ti  Ti139  1  0.89275783  0.49967077  0.61999794  1
  Ti  Ti140  1  0.09491252  0.50619724  0.12744874  1
  Ti  Ti141  1  0.28461269  0.52327207  0.62145750  1
  Ti  Ti142  1  0.80544913  0.61359143  0.00518759  1
  Ti  Ti143  1  0.20269000  0.20927374  0.73839580  1
  Ti  Ti144  1  0.69318266  0.91097834  0.88063767  1
  Ti  Ti145  1  0.19542036  0.41707565  0.50663701  1
  Ti  Ti146  1  0.40371323  0.18882332  0.25247199  1
  Ti  Ti147  1  -0.02777778  0.01237252  0.24418321  1
  Ti  Ti148  1  0.68988231  0.70308295  0.36751976  1
  Ti  Ti149  1  0.50208081  0.69879193  0.36986931  1
  Ti  Ti150  1  0.08864200  0.31144574  0.37445506  1
  Ti  Ti151  1  0.51000975  0.28973635  0.14527379  1
  Ti  Ti152  1  0.41790427  0.00808811  0.48791114  1
  Ti  Ti153  1  0.40551381  0.39801929  0.00631448  1
  Ti  Ti154  1  -0.02755376  0.20657928  0.50129929  1
  Ti  Ti155  1  0.90074026  0.50816904  0.12635516  1
  Ti  Ti156  1  0.80531686  0.19392735  -0.00143450  1
  Ti  Ti157  1  0.18905992  0.60641769  -0.00176049  1
  Ti  Ti158  1  0.20156679  0.80192928  0.75424526  1
  Ti  Ti159  1  0.39467107  0.00592387  0.74739567  1
  Mo  Mo160  1  0.90864220  0.09982575  0.12017395  1
  Mo  Mo161  1  0.01468625  -0.02325067  0.00649551  1
  Mo  Mo162  1  0.40065676  0.39253067  0.25768149  1
  Mo  Mo163  1  0.10484511  0.29875294  0.61416943  1
  Mo  Mo164  1  0.89470710  0.10103470  0.62322751  1
  Mo  Mo165  1  0.71309225  0.88648560  0.38437065  1
  Mo  Mo166  1  0.69882779  0.69726366  0.62476448  1
  Mo  Mo167  1  0.49900283  0.69651197  0.13215275  1
  Mo  Mo168  1  0.30024660  0.09558181  0.15287257  1
  Mo  Mo169  1  0.61957268  -0.01758185  0.24693526  1
  Mo  Mo170  1  0.90751752  0.30020950  0.37630728  1
  Mo  Mo171  1  0.39074879  0.80536891  0.00529985  1
  Mo  Mo172  1  0.20584576  0.20241289  0.01132407  1
  Mo  Mo173  1  0.59509477  0.79910798  0.74449347  1
  Mo  Mo174  1  0.68760539  0.91018578  0.12223549  1
  Mo  Mo175  1  -0.00093742  0.79693496  0.74721044  1
  Mo  Mo176  1  0.69140573  0.90247114  0.62544500  1
  Mo  Mo177  1  0.50114680  0.08914279  0.36703907  1
  Mo  Mo178  1  0.59809413  0.78973763  0.25166249  1
  Mo  Mo179  1  0.20109783  0.78799841  0.49556029  1
  Mo  Mo180  1  0.88951358  0.90368625  0.12963791  1
  Mo  Mo181  1  0.79561483  0.19461493  0.49767023  1
  Mo  Mo182  1  0.21146240  0.60881773  0.75337523  1
  Mo  Mo183  1  0.79988057  0.00194255  0.24318913  1
  Mo  Mo184  1  0.79265937  0.79014879  -0.00545498  1
  Mo  Mo185  1  0.61455559  0.39259088  0.25289594  1
  Mo  Mo186  1  0.39468743  0.79884971  0.74588923  1
  Mo  Mo187  1  0.10306089  0.49690589  0.61895271  1
  Mo  Mo188  1  0.88777176  0.10931797  0.38159468  1
  Mo  Mo189  1  0.20021844  0.60918332  0.50025249  1
  Mo  Mo190  1  0.70516824  0.09207882  0.89069714  1
  Mo  Mo191  1  0.18612840  0.60640346  0.24511411  1
  Mo  Mo192  1  0.60516647  -0.00020375  -0.00595201  1
  Mo  Mo193  1  0.10507147  0.08767583  0.86883042  1
  Mo  Mo194  1  0.70124251  0.49864103  0.61966943  1
  Mo  Mo195  1  0.80135481  0.60343011  0.74208904  1
  Mo  Mo196  1  0.70766928  0.50546667  0.13467609  1
  Mo  Mo197  1  0.89676546  0.29229062  0.61991847  1
  Mo  Mo198  1  0.50103872  0.88969318  0.13720336  1
  Mo  Mo199  1  0.89808918  0.89356775  0.63333189  1
