# generated using pymatgen
data_HfZrTaTiMo
_symmetry_space_group_name_H-M   'P 1'
_cell_length_a   15.21367774
_cell_length_b   15.22369468
_cell_length_c   16.83986654
_cell_angle_alpha   90.02571653
_cell_angle_beta   90.03990333
_cell_angle_gamma   89.84748294
_symmetry_Int_Tables_number   1
_chemical_formula_structural   HfZrTaTiMo
_chemical_formula_sum   'Hf40 Zr40 Ta40 Ti40 Mo40'
_cell_volume   3900.23913694
_cell_formula_units_Z   40
loop_
 _symmetry_equiv_pos_site_id
 _symmetry_equiv_pos_as_xyz
  1  'x, y, z'
loop_
 _atom_site_type_symbol
 _atom_site_label
 _atom_site_symmetry_multiplicity
 _atom_site_fract_x
 _atom_site_fract_y
 _atom_site_fract_z
 _atom_site_occupancy
  Hf  Hf0  1  0.71021306  0.10161006  0.64687369  1
  Hf  Hf1  1  0.28279324  0.51562403  0.89277556  1
  Hf  Hf2  1  0.40660159  0.60181995  0.75629630  1
  Hf  Hf3  1  0.81632883  -0.01533135  0.52039462  1
  Hf  Hf4  1  0.70897922  0.67570946  0.87561298  1
  Hf  Hf5  1  0.09788268  0.68405101  0.37847599  1
  Hf  Hf6  1  0.30235941  0.69532761  0.62289286  1
  Hf  Hf7  1  0.80906630  0.57678572  0.00919624  1
  Hf  Hf8  1  0.61214188  0.00906479  0.50575767  1
  Hf  Hf9  1  0.70174539  0.09508112  0.12425946  1
  Hf  Hf10  1  0.69728684  0.29163811  0.36681487  1
  Hf  Hf11  1  0.70039535  0.88098941  0.88276876  1
  Hf  Hf12  1  0.31348051  0.70531514  0.11414588  1
  Hf  Hf13  1  0.48985644  0.09158098  0.13490579  1
  Hf  Hf14  1  -0.00109293  0.20680307  -0.00161162  1
  Hf  Hf15  1  0.59343349  -0.02143852  0.24453922  1
  Hf  Hf16  1  0.01163409  -0.00395335  0.52160658  1
  Hf  Hf17  1  0.49175904  0.30074306  0.13951568  1
  Hf  Hf18  1  0.18872567  0.41726056  0.25131303  1
  Hf  Hf19  1  0.60671517  0.58286569  0.73916368  1
  Hf  Hf20  1  0.29711960  0.31082330  0.12742296  1
  Hf  Hf21  1  0.51183061  0.11852874  0.62462920  1
  Hf  Hf22  1  0.38327631  0.41342792  0.76154193  1
  Hf  Hf23  1  -0.00738713  0.60322172  0.50322372  1
  Hf  Hf24  1  0.08591666  0.30935762  0.12788054  1
  Hf  Hf25  1  0.39971117  0.00280766  0.76062983  1
  Hf  Hf26  1  0.28173128  0.30772292  0.88589166  1
  Hf  Hf27  1  0.91424445  0.50319049  0.36369388  1
  Hf  Hf28  1  0.68752565  0.28648806  0.87287831  1
  Hf  Hf29  1  0.39213135  0.00118412  -0.01306527  1
  Hf  Hf30  1  0.10681049  0.10897574  0.38784523  1
  Hf  Hf31  1  0.57558406  0.39462365  0.75080709  1
  Hf  Hf32  1  0.49190182  0.09881177  0.36798066  1
  Hf  Hf33  1  0.89496007  0.30391069  0.37175535  1
  Hf  Hf34  1  0.90986527  0.67833120  0.13672806  1
  Hf  Hf35  1  0.60726765  0.78888557  0.74306449  1
  Hf  Hf36  1  0.81103573  -0.01543295  0.24572451  1
  Hf  Hf37  1  0.19508485  0.01936938  0.72499015  1
  Hf  Hf38  1  0.92174472  0.89768154  0.12108451  1
  Hf  Hf39  1  0.19365927  0.59332835  0.74383937  1
  Zr  Zr40  1  0.40697329  0.21700024  0.76346367  1
  Zr  Zr41  1  0.38900937  0.81278285  0.50325062  1
  Zr  Zr42  1  0.70298109  0.68813852  0.37633835  1
  Zr  Zr43  1  0.80395742  0.19666579  -0.00358304  1
  Zr  Zr44  1  0.89284134  0.50727912  0.62934317  1
  Zr  Zr45  1  0.80963000  0.77922156  -0.00028803  1
  Zr  Zr46  1  0.29873771  0.90333051  0.12574659  1
  Zr  Zr47  1  0.20235410  0.00224846  0.25782078  1
  Zr  Zr48  1  0.21243212  0.79938115  0.26428897  1
  Zr  Zr49  1  0.28607547  0.51151424  0.10986203  1
  Zr  Zr50  1  0.69891901  0.09460074  0.36563275  1
  Zr  Zr51  1  0.49781689  0.90998592  0.61683207  1
  Zr  Zr52  1  0.49977875  0.69194690  0.39125913  1
  Zr  Zr53  1  0.78905113  0.19470718  0.50905369  1
  Zr  Zr54  1  0.00797504  -0.00192581  0.72133526  1
  Zr  Zr55  1  0.31526343  0.11881407  0.62089796  1
  Zr  Zr56  1  -0.00260048  0.20751264  0.51284135  1
  Zr  Zr57  1  0.00791195  0.80811202  -0.01950650  1
  Zr  Zr58  1  0.50685069  0.69502561  0.61143812  1
  Zr  Zr59  1  0.59569461  -0.00990078  0.75637855  1
  Zr  Zr60  1  0.08539459  0.70987924  0.62875084  1
  Zr  Zr61  1  0.30371663  0.71621326  0.87787380  1
  Zr  Zr62  1  0.78275843  0.40429033  0.74449225  1
  Zr  Zr63  1  0.29664678  0.11178563  0.13176340  1
  Zr  Zr64  1  0.58694576  0.40927248  0.26064822  1
  Zr  Zr65  1  0.69987223  0.88260946  0.10979837  1
  Zr  Zr66  1  0.81442705  -0.02743054  0.74579674  1
  Zr  Zr67  1  0.71530792  0.29775378  0.14172376  1
  Zr  Zr68  1  0.60013468  0.00675583  -0.00739291  1
  Zr  Zr69  1  0.71259011  0.09572898  0.86012103  1
  Zr  Zr70  1  0.50984030  0.89722819  0.38721532  1
  Zr  Zr71  1  0.10918516  0.71634824  0.12120462  1
  Zr  Zr72  1  0.41265342  0.20644995  -0.00726105  1
  Zr  Zr73  1  0.27428648  0.10738322  0.87020675  1
  Zr  Zr74  1  0.90035113  0.09046478  0.37732613  1
  Zr  Zr75  1  0.91986525  0.10495424  0.85339840  1
  Zr  Zr76  1  -0.00072093  0.80236803  0.26534007  1
  Zr  Zr77  1  0.71975618  0.88844130  0.37984900  1
  Zr  Zr78  1  0.69554680  0.49832970  0.13206184  1
  Zr  Zr79  1  0.58498509  0.38928905  0.48621562  1
  Ta  Ta80  1  0.00864416  0.00078744  0.25614618  1
  Ta  Ta81  1  0.09349156  0.09780183  0.13152079  1
  Ta  Ta82  1  0.49340820  0.88363569  0.88442118  1
  Ta  Ta83  1  -0.01489708  0.60903901  0.75821313  1
  Ta  Ta84  1  0.10580163  0.92392979  0.86681020  1
  Ta  Ta85  1  0.19282578  0.79917597  0.49992016  1
  Ta  Ta86  1  0.90147150  0.47168492  0.14426240  1
  Ta  Ta87  1  0.10235166  0.90490053  0.39112320  1
  Ta  Ta88  1  0.47687943  0.49562618  0.61155083  1
  Ta  Ta89  1  0.41501661  0.80113361  0.25462311  1
  Ta  Ta90  1  0.08396942  0.50002527  0.87642329  1
  Ta  Ta91  1  0.48451172  0.50446565  0.12676848  1
  Ta  Ta92  1  0.79605246  0.40347330  0.50457397  1
  Ta  Ta93  1  0.72355564  0.68064052  0.62318049  1
  Ta  Ta94  1  0.68202550  0.29764848  0.62317570  1
  Ta  Ta95  1  0.40325946  0.80605336  0.74577663  1
  Ta  Ta96  1  0.10641102  0.32632311  0.61138667  1
  Ta  Ta97  1  0.60492658  0.78755824  0.24340003  1
  Ta  Ta98  1  0.19972815  0.58355521  0.51303847  1
  Ta  Ta99  1  0.82229065  0.77186878  0.76000836  1
  Ta  Ta100  1  0.00528792  0.01106840  -0.00528433  1
  Ta  Ta101  1  0.49334543  0.88594725  0.11048499  1
  Ta  Ta102  1  0.21273074  0.21639572  0.49487317  1
  Ta  Ta103  1  0.08372415  0.51507489  0.11687793  1
  Ta  Ta104  1  0.62396423  0.79329928  0.51232496  1
  Ta  Ta105  1  0.18700550  0.00419685  0.00278474  1
  Ta  Ta106  1  0.59199153  0.38981741  0.00659343  1
  Ta  Ta107  1  0.39418662  0.60296726  0.25131943  1
  Ta  Ta108  1  0.09456181  0.32058731  0.38507505  1
  Ta  Ta109  1  -0.00229498  0.20308542  0.25334613  1
  Ta  Ta110  1  0.58765366  0.60388691  0.24765245  1
  Ta  Ta111  1  0.48535492  0.30414289  0.61710786  1
  Ta  Ta112  1  0.51240767  0.69787785  0.88002256  1
  Ta  Ta113  1  0.81978525  -0.00791218  -0.00934121  1
  Ta  Ta114  1  0.22039979  -0.00166286  0.51031357  1
  Ta  Ta115  1  0.90275046  0.10404656  0.13156865  1
  Ta  Ta116  1  -0.02047341  0.40559126  -0.00610420  1
  Ta  Ta117  1  0.02405674  0.20690339  0.72747159  1
  Ta  Ta118  1  0.68450940  0.48677792  0.88674006  1
  Ta  Ta119  1  0.40370866  0.40976680  -0.00709635  1
  Ti  Ti120  1  0.82652134  0.78081134  0.49482430  1
  Ti  Ti121  1  0.79594285  0.59515759  0.25032933  1
  Ti  Ti122  1  0.18628172  0.39841214  0.75223126  1
  Ti  Ti123  1  0.40867825  0.20916967  0.48948683  1
  Ti  Ti124  1  0.30581903  0.10685198  0.37453443  1
  Ti  Ti125  1  0.89496908  0.30346254  0.62823477  1
  Ti  Ti126  1  0.00000731  0.60181615  -0.01043781  1
  Ti  Ti127  1  0.31179944  0.91280995  0.37524772  1
  Ti  Ti128  1  0.59762146  0.19320783  0.24708204  1
  Ti  Ti129  1  0.29770634  0.31633083  0.62484725  1
  Ti  Ti130  1  0.50850546  0.70175628  0.11795516  1
  Ti  Ti131  1  0.20127860  0.81389536  -0.00567667  1
  Ti  Ti132  1  0.11043575  0.69957226  0.87185657  1
  Ti  Ti133  1  0.92058095  0.86091956  0.62380842  1
  Ti  Ti134  1  0.47946624  0.50169344  0.37800601  1
  Ti  Ti135  1  0.29030813  0.50710763  0.37514228  1
  Ti  Ti136  1  0.29849670  0.30760133  0.36389647  1
  Ti  Ti137  1  0.60135903  0.59552990  0.00941166  1
  Ti  Ti138  1  -0.00004454  0.40514466  0.74716240  1
  Ti  Ti139  1  0.79753720  0.59309675  0.49337792  1
  Ti  Ti140  1  0.51849726  0.12021753  0.87335669  1
  Ti  Ti141  1  0.18763225  0.19857450  0.00472577  1
  Ti  Ti142  1  0.19231194  0.20860391  0.25839649  1
  Ti  Ti143  1  0.37445631  0.40337777  0.49481491  1
  Ti  Ti144  1  0.60568321  0.58302792  0.50557682  1
  Ti  Ti145  1  0.08967830  0.29675778  0.86999337  1
  Ti  Ti146  1  0.79845449  0.38696438  -0.00125589  1
  Ti  Ti147  1  0.00509169  0.80385858  0.76875496  1
  Ti  Ti148  1  0.30361154  0.69418470  0.38646358  1
  Ti  Ti149  1  0.41120073  0.60761896  -0.00678087  1
  Ti  Ti150  1  0.17519470  0.40547537  -0.00013584  1
  Ti  Ti151  1  0.70437775  0.49271786  0.36963198  1
  Ti  Ti152  1  0.19744934  0.60697237  0.24917995  1
  Ti  Ti153  1  0.71667313  0.87734951  0.62797325  1
  Ti  Ti154  1  0.48224495  0.29652524  0.35661009  1
  Ti  Ti155  1  0.20117994  0.81669295  0.74173776  1
  Ti  Ti156  1  0.88655301  0.49988280  0.86737144  1
  Ti  Ti157  1  0.80133537  0.78875030  0.24624724  1
  Ti  Ti158  1  0.89850990  0.30376757  0.85862193  1
  Ti  Ti159  1  0.29330968  0.90232849  0.87087443  1
  Mo  Mo160  1  0.80609198  0.19008622  0.24931628  1
  Mo  Mo161  1  0.00616681  0.39525390  0.25145186  1
  Mo  Mo162  1  0.18262350  0.61064894  -0.00802905  1
  Mo  Mo163  1  0.09389164  0.49973018  0.63306709  1
  Mo  Mo164  1  0.39778755  0.01406042  0.49783393  1
  Mo  Mo165  1  0.10064192  0.91221652  0.12264213  1
  Mo  Mo166  1  0.79958357  0.39949315  0.26084621  1
  Mo  Mo167  1  0.89734818  0.69668902  0.62744511  1
  Mo  Mo168  1  0.90037041  0.29347740  0.13207016  1
  Mo  Mo169  1  0.89285982  0.69729997  0.36223432  1
  Mo  Mo170  1  0.11391313  0.89357302  0.61233672  1
  Mo  Mo171  1  0.28825466  0.48915228  0.62713881  1
  Mo  Mo172  1  0.81439594  0.21135404  0.73839109  1
  Mo  Mo173  1  0.59335798  0.20547494  0.49699101  1
  Mo  Mo174  1  0.91366976  0.68424102  0.87939726  1
  Mo  Mo175  1  0.79502956  0.59044873  0.75665240  1
  Mo  Mo176  1  0.39805388  -0.01019293  0.25308007  1
  Mo  Mo177  1  -0.00170646  0.79954567  0.48522640  1
  Mo  Mo178  1  0.40226959  0.80137111  -0.00411680  1
  Mo  Mo179  1  -0.00373974  0.40817424  0.50563560  1
  Mo  Mo180  1  0.90371603  0.11196448  0.63758775  1
  Mo  Mo181  1  0.90726207  0.89816934  0.87333711  1
  Mo  Mo182  1  0.10048263  0.11392602  0.86938238  1
  Mo  Mo183  1  0.68790049  0.49195387  0.61111446  1
  Mo  Mo184  1  0.30044478  0.89816489  0.63155191  1
  Mo  Mo185  1  0.20002139  0.40376767  0.49211043  1
  Mo  Mo186  1  0.91034130  0.89639249  0.38058722  1
  Mo  Mo187  1  0.39104380  0.58890875  0.49818543  1
  Mo  Mo188  1  0.59793027  0.20403646  0.00970134  1
  Mo  Mo189  1  0.38886425  0.41437725  0.25455451  1
  Mo  Mo190  1  0.19703834  0.22531793  0.74059869  1
  Mo  Mo191  1  0.69859665  0.68948324  0.13316558  1
  Mo  Mo192  1  0.10699951  0.50225133  0.37879469  1
  Mo  Mo193  1  0.49952933  0.31130622  0.88525997  1
  Mo  Mo194  1  0.59595226  0.78313378  0.00083316  1
  Mo  Mo195  1  0.01191261  0.59110952  0.24530453  1
  Mo  Mo196  1  0.11507608  0.11977886  0.60248211  1
  Mo  Mo197  1  0.50303378  0.50919108  0.88822267  1
  Mo  Mo198  1  0.38723391  0.20296525  0.25784283  1
  Mo  Mo199  1  0.60314575  0.21118276  0.74745941  1
