# generated using pymatgen
data_HfZrTaTiMo
_symmetry_space_group_name_H-M   'P 1'
_cell_length_a   15.21852726
_cell_length_b   15.21187979
_cell_length_c   16.85499415
_cell_angle_alpha   89.98464548
_cell_angle_beta   90.00016585
_cell_angle_gamma   89.93586004
_symmetry_Int_Tables_number   1
_chemical_formula_structural   HfZrTaTiMo
_chemical_formula_sum   'Hf40 Zr40 Ta40 Ti40 Mo40'
_cell_volume   3901.96913481
_cell_formula_units_Z   40
loop_
 _symmetry_equiv_pos_site_id
 _symmetry_equiv_pos_as_xyz
  1  'x, y, z'
loop_
 _atom_site_type_symbol
 _atom_site_label
 _atom_site_symmetry_multiplicity
 _atom_site_fract_x
 _atom_site_fract_y
 _atom_site_fract_z
 _atom_site_occupancy
  Hf  Hf0  1  0.79964023  0.21231170  -0.00362218  1
  Hf  Hf1  1  0.12719372  0.88660523  0.38877577  1
  Hf  Hf2  1  0.80418920  0.01555226  0.25179579  1
  Hf  Hf3  1  0.40921956  -0.01399553  0.50920710  1
  Hf  Hf4  1  0.40642051  0.79739562  0.74732843  1
  Hf  Hf5  1  0.69656322  0.70371502  0.14016559  1
  Hf  Hf6  1  0.21455852  -0.00425329  0.51673454  1
  Hf  Hf7  1  0.89130334  0.89007235  0.62716167  1
  Hf  Hf8  1  0.49366491  0.91160827  0.86907575  1
  Hf  Hf9  1  0.91311492  0.09846315  0.87149180  1
  Hf  Hf10  1  0.20285090  0.39212584  0.48773894  1
  Hf  Hf11  1  0.39261073  0.22295512  0.25481785  1
  Hf  Hf12  1  0.39952832  0.80994873  0.00166080  1
  Hf  Hf13  1  0.59083470  0.58801094  0.25109649  1
  Hf  Hf14  1  0.69495251  0.71536430  0.62138135  1
  Hf  Hf15  1  0.59708454  0.81753340  0.48623261  1
  Hf  Hf16  1  0.30743909  0.48645474  0.12628852  1
  Hf  Hf17  1  0.00046676  0.79359710  -0.00033079  1
  Hf  Hf18  1  0.30374837  0.09324676  0.37405998  1
  Hf  Hf19  1  0.20387538  0.79232325  0.73879197  1
  Hf  Hf20  1  0.79994628  0.79937414  0.48707882  1
  Hf  Hf21  1  0.79120425  0.41077056  -0.00045796  1
  Hf  Hf22  1  0.70603291  0.90473505  0.12977631  1
  Hf  Hf23  1  0.69109394  0.12134917  0.11765149  1
  Hf  Hf24  1  0.08640499  0.48340758  0.13667896  1
  Hf  Hf25  1  0.90175678  0.29632481  0.85758231  1
  Hf  Hf26  1  0.09054691  0.48056834  0.61476793  1
  Hf  Hf27  1  0.59728103  0.00974107  0.25015333  1
  Hf  Hf28  1  0.30189498  0.50748743  0.36820778  1
  Hf  Hf29  1  0.09743518  0.89050657  0.61728726  1
  Hf  Hf30  1  0.70338908  0.69169343  0.36931421  1
  Hf  Hf31  1  0.01335123  0.79680304  0.25994398  1
  Hf  Hf32  1  0.47665435  0.09833448  0.12868221  1
  Hf  Hf33  1  0.21144327  0.38202742  0.25419373  1
  Hf  Hf34  1  0.52124946  0.89706067  0.63218044  1
  Hf  Hf35  1  0.50463711  0.31357894  0.38142446  1
  Hf  Hf36  1  0.79013647  -0.00138065  0.75187166  1
  Hf  Hf37  1  0.10809238  0.67553432  0.61880728  1
  Hf  Hf38  1  0.50927770  0.70212031  0.88437071  1
  Hf  Hf39  1  0.50771136  0.10547287  0.37664118  1
  Zr  Zr40  1  0.49001666  0.70167958  0.37876730  1
  Zr  Zr41  1  0.31660908  0.91215131  0.13359310  1
  Zr  Zr42  1  0.00110061  0.18600733  0.24488915  1
  Zr  Zr43  1  0.90087089  0.09445864  0.10793239  1
  Zr  Zr44  1  -0.00188390  0.59825527  0.25921385  1
  Zr  Zr45  1  0.78888213  0.00713514  0.50826631  1
  Zr  Zr46  1  0.30030534  0.27620486  0.87581008  1
  Zr  Zr47  1  0.89312284  0.50640967  0.62587066  1
  Zr  Zr48  1  -0.00346169  0.58724860  0.00265768  1
  Zr  Zr49  1  0.90773594  0.91318349  0.38341986  1
  Zr  Zr50  1  0.79146109  0.39759924  0.50103356  1
  Zr  Zr51  1  0.00097897  -0.00873957  0.24589729  1
  Zr  Zr52  1  0.03912054  0.19652754  0.74441402  1
  Zr  Zr53  1  0.89953580  0.89868486  0.87195052  1
  Zr  Zr54  1  0.80540954  0.60284120  0.00634317  1
  Zr  Zr55  1  0.69980789  0.31503595  0.85430438  1
  Zr  Zr56  1  0.40561412  0.38863982  0.74674528  1
  Zr  Zr57  1  0.48920872  0.50928559  0.61383450  1
  Zr  Zr58  1  0.29357053  0.70154166  0.87947257  1
  Zr  Zr59  1  0.58586325  0.02116258  0.74943201  1
  Zr  Zr60  1  0.09649034  0.09194385  0.38795854  1
  Zr  Zr61  1  0.19695114  0.60816925  0.01714994  1
  Zr  Zr62  1  0.58752926  -0.00077722  0.00107101  1
  Zr  Zr63  1  0.19780477  0.01409570  0.73199406  1
  Zr  Zr64  1  0.39284586  0.59422189  0.75352905  1
  Zr  Zr65  1  0.88539642  0.49390171  0.36922598  1
  Zr  Zr66  1  0.00148550  0.78058809  0.49336257  1
  Zr  Zr67  1  0.39950689  0.20248420  0.50815620  1
  Zr  Zr68  1  0.78761787  0.80333150  0.00121288  1
  Zr  Zr69  1  0.30154092  0.49000035  0.88642557  1
  Zr  Zr70  1  0.89290789  0.69519591  0.86418648  1
  Zr  Zr71  1  0.90051212  0.10372946  0.63504621  1
  Zr  Zr72  1  0.90737361  0.30491249  0.63911674  1
  Zr  Zr73  1  0.50500332  0.29144630  0.88956731  1
  Zr  Zr74  1  0.18694334  0.39219533  0.00183612  1
  Zr  Zr75  1  0.50840049  0.49128701  0.11895730  1
  Zr  Zr76  1  0.50834735  0.29812845  0.10644029  1
  Zr  Zr77  1  0.19894607  -0.00457779  0.24592420  1
  Zr  Zr78  1  0.61297624  0.59959222  0.00600037  1
  Zr  Zr79  1  0.68476644  0.11388904  0.87654689  1
  Ta  Ta80  1  0.28057714  0.50533690  0.62515270  1
  Ta  Ta81  1  0.49308201  0.50432464  0.38548434  1
  Ta  Ta82  1  0.89148736  0.49525998  0.86066980  1
  Ta  Ta83  1  0.39090745  0.61174183  0.24005720  1
  Ta  Ta84  1  0.81118933  0.80371527  0.26042189  1
  Ta  Ta85  1  0.10126253  0.69916667  0.87088204  1
  Ta  Ta86  1  -0.01287867  0.37841978  0.25989242  1
  Ta  Ta87  1  0.29440053  0.91094113  0.87064727  1
  Ta  Ta88  1  0.23148828  0.78291475  0.51344137  1
  Ta  Ta89  1  0.10543427  0.89919874  0.87045442  1
  Ta  Ta90  1  0.89929797  0.70226559  0.13678923  1
  Ta  Ta91  1  0.19509223  0.81331895  0.00823238  1
  Ta  Ta92  1  0.01172381  0.20232552  -0.00353426  1
  Ta  Ta93  1  0.00234492  0.79516194  0.74809178  1
  Ta  Ta94  1  0.49518594  0.70944692  0.12569455  1
  Ta  Ta95  1  0.49409549  0.70459814  0.61285551  1
  Ta  Ta96  1  0.59472212  0.61407588  0.74481798  1
  Ta  Ta97  1  0.90162755  0.30486352  0.12283544  1
  Ta  Ta98  1  0.29106634  0.29956500  0.63039476  1
  Ta  Ta99  1  0.79791308  0.60325084  0.49885493  1
  Ta  Ta100  1  0.61104641  0.22071701  0.25156191  1
  Ta  Ta101  1  0.12018463  0.68367685  0.38015487  1
  Ta  Ta102  1  0.40217150  0.59931485  0.00782680  1
  Ta  Ta103  1  0.60008356  0.42139141  0.73549743  1
  Ta  Ta104  1  0.00484239  0.59885201  0.75227564  1
  Ta  Ta105  1  0.70386862  0.30612039  0.64402315  1
  Ta  Ta106  1  0.80433313  0.22010801  0.25137765  1
  Ta  Ta107  1  0.89660612  0.11825751  0.38622875  1
  Ta  Ta108  1  0.19985669  0.60151768  0.23969212  1
  Ta  Ta109  1  0.21540227  0.78864536  0.24079297  1
  Ta  Ta110  1  0.19421286  0.39266073  0.75168796  1
  Ta  Ta111  1  0.09910078  0.28786604  0.37339796  1
  Ta  Ta112  1  0.37509505  0.61184415  0.50321252  1
  Ta  Ta113  1  0.40794956  0.18408290  0.73464031  1
  Ta  Ta114  1  0.10004668  0.28725290  0.12468689  1
  Ta  Ta115  1  0.88654265  0.49037698  0.14187837  1
  Ta  Ta116  1  0.70350950  0.11816311  0.37749442  1
  Ta  Ta117  1  0.00932873  0.40686803  0.75637959  1
  Ta  Ta118  1  0.21403669  0.00305268  0.00221523  1
  Ta  Ta119  1  0.59897658  0.40014659  0.51620340  1
  Ti  Ti120  1  -0.00437189  0.38762198  0.48412440  1
  Ti  Ti121  1  0.69351428  0.11445474  0.63655773  1
  Ti  Ti122  1  0.79882892  0.00058368  -0.00915378  1
  Ti  Ti123  1  0.10045752  0.48975664  0.36810210  1
  Ti  Ti124  1  0.10668902  0.09011807  0.11612309  1
  Ti  Ti125  1  0.47965316  0.90361676  0.36219508  1
  Ti  Ti126  1  0.68733548  0.89188076  0.87694184  1
  Ti  Ti127  1  0.90856094  0.89462627  0.12228573  1
  Ti  Ti128  1  0.90150666  0.69611169  0.62911667  1
  Ti  Ti129  1  -0.00524141  0.58923525  0.48327689  1
  Ti  Ti130  1  0.12260094  0.09724866  0.87825101  1
  Ti  Ti131  1  0.30817829  0.29032580  0.10830468  1
  Ti  Ti132  1  0.38940759  0.00132256  0.72992372  1
  Ti  Ti133  1  0.19751982  0.19928662  0.50701115  1
  Ti  Ti134  1  0.50813326  0.49308505  0.88797260  1
  Ti  Ti135  1  0.79963949  0.20833678  0.50616439  1
  Ti  Ti136  1  0.69504254  0.51070877  0.86592755  1
  Ti  Ti137  1  0.60420436  0.59689247  0.49923302  1
  Ti  Ti138  1  0.60535722  0.01567105  0.50745313  1
  Ti  Ti139  1  0.78726673  0.79994938  0.74900578  1
  Ti  Ti140  1  0.00627203  -0.00772463  0.74506669  1
  Ti  Ti141  1  0.78743942  0.59738271  0.74060315  1
  Ti  Ti142  1  0.10264251  0.29726788  0.87806919  1
  Ti  Ti143  1  0.09685805  0.50125633  0.87476550  1
  Ti  Ti144  1  0.50737091  0.89523417  0.13421850  1
  Ti  Ti145  1  0.09743762  0.70709626  0.12852802  1
  Ti  Ti146  1  0.00033856  0.00739687  0.51134182  1
  Ti  Ti147  1  0.59791866  0.80272420  0.25998473  1
  Ti  Ti148  1  0.79629237  0.59591730  0.25081475  1
  Ti  Ti149  1  0.69697312  0.91469574  0.36778587  1
  Ti  Ti150  1  0.00351722  0.20605536  0.50901332  1
  Ti  Ti151  1  0.69636309  0.70408453  0.86911649  1
  Ti  Ti152  1  0.19885776  0.19253386  0.24501073  1
  Ti  Ti153  1  0.39439220  0.40002330  0.50643700  1
  Ti  Ti154  1  0.60861675  0.21034801  0.51202945  1
  Ti  Ti155  1  0.30232234  0.71466120  0.37035527  1
  Ti  Ti156  1  0.68349177  0.48167691  0.37202279  1
  Ti  Ti157  1  -0.01102788  0.39346323  -0.00543384  1
  Ti  Ti158  1  0.20497905  0.18730828  0.00454347  1
  Ti  Ti159  1  0.01816254  -0.00723155  -0.00186290  1
  Mo  Mo160  1  0.39331868  0.18119794  -0.00075557  1
  Mo  Mo161  1  0.47635182  0.10680308  0.87643299  1
  Mo  Mo162  1  0.40272587  0.80155253  0.50458756  1
  Mo  Mo163  1  0.70331849  0.90809274  0.62659917  1
  Mo  Mo164  1  0.60997639  0.40359232  -0.00762251  1
  Mo  Mo165  1  0.21612401  0.20356552  0.74355499  1
  Mo  Mo166  1  0.30781816  0.89166832  0.36878276  1
  Mo  Mo167  1  0.70423884  0.49048349  0.13860616  1
  Mo  Mo168  1  0.29103575  0.11366203  0.13032087  1
  Mo  Mo169  1  0.10026579  0.89718723  0.11636249  1
  Mo  Mo170  1  0.60240144  0.20075785  0.00169729  1
  Mo  Mo171  1  0.70377075  0.31708411  0.12600982  1
  Mo  Mo172  1  0.90087997  0.29161441  0.38239862  1
  Mo  Mo173  1  0.69991354  0.29529931  0.38426955  1
  Mo  Mo174  1  0.79826080  0.41303232  0.74826895  1
  Mo  Mo175  1  0.90075308  0.69487941  0.36988862  1
  Mo  Mo176  1  0.41419648  0.41314235  0.25646318  1
  Mo  Mo177  1  0.29439769  0.29893873  0.37791931  1
  Mo  Mo178  1  0.30106218  0.69937423  0.12114333  1
  Mo  Mo179  1  0.59707261  0.80207597  0.00693799  1
  Mo  Mo180  1  0.40260373  0.00836123  0.25975186  1
  Mo  Mo181  1  0.78417192  0.39230190  0.25371597  1
  Mo  Mo182  1  0.79513764  0.19623325  0.74890544  1
  Mo  Mo183  1  0.30339946  0.10325072  0.61842346  1
  Mo  Mo184  1  0.19409044  0.59275542  0.49182024  1
  Mo  Mo185  1  0.39160582  0.00290079  -0.00390209  1
  Mo  Mo186  1  0.30676745  0.08695324  0.86763186  1
  Mo  Mo187  1  0.18326793  0.58200676  0.75543663  1
  Mo  Mo188  1  0.10545054  0.30399027  0.61747402  1
  Mo  Mo189  1  0.30562113  0.68478101  0.63216803  1
  Mo  Mo190  1  0.50702017  0.10534644  0.61439672  1
  Mo  Mo191  1  0.50311779  0.30330751  0.62264745  1
  Mo  Mo192  1  0.60760586  0.80039180  0.75338758  1
  Mo  Mo193  1  0.69339442  0.51455892  0.62389269  1
  Mo  Mo194  1  0.59267489  0.39531887  0.25620317  1
  Mo  Mo195  1  0.40557676  0.80000623  0.24552387  1
  Mo  Mo196  1  0.39734078  0.39972862  -0.00562290  1
  Mo  Mo197  1  0.58477119  0.21854838  0.73734902  1
  Mo  Mo198  1  0.10097137  0.10627866  0.60864402  1
  Mo  Mo199  1  0.31080000  0.88955099  0.63213347  1
