# generated using pymatgen
data_HfZrTaTiMo
_symmetry_space_group_name_H-M   'P 1'
_cell_length_a   15.21290411
_cell_length_b   15.20233560
_cell_length_c   16.85062873
_cell_angle_alpha   89.97476104
_cell_angle_beta   90.04256298
_cell_angle_gamma   90.02982613
_symmetry_Int_Tables_number   1
_chemical_formula_structural   HfZrTaTiMo
_chemical_formula_sum   'Hf40 Zr40 Ta40 Ti40 Mo40'
_cell_volume   3897.07112772
_cell_formula_units_Z   40
loop_
 _symmetry_equiv_pos_site_id
 _symmetry_equiv_pos_as_xyz
  1  'x, y, z'
loop_
 _atom_site_type_symbol
 _atom_site_label
 _atom_site_symmetry_multiplicity
 _atom_site_fract_x
 _atom_site_fract_y
 _atom_site_fract_z
 _atom_site_occupancy
  Hf  Hf0  1  0.50742918  0.49873411  0.88540314  1
  Hf  Hf1  1  0.09805536  0.68508438  0.61816845  1
  Hf  Hf2  1  0.40674731  0.60973810  0.25374040  1
  Hf  Hf3  1  -0.00026031  0.57540553  0.48668580  1
  Hf  Hf4  1  0.61305594  0.20274964  0.23004404  1
  Hf  Hf5  1  0.51155195  0.30213097  0.36311655  1
  Hf  Hf6  1  0.10350656  0.09478694  0.37781907  1
  Hf  Hf7  1  0.39534084  0.00461599  0.22359737  1
  Hf  Hf8  1  0.61604712  0.19018429  0.00222945  1
  Hf  Hf9  1  0.81985901  0.21377413  0.25090035  1
  Hf  Hf10  1  0.19811484  0.58864702  0.26562596  1
  Hf  Hf11  1  0.29357289  0.90045745  0.87907737  1
  Hf  Hf12  1  0.29261144  0.51301103  0.88457616  1
  Hf  Hf13  1  0.39031714  0.39202355  0.76337890  1
  Hf  Hf14  1  0.29687442  0.90698118  0.36548759  1
  Hf  Hf15  1  0.19437731  -0.00147551  0.01802972  1
  Hf  Hf16  1  0.80985975  0.42047571  -0.00524678  1
  Hf  Hf17  1  0.20809179  0.20236574  0.50709448  1
  Hf  Hf18  1  0.09771255  0.09170895  0.86628817  1
  Hf  Hf19  1  0.61343365  0.59999205  0.00881188  1
  Hf  Hf20  1  0.49740034  0.49789987  0.12768965  1
  Hf  Hf21  1  0.80677112  0.00440436  0.51597636  1
  Hf  Hf22  1  0.70452185  0.89241227  0.38507682  1
  Hf  Hf23  1  0.60935945  0.00638932  0.75663045  1
  Hf  Hf24  1  -0.01257738  0.58868058  0.26029986  1
  Hf  Hf25  1  0.10340004  0.32818611  0.62431390  1
  Hf  Hf26  1  0.69692455  0.11206493  0.38190461  1
  Hf  Hf27  1  0.49692852  0.70033828  0.62943744  1
  Hf  Hf28  1  -0.01234147  0.20282975  0.52460887  1
  Hf  Hf29  1  0.59527157  0.20608596  0.76549699  1
  Hf  Hf30  1  0.30241153  0.10518216  0.87997931  1
  Hf  Hf31  1  0.39493004  0.41189711  0.49303792  1
  Hf  Hf32  1  0.11480970  0.10311407  0.63650585  1
  Hf  Hf33  1  0.40990997  0.20221212  0.49862833  1
  Hf  Hf34  1  0.19574010  0.80630085  0.50458037  1
  Hf  Hf35  1  0.88988383  0.29140466  0.86495616  1
  Hf  Hf36  1  0.28939827  0.50206217  0.11882884  1
  Hf  Hf37  1  0.59497342  0.01219848  0.50260606  1
  Hf  Hf38  1  0.69570430  0.31006121  0.63393891  1
  Hf  Hf39  1  0.59645825  0.79200991  -0.00438626  1
  Zr  Zr40  1  0.60274772  0.38996075  0.01226068  1
  Zr  Zr41  1  0.79143500  0.00305864  0.24940427  1
  Zr  Zr42  1  0.40737659  0.61123062  0.48633884  1
  Zr  Zr43  1  0.09125493  0.48129346  0.12658265  1
  Zr  Zr44  1  0.09624640  0.89046087  0.36875289  1
  Zr  Zr45  1  0.50170028  0.11117878  0.62914773  1
  Zr  Zr46  1  0.19078912  0.21373933  0.24334329  1
  Zr  Zr47  1  0.49235009  0.89992006  0.63323080  1
  Zr  Zr48  1  -0.01066405  -0.00108704  0.24764811  1
  Zr  Zr49  1  0.49551074  0.90177204  0.87861326  1
  Zr  Zr50  1  0.00451917  0.38041860  0.26572569  1
  Zr  Zr51  1  0.20621758  0.22402057  0.75804319  1
  Zr  Zr52  1  0.90483785  0.69029420  0.87795183  1
  Zr  Zr53  1  0.69815491  0.89106312  0.62209116  1
  Zr  Zr54  1  0.01345771  -0.01196605  0.51720490  1
  Zr  Zr55  1  0.40526545  0.20860098  0.01606804  1
  Zr  Zr56  1  0.19206186  0.39097602  -0.01653186  1
  Zr  Zr57  1  0.89696386  0.89499488  0.11295339  1
  Zr  Zr58  1  0.01385443  0.40455186  0.76541442  1
  Zr  Zr59  1  0.58784993  0.79404475  0.49463051  1
  Zr  Zr60  1  0.70747475  0.49521833  0.37204886  1
  Zr  Zr61  1  0.10070022  0.88239250  0.87770579  1
  Zr  Zr62  1  0.59846984  0.40866914  0.75122449  1
  Zr  Zr63  1  0.59837427  -0.01316055  0.24844587  1
  Zr  Zr64  1  0.88448127  0.11271093  0.11447335  1
  Zr  Zr65  1  0.08481280  0.11410434  0.12347713  1
  Zr  Zr66  1  0.39982950  0.00138906  0.01480311  1
  Zr  Zr67  1  0.49595065  0.09772296  0.36420227  1
  Zr  Zr68  1  0.20849810  0.60122588  0.48143829  1
  Zr  Zr69  1  0.79114527  0.79583997  0.24150159  1
  Zr  Zr70  1  0.38989725  0.59828233  0.74916126  1
  Zr  Zr71  1  0.00274291  0.20047953  -0.01976314  1
  Zr  Zr72  1  0.00267126  0.78654511  0.74415841  1
  Zr  Zr73  1  0.60064344  0.79534409  0.76281908  1
  Zr  Zr74  1  0.19485497  -0.01314952  0.22331391  1
  Zr  Zr75  1  -0.00182467  -0.01083989  0.73989915  1
  Zr  Zr76  1  0.61450336  0.59823051  0.74822171  1
  Zr  Zr77  1  0.30097319  0.10486412  0.36520286  1
  Zr  Zr78  1  0.60373728  0.39877434  0.50471622  1
  Zr  Zr79  1  0.90251601  0.11183245  0.38528252  1
  Ta  Ta80  1  0.49289468  0.30569348  0.62692585  1
  Ta  Ta81  1  0.81011938  0.40688250  0.24338273  1
  Ta  Ta82  1  0.39945982  0.39646952  -0.00256637  1
  Ta  Ta83  1  0.60300377  0.59508738  0.50333405  1
  Ta  Ta84  1  0.79482407  0.01401592  -0.00654425  1
  Ta  Ta85  1  0.80566469  -0.00268848  0.74453516  1
  Ta  Ta86  1  0.71482531  0.30247416  0.38025303  1
  Ta  Ta87  1  0.69966322  0.30896171  0.87506449  1
  Ta  Ta88  1  0.89683989  0.87949895  0.62044531  1
  Ta  Ta89  1  -0.00700323  0.19672615  0.74499244  1
  Ta  Ta90  1  0.89615111  0.90186177  0.88318707  1
  Ta  Ta91  1  -0.00901277  0.78550515  0.50154555  1
  Ta  Ta92  1  0.68845003  0.69310314  0.37590947  1
  Ta  Ta93  1  0.80155686  0.79626860  0.75359383  1
  Ta  Ta94  1  0.39598998  0.40146770  0.25108774  1
  Ta  Ta95  1  0.79906134  0.19245473  0.73547643  1
  Ta  Ta96  1  0.39487588  -0.00195582  0.50360099  1
  Ta  Ta97  1  0.19139835  0.41048074  0.48573215  1
  Ta  Ta98  1  0.51267359  0.50830880  0.36244412  1
  Ta  Ta99  1  0.28178664  0.70463019  0.88240731  1
  Ta  Ta100  1  0.09071725  0.29239965  0.39033851  1
  Ta  Ta101  1  0.21276747  0.00123412  0.51381542  1
  Ta  Ta102  1  0.38955472  0.80613604  0.49567845  1
  Ta  Ta103  1  0.88802127  0.68248401  0.61801853  1
  Ta  Ta104  1  0.39554355  0.00717144  0.75133431  1
  Ta  Ta105  1  0.19492156  0.79262834  0.01725182  1
  Ta  Ta106  1  0.30468274  0.30542302  0.62358132  1
  Ta  Ta107  1  0.78753680  0.20785447  0.52256411  1
  Ta  Ta108  1  0.70913146  0.90179414  0.88314225  1
  Ta  Ta109  1  0.29829907  0.30679878  0.36959474  1
  Ta  Ta110  1  0.39872975  0.60816351  0.00639931  1
  Ta  Ta111  1  0.60834360  0.60854781  0.23637406  1
  Ta  Ta112  1  0.69165423  0.90985815  0.10470785  1
  Ta  Ta113  1  0.29592581  0.69897227  0.13267465  1
  Ta  Ta114  1  0.38496258  0.80097744  0.75492034  1
  Ta  Ta115  1  0.92298626  0.31194191  0.11607472  1
  Ta  Ta116  1  0.39224850  0.79432585  0.00973251  1
  Ta  Ta117  1  -0.00964711  0.58739130  0.00717019  1
  Ta  Ta118  1  0.88875478  0.70254815  0.37824752  1
  Ta  Ta119  1  0.00383026  0.78336609  0.00667328  1
  Ti  Ti120  1  0.29903172  0.90093554  0.62948697  1
  Ti  Ti121  1  0.30007144  0.69986484  0.62441031  1
  Ti  Ti122  1  0.09391558  0.52169895  0.88187671  1
  Ti  Ti123  1  -0.00384500  -0.00791464  -0.00289644  1
  Ti  Ti124  1  0.80259142  0.59550409  0.49178325  1
  Ti  Ti125  1  0.29140572  0.30945122  0.12882138  1
  Ti  Ti126  1  0.50156263  0.88923704  0.11648101  1
  Ti  Ti127  1  0.39942082  0.80526194  0.23600115  1
  Ti  Ti128  1  0.59226888  0.79096242  0.24143454  1
  Ti  Ti129  1  0.40116812  0.20128522  0.75690972  1
  Ti  Ti130  1  0.51918633  0.09180882  0.11839800  1
  Ti  Ti131  1  0.72517140  0.29599293  0.11578055  1
  Ti  Ti132  1  0.49176884  0.89043607  0.37033929  1
  Ti  Ti133  1  0.90037348  0.89414432  0.38424270  1
  Ti  Ti134  1  0.19886987  0.79313111  0.74228033  1
  Ti  Ti135  1  0.30186006  0.71758052  0.36059223  1
  Ti  Ti136  1  0.40324451  0.20614117  0.22739808  1
  Ti  Ti137  1  0.70674471  0.69888437  0.61858021  1
  Ti  Ti138  1  0.71856627  0.50984354  0.12856201  1
  Ti  Ti139  1  0.89254367  0.68390362  0.12188218  1
  Ti  Ti140  1  0.89550736  0.31994709  0.63621258  1
  Ti  Ti141  1  0.70939283  0.68782698  0.87559346  1
  Ti  Ti142  1  0.20835299  -0.00795858  0.74130620  1
  Ti  Ti143  1  -0.01069928  0.58968969  0.74420141  1
  Ti  Ti144  1  0.27625511  0.49564359  0.62929836  1
  Ti  Ti145  1  0.20281198  0.20478575  0.00119219  1
  Ti  Ti146  1  0.80310333  0.42446437  0.76095341  1
  Ti  Ti147  1  0.79755896  0.79124494  0.00154368  1
  Ti  Ti148  1  0.79787779  0.60179247  0.25191724  1
  Ti  Ti149  1  0.09384271  0.70348848  0.36893230  1
  Ti  Ti150  1  0.09752151  0.69007306  0.13363107  1
  Ti  Ti151  1  0.18566644  0.59693125  0.74977428  1
  Ti  Ti152  1  0.72723135  0.50750279  0.62026742  1
  Ti  Ti153  1  0.00149516  0.39685445  -0.02038063  1
  Ti  Ti154  1  0.61120607  0.39972417  0.23717715  1
  Ti  Ti155  1  0.50307900  0.10070502  0.88300869  1
  Ti  Ti156  1  0.49452036  0.49892045  0.62493068  1
  Ti  Ti157  1  0.72091939  0.10707255  0.87330593  1
  Ti  Ti158  1  -0.00082281  0.79396261  0.24216594  1
  Ti  Ti159  1  0.48396098  0.69675336  0.87560517  1
  Mo  Mo160  1  0.50307518  0.30466154  0.13784682  1
  Mo  Mo161  1  0.89895915  0.50453199  0.87435203  1
  Mo  Mo162  1  0.81598385  0.40259404  0.50579903  1
  Mo  Mo163  1  0.08859383  0.88371141  0.12094005  1
  Mo  Mo164  1  0.71115840  0.50447596  0.87740152  1
  Mo  Mo165  1  0.10597975  0.69044978  0.87994708  1
  Mo  Mo166  1  0.89385668  0.08901354  0.86830840  1
  Mo  Mo167  1  0.60308215  0.20884191  0.50185938  1
  Mo  Mo168  1  0.29861234  0.88964098  0.12310013  1
  Mo  Mo169  1  0.89155227  0.49658970  0.37211166  1
  Mo  Mo170  1  0.20612138  0.41989259  0.75884169  1
  Mo  Mo171  1  0.50568558  0.70615240  0.36626171  1
  Mo  Mo172  1  0.88984422  0.30499403  0.39120744  1
  Mo  Mo173  1  0.31118036  0.49562641  0.36888241  1
  Mo  Mo174  1  0.70260105  0.70803090  0.12668825  1
  Mo  Mo175  1  0.10153805  0.29618935  0.86711838  1
  Mo  Mo176  1  0.10082649  0.50351866  0.62450546  1
  Mo  Mo177  1  -0.00142528  0.20118051  0.25654925  1
  Mo  Mo178  1  0.80124297  0.21513775  -0.00632101  1
  Mo  Mo179  1  0.90539215  0.49459133  0.62587417  1
  Mo  Mo180  1  0.20552410  0.39765320  0.26330875  1
  Mo  Mo181  1  0.80231825  0.61067157  0.00734398  1
  Mo  Mo182  1  0.49847649  0.29374861  0.88060302  1
  Mo  Mo183  1  0.80165700  0.78882586  0.49589743  1
  Mo  Mo184  1  0.10289506  0.48985568  0.36985285  1
  Mo  Mo185  1  0.30843159  0.10117559  0.63334598  1
  Mo  Mo186  1  0.10721282  0.89040239  0.62311287  1
  Mo  Mo187  1  0.18751303  0.61063497  0.00682293  1
  Mo  Mo188  1  0.29862380  0.11067396  0.12356304  1
  Mo  Mo189  1  0.70570693  0.09830319  0.12023533  1
  Mo  Mo190  1  0.80450981  0.60571175  0.74529730  1
  Mo  Mo191  1  0.69964181  0.10391363  0.62982869  1
  Mo  Mo192  1  0.10184155  0.30385227  0.11861009  1
  Mo  Mo193  1  0.19253741  0.78755203  0.23776071  1
  Mo  Mo194  1  0.89885244  0.49744988  0.12988507  1
  Mo  Mo195  1  0.30843689  0.29985817  0.88327472  1
  Mo  Mo196  1  -0.00544455  0.39513177  0.49477680  1
  Mo  Mo197  1  0.49771817  0.70186227  0.12273890  1
  Mo  Mo198  1  0.60470304  -0.00153452  -0.00838653  1
  Mo  Mo199  1  0.89953694  0.09946505  0.62860754  1
