# generated using pymatgen
data_HfZrTaTiMo
_symmetry_space_group_name_H-M   'P 1'
_cell_length_a   15.22802536
_cell_length_b   15.20377339
_cell_length_c   16.86575575
_cell_angle_alpha   89.97996758
_cell_angle_beta   89.96488150
_cell_angle_gamma   89.97856433
_symmetry_Int_Tables_number   1
_chemical_formula_structural   HfZrTaTiMo
_chemical_formula_sum   'Hf40 Zr40 Ta40 Ti40 Mo40'
_cell_volume   3904.81665762
_cell_formula_units_Z   40
loop_
 _symmetry_equiv_pos_site_id
 _symmetry_equiv_pos_as_xyz
  1  'x, y, z'
loop_
 _atom_site_type_symbol
 _atom_site_label
 _atom_site_symmetry_multiplicity
 _atom_site_fract_x
 _atom_site_fract_y
 _atom_site_fract_z
 _atom_site_occupancy
  Hf  Hf0  1  0.60610833  0.62109235  0.01448710  1
  Hf  Hf1  1  0.79839631  0.79068630  0.00374584  1
  Hf  Hf2  1  0.49109202  0.90397538  0.39677713  1
  Hf  Hf3  1  -0.00055309  0.80807700  0.75606354  1
  Hf  Hf4  1  0.71218816  0.91764106  0.61010565  1
  Hf  Hf5  1  0.81175121  0.39400277  0.00149779  1
  Hf  Hf6  1  0.58808575  0.61346310  0.73516255  1
  Hf  Hf7  1  0.40883728  0.60335431  0.01052874  1
  Hf  Hf8  1  0.29839920  0.29203908  0.85697815  1
  Hf  Hf9  1  0.00726972  0.20117718  0.48611376  1
  Hf  Hf10  1  0.00353152  0.01310512  0.24433380  1
  Hf  Hf11  1  0.70095227  0.71824799  0.61853048  1
  Hf  Hf12  1  0.19785556  0.39208258  0.26623791  1
  Hf  Hf13  1  0.78362375  0.80260997  0.24301199  1
  Hf  Hf14  1  0.69577403  0.10139072  0.36758655  1
  Hf  Hf15  1  0.89757932  0.49031969  0.86598114  1
  Hf  Hf16  1  0.19760115  0.78879054  0.49550740  1
  Hf  Hf17  1  0.09065450  0.28787205  0.13534295  1
  Hf  Hf18  1  0.81644477  0.60628947  0.49907588  1
  Hf  Hf19  1  0.50459911  0.88757622  0.87092258  1
  Hf  Hf20  1  0.60948696  0.62278140  0.24004293  1
  Hf  Hf21  1  0.70370779  0.29627079  0.14123785  1
  Hf  Hf22  1  0.30556861  0.69256200  0.37089348  1
  Hf  Hf23  1  0.50060977  0.10029305  0.12553622  1
  Hf  Hf24  1  0.19735350  0.59542296  -0.00077381  1
  Hf  Hf25  1  0.39241031  0.39255317  0.00137693  1
  Hf  Hf26  1  0.90006957  0.89853294  0.37019383  1
  Hf  Hf27  1  0.30225661  0.28559402  0.37517733  1
  Hf  Hf28  1  0.07843170  0.11187846  0.87073704  1
  Hf  Hf29  1  0.29102447  0.87804861  0.63601088  1
  Hf  Hf30  1  0.29996854  0.29017416  0.13983791  1
  Hf  Hf31  1  0.40436407  0.59573846  0.24014580  1
  Hf  Hf32  1  0.38418956  0.00238759  0.51739453  1
  Hf  Hf33  1  0.91188654  0.49416945  0.13351057  1
  Hf  Hf34  1  0.10238012  0.48908874  0.12871796  1
  Hf  Hf35  1  0.30734167  0.70021310  0.87241638  1
  Hf  Hf36  1  0.50175192  0.09862032  0.85912036  1
  Hf  Hf37  1  0.10187499  0.90741874  0.12170092  1
  Hf  Hf38  1  0.61084994  0.22253712  0.74747497  1
  Hf  Hf39  1  0.41795449  0.78575479  0.74036933  1
  Zr  Zr40  1  0.39110102  0.59019330  0.73817514  1
  Zr  Zr41  1  0.70819580  0.11511582  0.62516286  1
  Zr  Zr42  1  0.90738614  0.27604453  0.86108855  1
  Zr  Zr43  1  0.39245647  0.00309191  0.25366897  1
  Zr  Zr44  1  0.09570174  0.69464387  0.13457552  1
  Zr  Zr45  1  0.18398153  0.19553331  0.73053730  1
  Zr  Zr46  1  0.28491124  0.09688817  0.13335760  1
  Zr  Zr47  1  0.70403753  0.70480592  0.38916073  1
  Zr  Zr48  1  0.89117845  0.29802641  0.61913955  1
  Zr  Zr49  1  0.91094040  0.49766196  0.62278755  1
  Zr  Zr50  1  0.50520707  0.30503520  0.87780997  1
  Zr  Zr51  1  0.67168640  0.88618087  0.11246094  1
  Zr  Zr52  1  0.60379877  0.40740367  0.00434242  1
  Zr  Zr53  1  0.82530503  0.60744584  0.26187354  1
  Zr  Zr54  1  0.29568148  0.48982397  0.87409527  1
  Zr  Zr55  1  0.81504023  0.19006628  0.00641725  1
  Zr  Zr56  1  0.11833075  0.69390960  0.63792310  1
  Zr  Zr57  1  0.50479805  0.50514454  0.37925507  1
  Zr  Zr58  1  0.29949889  0.49036635  0.12769929  1
  Zr  Zr59  1  0.50321171  0.70905086  0.38568677  1
  Zr  Zr60  1  0.19277012  0.20991614  -0.00535361  1
  Zr  Zr61  1  0.68762052  0.70755175  0.86666114  1
  Zr  Zr62  1  0.69772451  0.30882424  0.38130105  1
  Zr  Zr63  1  -0.00354323  0.80375305  0.00351539  1
  Zr  Zr64  1  0.49453428  0.11216732  0.64113249  1
  Zr  Zr65  1  0.20163029  0.00574721  -0.00753029  1
  Zr  Zr66  1  0.71283872  0.49815809  0.13454514  1
  Zr  Zr67  1  0.20235121  0.18788522  0.51228029  1
  Zr  Zr68  1  0.79901458  0.60033182  0.74523050  1
  Zr  Zr69  1  0.18322978  -0.00626890  0.51086288  1
  Zr  Zr70  1  0.09860060  0.90579115  0.87934280  1
  Zr  Zr71  1  0.40122072  0.18540872  -0.00546728  1
  Zr  Zr72  1  0.69788873  0.90365971  0.39414199  1
  Zr  Zr73  1  0.08726048  0.69571295  0.36382454  1
  Zr  Zr74  1  0.70180565  0.49160007  0.60988393  1
  Zr  Zr75  1  0.71292925  0.09287799  0.14328253  1
  Zr  Zr76  1  0.59211817  -0.01729605  0.25477414  1
  Zr  Zr77  1  0.31135803  0.29723273  0.62714535  1
  Zr  Zr78  1  -0.01108038  0.60175719  -0.00663064  1
  Zr  Zr79  1  0.41556200  0.80514496  0.23939162  1
  Ta  Ta80  1  0.70365003  0.90934029  0.87938662  1
  Ta  Ta81  1  0.90475794  0.90978738  0.62041452  1
  Ta  Ta82  1  0.91342222  0.49722749  0.38453387  1
  Ta  Ta83  1  0.29862985  0.09141948  0.84940855  1
  Ta  Ta84  1  -0.01595197  0.79422515  0.23931660  1
  Ta  Ta85  1  0.51326211  0.89512500  0.62018032  1
  Ta  Ta86  1  0.30046182  0.89580559  0.11916708  1
  Ta  Ta87  1  0.79769699  0.81903046  0.74894641  1
  Ta  Ta88  1  0.09981857  0.49249893  0.37738452  1
  Ta  Ta89  1  0.80294073  0.19451254  0.48710705  1
  Ta  Ta90  1  0.70647525  0.30424946  0.87735302  1
  Ta  Ta91  1  0.61191979  -0.00974149  0.74919541  1
  Ta  Ta92  1  0.18883583  -0.00754679  0.74036627  1
  Ta  Ta93  1  0.20880151  0.79726136  -0.00218466  1
  Ta  Ta94  1  0.38755169  0.40828055  0.49062814  1
  Ta  Ta95  1  0.29745317  0.70350322  0.12636868  1
  Ta  Ta96  1  0.50511837  0.51457560  0.87475846  1
  Ta  Ta97  1  0.09792666  0.49603669  0.87103404  1
  Ta  Ta98  1  0.50260510  0.29900775  0.38933131  1
  Ta  Ta99  1  0.89508179  0.10296276  0.36256069  1
  Ta  Ta100  1  0.10047248  0.31053165  0.86636738  1
  Ta  Ta101  1  0.10698155  0.69682432  0.86422072  1
  Ta  Ta102  1  0.78682899  0.38682797  0.74857539  1
  Ta  Ta103  1  0.91016325  0.71272298  0.62994528  1
  Ta  Ta104  1  0.29054043  0.49776379  0.62091288  1
  Ta  Ta105  1  0.29400884  0.08982116  0.37557955  1
  Ta  Ta106  1  0.21095928  0.58515158  0.49090885  1
  Ta  Ta107  1  0.50108779  0.29967139  0.12947672  1
  Ta  Ta108  1  0.59243822  0.60644412  0.51085220  1
  Ta  Ta109  1  0.40592649  0.19394538  0.50241775  1
  Ta  Ta110  1  0.58323176  0.20890551  0.25631655  1
  Ta  Ta111  1  0.59141985  0.02264609  0.50416764  1
  Ta  Ta112  1  0.40927302  0.79865374  0.00527900  1
  Ta  Ta113  1  0.60053187  0.41556325  0.74747515  1
  Ta  Ta114  1  0.41410502  0.39503277  0.74344026  1
  Ta  Ta115  1  0.71009280  0.10598662  0.86912124  1
  Ta  Ta116  1  0.59681428  0.00869483  -0.00912541  1
  Ta  Ta117  1  0.41268063  0.38748499  0.25993326  1
  Ta  Ta118  1  0.09811654  0.89982469  0.36699817  1
  Ta  Ta119  1  0.89432779  0.91256767  0.87917423  1
  Ti  Ti120  1  0.90284670  0.28667959  0.14448773  1
  Ti  Ti121  1  0.69794427  0.50094351  0.87520549  1
  Ti  Ti122  1  0.01207591  0.60544027  0.50330810  1
  Ti  Ti123  1  0.51029939  0.31064924  0.60776467  1
  Ti  Ti124  1  0.08723306  0.89505558  0.62843497  1
  Ti  Ti125  1  0.19032867  0.39150231  0.49242558  1
  Ti  Ti126  1  0.90152482  0.10145947  0.61965842  1
  Ti  Ti127  1  0.50572897  0.49357826  0.13084635  1
  Ti  Ti128  1  0.81564507  0.39241156  0.26767437  1
  Ti  Ti129  1  0.29446790  0.89464088  0.37885416  1
  Ti  Ti130  1  0.00286287  0.80012816  0.50047623  1
  Ti  Ti131  1  0.39650145  -0.00715206  -0.00977264  1
  Ti  Ti132  1  0.40004911  0.78410147  0.51644085  1
  Ti  Ti133  1  0.19622026  -0.00726380  0.25465392  1
  Ti  Ti134  1  -0.01400429  0.02683453  0.01453392  1
  Ti  Ti135  1  0.20183381  0.80302236  0.24853673  1
  Ti  Ti136  1  0.39751053  -0.00630737  0.74024934  1
  Ti  Ti137  1  0.81818352  0.80640755  0.50247581  1
  Ti  Ti138  1  0.69721970  0.30643354  0.60109967  1
  Ti  Ti139  1  0.60231971  0.40800693  0.25512193  1
  Ti  Ti140  1  0.17866589  0.18218069  0.26515064  1
  Ti  Ti141  1  0.49218021  0.49719864  0.61030792  1
  Ti  Ti142  1  0.88650050  0.91431669  0.13011496  1
  Ti  Ti143  1  0.80164680  0.59766319  0.00004340  1
  Ti  Ti144  1  0.08844438  0.30518195  0.62055240  1
  Ti  Ti145  1  -0.00746865  0.00213648  0.49314411  1
  Ti  Ti146  1  0.19768015  0.40883110  0.74082840  1
  Ti  Ti147  1  0.79795483  0.00025008  0.00111140  1
  Ti  Ti148  1  0.10320079  0.49658920  0.62029874  1
  Ti  Ti149  1  0.80731286  0.01032890  0.75253604  1
  Ti  Ti150  1  0.00497946  0.59622528  0.75086994  1
  Ti  Ti151  1  0.89754880  0.70414137  0.86514652  1
  Ti  Ti152  1  0.00906133  0.38516384  -0.00373187  1
  Ti  Ti153  1  0.20245035  0.59486152  0.25528295  1
  Ti  Ti154  1  0.49023671  0.10842508  0.37742549  1
  Ti  Ti155  1  0.70515289  0.50122993  0.38620856  1
  Ti  Ti156  1  0.29872527  0.89518739  0.86271495  1
  Ti  Ti157  1  0.60901052  0.20094815  0.00046203  1
  Ti  Ti158  1  0.00279474  0.39383369  0.74601671  1
  Ti  Ti159  1  -0.00629616  0.01138321  0.74540148  1
  Mo  Mo160  1  0.59494629  0.80697171  -0.00958274  1
  Mo  Mo161  1  0.00715775  0.59170772  0.25471473  1
  Mo  Mo162  1  0.71111259  0.69739064  0.12178378  1
  Mo  Mo163  1  0.07737232  0.08730665  0.62631375  1
  Mo  Mo164  1  0.90083639  0.30637967  0.38208575  1
  Mo  Mo165  1  0.90972701  0.70772208  0.38268208  1
  Mo  Mo166  1  0.20524082  0.79979868  0.75968451  1
  Mo  Mo167  1  0.59952665  0.81057025  0.50841846  1
  Mo  Mo168  1  0.49912970  0.69414241  0.87496782  1
  Mo  Mo169  1  -0.00326982  0.40041104  0.25873173  1
  Mo  Mo170  1  0.60917065  0.81148488  0.74119846  1
  Mo  Mo171  1  0.81214311  0.01193676  0.49705533  1
  Mo  Mo172  1  0.30033231  0.49580137  0.37240753  1
  Mo  Mo173  1  0.39281212  0.59637454  0.50705894  1
  Mo  Mo174  1  0.01037403  0.40764041  0.50191066  1
  Mo  Mo175  1  0.59418480  0.80056687  0.25175569  1
  Mo  Mo176  1  0.80300002  -0.00447195  0.24630303  1
  Mo  Mo177  1  0.29728730  0.09056737  0.64481715  1
  Mo  Mo178  1  0.18948027  0.39418644  -0.00408574  1
  Mo  Mo179  1  0.80090532  0.20269390  0.26264253  1
  Mo  Mo180  1  -0.00663846  0.19787049  0.73634858  1
  Mo  Mo181  1  0.49952108  0.69963052  0.61258226  1
  Mo  Mo182  1  0.89481775  0.08532479  0.87413606  1
  Mo  Mo183  1  0.19273160  0.59006730  0.75296644  1
  Mo  Mo184  1  -0.00395349  0.20451992  0.00479106  1
  Mo  Mo185  1  0.59413101  0.40687292  0.49878879  1
  Mo  Mo186  1  0.80731931  0.39936438  0.48620844  1
  Mo  Mo187  1  0.10110452  0.08879220  0.37587751  1
  Mo  Mo188  1  -0.00215223  0.21406939  0.27368552  1
  Mo  Mo189  1  0.09757768  0.29739568  0.37779745  1
  Mo  Mo190  1  0.40215904  0.20287805  0.74907460  1
  Mo  Mo191  1  0.90663459  0.10802337  0.14215851  1
  Mo  Mo192  1  0.59511867  0.20067132  0.49762550  1
  Mo  Mo193  1  0.29912580  0.68571534  0.62016546  1
  Mo  Mo194  1  0.80000188  0.19812044  0.74727110  1
  Mo  Mo195  1  0.09042382  0.10625783  0.12678462  1
  Mo  Mo196  1  0.50797643  0.71877057  0.12520884  1
  Mo  Mo197  1  0.89579511  0.69951376  0.12477445  1
  Mo  Mo198  1  0.39956440  0.19939153  0.25985444  1
  Mo  Mo199  1  0.48828569  0.91207396  0.10671908  1
