# generated using pymatgen
data_HfZrTaTiMo
_symmetry_space_group_name_H-M   'P 1'
_cell_length_a   15.20836811
_cell_length_b   15.19825120
_cell_length_c   16.78440066
_cell_angle_alpha   90.04235577
_cell_angle_beta   90.00019026
_cell_angle_gamma   89.97967050
_symmetry_Int_Tables_number   1
_chemical_formula_structural   HfZrTaTiMo
_chemical_formula_sum   'Hf40 Zr40 Ta40 Ti40 Mo40'
_cell_volume   3879.55511724
_cell_formula_units_Z   40
loop_
 _symmetry_equiv_pos_site_id
 _symmetry_equiv_pos_as_xyz
  1  'x, y, z'
loop_
 _atom_site_type_symbol
 _atom_site_label
 _atom_site_symmetry_multiplicity
 _atom_site_fract_x
 _atom_site_fract_y
 _atom_site_fract_z
 _atom_site_occupancy
  Hf  Hf0  1  0.71179699  0.69051706  0.62592051  1
  Hf  Hf1  1  -0.00569593  0.40007028  0.74554125  1
  Hf  Hf2  1  0.69678702  0.29803160  0.10906267  1
  Hf  Hf3  1  0.79796294  0.20836461  0.24697322  1
  Hf  Hf4  1  0.38274374  0.00522858  0.74342410  1
  Hf  Hf5  1  0.69856105  0.49336253  0.87714500  1
  Hf  Hf6  1  0.80454624  0.39890749  0.51062432  1
  Hf  Hf7  1  0.18543627  0.00211339  0.00492781  1
  Hf  Hf8  1  0.59502447  0.78060041  0.74275075  1
  Hf  Hf9  1  0.79311299  0.39593744  0.74475676  1
  Hf  Hf10  1  0.30490209  0.50469049  0.61897094  1
  Hf  Hf11  1  0.10857624  0.10380054  0.86470920  1
  Hf  Hf12  1  0.38942876  0.18427203  0.24623368  1
  Hf  Hf13  1  0.00178122  0.38614407  0.23860398  1
  Hf  Hf14  1  -0.01010812  -0.01403274  0.24542105  1
  Hf  Hf15  1  0.49333153  0.09822334  0.87057643  1
  Hf  Hf16  1  0.20271205  0.40086984  0.24329515  1
  Hf  Hf17  1  0.50863009  0.49370094  0.36784224  1
  Hf  Hf18  1  0.71344216  0.70498255  0.35909676  1
  Hf  Hf19  1  0.00831747  0.79062533  0.75222786  1
  Hf  Hf20  1  0.58785623  0.21847122  0.24225110  1
  Hf  Hf21  1  0.89793687  0.30424803  0.10450494  1
  Hf  Hf22  1  0.18249024  0.79362229  0.24321141  1
  Hf  Hf23  1  0.00126488  0.81639557  0.02257246  1
  Hf  Hf24  1  0.88976113  0.10077854  0.37440107  1
  Hf  Hf25  1  0.40207736  0.38227386  0.25683486  1
  Hf  Hf26  1  0.20996893  0.79070586  0.49278415  1
  Hf  Hf27  1  0.90982612  0.70257702  0.88785621  1
  Hf  Hf28  1  0.80656590  0.00963218  -0.01111947  1
  Hf  Hf29  1  0.10710129  0.89135940  0.62002367  1
  Hf  Hf30  1  0.08752556  0.88803540  0.38278269  1
  Hf  Hf31  1  0.81054759  0.59832366  0.75626856  1
  Hf  Hf32  1  0.01018490  0.20688623  0.52594120  1
  Hf  Hf33  1  0.59553726  -0.00858238  0.00110899  1
  Hf  Hf34  1  0.49459248  0.89745932  0.63699251  1
  Hf  Hf35  1  0.50370909  0.29234299  0.39759384  1
  Hf  Hf36  1  0.70451828  0.49937204  0.35454710  1
  Hf  Hf37  1  0.20566391  0.58824210  0.00390667  1
  Hf  Hf38  1  0.18199218  0.21214546  0.23001603  1
  Hf  Hf39  1  0.40073473  0.59928410  0.25620699  1
  Zr  Zr40  1  0.09374117  0.12045954  0.37308096  1
  Zr  Zr41  1  0.49949457  0.69377336  0.87956050  1
  Zr  Zr42  1  0.37704621  -0.00976248  0.51502930  1
  Zr  Zr43  1  0.60356074  0.79651307  0.49983026  1
  Zr  Zr44  1  0.09548389  0.30530621  0.87778548  1
  Zr  Zr45  1  0.88098608  0.09771081  0.12500634  1
  Zr  Zr46  1  -0.00764792  0.00263608  0.50605666  1
  Zr  Zr47  1  0.69891495  0.70210285  0.88030266  1
  Zr  Zr48  1  0.70099313  0.90365681  0.64560742  1
  Zr  Zr49  1  0.20224532  0.00369177  0.24752445  1
  Zr  Zr50  1  0.81073565  0.59129861  0.01706057  1
  Zr  Zr51  1  0.70306350  0.92360227  0.13893276  1
  Zr  Zr52  1  0.48131913  0.10248428  0.39403009  1
  Zr  Zr53  1  0.49818647  0.89400014  0.86804933  1
  Zr  Zr54  1  0.20191478  0.79772995  0.00805632  1
  Zr  Zr55  1  0.39073872  0.21469469  0.75137223  1
  Zr  Zr56  1  0.28517103  0.28941352  0.38816535  1
  Zr  Zr57  1  0.39060955  0.80383133  0.25923375  1
  Zr  Zr58  1  0.68921914  0.11206912  0.39052644  1
  Zr  Zr59  1  0.70759287  0.30536354  0.38231657  1
  Zr  Zr60  1  0.90769209  0.49626860  0.37105750  1
  Zr  Zr61  1  0.09539290  0.90043348  0.86992470  1
  Zr  Zr62  1  0.58469558  0.01866478  0.24941247  1
  Zr  Zr63  1  0.82697526  0.60164792  0.23538261  1
  Zr  Zr64  1  0.31424527  0.69771678  0.12066028  1
  Zr  Zr65  1  0.80694169  0.80231923  0.49760038  1
  Zr  Zr66  1  0.70007249  0.09786757  0.63608669  1
  Zr  Zr67  1  0.69908529  0.90618537  0.85589718  1
  Zr  Zr68  1  0.40480027  0.79146902  0.49372759  1
  Zr  Zr69  1  0.79098269  0.80573038  0.01351240  1
  Zr  Zr70  1  0.21477116  0.39839928  0.75089466  1
  Zr  Zr71  1  0.51282886  0.49607058  0.13975876  1
  Zr  Zr72  1  0.59869327  0.59705319  0.49779384  1
  Zr  Zr73  1  0.60294956  0.60026451  0.01172084  1
  Zr  Zr74  1  0.30716524  0.09370196  0.11430963  1
  Zr  Zr75  1  0.39560901  0.20671430  -0.00908884  1
  Zr  Zr76  1  0.10515494  0.50605207  0.62740422  1
  Zr  Zr77  1  0.70061494  0.10869411  0.85631470  1
  Zr  Zr78  1  0.59648721  -0.00537629  0.50340808  1
  Zr  Zr79  1  0.89935899  0.90038606  0.63004594  1
  Ta  Ta80  1  0.91008849  0.49494356  0.88596207  1
  Ta  Ta81  1  0.89054526  0.29763673  0.88439351  1
  Ta  Ta82  1  0.91652152  0.69655817  0.62016660  1
  Ta  Ta83  1  0.69698465  0.49947732  0.62757753  1
  Ta  Ta84  1  0.40475881  0.58940123  0.00030266  1
  Ta  Ta85  1  0.29250304  0.50260922  0.38283980  1
  Ta  Ta86  1  0.19177994  0.20512616  0.00808299  1
  Ta  Ta87  1  0.20582190  0.59339687  0.24366063  1
  Ta  Ta88  1  0.49478254  0.49109388  0.87203385  1
  Ta  Ta89  1  0.10251356  0.48991576  0.37631116  1
  Ta  Ta90  1  0.39663115  0.59425073  0.75370522  1
  Ta  Ta91  1  0.81713758  0.81259643  0.23830850  1
  Ta  Ta92  1  0.59740364  0.21563855  0.74028357  1
  Ta  Ta93  1  0.49401366  0.30916263  0.61605129  1
  Ta  Ta94  1  0.10541083  0.69325853  0.88162119  1
  Ta  Ta95  1  0.30263919  0.70060134  0.88025337  1
  Ta  Ta96  1  0.00170203  0.40010211  0.51008592  1
  Ta  Ta97  1  0.10943007  0.69522923  0.62017990  1
  Ta  Ta98  1  0.69549190  0.69778825  0.14017353  1
  Ta  Ta99  1  0.00992053  0.60393503  0.01795044  1
  Ta  Ta100  1  0.70129197  0.90738839  0.36048947  1
  Ta  Ta101  1  0.00241945  0.20502217  0.73361631  1
  Ta  Ta102  1  0.30043401  0.90944980  0.88008263  1
  Ta  Ta103  1  0.90865374  0.10440353  0.86348375  1
  Ta  Ta104  1  0.91761599  0.29326071  0.37845385  1
  Ta  Ta105  1  0.89170925  0.89691833  0.37437013  1
  Ta  Ta106  1  0.02009157  0.60140657  0.23288684  1
  Ta  Ta107  1  0.38505653  0.79175540  0.74877150  1
  Ta  Ta108  1  0.49858011  0.90288584  0.36879959  1
  Ta  Ta109  1  0.39826185  0.40764385  0.49740228  1
  Ta  Ta110  1  0.71402209  0.48382550  0.14118994  1
  Ta  Ta111  1  0.81216828  0.79330570  0.75246998  1
  Ta  Ta112  1  0.00860548  0.60241987  0.49601438  1
  Ta  Ta113  1  0.59520831  0.80164055  0.24301381  1
  Ta  Ta114  1  0.80879454  0.59983821  0.49407152  1
  Ta  Ta115  1  0.92447288  0.70859246  0.36933198  1
  Ta  Ta116  1  0.81146959  0.20808940  0.73819199  1
  Ta  Ta117  1  0.48466307  0.90420855  0.12730606  1
  Ta  Ta118  1  0.49119490  0.11232202  0.62180262  1
  Ta  Ta119  1  0.89901220  0.51079778  0.62171561  1
  Ti  Ti120  1  0.60465616  0.40052879  0.51105354  1
  Ti  Ti121  1  0.19008278  0.39161382  0.50367159  1
  Ti  Ti122  1  -0.00481151  0.18635424  -0.00545544  1
  Ti  Ti123  1  0.20574336  0.79883173  0.75344368  1
  Ti  Ti124  1  0.60398428  0.19434844  -0.00325328  1
  Ti  Ti125  1  0.10499052  0.48839778  0.11940747  1
  Ti  Ti126  1  0.50119483  0.30834173  0.87478536  1
  Ti  Ti127  1  0.00680451  0.59927163  0.75567555  1
  Ti  Ti128  1  0.19017492  0.01254530  0.50926117  1
  Ti  Ti129  1  0.50863366  0.69902936  0.36768903  1
  Ti  Ti130  1  0.00562946  0.40568329  0.00090304  1
  Ti  Ti131  1  0.20145321  0.19326868  0.73488331  1
  Ti  Ti132  1  0.69671383  0.29978144  0.88110877  1
  Ti  Ti133  1  0.79582190  0.00140628  0.50208033  1
  Ti  Ti134  1  0.59694051  0.58736620  0.74808533  1
  Ti  Ti135  1  0.21345970  0.39163357  0.00571093  1
  Ti  Ti136  1  0.29962741  0.29713489  0.61322228  1
  Ti  Ti137  1  0.29593507  0.90645907  0.37208455  1
  Ti  Ti138  1  0.20067539  -0.00170380  0.74056001  1
  Ti  Ti139  1  0.48745314  0.30235675  0.11334238  1
  Ti  Ti140  1  0.11173028  0.68243091  0.37596223  1
  Ti  Ti141  1  0.50008111  0.09875506  0.11187889  1
  Ti  Ti142  1  0.00178570  0.00740714  0.73729025  1
  Ti  Ti143  1  0.59235733  0.40029710  -0.00143128  1
  Ti  Ti144  1  0.39250515  0.60558454  0.48672963  1
  Ti  Ti145  1  0.10407821  0.50346671  0.87817717  1
  Ti  Ti146  1  0.29122528  0.09936141  0.38587009  1
  Ti  Ti147  1  0.80699731  0.20329065  0.52178245  1
  Ti  Ti148  1  0.30032302  0.90448251  0.12323666  1
  Ti  Ti149  1  0.48948292  0.68586953  0.62558416  1
  Ti  Ti150  1  0.41091955  0.80447781  0.00177470  1
  Ti  Ti151  1  0.59054716  0.39872568  0.74433651  1
  Ti  Ti152  1  0.07921249  0.10099462  0.12372796  1
  Ti  Ti153  1  0.29767130  0.69798187  0.62728299  1
  Ti  Ti154  1  0.30624260  0.49538723  0.87621655  1
  Ti  Ti155  1  0.29747074  0.29932188  0.87664790  1
  Ti  Ti156  1  0.31410381  0.48486059  0.12142268  1
  Ti  Ti157  1  0.90308896  0.90816507  0.86730406  1
  Ti  Ti158  1  0.20382779  0.60906396  0.75992129  1
  Ti  Ti159  1  0.49668855  0.50003677  0.62571868  1
  Mo  Mo160  1  0.90008609  0.30782222  0.62526260  1
  Mo  Mo161  1  0.20445224  0.59325965  0.49537231  1
  Mo  Mo162  1  0.10269193  0.90997779  0.12848871  1
  Mo  Mo163  1  0.39019050  0.20263531  0.51199617  1
  Mo  Mo164  1  -0.00461159  0.19953620  0.24622562  1
  Mo  Mo165  1  0.89691613  0.10011414  0.63292887  1
  Mo  Mo166  1  0.10770855  0.69262193  0.12489787  1
  Mo  Mo167  1  0.00528859  0.78899062  0.49755731  1
  Mo  Mo168  1  0.11073284  0.30579069  0.63312555  1
  Mo  Mo169  1  -0.00375335  0.00882940  -0.00361112  1
  Mo  Mo170  1  0.60162873  0.20873760  0.52455845  1
  Mo  Mo171  1  0.90487739  0.70258522  0.12439656  1
  Mo  Mo172  1  0.60573681  0.39149496  0.24759502  1
  Mo  Mo173  1  0.28844656  0.10185774  0.87871343  1
  Mo  Mo174  1  0.29200267  0.10151995  0.62062169  1
  Mo  Mo175  1  0.59203525  0.79954060  0.02757102  1
  Mo  Mo176  1  0.91233276  0.49291057  0.11529609  1
  Mo  Mo177  1  0.09412149  0.29783327  0.10429823  1
  Mo  Mo178  1  0.79598119  0.40029093  -0.01064128  1
  Mo  Mo179  1  0.80778817  0.39193114  0.24614794  1
  Mo  Mo180  1  0.79568521  0.20064346  -0.01348065  1
  Mo  Mo181  1  0.29602748  0.69233926  0.36877133  1
  Mo  Mo182  1  0.10302638  0.09670131  0.63782320  1
  Mo  Mo183  1  0.19958117  0.19627166  0.51407843  1
  Mo  Mo184  1  0.39408169  -0.00771436  -0.00631014  1
  Mo  Mo185  1  0.58345888  0.01584017  0.74457194  1
  Mo  Mo186  1  0.40858424  0.40420750  0.74852508  1
  Mo  Mo187  1  0.09328953  0.30820438  0.37927842  1
  Mo  Mo188  1  0.81443477  0.00304777  0.75975183  1
  Mo  Mo189  1  0.50280324  0.70751445  0.12475650  1
  Mo  Mo190  1  0.29947855  0.30564039  0.11841546  1
  Mo  Mo191  1  0.60562102  0.60670167  0.24729162  1
  Mo  Mo192  1  0.68665660  0.11176875  0.11452965  1
  Mo  Mo193  1  -0.00385211  0.79044934  0.23648361  1
  Mo  Mo194  1  0.79211332  0.00500959  0.25902421  1
  Mo  Mo195  1  0.40092215  0.40606917  -0.00356968  1
  Mo  Mo196  1  0.90108588  0.90937815  0.12529566  1
  Mo  Mo197  1  0.69299614  0.30451469  0.62445425  1
  Mo  Mo198  1  0.39487656  -0.00230857  0.25553200  1
  Mo  Mo199  1  0.29013808  0.88611359  0.63273540  1
