# generated using pymatgen
data_HfZrTaTiMo
_symmetry_space_group_name_H-M   'P 1'
_cell_length_a   15.21311503
_cell_length_b   15.20825657
_cell_length_c   16.85786907
_cell_angle_alpha   89.95104216
_cell_angle_beta   89.92800411
_cell_angle_gamma   90.09567684
_symmetry_Int_Tables_number   1
_chemical_formula_structural   HfZrTaTiMo
_chemical_formula_sum   'Hf40 Zr40 Ta40 Ti40 Mo40'
_cell_volume   3900.31019588
_cell_formula_units_Z   40
loop_
 _symmetry_equiv_pos_site_id
 _symmetry_equiv_pos_as_xyz
  1  'x, y, z'
loop_
 _atom_site_type_symbol
 _atom_site_label
 _atom_site_symmetry_multiplicity
 _atom_site_fract_x
 _atom_site_fract_y
 _atom_site_fract_z
 _atom_site_occupancy
  Hf  Hf0  1  0.59575365  0.60404935  0.00376314  1
  Hf  Hf1  1  0.89905627  0.90968495  0.87227971  1
  Hf  Hf2  1  0.48344348  0.88822365  0.37402891  1
  Hf  Hf3  1  0.51077109  0.91250069  0.87836042  1
  Hf  Hf4  1  0.49955104  0.11284681  0.37580770  1
  Hf  Hf5  1  0.19069569  0.19327518  0.24762788  1
  Hf  Hf6  1  0.10487873  0.50237859  0.62538994  1
  Hf  Hf7  1  0.80426214  0.59422759  -0.00306763  1
  Hf  Hf8  1  0.69288332  0.30227764  0.62764542  1
  Hf  Hf9  1  0.80085351  0.57521920  0.27041637  1
  Hf  Hf10  1  0.80793008  0.80134784  0.27517354  1
  Hf  Hf11  1  -0.00931593  0.18632984  0.74007961  1
  Hf  Hf12  1  0.09500561  0.08843958  0.61559604  1
  Hf  Hf13  1  0.80275346  0.79373473  0.73707225  1
  Hf  Hf14  1  0.51083584  0.26555308  0.87825785  1
  Hf  Hf15  1  0.89371579  0.90882285  0.12655425  1
  Hf  Hf16  1  0.10199840  0.30363786  0.62298470  1
  Hf  Hf17  1  0.70678863  0.49664584  0.61962773  1
  Hf  Hf18  1  0.29327075  0.30111990  0.11448596  1
  Hf  Hf19  1  0.10442698  0.30352001  0.89252724  1
  Hf  Hf20  1  0.19631046  0.79597532  -0.00793667  1
  Hf  Hf21  1  0.50626995  0.49578387  0.62721611  1
  Hf  Hf22  1  0.30598398  0.50818768  0.36570906  1
  Hf  Hf23  1  -0.00289585  0.80141617  0.74101512  1
  Hf  Hf24  1  0.09109722  0.51350996  0.37734959  1
  Hf  Hf25  1  0.38850431  -0.01129365  0.25094211  1
  Hf  Hf26  1  -0.00935137  0.41169838  0.01541890  1
  Hf  Hf27  1  0.60065849  0.79091696  0.27045143  1
  Hf  Hf28  1  -0.01452084  0.59738238  0.73471430  1
  Hf  Hf29  1  0.40654455  0.18595406  0.74987514  1
  Hf  Hf30  1  0.70892575  0.10749947  0.38103082  1
  Hf  Hf31  1  0.60439704  0.40642280  -0.01819751  1
  Hf  Hf32  1  0.20129803  0.40379915  0.75439432  1
  Hf  Hf33  1  0.71693041  0.10099354  0.14346451  1
  Hf  Hf34  1  0.09000285  0.31331343  0.37836117  1
  Hf  Hf35  1  0.30043303  0.28946337  0.89473151  1
  Hf  Hf36  1  0.91576693  0.29524929  0.87031254  1
  Hf  Hf37  1  0.29614921  0.69784501  0.11588820  1
  Hf  Hf38  1  0.20909072  0.61094305  0.49890109  1
  Hf  Hf39  1  0.60097235  0.57671239  0.47296557  1
  Zr  Zr40  1  0.69382515  0.89913920  0.13581420  1
  Zr  Zr41  1  0.40341184  0.39668589  0.76775324  1
  Zr  Zr42  1  0.28791796  0.08259015  0.37232607  1
  Zr  Zr43  1  -0.00302897  0.20864448  0.24807206  1
  Zr  Zr44  1  0.50597786  0.07874036  0.61472828  1
  Zr  Zr45  1  0.59423047  0.81134888  0.73163203  1
  Zr  Zr46  1  0.20308666  0.19938891  0.75405139  1
  Zr  Zr47  1  0.39906421  0.80280362  0.74252908  1
  Zr  Zr48  1  0.20235337  0.20363928  0.49576358  1
  Zr  Zr49  1  0.78976208  0.00747703  -0.00537307  1
  Zr  Zr50  1  0.92152579  0.69980983  0.38542965  1
  Zr  Zr51  1  0.79989901  0.39749849  -0.01018503  1
  Zr  Zr52  1  0.39869834  0.59729802  -0.00541125  1
  Zr  Zr53  1  0.08052531  0.10643428  0.88708131  1
  Zr  Zr54  1  0.09332790  0.90642528  0.11738090  1
  Zr  Zr55  1  0.90679242  0.09898907  0.38780294  1
  Zr  Zr56  1  0.19989732  0.00076152  0.76213137  1
  Zr  Zr57  1  0.71316478  0.28551277  0.86471834  1
  Zr  Zr58  1  0.70136706  0.69767650  0.13751430  1
  Zr  Zr59  1  0.88135787  0.31360412  0.37437575  1
  Zr  Zr60  1  0.40494838  0.20311063  0.24206210  1
  Zr  Zr61  1  0.69870809  0.48547287  0.13227989  1
  Zr  Zr62  1  0.09563895  0.89718700  0.87561143  1
  Zr  Zr63  1  0.59742033  0.78162524  0.48363377  1
  Zr  Zr64  1  0.80989511  0.58995898  0.48966193  1
  Zr  Zr65  1  0.80302795  0.00312968  0.74337793  1
  Zr  Zr66  1  0.29839029  0.09287027  0.11928833  1
  Zr  Zr67  1  0.69440030  0.90588443  0.60738085  1
  Zr  Zr68  1  0.20787301  0.61481103  0.24913312  1
  Zr  Zr69  1  0.41186466  0.40014048  0.49259778  1
  Zr  Zr70  1  0.68791755  0.70207001  0.86959106  1
  Zr  Zr71  1  0.90058262  0.70931414  0.12700003  1
  Zr  Zr72  1  0.60749858  0.41333987  0.76764601  1
  Zr  Zr73  1  0.00301638  0.61651946  0.24508225  1
  Zr  Zr74  1  0.29989920  0.10051833  0.61647500  1
  Zr  Zr75  1  0.29684429  0.89984366  0.62570685  1
  Zr  Zr76  1  0.40903755  0.40889024  -0.01162742  1
  Zr  Zr77  1  0.40491581  0.59617338  0.75841005  1
  Zr  Zr78  1  0.30250092  0.30082109  0.36923884  1
  Zr  Zr79  1  0.51131830  0.31137014  0.12123290  1
  Ta  Ta80  1  -0.00815909  0.21064549  0.50844976  1
  Ta  Ta81  1  0.38207098  0.78558008  0.49500968  1
  Ta  Ta82  1  0.79309061  0.60029395  0.74610034  1
  Ta  Ta83  1  -0.01334543  0.41624796  0.23634927  1
  Ta  Ta84  1  0.68408997  0.29856417  0.39436210  1
  Ta  Ta85  1  0.10566077  0.50917574  0.12531889  1
  Ta  Ta86  1  0.49577418  0.71349686  0.87479084  1
  Ta  Ta87  1  0.30919468  0.30822064  0.62354154  1
  Ta  Ta88  1  0.87777475  0.30194806  0.13347513  1
  Ta  Ta89  1  0.49967713  0.69160245  0.14064932  1
  Ta  Ta90  1  0.08187040  0.50118319  0.87077499  1
  Ta  Ta91  1  0.60375195  -0.00139129  0.26831822  1
  Ta  Ta92  1  0.61488674  0.21261038  0.24946893  1
  Ta  Ta93  1  0.09735243  0.10690216  0.10834285  1
  Ta  Ta94  1  0.59954010  -0.00716485  0.47856187  1
  Ta  Ta95  1  0.19045535  0.40245341  0.24029468  1
  Ta  Ta96  1  0.12323422  0.72892136  0.37883701  1
  Ta  Ta97  1  0.38094810  0.78595678  0.25166427  1
  Ta  Ta98  1  0.79452938  0.80134386  -0.00639922  1
  Ta  Ta99  1  0.31622082  0.09352232  0.89015396  1
  Ta  Ta100  1  0.60224690  0.40547098  0.26485379  1
  Ta  Ta101  1  0.31252603  0.89681600  0.88258409  1
  Ta  Ta102  1  0.61594822  0.18893556  0.01142909  1
  Ta  Ta103  1  0.90006750  0.69632049  0.87555170  1
  Ta  Ta104  1  0.90375327  0.90177985  0.60529795  1
  Ta  Ta105  1  0.29800313  0.69244323  0.62845511  1
  Ta  Ta106  1  0.41029535  0.80092171  0.00623348  1
  Ta  Ta107  1  0.79835954  0.20562061  0.51527844  1
  Ta  Ta108  1  0.00250928  0.60492379  0.00383066  1
  Ta  Ta109  1  0.29546525  0.70277038  0.87719064  1
  Ta  Ta110  1  0.39278957  -0.01259781  0.48885705  1
  Ta  Ta111  1  0.19629462  0.60760937  0.75319573  1
  Ta  Ta112  1  0.29532456  0.89458649  0.12118616  1
  Ta  Ta113  1  0.50369894  0.28997374  0.62878548  1
  Ta  Ta114  1  0.20388752  0.00169904  -0.00796686  1
  Ta  Ta115  1  0.51557947  0.08894042  0.13723336  1
  Ta  Ta116  1  0.82223440  0.41152930  0.75545095  1
  Ta  Ta117  1  0.79643818  0.19657274  0.73646320  1
  Ta  Ta118  1  0.68152168  0.09500649  0.86619834  1
  Ta  Ta119  1  -0.01434144  0.41480889  0.50684785  1
  Ti  Ti120  1  0.90607393  0.10516642  0.13345305  1
  Ti  Ti121  1  -0.01631658  0.01380586  -0.00016761  1
  Ti  Ti122  1  0.59933728  0.80474308  0.00829159  1
  Ti  Ti123  1  0.20203429  0.79641824  0.75684748  1
  Ti  Ti124  1  0.10691610  0.71175519  0.62432965  1
  Ti  Ti125  1  0.09742308  0.90205971  0.62932034  1
  Ti  Ti126  1  0.40334878  0.59746184  0.49934324  1
  Ti  Ti127  1  0.70377760  0.69464787  0.61467438  1
  Ti  Ti128  1  0.89856535  0.31422464  0.62987529  1
  Ti  Ti129  1  0.41572932  0.18518275  0.01190066  1
  Ti  Ti130  1  0.81178643  -0.00439222  0.26872002  1
  Ti  Ti131  1  0.49753840  0.89116611  0.13866376  1
  Ti  Ti132  1  0.80169052  0.80178355  0.48434483  1
  Ti  Ti133  1  0.01178727  0.00867225  0.25337905  1
  Ti  Ti134  1  0.40389526  0.40506876  0.24780926  1
  Ti  Ti135  1  0.20458852  0.40587181  0.50127951  1
  Ti  Ti136  1  0.69730535  0.90088134  0.86998208  1
  Ti  Ti137  1  0.19801616  0.41292118  0.00625950  1
  Ti  Ti138  1  0.09991037  0.71276375  0.12400198  1
  Ti  Ti139  1  0.09461990  0.30087871  0.11597086  1
  Ti  Ti140  1  0.40632410  0.20161077  0.50040001  1
  Ti  Ti141  1  0.28342048  0.50489834  0.87790544  1
  Ti  Ti142  1  0.89545949  0.09143865  0.60977895  1
  Ti  Ti143  1  0.48362154  0.67517708  0.36133205  1
  Ti  Ti144  1  0.40963653  -0.00787913  0.01180571  1
  Ti  Ti145  1  0.69438847  0.10122775  0.61295188  1
  Ti  Ti146  1  0.01023579  0.82298052  0.26323669  1
  Ti  Ti147  1  0.00347731  0.61152202  0.51644488  1
  Ti  Ti148  1  0.09353032  0.69219938  0.87105903  1
  Ti  Ti149  1  -0.01010920  0.79840412  -0.00563885  1
  Ti  Ti150  1  0.09552781  0.09891273  0.38631938  1
  Ti  Ti151  1  0.19130571  -0.02270854  0.49297822  1
  Ti  Ti152  1  0.30828496  0.49896178  0.12874640  1
  Ti  Ti153  1  0.30463142  0.49969412  0.62772197  1
  Ti  Ti154  1  0.18965574  0.59794495  -0.00423850  1
  Ti  Ti155  1  0.01422121  0.81257178  0.49968250  1
  Ti  Ti156  1  0.81078824  0.19412453  -0.00105652  1
  Ti  Ti157  1  0.49980935  0.69628208  0.61634230  1
  Ti  Ti158  1  0.59767740  0.00003387  0.00978429  1
  Ti  Ti159  1  0.41239473  -0.00498263  0.75228013  1
  Mo  Mo160  1  0.60425113  0.61536541  0.73746705  1
  Mo  Mo161  1  0.91596006  0.49103644  0.37618898  1
  Mo  Mo162  1  0.89859025  0.71023199  0.60540215  1
  Mo  Mo163  1  0.70931445  0.50979951  0.86617958  1
  Mo  Mo164  1  0.79783001  -0.00079362  0.50049943  1
  Mo  Mo165  1  0.09958190  0.91410570  0.37398741  1
  Mo  Mo166  1  0.78907693  0.38062281  0.25072237  1
  Mo  Mo167  1  -0.01055013  -0.00288982  0.73873356  1
  Mo  Mo168  1  0.70407988  0.90356472  0.38109869  1
  Mo  Mo169  1  0.69739404  0.29214421  0.12251609  1
  Mo  Mo170  1  0.18382137  -0.00437113  0.24652517  1
  Mo  Mo171  1  0.00390691  0.39822354  0.74742490  1
  Mo  Mo172  1  0.90633581  0.50919796  0.87180493  1
  Mo  Mo173  1  0.88305235  0.10864405  0.87061119  1
  Mo  Mo174  1  0.40424797  0.59367458  0.23985401  1
  Mo  Mo175  1  0.90000596  0.50316601  0.62584551  1
  Mo  Mo176  1  0.90987938  0.90530660  0.39142778  1
  Mo  Mo177  1  -0.01335718  0.20493498  0.01565111  1
  Mo  Mo178  1  0.59641148  0.38932927  0.49978847  1
  Mo  Mo179  1  0.60294723  0.18559715  0.74231400  1
  Mo  Mo180  1  0.50021108  0.50505067  0.13913257  1
  Mo  Mo181  1  0.59282379  0.19979497  0.50381009  1
  Mo  Mo182  1  0.27990857  0.88154473  0.37287011  1
  Mo  Mo183  1  0.80136174  0.39435675  0.50758210  1
  Mo  Mo184  1  0.59970387  0.59284151  0.27018538  1
  Mo  Mo185  1  0.52299114  0.53086416  0.86850838  1
  Mo  Mo186  1  0.30531844  0.70310127  0.37450943  1
  Mo  Mo187  1  0.79888012  0.19729726  0.25444434  1
  Mo  Mo188  1  0.71406868  0.47655459  0.38113073  1
  Mo  Mo189  1  0.49965029  0.08953465  0.88561297  1
  Mo  Mo190  1  0.70223996  0.69245497  0.37114177  1
  Mo  Mo191  1  0.00307372  -0.00000793  0.50326143  1
  Mo  Mo192  1  0.49920929  0.48912877  0.36545544  1
  Mo  Mo193  1  0.19778471  0.81393622  0.24378260  1
  Mo  Mo194  1  0.49275184  0.89021169  0.59284099  1
  Mo  Mo195  1  0.49835743  0.29646780  0.36885923  1
  Mo  Mo196  1  0.89992411  0.50210781  0.12798299  1
  Mo  Mo197  1  0.19625776  0.79960380  0.50995335  1
  Mo  Mo198  1  0.20059990  0.19835684  0.00495492  1
  Mo  Mo199  1  0.59759466  0.00904368  0.74566707  1
