# generated using pymatgen
data_HfZrTaTiMo
_symmetry_space_group_name_H-M   'P 1'
_cell_length_a   15.20730835
_cell_length_b   15.21399156
_cell_length_c   16.82487447
_cell_angle_alpha   90.01685567
_cell_angle_beta   89.97661524
_cell_angle_gamma   89.90832191
_symmetry_Int_Tables_number   1
_chemical_formula_structural   HfZrTaTiMo
_chemical_formula_sum   'Hf40 Zr40 Ta40 Ti40 Mo40'
_cell_volume   3892.66243948
_cell_formula_units_Z   40
loop_
 _symmetry_equiv_pos_site_id
 _symmetry_equiv_pos_as_xyz
  1  'x, y, z'
loop_
 _atom_site_type_symbol
 _atom_site_label
 _atom_site_symmetry_multiplicity
 _atom_site_fract_x
 _atom_site_fract_y
 _atom_site_fract_z
 _atom_site_occupancy
  Hf  Hf0  1  0.80565294  0.39465709  0.24556578  1
  Hf  Hf1  1  0.68459838  0.89393239  0.37342325  1
  Hf  Hf2  1  0.59911684  0.39167818  0.51190174  1
  Hf  Hf3  1  0.08219720  0.91561978  0.38824606  1
  Hf  Hf4  1  0.49877726  0.10089462  0.63115499  1
  Hf  Hf5  1  0.18743842  0.01338037  0.26113274  1
  Hf  Hf6  1  0.38516437  0.00650388  0.76634048  1
  Hf  Hf7  1  0.79419893  0.00400159  0.49731003  1
  Hf  Hf8  1  0.89248779  0.91225997  0.64382894  1
  Hf  Hf9  1  0.41508777  -0.00192786  0.26544779  1
  Hf  Hf10  1  0.89969673  0.30471793  0.87584872  1
  Hf  Hf11  1  0.79521324  0.39915834  0.73544380  1
  Hf  Hf12  1  0.40258275  0.01037658  0.48774510  1
  Hf  Hf13  1  0.60625033  0.19402946  0.01110181  1
  Hf  Hf14  1  0.40514431  0.80245900  0.75284458  1
  Hf  Hf15  1  -0.00407078  0.19707192  0.51340350  1
  Hf  Hf16  1  0.59092316  -0.01276260  0.50148515  1
  Hf  Hf17  1  0.81245743  0.39032023  0.50160182  1
  Hf  Hf18  1  -0.00419128  0.80254546  0.24975980  1
  Hf  Hf19  1  0.41160606  0.21177401  0.50381129  1
  Hf  Hf20  1  0.30645638  0.31886000  0.62885653  1
  Hf  Hf21  1  0.19409450  0.40560404  -0.01001890  1
  Hf  Hf22  1  0.88812133  0.69999134  0.86618981  1
  Hf  Hf23  1  0.78859787  0.80297785  0.23764346  1
  Hf  Hf24  1  0.08877766  0.71150248  0.39404155  1
  Hf  Hf25  1  0.29608221  0.11581137  0.37580991  1
  Hf  Hf26  1  0.91270227  0.08220042  0.13234419  1
  Hf  Hf27  1  0.18598333  0.01918261  0.50237524  1
  Hf  Hf28  1  0.19544374  0.80489944  0.25362137  1
  Hf  Hf29  1  0.80313405  0.19003553  0.25046137  1
  Hf  Hf30  1  0.30524340  0.50094731  0.36964335  1
  Hf  Hf31  1  0.40017733  0.61012392  0.24126961  1
  Hf  Hf32  1  0.19363685  0.21618570  0.51600769  1
  Hf  Hf33  1  0.90149873  0.10258734  0.85787735  1
  Hf  Hf34  1  0.17943168  0.60176378  0.26491373  1
  Hf  Hf35  1  0.39642222  0.80183813  0.00506321  1
  Hf  Hf36  1  0.58747245  -0.00693588  0.75530284  1
  Hf  Hf37  1  0.79616965  -0.00280710  0.00113353  1
  Hf  Hf38  1  0.89885449  0.70557622  0.62703570  1
  Hf  Hf39  1  0.39758172  0.59076945  0.01787593  1
  Zr  Zr40  1  -0.00926815  0.80656926  -0.00969273  1
  Zr  Zr41  1  0.79673457  0.79620355  0.49749362  1
  Zr  Zr42  1  0.91698473  0.29402019  0.12204965  1
  Zr  Zr43  1  0.39506826  0.80489771  0.24512863  1
  Zr  Zr44  1  0.10507841  0.11350369  0.12031835  1
  Zr  Zr45  1  0.27387300  0.49975012  0.12550730  1
  Zr  Zr46  1  0.80479579  0.19671280  0.00827757  1
  Zr  Zr47  1  0.00677015  0.39361906  0.73841761  1
  Zr  Zr48  1  0.11679299  0.50283118  0.62413854  1
  Zr  Zr49  1  0.00785209  0.80354851  0.75173918  1
  Zr  Zr50  1  0.50626835  0.07530877  0.11794916  1
  Zr  Zr51  1  0.30412379  0.90720407  0.61600525  1
  Zr  Zr52  1  0.69044711  0.88720846  0.63106416  1
  Zr  Zr53  1  0.69739759  0.29073287  0.36890781  1
  Zr  Zr54  1  0.39570332  0.39036944  0.23050530  1
  Zr  Zr55  1  0.80591997  0.59098327  0.01202050  1
  Zr  Zr56  1  0.08244445  0.90808840  0.11985515  1
  Zr  Zr57  1  0.19798595  0.20200214  0.74880356  1
  Zr  Zr58  1  0.39960421  0.20615720  -0.00364211  1
  Zr  Zr59  1  0.91074824  0.70073333  0.12527984  1
  Zr  Zr60  1  0.20187319  0.79568654  0.74535600  1
  Zr  Zr61  1  0.51032207  0.50192304  0.35950971  1
  Zr  Zr62  1  0.20294998  0.59184101  0.48967770  1
  Zr  Zr63  1  0.50629510  0.47255636  0.89125081  1
  Zr  Zr64  1  0.69261369  0.30228099  0.87878199  1
  Zr  Zr65  1  0.49939418  0.68611072  0.88662627  1
  Zr  Zr66  1  0.40745223  0.21447511  0.76103449  1
  Zr  Zr67  1  0.59555038  0.58198435  0.74650404  1
  Zr  Zr68  1  0.59718283  0.78469160  0.75311738  1
  Zr  Zr69  1  0.00924963  0.40218018  0.26607186  1
  Zr  Zr70  1  0.01554171  0.58737788  -0.01301067  1
  Zr  Zr71  1  0.50268863  0.29701402  0.36180176  1
  Zr  Zr72  1  0.70975685  0.49751641  0.87926312  1
  Zr  Zr73  1  0.78143049  0.79708466  0.01280666  1
  Zr  Zr74  1  0.30156209  0.70126394  0.61144154  1
  Zr  Zr75  1  0.29598609  0.91535470  0.12077568  1
  Zr  Zr76  1  0.80051112  0.19103988  0.49404436  1
  Zr  Zr77  1  0.01061266  0.60102048  0.74760794  1
  Zr  Zr78  1  0.70118584  0.49800553  0.36599471  1
  Zr  Zr79  1  0.61176950  0.60024388  0.02096534  1
  Ta  Ta80  1  0.10864664  0.31674536  0.11927567  1
  Ta  Ta81  1  0.19536936  0.39880679  0.25647319  1
  Ta  Ta82  1  0.30081038  0.30807136  0.37901217  1
  Ta  Ta83  1  0.30698414  0.50721896  0.87809977  1
  Ta  Ta84  1  0.41627279  0.60595430  0.49401081  1
  Ta  Ta85  1  0.01447739  0.20369718  -0.00939001  1
  Ta  Ta86  1  0.70169762  0.28234006  0.62600358  1
  Ta  Ta87  1  0.09339462  0.89870359  0.61100890  1
  Ta  Ta88  1  0.29660005  0.69461624  0.88052694  1
  Ta  Ta89  1  0.79484809  0.59216820  0.50012596  1
  Ta  Ta90  1  0.58817103  0.81321913  0.24246191  1
  Ta  Ta91  1  0.89086482  0.90748060  0.85539825  1
  Ta  Ta92  1  0.39177791  0.00794000  -0.01698206  1
  Ta  Ta93  1  0.89769109  0.50150771  0.61881463  1
  Ta  Ta94  1  0.10270268  0.68593055  0.12220053  1
  Ta  Ta95  1  0.59303792  0.38720669  0.73425735  1
  Ta  Ta96  1  0.30696894  0.71076686  0.38659148  1
  Ta  Ta97  1  0.28924620  0.89795025  0.87897086  1
  Ta  Ta98  1  -0.01069995  0.59732977  0.50017610  1
  Ta  Ta99  1  0.60385450  0.20062154  0.75282578  1
  Ta  Ta100  1  0.69873014  0.68257827  0.62229845  1
  Ta  Ta101  1  0.21419895  0.40862396  0.75854733  1
  Ta  Ta102  1  0.29148899  0.89889302  0.38744842  1
  Ta  Ta103  1  0.39983629  0.41217070  0.50022191  1
  Ta  Ta104  1  0.70158553  0.89342050  0.87079694  1
  Ta  Ta105  1  0.09619798  0.90993384  0.87378702  1
  Ta  Ta106  1  0.69603199  0.69344870  0.36704338  1
  Ta  Ta107  1  0.28698368  0.70400712  0.12072745  1
  Ta  Ta108  1  0.91076123  0.08901311  0.36745465  1
  Ta  Ta109  1  0.50338360  0.89803706  0.89132864  1
  Ta  Ta110  1  0.01323828  0.39444776  0.50355353  1
  Ta  Ta111  1  0.80893042  0.59769379  0.24167156  1
  Ta  Ta112  1  0.40006916  0.19510744  0.24164439  1
  Ta  Ta113  1  0.89166858  0.69395181  0.37231833  1
  Ta  Ta114  1  0.20398998  0.21584450  0.24941281  1
  Ta  Ta115  1  0.92440925  0.49639672  0.12831065  1
  Ta  Ta116  1  0.50951474  0.70858508  0.37305336  1
  Ta  Ta117  1  0.19622464  0.00929068  -0.01139832  1
  Ta  Ta118  1  0.19169821  0.79973320  -0.00256716  1
  Ta  Ta119  1  0.29898980  0.10637409  0.12503142  1
  Ti  Ti120  1  0.70430560  0.09424699  0.86565980  1
  Ti  Ti121  1  0.41144226  0.40953421  0.75209148  1
  Ti  Ti122  1  0.11229543  0.69998048  0.87414662  1
  Ti  Ti123  1  0.90524763  0.49531073  0.87171927  1
  Ti  Ti124  1  0.50788922  0.71474255  0.12146198  1
  Ti  Ti125  1  -0.00415359  0.00675055  -0.01242289  1
  Ti  Ti126  1  0.60362713  0.18424078  0.23654459  1
  Ti  Ti127  1  0.69734765  0.69771985  0.87560954  1
  Ti  Ti128  1  0.40349214  0.38968873  0.01992549  1
  Ti  Ti129  1  0.29673889  0.10547183  0.62768870  1
  Ti  Ti130  1  0.18695792  0.00015388  0.74523349  1
  Ti  Ti131  1  0.30969720  0.31146140  0.87549976  1
  Ti  Ti132  1  0.89489812  0.89428871  0.37606486  1
  Ti  Ti133  1  0.20676452  0.20289686  -0.01202348  1
  Ti  Ti134  1  0.10450453  0.29846898  0.38255678  1
  Ti  Ti135  1  0.90795764  0.49932391  0.37900159  1
  Ti  Ti136  1  0.60249224  0.59829831  0.50010506  1
  Ti  Ti137  1  0.51109540  0.49320236  0.13466982  1
  Ti  Ti138  1  0.60482857  0.18310288  0.49709893  1
  Ti  Ti139  1  0.70239653  0.09126280  0.63823617  1
  Ti  Ti140  1  -0.01487879  0.00636469  0.51225232  1
  Ti  Ti141  1  0.67293481  0.91285312  0.11920393  1
  Ti  Ti142  1  0.00301828  0.20093971  0.73503277  1
  Ti  Ti143  1  0.41952183  0.81094561  0.49675095  1
  Ti  Ti144  1  0.50660741  0.10541311  0.88040246  1
  Ti  Ti145  1  0.10088593  0.10335484  0.86716489  1
  Ti  Ti146  1  0.60751145  0.38782405  0.03053760  1
  Ti  Ti147  1  0.30956925  0.50973530  0.62563127  1
  Ti  Ti148  1  0.49792597  0.50235328  0.62120268  1
  Ti  Ti149  1  0.80250834  0.39897544  0.01922780  1
  Ti  Ti150  1  0.01135749  0.19735114  0.26045784  1
  Ti  Ti151  1  0.60858113  0.60789396  0.23572881  1
  Ti  Ti152  1  0.39493870  0.60126024  0.74965565  1
  Ti  Ti153  1  0.79054428  -0.00365752  0.24707315  1
  Ti  Ti154  1  0.09809151  0.30534677  0.87290608  1
  Ti  Ti155  1  0.88683433  0.10780480  0.64672915  1
  Ti  Ti156  1  0.10022903  0.70737552  0.60501031  1
  Ti  Ti157  1  0.11237567  0.50524703  0.86313443  1
  Ti  Ti158  1  0.79512446  0.59754572  0.74303037  1
  Ti  Ti159  1  0.50317929  0.70611812  0.61645367  1
  Mo  Mo160  1  0.49792686  0.90074051  0.10645575  1
  Mo  Mo161  1  0.00694695  0.00702462  0.74782507  1
  Mo  Mo162  1  -0.00593933  0.60026854  0.26125290  1
  Mo  Mo163  1  0.79323923  0.20230578  0.74824648  1
  Mo  Mo164  1  0.60739592  -0.00143799  0.25220032  1
  Mo  Mo165  1  0.91661358  0.28539563  0.37408552  1
  Mo  Mo166  1  0.28994661  0.09883493  0.87414610  1
  Mo  Mo167  1  0.79319448  0.78924988  0.75413157  1
  Mo  Mo168  1  0.89064792  0.90710811  0.12667788  1
  Mo  Mo169  1  0.20136332  0.80978107  0.49745147  1
  Mo  Mo170  1  0.28775359  0.28929239  0.11949435  1
  Mo  Mo171  1  0.69419594  0.09294853  0.36782093  1
  Mo  Mo172  1  0.50536230  0.30169252  0.87880928  1
  Mo  Mo173  1  0.20175405  0.60716294  -0.00530892  1
  Mo  Mo174  1  0.21649822  0.59914910  0.75239581  1
  Mo  Mo175  1  -0.00948068  0.80847676  0.50467474  1
  Mo  Mo176  1  -0.00167992  0.39675519  -0.00816004  1
  Mo  Mo177  1  0.78857690  0.00106195  0.75511583  1
  Mo  Mo178  1  0.49955978  0.29015582  0.13475644  1
  Mo  Mo179  1  0.60719365  0.39098050  0.22666318  1
  Mo  Mo180  1  0.70951086  0.49486042  0.13808981  1
  Mo  Mo181  1  0.59376877  0.78020603  0.50115227  1
  Mo  Mo182  1  0.08954200  0.09138865  0.63565422  1
  Mo  Mo183  1  0.69455578  0.70228679  0.14015714  1
  Mo  Mo184  1  0.60160259  0.80212214  -0.00033555  1
  Mo  Mo185  1  0.70078545  0.49784671  0.61804030  1
  Mo  Mo186  1  0.89799497  0.29813343  0.62831986  1
  Mo  Mo187  1  0.60418308  -0.00085232  -0.01874376  1
  Mo  Mo188  1  0.20800394  0.39848454  0.49578295  1
  Mo  Mo189  1  0.09000042  0.11630251  0.37689600  1
  Mo  Mo190  1  0.49342497  0.89310580  0.37582947  1
  Mo  Mo191  1  0.09436949  0.50134403  0.12660728  1
  Mo  Mo192  1  0.70669538  0.09126746  0.12792257  1
  Mo  Mo193  1  0.10221076  0.30497789  0.62859660  1
  Mo  Mo194  1  0.49269236  0.89552536  0.62618106  1
  Mo  Mo195  1  0.51678259  0.10462572  0.36923944  1
  Mo  Mo196  1  0.09523267  0.49651559  0.38927358  1
  Mo  Mo197  1  0.50415201  0.30302300  0.62356258  1
  Mo  Mo198  1  -0.01049110  -0.00092158  0.25552259  1
  Mo  Mo199  1  0.70111386  0.29389326  0.13192480  1
