# generated using pymatgen
data_HfZrTaTiMo
_symmetry_space_group_name_H-M   'P 1'
_cell_length_a   15.16907154
_cell_length_b   15.17485442
_cell_length_c   16.81052991
_cell_angle_alpha   89.98638060
_cell_angle_beta   89.96070006
_cell_angle_gamma   90.03910408
_symmetry_Int_Tables_number   1
_chemical_formula_structural   HfZrTaTiMo
_chemical_formula_sum   'Hf40 Zr40 Ta40 Ti40 Mo40'
_cell_volume   3869.58793924
_cell_formula_units_Z   40
loop_
 _symmetry_equiv_pos_site_id
 _symmetry_equiv_pos_as_xyz
  1  'x, y, z'
loop_
 _atom_site_type_symbol
 _atom_site_label
 _atom_site_symmetry_multiplicity
 _atom_site_fract_x
 _atom_site_fract_y
 _atom_site_fract_z
 _atom_site_occupancy
  Hf  Hf0  1  0.30940998  0.50364661  0.36974100  1
  Hf  Hf1  1  0.79040526  0.39214161  0.74928945  1
  Hf  Hf2  1  0.10694138  0.90182003  0.38068590  1
  Hf  Hf3  1  0.09994225  0.30509422  0.12486727  1
  Hf  Hf4  1  0.11629848  0.90145597  0.11038620  1
  Hf  Hf5  1  0.38981908  0.59629726  0.75550991  1
  Hf  Hf6  1  0.58012321  -0.01974109  0.25294067  1
  Hf  Hf7  1  0.61537085  0.78913122  -0.00364695  1
  Hf  Hf8  1  0.47987023  0.07600743  0.12301911  1
  Hf  Hf9  1  0.40162554  0.39552183  0.48852562  1
  Hf  Hf10  1  0.50805870  0.26957174  0.13518801  1
  Hf  Hf11  1  0.89694407  0.73056928  0.86176882  1
  Hf  Hf12  1  0.20338609  0.20315990  -0.00967613  1
  Hf  Hf13  1  0.10448632  0.31829996  0.87899145  1
  Hf  Hf14  1  0.19857959  0.60674588  0.48301945  1
  Hf  Hf15  1  0.61274578  0.39202646  0.23644407  1
  Hf  Hf16  1  0.71776117  0.50175636  0.12038152  1
  Hf  Hf17  1  0.38608207  0.59623000  0.00841293  1
  Hf  Hf18  1  0.31519137  0.89832200  0.63477777  1
  Hf  Hf19  1  0.26820305  0.50631519  0.87826003  1
  Hf  Hf20  1  0.29921900  0.49511650  0.61463281  1
  Hf  Hf21  1  0.78487585  0.21300695  0.24557462  1
  Hf  Hf22  1  0.90436140  0.70681979  0.63040880  1
  Hf  Hf23  1  0.19997967  0.80497396  0.25566983  1
  Hf  Hf24  1  0.89440188  0.31735544  0.12425321  1
  Hf  Hf25  1  0.69334869  0.49639050  0.88050226  1
  Hf  Hf26  1  0.58716431  0.60789627  0.76207262  1
  Hf  Hf27  1  0.50392912  0.29897765  0.61424909  1
  Hf  Hf28  1  0.79260153  -0.00174012  0.23689704  1
  Hf  Hf29  1  0.09293517  0.50102843  0.61402357  1
  Hf  Hf30  1  0.10057887  0.68666331  0.87929776  1
  Hf  Hf31  1  0.40451821  0.39407980  0.24276554  1
  Hf  Hf32  1  0.60374948  0.38836691  0.01219302  1
  Hf  Hf33  1  -0.00353692  0.20477315  0.49434304  1
  Hf  Hf34  1  0.30859350  0.70000910  0.62298835  1
  Hf  Hf35  1  0.40705049  0.80886225  -0.01334069  1
  Hf  Hf36  1  0.79884566  0.61517751  -0.00793331  1
  Hf  Hf37  1  0.78642995  0.61194142  0.75409592  1
  Hf  Hf38  1  0.79143706  0.60412358  0.49462861  1
  Hf  Hf39  1  0.90289193  0.10379604  0.63194209  1
  Zr  Zr40  1  0.60081617  0.77266284  0.26077123  1
  Zr  Zr41  1  0.40500529  0.21221224  0.75586116  1
  Zr  Zr42  1  0.78730033  0.20959286  0.50775071  1
  Zr  Zr43  1  0.50011435  0.08892161  0.62871603  1
  Zr  Zr44  1  0.00435387  -0.00357090  0.23950850  1
  Zr  Zr45  1  0.09604164  0.09628359  0.37876760  1
  Zr  Zr46  1  0.28558577  0.70013322  0.12527246  1
  Zr  Zr47  1  0.89088972  0.50149005  0.62472343  1
  Zr  Zr48  1  0.80131499  -0.00899036  0.01874694  1
  Zr  Zr49  1  -0.00523346  0.42413035  0.26599953  1
  Zr  Zr50  1  0.68052611  0.10643818  0.37089335  1
  Zr  Zr51  1  0.51095983  0.28218959  0.36989205  1
  Zr  Zr52  1  0.20859579  0.80356873  0.50019375  1
  Zr  Zr53  1  0.18814827  0.20892492  0.75263953  1
  Zr  Zr54  1  0.58272195  0.39367899  0.75160372  1
  Zr  Zr55  1  -0.00615895  0.21100933  0.25872007  1
  Zr  Zr56  1  -0.00436574  0.61149829  0.47584138  1
  Zr  Zr57  1  0.31677666  0.31484462  0.87736426  1
  Zr  Zr58  1  0.10907758  0.10542182  0.11741889  1
  Zr  Zr59  1  0.61324441  0.19202917  0.75250205  1
  Zr  Zr60  1  0.00817710  0.41261179  0.00149092  1
  Zr  Zr61  1  -0.00562044  -0.00186124  0.75520864  1
  Zr  Zr62  1  0.20101634  0.00118741  0.75388275  1
  Zr  Zr63  1  0.47784508  0.47897833  0.87760841  1
  Zr  Zr64  1  0.79083921  0.19562113  0.00702646  1
  Zr  Zr65  1  0.58966089  -0.00868845  0.48933879  1
  Zr  Zr66  1  0.32072815  0.90731421  0.11665156  1
  Zr  Zr67  1  0.60055293  -0.01138005  0.01130159  1
  Zr  Zr68  1  0.20977885  0.20391507  0.26324317  1
  Zr  Zr69  1  0.60549183  0.78617324  0.48671176  1
  Zr  Zr70  1  0.90732048  0.90010303  0.37150040  1
  Zr  Zr71  1  0.79519810  -0.00386016  0.50216723  1
  Zr  Zr72  1  0.20263265  0.21088709  0.49711212  1
  Zr  Zr73  1  0.10218265  0.88967800  0.88083555  1
  Zr  Zr74  1  -0.01384365  0.80493779  0.01075671  1
  Zr  Zr75  1  0.40154774  0.39858135  0.02868204  1
  Zr  Zr76  1  0.52014309  0.90308936  0.86436061  1
  Zr  Zr77  1  0.40038955  0.18239030  0.48935674  1
  Zr  Zr78  1  0.20266666  0.40803700  0.24936480  1
  Zr  Zr79  1  0.90771874  0.50538078  0.86536284  1
  Ta  Ta80  1  -0.00999222  0.40662915  0.48549662  1
  Ta  Ta81  1  0.20389692  0.79335496  0.74839003  1
  Ta  Ta82  1  -0.00735590  0.20241067  -0.00434025  1
  Ta  Ta83  1  -0.00735236  0.62543545  0.26722052  1
  Ta  Ta84  1  0.09851734  0.89743498  0.62608580  1
  Ta  Ta85  1  0.40921321  0.60518546  0.49412975  1
  Ta  Ta86  1  0.51874655  0.88602021  0.63890039  1
  Ta  Ta87  1  0.69977172  0.49788015  0.37338521  1
  Ta  Ta88  1  0.00675664  0.60274491  0.74638474  1
  Ta  Ta89  1  0.70991862  0.88287104  0.36387573  1
  Ta  Ta90  1  0.59569630  0.59212438  0.49966451  1
  Ta  Ta91  1  0.31744715  0.71171551  0.36889590  1
  Ta  Ta92  1  0.09826043  0.52409125  0.13531853  1
  Ta  Ta93  1  0.78322002  -0.00825913  0.74323504  1
  Ta  Ta94  1  0.31336888  0.91294204  0.37776687  1
  Ta  Ta95  1  0.21518413  0.00486900  0.25031563  1
  Ta  Ta96  1  0.90012608  0.89670754  0.62566733  1
  Ta  Ta97  1  0.20558425  0.00712624  0.51310037  1
  Ta  Ta98  1  0.90361465  0.10832106  0.12644945  1
  Ta  Ta99  1  0.69905286  0.30882609  0.37944540  1
  Ta  Ta100  1  0.80729603  0.40113385  -0.00757047  1
  Ta  Ta101  1  0.88846360  0.09864563  0.87003271  1
  Ta  Ta102  1  0.90261430  0.30587536  0.62494913  1
  Ta  Ta103  1  -0.00441801  0.00956279  -0.00409321  1
  Ta  Ta104  1  0.89085222  0.10403043  0.37383836  1
  Ta  Ta105  1  0.62653817  0.79952451  0.75619629  1
  Ta  Ta106  1  0.00230482  0.00009123  0.51009212  1
  Ta  Ta107  1  0.29288273  0.70929086  0.88121370  1
  Ta  Ta108  1  0.30125310  0.28473360  0.12569225  1
  Ta  Ta109  1  0.49947201  0.70096728  0.12181929  1
  Ta  Ta110  1  0.70194952  0.28887572  0.88027308  1
  Ta  Ta111  1  0.29985836  0.10244150  0.63235342  1
  Ta  Ta112  1  -0.00338025  0.60339142  0.00484409  1
  Ta  Ta113  1  0.41082930  0.60217182  0.24296405  1
  Ta  Ta114  1  0.00376685  0.39394531  0.74707366  1
  Ta  Ta115  1  0.81414150  0.79262024  0.23513447  1
  Ta  Ta116  1  0.58790853  0.59684916  -0.00347382  1
  Ta  Ta117  1  0.90174523  0.29263271  0.87012419  1
  Ta  Ta118  1  0.69582325  0.70597733  0.62487711  1
  Ta  Ta119  1  0.40665231  -0.00149663  0.75812462  1
  Ti  Ti120  1  0.00101447  0.80130586  0.49842104  1
  Ti  Ti121  1  0.09437491  0.30472709  0.62093900  1
  Ti  Ti122  1  0.69695838  0.69142062  0.13033772  1
  Ti  Ti123  1  0.09017233  0.70570896  0.12678726  1
  Ti  Ti124  1  0.39617698  0.17566725  0.26354278  1
  Ti  Ti125  1  0.39895226  -0.01260534  0.50505937  1
  Ti  Ti126  1  0.51336459  0.49763495  0.36924291  1
  Ti  Ti127  1  0.69769343  0.08494015  0.87442655  1
  Ti  Ti128  1  0.21594931  -0.00693775  -0.01878139  1
  Ti  Ti129  1  0.19197797  0.60732906  0.26751913  1
  Ti  Ti130  1  0.10040444  0.70492739  0.62494230  1
  Ti  Ti131  1  0.29754524  0.09855444  0.11518674  1
  Ti  Ti132  1  0.80315654  0.79899162  0.49782814  1
  Ti  Ti133  1  0.41307847  0.79114697  0.76404549  1
  Ti  Ti134  1  0.68900749  0.49707986  0.62546612  1
  Ti  Ti135  1  0.79963554  0.60200724  0.25916446  1
  Ti  Ti136  1  0.49499687  0.50265576  0.62339837  1
  Ti  Ti137  1  0.50331763  0.69830917  0.62749142  1
  Ti  Ti138  1  0.40968341  0.80774559  0.25157984  1
  Ti  Ti139  1  0.50395989  0.10113281  0.87522231  1
  Ti  Ti140  1  0.61281133  0.39599448  0.50340518  1
  Ti  Ti141  1  0.09955621  0.10724224  0.62768257  1
  Ti  Ti142  1  0.80299696  0.19848060  0.74518668  1
  Ti  Ti143  1  0.29579934  0.30057447  0.62604775  1
  Ti  Ti144  1  0.19474981  0.40203014  0.48700069  1
  Ti  Ti145  1  0.68009226  0.10851531  0.13580019  1
  Ti  Ti146  1  0.69240593  0.09592637  0.62253321  1
  Ti  Ti147  1  0.40410386  0.19341781  -0.00692045  1
  Ti  Ti148  1  0.08776703  0.10891194  0.87578891  1
  Ti  Ti149  1  0.41580232  0.79816468  0.49659219  1
  Ti  Ti150  1  0.20788777  0.42086364  0.02267755  1
  Ti  Ti151  1  0.88506406  0.31174029  0.38093319  1
  Ti  Ti152  1  0.30426310  0.09756842  0.87148469  1
  Ti  Ti153  1  0.59769762  0.18962522  -0.00394802  1
  Ti  Ti154  1  0.10140598  0.31173110  0.37556127  1
  Ti  Ti155  1  0.80539237  0.41022332  0.25197945  1
  Ti  Ti156  1  0.80159893  0.80444717  0.02601713  1
  Ti  Ti157  1  0.73034961  0.89084379  0.87664448  1
  Ti  Ti158  1  0.19344148  0.60169743  0.74232002  1
  Ti  Ti159  1  0.19781321  0.40863379  0.74215723  1
  Mo  Mo160  1  0.90493583  0.51589744  0.12844998  1
  Mo  Mo161  1  0.09909614  0.50558549  0.37557851  1
  Mo  Mo162  1  0.50865483  0.51199154  0.12969180  1
  Mo  Mo163  1  0.47829691  0.07225312  0.37132502  1
  Mo  Mo164  1  0.30530147  0.89934512  0.86203427  1
  Mo  Mo165  1  0.70208352  0.89397322  0.62121493  1
  Mo  Mo166  1  -0.00543465  0.20769431  0.75178849  1
  Mo  Mo167  1  0.30057531  0.30169813  0.37217620  1
  Mo  Mo168  1  0.89706470  0.68565087  0.12898711  1
  Mo  Mo169  1  0.09518914  0.50284862  0.86607075  1
  Mo  Mo170  1  0.70399198  0.30332793  0.62420532  1
  Mo  Mo171  1  0.59344662  0.18682015  0.25010462  1
  Mo  Mo172  1  0.88684161  0.71826559  0.37230454  1
  Mo  Mo173  1  0.39035007  -0.00820465  0.25037752  1
  Mo  Mo174  1  0.60639384  -0.00398124  0.75040191  1
  Mo  Mo175  1  0.51145118  0.28649543  0.89068518  1
  Mo  Mo176  1  0.79511566  0.40638900  0.50353535  1
  Mo  Mo177  1  0.70417316  0.29603001  0.11657686  1
  Mo  Mo178  1  0.10008400  0.71421204  0.36977282  1
  Mo  Mo179  1  0.89874354  0.91590990  0.87344750  1
  Mo  Mo180  1  0.69778249  0.70580658  0.87833839  1
  Mo  Mo181  1  0.60299865  0.58520095  0.24413959  1
  Mo  Mo182  1  0.20285194  0.79505103  -0.00396190  1
  Mo  Mo183  1  0.70840681  0.68853428  0.36920776  1
  Mo  Mo184  1  0.00448747  0.80154161  0.23809833  1
  Mo  Mo185  1  0.39722054  0.00917423  -0.02202003  1
  Mo  Mo186  1  0.90863527  0.90092088  0.13199382  1
  Mo  Mo187  1  0.69691182  0.88555393  0.14026331  1
  Mo  Mo188  1  0.49683307  0.67776114  0.37387950  1
  Mo  Mo189  1  0.38474671  0.40523027  0.73411845  1
  Mo  Mo190  1  0.29497942  0.50400404  0.14265893  1
  Mo  Mo191  1  0.29566184  0.09138935  0.38265420  1
  Mo  Mo192  1  0.49878724  0.69320563  0.87783034  1
  Mo  Mo193  1  0.49021969  0.87875632  0.37692681  1
  Mo  Mo194  1  0.01315081  0.79981551  0.74240401  1
  Mo  Mo195  1  0.88586010  0.50570481  0.37606701  1
  Mo  Mo196  1  0.80689789  0.80917600  0.74196719  1
  Mo  Mo197  1  0.50347718  0.88222810  0.12186323  1
  Mo  Mo198  1  0.18577806  0.60055096  0.00964782  1
  Mo  Mo199  1  0.60055017  0.20256794  0.50727845  1
