# generated using pymatgen
data_HfZrTaTiMo
_symmetry_space_group_name_H-M   'P 1'
_cell_length_a   15.22039930
_cell_length_b   15.21395769
_cell_length_c   16.84059058
_cell_angle_alpha   89.97580341
_cell_angle_beta   90.00114097
_cell_angle_gamma   89.94427728
_symmetry_Int_Tables_number   1
_chemical_formula_structural   HfZrTaTiMo
_chemical_formula_sum   'Hf40 Zr40 Ta40 Ti40 Mo40'
_cell_volume   3899.64724744
_cell_formula_units_Z   40
loop_
 _symmetry_equiv_pos_site_id
 _symmetry_equiv_pos_as_xyz
  1  'x, y, z'
loop_
 _atom_site_type_symbol
 _atom_site_label
 _atom_site_symmetry_multiplicity
 _atom_site_fract_x
 _atom_site_fract_y
 _atom_site_fract_z
 _atom_site_occupancy
  Hf  Hf0  1  0.59373224  0.59933885  0.50927706  1
  Hf  Hf1  1  0.41403376  -0.00417722  0.73577436  1
  Hf  Hf2  1  0.71272425  0.28259435  0.37344873  1
  Hf  Hf3  1  0.90205810  0.89305710  0.37823469  1
  Hf  Hf4  1  0.40851066  0.40197005  -0.00791730  1
  Hf  Hf5  1  0.49251602  0.89975372  0.37712114  1
  Hf  Hf6  1  0.69763120  0.50015275  0.64503937  1
  Hf  Hf7  1  0.47875073  0.69765761  0.38362189  1
  Hf  Hf8  1  0.39378596  -0.01505121  0.24156089  1
  Hf  Hf9  1  0.08715880  0.69885572  0.87788405  1
  Hf  Hf10  1  0.60259914  0.39616694  0.50879788  1
  Hf  Hf11  1  0.90959345  0.29636668  0.37081215  1
  Hf  Hf12  1  0.58949046  0.19592638  0.00127946  1
  Hf  Hf13  1  0.51122923  0.31900379  0.12450727  1
  Hf  Hf14  1  0.11311495  0.50189635  0.11133126  1
  Hf  Hf15  1  0.79629769  0.60525990  0.50893710  1
  Hf  Hf16  1  0.10167041  0.71493075  0.13526249  1
  Hf  Hf17  1  0.90827926  0.09042283  0.89585052  1
  Hf  Hf18  1  0.80143926  -0.01090526  0.76665467  1
  Hf  Hf19  1  0.30289551  0.90350251  0.87002101  1
  Hf  Hf20  1  0.59845124  0.79673808  0.25081188  1
  Hf  Hf21  1  0.19796207  0.80542910  -0.00549657  1
  Hf  Hf22  1  0.40108584  0.19440075  0.73585435  1
  Hf  Hf23  1  0.41227120  0.60809821  -0.01801275  1
  Hf  Hf24  1  0.00593461  0.40353448  0.50899839  1
  Hf  Hf25  1  0.90853562  0.50461103  0.37503449  1
  Hf  Hf26  1  0.08481481  0.90910904  0.87522534  1
  Hf  Hf27  1  0.41224144  0.19455686  0.52434113  1
  Hf  Hf28  1  0.20693915  0.59730726  0.25230218  1
  Hf  Hf29  1  0.48852537  0.50163275  0.37989950  1
  Hf  Hf30  1  0.60979521  -0.00831232  0.50770117  1
  Hf  Hf31  1  -0.00601182  0.00642054  0.24986323  1
  Hf  Hf32  1  0.61197749  0.39355667  -0.02423234  1
  Hf  Hf33  1  0.09868818  0.89380304  0.62451840  1
  Hf  Hf34  1  0.40616398  -0.00616671  0.00520425  1
  Hf  Hf35  1  0.11186937  0.32815896  0.36980685  1
  Hf  Hf36  1  0.09760214  0.11571242  0.37376152  1
  Hf  Hf37  1  0.01008682  0.41743791  0.23457875  1
  Hf  Hf38  1  0.38505639  0.20014180  0.01343338  1
  Hf  Hf39  1  0.39514447  0.61239009  0.76230367  1
  Zr  Zr40  1  0.61704704  0.19012901  0.23386947  1
  Zr  Zr41  1  0.20487361  0.00106911  0.74360025  1
  Zr  Zr42  1  0.09408973  0.11650410  0.62928379  1
  Zr  Zr43  1  0.79117670  -0.00334552  0.24795312  1
  Zr  Zr44  1  0.21049808  0.79637384  0.48416087  1
  Zr  Zr45  1  0.09945819  0.91050623  0.13437065  1
  Zr  Zr46  1  0.88553980  0.90143566  0.61409401  1
  Zr  Zr47  1  0.30864627  0.29963938  0.38521106  1
  Zr  Zr48  1  0.69289236  0.10124774  0.87484887  1
  Zr  Zr49  1  0.08311422  0.70958415  0.36512051  1
  Zr  Zr50  1  -0.01092142  0.00942100  0.74445748  1
  Zr  Zr51  1  -0.00954265  0.40033928  0.75267454  1
  Zr  Zr52  1  0.40776453  0.19657211  0.23128012  1
  Zr  Zr53  1  0.21140929  0.21119680  0.24211644  1
  Zr  Zr54  1  0.80289600  0.38926580  0.50530890  1
  Zr  Zr55  1  -0.00110141  0.20752963  0.23522182  1
  Zr  Zr56  1  0.69134761  0.90436595  0.11102293  1
  Zr  Zr57  1  -0.00365989  0.60269567  0.74433595  1
  Zr  Zr58  1  0.68860361  0.48956871  0.11808580  1
  Zr  Zr59  1  0.11164734  0.11623818  0.87374220  1
  Zr  Zr60  1  0.50626570  0.29707785  0.37166710  1
  Zr  Zr61  1  0.79346627  0.21364838  0.00097463  1
  Zr  Zr62  1  0.10408567  0.70215636  0.62238111  1
  Zr  Zr63  1  0.29568387  0.49391728  0.87541291  1
  Zr  Zr64  1  0.79081792  0.59664693  0.24045991  1
  Zr  Zr65  1  0.80374165  0.39378288  0.24089858  1
  Zr  Zr66  1  0.40653087  0.39687791  0.74732979  1
  Zr  Zr67  1  -0.00269544  0.00169794  0.49724059  1
  Zr  Zr68  1  0.38863464  0.41056909  0.24350835  1
  Zr  Zr69  1  0.71286997  0.30047792  0.65664760  1
  Zr  Zr70  1  0.61523972  0.19889483  0.51761209  1
  Zr  Zr71  1  0.40254468  0.40690900  0.51821365  1
  Zr  Zr72  1  0.30486714  0.08592347  0.37749057  1
  Zr  Zr73  1  0.72580952  0.09117669  0.63529853  1
  Zr  Zr74  1  0.78554593  0.78993162  0.75370498  1
  Zr  Zr75  1  0.21080705  0.60956131  -0.00066054  1
  Zr  Zr76  1  0.19367387  0.40153654  0.74955058  1
  Zr  Zr77  1  0.50724166  0.10094722  0.37684874  1
  Zr  Zr78  1  0.20587367  -0.00150310  0.50357414  1
  Zr  Zr79  1  0.48274183  0.71243119  0.62065490  1
  Ta  Ta80  1  0.29379517  0.28407140  0.87044190  1
  Ta  Ta81  1  0.90379611  0.08844610  0.10357157  1
  Ta  Ta82  1  0.48898876  0.68775134  0.12520114  1
  Ta  Ta83  1  0.78459278  0.80232633  0.49627991  1
  Ta  Ta84  1  0.19751754  0.60444016  0.75894523  1
  Ta  Ta85  1  -0.00261090  0.60511822  0.50449034  1
  Ta  Ta86  1  0.68864001  0.69961983  0.11807660  1
  Ta  Ta87  1  0.09230109  0.49922274  0.88991659  1
  Ta  Ta88  1  0.39551926  0.79305706  -0.00586619  1
  Ta  Ta89  1  0.10258369  0.10311989  0.11572084  1
  Ta  Ta90  1  0.19626200  0.21123589  0.50304491  1
  Ta  Ta91  1  0.20476537  0.00916108  -0.00133493  1
  Ta  Ta92  1  0.90149376  0.51092265  0.88462602  1
  Ta  Ta93  1  0.60567560  0.62462438  0.74803353  1
  Ta  Ta94  1  0.29704587  0.51975771  0.62706892  1
  Ta  Ta95  1  0.60448693  0.40367643  0.25509405  1
  Ta  Ta96  1  0.69465105  0.69305753  0.88471003  1
  Ta  Ta97  1  0.80807996  0.18946640  0.23035913  1
  Ta  Ta98  1  0.30839688  0.87445167  0.63113722  1
  Ta  Ta99  1  0.58491685  0.59478257  0.24929641  1
  Ta  Ta100  1  0.80341973  0.79416689  0.24379930  1
  Ta  Ta101  1  0.00724894  0.20850139  0.00442225  1
  Ta  Ta102  1  0.30724399  0.10190923  0.87262289  1
  Ta  Ta103  1  0.88868011  0.70056943  0.37345932  1
  Ta  Ta104  1  0.11229711  0.30356720  0.11529100  1
  Ta  Ta105  1  0.40735590  -0.01486889  0.52082835  1
  Ta  Ta106  1  0.88975907  0.10621639  0.37907416  1
  Ta  Ta107  1  0.19628502  0.59552418  0.48863332  1
  Ta  Ta108  1  -0.00487276  0.40161882  0.00105539  1
  Ta  Ta109  1  0.80592880  0.60310387  0.74767028  1
  Ta  Ta110  1  0.28928693  0.30096989  0.62635694  1
  Ta  Ta111  1  0.29685210  0.88762480  0.12321678  1
  Ta  Ta112  1  0.19934043  0.40825880  0.51124303  1
  Ta  Ta113  1  0.79678990  0.79310081  0.00030955  1
  Ta  Ta114  1  0.59761299  0.79892864  0.49678431  1
  Ta  Ta115  1  0.80335709  0.40713626  -0.00831276  1
  Ta  Ta116  1  -0.01175100  0.80473682  0.00403202  1
  Ta  Ta117  1  -0.01613430  0.80183907  0.75114989  1
  Ta  Ta118  1  0.58742730  0.78992135  -0.00262627  1
  Ta  Ta119  1  -0.01391690  0.61277265  0.23317885  1
  Ti  Ti120  1  0.68676649  0.88270767  0.63105965  1
  Ti  Ti121  1  0.20020775  0.79251281  0.75767219  1
  Ti  Ti122  1  0.69810835  0.50008033  0.37464244  1
  Ti  Ti123  1  0.39025763  0.78102993  0.24725610  1
  Ti  Ti124  1  0.10268109  0.50354856  0.62568721  1
  Ti  Ti125  1  0.09621705  0.30047451  0.63303691  1
  Ti  Ti126  1  0.80082502  0.59979272  0.00955236  1
  Ti  Ti127  1  0.51056940  0.89956667  0.87958574  1
  Ti  Ti128  1  0.60113219  -0.00718530  0.25382086  1
  Ti  Ti129  1  0.32045350  0.51381916  0.11902685  1
  Ti  Ti130  1  0.60079852  -0.01001765  0.74745476  1
  Ti  Ti131  1  0.89669521  0.49608440  0.62683504  1
  Ti  Ti132  1  -0.00594452  0.20635415  0.50324360  1
  Ti  Ti133  1  0.70610301  0.09101319  0.10509032  1
  Ti  Ti134  1  0.51868607  0.50863969  0.85964146  1
  Ti  Ti135  1  0.21116444  0.80968655  0.26156536  1
  Ti  Ti136  1  0.50193349  0.50257056  0.64046324  1
  Ti  Ti137  1  0.11097753  0.91353774  0.36009382  1
  Ti  Ti138  1  -0.01084684  0.60787516  0.01622618  1
  Ti  Ti139  1  0.41117729  0.80017612  0.76208571  1
  Ti  Ti140  1  0.90098529  0.27933367  0.63823971  1
  Ti  Ti141  1  0.49728057  0.88567945  0.12255709  1
  Ti  Ti142  1  0.20649620  0.38749564  -0.00472103  1
  Ti  Ti143  1  0.60190227  0.59476228  -0.00506302  1
  Ti  Ti144  1  0.89861806  0.30615423  0.11623751  1
  Ti  Ti145  1  0.29397984  0.09871024  0.62318092  1
  Ti  Ti146  1  0.69865901  0.89586950  0.89049493  1
  Ti  Ti147  1  0.49593056  0.09267503  0.87585980  1
  Ti  Ti148  1  0.89663747  0.89694838  0.12010389  1
  Ti  Ti149  1  0.69296052  0.69880191  0.37182449  1
  Ti  Ti150  1  0.89704566  0.30135787  0.87229370  1
  Ti  Ti151  1  0.28992991  0.49947810  0.37765331  1
  Ti  Ti152  1  0.70778528  0.08571502  0.38056946  1
  Ti  Ti153  1  0.28886215  0.08944648  0.12738304  1
  Ti  Ti154  1  0.71182239  0.50007996  0.86006051  1
  Ti  Ti155  1  0.09959059  0.30213467  0.87761845  1
  Ti  Ti156  1  0.89221780  0.70128516  0.88207637  1
  Ti  Ti157  1  0.51061436  0.08046266  0.12287335  1
  Ti  Ti158  1  0.50214756  0.28880693  0.86666951  1
  Ti  Ti159  1  0.59523499  0.19513015  0.74582023  1
  Mo  Mo160  1  0.51245286  0.09390321  0.62934549  1
  Mo  Mo161  1  0.80872916  0.40874752  0.76403821  1
  Mo  Mo162  1  0.30633364  0.88975015  0.37041914  1
  Mo  Mo163  1  0.69954479  0.88739399  0.37285241  1
  Mo  Mo164  1  0.70187798  0.30094256  0.85505913  1
  Mo  Mo165  1  0.29616258  0.71043117  0.86726529  1
  Mo  Mo166  1  0.79468877  -0.00209213  0.49084221  1
  Mo  Mo167  1  0.80484679  -0.01204377  -0.00666201  1
  Mo  Mo168  1  -0.00128821  0.20730448  0.75987987  1
  Mo  Mo169  1  -0.02003251  0.78324890  0.50447617  1
  Mo  Mo170  1  0.37891072  0.60170614  0.50503628  1
  Mo  Mo171  1  0.29504188  0.32005774  0.11660595  1
  Mo  Mo172  1  0.69439486  0.70318943  0.62355864  1
  Mo  Mo173  1  0.20557505  0.20679592  0.74616118  1
  Mo  Mo174  1  0.28944071  0.70127100  0.63280036  1
  Mo  Mo175  1  0.59540115  -0.00549391  -0.00491330  1
  Mo  Mo176  1  0.89389720  0.70038060  0.62050439  1
  Mo  Mo177  1  0.89106507  0.70720337  0.12037251  1
  Mo  Mo178  1  0.20441490  0.20090657  0.00455101  1
  Mo  Mo179  1  0.82312058  0.19638371  0.76654829  1
  Mo  Mo180  1  0.89669313  0.88695550  0.88348739  1
  Mo  Mo181  1  0.09768986  0.51034156  0.37481880  1
  Mo  Mo182  1  0.39805589  0.80277753  0.50118961  1
  Mo  Mo183  1  0.00701676  -0.00430526  0.00587397  1
  Mo  Mo184  1  0.90250480  0.50327831  0.10827115  1
  Mo  Mo185  1  0.50778057  0.70647089  0.87315330  1
  Mo  Mo186  1  0.39974161  0.60067432  0.24708536  1
  Mo  Mo187  1  -0.01191746  0.80448683  0.24691904  1
  Mo  Mo188  1  0.70500586  0.29480075  0.12233043  1
  Mo  Mo189  1  0.50664735  0.30664013  0.63908932  1
  Mo  Mo190  1  0.60126270  0.40422147  0.76696387  1
  Mo  Mo191  1  0.81352509  0.19048802  0.50276075  1
  Mo  Mo192  1  0.50780207  0.50782488  0.11893397  1
  Mo  Mo193  1  0.50624295  0.89656742  0.62687905  1
  Mo  Mo194  1  0.30422438  0.70703022  0.12566197  1
  Mo  Mo195  1  0.29875415  0.69128780  0.37242174  1
  Mo  Mo196  1  0.20361540  0.40906662  0.24040303  1
  Mo  Mo197  1  0.59554604  0.80939569  0.76218819  1
  Mo  Mo198  1  0.20209437  0.00141123  0.24995888  1
  Mo  Mo199  1  0.89919521  0.10581743  0.62313255  1
