# generated using pymatgen
data_HfZrTaTiMo
_symmetry_space_group_name_H-M   'P 1'
_cell_length_a   15.20691643
_cell_length_b   15.20259590
_cell_length_c   16.84882332
_cell_angle_alpha   89.95151811
_cell_angle_beta   89.96361035
_cell_angle_gamma   89.98469938
_symmetry_Int_Tables_number   1
_chemical_formula_structural   HfZrTaTiMo
_chemical_formula_sum   'Hf40 Zr40 Ta40 Ti40 Mo40'
_cell_volume   3895.18625273
_cell_formula_units_Z   40
loop_
 _symmetry_equiv_pos_site_id
 _symmetry_equiv_pos_as_xyz
  1  'x, y, z'
loop_
 _atom_site_type_symbol
 _atom_site_label
 _atom_site_symmetry_multiplicity
 _atom_site_fract_x
 _atom_site_fract_y
 _atom_site_fract_z
 _atom_site_occupancy
  Hf  Hf0  1  0.79048966  0.19302160  0.25795297  1
  Hf  Hf1  1  0.61061037  0.79218191  0.25188271  1
  Hf  Hf2  1  0.10044976  0.68695401  0.61940880  1
  Hf  Hf3  1  0.60255132  0.00617672  0.48485907  1
  Hf  Hf4  1  0.50241299  0.31723284  0.15110473  1
  Hf  Hf5  1  0.40193770  0.59287447  -0.00148232  1
  Hf  Hf6  1  0.90681399  0.70490926  0.88302223  1
  Hf  Hf7  1  0.11006119  0.90129558  0.87900317  1
  Hf  Hf8  1  0.66797179  0.49475986  0.88574708  1
  Hf  Hf9  1  0.09783925  0.32800858  0.61746190  1
  Hf  Hf10  1  0.50942190  0.90316922  0.63263039  1
  Hf  Hf11  1  0.50043708  0.31162042  0.86738424  1
  Hf  Hf12  1  0.79225226  0.00483684  0.75881004  1
  Hf  Hf13  1  0.21463276  0.00671752  0.50349180  1
  Hf  Hf14  1  0.90887030  0.29403703  0.86973909  1
  Hf  Hf15  1  0.79162191  0.59203552  0.23771169  1
  Hf  Hf16  1  0.78928155  0.41711907  0.50688388  1
  Hf  Hf17  1  0.60153109  0.01641699  0.00019072  1
  Hf  Hf18  1  0.89394071  0.48353739  0.12298342  1
  Hf  Hf19  1  0.61677769  0.00725983  0.25593487  1
  Hf  Hf20  1  -0.00262676  0.20863813  0.50017658  1
  Hf  Hf21  1  0.10987827  0.90111283  0.37898019  1
  Hf  Hf22  1  0.11000740  0.50319507  0.88163654  1
  Hf  Hf23  1  0.29077879  0.69576491  0.12234024  1
  Hf  Hf24  1  0.31182877  0.49290762  0.13739157  1
  Hf  Hf25  1  0.69233221  0.70010856  0.10725745  1
  Hf  Hf26  1  0.82248373  -0.00333572  0.25161414  1
  Hf  Hf27  1  0.79718573  0.59237594  -0.01068240  1
  Hf  Hf28  1  0.69559553  0.28727366  0.86818439  1
  Hf  Hf29  1  0.39768064  0.19391823  -0.00003173  1
  Hf  Hf30  1  0.50566415  0.29605219  0.36641750  1
  Hf  Hf31  1  0.59527057  0.60441572  0.74083581  1
  Hf  Hf32  1  0.10202884  0.92712482  0.12566523  1
  Hf  Hf33  1  0.39479770  0.00113030  0.75070302  1
  Hf  Hf34  1  0.20570742  0.79871192  0.74714455  1
  Hf  Hf35  1  0.70587938  0.89673681  0.62572130  1
  Hf  Hf36  1  0.68144299  0.48733019  0.11276142  1
  Hf  Hf37  1  0.69415445  0.09894418  0.61501069  1
  Hf  Hf38  1  0.30750542  0.90718153  0.12276824  1
  Hf  Hf39  1  0.58764568  0.39757583  0.50989174  1
  Zr  Zr40  1  0.20380135  0.00506311  0.74299184  1
  Zr  Zr41  1  0.40006498  0.59890500  0.26338317  1
  Zr  Zr42  1  0.01535694  0.59857215  0.00900354  1
  Zr  Zr43  1  0.00310363  0.39044288  0.25745160  1
  Zr  Zr44  1  -0.00114976  0.00482281  0.74512645  1
  Zr  Zr45  1  0.52495078  0.69912175  0.88637213  1
  Zr  Zr46  1  0.29174306  0.30108645  0.13907539  1
  Zr  Zr47  1  0.49762869  0.70232167  0.61841116  1
  Zr  Zr48  1  0.11125904  0.11209037  0.61499921  1
  Zr  Zr49  1  0.60486788  0.79868283  0.49175952  1
  Zr  Zr50  1  0.19514912  0.80189373  0.24784058  1
  Zr  Zr51  1  0.11399061  0.49734395  0.13329229  1
  Zr  Zr52  1  0.70471304  0.29320620  0.13011518  1
  Zr  Zr53  1  0.40351380  0.79123634  0.75560478  1
  Zr  Zr54  1  0.89678468  0.91154247  0.10785907  1
  Zr  Zr55  1  0.80006842  0.59798212  0.76740728  1
  Zr  Zr56  1  0.71838897  0.90083442  0.37834137  1
  Zr  Zr57  1  0.28428718  0.09998385  0.12756104  1
  Zr  Zr58  1  0.50761851  0.69822603  0.37922732  1
  Zr  Zr59  1  0.18046344  0.21267778  0.27042158  1
  Zr  Zr60  1  0.80256864  0.39938757  0.74769010  1
  Zr  Zr61  1  -0.00243478  0.61395411  0.24497081  1
  Zr  Zr62  1  0.38352132  0.40162558  0.73747797  1
  Zr  Zr63  1  0.61998282  0.58637910  0.50942586  1
  Zr  Zr64  1  0.29214984  0.69472349  0.88362188  1
  Zr  Zr65  1  0.90315621  0.90651178  0.88755000  1
  Zr  Zr66  1  0.81947277  0.78215197  0.49974945  1
  Zr  Zr67  1  0.49426522  0.90819031  0.87883210  1
  Zr  Zr68  1  0.49833294  0.10641910  0.13962721  1
  Zr  Zr69  1  0.92123049  0.89103377  0.38189580  1
  Zr  Zr70  1  0.40038392  0.58722661  0.49224075  1
  Zr  Zr71  1  0.50469881  0.90029719  0.12491331  1
  Zr  Zr72  1  0.27740865  0.49721833  0.61261946  1
  Zr  Zr73  1  0.41544461  0.39735740  0.00032441  1
  Zr  Zr74  1  0.59129554  0.40311949  0.72509433  1
  Zr  Zr75  1  0.80280879  0.17667840  -0.00786941  1
  Zr  Zr76  1  0.69374629  0.88436407  0.88613202  1
  Zr  Zr77  1  0.39560769  0.19643340  0.75266011  1
  Zr  Zr78  1  0.88791548  0.30425389  0.37925383  1
  Zr  Zr79  1  -0.00092438  0.20811271  0.73766575  1
  Ta  Ta80  1  0.89240907  0.30287125  0.61765049  1
  Ta  Ta81  1  0.20378647  0.20875113  0.75216155  1
  Ta  Ta82  1  0.28976363  0.28444109  0.61198800  1
  Ta  Ta83  1  0.00955777  0.59147194  0.75405574  1
  Ta  Ta84  1  0.90394747  0.89436985  0.62587395  1
  Ta  Ta85  1  0.00403014  0.38832297  0.00523975  1
  Ta  Ta86  1  0.91164284  0.50438026  0.62895235  1
  Ta  Ta87  1  0.20293956  0.39881003  0.00045227  1
  Ta  Ta88  1  0.49492884  0.09749275  0.61833175  1
  Ta  Ta89  1  0.08667700  0.09386819  0.38698369  1
  Ta  Ta90  1  0.50037246  0.09726789  0.36485898  1
  Ta  Ta91  1  0.72278939  0.67859514  0.37475177  1
  Ta  Ta92  1  -0.00680645  0.42005414  0.49205379  1
  Ta  Ta93  1  0.29509192  0.09399302  0.88316075  1
  Ta  Ta94  1  0.00298274  0.79720356  0.74940268  1
  Ta  Ta95  1  0.19977040  0.60249285  0.26756803  1
  Ta  Ta96  1  0.69939445  0.28902489  0.61892232  1
  Ta  Ta97  1  0.71334268  0.69638814  0.62976683  1
  Ta  Ta98  1  0.49708952  0.69371219  0.12209350  1
  Ta  Ta99  1  0.10213669  0.89035764  0.61938123  1
  Ta  Ta100  1  0.38848581  0.19135902  0.26502623  1
  Ta  Ta101  1  0.70671146  0.89757196  0.11131223  1
  Ta  Ta102  1  0.09240622  0.50645959  0.37330129  1
  Ta  Ta103  1  0.40059107  0.80062510  0.25298250  1
  Ta  Ta104  1  0.29149859  0.70946222  0.38288682  1
  Ta  Ta105  1  0.29801241  0.70269144  0.61294775  1
  Ta  Ta106  1  0.89600771  0.70552384  0.11240134  1
  Ta  Ta107  1  0.80173406  0.38558308  -0.00849726  1
  Ta  Ta108  1  0.40448949  -0.00142719  0.49338428  1
  Ta  Ta109  1  -0.00372996  0.81005921  0.23409026  1
  Ta  Ta110  1  0.48951003  0.28277127  0.61445900  1
  Ta  Ta111  1  0.90566230  0.69803217  0.63731284  1
  Ta  Ta112  1  0.01295036  0.80235439  0.01199677  1
  Ta  Ta113  1  0.10273279  0.30799053  0.87293307  1
  Ta  Ta114  1  0.90478380  0.28715156  0.12738239  1
  Ta  Ta115  1  0.88768466  0.09142467  0.39548401  1
  Ta  Ta116  1  -0.00881984  0.18076153  0.26027073  1
  Ta  Ta117  1  0.39495669  0.19088447  0.48397312  1
  Ta  Ta118  1  0.20399641  0.20867087  0.47795853  1
  Ta  Ta119  1  0.59607623  0.21303738  0.00183680  1
  Ti  Ti120  1  0.29105599  0.29742550  0.87704650  1
  Ti  Ti121  1  0.69404358  0.30134017  0.37832195  1
  Ti  Ti122  1  0.19789584  0.79703582  0.00534912  1
  Ti  Ti123  1  0.10228798  0.70023330  0.87611907  1
  Ti  Ti124  1  0.19832471  0.01586902  0.25893976  1
  Ti  Ti125  1  0.88621101  0.10010692  0.60948590  1
  Ti  Ti126  1  0.39686618  0.80721466  0.49329478  1
  Ti  Ti127  1  0.80784305  0.79128994  0.24659815  1
  Ti  Ti128  1  0.39782510  0.59159284  0.74497559  1
  Ti  Ti129  1  0.20452645  0.59717795  0.74552305  1
  Ti  Ti130  1  0.79833276  0.79653700  0.75554901  1
  Ti  Ti131  1  0.80051075  0.19243559  0.74860834  1
  Ti  Ti132  1  0.49671855  0.90084344  0.36323311  1
  Ti  Ti133  1  0.70973814  0.09305236  0.12454236  1
  Ti  Ti134  1  0.30286282  0.49228431  0.87454565  1
  Ti  Ti135  1  0.00113499  0.02119388  -0.00918574  1
  Ti  Ti136  1  0.30202870  0.31583902  0.36604053  1
  Ti  Ti137  1  0.19766151  0.00850033  -0.00360906  1
  Ti  Ti138  1  0.40055917  0.80655711  -0.00162472  1
  Ti  Ti139  1  0.30818855  0.90764672  0.36777261  1
  Ti  Ti140  1  0.59956761  0.59195032  0.25034660  1
  Ti  Ti141  1  0.60020943  0.18618600  0.74502136  1
  Ti  Ti142  1  0.88182688  0.51388901  0.37068623  1
  Ti  Ti143  1  0.30860277  0.89835241  0.61932464  1
  Ti  Ti144  1  0.50562315  0.10621122  0.87355844  1
  Ti  Ti145  1  0.09705483  0.11288838  0.86930498  1
  Ti  Ti146  1  0.18672002  0.40471021  0.74912462  1
  Ti  Ti147  1  0.18974871  0.60003750  0.48518527  1
  Ti  Ti148  1  0.91288424  0.48900408  0.87916457  1
  Ti  Ti149  1  -0.01617893  0.61243552  0.49241084  1
  Ti  Ti150  1  0.19243529  0.40248109  0.47929293  1
  Ti  Ti151  1  0.00347201  0.20201949  -0.00328155  1
  Ti  Ti152  1  -0.00008047  -0.00771059  0.51375863  1
  Ti  Ti153  1  0.91368833  0.10067007  0.12484607  1
  Ti  Ti154  1  0.09619547  0.29217829  0.12628315  1
  Ti  Ti155  1  0.39043745  0.39237882  0.49905510  1
  Ti  Ti156  1  0.18887632  0.20449987  -0.00353058  1
  Ti  Ti157  1  0.08431392  0.71003815  0.38128446  1
  Ti  Ti158  1  0.50573623  0.48676178  0.36781721  1
  Ti  Ti159  1  0.20207069  0.80085935  0.50114109  1
  Mo  Mo160  1  0.31359784  0.10926710  0.61581214  1
  Mo  Mo161  1  0.48779242  0.49226888  0.62079086  1
  Mo  Mo162  1  0.20710009  0.59400860  0.00091323  1
  Mo  Mo163  1  0.00872938  0.00719165  0.25501276  1
  Mo  Mo164  1  0.29480029  0.50187484  0.38149077  1
  Mo  Mo165  1  0.80920225  -0.00179767  0.50811482  1
  Mo  Mo166  1  0.79853901  0.00281928  -0.00495922  1
  Mo  Mo167  1  0.90520609  0.10313721  0.87048286  1
  Mo  Mo168  1  0.81400257  0.59401214  0.50491626  1
  Mo  Mo169  1  0.79002278  0.20518220  0.49985060  1
  Mo  Mo170  1  0.60194802  0.19579531  0.25548464  1
  Mo  Mo171  1  0.70715441  0.50216538  0.63166539  1
  Mo  Mo172  1  0.48611658  0.50219084  0.86603876  1
  Mo  Mo173  1  0.69036398  0.09716682  0.86687326  1
  Mo  Mo174  1  0.70397421  0.70067439  0.88555626  1
  Mo  Mo175  1  0.61523513  0.40554534  0.25994278  1
  Mo  Mo176  1  0.39765156  -0.00595484  0.26041044  1
  Mo  Mo177  1  0.90616704  0.69813560  0.36346385  1
  Mo  Mo178  1  0.09095685  0.50932916  0.61224378  1
  Mo  Mo179  1  0.40107050  0.40163242  0.26301251  1
  Mo  Mo180  1  0.59819006  0.38965079  -0.00089740  1
  Mo  Mo181  1  0.50350257  0.50779553  0.13583484  1
  Mo  Mo182  1  0.79755258  0.39920157  0.25354892  1
  Mo  Mo183  1  0.59128183  0.20065112  0.49880682  1
  Mo  Mo184  1  0.08837732  0.11757206  0.12156730  1
  Mo  Mo185  1  0.59280116  0.80056913  0.01238024  1
  Mo  Mo186  1  0.20125993  0.41179457  0.27086654  1
  Mo  Mo187  1  0.09146756  0.30595822  0.38565919  1
  Mo  Mo188  1  0.10055185  0.71016703  0.12625797  1
  Mo  Mo189  1  0.58708120  0.59153788  0.00511568  1
  Mo  Mo190  1  0.00300059  0.40932917  0.74949297  1
  Mo  Mo191  1  0.29665546  0.90333707  0.89489815  1
  Mo  Mo192  1  0.01145887  0.79713122  0.50992566  1
  Mo  Mo193  1  0.39148259  0.00270175  -0.00609115  1
  Mo  Mo194  1  0.80330459  0.79574183  -0.00067265  1
  Mo  Mo195  1  0.61783801  0.79941879  0.74622203  1
  Mo  Mo196  1  0.29639147  0.09719156  0.37124304  1
  Mo  Mo197  1  0.70197578  0.11318901  0.38776032  1
  Mo  Mo198  1  0.69729017  0.49216405  0.36866397  1
  Mo  Mo199  1  0.59711736  0.00857860  0.75426143  1
