# generated using pymatgen
data_HfZrTaTiMo
_symmetry_space_group_name_H-M   'P 1'
_cell_length_a   15.21649262
_cell_length_b   15.20545903
_cell_length_c   16.81260583
_cell_angle_alpha   89.99967343
_cell_angle_beta   90.02677466
_cell_angle_gamma   89.90911116
_symmetry_Int_Tables_number   1
_chemical_formula_structural   HfZrTaTiMo
_chemical_formula_sum   'Hf40 Zr40 Ta40 Ti40 Mo40'
_cell_volume   3889.99042698
_cell_formula_units_Z   40
loop_
 _symmetry_equiv_pos_site_id
 _symmetry_equiv_pos_as_xyz
  1  'x, y, z'
loop_
 _atom_site_type_symbol
 _atom_site_label
 _atom_site_symmetry_multiplicity
 _atom_site_fract_x
 _atom_site_fract_y
 _atom_site_fract_z
 _atom_site_occupancy
  Hf  Hf0  1  0.29476139  0.49696496  0.85559285  1
  Hf  Hf1  1  0.69882533  0.89577218  0.38434642  1
  Hf  Hf2  1  0.11275723  0.30101115  0.38373267  1
  Hf  Hf3  1  0.50626058  0.88900665  0.86427538  1
  Hf  Hf4  1  0.00166543  0.78613476  0.50196427  1
  Hf  Hf5  1  0.40883785  0.19174019  0.26388375  1
  Hf  Hf6  1  -0.00045034  -0.01145504  -0.01004508  1
  Hf  Hf7  1  0.40282057  0.20277411  -0.00514321  1
  Hf  Hf8  1  0.49304332  0.89170323  0.38765847  1
  Hf  Hf9  1  0.49723846  0.67664740  0.38450825  1
  Hf  Hf10  1  0.89144858  0.89120696  0.38000219  1
  Hf  Hf11  1  0.50514735  0.31156507  0.85846346  1
  Hf  Hf12  1  0.27600420  0.69072914  0.11250235  1
  Hf  Hf13  1  -0.00778379  0.78646393  -0.00910989  1
  Hf  Hf14  1  0.20603502  0.42387592  0.00288269  1
  Hf  Hf15  1  0.39482862  0.19533627  0.50176264  1
  Hf  Hf16  1  0.79625104  -0.00221162  0.72570606  1
  Hf  Hf17  1  0.41182782  0.40699452  0.26078986  1
  Hf  Hf18  1  0.29909150  0.29985865  0.86347477  1
  Hf  Hf19  1  0.78973347  0.80853826  -0.00185769  1
  Hf  Hf20  1  -0.00062393  -0.00085883  0.73919366  1
  Hf  Hf21  1  0.69387307  0.70842240  0.12682334  1
  Hf  Hf22  1  0.20976843  0.42812712  0.24480160  1
  Hf  Hf23  1  0.71508678  0.28784922  0.12256660  1
  Hf  Hf24  1  0.69597968  0.51407329  0.37928568  1
  Hf  Hf25  1  0.69604902  0.70784518  0.87418017  1
  Hf  Hf26  1  0.51277858  0.29952002  0.39208021  1
  Hf  Hf27  1  0.79446511  0.79143261  0.73241206  1
  Hf  Hf28  1  0.89971972  0.89477943  0.13638508  1
  Hf  Hf29  1  0.89835253  0.68810989  0.13462582  1
  Hf  Hf30  1  0.90878613  0.08320494  0.39155211  1
  Hf  Hf31  1  0.62451002  0.20248907  0.73417996  1
  Hf  Hf32  1  0.18274113  0.20040730  0.73267731  1
  Hf  Hf33  1  0.38583427  0.59596958  0.24355211  1
  Hf  Hf34  1  0.29362430  0.10089218  0.87121424  1
  Hf  Hf35  1  0.18763103  0.80303440  -0.01934361  1
  Hf  Hf36  1  0.89346924  0.10338920  0.12655698  1
  Hf  Hf37  1  0.20208080  0.20197164  0.24366639  1
  Hf  Hf38  1  0.60751719  0.40959099  -0.00165243  1
  Hf  Hf39  1  0.01521328  0.18958756  0.50264037  1
  Zr  Zr40  1  0.42099887  0.58127165  0.74929942  1
  Zr  Zr41  1  0.69975014  0.09867265  0.39955033  1
  Zr  Zr42  1  0.19854483  0.62243176  0.51696222  1
  Zr  Zr43  1  0.49108967  0.09770276  0.62378925  1
  Zr  Zr44  1  0.81093744  0.40794355  0.25847147  1
  Zr  Zr45  1  0.51122892  0.09251193  0.12543256  1
  Zr  Zr46  1  0.59282772  0.59411029  0.24498213  1
  Zr  Zr47  1  0.30605235  0.31018542  0.12251771  1
  Zr  Zr48  1  0.88937630  0.10951539  0.86508077  1
  Zr  Zr49  1  0.30332905  0.30999138  0.63243663  1
  Zr  Zr50  1  0.38044212  0.78460362  0.49751686  1
  Zr  Zr51  1  0.79460715  0.01182481  0.00219427  1
  Zr  Zr52  1  0.70703187  0.30258768  0.39329058  1
  Zr  Zr53  1  0.00980345  0.59972708  0.26546739  1
  Zr  Zr54  1  0.29254213  0.70370879  0.65333328  1
  Zr  Zr55  1  0.50690557  0.30555114  0.62504784  1
  Zr  Zr56  1  0.30229799  0.30936065  0.38290086  1
  Zr  Zr57  1  0.39787493  -0.00618114  -0.00792687  1
  Zr  Zr58  1  0.00667427  0.80338317  0.26003624  1
  Zr  Zr59  1  0.00660280  0.18839839  0.25895009  1
  Zr  Zr60  1  0.91042442  0.48042573  0.61135321  1
  Zr  Zr61  1  0.61793631  0.18470507  -0.00269508  1
  Zr  Zr62  1  0.50704236  0.09738906  0.86266302  1
  Zr  Zr63  1  0.08804671  0.32599774  0.61605862  1
  Zr  Zr64  1  0.38389144  -0.00778738  0.26188666  1
  Zr  Zr65  1  0.81348296  0.39397033  0.74633896  1
  Zr  Zr66  1  0.81648291  0.41029772  -0.00562901  1
  Zr  Zr67  1  0.38700372  0.79166194  0.25514154  1
  Zr  Zr68  1  0.39299764  0.79212895  -0.01451124  1
  Zr  Zr69  1  0.29056591  0.89774994  0.63035065  1
  Zr  Zr70  1  0.49814305  0.88527660  0.12318467  1
  Zr  Zr71  1  0.10338139  0.31092864  0.88064037  1
  Zr  Zr72  1  0.11085590  0.53361236  0.12051238  1
  Zr  Zr73  1  0.50587223  0.29868597  0.12306698  1
  Zr  Zr74  1  0.60588239  0.39632963  0.24760783  1
  Zr  Zr75  1  0.59346760  0.00465131  0.26197547  1
  Zr  Zr76  1  0.71314750  0.29501510  0.87198194  1
  Zr  Zr77  1  0.90961051  0.30231529  0.12692073  1
  Zr  Zr78  1  0.09175230  0.10861244  0.87395079  1
  Zr  Zr79  1  0.29339705  0.09047119  0.12208253  1
  Ta  Ta80  1  0.79870337  0.60226037  0.50706508  1
  Ta  Ta81  1  0.17758151  -0.00379980  0.25133672  1
  Ta  Ta82  1  0.70666280  0.51308820  0.86656678  1
  Ta  Ta83  1  0.60887023  -0.02106296  -0.00211393  1
  Ta  Ta84  1  0.49109300  0.69193860  0.11203794  1
  Ta  Ta85  1  0.01222196  0.39993455  0.26359613  1
  Ta  Ta86  1  0.80069173  0.00362527  0.25360896  1
  Ta  Ta87  1  0.90651661  0.30043431  0.39181167  1
  Ta  Ta88  1  0.59194331  -0.00882194  0.51544450  1
  Ta  Ta89  1  0.60745361  0.41492717  0.51434972  1
  Ta  Ta90  1  0.09760666  0.31380728  0.12160957  1
  Ta  Ta91  1  0.30598426  0.52270226  0.38721181  1
  Ta  Ta92  1  0.10190553  0.89741355  0.12225016  1
  Ta  Ta93  1  0.48848574  0.89054856  0.62644870  1
  Ta  Ta94  1  0.19352870  0.00001286  0.74563051  1
  Ta  Ta95  1  0.62048757  0.60548690  0.73262043  1
  Ta  Ta96  1  0.20515321  0.19280477  0.51818468  1
  Ta  Ta97  1  -0.00494303  0.79557399  0.75022589  1
  Ta  Ta98  1  0.19322149  -0.00419905  -0.00755081  1
  Ta  Ta99  1  0.69914612  0.90458231  0.86281521  1
  Ta  Ta100  1  0.39515872  0.58980800  -0.01379891  1
  Ta  Ta101  1  -0.01158626  0.59376445  0.75022449  1
  Ta  Ta102  1  0.60180311  -0.00574190  0.72970085  1
  Ta  Ta103  1  0.27912743  0.09298094  0.38132478  1
  Ta  Ta104  1  0.71824364  0.51086992  0.12644603  1
  Ta  Ta105  1  0.89795421  0.10085256  0.61000991  1
  Ta  Ta106  1  0.79574160  0.79488880  0.51640848  1
  Ta  Ta107  1  0.50727955  0.68884241  0.87002552  1
  Ta  Ta108  1  0.91402269  0.49795178  0.12998014  1
  Ta  Ta109  1  0.60259826  0.60393594  0.51978542  1
  Ta  Ta110  1  0.91256061  0.30249618  0.87943740  1
  Ta  Ta111  1  0.39470327  -0.00727395  0.74906090  1
  Ta  Ta112  1  0.70099832  0.09107042  0.86061584  1
  Ta  Ta113  1  0.49742310  0.70279538  0.63042962  1
  Ta  Ta114  1  0.59524368  0.79484341  0.25625106  1
  Ta  Ta115  1  0.09173981  0.92023723  0.38783670  1
  Ta  Ta116  1  0.38141792  -0.00375453  0.49942454  1
  Ta  Ta117  1  0.80043845  0.19539027  0.26498979  1
  Ta  Ta118  1  0.69767730  0.90576354  0.13905585  1
  Ta  Ta119  1  0.60464223  0.41951437  0.73791919  1
  Ti  Ti120  1  0.29483670  0.49501486  0.64053912  1
  Ti  Ti121  1  0.60217498  0.60315481  0.00002808  1
  Ti  Ti122  1  0.00099766  0.58719007  -0.01211022  1
  Ti  Ti123  1  0.39703360  0.19508034  0.74402630  1
  Ti  Ti124  1  0.49882481  0.50175682  0.11527187  1
  Ti  Ti125  1  0.09371840  0.09557614  0.11831145  1
  Ti  Ti126  1  0.18410922  0.00933041  0.51647202  1
  Ti  Ti127  1  0.28948251  0.89600668  0.12154278  1
  Ti  Ti128  1  0.90551819  0.68918765  0.62694971  1
  Ti  Ti129  1  0.49954668  0.09507970  0.39452586  1
  Ti  Ti130  1  0.00501978  0.59409837  0.49932181  1
  Ti  Ti131  1  0.18220858  0.80533728  0.76181001  1
  Ti  Ti132  1  0.09179437  0.89083712  0.62230720  1
  Ti  Ti133  1  0.59880495  0.79237743  0.51116313  1
  Ti  Ti134  1  0.59797763  0.80009791  0.73549625  1
  Ti  Ti135  1  0.60964876  0.19579417  0.25426859  1
  Ti  Ti136  1  0.17606577  0.59149929  0.74453035  1
  Ti  Ti137  1  0.19554134  0.79625896  0.24819422  1
  Ti  Ti138  1  0.80663451  0.60242125  -0.00167715  1
  Ti  Ti139  1  -0.00327530  0.20496771  0.00359993  1
  Ti  Ti140  1  -0.02229340  0.21626310  0.73074803  1
  Ti  Ti141  1  0.70342553  0.10483332  0.60331205  1
  Ti  Ti142  1  0.12021369  0.71137858  0.38102363  1
  Ti  Ti143  1  0.20200794  0.41811858  0.50564832  1
  Ti  Ti144  1  0.19640392  0.20143015  0.00807115  1
  Ti  Ti145  1  0.29976905  0.69762777  0.85707280  1
  Ti  Ti146  1  0.40129628  0.59190270  0.52025077  1
  Ti  Ti147  1  0.72370132  0.30240197  0.60663186  1
  Ti  Ti148  1  0.09454976  0.68999958  0.86650368  1
  Ti  Ti149  1  0.29240706  0.89950397  0.86165545  1
  Ti  Ti150  1  0.01520175  0.41168368  0.75786578  1
  Ti  Ti151  1  0.70291018  0.70545445  0.37418092  1
  Ti  Ti152  1  0.88461656  0.69334787  0.37125961  1
  Ti  Ti153  1  0.11216682  0.50947057  0.38057848  1
  Ti  Ti154  1  0.27442582  0.89313117  0.38485017  1
  Ti  Ti155  1  0.40932372  0.40662710  -0.01097384  1
  Ti  Ti156  1  0.89307301  0.89414937  0.86688469  1
  Ti  Ti157  1  0.89028172  0.68530944  0.86515173  1
  Ti  Ti158  1  0.90243822  0.50108557  0.38511643  1
  Ti  Ti159  1  0.40308973  0.41187289  0.50180583  1
  Mo  Mo160  1  0.01130504  0.40899471  0.47716179  1
  Mo  Mo161  1  0.00691042  0.40421622  0.00310868  1
  Mo  Mo162  1  0.29660408  0.09553930  0.63023994  1
  Mo  Mo163  1  0.70261020  0.69902440  0.62226288  1
  Mo  Mo164  1  0.10760039  0.09542959  0.38141518  1
  Mo  Mo165  1  0.89654087  0.29438543  0.59773425  1
  Mo  Mo166  1  0.00108699  -0.00051267  0.24833293  1
  Mo  Mo167  1  0.29299821  0.70262388  0.37730228  1
  Mo  Mo168  1  0.10127139  0.51113289  0.62291469  1
  Mo  Mo169  1  0.70431232  0.09535523  0.13746711  1
  Mo  Mo170  1  0.20260306  0.61717989  0.26014755  1
  Mo  Mo171  1  0.51852321  0.50481092  0.87749377  1
  Mo  Mo172  1  0.09590892  0.09812369  0.63317537  1
  Mo  Mo173  1  0.59872323  0.79611911  -0.00223362  1
  Mo  Mo174  1  0.69029438  0.89775688  0.61584552  1
  Mo  Mo175  1  0.20109644  0.61373916  -0.02268514  1
  Mo  Mo176  1  0.79966091  -0.01229555  0.51810005  1
  Mo  Mo177  1  0.49572377  0.49782249  0.39479499  1
  Mo  Mo178  1  0.00205395  -0.01387079  0.51797797  1
  Mo  Mo179  1  0.80707859  0.19812065  0.49627167  1
  Mo  Mo180  1  0.80778880  0.20078309  -0.00497671  1
  Mo  Mo181  1  0.08883428  0.70386984  0.64099534  1
  Mo  Mo182  1  0.09579093  0.50921416  0.87720733  1
  Mo  Mo183  1  0.19584071  0.40687451  0.74690958  1
  Mo  Mo184  1  0.60047592  0.20128696  0.51456444  1
  Mo  Mo185  1  0.09216823  0.89897963  0.86444579  1
  Mo  Mo186  1  0.40775906  0.39398676  0.75107314  1
  Mo  Mo187  1  0.80323516  0.59323716  0.74427966  1
  Mo  Mo188  1  0.09109505  0.71480593  0.11884558  1
  Mo  Mo189  1  0.31772177  0.50869782  0.11338799  1
  Mo  Mo190  1  0.90424332  0.50255346  0.87170586  1
  Mo  Mo191  1  0.49849915  0.50046709  0.61856495  1
  Mo  Mo192  1  0.80086039  0.60454373  0.25629807  1
  Mo  Mo193  1  0.78812888  0.79892892  0.25594680  1
  Mo  Mo194  1  0.40241959  0.79685738  0.76163858  1
  Mo  Mo195  1  0.18832586  0.81672401  0.50357602  1
  Mo  Mo196  1  0.80466344  0.41052275  0.48982432  1
  Mo  Mo197  1  0.80664396  0.19777768  0.73223114  1
  Mo  Mo198  1  0.70796684  0.49720546  0.62273938  1
  Mo  Mo199  1  0.90195657  0.88960447  0.61842688  1
