# generated using pymatgen
data_HfZrTaTiMo
_symmetry_space_group_name_H-M   'P 1'
_cell_length_a   15.20483347
_cell_length_b   15.21128604
_cell_length_c   16.85559023
_cell_angle_alpha   90.01275495
_cell_angle_beta   90.06086342
_cell_angle_gamma   90.03975690
_symmetry_Int_Tables_number   1
_chemical_formula_structural   HfZrTaTiMo
_chemical_formula_sum   'Hf40 Zr40 Ta40 Ti40 Mo40'
_cell_volume   3898.44314945
_cell_formula_units_Z   40
loop_
 _symmetry_equiv_pos_site_id
 _symmetry_equiv_pos_as_xyz
  1  'x, y, z'
loop_
 _atom_site_type_symbol
 _atom_site_label
 _atom_site_symmetry_multiplicity
 _atom_site_fract_x
 _atom_site_fract_y
 _atom_site_fract_z
 _atom_site_occupancy
  Hf  Hf0  1  0.00129529  0.20684901  0.50214653  1
  Hf  Hf1  1  0.20045896  0.38758763  0.00717434  1
  Hf  Hf2  1  0.60908647  0.00619035  0.49885642  1
  Hf  Hf3  1  0.79392178  0.00753982  0.75807269  1
  Hf  Hf4  1  0.29517310  0.10432850  0.38037979  1
  Hf  Hf5  1  0.70689766  0.49941133  0.63328638  1
  Hf  Hf6  1  0.59550835  0.58497406  0.25034995  1
  Hf  Hf7  1  0.31615432  0.50563016  0.11394496  1
  Hf  Hf8  1  0.29637745  0.70089895  0.86116221  1
  Hf  Hf9  1  0.50366031  0.48378623  0.38398339  1
  Hf  Hf10  1  0.00263752  0.00711761  0.51644401  1
  Hf  Hf11  1  0.68830232  0.10681298  0.12112377  1
  Hf  Hf12  1  0.49730324  0.89144491  0.61907123  1
  Hf  Hf13  1  0.19740775  0.18565095  0.00822212  1
  Hf  Hf14  1  0.78739444  0.21662358  0.00693033  1
  Hf  Hf15  1  0.61240068  0.38254874  -0.01458300  1
  Hf  Hf16  1  0.00546997  0.01368574  -0.01095108  1
  Hf  Hf17  1  0.69850588  0.89632114  0.62909267  1
  Hf  Hf18  1  0.48851497  0.68500227  0.12287969  1
  Hf  Hf19  1  0.20609371  0.61038083  0.00654583  1
  Hf  Hf20  1  0.89935112  0.89956034  0.11188236  1
  Hf  Hf21  1  0.09559918  0.10086145  0.36977428  1
  Hf  Hf22  1  0.90392053  0.89455437  0.39014993  1
  Hf  Hf23  1  0.50656497  0.90108896  0.38248393  1
  Hf  Hf24  1  0.19445607  0.79803510  0.24978271  1
  Hf  Hf25  1  0.69480456  0.70719570  0.37111789  1
  Hf  Hf26  1  0.71224918  0.49545563  0.37851022  1
  Hf  Hf27  1  0.59926378  0.39908290  0.76139265  1
  Hf  Hf28  1  -0.01331378  -0.01474026  0.25129828  1
  Hf  Hf29  1  0.90339800  0.30242183  0.62753505  1
  Hf  Hf30  1  0.20330014  0.80493548  0.73113420  1
  Hf  Hf31  1  0.59411309  0.59816332  -0.00587193  1
  Hf  Hf32  1  0.70031676  0.89997532  0.11430053  1
  Hf  Hf33  1  0.08582232  0.70160323  0.12448990  1
  Hf  Hf34  1  0.90042052  0.31524395  0.37931083  1
  Hf  Hf35  1  0.48873006  0.70598490  0.38070277  1
  Hf  Hf36  1  0.19783453  0.00404026  0.73633320  1
  Hf  Hf37  1  0.31425052  0.49879502  0.88488009  1
  Hf  Hf38  1  0.69310228  0.90090063  0.88159885  1
  Hf  Hf39  1  0.39758421  0.19889928  0.00416540  1
  Zr  Zr40  1  0.89703884  0.49859140  0.12781140  1
  Zr  Zr41  1  -0.00451009  0.22916823  0.00138304  1
  Zr  Zr42  1  0.39133736  0.78033716  -0.00000852  1
  Zr  Zr43  1  0.38900907  0.80004733  0.23764628  1
  Zr  Zr44  1  0.41019322  0.19419211  0.24678214  1
  Zr  Zr45  1  0.10703777  0.90107903  0.38805669  1
  Zr  Zr46  1  0.88446788  0.70294300  0.63181405  1
  Zr  Zr47  1  0.40435620  -0.00428293  0.24841091  1
  Zr  Zr48  1  -0.00546526  0.80419450  0.74505189  1
  Zr  Zr49  1  -0.00846675  0.60256096  0.26044308  1
  Zr  Zr50  1  0.38789312  0.59416602  0.26247200  1
  Zr  Zr51  1  0.03614863  0.40208030  0.73010758  1
  Zr  Zr52  1  0.19730376  0.80075700  0.52548374  1
  Zr  Zr53  1  0.39198380  0.22118614  0.49138045  1
  Zr  Zr54  1  -0.00080732  0.00818646  0.74772424  1
  Zr  Zr55  1  0.21209344  -0.00244246  0.24720026  1
  Zr  Zr56  1  0.30359313  0.12220741  0.63396540  1
  Zr  Zr57  1  0.79143313  0.20183196  0.50074076  1
  Zr  Zr58  1  0.10723819  0.90298490  0.87702411  1
  Zr  Zr59  1  0.69666331  0.69931094  0.12767682  1
  Zr  Zr60  1  0.09607450  0.09933750  0.13328428  1
  Zr  Zr61  1  0.89262358  0.12222345  0.87112771  1
  Zr  Zr62  1  0.91926381  0.50436394  0.85302380  1
  Zr  Zr63  1  0.82342393  0.40201329  -0.01052908  1
  Zr  Zr64  1  0.70483119  0.50948706  0.86699588  1
  Zr  Zr65  1  0.09250221  0.68840219  0.86396973  1
  Zr  Zr66  1  0.10634994  0.49889841  0.39377931  1
  Zr  Zr67  1  0.60265404  0.00139309  0.24843106  1
  Zr  Zr68  1  0.80859351  0.81100525  0.25418495  1
  Zr  Zr69  1  0.09926950  0.89874616  0.11327527  1
  Zr  Zr70  1  0.19720044  0.59633538  0.24795956  1
  Zr  Zr71  1  0.80011054  0.20805804  0.24284857  1
  Zr  Zr72  1  0.38824307  0.59003265  0.49675410  1
  Zr  Zr73  1  -0.00645571  0.59750919  0.51084819  1
  Zr  Zr74  1  -0.00807224  0.59120202  -0.00278798  1
  Zr  Zr75  1  0.50186288  0.49302606  0.62120341  1
  Zr  Zr76  1  0.40230330  0.00825690  0.50527326  1
  Zr  Zr77  1  0.39494000  0.38356988  0.75165531  1
  Zr  Zr78  1  0.49295519  0.08453687  0.87845228  1
  Zr  Zr79  1  0.11798211  0.29989661  0.37855010  1
  Ta  Ta80  1  0.30663842  0.69111994  0.62593439  1
  Ta  Ta81  1  0.59344746  0.19784416  0.50062575  1
  Ta  Ta82  1  0.88420012  0.70197494  0.86663613  1
  Ta  Ta83  1  0.89335308  0.10022427  0.12507216  1
  Ta  Ta84  1  0.60856191  0.38763671  0.50717142  1
  Ta  Ta85  1  0.09982114  0.49117781  0.12523483  1
  Ta  Ta86  1  0.68349972  0.69812316  0.63585343  1
  Ta  Ta87  1  0.89453549  0.69594099  0.38628957  1
  Ta  Ta88  1  0.69252720  0.30386512  0.37529322  1
  Ta  Ta89  1  0.69560374  0.10468358  0.36909800  1
  Ta  Ta90  1  0.79922871  0.00935582  -0.00671463  1
  Ta  Ta91  1  0.60447982  0.59935540  0.50084584  1
  Ta  Ta92  1  0.59257847  -0.00863752  0.75301954  1
  Ta  Ta93  1  0.30733388  0.88703947  0.39121078  1
  Ta  Ta94  1  -0.01144799  0.79363333  -0.01279329  1
  Ta  Ta95  1  0.50010620  0.88092216  0.88252297  1
  Ta  Ta96  1  0.49922169  0.69603988  0.62567457  1
  Ta  Ta97  1  0.29007951  0.47987017  0.61769941  1
  Ta  Ta98  1  0.69436422  0.48912210  0.12340441  1
  Ta  Ta99  1  0.08999493  0.70876972  0.38428768  1
  Ta  Ta100  1  0.11497650  0.48651213  0.87603842  1
  Ta  Ta101  1  0.39876086  0.59107451  0.74312360  1
  Ta  Ta102  1  0.89308387  0.70606130  0.12253390  1
  Ta  Ta103  1  0.59821480  0.19674168  0.75501863  1
  Ta  Ta104  1  0.28008528  0.69580625  0.39081477  1
  Ta  Ta105  1  0.89136586  0.09637758  0.37082099  1
  Ta  Ta106  1  0.00148175  0.40077596  0.25305195  1
  Ta  Ta107  1  0.69495382  0.10365563  0.63365942  1
  Ta  Ta108  1  0.69573211  0.29614369  0.63316306  1
  Ta  Ta109  1  0.30752930  0.90986990  0.87760800  1
  Ta  Ta110  1  0.21081867  0.20616637  0.23913075  1
  Ta  Ta111  1  0.19145900  0.58515933  0.73359921  1
  Ta  Ta112  1  0.79228762  0.60335027  0.50415652  1
  Ta  Ta113  1  0.41124752  0.39556474  0.24818012  1
  Ta  Ta114  1  0.40608500  0.79888818  0.74891061  1
  Ta  Ta115  1  0.89038595  0.90744418  0.62281863  1
  Ta  Ta116  1  0.29717279  0.10445845  0.86317165  1
  Ta  Ta117  1  0.50361830  0.89498946  0.10399598  1
  Ta  Ta118  1  0.49836327  0.28970589  0.87994993  1
  Ta  Ta119  1  0.39813605  -0.00930453  0.74514329  1
  Ti  Ti120  1  0.49619620  0.28908667  0.62858525  1
  Ti  Ti121  1  0.59095925  0.80274031  0.24631761  1
  Ti  Ti122  1  0.31272278  0.30271128  0.12637719  1
  Ti  Ti123  1  0.80196963  0.00727891  0.50409526  1
  Ti  Ti124  1  0.49653598  0.68251621  0.86520987  1
  Ti  Ti125  1  0.19977470  0.00614928  0.52174967  1
  Ti  Ti126  1  0.21239204  0.40232155  0.24717820  1
  Ti  Ti127  1  0.79696840  0.40244918  0.24730127  1
  Ti  Ti128  1  0.09526345  0.30596515  0.13685822  1
  Ti  Ti129  1  0.00191277  0.21272565  0.75331699  1
  Ti  Ti130  1  0.81170626  0.40932907  0.50596809  1
  Ti  Ti131  1  0.50397298  0.10222591  0.63692471  1
  Ti  Ti132  1  0.30189614  0.91359641  0.10383787  1
  Ti  Ti133  1  0.79640262  0.60495621  -0.00342061  1
  Ti  Ti134  1  0.90451779  0.50110872  0.63688492  1
  Ti  Ti135  1  0.79291379  0.79355773  -0.00768420  1
  Ti  Ti136  1  0.79613520  0.60524074  0.75035564  1
  Ti  Ti137  1  0.89039974  0.10762455  0.63465489  1
  Ti  Ti138  1  0.51772756  0.29605127  0.11787663  1
  Ti  Ti139  1  0.68363350  0.70817091  0.86437755  1
  Ti  Ti140  1  0.50377956  0.48120718  0.11600851  1
  Ti  Ti141  1  0.60043106  0.21088552  0.24990726  1
  Ti  Ti142  1  0.78830643  0.80548040  0.75522135  1
  Ti  Ti143  1  0.10765395  0.11531099  0.86750752  1
  Ti  Ti144  1  0.68967052  0.11122173  0.88002983  1
  Ti  Ti145  1  0.89434711  0.90003932  0.88047016  1
  Ti  Ti146  1  0.60234140  0.79354174  0.50124009  1
  Ti  Ti147  1  0.50583376  0.29570759  0.37348530  1
  Ti  Ti148  1  -0.00337782  0.20446371  0.24907570  1
  Ti  Ti149  1  0.80716581  0.38606836  0.75778209  1
  Ti  Ti150  1  0.79340767  0.79894436  0.50350003  1
  Ti  Ti151  1  0.09831019  0.12434570  0.63041492  1
  Ti  Ti152  1  0.71133084  0.90919167  0.37561684  1
  Ti  Ti153  1  -0.00203557  0.80032177  0.52082430  1
  Ti  Ti154  1  0.19541644  0.80517364  -0.00245388  1
  Ti  Ti155  1  0.79896190  0.59932241  0.25272575  1
  Ti  Ti156  1  0.49216444  0.09143529  0.11113056  1
  Ti  Ti157  1  0.29418153  0.29720271  0.87936268  1
  Ti  Ti158  1  0.19955968  0.22992599  0.74969243  1
  Ti  Ti159  1  0.59677991  0.00072387  -0.00283403  1
  Mo  Mo160  1  0.19640549  0.19330272  0.50104482  1
  Mo  Mo161  1  0.30476505  0.30040629  0.62622242  1
  Mo  Mo162  1  0.59135574  0.60367930  0.75243656  1
  Mo  Mo163  1  0.20810666  0.00455919  -0.01150061  1
  Mo  Mo164  1  0.41467643  0.39437480  0.50173165  1
  Mo  Mo165  1  0.70773393  0.28824470  0.86150884  1
  Mo  Mo166  1  0.59726408  0.19425087  -0.00323118  1
  Mo  Mo167  1  0.89467742  0.50066224  0.37641847  1
  Mo  Mo168  1  0.09245348  0.91009058  0.62240217  1
  Mo  Mo169  1  0.39928218  0.79502479  0.50413359  1
  Mo  Mo170  1  -0.00242739  0.79263676  0.25764056  1
  Mo  Mo171  1  0.29040901  0.71142332  0.12024022  1
  Mo  Mo172  1  0.29791584  0.48385581  0.37834368  1
  Mo  Mo173  1  0.30664673  0.90274604  0.62465283  1
  Mo  Mo174  1  0.91234753  0.30776250  0.85829869  1
  Mo  Mo175  1  0.59246606  0.79737673  0.75309015  1
  Mo  Mo176  1  0.01390975  0.40218147  0.00002722  1
  Mo  Mo177  1  0.79320511  0.20515257  0.74744638  1
  Mo  Mo178  1  0.00445191  0.60007403  0.73548597  1
  Mo  Mo179  1  0.40451580  0.19404800  0.75850717  1
  Mo  Mo180  1  0.10781100  0.49523006  0.60212796  1
  Mo  Mo181  1  0.80101807  0.00793849  0.25257372  1
  Mo  Mo182  1  0.51309915  0.10912397  0.37610542  1
  Mo  Mo183  1  0.22754292  0.38951682  0.49229032  1
  Mo  Mo184  1  0.49776830  0.49742051  0.87565134  1
  Mo  Mo185  1  0.40540473  0.59018045  -0.00612966  1
  Mo  Mo186  1  0.59880398  0.79468327  -0.00469100  1
  Mo  Mo187  1  0.19781648  0.59991481  0.51192879  1
  Mo  Mo188  1  0.60125239  0.39145402  0.24702208  1
  Mo  Mo189  1  0.30896350  0.31001101  0.35967938  1
  Mo  Mo190  1  0.40946194  0.39022519  0.00132233  1
  Mo  Mo191  1  0.00057701  0.40056622  0.51440259  1
  Mo  Mo192  1  0.39364121  -0.00398324  -0.00143454  1
  Mo  Mo193  1  0.09723504  0.69294286  0.63333315  1
  Mo  Mo194  1  0.69716797  0.31255204  0.12906863  1
  Mo  Mo195  1  0.12924497  0.30376607  0.60739628  1
  Mo  Mo196  1  0.90813495  0.30436598  0.13832997  1
  Mo  Mo197  1  0.10719161  0.29996058  0.87288944  1
  Mo  Mo198  1  0.21190383  0.40427234  0.75300855  1
  Mo  Mo199  1  0.30415498  0.10194837  0.12492825  1
