# generated using pymatgen
data_HfZrTaTiMo
_symmetry_space_group_name_H-M   'P 1'
_cell_length_a   15.23145249
_cell_length_b   15.21084748
_cell_length_c   16.82340767
_cell_angle_alpha   89.97655527
_cell_angle_beta   89.97664086
_cell_angle_gamma   90.20576023
_symmetry_Int_Tables_number   1
_chemical_formula_structural   HfZrTaTiMo
_chemical_formula_sum   'Hf40 Zr40 Ta40 Ti40 Mo40'
_cell_volume   3897.67683133
_cell_formula_units_Z   40
loop_
 _symmetry_equiv_pos_site_id
 _symmetry_equiv_pos_as_xyz
  1  'x, y, z'
loop_
 _atom_site_type_symbol
 _atom_site_label
 _atom_site_symmetry_multiplicity
 _atom_site_fract_x
 _atom_site_fract_y
 _atom_site_fract_z
 _atom_site_occupancy
  Hf  Hf0  1  0.59613177  0.60326303  0.25000806  1
  Hf  Hf1  1  0.18441273  -0.01009171  0.75136950  1
  Hf  Hf2  1  0.82394764  0.19586732  0.51220940  1
  Hf  Hf3  1  0.19265154  0.42887562  0.24031366  1
  Hf  Hf4  1  0.40215255  0.00160317  0.48462559  1
  Hf  Hf5  1  0.10648544  0.49862865  0.63964020  1
  Hf  Hf6  1  -0.00227631  -0.00206762  0.49924016  1
  Hf  Hf7  1  0.18338456  0.20922819  0.49143460  1
  Hf  Hf8  1  0.91222657  0.51619519  0.63148922  1
  Hf  Hf9  1  0.50350375  0.70419528  0.38820681  1
  Hf  Hf10  1  0.50130649  0.50340592  0.61444841  1
  Hf  Hf11  1  0.61184765  -0.00245433  0.23594332  1
  Hf  Hf12  1  0.18270830  0.79756972  0.52201527  1
  Hf  Hf13  1  0.90633583  0.30308959  0.87568292  1
  Hf  Hf14  1  -0.00577629  -0.01603356  0.01548632  1
  Hf  Hf15  1  0.60572171  0.20960463  0.01630466  1
  Hf  Hf16  1  0.79409937  0.00003773  0.49279443  1
  Hf  Hf17  1  0.51957327  0.10579142  0.36926847  1
  Hf  Hf18  1  0.29487474  0.09630991  0.13503773  1
  Hf  Hf19  1  0.39213971  0.80253715  0.50191412  1
  Hf  Hf20  1  0.69248111  0.70964580  0.60798246  1
  Hf  Hf21  1  0.49219542  0.31087846  0.88551153  1
  Hf  Hf22  1  0.29334604  0.10114276  0.36293101  1
  Hf  Hf23  1  0.00048802  0.19847133  0.00142378  1
  Hf  Hf24  1  0.90155839  0.48322926  0.37606240  1
  Hf  Hf25  1  0.38052231  0.60637635  0.50488080  1
  Hf  Hf26  1  0.70954662  0.30128891  0.37258533  1
  Hf  Hf27  1  0.39760801  0.19938801  0.49404594  1
  Hf  Hf28  1  0.18897950  -0.01462025  0.24759897  1
  Hf  Hf29  1  0.01016965  0.79964948  0.23188361  1
  Hf  Hf30  1  0.61514629  0.20519120  0.51030639  1
  Hf  Hf31  1  0.39434682  0.59276597  -0.00266621  1
  Hf  Hf32  1  0.79562661  0.40330141  0.00104138  1
  Hf  Hf33  1  0.40596459  0.19954675  0.02260465  1
  Hf  Hf34  1  0.78948689  0.80293148  0.75036480  1
  Hf  Hf35  1  0.30350955  0.91014519  0.63235431  1
  Hf  Hf36  1  0.49303314  0.10037273  0.87510305  1
  Hf  Hf37  1  0.68974343  0.49762154  0.12576022  1
  Hf  Hf38  1  0.69250922  0.50525150  0.61586866  1
  Hf  Hf39  1  0.20370537  -0.00507864  0.00340870  1
  Zr  Zr40  1  0.49096292  0.09701653  0.62818471  1
  Zr  Zr41  1  0.69843448  0.09870629  0.87436994  1
  Zr  Zr42  1  0.81420213  0.60640003  0.49574980  1
  Zr  Zr43  1  0.51407272  0.89820774  0.61587081  1
  Zr  Zr44  1  0.20344488  0.20065495  0.76301132  1
  Zr  Zr45  1  0.09404369  0.49714416  0.86222358  1
  Zr  Zr46  1  0.40611237  0.59927112  0.75330686  1
  Zr  Zr47  1  0.50156639  0.90047233  0.88421780  1
  Zr  Zr48  1  -0.00563337  -0.00466699  0.23673484  1
  Zr  Zr49  1  0.51458898  0.30681432  0.36476639  1
  Zr  Zr50  1  0.41062257  0.80144481  0.25806256  1
  Zr  Zr51  1  0.30479813  0.89846502  0.86503696  1
  Zr  Zr52  1  0.09827509  0.10452727  0.62561644  1
  Zr  Zr53  1  0.41540426  0.20737035  0.22682340  1
  Zr  Zr54  1  0.29705681  0.31194661  0.36109578  1
  Zr  Zr55  1  0.40366259  0.41501762  0.22893562  1
  Zr  Zr56  1  0.59751333  0.21107694  0.74384016  1
  Zr  Zr57  1  0.28931172  0.69718573  0.86687898  1
  Zr  Zr58  1  0.80246925  0.20660044  0.74448124  1
  Zr  Zr59  1  0.10343185  0.30314287  0.12335002  1
  Zr  Zr60  1  0.91718032  0.70135409  0.37327516  1
  Zr  Zr61  1  0.09559337  0.09297128  0.88126205  1
  Zr  Zr62  1  0.09101296  0.69527730  0.87375308  1
  Zr  Zr63  1  0.59976582  0.41095137  0.75598712  1
  Zr  Zr64  1  0.40851578  -0.00795358  0.25443005  1
  Zr  Zr65  1  0.79817270  0.38887583  0.51673147  1
  Zr  Zr66  1  0.38511058  0.39779617  0.02184258  1
  Zr  Zr67  1  0.28964392  0.29786592  0.62387627  1
  Zr  Zr68  1  0.39130122  0.39792230  0.50009088  1
  Zr  Zr69  1  0.00583513  0.59036673  0.24061534  1
  Zr  Zr70  1  0.00502729  0.38029778  0.51348943  1
  Zr  Zr71  1  0.60361109  -0.01313432  0.75377805  1
  Zr  Zr72  1  -0.00065082  0.79802409  0.73778624  1
  Zr  Zr73  1  0.08710293  0.31133504  0.36019228  1
  Zr  Zr74  1  0.90395652  0.89632062  0.87684346  1
  Zr  Zr75  1  0.50379009  0.70879064  0.88486664  1
  Zr  Zr76  1  0.37789026  0.60884834  0.25269173  1
  Zr  Zr77  1  0.79472509  0.61012198  0.74929443  1
  Zr  Zr78  1  0.79884303  0.80232991  0.24174484  1
  Zr  Zr79  1  0.49781817  0.50109535  0.38433376  1
  Ta  Ta80  1  -0.01043741  0.59628441  0.00898766  1
  Ta  Ta81  1  0.40393909  0.00031819  0.01403601  1
  Ta  Ta82  1  0.21411652  0.21002221  -0.00011297  1
  Ta  Ta83  1  0.30340924  0.88693972  0.12515337  1
  Ta  Ta84  1  0.29811073  0.48015470  0.87064875  1
  Ta  Ta85  1  0.89834410  0.50401047  0.86775836  1
  Ta  Ta86  1  0.60051021  0.61002003  0.75601816  1
  Ta  Ta87  1  0.70030720  0.89295220  0.89651840  1
  Ta  Ta88  1  -0.00039542  0.41034852  0.00803831  1
  Ta  Ta89  1  0.80050780  0.40113602  0.74258712  1
  Ta  Ta90  1  0.62591962  0.20640999  0.22898416  1
  Ta  Ta91  1  0.19804931  -0.00014891  0.49537860  1
  Ta  Ta92  1  0.09318575  0.88803872  0.38006068  1
  Ta  Ta93  1  0.70192234  0.09108593  0.62784723  1
  Ta  Ta94  1  0.69860600  0.70856203  0.38205135  1
  Ta  Ta95  1  0.90190186  0.90307611  0.37201897  1
  Ta  Ta96  1  0.28569537  0.88749102  0.37889472  1
  Ta  Ta97  1  0.79382340  0.39393887  0.24361151  1
  Ta  Ta98  1  0.19341056  0.58146946  0.00098652  1
  Ta  Ta99  1  0.90462449  0.09101515  0.63854197  1
  Ta  Ta100  1  0.29754172  0.50338311  0.63833955  1
  Ta  Ta101  1  0.80941411  0.79674914  0.00966282  1
  Ta  Ta102  1  0.20614127  0.78632218  0.24795123  1
  Ta  Ta103  1  0.89908888  0.89969028  0.62355682  1
  Ta  Ta104  1  0.10149146  0.88682093  0.88074249  1
  Ta  Ta105  1  0.88287795  0.09413576  0.11943656  1
  Ta  Ta106  1  0.79953677  0.19477019  -0.00279206  1
  Ta  Ta107  1  0.59785857  0.59113476  -0.00240119  1
  Ta  Ta108  1  0.50075872  0.69914154  0.11716227  1
  Ta  Ta109  1  0.89960996  0.09470573  0.87112260  1
  Ta  Ta110  1  0.89186154  0.29627021  0.12271106  1
  Ta  Ta111  1  0.50861333  0.89051136  0.11486609  1
  Ta  Ta112  1  0.18912461  0.19969959  0.24767998  1
  Ta  Ta113  1  0.19854002  0.79259033  0.00617431  1
  Ta  Ta114  1  0.39846123  0.39240920  0.75012583  1
  Ta  Ta115  1  0.71361824  0.10335783  0.36823536  1
  Ta  Ta116  1  0.60315690  0.00728438  0.01270269  1
  Ta  Ta117  1  0.69417836  0.50054227  0.38270252  1
  Ta  Ta118  1  0.89608763  0.69514525  0.88331695  1
  Ta  Ta119  1  0.08428700  0.09980528  0.37175436  1
  Ti  Ti120  1  0.71593010  0.90965520  0.10889165  1
  Ti  Ti121  1  0.80760466  0.80859453  0.49238383  1
  Ti  Ti122  1  0.11120511  0.68831480  0.12046763  1
  Ti  Ti123  1  0.39483885  0.20029585  0.75143356  1
  Ti  Ti124  1  0.80207170  0.00471586  0.25241380  1
  Ti  Ti125  1  0.70190189  0.90358020  0.61614457  1
  Ti  Ti126  1  0.53482517  0.33639257  0.12680453  1
  Ti  Ti127  1  0.09866097  0.09957095  0.12138653  1
  Ti  Ti128  1  0.80294229  -0.00468528  0.75099746  1
  Ti  Ti129  1  0.53036311  0.90192732  0.38577633  1
  Ti  Ti130  1  0.50336643  0.30676691  0.62197175  1
  Ti  Ti131  1  0.29774678  0.10011771  0.62456117  1
  Ti  Ti132  1  0.60753120  0.80320954  0.24725130  1
  Ti  Ti133  1  0.70118584  0.30765133  0.87776746  1
  Ti  Ti134  1  -0.00148756  0.38734656  0.74450676  1
  Ti  Ti135  1  0.19826967  0.41201556  0.50223210  1
  Ti  Ti136  1  0.50341744  0.70005907  0.61501810  1
  Ti  Ti137  1  0.69276338  0.70542682  0.11539113  1
  Ti  Ti138  1  0.60102425  0.79294236  0.75148692  1
  Ti  Ti139  1  0.11177488  0.30674763  0.88830739  1
  Ti  Ti140  1  0.11300410  0.69997985  0.37982249  1
  Ti  Ti141  1  -0.01020341  0.19231045  0.23893773  1
  Ti  Ti142  1  0.28137066  0.51856631  0.37818465  1
  Ti  Ti143  1  0.79802987  0.59250002  0.25523427  1
  Ti  Ti144  1  0.00250714  0.78990634  0.01589651  1
  Ti  Ti145  1  0.79945675  0.59827127  0.00028149  1
  Ti  Ti146  1  0.30604548  0.09931238  0.87960256  1
  Ti  Ti147  1  0.40598513  0.80056923  0.73914527  1
  Ti  Ti148  1  0.19418742  0.78589875  0.72850823  1
  Ti  Ti149  1  0.69619931  0.50526628  0.87690955  1
  Ti  Ti150  1  0.00609177  0.19769052  0.75520469  1
  Ti  Ti151  1  0.90238065  0.27745761  0.36545164  1
  Ti  Ti152  1  0.19218769  0.60628609  0.51581421  1
  Ti  Ti153  1  -0.01404076  0.40082185  0.23242016  1
  Ti  Ti154  1  0.39532330  0.80137955  0.00358382  1
  Ti  Ti155  1  0.09414793  0.51342267  0.38617889  1
  Ti  Ti156  1  0.70072048  0.70369551  0.88825560  1
  Ti  Ti157  1  0.20271419  0.39034101  0.75373182  1
  Ti  Ti158  1  0.29882934  0.69373901  0.11934357  1
  Ti  Ti159  1  0.89102718  0.68666461  0.12519517  1
  Mo  Mo160  1  0.01692274  0.60163299  0.49909234  1
  Mo  Mo161  1  0.59889174  0.41074645  -0.01190390  1
  Mo  Mo162  1  0.71173042  0.30197208  0.12061117  1
  Mo  Mo163  1  0.28546522  0.70498682  0.38453309  1
  Mo  Mo164  1  0.91126735  0.29433890  0.64156882  1
  Mo  Mo165  1  0.61149758  0.00914035  0.49493624  1
  Mo  Mo166  1  0.09807544  0.29940200  0.63242564  1
  Mo  Mo167  1  0.39263674  0.00983145  0.75063824  1
  Mo  Mo168  1  0.80049667  0.00153119  -0.00597543  1
  Mo  Mo169  1  0.50704258  0.09108565  0.12828279  1
  Mo  Mo170  1  -0.00875079  0.79532038  0.50779682  1
  Mo  Mo171  1  0.09428091  0.90399033  0.62173333  1
  Mo  Mo172  1  0.11154265  0.88611190  0.11757506  1
  Mo  Mo173  1  0.08230848  0.68643928  0.62883140  1
  Mo  Mo174  1  0.60805446  0.79752475  0.01109807  1
  Mo  Mo175  1  0.70726247  0.90085245  0.36831115  1
  Mo  Mo176  1  0.80999746  0.19508333  0.24715115  1
  Mo  Mo177  1  0.28836519  0.29719571  0.13728681  1
  Mo  Mo178  1  0.70860552  0.09980087  0.12150595  1
  Mo  Mo179  1  0.60252195  0.39851341  0.50301869  1
  Mo  Mo180  1  0.89657397  0.89074751  0.11937474  1
  Mo  Mo181  1  0.61243934  0.80972984  0.49385691  1
  Mo  Mo182  1  0.19578109  0.39833742  -0.00335772  1
  Mo  Mo183  1  -0.00793219  -0.00017252  0.75073768  1
  Mo  Mo184  1  0.19106011  0.61179152  0.25067778  1
  Mo  Mo185  1  0.28369912  0.50967814  0.12013952  1
  Mo  Mo186  1  0.59904544  0.60437064  0.49254184  1
  Mo  Mo187  1  0.89007847  0.49812625  0.12643120  1
  Mo  Mo188  1  0.30204061  0.29323214  0.87625113  1
  Mo  Mo189  1  0.89791397  0.70949634  0.61412061  1
  Mo  Mo190  1  0.90289207  0.09851580  0.36751282  1
  Mo  Mo191  1  0.08996365  0.50339962  0.11651208  1
  Mo  Mo192  1  0.61192147  0.40850944  0.25263611  1
  Mo  Mo193  1  -0.00216930  0.19257152  0.49767739  1
  Mo  Mo194  1  0.49864011  0.50100047  0.87597732  1
  Mo  Mo195  1  0.49864247  0.51723676  0.12513539  1
  Mo  Mo196  1  0.69885585  0.30193788  0.62759159  1
  Mo  Mo197  1  -0.00878520  0.59986377  0.75394274  1
  Mo  Mo198  1  0.20103874  0.59870349  0.74555329  1
  Mo  Mo199  1  0.29638179  0.69579522  0.63828800  1
