# generated using pymatgen
data_HfZrTaTiMo
_symmetry_space_group_name_H-M   'P 1'
_cell_length_a   15.16310305
_cell_length_b   15.16819947
_cell_length_c   16.82981740
_cell_angle_alpha   90.04933997
_cell_angle_beta   90.04441405
_cell_angle_gamma   89.71790361
_symmetry_Int_Tables_number   1
_chemical_formula_structural   HfZrTaTiMo
_chemical_formula_sum   'Hf40 Zr40 Ta40 Ti40 Mo40'
_cell_volume   3870.75753398
_cell_formula_units_Z   40
loop_
 _symmetry_equiv_pos_site_id
 _symmetry_equiv_pos_as_xyz
  1  'x, y, z'
loop_
 _atom_site_type_symbol
 _atom_site_label
 _atom_site_symmetry_multiplicity
 _atom_site_fract_x
 _atom_site_fract_y
 _atom_site_fract_z
 _atom_site_occupancy
  Hf  Hf0  1  0.00507106  0.80367798  0.00277250  1
  Hf  Hf1  1  0.38634726  -0.02528755  0.24255265  1
  Hf  Hf2  1  0.80433996  0.80967979  0.75640180  1
  Hf  Hf3  1  0.51505046  0.50054997  0.36138304  1
  Hf  Hf4  1  0.28467269  0.10487086  0.87479151  1
  Hf  Hf5  1  0.30713148  0.48991762  0.87664123  1
  Hf  Hf6  1  0.89371023  0.10734992  0.12813931  1
  Hf  Hf7  1  0.26874911  0.10928185  0.14017272  1
  Hf  Hf8  1  0.91795753  0.91036161  0.36675864  1
  Hf  Hf9  1  0.60235525  0.79201266  0.76201132  1
  Hf  Hf10  1  0.19545035  0.00573568  0.74389137  1
  Hf  Hf11  1  -0.00513296  0.19967569  0.00805874  1
  Hf  Hf12  1  0.30552907  0.70233334  0.88435561  1
  Hf  Hf13  1  0.11880268  0.51678388  0.37094044  1
  Hf  Hf14  1  0.02214225  0.40785446  0.01011537  1
  Hf  Hf15  1  0.60776107  0.17735635  0.48747338  1
  Hf  Hf16  1  0.50197023  0.30190683  0.14942160  1
  Hf  Hf17  1  0.10381858  0.29598378  0.60649195  1
  Hf  Hf18  1  0.91084534  0.50472872  0.87567519  1
  Hf  Hf19  1  0.49745320  0.27804763  0.61791721  1
  Hf  Hf20  1  0.80436455  0.60628297  0.74471496  1
  Hf  Hf21  1  0.79892378  0.79805398  0.26082556  1
  Hf  Hf22  1  0.57256390  -0.01008077  0.75863277  1
  Hf  Hf23  1  0.19741658  0.19105700  0.48043468  1
  Hf  Hf24  1  0.80512799  0.79732902  0.48272006  1
  Hf  Hf25  1  0.49126690  0.70002467  0.62138697  1
  Hf  Hf26  1  0.67516858  0.91206429  0.37660130  1
  Hf  Hf27  1  0.50235827  0.07783327  0.36172961  1
  Hf  Hf28  1  0.69902643  0.69688363  0.60864522  1
  Hf  Hf29  1  0.78924419  0.00792906  0.24994681  1
  Hf  Hf30  1  0.30060173  0.31451774  0.60238023  1
  Hf  Hf31  1  0.90570260  0.71596500  0.62040269  1
  Hf  Hf32  1  0.00218094  0.20285412  0.25505347  1
  Hf  Hf33  1  0.80802869  0.58874184  0.25686187  1
  Hf  Hf34  1  0.40328461  0.40270935  0.47860908  1
  Hf  Hf35  1  0.69254499  0.10449892  0.87668049  1
  Hf  Hf36  1  0.01284190  0.82400204  0.49494538  1
  Hf  Hf37  1  0.71801433  0.48216853  0.11566723  1
  Hf  Hf38  1  0.68896704  0.89651919  0.61980122  1
  Hf  Hf39  1  0.78592912  0.21950825  0.25132793  1
  Zr  Zr40  1  0.40258175  0.21419174  0.00031686  1
  Zr  Zr41  1  0.19504290  0.20502668  0.00255685  1
  Zr  Zr42  1  0.59916034  0.37535732  0.00262327  1
  Zr  Zr43  1  0.59262150  0.79147927  -0.00696677  1
  Zr  Zr44  1  0.49873200  0.48375495  0.62653904  1
  Zr  Zr45  1  0.41010882  -0.01420088  0.50574255  1
  Zr  Zr46  1  0.58380341  -0.00689919  -0.00104689  1
  Zr  Zr47  1  0.40414759  0.80646042  0.75445080  1
  Zr  Zr48  1  0.69585341  0.31431828  0.85609365  1
  Zr  Zr49  1  0.89112484  0.32355276  0.12776973  1
  Zr  Zr50  1  0.60329196  0.59110185  0.74852741  1
  Zr  Zr51  1  0.01499567  0.62691155  0.49236633  1
  Zr  Zr52  1  0.08070497  0.09504459  0.87637800  1
  Zr  Zr53  1  0.68358972  0.11742117  0.11391108  1
  Zr  Zr54  1  0.68603482  0.09409480  0.63578237  1
  Zr  Zr55  1  0.90935663  0.70894479  0.13230760  1
  Zr  Zr56  1  0.70071368  0.29454451  0.63207049  1
  Zr  Zr57  1  0.58108048  0.79555203  0.24154803  1
  Zr  Zr58  1  0.50649705  0.50340822  0.13864446  1
  Zr  Zr59  1  0.21109562  0.38638220  0.74688643  1
  Zr  Zr60  1  0.00613275  0.60300680  0.73783102  1
  Zr  Zr61  1  0.91269210  0.30890858  0.87569801  1
  Zr  Zr62  1  0.12149097  0.29711605  0.14821576  1
  Zr  Zr63  1  0.20056257  0.58633645  0.00956517  1
  Zr  Zr64  1  0.69886179  0.69184755  0.11984282  1
  Zr  Zr65  1  0.79178471  0.01065424  0.49319488  1
  Zr  Zr66  1  0.88794533  0.31699497  0.37318550  1
  Zr  Zr67  1  0.69022351  0.68886357  0.38393234  1
  Zr  Zr68  1  0.29934067  0.10311072  0.61866734  1
  Zr  Zr69  1  0.38349442  -0.00420926  0.01258248  1
  Zr  Zr70  1  0.70758898  0.50267470  0.88223000  1
  Zr  Zr71  1  0.80446526  0.00741572  -0.00268603  1
  Zr  Zr72  1  0.81452570  0.19613963  0.75539127  1
  Zr  Zr73  1  0.12809796  0.50598740  0.60338809  1
  Zr  Zr74  1  0.36894695  0.20672480  0.26873746  1
  Zr  Zr75  1  0.48514872  0.10163709  0.13506361  1
  Zr  Zr76  1  0.01541093  0.20259772  0.74241182  1
  Zr  Zr77  1  0.37872809  0.20941839  0.75674210  1
  Zr  Zr78  1  0.20882259  0.59993513  0.74518925  1
  Zr  Zr79  1  0.10314034  0.69480794  0.87807440  1
  Ta  Ta80  1  -0.00134384  0.42013228  0.25922509  1
  Ta  Ta81  1  0.57560964  0.80692551  0.49717890  1
  Ta  Ta82  1  0.81183700  0.41128461  0.72899817  1
  Ta  Ta83  1  0.90328433  0.70677774  0.87863096  1
  Ta  Ta84  1  0.78562493  0.22401784  -0.00384735  1
  Ta  Ta85  1  0.10430865  0.89934761  0.87190809  1
  Ta  Ta86  1  0.80377763  0.80544721  -0.00429453  1
  Ta  Ta87  1  0.30668099  0.48750202  0.14547360  1
  Ta  Ta88  1  0.28723415  0.06935630  0.37677245  1
  Ta  Ta89  1  0.57909763  0.19912137  0.75949683  1
  Ta  Ta90  1  0.89539814  0.10973444  0.61456056  1
  Ta  Ta91  1  0.00809384  0.40666553  0.49541690  1
  Ta  Ta92  1  0.00861385  0.60223450  0.00739812  1
  Ta  Ta93  1  0.09608367  0.90021938  0.63053826  1
  Ta  Ta94  1  0.50290813  0.48175285  0.86685416  1
  Ta  Ta95  1  0.88971238  0.10859887  0.37634759  1
  Ta  Ta96  1  -0.01446782  0.20467514  0.49462631  1
  Ta  Ta97  1  0.37924400  0.78903036  0.50029012  1
  Ta  Ta98  1  0.48151321  0.69200112  0.38034541  1
  Ta  Ta99  1  0.38129706  0.77823648  0.24889631  1
  Ta  Ta100  1  0.81408590  0.60395675  0.00099719  1
  Ta  Ta101  1  0.60588966  0.38671582  0.49342288  1
  Ta  Ta102  1  0.40313523  0.19015774  0.48001320  1
  Ta  Ta103  1  0.00531503  0.00565975  0.24331041  1
  Ta  Ta104  1  0.90927700  0.91238058  0.87615345  1
  Ta  Ta105  1  0.29809993  0.90465081  0.87536258  1
  Ta  Ta106  1  0.00350481  0.40586808  0.73196170  1
  Ta  Ta107  1  0.90588345  0.51618929  0.39082186  1
  Ta  Ta108  1  0.70382822  0.50000546  0.60880801  1
  Ta  Ta109  1  0.71588255  0.48802862  0.39228332  1
  Ta  Ta110  1  0.31039281  0.69001321  0.11562503  1
  Ta  Ta111  1  0.70094549  0.89664904  0.12052545  1
  Ta  Ta112  1  0.10937261  0.50698899  0.15022510  1
  Ta  Ta113  1  -0.01572262  0.00227185  0.74348344  1
  Ta  Ta114  1  0.50659270  0.29556574  0.36554913  1
  Ta  Ta115  1  0.19992748  0.79901507  0.74436066  1
  Ta  Ta116  1  0.00299435  0.80856452  0.75155912  1
  Ta  Ta117  1  0.00212281  -0.00290148  0.01199365  1
  Ta  Ta118  1  0.09983093  0.30685663  0.37523522  1
  Ta  Ta119  1  0.81049414  0.39041077  0.51453113  1
  Ti  Ti120  1  0.49880570  0.68355353  0.87539341  1
  Ti  Ti121  1  0.21951181  0.61823680  0.24749767  1
  Ti  Ti122  1  0.11782633  0.30184017  0.87150825  1
  Ti  Ti123  1  0.48383141  0.09541642  0.87864641  1
  Ti  Ti124  1  0.63310267  0.39068765  0.25904110  1
  Ti  Ti125  1  0.09293595  0.09319080  0.61207029  1
  Ti  Ti126  1  0.59381381  -0.01031381  0.23135268  1
  Ti  Ti127  1  0.47805232  0.88498141  0.37100752  1
  Ti  Ti128  1  0.28994223  0.88458552  0.12260886  1
  Ti  Ti129  1  0.58959464  0.59180460  0.49884208  1
  Ti  Ti130  1  0.70821277  0.69587657  0.88371269  1
  Ti  Ti131  1  0.39796850  0.59246272  0.74527422  1
  Ti  Ti132  1  0.11463505  0.73098989  0.36018051  1
  Ti  Ti133  1  0.19902002  0.78653946  0.50965761  1
  Ti  Ti134  1  0.60788092  0.60196621  0.24920834  1
  Ti  Ti135  1  0.59654603  0.59210737  -0.00153747  1
  Ti  Ti136  1  0.30342357  0.89307614  0.63165982  1
  Ti  Ti137  1  0.89639125  0.91421961  0.62161085  1
  Ti  Ti138  1  0.40164844  0.40286074  0.00607890  1
  Ti  Ti139  1  0.21476739  0.39476135  0.01127632  1
  Ti  Ti140  1  0.38654532  0.59706481  0.50434903  1
  Ti  Ti141  1  0.00647449  0.62079324  0.26167634  1
  Ti  Ti142  1  0.40909699  0.59275715  0.00198458  1
  Ti  Ti143  1  0.31297207  0.51031958  0.35963469  1
  Ti  Ti144  1  0.20146605  0.80125618  0.00236203  1
  Ti  Ti145  1  0.10994819  0.70544070  0.13481784  1
  Ti  Ti146  1  0.19445947  -0.02326411  0.50213357  1
  Ti  Ti147  1  0.18738733  -0.00618935  0.00661299  1
  Ti  Ti148  1  0.40448756  0.80037443  0.00234865  1
  Ti  Ti149  1  0.69935442  0.89965521  0.87983435  1
  Ti  Ti150  1  0.91514577  0.51235155  0.12640140  1
  Ti  Ti151  1  0.10333624  0.49177295  0.87128681  1
  Ti  Ti152  1  0.89810374  0.90065027  0.13370785  1
  Ti  Ti153  1  0.18913573  -0.01222195  0.25424047  1
  Ti  Ti154  1  0.21924625  0.38371967  0.26643147  1
  Ti  Ti155  1  0.60394573  0.19112174  0.26328742  1
  Ti  Ti156  1  0.79819956  0.00201805  0.75686578  1
  Ti  Ti157  1  0.09765516  0.89810399  0.13106909  1
  Ti  Ti158  1  0.08209018  0.08294073  0.38583164  1
  Ti  Ti159  1  0.90629410  0.50853762  0.60603239  1
  Mo  Mo160  1  0.40914548  0.40102526  0.74764201  1
  Mo  Mo161  1  0.30901848  0.31192947  0.13047426  1
  Mo  Mo162  1  0.79918322  0.20303639  0.49948599  1
  Mo  Mo163  1  0.00099324  0.00936726  0.50770560  1
  Mo  Mo164  1  0.49416095  0.69384418  0.11569691  1
  Mo  Mo165  1  0.89389151  0.09922432  0.88178406  1
  Mo  Mo166  1  0.91143086  0.70632857  0.36568656  1
  Mo  Mo167  1  0.09308203  0.08946263  0.12926156  1
  Mo  Mo168  1  0.28940019  0.88135111  0.37866420  1
  Mo  Mo169  1  0.40510213  0.40085678  0.26819882  1
  Mo  Mo170  1  0.18108772  0.17762089  0.28305716  1
  Mo  Mo171  1  0.01213326  0.81317137  0.24795917  1
  Mo  Mo172  1  0.21639602  0.61447791  0.49334551  1
  Mo  Mo173  1  0.49432033  0.09645195  0.62936161  1
  Mo  Mo174  1  0.19190671  0.20021503  0.74252348  1
  Mo  Mo175  1  0.69835651  0.10017483  0.36522365  1
  Mo  Mo176  1  0.60140350  0.39501642  0.74314121  1
  Mo  Mo177  1  0.80704136  0.41407714  0.25631366  1
  Mo  Mo178  1  0.81529318  0.40589785  -0.00187088  1
  Mo  Mo179  1  0.29295343  0.69125473  0.37477566  1
  Mo  Mo180  1  0.39290765  0.00137173  0.75097092  1
  Mo  Mo181  1  0.29988252  0.31084813  0.88106942  1
  Mo  Mo182  1  0.48854720  0.88286866  0.12791461  1
  Mo  Mo183  1  0.59289540  0.19877068  -0.01396319  1
  Mo  Mo184  1  0.20462622  0.80440981  0.23923409  1
  Mo  Mo185  1  0.59044331  -0.00867649  0.49813942  1
  Mo  Mo186  1  0.48375318  0.89557573  0.88076386  1
  Mo  Mo187  1  0.69677817  0.30147684  0.38338461  1
  Mo  Mo188  1  0.90905978  0.30735427  0.62041413  1
  Mo  Mo189  1  0.69552073  0.29990165  0.12614431  1
  Mo  Mo190  1  0.31240890  0.50369741  0.61894281  1
  Mo  Mo191  1  0.29614155  0.29903861  0.38928601  1
  Mo  Mo192  1  0.80415731  0.59795715  0.49811515  1
  Mo  Mo193  1  0.49542963  0.89750639  0.62372935  1
  Mo  Mo194  1  0.11695159  0.91221553  0.37537736  1
  Mo  Mo195  1  0.20698532  0.41059131  0.47748130  1
  Mo  Mo196  1  0.49069574  0.30196422  0.86955844  1
  Mo  Mo197  1  0.29707725  0.69574532  0.62742582  1
  Mo  Mo198  1  0.40915916  0.60357876  0.24665492  1
  Mo  Mo199  1  0.10514053  0.71476784  0.62679787  1
