# generated using pymatgen
data_HfZrTaTiMo
_symmetry_space_group_name_H-M   'P 1'
_cell_length_a   15.17601676
_cell_length_b   15.18640896
_cell_length_c   16.81300865
_cell_angle_alpha   89.99199280
_cell_angle_beta   89.98032679
_cell_angle_gamma   89.84915347
_symmetry_Int_Tables_number   1
_chemical_formula_structural   HfZrTaTiMo
_chemical_formula_sum   'Hf40 Zr40 Ta40 Ti40 Mo40'
_cell_volume   3874.86690474
_cell_formula_units_Z   40
loop_
 _symmetry_equiv_pos_site_id
 _symmetry_equiv_pos_as_xyz
  1  'x, y, z'
loop_
 _atom_site_type_symbol
 _atom_site_label
 _atom_site_symmetry_multiplicity
 _atom_site_fract_x
 _atom_site_fract_y
 _atom_site_fract_z
 _atom_site_occupancy
  Hf  Hf0  1  0.59969587  0.20170013  0.23970256  1
  Hf  Hf1  1  0.70910951  0.90006325  0.87633889  1
  Hf  Hf2  1  0.60315412  0.60631861  -0.01258418  1
  Hf  Hf3  1  0.50141410  0.68833475  0.62644954  1
  Hf  Hf4  1  0.81289000  0.81184530  0.74567191  1
  Hf  Hf5  1  0.09339783  0.52217139  0.14472205  1
  Hf  Hf6  1  0.08748784  0.31591838  0.13355875  1
  Hf  Hf7  1  0.40150465  -0.02145768  0.25369951  1
  Hf  Hf8  1  0.09536115  0.10664259  0.86758749  1
  Hf  Hf9  1  0.10712202  0.71408437  0.37316475  1
  Hf  Hf10  1  0.50269148  0.69788749  0.38259696  1
  Hf  Hf11  1  0.18328160  0.42417163  0.00251348  1
  Hf  Hf12  1  0.60290877  0.79125638  0.74599777  1
  Hf  Hf13  1  0.48124754  0.27611097  0.88909250  1
  Hf  Hf14  1  0.10838011  0.29472848  0.36018586  1
  Hf  Hf15  1  0.58628632  0.18872677  0.75523826  1
  Hf  Hf16  1  0.79904286  -0.00269291  0.51413565  1
  Hf  Hf17  1  0.19297168  0.39372489  0.49796020  1
  Hf  Hf18  1  0.21428543  0.80845488  0.24397793  1
  Hf  Hf19  1  0.00585549  -0.00690487  0.01064483  1
  Hf  Hf20  1  0.59059516  0.00585851  0.51259539  1
  Hf  Hf21  1  0.18197305  0.79484053  0.74002577  1
  Hf  Hf22  1  0.39060775  0.38957461  0.75038099  1
  Hf  Hf23  1  0.38412178  0.60654008  -0.01683157  1
  Hf  Hf24  1  0.90025854  0.11948676  0.61894824  1
  Hf  Hf25  1  0.58964788  0.39063887  0.24789318  1
  Hf  Hf26  1  0.12249213  0.68986702  0.88114406  1
  Hf  Hf27  1  0.68370475  0.30336264  0.89475117  1
  Hf  Hf28  1  0.59204723  0.80985730  0.24783831  1
  Hf  Hf29  1  0.18871189  0.00295315  0.50717659  1
  Hf  Hf30  1  0.69592220  0.10143389  0.37531510  1
  Hf  Hf31  1  0.29513013  0.68934422  0.62296544  1
  Hf  Hf32  1  0.48015973  0.48664524  0.37932464  1
  Hf  Hf33  1  0.50110454  0.08093590  0.13080271  1
  Hf  Hf34  1  0.01339939  0.21072305  0.50241889  1
  Hf  Hf35  1  0.79198235  0.39653997  0.26467531  1
  Hf  Hf36  1  -0.00405707  0.21705839  0.74518521  1
  Hf  Hf37  1  0.80898601  0.80147809  0.00050894  1
  Hf  Hf38  1  0.81197565  0.00722504  0.24620066  1
  Hf  Hf39  1  0.50406344  0.48364450  0.88226712  1
  Zr  Zr40  1  0.09543992  0.50108495  0.62257672  1
  Zr  Zr41  1  0.49099413  0.89223991  0.87711130  1
  Zr  Zr42  1  0.30926583  0.10656686  0.87537459  1
  Zr  Zr43  1  0.89698286  0.51246340  0.61616618  1
  Zr  Zr44  1  0.70369467  0.70590838  0.12172072  1
  Zr  Zr45  1  0.28556495  0.09914706  0.36207130  1
  Zr  Zr46  1  0.81766973  0.59040883  0.76363796  1
  Zr  Zr47  1  0.59866534  0.60148399  0.24574040  1
  Zr  Zr48  1  0.49367700  0.10314243  0.36385716  1
  Zr  Zr49  1  0.81388675  0.80108438  0.50459656  1
  Zr  Zr50  1  0.93096907  0.71269503  0.63288096  1
  Zr  Zr51  1  0.88249780  0.29950252  0.12743496  1
  Zr  Zr52  1  0.38179023  0.39242208  0.00767515  1
  Zr  Zr53  1  0.39315762  0.40159633  0.23459268  1
  Zr  Zr54  1  0.40440729  0.59674904  0.76052599  1
  Zr  Zr55  1  0.60514787  0.38886347  0.74743954  1
  Zr  Zr56  1  0.79713762  0.01484573  0.73216429  1
  Zr  Zr57  1  0.70538623  0.48308291  0.62013790  1
  Zr  Zr58  1  0.21005109  0.80235610  0.00263940  1
  Zr  Zr59  1  0.20336690  0.00759412  -0.00202660  1
  Zr  Zr60  1  0.31740068  0.89659937  0.12027213  1
  Zr  Zr61  1  0.68827505  0.50138134  0.37956073  1
  Zr  Zr62  1  0.00226024  0.60948556  0.48230302  1
  Zr  Zr63  1  0.49919767  0.50351701  0.11138525  1
  Zr  Zr64  1  0.61214308  0.80158466  0.51452413  1
  Zr  Zr65  1  -0.00504416  0.19073189  0.01076102  1
  Zr  Zr66  1  0.08363320  0.31454419  0.88296139  1
  Zr  Zr67  1  0.91528650  0.69133330  0.12964210  1
  Zr  Zr68  1  -0.00841536  0.17983047  0.24277369  1
  Zr  Zr69  1  0.30738346  0.69763095  0.38925887  1
  Zr  Zr70  1  0.59744481  -0.00487378  0.73933883  1
  Zr  Zr71  1  0.70952589  0.10372498  0.87544509  1
  Zr  Zr72  1  0.29805950  0.90451753  0.62874742  1
  Zr  Zr73  1  0.79067302  0.21795649  0.49091172  1
  Zr  Zr74  1  0.70402929  0.90125843  0.36997090  1
  Zr  Zr75  1  0.00058403  -0.01293539  0.73987715  1
  Zr  Zr76  1  0.59775154  0.58956509  0.50730760  1
  Zr  Zr77  1  0.88205307  0.30244351  0.88165408  1
  Zr  Zr78  1  0.90616614  0.49550853  0.13663725  1
  Zr  Zr79  1  0.70934542  0.49758042  0.11393364  1
  Ta  Ta80  1  0.39257339  0.00269558  0.49707694  1
  Ta  Ta81  1  0.31292045  0.29960893  0.37091978  1
  Ta  Ta82  1  0.39536049  0.20888291  0.22911173  1
  Ta  Ta83  1  0.30638318  0.10539885  0.62977157  1
  Ta  Ta84  1  0.51092810  0.89167954  0.11157647  1
  Ta  Ta85  1  0.91879020  0.70923738  0.87659466  1
  Ta  Ta86  1  0.79446727  0.18887526  0.00831619  1
  Ta  Ta87  1  0.80852796  0.60480674  0.26739224  1
  Ta  Ta88  1  0.02344828  0.60150228  0.75848668  1
  Ta  Ta89  1  0.59579072  0.37046024  0.49651258  1
  Ta  Ta90  1  0.60971891  0.59254167  0.75970064  1
  Ta  Ta91  1  0.82288340  0.59292884  -0.01535963  1
  Ta  Ta92  1  0.89397277  0.32314089  0.62245077  1
  Ta  Ta93  1  0.20512152  0.00310052  0.75347316  1
  Ta  Ta94  1  0.11414450  0.11365142  0.63649163  1
  Ta  Ta95  1  0.71600475  0.48911728  0.88257349  1
  Ta  Ta96  1  0.48550695  0.70816398  0.11811367  1
  Ta  Ta97  1  0.20331842  0.60620916  0.25581770  1
  Ta  Ta98  1  0.70939669  0.69807340  0.87291103  1
  Ta  Ta99  1  0.01225267  0.82191632  0.49956774  1
  Ta  Ta100  1  0.39374861  0.60853296  0.24786708  1
  Ta  Ta101  1  0.29901896  0.49184994  0.62721226  1
  Ta  Ta102  1  0.19971645  0.21072623  0.01580617  1
  Ta  Ta103  1  0.28021211  0.30403964  0.87463018  1
  Ta  Ta104  1  0.18265437  0.39763798  0.74697108  1
  Ta  Ta105  1  0.81128606  0.00360590  0.00777682  1
  Ta  Ta106  1  0.49561420  0.89612959  0.38342555  1
  Ta  Ta107  1  0.29777276  0.89511870  0.38414226  1
  Ta  Ta108  1  0.01769124  0.59089323  -0.00668299  1
  Ta  Ta109  1  0.71657144  0.68707334  0.63279299  1
  Ta  Ta110  1  0.40288442  0.19824491  0.50044214  1
  Ta  Ta111  1  0.60971714  -0.00147522  -0.00074627  1
  Ta  Ta112  1  0.39374586  0.38694659  0.50920044  1
  Ta  Ta113  1  0.10455304  0.91229465  0.36769053  1
  Ta  Ta114  1  0.21003809  0.20079169  0.50050663  1
  Ta  Ta115  1  0.90541350  0.89796694  0.13121325  1
  Ta  Ta116  1  0.40250427  0.80372803  0.50882650  1
  Ta  Ta117  1  0.80192230  0.60731581  0.48418404  1
  Ta  Ta118  1  0.49946034  0.28192649  0.62341470  1
  Ta  Ta119  1  0.38797104  0.18971785  0.02171785  1
  Ti  Ti120  1  0.80436588  0.80100268  0.24756338  1
  Ti  Ti121  1  0.20414284  0.40256947  0.24858207  1
  Ti  Ti122  1  -0.00545650  0.40382975  0.48502721  1
  Ti  Ti123  1  0.70469278  0.09744597  0.12746674  1
  Ti  Ti124  1  0.90536894  0.30005456  0.36826725  1
  Ti  Ti125  1  0.29254872  0.09257482  0.13322615  1
  Ti  Ti126  1  0.59817425  0.79794688  -0.00802259  1
  Ti  Ti127  1  0.39115339  0.19500920  0.74818358  1
  Ti  Ti128  1  0.19752401  0.59431680  0.49668361  1
  Ti  Ti129  1  0.31231192  0.71826919  0.86631004  1
  Ti  Ti130  1  0.28349645  0.29222220  0.63034359  1
  Ti  Ti131  1  0.10301404  0.89418372  0.87453644  1
  Ti  Ti132  1  0.68141629  0.12521733  0.61694589  1
  Ti  Ti133  1  0.58934435  0.18849295  0.01079216  1
  Ti  Ti134  1  0.29057355  0.49615677  0.37530872  1
  Ti  Ti135  1  0.09385798  0.09507378  0.36945866  1
  Ti  Ti136  1  0.78679128  0.22076719  0.74256461  1
  Ti  Ti137  1  0.39911514  0.80474803  0.74548433  1
  Ti  Ti138  1  0.20001438  0.19951309  0.23315469  1
  Ti  Ti139  1  0.79351852  0.20200756  0.25507223  1
  Ti  Ti140  1  0.91435050  0.90755680  0.36784829  1
  Ti  Ti141  1  0.70155849  0.90713455  0.12654648  1
  Ti  Ti142  1  0.49749264  0.48546014  0.62632508  1
  Ti  Ti143  1  0.19536536  0.80254736  0.51096473  1
  Ti  Ti144  1  0.70230065  0.70686595  0.37222264  1
  Ti  Ti145  1  0.80002997  0.40478858  0.48104431  1
  Ti  Ti146  1  0.09322187  0.49993396  0.35987131  1
  Ti  Ti147  1  0.49342487  0.90264369  0.62598662  1
  Ti  Ti148  1  0.40614319  -0.00510913  -0.00725022  1
  Ti  Ti149  1  0.39443223  0.58507565  0.50686440  1
  Ti  Ti150  1  0.00045054  0.00403478  0.51028423  1
  Ti  Ti151  1  0.40470851  0.00503045  0.75697783  1
  Ti  Ti152  1  0.00927846  0.80231918  0.24295788  1
  Ti  Ti153  1  0.01273002  0.79516779  0.01124715  1
  Ti  Ti154  1  0.29759062  0.69489713  0.12198099  1
  Ti  Ti155  1  0.68715160  0.30418691  0.10746137  1
  Ti  Ti156  1  0.90519329  0.09620850  0.38313616  1
  Ti  Ti157  1  0.90960649  0.91126701  0.87898015  1
  Ti  Ti158  1  0.29064194  0.50977019  0.12752252  1
  Ti  Ti159  1  0.90450425  0.71397245  0.36742164  1
  Mo  Mo160  1  0.28648524  0.30185911  0.12655397  1
  Mo  Mo161  1  0.10548395  0.09774134  0.12865997  1
  Mo  Mo162  1  0.59482547  0.39630256  0.00223076  1
  Mo  Mo163  1  0.48979140  0.29484525  0.37384730  1
  Mo  Mo164  1  -0.00139437  0.39898205  0.26763037  1
  Mo  Mo165  1  0.09308548  0.30107427  0.62185752  1
  Mo  Mo166  1  -0.01433403  0.41495536  0.00336758  1
  Mo  Mo167  1  0.80012198  0.40129842  0.00328742  1
  Mo  Mo168  1  0.00288594  0.79711565  0.76301194  1
  Mo  Mo169  1  0.10780527  0.70377960  0.12978315  1
  Mo  Mo170  1  0.90646480  0.90798295  0.62072570  1
  Mo  Mo171  1  0.40836278  0.79760465  -0.00832563  1
  Mo  Mo172  1  0.48484645  0.09638446  0.62487352  1
  Mo  Mo173  1  0.69189329  0.29584494  0.36997380  1
  Mo  Mo174  1  0.89789068  0.09627650  0.87467890  1
  Mo  Mo175  1  0.80514463  0.39398422  0.75254839  1
  Mo  Mo176  1  0.40595237  0.78907235  0.25320486  1
  Mo  Mo177  1  0.10694714  0.69856563  0.61594240  1
  Mo  Mo178  1  0.19396731  0.00535354  0.24539782  1
  Mo  Mo179  1  0.49905259  0.29063734  0.10987664  1
  Mo  Mo180  1  0.28280337  0.50270524  0.86516979  1
  Mo  Mo181  1  0.70184545  0.29727927  0.62306502  1
  Mo  Mo182  1  0.10679586  0.49851589  0.86595099  1
  Mo  Mo183  1  0.29340810  0.89963411  0.85928790  1
  Mo  Mo184  1  0.58946092  0.19772338  0.49658438  1
  Mo  Mo185  1  0.50127460  0.09454924  0.88930910  1
  Mo  Mo186  1  -0.01636540  0.41233893  0.74706724  1
  Mo  Mo187  1  0.20214465  0.20739284  0.75009642  1
  Mo  Mo188  1  0.10127875  0.89757783  0.13230929  1
  Mo  Mo189  1  0.89238065  0.09321411  0.12829608  1
  Mo  Mo190  1  0.09340752  0.90059361  0.62405227  1
  Mo  Mo191  1  0.90115569  0.50072812  0.37295393  1
  Mo  Mo192  1  0.00869867  -0.01118777  0.24368248  1
  Mo  Mo193  1  0.51024863  0.69682758  0.86878448  1
  Mo  Mo194  1  0.91945356  0.49477210  0.87626145  1
  Mo  Mo195  1  0.69847745  0.89101969  0.62647847  1
  Mo  Mo196  1  0.60578122  -0.00425207  0.24268565  1
  Mo  Mo197  1  0.00079539  0.61116359  0.27061091  1
  Mo  Mo198  1  0.20254946  0.60444676  0.00590792  1
  Mo  Mo199  1  0.21055565  0.59137246  0.74726329  1
