# generated using pymatgen
data_HfZrTaTiMo
_symmetry_space_group_name_H-M   'P 1'
_cell_length_a   15.20549525
_cell_length_b   15.20174118
_cell_length_c   16.79583703
_cell_angle_alpha   89.97725115
_cell_angle_beta   90.02957574
_cell_angle_gamma   90.07417275
_symmetry_Int_Tables_number   1
_chemical_formula_structural   HfZrTaTiMo
_chemical_formula_sum   'Hf40 Zr40 Ta40 Ti40 Mo40'
_cell_volume   3882.35370968
_cell_formula_units_Z   40
loop_
 _symmetry_equiv_pos_site_id
 _symmetry_equiv_pos_as_xyz
  1  'x, y, z'
loop_
 _atom_site_type_symbol
 _atom_site_label
 _atom_site_symmetry_multiplicity
 _atom_site_fract_x
 _atom_site_fract_y
 _atom_site_fract_z
 _atom_site_occupancy
  Hf  Hf0  1  0.01054296  0.00685103  -0.01043741  1
  Hf  Hf1  1  0.70076510  0.89560756  0.62367652  1
  Hf  Hf2  1  0.69260974  0.27665499  0.12823425  1
  Hf  Hf3  1  0.80849586  0.20549016  0.72628331  1
  Hf  Hf4  1  0.80967343  0.78895219  0.75043952  1
  Hf  Hf5  1  -0.01136271  0.19561121  0.52475775  1
  Hf  Hf6  1  0.29941224  0.69457205  0.88938324  1
  Hf  Hf7  1  0.11261596  0.11398975  0.85923670  1
  Hf  Hf8  1  0.70393577  0.89385936  0.38532959  1
  Hf  Hf9  1  0.40386333  0.20012699  -0.00143959  1
  Hf  Hf10  1  0.30811393  0.09655366  0.61405236  1
  Hf  Hf11  1  0.58988365  0.58986087  0.01481027  1
  Hf  Hf12  1  0.91752675  0.31609607  0.87020801  1
  Hf  Hf13  1  0.90099985  0.49416069  0.37755473  1
  Hf  Hf14  1  0.59098989  0.79262959  0.74292491  1
  Hf  Hf15  1  0.22310453  0.00823778  0.26177134  1
  Hf  Hf16  1  0.00303770  0.80008548  0.01144845  1
  Hf  Hf17  1  0.50194921  0.69514115  0.36131462  1
  Hf  Hf18  1  0.90440629  0.70890433  0.37375373  1
  Hf  Hf19  1  0.50117340  0.51218659  0.86134094  1
  Hf  Hf20  1  0.50270649  0.30275134  0.14120738  1
  Hf  Hf21  1  0.90256808  0.10573611  0.85490061  1
  Hf  Hf22  1  0.10561223  0.88747842  0.62156791  1
  Hf  Hf23  1  0.10749865  0.91083716  0.13691319  1
  Hf  Hf24  1  -0.00436231  0.01789276  0.25682148  1
  Hf  Hf25  1  0.19203046  0.78621383  0.49182145  1
  Hf  Hf26  1  0.30842445  0.89272937  0.38526811  1
  Hf  Hf27  1  0.78903247  0.80597722  0.24533147  1
  Hf  Hf28  1  0.50012722  0.89712894  0.38781749  1
  Hf  Hf29  1  0.00775689  0.41343147  0.51573485  1
  Hf  Hf30  1  0.89227712  0.51210763  0.86718074  1
  Hf  Hf31  1  0.10521527  0.08860196  0.63153957  1
  Hf  Hf32  1  0.88712458  0.31479976  0.11437515  1
  Hf  Hf33  1  0.78657759  0.60475464  0.48632926  1
  Hf  Hf34  1  0.08876625  0.30826120  0.38326970  1
  Hf  Hf35  1  0.20111614  0.59099444  0.49153860  1
  Hf  Hf36  1  0.90152105  0.68967196  0.12697322  1
  Hf  Hf37  1  0.69850872  0.68410884  0.87807775  1
  Hf  Hf38  1  0.59592068  -0.01301220  -0.02516825  1
  Hf  Hf39  1  0.08920144  0.70250869  0.87248305  1
  Zr  Zr40  1  0.30538856  0.49814441  0.62665894  1
  Zr  Zr41  1  0.19800732  0.38655043  0.25486572  1
  Zr  Zr42  1  0.88624107  0.91370136  0.12484251  1
  Zr  Zr43  1  0.20612020  0.79136668  0.75110340  1
  Zr  Zr44  1  0.00980419  -0.00637380  0.49662260  1
  Zr  Zr45  1  0.28520601  0.30249800  0.87662873  1
  Zr  Zr46  1  0.08276191  0.30222829  0.13947711  1
  Zr  Zr47  1  0.21714748  -0.00741221  0.75363230  1
  Zr  Zr48  1  0.38934187  0.18677928  0.26094867  1
  Zr  Zr49  1  0.69118110  0.28340407  0.39776253  1
  Zr  Zr50  1  0.49953135  0.09585354  0.62178105  1
  Zr  Zr51  1  0.79916865  -0.01288398  -0.02652658  1
  Zr  Zr52  1  0.50119539  0.31177347  0.86873626  1
  Zr  Zr53  1  0.31391064  0.89398498  0.88717206  1
  Zr  Zr54  1  0.39279651  0.80291527  0.23599310  1
  Zr  Zr55  1  0.49720493  0.71499112  0.88534344  1
  Zr  Zr56  1  0.30816484  0.49405676  0.36231331  1
  Zr  Zr57  1  0.90802215  0.70726255  0.61326865  1
  Zr  Zr58  1  0.40558907  0.41674977  0.00807253  1
  Zr  Zr59  1  0.80141652  0.37327879  0.26574325  1
  Zr  Zr60  1  0.80102706  0.40537218  0.72904912  1
  Zr  Zr61  1  0.90104068  0.90961114  0.37431798  1
  Zr  Zr62  1  0.01429804  0.21564409  -0.00841051  1
  Zr  Zr63  1  0.17764158  0.59345283  0.00962066  1
  Zr  Zr64  1  0.80910121  0.01805612  0.51451600  1
  Zr  Zr65  1  0.69402306  0.49352994  0.86881050  1
  Zr  Zr66  1  0.70273965  0.07133672  0.11932641  1
  Zr  Zr67  1  0.10260703  0.51581512  0.63947191  1
  Zr  Zr68  1  0.50325096  0.30613657  0.61966936  1
  Zr  Zr69  1  0.90641017  0.11547473  0.12741729  1
  Zr  Zr70  1  0.29336942  0.50083591  0.86890402  1
  Zr  Zr71  1  0.39768509  0.61894431  0.74124219  1
  Zr  Zr72  1  0.29478750  0.29519748  0.12665515  1
  Zr  Zr73  1  0.71064782  0.30119235  0.87014148  1
  Zr  Zr74  1  0.09301229  0.49193569  0.85606359  1
  Zr  Zr75  1  0.59662869  0.18494097  -0.01756702  1
  Zr  Zr76  1  0.69746312  0.48283667  0.13957981  1
  Zr  Zr77  1  0.10518754  0.11349920  0.37452299  1
  Zr  Zr78  1  0.61076495  0.00371649  0.25983371  1
  Zr  Zr79  1  0.80138848  0.19181523  -0.01324635  1
  Ta  Ta80  1  0.01120799  0.21262156  0.73064859  1
  Ta  Ta81  1  0.39671307  0.19789639  0.75042284  1
  Ta  Ta82  1  0.11349815  0.11034325  0.13505568  1
  Ta  Ta83  1  0.49681184  0.30983469  0.37063820  1
  Ta  Ta84  1  0.40494919  0.60115141  0.49699678  1
  Ta  Ta85  1  -0.00301115  0.42963436  0.00434850  1
  Ta  Ta86  1  0.09680866  0.51018544  0.35993286  1
  Ta  Ta87  1  0.68641904  0.49776103  0.62004470  1
  Ta  Ta88  1  0.20433422  0.00432398  -0.00396182  1
  Ta  Ta89  1  -0.00073760  0.80532049  0.24256959  1
  Ta  Ta90  1  0.69846661  0.69279427  0.12504349  1
  Ta  Ta91  1  0.69869393  0.68677485  0.62712009  1
  Ta  Ta92  1  0.41030060  0.00335992  0.00348206  1
  Ta  Ta93  1  0.60005063  0.19882084  0.75323963  1
  Ta  Ta94  1  0.01082696  0.61635777  0.49144911  1
  Ta  Ta95  1  0.08559440  0.50678087  0.15100907  1
  Ta  Ta96  1  0.10780430  0.69918085  0.14475338  1
  Ta  Ta97  1  0.39706695  0.39305695  0.74256935  1
  Ta  Ta98  1  0.91107791  0.90203478  0.63206751  1
  Ta  Ta99  1  0.31207322  0.89658577  0.60369207  1
  Ta  Ta100  1  0.19939219  0.19648862  0.00000852  1
  Ta  Ta101  1  0.89382339  0.69745114  0.88943548  1
  Ta  Ta102  1  0.60482193  0.00522443  0.49682876  1
  Ta  Ta103  1  0.60652011  0.78275509  0.50173771  1
  Ta  Ta104  1  0.49939324  0.50018878  0.35412058  1
  Ta  Ta105  1  0.19968245  0.80289747  0.00899621  1
  Ta  Ta106  1  0.89992786  0.50069041  0.14604591  1
  Ta  Ta107  1  0.00734619  -0.01366649  0.75870528  1
  Ta  Ta108  1  0.10458849  0.89115922  0.36276579  1
  Ta  Ta109  1  0.30336709  0.90651774  0.11829382  1
  Ta  Ta110  1  0.31062397  0.10093246  0.87641832  1
  Ta  Ta111  1  0.29252193  0.50774691  0.14047938  1
  Ta  Ta112  1  0.59732318  -0.00639230  0.75861434  1
  Ta  Ta113  1  0.30306724  0.09490344  0.12033870  1
  Ta  Ta114  1  0.78860145  0.60184871  0.26339092  1
  Ta  Ta115  1  0.49720928  0.89563557  0.60579348  1
  Ta  Ta116  1  0.18385572  0.39629400  0.00945889  1
  Ta  Ta117  1  0.68541217  0.49247172  0.37056407  1
  Ta  Ta118  1  0.59158065  0.59303400  0.49391246  1
  Ta  Ta119  1  0.69250087  0.10208666  0.63239392  1
  Ti  Ti120  1  0.80660041  0.80293320  0.50363295  1
  Ti  Ti121  1  0.59989514  0.80047579  0.01305990  1
  Ti  Ti122  1  0.10058315  0.69979071  0.63195182  1
  Ti  Ti123  1  0.69814081  0.88090553  0.86612129  1
  Ti  Ti124  1  0.20764015  0.00261202  0.48897681  1
  Ti  Ti125  1  0.79876336  -0.00554540  0.75117508  1
  Ti  Ti126  1  0.49797774  0.69931454  0.61563165  1
  Ti  Ti127  1  -0.01664135  0.61676776  0.74604444  1
  Ti  Ti128  1  0.91397467  0.88480995  0.87056732  1
  Ti  Ti129  1  0.40002530  0.81342637  0.74137289  1
  Ti  Ti130  1  0.10531217  0.70162352  0.35146863  1
  Ti  Ti131  1  0.79050809  0.79552279  0.00365975  1
  Ti  Ti132  1  0.41081812  0.80721436  0.02102828  1
  Ti  Ti133  1  0.49564501  0.49828817  0.15674340  1
  Ti  Ti134  1  0.29899700  0.70314513  0.61682913  1
  Ti  Ti135  1  0.69385966  0.30511864  0.60412282  1
  Ti  Ti136  1  0.40406364  0.40476528  0.49805905  1
  Ti  Ti137  1  -0.02231104  0.22193343  0.26298253  1
  Ti  Ti138  1  0.80360274  0.57842593  0.01039369  1
  Ti  Ti139  1  0.88889905  0.51542849  0.61608541  1
  Ti  Ti140  1  0.50603942  0.50415769  0.63113390  1
  Ti  Ti141  1  0.20908622  0.39401738  0.50266523  1
  Ti  Ti142  1  0.41065398  -0.00396455  0.75268771  1
  Ti  Ti143  1  0.78054019  0.17416776  0.25810023  1
  Ti  Ti144  1  0.41429927  -0.00312585  0.24572587  1
  Ti  Ti145  1  0.50653854  0.10120361  0.12992712  1
  Ti  Ti146  1  0.39341930  0.60808836  0.02273709  1
  Ti  Ti147  1  0.19759339  0.38655539  0.73426918  1
  Ti  Ti148  1  0.50818254  0.10968043  0.38349205  1
  Ti  Ti149  1  0.20979654  0.20793570  0.73464088  1
  Ti  Ti150  1  0.60905709  0.39407239  0.00367498  1
  Ti  Ti151  1  0.88806285  0.30050489  0.40955867  1
  Ti  Ti152  1  0.49989261  0.69660742  0.13599256  1
  Ti  Ti153  1  0.40008863  0.20345055  0.49234265  1
  Ti  Ti154  1  0.30128494  0.69338195  0.36439154  1
  Ti  Ti155  1  0.29521129  0.28722804  0.37700457  1
  Ti  Ti156  1  -0.00129376  0.39421656  0.72409131  1
  Ti  Ti157  1  0.20066479  0.20534297  0.50954875  1
  Ti  Ti158  1  0.88412245  0.11541969  0.38130491  1
  Ti  Ti159  1  0.59772085  0.80362538  0.23915956  1
  Mo  Mo160  1  0.00064266  0.80298583  0.75582905  1
  Mo  Mo161  1  0.20252564  0.60628384  0.25012574  1
  Mo  Mo162  1  0.89817335  0.31051808  0.61104383  1
  Mo  Mo163  1  0.70007939  0.09751857  0.38665725  1
  Mo  Mo164  1  0.40333278  0.78425072  0.49917714  1
  Mo  Mo165  1  0.59461804  0.19498848  0.25679269  1
  Mo  Mo166  1  0.00827101  0.79851842  0.49156619  1
  Mo  Mo167  1  0.39691102  0.60354134  0.23727128  1
  Mo  Mo168  1  0.59342254  0.19537036  0.50395658  1
  Mo  Mo169  1  0.39713241  0.39605553  0.25034589  1
  Mo  Mo170  1  0.69260494  0.88595105  0.11890029  1
  Mo  Mo171  1  0.49253585  0.09596158  0.86111962  1
  Mo  Mo172  1  0.59980798  0.39211510  0.25936560  1
  Mo  Mo173  1  0.11164257  0.30092366  0.61614305  1
  Mo  Mo174  1  0.80283784  0.00250712  0.25786545  1
  Mo  Mo175  1  0.79492452  0.40763777  0.50988334  1
  Mo  Mo176  1  0.60178698  0.60057864  0.73812603  1
  Mo  Mo177  1  0.19856221  0.60429831  0.74940751  1
  Mo  Mo178  1  0.30602334  0.29677614  0.61780520  1
  Mo  Mo179  1  0.69419984  0.69961322  0.37189179  1
  Mo  Mo180  1  0.49992172  0.89320186  0.87127268  1
  Mo  Mo181  1  0.80210255  0.40573053  0.00304731  1
  Mo  Mo182  1  0.30848981  0.10106018  0.39623724  1
  Mo  Mo183  1  0.50564012  0.91065126  0.12403816  1
  Mo  Mo184  1  0.10588699  0.31072677  0.86687165  1
  Mo  Mo185  1  0.90501763  0.08905145  0.64865207  1
  Mo  Mo186  1  0.79814781  0.60362103  0.74245859  1
  Mo  Mo187  1  -0.00777707  0.60237031  0.00790027  1
  Mo  Mo188  1  -0.00788181  0.60524627  0.25973028  1
  Mo  Mo189  1  0.70289013  0.09301626  0.84493659  1
  Mo  Mo190  1  0.19352575  0.19221770  0.25699343  1
  Mo  Mo191  1  0.40577814  0.00261043  0.49393267  1
  Mo  Mo192  1  -0.01128979  0.39950629  0.26402493  1
  Mo  Mo193  1  0.79599430  0.19862160  0.52446620  1
  Mo  Mo194  1  0.29593973  0.70398061  0.11560602  1
  Mo  Mo195  1  0.60382000  0.60694734  0.24331913  1
  Mo  Mo196  1  0.58702294  0.41196751  0.49228008  1
  Mo  Mo197  1  0.20207488  0.80515723  0.24950799  1
  Mo  Mo198  1  0.10163606  0.90082216  0.88624303  1
  Mo  Mo199  1  0.59456751  0.39773295  0.74044450  1
