# generated using pymatgen
data_HfZrTaTiMo
_symmetry_space_group_name_H-M   'P 1'
_cell_length_a   15.21461066
_cell_length_b   15.20993776
_cell_length_c   16.86571692
_cell_angle_alpha   90.03268856
_cell_angle_beta   89.97303819
_cell_angle_gamma   90.18699820
_symmetry_Int_Tables_number   1
_chemical_formula_structural   HfZrTaTiMo
_chemical_formula_sum   'Hf40 Zr40 Ta40 Ti40 Mo40'
_cell_volume   3902.92904211
_cell_formula_units_Z   40
loop_
 _symmetry_equiv_pos_site_id
 _symmetry_equiv_pos_as_xyz
  1  'x, y, z'
loop_
 _atom_site_type_symbol
 _atom_site_label
 _atom_site_symmetry_multiplicity
 _atom_site_fract_x
 _atom_site_fract_y
 _atom_site_fract_z
 _atom_site_occupancy
  Hf  Hf0  1  0.10023334  0.90818213  0.88482035  1
  Hf  Hf1  1  0.20065965  0.39255174  0.50856034  1
  Hf  Hf2  1  0.68288687  0.29673063  0.87553931  1
  Hf  Hf3  1  0.19547094  0.57759244  -0.02246631  1
  Hf  Hf4  1  0.49546768  0.90187981  0.36790128  1
  Hf  Hf5  1  0.81466355  0.00103537  0.74636313  1
  Hf  Hf6  1  0.40562901  0.20251126  -0.00856267  1
  Hf  Hf7  1  0.50382086  0.08917271  0.38768512  1
  Hf  Hf8  1  0.60539531  -0.01840753  0.74286985  1
  Hf  Hf9  1  0.00271772  -0.00073098  0.24869061  1
  Hf  Hf10  1  0.19589037  0.60258335  0.51851002  1
  Hf  Hf11  1  0.19303107  0.79229088  0.24545569  1
  Hf  Hf12  1  0.29693859  0.29410989  0.12673474  1
  Hf  Hf13  1  0.30948159  0.89447916  0.88008792  1
  Hf  Hf14  1  0.59875114  0.60283734  0.01507455  1
  Hf  Hf15  1  0.89170564  0.29533475  0.87831272  1
  Hf  Hf16  1  0.90284081  0.50870652  0.86994695  1
  Hf  Hf17  1  0.29170709  0.29276386  0.64948461  1
  Hf  Hf18  1  0.89605426  0.52039144  0.60876031  1
  Hf  Hf19  1  0.29943794  0.90438060  0.37842386  1
  Hf  Hf20  1  0.09003358  0.49497969  0.38992526  1
  Hf  Hf21  1  0.70200559  0.50599413  0.88401606  1
  Hf  Hf22  1  0.20354393  0.80995444  0.74458147  1
  Hf  Hf23  1  0.38681945  0.19008067  0.50814267  1
  Hf  Hf24  1  0.60679489  0.81357269  0.48994553  1
  Hf  Hf25  1  0.50480506  0.28428943  0.37867145  1
  Hf  Hf26  1  0.28644174  0.50647608  0.37334891  1
  Hf  Hf27  1  0.79819356  0.40276058  0.00330408  1
  Hf  Hf28  1  0.90295248  0.29822606  0.11303570  1
  Hf  Hf29  1  0.49834483  0.50381025  0.61750950  1
  Hf  Hf30  1  0.71163432  0.29485178  0.39033807  1
  Hf  Hf31  1  0.09631915  0.70231479  0.86473280  1
  Hf  Hf32  1  0.10116180  0.31386602  0.11358112  1
  Hf  Hf33  1  0.19794399  0.00498359  0.24069007  1
  Hf  Hf34  1  0.50853349  0.28434863  0.13502152  1
  Hf  Hf35  1  0.68753406  0.09843196  0.12634987  1
  Hf  Hf36  1  0.89641011  0.09711270  0.11827685  1
  Hf  Hf37  1  0.08112743  0.27776178  0.64809858  1
  Hf  Hf38  1  0.29971699  0.08721048  0.86127679  1
  Hf  Hf39  1  0.37268874  0.39990413  -0.02203360  1
  Zr  Zr40  1  0.30053750  0.89842285  0.11956655  1
  Zr  Zr41  1  0.40648407  0.39512237  0.76376662  1
  Zr  Zr42  1  0.62008346  0.60483108  0.74595116  1
  Zr  Zr43  1  0.60824607  0.61694644  0.48192215  1
  Zr  Zr44  1  0.38539492  0.38717305  0.26156013  1
  Zr  Zr45  1  0.61109595  0.39659168  0.25444113  1
  Zr  Zr46  1  0.08660450  0.29614070  0.86382070  1
  Zr  Zr47  1  0.90634661  0.89664862  0.37118920  1
  Zr  Zr48  1  0.48758778  0.49505986  0.12329000  1
  Zr  Zr49  1  0.50274764  0.49824439  0.38291372  1
  Zr  Zr50  1  0.39205138  0.60339038  0.24987819  1
  Zr  Zr51  1  0.70739710  0.71437533  0.88626287  1
  Zr  Zr52  1  -0.00047692  0.37966361  0.51708180  1
  Zr  Zr53  1  0.70901914  0.71484547  0.13526891  1
  Zr  Zr54  1  0.50590991  0.71114679  0.87667933  1
  Zr  Zr55  1  0.80787259  0.19777706  0.74190124  1
  Zr  Zr56  1  0.18596112  0.20199933  0.50287892  1
  Zr  Zr57  1  0.50265312  0.29973445  0.61881245  1
  Zr  Zr58  1  0.81096898  0.60311343  0.26483516  1
  Zr  Zr59  1  0.91097831  0.69544485  0.12620941  1
  Zr  Zr60  1  0.50468843  0.50346166  0.87927119  1
  Zr  Zr61  1  0.41402381  0.00631660  0.00796946  1
  Zr  Zr62  1  0.08943418  0.70483553  0.63353211  1
  Zr  Zr63  1  0.29584887  0.70926486  0.38155351  1
  Zr  Zr64  1  0.81685244  0.39771077  0.25287707  1
  Zr  Zr65  1  0.79221506  0.40961400  0.74074374  1
  Zr  Zr66  1  0.60312422  0.60625478  0.25528890  1
  Zr  Zr67  1  0.60169919  0.19663543  0.73429135  1
  Zr  Zr68  1  0.61144425  0.82900621  0.00932605  1
  Zr  Zr69  1  0.26688606  0.49730529  0.12887276  1
  Zr  Zr70  1  0.31086428  0.90581487  0.62237158  1
  Zr  Zr71  1  0.29958168  0.10450725  0.37112959  1
  Zr  Zr72  1  0.00202005  0.21086373  0.25197497  1
  Zr  Zr73  1  0.90153439  0.71005171  0.87875012  1
  Zr  Zr74  1  0.79687025  0.80068546  0.74249796  1
  Zr  Zr75  1  0.20479424  0.20734658  -0.01705554  1
  Zr  Zr76  1  0.69671966  0.49588078  0.59724981  1
  Zr  Zr77  1  0.51417096  0.71287298  0.62549702  1
  Zr  Zr78  1  0.88783894  0.89410209  0.12673724  1
  Zr  Zr79  1  0.39019196  0.39661462  0.49648631  1
  Ta  Ta80  1  0.20066724  0.59999063  0.75157107  1
  Ta  Ta81  1  0.49075089  0.07728737  0.62197147  1
  Ta  Ta82  1  0.49815818  0.71163552  0.12857543  1
  Ta  Ta83  1  0.29920609  0.50142550  0.63839669  1
  Ta  Ta84  1  0.39565453  0.60820338  0.50358975  1
  Ta  Ta85  1  -0.00236158  0.79424730  0.50311681  1
  Ta  Ta86  1  0.89425644  0.10682327  0.38135059  1
  Ta  Ta87  1  0.20090363  0.78862227  0.00029190  1
  Ta  Ta88  1  0.19746013  0.00483923  0.00834136  1
  Ta  Ta89  1  0.40018005  0.60817986  0.74906683  1
  Ta  Ta90  1  0.09165807  0.09737968  0.37954160  1
  Ta  Ta91  1  0.79791587  0.01282935  0.25861483  1
  Ta  Ta92  1  0.70209276  0.29461524  0.12141118  1
  Ta  Ta93  1  0.19591623  0.40303851  0.76645040  1
  Ta  Ta94  1  0.30084169  0.69307950  0.11799062  1
  Ta  Ta95  1  0.20017642  0.00128441  0.50273422  1
  Ta  Ta96  1  0.09279027  0.69712567  0.38290833  1
  Ta  Ta97  1  0.41969150  0.81350318  0.74864480  1
  Ta  Ta98  1  0.30582956  0.70028486  0.87165666  1
  Ta  Ta99  1  0.10386482  0.10613479  0.11766376  1
  Ta  Ta100  1  0.59604316  0.18886921  -0.00465575  1
  Ta  Ta101  1  0.79147066  0.18912023  -0.00590787  1
  Ta  Ta102  1  0.29573947  0.09409732  0.64560887  1
  Ta  Ta103  1  0.89716063  0.91294323  0.88727249  1
  Ta  Ta104  1  0.18013674  0.17592580  0.76201988  1
  Ta  Ta105  1  0.60676530  0.18802415  0.51339914  1
  Ta  Ta106  1  0.50534070  0.10291476  0.86091470  1
  Ta  Ta107  1  0.09206433  0.89373538  0.11471842  1
  Ta  Ta108  1  0.70659960  0.49733092  0.12425663  1
  Ta  Ta109  1  0.01596698  0.58473015  0.25198291  1
  Ta  Ta110  1  0.40008025  0.80497111  0.24067628  1
  Ta  Ta111  1  0.40535240  0.79613667  0.00612128  1
  Ta  Ta112  1  0.90319690  0.50449168  0.39643874  1
  Ta  Ta113  1  0.69739531  0.90650555  0.36214964  1
  Ta  Ta114  1  0.17104833  0.39818959  0.25946347  1
  Ta  Ta115  1  0.01034123  0.01374421  0.75343280  1
  Ta  Ta116  1  0.10898771  0.68438575  0.12006350  1
  Ta  Ta117  1  0.79583918  -0.00258345  0.49646035  1
  Ta  Ta118  1  0.01357346  0.41191770  -0.01211475  1
  Ta  Ta119  1  0.80289139  0.79477137  0.48941941  1
  Ti  Ti120  1  -0.00010936  0.78699728  0.25103927  1
  Ti  Ti121  1  0.91557284  0.49641384  0.12214909  1
  Ti  Ti122  1  0.51207633  0.90992483  0.13298226  1
  Ti  Ti123  1  0.80636222  0.60605153  0.01061175  1
  Ti  Ti124  1  0.69918165  0.89294582  0.61657650  1
  Ti  Ti125  1  0.70018410  0.90529377  0.15031523  1
  Ti  Ti126  1  0.70633822  0.08910243  0.61511068  1
  Ti  Ti127  1  0.59330089  0.01610817  0.25228382  1
  Ti  Ti128  1  0.91437776  0.10691524  0.61543763  1
  Ti  Ti129  1  0.90538009  0.90348336  0.61423390  1
  Ti  Ti130  1  0.10476554  0.89518262  0.38049848  1
  Ti  Ti131  1  0.81596951  0.20208981  0.50868591  1
  Ti  Ti132  1  0.10051065  0.08312616  0.62354697  1
  Ti  Ti133  1  0.69864007  0.10160124  0.38167430  1
  Ti  Ti134  1  0.78424107  -0.01131880  -0.00050451  1
  Ti  Ti135  1  0.30938555  0.70033440  0.63024278  1
  Ti  Ti136  1  0.39374914  0.60334366  -0.00179934  1
  Ti  Ti137  1  0.09938838  0.49573149  0.63826242  1
  Ti  Ti138  1  -0.00111667  0.80038125  0.00239067  1
  Ti  Ti139  1  0.19414617  0.80580454  0.51138942  1
  Ti  Ti140  1  0.70715396  0.30299692  0.60725066  1
  Ti  Ti141  1  0.70964422  0.49504841  0.39069790  1
  Ti  Ti142  1  -0.01579573  0.60904084  0.74241456  1
  Ti  Ti143  1  0.70376416  0.08635820  0.87455297  1
  Ti  Ti144  1  0.00425159  0.59896328  -0.00413515  1
  Ti  Ti145  1  -0.00096255  0.18662407  -0.00893014  1
  Ti  Ti146  1  0.40305946  0.18634202  0.24779662  1
  Ti  Ti147  1  0.91526356  0.30208006  0.38241121  1
  Ti  Ti148  1  0.60033621  0.39919624  0.74782172  1
  Ti  Ti149  1  0.79277197  0.20152558  0.25271204  1
  Ti  Ti150  1  -0.01414749  0.39980987  0.74181853  1
  Ti  Ti151  1  0.49748235  0.71030742  0.36686687  1
  Ti  Ti152  1  0.00245850  -0.00158690  0.49723020  1
  Ti  Ti153  1  0.58913300  0.38937089  0.00545308  1
  Ti  Ti154  1  0.39717576  0.00497554  0.23588024  1
  Ti  Ti155  1  0.20125588  0.20466258  0.25468326  1
  Ti  Ti156  1  0.72317927  0.69405596  0.61748170  1
  Ti  Ti157  1  0.51548154  0.90847167  0.87761684  1
  Ti  Ti158  1  0.40349230  0.80309394  0.50355300  1
  Ti  Ti159  1  -0.00523229  0.82307171  0.74347985  1
  Mo  Mo160  1  0.89576445  0.71437192  0.62292176  1
  Mo  Mo161  1  0.70667183  0.71758381  0.36097027  1
  Mo  Mo162  1  -0.01457464  0.18494339  0.75634571  1
  Mo  Mo163  1  0.09022552  0.08819825  0.88724853  1
  Mo  Mo164  1  0.29446589  0.10847860  0.12958432  1
  Mo  Mo165  1  0.50501531  0.29257042  0.87374155  1
  Mo  Mo166  1  0.80738556  0.61556352  0.48076800  1
  Mo  Mo167  1  0.70762771  0.90836061  0.87420506  1
  Mo  Mo168  1  0.59380424  0.80998324  0.24897073  1
  Mo  Mo169  1  0.61009216  0.19320892  0.25680345  1
  Mo  Mo170  1  0.89512567  0.09207055  0.88940837  1
  Mo  Mo171  1  0.19312896  -0.00857992  0.74826679  1
  Mo  Mo172  1  0.60269979  0.39013976  0.49195510  1
  Mo  Mo173  1  0.19427431  0.39906309  -0.02814416  1
  Mo  Mo174  1  -0.00334330  0.18419090  0.49739474  1
  Mo  Mo175  1  0.39696531  -0.00434171  0.50305211  1
  Mo  Mo176  1  0.00062146  -0.00171923  0.00963492  1
  Mo  Mo177  1  -0.00711108  0.40400863  0.25454006  1
  Mo  Mo178  1  0.60852944  0.00082323  0.50404701  1
  Mo  Mo179  1  0.00387058  0.60548523  0.50751764  1
  Mo  Mo180  1  0.40642319  -0.00576080  0.75511827  1
  Mo  Mo181  1  0.60307997  0.01285918  -0.00522930  1
  Mo  Mo182  1  0.50737593  0.90043356  0.61796838  1
  Mo  Mo183  1  0.80212411  0.60085534  0.74502609  1
  Mo  Mo184  1  0.40008833  0.19043363  0.75023958  1
  Mo  Mo185  1  0.10051448  0.29273068  0.37384406  1
  Mo  Mo186  1  0.89289574  0.29875009  0.62465234  1
  Mo  Mo187  1  0.91305342  0.69680416  0.37426482  1
  Mo  Mo188  1  0.60581847  0.80421156  0.74835735  1
  Mo  Mo189  1  0.08699517  0.50611977  0.85125130  1
  Mo  Mo190  1  0.18871762  0.60289616  0.25264704  1
  Mo  Mo191  1  0.29165677  0.29798741  0.36525666  1
  Mo  Mo192  1  0.29962400  0.51044794  0.85801127  1
  Mo  Mo193  1  0.08931828  0.49954732  0.11847276  1
  Mo  Mo194  1  0.09289464  0.90889679  0.61803356  1
  Mo  Mo195  1  0.80318720  0.80722403  0.26498763  1
  Mo  Mo196  1  0.80668808  0.80578686  0.00363494  1
  Mo  Mo197  1  0.80515867  0.39587828  0.49589630  1
  Mo  Mo198  1  0.49557586  0.09971567  0.13065859  1
  Mo  Mo199  1  0.29975977  0.28996520  0.85168484  1
