# generated using pymatgen
data_HfZrTaTiMo
_symmetry_space_group_name_H-M   'P 1'
_cell_length_a   15.20730902
_cell_length_b   15.21142035
_cell_length_c   16.82556274
_cell_angle_alpha   89.99539757
_cell_angle_beta   89.98653994
_cell_angle_gamma   89.96659211
_symmetry_Int_Tables_number   1
_chemical_formula_structural   HfZrTaTiMo
_chemical_formula_sum   'Hf40 Zr40 Ta40 Ti40 Mo40'
_cell_volume   3892.16864736
_cell_formula_units_Z   40
loop_
 _symmetry_equiv_pos_site_id
 _symmetry_equiv_pos_as_xyz
  1  'x, y, z'
loop_
 _atom_site_type_symbol
 _atom_site_label
 _atom_site_symmetry_multiplicity
 _atom_site_fract_x
 _atom_site_fract_y
 _atom_site_fract_z
 _atom_site_occupancy
  Hf  Hf0  1  0.00499859  0.39520843  0.00003375  1
  Hf  Hf1  1  0.91400657  0.29519498  0.13066965  1
  Hf  Hf2  1  0.20782589  -0.00950113  0.49526579  1
  Hf  Hf3  1  0.01899553  0.40006096  0.26566565  1
  Hf  Hf4  1  0.47541563  0.89812297  0.36672483  1
  Hf  Hf5  1  0.60703363  0.20524700  0.75036795  1
  Hf  Hf6  1  0.70451463  0.51700318  0.10960464  1
  Hf  Hf7  1  0.50180726  0.29799277  0.12304193  1
  Hf  Hf8  1  0.41054915  0.41514683  0.48498038  1
  Hf  Hf9  1  0.10157046  0.71061136  0.37872421  1
  Hf  Hf10  1  0.61837133  0.18726609  0.23284115  1
  Hf  Hf11  1  0.58207672  0.60156927  0.49344489  1
  Hf  Hf12  1  0.50633928  0.70760388  0.10459477  1
  Hf  Hf13  1  0.40310406  0.41172662  0.25584219  1
  Hf  Hf14  1  0.49655914  0.70180758  0.89281981  1
  Hf  Hf15  1  0.58309602  0.80627515  0.50805864  1
  Hf  Hf16  1  0.18997316  0.79833451  0.51893329  1
  Hf  Hf17  1  0.59632712  0.60101801  0.75058802  1
  Hf  Hf18  1  0.91253308  0.27908036  0.62151233  1
  Hf  Hf19  1  0.70113089  0.70880019  0.87550035  1
  Hf  Hf20  1  0.28599304  0.70481102  0.87935819  1
  Hf  Hf21  1  0.80484612  0.19424262  0.76382160  1
  Hf  Hf22  1  0.29483932  0.30049550  0.60326465  1
  Hf  Hf23  1  0.79645578  0.37461934  0.49938330  1
  Hf  Hf24  1  0.39505458  0.19841059  0.00978577  1
  Hf  Hf25  1  0.59754709  0.80886292  0.74340857  1
  Hf  Hf26  1  0.88417719  0.89143064  0.13597805  1
  Hf  Hf27  1  0.68761949  0.48475766  0.38504228  1
  Hf  Hf28  1  0.50557389  0.90715982  0.88243988  1
  Hf  Hf29  1  0.00473226  -0.01257709  0.01260466  1
  Hf  Hf30  1  0.39902923  0.61506851  0.25802518  1
  Hf  Hf31  1  0.01594285  0.18850227  0.75882957  1
  Hf  Hf32  1  0.51181501  0.10688922  0.89325641  1
  Hf  Hf33  1  0.00377133  0.79947896  0.24265200  1
  Hf  Hf34  1  0.02301469  0.18630860  0.25179540  1
  Hf  Hf35  1  0.20053412  0.19726417  0.01359980  1
  Hf  Hf36  1  0.58852789  0.60184122  0.25262592  1
  Hf  Hf37  1  0.51334638  0.09109311  0.36358969  1
  Hf  Hf38  1  -0.00441947  0.59367210  -0.00669352  1
  Hf  Hf39  1  0.38202314  0.81681808  0.51206215  1
  Zr  Zr40  1  0.89949396  0.68965235  0.38813444  1
  Zr  Zr41  1  -0.00484318  0.59837920  0.73873923  1
  Zr  Zr42  1  0.40451513  0.20719177  0.75112328  1
  Zr  Zr43  1  0.38704957  0.80916606  0.75605666  1
  Zr  Zr44  1  0.08960623  0.70178014  0.86678336  1
  Zr  Zr45  1  0.71503614  0.09804662  0.62841696  1
  Zr  Zr46  1  0.62553456  0.21614908  0.50463350  1
  Zr  Zr47  1  0.50141521  0.30766859  0.88957750  1
  Zr  Zr48  1  0.38909407  0.01187366  0.76928979  1
  Zr  Zr49  1  0.28167202  0.49461781  0.13237976  1
  Zr  Zr50  1  0.60860670  0.40504002  0.23107788  1
  Zr  Zr51  1  0.91479237  0.06711569  0.63701770  1
  Zr  Zr52  1  0.69017077  0.70956492  0.37609967  1
  Zr  Zr53  1  0.51850564  0.30580777  0.36625220  1
  Zr  Zr54  1  0.88694824  0.89716625  0.35558471  1
  Zr  Zr55  1  0.80449059  0.39860360  0.74965545  1
  Zr  Zr56  1  0.49828864  0.50732917  0.89282543  1
  Zr  Zr57  1  0.79389932  0.59919087  0.25791589  1
  Zr  Zr58  1  0.21163797  0.20131811  0.74848347  1
  Zr  Zr59  1  0.70446662  0.50046093  0.88363431  1
  Zr  Zr60  1  0.39400003  0.40380241  0.74864614  1
  Zr  Zr61  1  0.18449070  0.81118653  0.01118775  1
  Zr  Zr62  1  0.72204635  0.10055985  0.37311065  1
  Zr  Zr63  1  0.10575294  0.49437038  0.86485995  1
  Zr  Zr64  1  0.41199612  0.19205369  0.49057739  1
  Zr  Zr65  1  0.78490044  0.80116801  0.50968366  1
  Zr  Zr66  1  0.30293372  0.69611069  0.11325081  1
  Zr  Zr67  1  0.18954733  0.59429941  0.25888480  1
  Zr  Zr68  1  0.90890710  0.07496847  0.87345504  1
  Zr  Zr69  1  0.10935116  0.12020720  0.60500628  1
  Zr  Zr70  1  0.00959705  0.39160373  0.73783490  1
  Zr  Zr71  1  0.60362591  -0.00072277  0.50231551  1
  Zr  Zr72  1  0.81276295  0.40014543  0.25327890  1
  Zr  Zr73  1  -0.00900835  0.58978215  0.25594097  1
  Zr  Zr74  1  0.29833848  0.08786312  0.36457920  1
  Zr  Zr75  1  0.17705133  0.00714722  0.23462440  1
  Zr  Zr76  1  0.69478056  0.48843496  0.61763024  1
  Zr  Zr77  1  0.81273140  0.19620836  -0.00572769  1
  Zr  Zr78  1  -0.00932664  0.81603297  0.50940888  1
  Zr  Zr79  1  0.48883700  0.50925313  0.62520052  1
  Ta  Ta80  1  0.00360546  0.39123034  0.49828449  1
  Ta  Ta81  1  0.81580811  -0.01308852  0.49668643  1
  Ta  Ta82  1  0.50459127  0.10487125  0.62549214  1
  Ta  Ta83  1  0.69876013  0.29644362  0.89114572  1
  Ta  Ta84  1  0.29347248  0.30578188  0.88125299  1
  Ta  Ta85  1  0.38939621  0.81965213  -0.00288724  1
  Ta  Ta86  1  0.08760289  0.91741816  0.63246676  1
  Ta  Ta87  1  0.89858089  0.09577787  0.12952910  1
  Ta  Ta88  1  0.30088207  0.29784950  0.37053763  1
  Ta  Ta89  1  0.61309953  0.82070152  0.00350540  1
  Ta  Ta90  1  0.09093358  0.68669267  0.12355316  1
  Ta  Ta91  1  0.81190144  0.61159778  -0.00849497  1
  Ta  Ta92  1  0.09741474  0.90017052  0.87003961  1
  Ta  Ta93  1  0.31404459  0.08487488  0.61575086  1
  Ta  Ta94  1  0.38646452  0.40260834  0.00875493  1
  Ta  Ta95  1  0.79262004  -0.01656227  0.00295245  1
  Ta  Ta96  1  0.38767577  0.60502915  0.75575961  1
  Ta  Ta97  1  0.49358144  0.91782420  0.12069306  1
  Ta  Ta98  1  0.60635281  0.39816453  0.01293846  1
  Ta  Ta99  1  0.48513686  0.91965361  0.63233073  1
  Ta  Ta100  1  0.29704116  0.50323165  0.88053882  1
  Ta  Ta101  1  0.10678481  0.29268335  0.87900361  1
  Ta  Ta102  1  0.68630082  0.90665491  0.35658699  1
  Ta  Ta103  1  0.40587670  0.19293236  0.24652084  1
  Ta  Ta104  1  0.20162549  0.80525807  0.23619034  1
  Ta  Ta105  1  0.60129681  0.39551005  0.75361842  1
  Ta  Ta106  1  0.80270510  0.79220299  0.74127161  1
  Ta  Ta107  1  0.58714075  0.80247339  0.24355901  1
  Ta  Ta108  1  0.69379005  0.69342300  0.62637128  1
  Ta  Ta109  1  0.90836420  0.28249738  0.37350981  1
  Ta  Ta110  1  0.19717389  0.39640619  0.00345280  1
  Ta  Ta111  1  0.51423485  0.30976865  0.61844918  1
  Ta  Ta112  1  0.29997476  0.71976694  0.37411332  1
  Ta  Ta113  1  -0.01412840  0.79037095  0.00438584  1
  Ta  Ta114  1  0.11460944  0.28819753  0.39169955  1
  Ta  Ta115  1  0.19965873  0.60371158  0.50043479  1
  Ta  Ta116  1  0.90395133  0.49773268  0.60484512  1
  Ta  Ta117  1  0.49167654  0.51327548  0.10529369  1
  Ta  Ta118  1  0.18859389  0.80645424  0.73805697  1
  Ta  Ta119  1  0.48780526  0.70565506  0.63021423  1
  Ti  Ti120  1  0.00888510  0.19364438  0.00026922  1
  Ti  Ti121  1  0.39200342  0.61889200  0.48935156  1
  Ti  Ti122  1  0.89080252  0.69340983  0.12908041  1
  Ti  Ti123  1  0.38807339  0.00472870  -0.00200592  1
  Ti  Ti124  1  0.28972260  0.50238240  0.37835908  1
  Ti  Ti125  1  0.39084313  0.81091211  0.23648410  1
  Ti  Ti126  1  0.90657110  0.50071928  0.12415476  1
  Ti  Ti127  1  -0.00627009  0.80064300  0.73600046  1
  Ti  Ti128  1  0.81219448  0.40741549  -0.00348310  1
  Ti  Ti129  1  0.70615858  0.90601306  0.63422993  1
  Ti  Ti130  1  0.29422830  0.50527868  0.61653641  1
  Ti  Ti131  1  0.29118180  0.69172447  0.63453360  1
  Ti  Ti132  1  0.71484308  0.28840135  0.35958185  1
  Ti  Ti133  1  0.79789907  0.59150942  0.49836104  1
  Ti  Ti134  1  0.09337130  0.91609865  0.36960902  1
  Ti  Ti135  1  0.80521527  0.59872120  0.74909421  1
  Ti  Ti136  1  0.60515908  0.00807035  0.74987134  1
  Ti  Ti137  1  0.71763436  0.29440399  0.11587175  1
  Ti  Ti138  1  0.11374460  0.30740776  0.13555176  1
  Ti  Ti139  1  0.19960324  0.00296766  0.75124467  1
  Ti  Ti140  1  0.70573127  0.71248973  0.12300671  1
  Ti  Ti141  1  0.78878456  0.01258138  0.24029471  1
  Ti  Ti142  1  0.30746249  0.09573967  0.13795937  1
  Ti  Ti143  1  0.11762781  0.09044873  0.88251003  1
  Ti  Ti144  1  0.89670396  0.69308788  0.61576764  1
  Ti  Ti145  1  0.80414450  0.79935081  -0.00416437  1
  Ti  Ti146  1  0.90142127  0.88168836  0.86827596  1
  Ti  Ti147  1  0.69364671  0.09073165  0.10839497  1
  Ti  Ti148  1  0.20259892  0.40204840  0.74171041  1
  Ti  Ti149  1  0.09336741  0.50162607  0.39689032  1
  Ti  Ti150  1  0.68939977  0.90211834  0.13633521  1
  Ti  Ti151  1  0.20265847  0.00132437  0.01328580  1
  Ti  Ti152  1  0.82583600  0.17981513  0.49996051  1
  Ti  Ti153  1  0.19158425  0.59082942  0.00423372  1
  Ti  Ti154  1  0.70110769  0.09380997  0.88607530  1
  Ti  Ti155  1  0.70675534  0.90862564  0.86904876  1
  Ti  Ti156  1  0.91903840  0.08738972  0.36537127  1
  Ti  Ti157  1  0.29825770  0.29988465  0.14508825  1
  Ti  Ti158  1  0.90783178  0.30604266  0.87568796  1
  Ti  Ti159  1  0.10742130  0.50161860  0.61253271  1
  Mo  Mo160  1  0.09298146  0.49434071  0.12362730  1
  Mo  Mo161  1  0.40701604  -0.00259373  0.50259543  1
  Mo  Mo162  1  0.00394790  0.60029493  0.51327804  1
  Mo  Mo163  1  0.90187843  0.48899272  0.40259359  1
  Mo  Mo164  1  0.09813599  0.09895682  0.38686991  1
  Mo  Mo165  1  0.21245042  0.19929192  0.49410691  1
  Mo  Mo166  1  0.19754010  0.39311960  0.26818564  1
  Mo  Mo167  1  0.48710629  0.71167734  0.37367337  1
  Mo  Mo168  1  0.09282517  0.10965528  0.11484378  1
  Mo  Mo169  1  0.48973853  0.51150469  0.37497467  1
  Mo  Mo170  1  0.38662791  0.60353744  -0.00290074  1
  Mo  Mo171  1  0.89442750  0.89281977  0.63410001  1
  Mo  Mo172  1  0.81201502  0.19649368  0.24022098  1
  Mo  Mo173  1  0.60197474  0.39830520  0.49746284  1
  Mo  Mo174  1  0.39377082  -0.00425514  0.23867298  1
  Mo  Mo175  1  0.59647416  -0.00363607  0.24290851  1
  Mo  Mo176  1  0.89387944  0.70165429  0.86783389  1
  Mo  Mo177  1  0.28953240  0.90687355  0.63535882  1
  Mo  Mo178  1  0.01460235  -0.01422779  0.76024538  1
  Mo  Mo179  1  0.20681104  0.59380123  0.73835216  1
  Mo  Mo180  1  0.70472649  0.29539606  0.63203029  1
  Mo  Mo181  1  0.29310639  0.10330323  0.88569385  1
  Mo  Mo182  1  0.00093229  0.19295770  0.48793284  1
  Mo  Mo183  1  0.78318929  0.79573601  0.24598657  1
  Mo  Mo184  1  -0.00176370  -0.00123055  0.49293513  1
  Mo  Mo185  1  0.28072521  0.89058705  0.36413223  1
  Mo  Mo186  1  0.61078890  0.20199788  0.01224614  1
  Mo  Mo187  1  0.20408622  0.40860769  0.49059202  1
  Mo  Mo188  1  0.60986085  0.61184638  0.00507913  1
  Mo  Mo189  1  0.09101522  0.89459144  0.12319553  1
  Mo  Mo190  1  0.10787350  0.31104994  0.60563664  1
  Mo  Mo191  1  0.79694735  -0.01696223  0.76079595  1
  Mo  Mo192  1  0.20822181  0.20720861  0.24653246  1
  Mo  Mo193  1  0.09963112  0.69776992  0.63072697  1
  Mo  Mo194  1  0.89702907  0.49816258  0.87312288  1
  Mo  Mo195  1  0.28158819  0.91385540  0.88189470  1
  Mo  Mo196  1  -0.00667147  -0.00139570  0.23755310  1
  Mo  Mo197  1  0.60421494  -0.00098840  0.00193639  1
  Mo  Mo198  1  0.30116586  0.90614651  0.12306913  1
  Mo  Mo199  1  0.49960357  0.09694568  0.12106234  1
