# generated using pymatgen
data_HfZrTaTiMo
_symmetry_space_group_name_H-M   'P 1'
_cell_length_a   15.18440774
_cell_length_b   15.19893479
_cell_length_c   16.78858604
_cell_angle_alpha   89.96485106
_cell_angle_beta   90.03861318
_cell_angle_gamma   89.93474945
_symmetry_Int_Tables_number   1
_chemical_formula_structural   HfZrTaTiMo
_chemical_formula_sum   'Hf40 Zr40 Ta40 Ti40 Mo40'
_cell_volume   3874.58031553
_cell_formula_units_Z   40
loop_
 _symmetry_equiv_pos_site_id
 _symmetry_equiv_pos_as_xyz
  1  'x, y, z'
loop_
 _atom_site_type_symbol
 _atom_site_label
 _atom_site_symmetry_multiplicity
 _atom_site_fract_x
 _atom_site_fract_y
 _atom_site_fract_z
 _atom_site_occupancy
  Hf  Hf0  1  0.39465191  0.60732245  0.49012118  1
  Hf  Hf1  1  0.60597912  0.39382868  0.73301839  1
  Hf  Hf2  1  0.70147516  0.89957212  0.61976852  1
  Hf  Hf3  1  0.89948483  0.49295717  0.11804893  1
  Hf  Hf4  1  0.60671294  0.20235561  0.76607062  1
  Hf  Hf5  1  0.09783170  0.69584839  0.36400736  1
  Hf  Hf6  1  0.49514368  0.89753176  0.37326159  1
  Hf  Hf7  1  0.30435830  0.30226170  0.12785522  1
  Hf  Hf8  1  0.69752397  0.09435562  0.12191804  1
  Hf  Hf9  1  0.59871142  0.80990656  -0.01180553  1
  Hf  Hf10  1  0.61741321  0.38943390  0.49132810  1
  Hf  Hf11  1  0.10496053  0.30494316  0.37531437  1
  Hf  Hf12  1  0.09663129  0.50627689  0.63147432  1
  Hf  Hf13  1  -0.02132565  0.60666442  0.75742970  1
  Hf  Hf14  1  0.00091602  0.20108948  0.25584383  1
  Hf  Hf15  1  0.61272350  0.19709056  0.26648945  1
  Hf  Hf16  1  -0.00007830  -0.00155118  0.00124149  1
  Hf  Hf17  1  0.28128344  0.91601853  0.88088281  1
  Hf  Hf18  1  -0.00608608  0.60606386  0.50178498  1
  Hf  Hf19  1  0.19783931  0.40544854  -0.00192783  1
  Hf  Hf20  1  0.60905341  -0.00755566  0.25743161  1
  Hf  Hf21  1  0.40547202  -0.00012394  0.75943131  1
  Hf  Hf22  1  0.50870793  0.50255882  0.37944670  1
  Hf  Hf23  1  0.09637101  0.09936302  0.63604238  1
  Hf  Hf24  1  0.59000806  0.79328819  0.75443651  1
  Hf  Hf25  1  0.69823509  0.70688664  0.11326410  1
  Hf  Hf26  1  0.00727836  -0.00655157  0.50428361  1
  Hf  Hf27  1  0.89234727  0.29916563  0.39216736  1
  Hf  Hf28  1  -0.00020747  0.39784191  -0.00595948  1
  Hf  Hf29  1  0.78556000  0.79693740  0.25426293  1
  Hf  Hf30  1  0.00205306  0.19962719  -0.00879124  1
  Hf  Hf31  1  0.19765499  0.20240578  0.50614874  1
  Hf  Hf32  1  0.29604818  0.71181177  0.37264708  1
  Hf  Hf33  1  -0.00749127  0.59109251  0.25479056  1
  Hf  Hf34  1  0.31130739  0.31067715  0.61966265  1
  Hf  Hf35  1  0.30347324  0.50775574  0.12016378  1
  Hf  Hf36  1  0.10800505  0.08673649  0.86434519  1
  Hf  Hf37  1  0.17953998  0.80787877  0.00030960  1
  Hf  Hf38  1  0.40868249  0.60476693  0.74781888  1
  Hf  Hf39  1  0.88562138  0.49429672  0.87491971  1
  Zr  Zr40  1  0.80099724  0.39724892  0.73471944  1
  Zr  Zr41  1  0.30742624  0.30590098  0.87794622  1
  Zr  Zr42  1  0.51228215  0.90725566  0.12605068  1
  Zr  Zr43  1  0.10631054  0.89386677  0.35839238  1
  Zr  Zr44  1  0.10866083  0.09466060  0.37256999  1
  Zr  Zr45  1  0.89917765  0.89505946  0.38056395  1
  Zr  Zr46  1  0.50868660  0.28469592  0.14255801  1
  Zr  Zr47  1  0.88452019  0.89695598  0.12223133  1
  Zr  Zr48  1  0.49649935  0.68194350  0.88609106  1
  Zr  Zr49  1  0.51159909  0.10433559  0.62079936  1
  Zr  Zr50  1  0.29577916  0.91857404  0.35743747  1
  Zr  Zr51  1  0.80655403  0.19999714  0.75067427  1
  Zr  Zr52  1  0.70704905  0.68043712  0.88277538  1
  Zr  Zr53  1  0.39650698  0.00136789  0.50439457  1
  Zr  Zr54  1  0.30986632  0.10525532  0.63439212  1
  Zr  Zr55  1  0.20125125  0.19836488  0.00021955  1
  Zr  Zr56  1  0.59805901  0.00640111  -0.02305165  1
  Zr  Zr57  1  0.80439777  0.77952321  0.74746296  1
  Zr  Zr58  1  0.50651655  0.70227911  0.61718833  1
  Zr  Zr59  1  0.19591992  0.61562934  0.75715534  1
  Zr  Zr60  1  0.40012895  0.01161092  0.00169128  1
  Zr  Zr61  1  0.29876785  0.50944761  0.61680052  1
  Zr  Zr62  1  0.41625085  0.20445974  -0.00096137  1
  Zr  Zr63  1  0.31758489  0.50778273  0.88888575  1
  Zr  Zr64  1  0.60425203  0.59819411  0.24423616  1
  Zr  Zr65  1  0.29501413  0.71716402  0.62660742  1
  Zr  Zr66  1  0.40886042  0.40341643  0.74760818  1
  Zr  Zr67  1  0.49951990  0.49349246  0.60143582  1
  Zr  Zr68  1  0.80521309  0.19076087  0.26434488  1
  Zr  Zr69  1  -0.00694216  0.00362227  0.24563463  1
  Zr  Zr70  1  0.88224820  0.49605808  0.38852357  1
  Zr  Zr71  1  0.38994110  0.60380396  0.25578728  1
  Zr  Zr72  1  0.62122764  0.20123964  -0.01581378  1
  Zr  Zr73  1  0.20114734  0.21125584  0.74776150  1
  Zr  Zr74  1  0.09289764  0.69687748  0.12821842  1
  Zr  Zr75  1  0.19473702  0.80969000  0.50640999  1
  Zr  Zr76  1  0.48835237  0.69601525  0.11603298  1
  Zr  Zr77  1  0.61192586  0.39814224  0.02774729  1
  Zr  Zr78  1  0.89458346  0.69205883  0.11111935  1
  Zr  Zr79  1  0.60474025  -0.00014718  0.75700753  1
  Ta  Ta80  1  0.40308488  0.20815418  0.48457951  1
  Ta  Ta81  1  -0.00038168  0.79896583  0.77117117  1
  Ta  Ta82  1  -0.00719168  0.19580054  0.50691549  1
  Ta  Ta83  1  0.38922509  0.80361143  0.76660335  1
  Ta  Ta84  1  -0.01147159  0.79994918  -0.02309500  1
  Ta  Ta85  1  0.51531720  0.32777081  0.88342048  1
  Ta  Ta86  1  0.39560745  0.39783473  0.26158041  1
  Ta  Ta87  1  0.28579555  0.49758140  0.37942180  1
  Ta  Ta88  1  0.68415981  0.48142255  0.87685624  1
  Ta  Ta89  1  0.69822573  0.88951834  0.39072139  1
  Ta  Ta90  1  0.09801383  0.30648637  0.13274952  1
  Ta  Ta91  1  0.00384526  0.39371339  0.51643834  1
  Ta  Ta92  1  0.18732499  0.81947212  0.75730957  1
  Ta  Ta93  1  0.79324283  0.39453120  0.24525620  1
  Ta  Ta94  1  -0.00616967  0.39763829  0.25055831  1
  Ta  Ta95  1  0.50533793  0.70804219  0.37981296  1
  Ta  Ta96  1  0.19549194  0.41056792  0.25065946  1
  Ta  Ta97  1  0.61124214  0.19126109  0.47985185  1
  Ta  Ta98  1  0.49414789  0.09672888  0.37048678  1
  Ta  Ta99  1  0.61177640  0.58884028  0.74404907  1
  Ta  Ta100  1  0.39419725  0.80935057  -0.00842849  1
  Ta  Ta101  1  0.28844556  0.70421730  0.89215455  1
  Ta  Ta102  1  0.89056943  0.50947084  0.61845076  1
  Ta  Ta103  1  0.89324148  0.09374026  0.62409527  1
  Ta  Ta104  1  0.88842851  0.91405282  0.86660297  1
  Ta  Ta105  1  0.20459098  -0.00230078  0.51484454  1
  Ta  Ta106  1  0.19732987  0.00768294  0.02056154  1
  Ta  Ta107  1  -0.00041256  -0.00845982  0.74754786  1
  Ta  Ta108  1  0.29966132  0.89943631  0.12619036  1
  Ta  Ta109  1  0.29119693  0.70192712  0.10961732  1
  Ta  Ta110  1  0.10138535  0.50286886  0.12591049  1
  Ta  Ta111  1  0.89342395  0.10428951  0.12070160  1
  Ta  Ta112  1  -0.00100577  0.79558878  0.50386404  1
  Ta  Ta113  1  0.90044176  0.29155354  0.12434363  1
  Ta  Ta114  1  0.79661637  0.00001450  0.26319138  1
  Ta  Ta115  1  0.90595441  0.89200073  0.62811853  1
  Ta  Ta116  1  0.49974657  0.29988880  0.36855289  1
  Ta  Ta117  1  0.40199492  0.80449447  0.24306750  1
  Ta  Ta118  1  0.19676344  0.40738023  0.75017127  1
  Ta  Ta119  1  0.19853386  0.40390504  0.50211566  1
  Ti  Ti120  1  0.80565941  0.79023769  0.50637165  1
  Ti  Ti121  1  0.78753529  0.57957774  0.00396914  1
  Ti  Ti122  1  0.61062438  0.40243171  0.24830362  1
  Ti  Ti123  1  0.30010840  0.10967045  0.36881983  1
  Ti  Ti124  1  0.59840713  0.79564714  0.25329028  1
  Ti  Ti125  1  0.79239218  0.59161251  0.24882399  1
  Ti  Ti126  1  0.60066036  -0.00276703  0.49518125  1
  Ti  Ti127  1  0.09531355  0.30615304  0.86520995  1
  Ti  Ti128  1  0.71089523  0.68731330  0.61719266  1
  Ti  Ti129  1  0.69904859  0.68509184  0.38638160  1
  Ti  Ti130  1  0.49325613  0.89795129  0.62625373  1
  Ti  Ti131  1  0.79742287  0.80622686  -0.01151109  1
  Ti  Ti132  1  0.30421876  0.10870322  0.86866902  1
  Ti  Ti133  1  0.60048445  0.79609162  0.50120948  1
  Ti  Ti134  1  0.79795490  -0.00042351  -0.00281436  1
  Ti  Ti135  1  0.70130815  0.50295891  0.60828130  1
  Ti  Ti136  1  0.70295018  0.10265778  0.62072277  1
  Ti  Ti137  1  0.20579465  0.79390005  0.23548419  1
  Ti  Ti138  1  0.21281082  0.20210165  0.24793536  1
  Ti  Ti139  1  -0.00583314  0.20459357  0.75076569  1
  Ti  Ti140  1  0.70419122  0.89466177  0.86161820  1
  Ti  Ti141  1  0.10299723  0.10846825  0.13220247  1
  Ti  Ti142  1  0.58731133  0.57974981  0.01475583  1
  Ti  Ti143  1  0.72995687  0.08651332  0.86493184  1
  Ti  Ti144  1  0.10289084  0.50390236  0.86808934  1
  Ti  Ti145  1  0.81305265  0.19599288  -0.01752414  1
  Ti  Ti146  1  0.39569384  0.81194128  0.50242034  1
  Ti  Ti147  1  0.08305292  0.71456677  0.63414072  1
  Ti  Ti148  1  0.09437615  0.49807168  0.37936587  1
  Ti  Ti149  1  0.09641217  0.90094569  0.13513646  1
  Ti  Ti150  1  0.18901839  0.60729117  0.50219251  1
  Ti  Ti151  1  -0.00194220  0.39112002  0.73977854  1
  Ti  Ti152  1  0.41652648  0.20986987  0.75853486  1
  Ti  Ti153  1  -0.01347403  0.79591221  0.24756860  1
  Ti  Ti154  1  0.80057580  0.00873332  0.49479267  1
  Ti  Ti155  1  0.89058154  0.69836014  0.37604781  1
  Ti  Ti156  1  0.79848650  0.38041932  0.00008658  1
  Ti  Ti157  1  0.39705839  0.01631361  0.23547493  1
  Ti  Ti158  1  0.50838359  0.29082672  0.60941113  1
  Ti  Ti159  1  0.00796171  0.60313999  -0.01578287  1
  Mo  Mo160  1  0.89117523  0.69495884  0.88934701  1
  Mo  Mo161  1  0.09712268  0.69861036  0.87549329  1
  Mo  Mo162  1  0.89948964  0.70166154  0.62428603  1
  Mo  Mo163  1  0.09730698  0.89598610  0.63075550  1
  Mo  Mo164  1  0.20249672  -0.00229079  0.74192162  1
  Mo  Mo165  1  0.39683652  0.39326801  0.47873959  1
  Mo  Mo166  1  0.18925227  0.60142689  -0.00574822  1
  Mo  Mo167  1  0.70533512  0.49570059  0.37443046  1
  Mo  Mo168  1  0.09940920  0.30576056  0.62929072  1
  Mo  Mo169  1  0.30248060  0.10613147  0.13239643  1
  Mo  Mo170  1  0.50165729  0.10173865  0.13898115  1
  Mo  Mo171  1  0.29548817  0.30275084  0.37511762  1
  Mo  Mo172  1  0.90753237  0.30000775  0.87178402  1
  Mo  Mo173  1  0.70729984  0.49877726  0.12791113  1
  Mo  Mo174  1  0.19526256  0.59328146  0.25244205  1
  Mo  Mo175  1  0.70322938  0.08823215  0.38649406  1
  Mo  Mo176  1  0.70441348  0.31026660  0.37434804  1
  Mo  Mo177  1  0.69721282  0.28284362  0.61551379  1
  Mo  Mo178  1  0.78733107  0.58687761  0.74515041  1
  Mo  Mo179  1  0.49392567  0.48853446  0.13962358  1
  Mo  Mo180  1  0.79457526  0.60427276  0.50019942  1
  Mo  Mo181  1  0.20268888  0.00707259  0.22375665  1
  Mo  Mo182  1  0.39920911  0.20080344  0.26523673  1
  Mo  Mo183  1  0.49628026  0.11400313  0.86791474  1
  Mo  Mo184  1  0.09046733  0.90687227  0.87834596  1
  Mo  Mo185  1  0.71498708  0.30749200  0.87626883  1
  Mo  Mo186  1  0.72427668  0.28831846  0.12753552  1
  Mo  Mo187  1  0.42009840  0.41241565  0.01215819  1
  Mo  Mo188  1  0.90511508  0.29396037  0.61689795  1
  Mo  Mo189  1  0.39741346  0.60189401  0.00677302  1
  Mo  Mo190  1  0.80542245  0.39434120  0.52026467  1
  Mo  Mo191  1  0.80515358  -0.00630567  0.73682336  1
  Mo  Mo192  1  0.90854730  0.09406752  0.86860695  1
  Mo  Mo193  1  0.60703990  0.60535855  0.49398192  1
  Mo  Mo194  1  0.90056648  0.09646019  0.39310028  1
  Mo  Mo195  1  0.30216142  0.90173487  0.63870748  1
  Mo  Mo196  1  0.51233572  0.50140283  0.87716577  1
  Mo  Mo197  1  0.79457922  0.19919149  0.50685324  1
  Mo  Mo198  1  0.70769003  0.89978214  0.12104872  1
  Mo  Mo199  1  0.49290197  0.89584003  0.87268431  1
