# generated using pymatgen
data_HfZrTaTiMo
_symmetry_space_group_name_H-M   'P 1'
_cell_length_a   15.21503904
_cell_length_b   15.20618375
_cell_length_c   16.84644165
_cell_angle_alpha   90.01823869
_cell_angle_beta   89.99524397
_cell_angle_gamma   90.00687571
_symmetry_Int_Tables_number   1
_chemical_formula_structural   HfZrTaTiMo
_chemical_formula_sum   'Hf40 Zr40 Ta40 Ti40 Mo40'
_cell_volume   3897.63763952
_cell_formula_units_Z   40
loop_
 _symmetry_equiv_pos_site_id
 _symmetry_equiv_pos_as_xyz
  1  'x, y, z'
loop_
 _atom_site_type_symbol
 _atom_site_label
 _atom_site_symmetry_multiplicity
 _atom_site_fract_x
 _atom_site_fract_y
 _atom_site_fract_z
 _atom_site_occupancy
  Hf  Hf0  1  0.70723926  0.70827569  0.87935875  1
  Hf  Hf1  1  0.59163398  -0.00876102  0.51957130  1
  Hf  Hf2  1  0.51533248  0.08956827  0.87104419  1
  Hf  Hf3  1  0.90414992  0.11597095  0.63996494  1
  Hf  Hf4  1  0.41442864  0.60329397  0.50961398  1
  Hf  Hf5  1  0.40918745  -0.00931238  -0.00197095  1
  Hf  Hf6  1  0.81332231  0.40787772  0.76127763  1
  Hf  Hf7  1  0.68565543  0.09862852  0.38132754  1
  Hf  Hf8  1  -0.00791112  0.78597242  0.74101142  1
  Hf  Hf9  1  0.70371054  0.29747692  0.62713933  1
  Hf  Hf10  1  0.19863839  0.00959408  0.23887317  1
  Hf  Hf11  1  0.09001445  0.68617487  0.11935934  1
  Hf  Hf12  1  0.29656395  0.50160590  0.86384731  1
  Hf  Hf13  1  0.58943696  0.20537383  0.24725974  1
  Hf  Hf14  1  -0.00979201  0.79264385  0.25224545  1
  Hf  Hf15  1  0.30068454  0.49856549  0.37362998  1
  Hf  Hf16  1  0.10082230  0.28750979  0.38182267  1
  Hf  Hf17  1  0.30795950  0.29204870  0.36991275  1
  Hf  Hf18  1  0.61638815  0.40848632  0.24097300  1
  Hf  Hf19  1  0.70018083  0.49659055  0.10597671  1
  Hf  Hf20  1  0.38976864  0.39868886  -0.00384690  1
  Hf  Hf21  1  0.80255151  0.59114153  -0.00981843  1
  Hf  Hf22  1  0.19658573  0.00519729  0.50400608  1
  Hf  Hf23  1  0.49682988  0.68590280  0.12508092  1
  Hf  Hf24  1  0.89819929  0.70310924  0.11200524  1
  Hf  Hf25  1  0.78576736  -0.01027741  0.73668215  1
  Hf  Hf26  1  0.92354361  0.70021729  0.88719329  1
  Hf  Hf27  1  -0.02510723  0.00091953  -0.01373013  1
  Hf  Hf28  1  0.19624553  0.79850586  0.24355436  1
  Hf  Hf29  1  0.50621034  0.09781092  0.12493148  1
  Hf  Hf30  1  0.88467211  0.10334792  0.12370370  1
  Hf  Hf31  1  0.49192417  0.11590057  0.63393681  1
  Hf  Hf32  1  0.19373218  0.79463317  0.51120270  1
  Hf  Hf33  1  0.89354934  0.89314762  0.38185175  1
  Hf  Hf34  1  0.39637743  0.18925872  -0.00543261  1
  Hf  Hf35  1  0.30311994  0.89926258  0.37282308  1
  Hf  Hf36  1  0.78341493  0.00055943  0.25614122  1
  Hf  Hf37  1  0.00470665  0.00626585  0.50138422  1
  Hf  Hf38  1  0.80178957  0.21142889  0.25640929  1
  Hf  Hf39  1  0.20241535  0.01040819  0.00070590  1
  Zr  Zr40  1  0.81194233  0.40456061  0.50175910  1
  Zr  Zr41  1  0.31191416  0.50914864  0.13282013  1
  Zr  Zr42  1  0.30209660  0.69790581  0.38139036  1
  Zr  Zr43  1  0.69063129  0.69656145  0.37381434  1
  Zr  Zr44  1  0.60679464  0.39468548  0.76566377  1
  Zr  Zr45  1  0.40725224  0.79785958  0.74718821  1
  Zr  Zr46  1  0.28921143  0.90966113  0.63973679  1
  Zr  Zr47  1  0.79924205  0.82494175  0.00333911  1
  Zr  Zr48  1  0.39357425  0.01271780  0.50448680  1
  Zr  Zr49  1  0.39834850  0.79440258  -0.00346931  1
  Zr  Zr50  1  -0.00282428  0.01627239  0.25889760  1
  Zr  Zr51  1  0.91344080  0.30476253  0.12179304  1
  Zr  Zr52  1  0.88462933  0.10821305  0.85398766  1
  Zr  Zr53  1  0.31362457  0.29378845  0.63396354  1
  Zr  Zr54  1  0.19274848  0.21978139  -0.01390495  1
  Zr  Zr55  1  0.51321216  0.50430850  0.37088424  1
  Zr  Zr56  1  0.19833782  0.40570316  0.73925077  1
  Zr  Zr57  1  0.69412142  0.88604556  0.38601038  1
  Zr  Zr58  1  0.08357746  0.90185495  0.11460053  1
  Zr  Zr59  1  0.19250073  0.19649644  0.75430389  1
  Zr  Zr60  1  0.40533823  0.39538441  0.50193328  1
  Zr  Zr61  1  0.70947212  0.51108169  0.63485016  1
  Zr  Zr62  1  0.69559970  0.30917404  0.38102601  1
  Zr  Zr63  1  0.50566550  0.90049340  0.36722145  1
  Zr  Zr64  1  0.60992403  0.80225678  0.73335108  1
  Zr  Zr65  1  0.79983248  0.00689290  0.50705880  1
  Zr  Zr66  1  0.40029860  0.00282112  0.24152847  1
  Zr  Zr67  1  0.67902634  0.91566425  0.88057982  1
  Zr  Zr68  1  0.80026535  0.60634141  0.50335980  1
  Zr  Zr69  1  0.19653075  0.58575895  -0.00134669  1
  Zr  Zr70  1  0.41773468  0.38656627  0.24526245  1
  Zr  Zr71  1  0.19519903  0.79052075  -0.00239546  1
  Zr  Zr72  1  0.90157887  0.89487778  0.62595940  1
  Zr  Zr73  1  0.29621779  0.28858895  0.13029768  1
  Zr  Zr74  1  0.29334029  0.90045120  0.86656237  1
  Zr  Zr75  1  0.41135249  0.80486549  0.51758807  1
  Zr  Zr76  1  0.08885888  0.12288746  0.11675680  1
  Zr  Zr77  1  0.78901857  0.60458532  0.23943078  1
  Zr  Zr78  1  0.09929106  0.89522330  0.37638855  1
  Zr  Zr79  1  0.19918132  0.60074320  0.25095965  1
  Ta  Ta80  1  0.19329442  0.39533832  0.25303201  1
  Ta  Ta81  1  0.19964216  0.19613395  0.51157379  1
  Ta  Ta82  1  0.62054922  0.18310864  -0.00002939  1
  Ta  Ta83  1  0.91131447  0.50111428  0.11660372  1
  Ta  Ta84  1  0.00663126  0.39851528  0.50833348  1
  Ta  Ta85  1  0.01253222  -0.00780580  0.75280524  1
  Ta  Ta86  1  0.89065686  0.90794934  0.12753729  1
  Ta  Ta87  1  0.80721663  0.20311924  0.49884599  1
  Ta  Ta88  1  0.09764222  0.49177155  0.38243526  1
  Ta  Ta89  1  0.39790205  0.60361704  -0.01167935  1
  Ta  Ta90  1  0.59257670  -0.00095365  0.73044724  1
  Ta  Ta91  1  0.51110060  0.50166406  0.89009849  1
  Ta  Ta92  1  0.61012187  0.59899342  0.76572747  1
  Ta  Ta93  1  0.08871411  0.68530489  0.38392255  1
  Ta  Ta94  1  0.01681169  0.40683412  -0.00586584  1
  Ta  Ta95  1  0.81487924  0.41179143  0.25011248  1
  Ta  Ta96  1  0.30632991  0.50408500  0.63287637  1
  Ta  Ta97  1  0.60045886  0.41112261  0.50532633  1
  Ta  Ta98  1  0.19887069  0.39587089  0.51160361  1
  Ta  Ta99  1  0.48645110  0.11419785  0.37005821  1
  Ta  Ta100  1  0.08506232  0.31617814  0.85982820  1
  Ta  Ta101  1  -0.00644225  0.58514477  0.25382774  1
  Ta  Ta102  1  0.41091068  0.59720118  0.75596735  1
  Ta  Ta103  1  -0.00756603  0.78511845  0.50820671  1
  Ta  Ta104  1  0.10031342  0.48267984  0.12809630  1
  Ta  Ta105  1  -0.00737369  0.21072909  -0.01993766  1
  Ta  Ta106  1  0.50310573  0.69920571  0.36237598  1
  Ta  Ta107  1  0.29634459  0.69036851  0.63656775  1
  Ta  Ta108  1  0.30194449  0.09940127  0.86171257  1
  Ta  Ta109  1  0.30137091  0.89465866  0.12370608  1
  Ta  Ta110  1  0.50869833  0.70663622  0.88040041  1
  Ta  Ta111  1  0.18277384  0.80012082  0.74628777  1
  Ta  Ta112  1  0.28719088  0.10687393  0.37153201  1
  Ta  Ta113  1  0.89739545  0.69681456  0.37576973  1
  Ta  Ta114  1  0.51660303  0.30290042  0.10141646  1
  Ta  Ta115  1  0.41284082  0.40149578  0.76015929  1
  Ta  Ta116  1  0.08418451  0.88772078  0.87992919  1
  Ta  Ta117  1  -0.00127642  0.59079012  0.50745886  1
  Ta  Ta118  1  0.50686828  0.50178124  0.63409038  1
  Ta  Ta119  1  0.51131201  0.29618472  0.89172428  1
  Ti  Ti120  1  0.09698709  0.51648099  0.86258127  1
  Ti  Ti121  1  0.79438367  0.79397360  0.51798664  1
  Ti  Ti122  1  0.41403413  0.20830166  0.76533066  1
  Ti  Ti123  1  0.50920688  0.30582265  0.63187049  1
  Ti  Ti124  1  0.29685077  0.10256878  0.64480488  1
  Ti  Ti125  1  0.09113722  0.29135435  0.63142047  1
  Ti  Ti126  1  0.09540488  0.09836011  0.86990753  1
  Ti  Ti127  1  0.59983480  0.77643436  0.52567191  1
  Ti  Ti128  1  0.60464255  0.80075010  0.23974041  1
  Ti  Ti129  1  0.39795665  0.20276681  0.50059460  1
  Ti  Ti130  1  0.40574492  -0.00299841  0.75289112  1
  Ti  Ti131  1  0.90562667  0.30651542  0.63453739  1
  Ti  Ti132  1  0.09660909  0.69095271  0.62385584  1
  Ti  Ti133  1  0.39406786  0.78578434  0.24005600  1
  Ti  Ti134  1  0.18650236  0.20033004  0.24662944  1
  Ti  Ti135  1  0.88711097  0.89477307  0.86139162  1
  Ti  Ti136  1  0.70917902  0.29686887  0.11499569  1
  Ti  Ti137  1  0.00184231  0.20113007  0.50639259  1
  Ti  Ti138  1  0.90651585  0.30681121  0.37752639  1
  Ti  Ti139  1  -0.00874435  0.58870026  0.73971664  1
  Ti  Ti140  1  0.00458598  0.39200981  0.25362787  1
  Ti  Ti141  1  0.80985662  0.38882912  -0.01667334  1
  Ti  Ti142  1  0.59097051  0.20872897  0.49759537  1
  Ti  Ti143  1  0.51141844  0.49679086  0.10260662  1
  Ti  Ti144  1  0.09923033  0.49858377  0.62687013  1
  Ti  Ti145  1  0.29951629  0.30288175  0.86791328  1
  Ti  Ti146  1  0.10142619  0.09133347  0.63861130  1
  Ti  Ti147  1  0.28917006  0.69455518  0.85858259  1
  Ti  Ti148  1  0.70521261  0.50671092  0.37580412  1
  Ti  Ti149  1  0.79290105  0.80258094  0.23819025  1
  Ti  Ti150  1  0.80364699  0.19589092  -0.00636112  1
  Ti  Ti151  1  0.68728660  0.70770134  0.10725288  1
  Ti  Ti152  1  0.69695721  0.11112255  0.62540693  1
  Ti  Ti153  1  0.19851244  0.59009685  0.50567398  1
  Ti  Ti154  1  0.90558950  0.50220347  0.37504399  1
  Ti  Ti155  1  0.91443085  0.49468455  0.87668905  1
  Ti  Ti156  1  0.69037170  0.92322295  0.11856149  1
  Ti  Ti157  1  0.50705204  0.89207933  0.12693988  1
  Ti  Ti158  1  0.90810690  0.11497670  0.37749863  1
  Ti  Ti159  1  0.70942551  0.28407690  0.87213911  1
  Mo  Mo160  1  0.69980100  0.89890633  0.61678981  1
  Mo  Mo161  1  -0.00297081  0.20711111  0.25818026  1
  Mo  Mo162  1  0.50480616  0.29311326  0.38072408  1
  Mo  Mo163  1  0.60154873  0.19919542  0.75248344  1
  Mo  Mo164  1  0.80945963  0.61078789  0.76270663  1
  Mo  Mo165  1  0.70691400  0.49871583  0.88305091  1
  Mo  Mo166  1  0.10270762  0.10877564  0.38047553  1
  Mo  Mo167  1  0.19338787  -0.00280332  0.76086948  1
  Mo  Mo168  1  0.77947971  0.02377752  0.00039859  1
  Mo  Mo169  1  0.19543760  0.60772037  0.74146173  1
  Mo  Mo170  1  0.59662389  0.60339907  0.23850995  1
  Mo  Mo171  1  0.79071149  0.20816950  0.74410294  1
  Mo  Mo172  1  0.09607116  0.89744717  0.62460701  1
  Mo  Mo173  1  0.89800698  0.68386447  0.62709109  1
  Mo  Mo174  1  0.49617159  0.90183930  0.62579900  1
  Mo  Mo175  1  0.30185260  0.70294011  0.12644700  1
  Mo  Mo176  1  0.00269360  0.40360727  0.74327255  1
  Mo  Mo177  1  0.80165986  0.78808134  0.74845776  1
  Mo  Mo178  1  0.70862190  0.69707695  0.63869359  1
  Mo  Mo179  1  0.09730969  0.30846579  0.12544754  1
  Mo  Mo180  1  0.90052303  0.30414099  0.87637080  1
  Mo  Mo181  1  0.59806274  0.60411709  -0.01183623  1
  Mo  Mo182  1  0.59969621  0.59808998  0.50568039  1
  Mo  Mo183  1  0.50512247  0.68213618  0.63559018  1
  Mo  Mo184  1  0.29729504  0.09534075  0.12063051  1
  Mo  Mo185  1  -0.00166157  0.20506922  0.75553001  1
  Mo  Mo186  1  0.59324147  0.80568563  0.01000504  1
  Mo  Mo187  1  0.60216020  -0.00286091  0.00499626  1
  Mo  Mo188  1  -0.00347092  0.80689960  -0.00215468  1
  Mo  Mo189  1  0.69411085  0.10719810  0.86132697  1
  Mo  Mo190  1  0.91172042  0.49590539  0.62923299  1
  Mo  Mo191  1  0.61506298  0.39019789  -0.01135931  1
  Mo  Mo192  1  0.10620902  0.69612876  0.86608830  1
  Mo  Mo193  1  0.19712070  0.39939669  -0.00998643  1
  Mo  Mo194  1  0.59907785  -0.00578318  0.24965323  1
  Mo  Mo195  1  0.00336896  0.59192171  -0.00214987  1
  Mo  Mo196  1  0.41211543  0.59876719  0.25018636  1
  Mo  Mo197  1  0.50015634  0.89627410  0.87029024  1
  Mo  Mo198  1  0.39155892  0.19371669  0.24515728  1
  Mo  Mo199  1  0.69767297  0.11108585  0.13050931  1
