# generated using pymatgen
data_HfZrTaTiMo
_symmetry_space_group_name_H-M   'P 1'
_cell_length_a   15.17739311
_cell_length_b   15.17911131
_cell_length_c   16.80171269
_cell_angle_alpha   89.96391597
_cell_angle_beta   90.03192742
_cell_angle_gamma   89.97636303
_symmetry_Int_Tables_number   1
_chemical_formula_structural   HfZrTaTiMo
_chemical_formula_sum   'Hf40 Zr40 Ta40 Ti40 Mo40'
_cell_volume   3870.76577100
_cell_formula_units_Z   40
loop_
 _symmetry_equiv_pos_site_id
 _symmetry_equiv_pos_as_xyz
  1  'x, y, z'
loop_
 _atom_site_type_symbol
 _atom_site_label
 _atom_site_symmetry_multiplicity
 _atom_site_fract_x
 _atom_site_fract_y
 _atom_site_fract_z
 _atom_site_occupancy
  Hf  Hf0  1  0.69875111  0.11311773  0.60911612  1
  Hf  Hf1  1  0.60534711  0.59987036  0.49793835  1
  Hf  Hf2  1  0.19261394  0.59874583  0.25698489  1
  Hf  Hf3  1  0.10318575  0.28739763  0.86766141  1
  Hf  Hf4  1  0.29560252  0.69851858  0.10864474  1
  Hf  Hf5  1  0.89636906  0.49925751  0.38676353  1
  Hf  Hf6  1  0.10093407  0.29951643  0.12685203  1
  Hf  Hf7  1  0.39297913  0.61113302  0.50399249  1
  Hf  Hf8  1  0.80655441  0.40061302  0.24766399  1
  Hf  Hf9  1  0.71243816  0.69638080  0.62532324  1
  Hf  Hf10  1  0.69830571  0.31086616  0.37756894  1
  Hf  Hf11  1  0.10830357  0.29593351  0.62418256  1
  Hf  Hf12  1  0.61474220  0.01401336  -0.00160973  1
  Hf  Hf13  1  0.29711192  0.49763201  0.12309775  1
  Hf  Hf14  1  0.00100553  0.18854177  -0.00372913  1
  Hf  Hf15  1  0.00215516  0.60020832  0.51514368  1
  Hf  Hf16  1  0.40699190  0.80228240  0.75741625  1
  Hf  Hf17  1  0.39257107  0.21760362  0.76240538  1
  Hf  Hf18  1  0.40547899  0.41296322  0.75571914  1
  Hf  Hf19  1  0.70926129  0.70949086  0.37436602  1
  Hf  Hf20  1  0.70010943  0.49051679  0.87931300  1
  Hf  Hf21  1  -0.01039653  0.18250065  0.75282970  1
  Hf  Hf22  1  0.88876054  0.08759793  0.12800982  1
  Hf  Hf23  1  0.30300046  0.70803347  0.89106627  1
  Hf  Hf24  1  0.10088040  0.06329736  0.86441995  1
  Hf  Hf25  1  0.30239524  0.30472667  0.61489583  1
  Hf  Hf26  1  0.81133851  0.60576533  -0.01229203  1
  Hf  Hf27  1  0.31380906  0.10291408  0.13028409  1
  Hf  Hf28  1  0.20877592  0.39909036  0.75664326  1
  Hf  Hf29  1  0.00250769  0.41147554  0.74532564  1
  Hf  Hf30  1  0.30097169  0.72270359  0.37684788  1
  Hf  Hf31  1  0.39999172  0.61240205  0.24763734  1
  Hf  Hf32  1  0.81095048  0.81947591  -0.01347861  1
  Hf  Hf33  1  0.20181581  0.78010334  0.73973782  1
  Hf  Hf34  1  0.20830301  -0.00665789  0.24326190  1
  Hf  Hf35  1  0.50558717  0.30640319  0.61495454  1
  Hf  Hf36  1  0.01029450  0.78690461  0.25718691  1
  Hf  Hf37  1  0.88384548  0.50536300  0.62388527  1
  Hf  Hf38  1  0.50651294  0.10920962  0.87224677  1
  Hf  Hf39  1  0.29841590  0.30061766  0.13375810  1
  Zr  Zr40  1  0.80009720  0.61009332  0.76295766  1
  Zr  Zr41  1  0.21116192  0.18795414  -0.00787610  1
  Zr  Zr42  1  0.37973606  0.60630131  0.74305310  1
  Zr  Zr43  1  0.20320926  0.18953731  0.48620718  1
  Zr  Zr44  1  0.80589671  -0.00666185  0.50649363  1
  Zr  Zr45  1  0.60438282  0.81151964  -0.01211137  1
  Zr  Zr46  1  0.39923921  0.00351676  -0.00499661  1
  Zr  Zr47  1  0.91638685  0.68885038  0.11946886  1
  Zr  Zr48  1  0.81023860  0.60754523  0.24940455  1
  Zr  Zr49  1  0.39879518  0.19090020  0.26740596  1
  Zr  Zr50  1  0.88778140  0.30210788  0.87365563  1
  Zr  Zr51  1  0.69391101  0.09746784  0.38148625  1
  Zr  Zr52  1  0.58469911  0.81323961  0.24075451  1
  Zr  Zr53  1  0.20218869  0.80057419  0.23903644  1
  Zr  Zr54  1  0.17325432  0.80901240  0.00158814  1
  Zr  Zr55  1  0.76905774  0.19456359  -0.00243951  1
  Zr  Zr56  1  0.70516386  0.50602767  0.12138539  1
  Zr  Zr57  1  0.00039689  -0.03493508  0.00368835  1
  Zr  Zr58  1  0.88870391  0.88843242  0.14505891  1
  Zr  Zr59  1  0.89783021  0.89329919  0.36971638  1
  Zr  Zr60  1  0.61155626  0.00621525  0.75171074  1
  Zr  Zr61  1  0.09754650  0.09365947  0.63050181  1
  Zr  Zr62  1  0.70614803  0.71716968  0.12434950  1
  Zr  Zr63  1  0.89820420  0.29716846  0.12080749  1
  Zr  Zr64  1  0.60988323  0.21899738  0.75062435  1
  Zr  Zr65  1  0.89569484  0.28953304  0.62893237  1
  Zr  Zr66  1  -0.00250321  0.20069706  0.25856674  1
  Zr  Zr67  1  0.38307568  0.00099148  0.49960863  1
  Zr  Zr68  1  0.29050101  0.10184416  0.64249056  1
  Zr  Zr69  1  0.09987845  0.67336873  0.86556437  1
  Zr  Zr70  1  0.28575550  0.51411474  0.88511786  1
  Zr  Zr71  1  0.61728741  0.79516411  0.77453222  1
  Zr  Zr72  1  0.39482767  0.40902125  0.48986694  1
  Zr  Zr73  1  0.81503455  0.21091371  0.48571051  1
  Zr  Zr74  1  0.51410191  0.70548412  0.62689907  1
  Zr  Zr75  1  0.49144510  0.10580524  0.62804896  1
  Zr  Zr76  1  0.49789860  0.29083719  0.12751929  1
  Zr  Zr77  1  0.19408101  0.39819341  -0.00722888  1
  Zr  Zr78  1  0.50594221  0.71209299  0.37819870  1
  Zr  Zr79  1  0.88182791  0.07481757  0.88056649  1
  Ta  Ta80  1  0.79709697  0.19880165  0.25894445  1
  Ta  Ta81  1  0.58911012  0.59914064  0.76788458  1
  Ta  Ta82  1  0.09264261  0.50515442  0.12576641  1
  Ta  Ta83  1  0.01086361  -0.00737027  0.25122983  1
  Ta  Ta84  1  0.10830963  0.89530295  0.62348627  1
  Ta  Ta85  1  0.00596637  0.59145104  0.25932260  1
  Ta  Ta86  1  0.59882867  0.19908868  0.25542395  1
  Ta  Ta87  1  0.69896058  0.31260748  0.61188417  1
  Ta  Ta88  1  0.50240885  0.90616091  0.63734101  1
  Ta  Ta89  1  0.10007649  0.09386975  0.12864067  1
  Ta  Ta90  1  0.00323233  -0.00392799  0.50455551  1
  Ta  Ta91  1  -0.00583993  0.38709244  0.50062033  1
  Ta  Ta92  1  0.69143616  0.90293700  0.36847118  1
  Ta  Ta93  1  0.41172272  0.81324247  0.51316392  1
  Ta  Ta94  1  0.68373353  0.50046318  0.63253929  1
  Ta  Ta95  1  0.11880193  0.89431727  0.38911454  1
  Ta  Ta96  1  0.69343310  0.50694170  0.36867029  1
  Ta  Ta97  1  0.40585415  0.20141278  0.48350800  1
  Ta  Ta98  1  -0.00506623  0.40678123  -0.00561850  1
  Ta  Ta99  1  0.50468208  0.30354161  0.37359012  1
  Ta  Ta100  1  0.30467382  0.90557135  0.63995997  1
  Ta  Ta101  1  0.50064142  0.50306554  0.12226717  1
  Ta  Ta102  1  0.59052316  -0.01166457  0.50606548  1
  Ta  Ta103  1  0.69793053  0.89313137  0.62517916  1
  Ta  Ta104  1  0.80287447  0.40345819  0.00411571  1
  Ta  Ta105  1  0.50177318  0.50350149  0.36777748  1
  Ta  Ta106  1  0.09878841  0.08557124  0.37690226  1
  Ta  Ta107  1  0.60424458  0.39597273  0.00727303  1
  Ta  Ta108  1  0.49793315  0.70660989  0.11671759  1
  Ta  Ta109  1  0.00350555  0.80106472  0.51306819  1
  Ta  Ta110  1  0.40265926  0.39946985  -0.00303057  1
  Ta  Ta111  1  0.27056675  0.50975015  0.61126668  1
  Ta  Ta112  1  0.60063667  0.60856590  -0.01048287  1
  Ta  Ta113  1  0.39852080  0.40696657  0.25937937  1
  Ta  Ta114  1  0.59786092  0.60130773  0.24582562  1
  Ta  Ta115  1  0.51166646  0.31144863  0.88591214  1
  Ta  Ta116  1  0.21304080  0.79748214  0.51477913  1
  Ta  Ta117  1  0.19480421  0.19623657  0.26228735  1
  Ta  Ta118  1  0.00325910  0.40566040  0.25651815  1
  Ta  Ta119  1  0.78678251  0.39467746  0.74819001  1
  Ti  Ti120  1  0.40573170  0.20360545  -0.00709292  1
  Ti  Ti121  1  0.19393438  0.39982689  0.25900644  1
  Ti  Ti122  1  0.01422667  0.59554791  -0.00137831  1
  Ti  Ti123  1  0.90457477  0.69774794  0.38502469  1
  Ti  Ti124  1  0.80414542  0.79517246  0.50625333  1
  Ti  Ti125  1  0.69621773  0.29743398  0.13247938  1
  Ti  Ti126  1  0.29277625  0.50502303  0.37879406  1
  Ti  Ti127  1  0.49364517  0.90890586  0.86953753  1
  Ti  Ti128  1  0.59565560  0.40457044  0.24587101  1
  Ti  Ti129  1  0.91454904  0.71414145  0.86992341  1
  Ti  Ti130  1  0.90272445  0.09307256  0.36791875  1
  Ti  Ti131  1  0.19971052  -0.00208412  0.01189654  1
  Ti  Ti132  1  0.59585644  0.40625790  0.49581418  1
  Ti  Ti133  1  0.69809218  0.92025720  0.14013104  1
  Ti  Ti134  1  0.41551287  -0.01623529  0.24651533  1
  Ti  Ti135  1  0.59761067  0.40736147  0.75211770  1
  Ti  Ti136  1  0.29551913  0.09729202  0.85889069  1
  Ti  Ti137  1  0.81454492  0.81341307  0.74890697  1
  Ti  Ti138  1  0.91398437  0.50917771  0.86629501  1
  Ti  Ti139  1  0.69080280  0.10355560  0.14102791  1
  Ti  Ti140  1  0.50408395  0.09408041  0.38051128  1
  Ti  Ti141  1  0.10103554  0.49458015  0.38925923  1
  Ti  Ti142  1  0.40814129  0.60125109  0.00396373  1
  Ti  Ti143  1  0.49426280  0.90288262  0.37733082  1
  Ti  Ti144  1  0.79154478  0.19594559  0.75209002  1
  Ti  Ti145  1  0.29641872  0.07989323  0.37077008  1
  Ti  Ti146  1  0.29454909  0.30620310  0.37449942  1
  Ti  Ti147  1  -0.00034443  0.78032336  0.72433192  1
  Ti  Ti148  1  0.09505196  0.29984489  0.38018704  1
  Ti  Ti149  1  0.10157680  0.69689112  0.39102688  1
  Ti  Ti150  1  0.49294638  0.50410295  0.62540501  1
  Ti  Ti151  1  -0.00076302  0.19029806  0.49372278  1
  Ti  Ti152  1  0.49654667  0.50683464  0.88531737  1
  Ti  Ti153  1  0.40908235  0.80868785  -0.00509279  1
  Ti  Ti154  1  0.79041837  0.41497391  0.50060371  1
  Ti  Ti155  1  0.28009298  0.90941101  0.86723848  1
  Ti  Ti156  1  0.31353460  0.89589463  0.11974496  1
  Ti  Ti157  1  -0.00690226  -0.02533164  0.73587156  1
  Ti  Ti158  1  0.81007253  0.00700351  0.72773752  1
  Ti  Ti159  1  0.72685694  0.92448279  0.86774455  1
  Mo  Mo160  1  0.10008102  0.69105116  0.12380280  1
  Mo  Mo161  1  0.59287107  0.20468293  0.49271029  1
  Mo  Mo162  1  0.39855503  -0.00207444  0.76365502  1
  Mo  Mo163  1  0.30941606  0.89906889  0.37402230  1
  Mo  Mo164  1  0.50838171  0.09100725  0.13093663  1
  Mo  Mo165  1  0.31193197  0.29879386  0.88141602  1
  Mo  Mo166  1  0.59152180  0.20555378  0.00718007  1
  Mo  Mo167  1  0.08713634  0.49208364  0.87374348  1
  Mo  Mo168  1  0.17825248  0.58518755  0.73541598  1
  Mo  Mo169  1  0.09537337  0.90188109  0.12907514  1
  Mo  Mo170  1  0.19130909  0.39831335  0.48786652  1
  Mo  Mo171  1  0.19596554  0.59820194  0.00756629  1
  Mo  Mo172  1  -0.00520989  0.78267364  -0.00480826  1
  Mo  Mo173  1  0.69578344  0.30562978  0.87668335  1
  Mo  Mo174  1  0.79676985  0.60083904  0.49700088  1
  Mo  Mo175  1  0.79387076  -0.00534248  0.00628224  1
  Mo  Mo176  1  0.30339587  0.70324229  0.61793172  1
  Mo  Mo177  1  0.19554942  -0.01100467  0.49985487  1
  Mo  Mo178  1  0.90254330  0.09560309  0.62282821  1
  Mo  Mo179  1  0.90514254  0.30300935  0.37494910  1
  Mo  Mo180  1  0.91264513  0.49271730  0.12126017  1
  Mo  Mo181  1  0.60806301  0.81440888  0.50179835  1
  Mo  Mo182  1  0.19570990  -0.01552153  0.75252836  1
  Mo  Mo183  1  0.70108931  0.10690024  0.86868849  1
  Mo  Mo184  1  0.08631457  0.87344058  0.85192298  1
  Mo  Mo185  1  0.09679593  0.48585736  0.60996506  1
  Mo  Mo186  1  0.11198536  0.68529594  0.61729013  1
  Mo  Mo187  1  0.19724764  0.19732856  0.76062813  1
  Mo  Mo188  1  0.59214755  0.01028124  0.25209903  1
  Mo  Mo189  1  0.19982412  0.60077458  0.48447612  1
  Mo  Mo190  1  0.00165549  0.60063603  0.72916264  1
  Mo  Mo191  1  0.50032017  0.90583491  0.11702087  1
  Mo  Mo192  1  0.49823995  0.69676568  0.88548336  1
  Mo  Mo193  1  0.70989978  0.70235031  0.87635682  1
  Mo  Mo194  1  0.79518479  0.00709940  0.25939160  1
  Mo  Mo195  1  0.90097292  0.89468582  0.62260825  1
  Mo  Mo196  1  0.39704605  0.80872170  0.23742169  1
  Mo  Mo197  1  0.91517775  0.89587640  0.85736537  1
  Mo  Mo198  1  0.89788319  0.70524913  0.62229128  1
  Mo  Mo199  1  0.79730615  0.80377874  0.25706250  1
