# generated using pymatgen
data_HfZrTaTiMo
_symmetry_space_group_name_H-M   'P 1'
_cell_length_a   15.20676099
_cell_length_b   15.21679864
_cell_length_c   16.85003375
_cell_angle_alpha   90.03121147
_cell_angle_beta   89.97904797
_cell_angle_gamma   90.10125260
_symmetry_Int_Tables_number   1
_chemical_formula_structural   HfZrTaTiMo
_chemical_formula_sum   'Hf40 Zr40 Ta40 Ti40 Mo40'
_cell_volume   3899.06089120
_cell_formula_units_Z   40
loop_
 _symmetry_equiv_pos_site_id
 _symmetry_equiv_pos_as_xyz
  1  'x, y, z'
loop_
 _atom_site_type_symbol
 _atom_site_label
 _atom_site_symmetry_multiplicity
 _atom_site_fract_x
 _atom_site_fract_y
 _atom_site_fract_z
 _atom_site_occupancy
  Hf  Hf0  1  0.59067800  0.59348625  -0.00931527  1
  Hf  Hf1  1  0.80479999  0.59872904  -0.01539954  1
  Hf  Hf2  1  0.29482552  0.12022046  0.38749779  1
  Hf  Hf3  1  0.88322194  0.89990333  0.35687213  1
  Hf  Hf4  1  0.11764769  0.70602994  0.64071209  1
  Hf  Hf5  1  0.60802448  0.00438803  0.25424136  1
  Hf  Hf6  1  0.10972034  0.70849278  0.14372418  1
  Hf  Hf7  1  0.28980505  0.10645869  0.12690544  1
  Hf  Hf8  1  0.02737210  0.58096044  0.76010062  1
  Hf  Hf9  1  -0.00005314  0.38446156  0.49405931  1
  Hf  Hf10  1  0.41787126  0.39495025  0.26433478  1
  Hf  Hf11  1  0.59561703  0.79725400  0.00608206  1
  Hf  Hf12  1  0.80759270  0.40461659  0.49761463  1
  Hf  Hf13  1  0.19956034  0.22489942  -0.01465695  1
  Hf  Hf14  1  0.79303064  0.17947777  0.24022844  1
  Hf  Hf15  1  0.91853188  0.48302614  0.87369763  1
  Hf  Hf16  1  0.90589278  0.29151526  0.13731573  1
  Hf  Hf17  1  0.79411783  0.19136883  0.00470456  1
  Hf  Hf18  1  0.39170349  0.79248243  0.24113887  1
  Hf  Hf19  1  0.59624770  0.19314971  0.75402777  1
  Hf  Hf20  1  0.18222755  0.00388856  -0.00693858  1
  Hf  Hf21  1  0.80781869  0.59716853  0.76009767  1
  Hf  Hf22  1  0.20659155  0.80814346  0.01517852  1
  Hf  Hf23  1  0.09452668  0.09861897  0.63491004  1
  Hf  Hf24  1  0.58649442  0.20622863  0.26202039  1
  Hf  Hf25  1  0.79904982  -0.00499782  0.50585547  1
  Hf  Hf26  1  0.60073352  0.78658839  0.24655746  1
  Hf  Hf27  1  0.80651643  0.79644057  -0.00843212  1
  Hf  Hf28  1  0.80843117  0.19859376  0.75482611  1
  Hf  Hf29  1  0.11634417  0.30370843  0.13078866  1
  Hf  Hf30  1  0.69228098  0.89540382  0.87378746  1
  Hf  Hf31  1  0.13461630  0.71205946  0.86219938  1
  Hf  Hf32  1  0.91836295  0.70061903  0.63248736  1
  Hf  Hf33  1  0.81313492  0.81112455  0.74817998  1
  Hf  Hf34  1  0.70106660  0.30098330  0.37326584  1
  Hf  Hf35  1  0.58480148  0.78606224  0.74113553  1
  Hf  Hf36  1  0.38866432  -0.00827635  0.00179911  1
  Hf  Hf37  1  0.89948774  0.71172743  0.14068675  1
  Hf  Hf38  1  0.68546318  0.48632016  0.12454736  1
  Hf  Hf39  1  0.51134179  0.49596167  0.39413182  1
  Zr  Zr40  1  0.29731016  0.71802655  0.38982029  1
  Zr  Zr41  1  0.01036118  0.81966433  -0.00300769  1
  Zr  Zr42  1  0.79300045  -0.00224983  0.00437612  1
  Zr  Zr43  1  0.80881503  0.19817750  0.49844855  1
  Zr  Zr44  1  0.38932964  -0.00376792  0.74610594  1
  Zr  Zr45  1  0.00935444  0.59173046  0.25716589  1
  Zr  Zr46  1  0.90055381  0.50225716  0.12789070  1
  Zr  Zr47  1  0.29931262  0.30507356  0.62116244  1
  Zr  Zr48  1  0.70157421  0.29590580  0.62213481  1
  Zr  Zr49  1  0.70434432  0.69274922  0.62981772  1
  Zr  Zr50  1  0.09188315  0.33319509  0.86391921  1
  Zr  Zr51  1  0.10933174  0.48869756  0.37634922  1
  Zr  Zr52  1  0.10440631  0.49641502  0.60878241  1
  Zr  Zr53  1  0.00004562  -0.00665848  0.49439928  1
  Zr  Zr54  1  0.29101738  0.91953663  0.36737549  1
  Zr  Zr55  1  0.80112488  0.38898142  -0.00454841  1
  Zr  Zr56  1  0.01742420  0.79349921  0.49088620  1
  Zr  Zr57  1  0.48404575  0.88565625  0.88103537  1
  Zr  Zr58  1  0.59025164  -0.00451301  0.49281818  1
  Zr  Zr59  1  0.89913155  0.70017217  0.36360950  1
  Zr  Zr60  1  0.18936204  0.61710740  0.49049496  1
  Zr  Zr61  1  0.40307472  0.59488965  0.26859483  1
  Zr  Zr62  1  0.49626942  0.90350941  0.13070874  1
  Zr  Zr63  1  0.90929734  0.91719345  0.14369972  1
  Zr  Zr64  1  0.49257263  0.50309680  0.86477187  1
  Zr  Zr65  1  0.19477275  -0.00123413  0.75461516  1
  Zr  Zr66  1  0.40211888  0.20237885  -0.00710163  1
  Zr  Zr67  1  0.19639627  0.42386417  0.74328270  1
  Zr  Zr68  1  0.07769168  0.10308930  0.13096825  1
  Zr  Zr69  1  0.49905326  0.29256955  0.62149495  1
  Zr  Zr70  1  0.78921218  0.00576498  0.74551864  1
  Zr  Zr71  1  0.58316698  -0.00481502  0.74689385  1
  Zr  Zr72  1  0.69705521  0.70616019  0.37596058  1
  Zr  Zr73  1  0.69933513  0.69072141  0.12503605  1
  Zr  Zr74  1  0.08642649  0.11677247  0.86218129  1
  Zr  Zr75  1  0.49445278  0.89550502  0.36671580  1
  Zr  Zr76  1  0.69689996  0.49783928  0.63180246  1
  Zr  Zr77  1  0.49434825  0.49671896  0.61764302  1
  Zr  Zr78  1  0.01956291  0.40611330  0.01392770  1
  Zr  Zr79  1  0.01775877  0.61186096  -0.00170305  1
  Ta  Ta80  1  0.39274676  0.77783998  0.01597465  1
  Ta  Ta81  1  0.80648392  0.80278788  0.51003419  1
  Ta  Ta82  1  0.80717317  0.39313858  0.75477638  1
  Ta  Ta83  1  0.59108023  0.01038605  0.00251826  1
  Ta  Ta84  1  0.69736081  0.49260032  0.86510507  1
  Ta  Ta85  1  0.60290192  0.80248587  0.50675174  1
  Ta  Ta86  1  0.68514085  0.29230559  0.12861613  1
  Ta  Ta87  1  0.32842912  0.69983389  0.87151124  1
  Ta  Ta88  1  0.80815681  0.60043299  0.49987912  1
  Ta  Ta89  1  0.39653863  0.19464295  0.75842138  1
  Ta  Ta90  1  0.68693152  0.10111754  0.87951236  1
  Ta  Ta91  1  -0.01669678  0.01337345  -0.01623038  1
  Ta  Ta92  1  -0.01229463  0.20727010  -0.00762197  1
  Ta  Ta93  1  0.49927081  0.31111238  0.12363603  1
  Ta  Ta94  1  0.68781562  0.10248378  0.61663679  1
  Ta  Ta95  1  0.09751456  0.28921294  0.63017140  1
  Ta  Ta96  1  0.90371648  0.49562661  0.62892260  1
  Ta  Ta97  1  0.48890053  0.66902130  0.12509688  1
  Ta  Ta98  1  0.29299756  0.11173447  0.61342774  1
  Ta  Ta99  1  0.90419493  0.09948953  0.36409987  1
  Ta  Ta100  1  0.28477319  0.88590526  0.87533935  1
  Ta  Ta101  1  -0.01012652  0.59141165  0.49005412  1
  Ta  Ta102  1  -0.01906688  -0.01138071  0.76256481  1
  Ta  Ta103  1  0.39443762  0.20325770  0.25638242  1
  Ta  Ta104  1  0.90639408  0.29421917  0.35814047  1
  Ta  Ta105  1  0.49804384  0.11043223  0.12982289  1
  Ta  Ta106  1  0.30765663  0.70407419  0.61286066  1
  Ta  Ta107  1  0.01254994  0.39256656  0.25104267  1
  Ta  Ta108  1  0.49743441  0.29651245  0.87019872  1
  Ta  Ta109  1  0.20968825  0.21260747  0.75787131  1
  Ta  Ta110  1  0.48894151  0.10003429  0.61800246  1
  Ta  Ta111  1  0.22428819  0.60865486  0.00812457  1
  Ta  Ta112  1  0.40498150  0.60570004  0.73965813  1
  Ta  Ta113  1  0.40306956  0.81418423  0.50938524  1
  Ta  Ta114  1  0.69456104  0.89875097  0.62437700  1
  Ta  Ta115  1  0.70570343  0.50085950  0.37528923  1
  Ta  Ta116  1  0.78956805  0.59351465  0.25168156  1
  Ta  Ta117  1  0.32060932  0.50362637  0.12796546  1
  Ta  Ta118  1  0.29029685  0.50709796  0.87523493  1
  Ta  Ta119  1  0.91979712  0.70978000  0.86321640  1
  Ti  Ti120  1  0.59330574  0.57884244  0.25214672  1
  Ti  Ti121  1  0.89702228  0.49087354  0.36518933  1
  Ti  Ti122  1  0.21910147  0.40135771  0.25967493  1
  Ti  Ti123  1  0.70458937  0.89996058  0.12966391  1
  Ti  Ti124  1  0.69130379  0.69345308  0.86460116  1
  Ti  Ti125  1  0.39378864  0.40383554  -0.00592037  1
  Ti  Ti126  1  0.30345087  0.51079171  0.60655144  1
  Ti  Ti127  1  0.79418915  0.39749637  0.24776690  1
  Ti  Ti128  1  0.90313849  0.09520790  0.62762747  1
  Ti  Ti129  1  0.28639225  0.90225710  0.61681907  1
  Ti  Ti130  1  0.21365704  0.60557611  0.26089190  1
  Ti  Ti131  1  0.12734690  0.50206172  0.13412596  1
  Ti  Ti132  1  0.10582426  0.28339970  0.37089360  1
  Ti  Ti133  1  0.08772161  0.89509237  0.63502038  1
  Ti  Ti134  1  0.00771675  0.19106450  0.49288224  1
  Ti  Ti135  1  0.20121210  0.37964864  0.49430169  1
  Ti  Ti136  1  0.29225436  0.90869266  0.14416444  1
  Ti  Ti137  1  0.39262677  0.80054771  0.73369724  1
  Ti  Ti138  1  0.30255768  0.10257052  0.87716147  1
  Ti  Ti139  1  0.59782194  0.39860320  0.75177516  1
  Ti  Ti140  1  0.58284310  0.19075326  0.48303370  1
  Ti  Ti141  1  0.69885548  0.30010118  0.87294621  1
  Ti  Ti142  1  0.30782587  0.31078576  0.12734380  1
  Ti  Ti143  1  0.10073598  0.09120679  0.36316165  1
  Ti  Ti144  1  0.61180966  0.60055827  0.50081864  1
  Ti  Ti145  1  0.18954561  -0.00002336  0.50249347  1
  Ti  Ti146  1  0.30503277  0.50038546  0.39281863  1
  Ti  Ti147  1  0.39905711  0.38652842  0.48986258  1
  Ti  Ti148  1  0.90887086  0.29144555  0.62691433  1
  Ti  Ti149  1  0.70582843  0.08793231  0.37846294  1
  Ti  Ti150  1  0.39119730  0.39598756  0.75283863  1
  Ti  Ti151  1  0.60450404  0.38890891  0.49937904  1
  Ti  Ti152  1  0.09944883  0.89542605  0.35336068  1
  Ti  Ti153  1  0.49937871  0.69426124  0.60973841  1
  Ti  Ti154  1  0.49773600  0.69675804  0.39342920  1
  Ti  Ti155  1  0.59360380  0.39122075  -0.00850896  1
  Ti  Ti156  1  0.20120296  0.20474424  0.25332786  1
  Ti  Ti157  1  0.10521224  0.91152799  0.15212765  1
  Ti  Ti158  1  0.39608394  0.00723783  0.50323666  1
  Ti  Ti159  1  0.59535366  0.20088681  -0.00221656  1
  Mo  Mo160  1  0.22931461  0.60684198  0.74167324  1
  Mo  Mo161  1  0.19636950  0.82340129  0.50578495  1
  Mo  Mo162  1  0.88883732  0.10310620  0.87449987  1
  Mo  Mo163  1  0.39586904  0.19879789  0.49826430  1
  Mo  Mo164  1  0.11653029  0.52285340  0.88892887  1
  Mo  Mo165  1  0.30650172  0.31225747  0.86627331  1
  Mo  Mo166  1  0.22051130  0.80853167  0.74429157  1
  Mo  Mo167  1  0.70111307  0.89513412  0.38061483  1
  Mo  Mo168  1  0.59669069  0.59426316  0.75367201  1
  Mo  Mo169  1  -0.00124063  0.00955751  0.26025941  1
  Mo  Mo170  1  0.90365395  0.90207695  0.62392140  1
  Mo  Mo171  1  0.20282557  0.01223555  0.25195744  1
  Mo  Mo172  1  0.00415716  0.80229622  0.25738472  1
  Mo  Mo173  1  0.50142342  0.70124435  0.87227777  1
  Mo  Mo174  1  0.48610920  0.09563893  0.37048569  1
  Mo  Mo175  1  0.79032715  0.00093893  0.24667984  1
  Mo  Mo176  1  0.89676007  0.90070124  0.87740937  1
  Mo  Mo177  1  0.21939384  0.41551996  0.00715071  1
  Mo  Mo178  1  0.49061193  0.89662957  0.61843292  1
  Mo  Mo179  1  0.49679011  0.10007070  0.88177847  1
  Mo  Mo180  1  0.39988043  0.59102162  -0.00109470  1
  Mo  Mo181  1  0.20201282  0.80131853  0.24731748  1
  Mo  Mo182  1  0.49190735  0.29159081  0.38929971  1
  Mo  Mo183  1  0.10307010  0.70753787  0.35973528  1
  Mo  Mo184  1  0.40302173  0.60248728  0.50030690  1
  Mo  Mo185  1  0.18218413  0.19713577  0.50101191  1
  Mo  Mo186  1  0.30014586  0.69220559  0.13347827  1
  Mo  Mo187  1  -0.00206879  0.19795133  0.74627049  1
  Mo  Mo188  1  0.09420974  0.89979225  0.87193577  1
  Mo  Mo189  1  0.50129969  0.48435880  0.12134557  1
  Mo  Mo190  1  0.68273281  0.09771518  0.11973190  1
  Mo  Mo191  1  0.89764785  0.10244178  0.12541630  1
  Mo  Mo192  1  0.78873610  0.80161820  0.24315268  1
  Mo  Mo193  1  0.29156909  0.31063814  0.37601164  1
  Mo  Mo194  1  -0.01024562  0.38877106  0.73308304  1
  Mo  Mo195  1  0.40027201  0.01957436  0.24613789  1
  Mo  Mo196  1  0.00534194  0.20273485  0.25840365  1
  Mo  Mo197  1  0.90079965  0.29293128  0.87424131  1
  Mo  Mo198  1  0.60661075  0.39947161  0.25723316  1
  Mo  Mo199  1  0.01160359  0.80604301  0.75816901  1
