# generated using pymatgen
data_HfZrTaTiMo
_symmetry_space_group_name_H-M   'P 1'
_cell_length_a   15.21286597
_cell_length_b   15.19314930
_cell_length_c   16.82969699
_cell_angle_alpha   89.97645051
_cell_angle_beta   89.98449237
_cell_angle_gamma   90.05207313
_symmetry_Int_Tables_number   1
_chemical_formula_structural   HfZrTaTiMo
_chemical_formula_sum   'Hf40 Zr40 Ta40 Ti40 Mo40'
_cell_volume   3889.86840639
_cell_formula_units_Z   40
loop_
 _symmetry_equiv_pos_site_id
 _symmetry_equiv_pos_as_xyz
  1  'x, y, z'
loop_
 _atom_site_type_symbol
 _atom_site_label
 _atom_site_symmetry_multiplicity
 _atom_site_fract_x
 _atom_site_fract_y
 _atom_site_fract_z
 _atom_site_occupancy
  Hf  Hf0  1  0.37336589  0.58613623  0.24757619  1
  Hf  Hf1  1  0.60044451  -0.00499847  0.00616036  1
  Hf  Hf2  1  0.72203264  0.11445157  0.37511449  1
  Hf  Hf3  1  0.79172110  0.39355550  0.50585552  1
  Hf  Hf4  1  0.80205664  0.80256688  0.00352553  1
  Hf  Hf5  1  0.50022016  0.88953467  0.61157671  1
  Hf  Hf6  1  0.39237783  0.19193020  0.00802588  1
  Hf  Hf7  1  0.90541503  0.69992330  0.61873746  1
  Hf  Hf8  1  0.10224966  0.69700529  0.12378365  1
  Hf  Hf9  1  0.28761679  0.07869430  0.86426062  1
  Hf  Hf10  1  0.90472421  0.48479326  0.86105497  1
  Hf  Hf11  1  0.40778413  0.19152018  0.23492466  1
  Hf  Hf12  1  0.40398264  0.79172207  -0.00238437  1
  Hf  Hf13  1  0.39205944  0.18704598  0.74320482  1
  Hf  Hf14  1  0.39657783  -0.01162554  0.00493991  1
  Hf  Hf15  1  0.49983126  0.29935471  0.63327844  1
  Hf  Hf16  1  0.09408690  0.31443852  0.39130774  1
  Hf  Hf17  1  0.69987700  0.51107993  0.86934913  1
  Hf  Hf18  1  0.80742915  0.80659955  0.48455121  1
  Hf  Hf19  1  -0.00506912  0.19496158  0.73810738  1
  Hf  Hf20  1  0.20826064  0.80516599  -0.01181634  1
  Hf  Hf21  1  -0.00182175  0.78910177  0.26176275  1
  Hf  Hf22  1  -0.00141486  0.79677385  -0.00783408  1
  Hf  Hf23  1  0.79750751  0.80419970  0.26339098  1
  Hf  Hf24  1  0.00945249  -0.00213937  0.73750401  1
  Hf  Hf25  1  0.01121595  0.58635919  0.74547667  1
  Hf  Hf26  1  0.10747572  0.89445334  0.12810692  1
  Hf  Hf27  1  0.88111422  0.30045484  0.37808424  1
  Hf  Hf28  1  0.60155405  0.39938327  -0.00651574  1
  Hf  Hf29  1  0.70491929  0.91230215  0.61893886  1
  Hf  Hf30  1  0.50610667  0.08660610  0.62267567  1
  Hf  Hf31  1  0.30609000  0.49164356  0.86992440  1
  Hf  Hf32  1  0.79807579  0.59748119  0.48936125  1
  Hf  Hf33  1  0.29518207  0.31059885  0.13444716  1
  Hf  Hf34  1  0.20606692  -0.00844547  0.26163162  1
  Hf  Hf35  1  0.90176736  0.09649765  0.87361553  1
  Hf  Hf36  1  0.11066012  0.92285453  0.87368358  1
  Hf  Hf37  1  0.39840528  0.39788606  0.00570657  1
  Hf  Hf38  1  0.30801729  0.09037300  0.38693720  1
  Hf  Hf39  1  0.29114058  0.69147097  0.39008777  1
  Zr  Zr40  1  0.19470031  0.19899211  0.26078667  1
  Zr  Zr41  1  0.18651734  0.40856014  -0.00144019  1
  Zr  Zr42  1  0.70319818  0.09435585  0.12407110  1
  Zr  Zr43  1  0.09370383  0.31148980  0.12985780  1
  Zr  Zr44  1  0.31421260  0.30050352  0.36463178  1
  Zr  Zr45  1  0.00336628  0.79667727  0.75583413  1
  Zr  Zr46  1  0.69583489  0.31937077  0.12978075  1
  Zr  Zr47  1  0.51093815  0.68904664  0.60401773  1
  Zr  Zr48  1  0.49229933  0.47746888  0.36307609  1
  Zr  Zr49  1  0.42159537  0.58966598  0.75062923  1
  Zr  Zr50  1  0.31731513  0.69585838  0.60422117  1
  Zr  Zr51  1  0.70029087  0.70405168  0.88099538  1
  Zr  Zr52  1  -0.00568209  0.42283348  0.25710838  1
  Zr  Zr53  1  0.59873664  0.40368718  0.50028006  1
  Zr  Zr54  1  0.39337838  0.38141257  0.50668691  1
  Zr  Zr55  1  0.60380856  0.59814142  0.25386449  1
  Zr  Zr56  1  0.49560423  0.09528648  0.87305594  1
  Zr  Zr57  1  0.09208000  0.31118404  0.61055146  1
  Zr  Zr58  1  0.09714119  0.10806200  0.12327112  1
  Zr  Zr59  1  0.60282292  0.79076311  0.75057035  1
  Zr  Zr60  1  0.30272888  0.90414287  0.60956880  1
  Zr  Zr61  1  0.60035475  0.20004170  0.75484322  1
  Zr  Zr62  1  0.00047208  0.00108579  0.25249883  1
  Zr  Zr63  1  0.21028062  0.59720588  0.74506838  1
  Zr  Zr64  1  0.70425753  0.70482575  0.13122253  1
  Zr  Zr65  1  0.10753983  0.70468636  0.61260329  1
  Zr  Zr66  1  0.60536980  0.00194903  0.25364019  1
  Zr  Zr67  1  0.20833842  0.81451727  0.75569587  1
  Zr  Zr68  1  0.70192329  0.71099423  0.61496282  1
  Zr  Zr69  1  0.80109162  0.20753407  0.00446362  1
  Zr  Zr70  1  0.51100513  0.11382319  0.38167174  1
  Zr  Zr71  1  0.68686283  0.51166908  0.63560121  1
  Zr  Zr72  1  -0.00301073  0.00687538  0.00780993  1
  Zr  Zr73  1  0.57236470  0.41755433  0.76355672  1
  Zr  Zr74  1  0.19575911  0.20479505  0.73766075  1
  Zr  Zr75  1  0.59292207  0.80571586  0.27186681  1
  Zr  Zr76  1  0.00355116  0.57978063  -0.00778230  1
  Zr  Zr77  1  -0.00802353  0.19888717  0.25994765  1
  Zr  Zr78  1  0.49040509  0.70128340  0.13712702  1
  Zr  Zr79  1  0.70136203  0.10354820  0.87763102  1
  Ta  Ta80  1  0.30506977  0.88794867  0.13607110  1
  Ta  Ta81  1  0.70403768  0.90698912  0.87094249  1
  Ta  Ta82  1  0.08662212  0.68296987  0.39437591  1
  Ta  Ta83  1  0.59954906  0.80305450  0.00366852  1
  Ta  Ta84  1  0.28818140  0.29172398  0.87364978  1
  Ta  Ta85  1  0.89608715  0.29695059  0.85931874  1
  Ta  Ta86  1  0.21005512  0.20465396  0.50185254  1
  Ta  Ta87  1  0.82660118  0.59979252  0.26289671  1
  Ta  Ta88  1  0.80736532  0.80943191  0.75042410  1
  Ta  Ta89  1  0.89825829  0.69282052  0.87036797  1
  Ta  Ta90  1  0.40550862  0.79755506  0.75390374  1
  Ta  Ta91  1  0.60122573  0.80455105  0.47317207  1
  Ta  Ta92  1  0.20396330  0.42792284  0.25629270  1
  Ta  Ta93  1  0.59682538  0.59590058  0.01440673  1
  Ta  Ta94  1  0.28620053  0.49913138  0.39444943  1
  Ta  Ta95  1  0.88314133  0.29063871  0.63233043  1
  Ta  Ta96  1  0.50375305  0.89921499  0.13132734  1
  Ta  Ta97  1  0.00064056  -0.00397472  0.50263133  1
  Ta  Ta98  1  0.28621442  0.48741815  0.61157700  1
  Ta  Ta99  1  0.20655283  0.00431482  0.00701297  1
  Ta  Ta100  1  0.28892898  0.69922224  0.12995309  1
  Ta  Ta101  1  0.70894107  0.31054615  0.86379415  1
  Ta  Ta102  1  0.80357862  -0.00715430  0.00652795  1
  Ta  Ta103  1  0.59528745  0.20667510  0.23567540  1
  Ta  Ta104  1  0.89736821  0.31425945  0.12920193  1
  Ta  Ta105  1  0.90523870  0.68706563  0.12771361  1
  Ta  Ta106  1  0.20061195  0.78982672  0.26552914  1
  Ta  Ta107  1  0.71465529  0.11515907  0.62594327  1
  Ta  Ta108  1  0.19553822  0.20080936  -0.00337801  1
  Ta  Ta109  1  0.08871335  0.31728826  0.86607368  1
  Ta  Ta110  1  0.39913445  0.59251102  0.01037579  1
  Ta  Ta111  1  0.71341414  0.49094152  0.35904395  1
  Ta  Ta112  1  0.90587036  0.91386863  0.37921850  1
  Ta  Ta113  1  0.50124413  0.89266276  0.87119117  1
  Ta  Ta114  1  0.80203019  0.20209094  0.23910768  1
  Ta  Ta115  1  0.10585819  0.09673881  0.60557914  1
  Ta  Ta116  1  0.80252514  0.60829045  0.74609133  1
  Ta  Ta117  1  0.68151396  0.30363322  0.35924371  1
  Ta  Ta118  1  0.60926743  0.00744203  0.49570640  1
  Ta  Ta119  1  0.20912376  0.60336741  -0.00664715  1
  Ti  Ti120  1  0.29967040  0.08838882  0.61432648  1
  Ti  Ti121  1  0.10759705  0.90516475  0.61411910  1
  Ti  Ti122  1  0.92112436  0.50716796  0.39021446  1
  Ti  Ti123  1  0.70022048  0.30929305  0.64702616  1
  Ti  Ti124  1  0.90493592  0.90126243  0.61811892  1
  Ti  Ti125  1  0.89953177  0.48912061  0.62751805  1
  Ti  Ti126  1  0.40725336  0.19321071  0.51027731  1
  Ti  Ti127  1  0.58621216  0.20359368  0.01240809  1
  Ti  Ti128  1  0.81109001  0.01972813  0.50329945  1
  Ti  Ti129  1  0.50042271  0.48265235  0.13631037  1
  Ti  Ti130  1  0.10222531  0.89650460  0.38393205  1
  Ti  Ti131  1  0.36806776  0.38670913  0.73731633  1
  Ti  Ti132  1  0.39331730  0.80335667  0.26417826  1
  Ti  Ti133  1  0.70559064  0.91722461  0.38143948  1
  Ti  Ti134  1  0.89682064  0.89933129  0.87175709  1
  Ti  Ti135  1  0.19437948  0.80558298  0.49203949  1
  Ti  Ti136  1  0.31107855  0.69808654  0.87291791  1
  Ti  Ti137  1  0.80553587  0.00594261  0.74382644  1
  Ti  Ti138  1  -0.00389338  0.21836461  -0.00099429  1
  Ti  Ti139  1  0.89450487  0.89813187  0.13053950  1
  Ti  Ti140  1  0.50642365  0.68403192  0.88229194  1
  Ti  Ti141  1  0.48473750  0.30441388  0.87286108  1
  Ti  Ti142  1  0.10416961  0.69057334  0.87419999  1
  Ti  Ti143  1  0.09857501  0.11703932  0.87829016  1
  Ti  Ti144  1  0.30895909  0.89639322  0.39019590  1
  Ti  Ti145  1  0.81218288  0.00704287  0.24753836  1
  Ti  Ti146  1  0.48718389  0.50387104  0.61281075  1
  Ti  Ti147  1  0.09676933  0.09861229  0.39503095  1
  Ti  Ti148  1  0.81234030  0.40778210  -0.00168196  1
  Ti  Ti149  1  0.72059870  0.50491676  0.13798321  1
  Ti  Ti150  1  0.59889406  -0.00610160  0.74973589  1
  Ti  Ti151  1  0.09986033  0.50999683  0.12868336  1
  Ti  Ti152  1  0.61267488  0.21180135  0.50655592  1
  Ti  Ti153  1  0.80280408  0.59676812  0.00308019  1
  Ti  Ti154  1  0.48613222  0.69382609  0.37919080  1
  Ti  Ti155  1  -0.02447429  0.19401129  0.50356822  1
  Ti  Ti156  1  0.40787739  -0.00828218  0.25095072  1
  Ti  Ti157  1  0.60264181  0.59910962  0.47298312  1
  Ti  Ti158  1  0.29678362  0.08745674  0.12994366  1
  Ti  Ti159  1  0.09307519  0.49989482  0.60125770  1
  Mo  Mo160  1  0.90402719  0.10063955  0.38101119  1
  Mo  Mo161  1  0.79933709  0.19757969  0.75327883  1
  Mo  Mo162  1  0.00048490  0.39635326  0.73646597  1
  Mo  Mo163  1  0.89893975  0.10738371  0.12194337  1
  Mo  Mo164  1  0.49195639  0.91018443  0.38459764  1
  Mo  Mo165  1  0.40083843  -0.01799640  0.74875633  1
  Mo  Mo166  1  0.59715469  0.39995740  0.24406369  1
  Mo  Mo167  1  0.70066010  0.69547776  0.37515027  1
  Mo  Mo168  1  0.29024592  0.51041720  0.12263955  1
  Mo  Mo169  1  -0.00920238  0.59785999  0.51183853  1
  Mo  Mo170  1  0.89650674  0.50480721  0.12390582  1
  Mo  Mo171  1  0.39657170  0.39650143  0.24182865  1
  Mo  Mo172  1  0.00854264  0.60205470  0.25291913  1
  Mo  Mo173  1  0.89938271  0.09280558  0.62134257  1
  Mo  Mo174  1  -0.01184983  0.39142196  -0.00190443  1
  Mo  Mo175  1  0.59980968  0.60574135  0.75169544  1
  Mo  Mo176  1  0.29465374  0.28949705  0.62300917  1
  Mo  Mo177  1  0.31120561  0.89602036  0.86913870  1
  Mo  Mo178  1  0.40960843  0.00170198  0.49679510  1
  Mo  Mo179  1  0.80218222  0.40448696  0.25396784  1
  Mo  Mo180  1  0.18626640  0.40784411  0.74696179  1
  Mo  Mo181  1  0.18238775  0.60341179  0.25744901  1
  Mo  Mo182  1  0.50546424  0.29005046  0.37287210  1
  Mo  Mo183  1  0.49980569  0.50643507  0.89353989  1
  Mo  Mo184  1  0.78726581  0.20637282  0.50423821  1
  Mo  Mo185  1  0.19605027  0.39496643  0.49557503  1
  Mo  Mo186  1  0.19847282  0.59748948  0.51077358  1
  Mo  Mo187  1  0.40790940  0.58627171  0.49149947  1
  Mo  Mo188  1  0.49401857  0.09102778  0.12617994  1
  Mo  Mo189  1  0.49908781  0.29800119  0.11900836  1
  Mo  Mo190  1  0.70436863  0.89632750  0.12658918  1
  Mo  Mo191  1  0.10221283  0.50505211  0.39471698  1
  Mo  Mo192  1  0.20166515  0.00834308  0.73681316  1
  Mo  Mo193  1  0.40884340  0.79867760  0.48222692  1
  Mo  Mo194  1  0.00206127  0.80745130  0.49381837  1
  Mo  Mo195  1  0.79854882  0.40219191  0.74215489  1
  Mo  Mo196  1  0.19691791  0.00108226  0.48840913  1
  Mo  Mo197  1  0.10662592  0.49796909  0.86761189  1
  Mo  Mo198  1  0.90382076  0.70046150  0.38133908  1
  Mo  Mo199  1  -0.01741591  0.40141203  0.50349493  1
