# generated using pymatgen
data_HfZrTaTiMo
_symmetry_space_group_name_H-M   'P 1'
_cell_length_a   15.19010681
_cell_length_b   15.19066270
_cell_length_c   16.81182717
_cell_angle_alpha   90.01892977
_cell_angle_beta   89.97468121
_cell_angle_gamma   89.92824444
_symmetry_Int_Tables_number   1
_chemical_formula_structural   HfZrTaTiMo
_chemical_formula_sum   'Hf40 Zr40 Ta40 Ti40 Mo40'
_cell_volume   3879.28831168
_cell_formula_units_Z   40
loop_
 _symmetry_equiv_pos_site_id
 _symmetry_equiv_pos_as_xyz
  1  'x, y, z'
loop_
 _atom_site_type_symbol
 _atom_site_label
 _atom_site_symmetry_multiplicity
 _atom_site_fract_x
 _atom_site_fract_y
 _atom_site_fract_z
 _atom_site_occupancy
  Hf  Hf0  1  0.30459390  0.28304775  0.13146663  1
  Hf  Hf1  1  0.69599362  0.10778900  0.86696702  1
  Hf  Hf2  1  0.80363279  0.01123933  0.25634021  1
  Hf  Hf3  1  0.91734772  0.90882189  0.37564838  1
  Hf  Hf4  1  -0.02156628  0.58781479  0.49949625  1
  Hf  Hf5  1  0.48537433  0.10351354  0.37322795  1
  Hf  Hf6  1  0.48791126  0.08688953  0.11763279  1
  Hf  Hf7  1  0.79432835  0.78515613  0.75758395  1
  Hf  Hf8  1  0.49463052  0.89950019  0.63074866  1
  Hf  Hf9  1  0.29631038  0.09919619  0.63612594  1
  Hf  Hf10  1  0.89006077  0.91528060  0.11905794  1
  Hf  Hf11  1  0.42352609  0.58790364  0.01398031  1
  Hf  Hf12  1  0.00633373  0.38772539  0.48644066  1
  Hf  Hf13  1  0.10558544  0.07094011  0.37886150  1
  Hf  Hf14  1  0.91232464  0.49329318  0.88575844  1
  Hf  Hf15  1  0.90091905  0.09823133  0.85851037  1
  Hf  Hf16  1  0.32940834  0.29167301  0.35487552  1
  Hf  Hf17  1  0.39707751  0.59581191  0.49562893  1
  Hf  Hf18  1  0.29787518  0.69679734  0.63343481  1
  Hf  Hf19  1  0.59088707  0.60286062  0.23818362  1
  Hf  Hf20  1  0.49847883  0.48154828  0.37506944  1
  Hf  Hf21  1  0.79966236  0.58700282  0.23895883  1
  Hf  Hf22  1  0.60386118  0.00154805  0.49264729  1
  Hf  Hf23  1  0.90539115  0.88925757  0.63795787  1
  Hf  Hf24  1  0.40493197  0.81013574  0.24036500  1
  Hf  Hf25  1  0.49494425  0.31288865  0.60859345  1
  Hf  Hf26  1  0.38852869  0.80009113  0.50242693  1
  Hf  Hf27  1  0.32477720  0.90799137  0.09571353  1
  Hf  Hf28  1  0.60529217  0.40977335  0.76691766  1
  Hf  Hf29  1  0.30499116  0.50688813  0.35123851  1
  Hf  Hf30  1  0.87458789  0.70611638  0.37066240  1
  Hf  Hf31  1  0.21399349  0.39495318  0.47659764  1
  Hf  Hf32  1  0.29690818  0.71017616  0.36675012  1
  Hf  Hf33  1  0.40316826  0.19674169  0.76323407  1
  Hf  Hf34  1  0.90317949  0.30403474  0.62357410  1
  Hf  Hf35  1  0.18928716  0.39617267  0.25394154  1
  Hf  Hf36  1  0.81806909  0.00761395  0.49814861  1
  Hf  Hf37  1  0.09791490  0.10915101  0.88330009  1
  Hf  Hf38  1  0.19357684  0.18901823  0.25196497  1
  Hf  Hf39  1  0.40106726  0.79169955  0.76767794  1
  Zr  Zr40  1  0.59667863  0.20131744  0.25665015  1
  Zr  Zr41  1  0.28819770  0.90186064  0.63569160  1
  Zr  Zr42  1  0.10175064  0.48425913  0.62311712  1
  Zr  Zr43  1  0.70160382  0.31155801  0.61355300  1
  Zr  Zr44  1  0.18552079  0.80046743  0.76648863  1
  Zr  Zr45  1  0.49212902  0.89646017  0.37904438  1
  Zr  Zr46  1  -0.02745845  0.39583342  0.25991105  1
  Zr  Zr47  1  0.70702684  0.50776939  0.37509322  1
  Zr  Zr48  1  0.09702750  0.10211908  0.10618930  1
  Zr  Zr49  1  -0.00656883  0.80469327  0.23645988  1
  Zr  Zr50  1  0.70696142  0.10529834  0.62919520  1
  Zr  Zr51  1  0.70051537  0.90373599  0.63407210  1
  Zr  Zr52  1  0.19868371  0.80451770  0.23751476  1
  Zr  Zr53  1  0.29949602  0.49220031  0.88939543  1
  Zr  Zr54  1  0.20015649  0.58745982  0.76057160  1
  Zr  Zr55  1  0.08504666  0.71723953  0.62640071  1
  Zr  Zr56  1  0.09161890  0.71014767  0.37572101  1
  Zr  Zr57  1  0.30857939  0.49377637  0.63044464  1
  Zr  Zr58  1  -0.01026513  0.59910550  0.74595168  1
  Zr  Zr59  1  0.29262435  0.30331268  0.63294971  1
  Zr  Zr60  1  0.09323156  0.68845318  0.89304509  1
  Zr  Zr61  1  0.59620157  0.21351887  0.74995643  1
  Zr  Zr62  1  0.71460223  0.50979462  0.62041280  1
  Zr  Zr63  1  0.49784286  0.10030047  0.61935705  1
  Zr  Zr64  1  -0.00093668  0.59860881  0.24410566  1
  Zr  Zr65  1  0.10865233  0.90102409  0.09557524  1
  Zr  Zr66  1  -0.02358663  0.79483457  0.00190680  1
  Zr  Zr67  1  0.60654697  0.79234314  0.49352559  1
  Zr  Zr68  1  0.09208994  0.90800554  0.89371351  1
  Zr  Zr69  1  0.69994735  0.10467774  0.12686816  1
  Zr  Zr70  1  0.61424401  0.39587258  0.23970118  1
  Zr  Zr71  1  0.09112770  0.31272912  0.88206314  1
  Zr  Zr72  1  0.19815027  0.19120928  0.49206589  1
  Zr  Zr73  1  0.60723392  0.61039156  0.76592433  1
  Zr  Zr74  1  0.68750632  0.71328986  0.11407225  1
  Zr  Zr75  1  0.00938831  0.01270764  0.24013503  1
  Zr  Zr76  1  0.19279687  0.60585479  0.49701321  1
  Zr  Zr77  1  0.50979391  0.50330113  0.62236427  1
  Zr  Zr78  1  0.29228769  0.29802953  0.88031575  1
  Zr  Zr79  1  0.22856447  0.00223605  0.23175685  1
  Ta  Ta80  1  0.20379477  0.59058802  0.01707854  1
  Ta  Ta81  1  0.30203808  0.49146568  0.13095761  1
  Ta  Ta82  1  0.50519693  0.89941921  0.88402009  1
  Ta  Ta83  1  -0.01731015  0.20307423  0.00307031  1
  Ta  Ta84  1  0.71279347  0.89310142  0.37543024  1
  Ta  Ta85  1  0.40089916  0.38970445  0.01407382  1
  Ta  Ta86  1  0.59876266  -0.00996373  0.25657610  1
  Ta  Ta87  1  0.60698590  0.00446256  -0.00872752  1
  Ta  Ta88  1  0.70635418  0.50793260  0.89459416  1
  Ta  Ta89  1  0.40830840  0.40072861  0.76347823  1
  Ta  Ta90  1  0.30575661  0.70675828  0.10728774  1
  Ta  Ta91  1  0.41175579  0.59613138  0.76880931  1
  Ta  Ta92  1  0.80653513  0.60836764  0.00364732  1
  Ta  Ta93  1  0.89529211  0.90141693  0.86309944  1
  Ta  Ta94  1  0.70073267  0.90502992  0.86668300  1
  Ta  Ta95  1  0.80289550  0.21405325  0.75263534  1
  Ta  Ta96  1  0.09435265  0.48962669  0.12278556  1
  Ta  Ta97  1  0.80375068  0.00490154  -0.00759921  1
  Ta  Ta98  1  0.09957829  0.69679240  0.11168721  1
  Ta  Ta99  1  0.20039099  0.60395351  0.23021635  1
  Ta  Ta100  1  0.81576870  0.41269031  0.49191561  1
  Ta  Ta101  1  0.30008069  0.89671647  0.89078465  1
  Ta  Ta102  1  0.90459860  0.09642044  0.64139241  1
  Ta  Ta103  1  0.09005212  0.29933726  0.12485809  1
  Ta  Ta104  1  0.49943170  0.69838557  0.62982283  1
  Ta  Ta105  1  0.79654279  0.19909249  -0.00494145  1
  Ta  Ta106  1  0.39869943  -0.00174310  0.77321279  1
  Ta  Ta107  1  0.60501733  0.20501943  0.48812720  1
  Ta  Ta108  1  0.30437211  0.69607782  0.89889228  1
  Ta  Ta109  1  -0.01187330  0.18066809  0.50342455  1
  Ta  Ta110  1  0.71440139  0.10886891  0.37769225  1
  Ta  Ta111  1  0.50303943  0.29651942  0.89543084  1
  Ta  Ta112  1  0.69204722  0.70370347  0.62489444  1
  Ta  Ta113  1  0.59710298  0.60383936  0.49336996  1
  Ta  Ta114  1  0.59592039  0.40871840  0.00276852  1
  Ta  Ta115  1  0.70736265  0.49846045  0.10930640  1
  Ta  Ta116  1  0.28724127  0.91765128  0.37894429  1
  Ta  Ta117  1  0.07664423  0.27364703  0.36586052  1
  Ta  Ta118  1  0.80778436  0.40570370  0.75820348  1
  Ta  Ta119  1  0.01969620  -0.01254038  0.51518090  1
  Ti  Ti120  1  0.50835393  0.28238298  0.10761332  1
  Ti  Ti121  1  0.19231908  0.20361611  0.75481061  1
  Ti  Ti122  1  0.20149903  0.00485220  0.76559371  1
  Ti  Ti123  1  0.00294857  0.20413346  0.74507573  1
  Ti  Ti124  1  0.38311641  0.00667552  0.50147219  1
  Ti  Ti125  1  0.79818547  0.59182267  0.75735543  1
  Ti  Ti126  1  0.00580492  0.39970180  0.74700449  1
  Ti  Ti127  1  0.17985588  0.82634516  0.50185862  1
  Ti  Ti128  1  0.59012319  0.00388176  0.75789499  1
  Ti  Ti129  1  0.78757813  0.80556887  0.24419428  1
  Ti  Ti130  1  0.70448724  0.30801321  0.88594328  1
  Ti  Ti131  1  0.10521705  0.49283278  0.89747347  1
  Ti  Ti132  1  0.39603557  0.20688129  0.49689021  1
  Ti  Ti133  1  0.88252814  0.69091173  0.62385454  1
  Ti  Ti134  1  0.89902129  0.29905562  0.87382611  1
  Ti  Ti135  1  0.10284894  0.29019686  0.62389676  1
  Ti  Ti136  1  0.89302170  0.69512557  0.87758015  1
  Ti  Ti137  1  0.70609677  0.30703435  0.38334167  1
  Ti  Ti138  1  0.01163940  -0.01046995  0.74666488  1
  Ti  Ti139  1  0.59468218  0.79931127  0.75868215  1
  Ti  Ti140  1  0.22101942  0.02007062  -0.00843473  1
  Ti  Ti141  1  0.78806053  0.61939533  0.49541104  1
  Ti  Ti142  1  0.78630804  0.80901079  -0.01007482  1
  Ti  Ti143  1  0.09575495  0.50375107  0.36829897  1
  Ti  Ti144  1  0.20444547  0.20863907  0.00286995  1
  Ti  Ti145  1  0.10175447  0.09375228  0.63038041  1
  Ti  Ti146  1  0.89407729  0.30044657  0.12521548  1
  Ti  Ti147  1  0.89080819  0.69990852  0.12565958  1
  Ti  Ti148  1  0.81064027  0.39723573  0.00193325  1
  Ti  Ti149  1  0.69467174  0.90992915  0.12180286  1
  Ti  Ti150  1  0.59941320  0.80151644  0.25432791  1
  Ti  Ti151  1  0.81230717  0.21271204  0.25490483  1
  Ti  Ti152  1  0.70516864  0.29986948  0.11553500  1
  Ti  Ti153  1  -0.00617510  0.58725390  0.01665883  1
  Ti  Ti154  1  0.51461158  0.88790651  0.10602987  1
  Ti  Ti155  1  0.51428227  0.69716852  0.89544719  1
  Ti  Ti156  1  0.40212682  0.60552868  0.22743828  1
  Ti  Ti157  1  0.42195887  0.39106544  0.22923344  1
  Ti  Ti158  1  -0.01584693  0.79747174  0.50067483  1
  Ti  Ti159  1  0.49702947  0.69182760  0.36923925  1
  Mo  Mo160  1  0.51209108  0.29871194  0.38453875  1
  Mo  Mo161  1  0.29216834  0.09981911  0.86723713  1
  Mo  Mo162  1  0.40860268  0.00487198  -0.02255999  1
  Mo  Mo163  1  0.39752969  0.19102355  -0.00951934  1
  Mo  Mo164  1  0.80194339  0.80101160  0.50368648  1
  Mo  Mo165  1  0.91235785  0.11273129  0.37719164  1
  Mo  Mo166  1  0.20310731  -0.00146894  0.50976444  1
  Mo  Mo167  1  -0.00977133  0.79450500  0.76279696  1
  Mo  Mo168  1  0.49778027  0.70799611  0.11929961  1
  Mo  Mo169  1  0.89571174  0.49630442  0.62830634  1
  Mo  Mo170  1  0.79938747  0.00174862  0.75113258  1
  Mo  Mo171  1  0.60795082  0.81022237  -0.00818293  1
  Mo  Mo172  1  0.09676980  0.90640072  0.63832089  1
  Mo  Mo173  1  0.50523772  0.49089770  0.12673159  1
  Mo  Mo174  1  0.88570245  0.28644602  0.38200532  1
  Mo  Mo175  1  0.41062098  0.79555548  -0.01143790  1
  Mo  Mo176  1  0.60683538  0.40308252  0.49247140  1
  Mo  Mo177  1  0.30458576  0.10133903  0.11260968  1
  Mo  Mo178  1  0.19672973  0.39290786  0.75083169  1
  Mo  Mo179  1  0.41334251  -0.00333564  0.24506265  1
  Mo  Mo180  1  0.39941233  0.18297253  0.24397456  1
  Mo  Mo181  1  0.60989382  0.60077650  -0.00031528  1
  Mo  Mo182  1  0.68905459  0.70704166  0.36440010  1
  Mo  Mo183  1  0.39795342  0.39621993  0.49176654  1
  Mo  Mo184  1  0.89543585  0.49310687  0.11403193  1
  Mo  Mo185  1  0.89883153  0.50007933  0.37617526  1
  Mo  Mo186  1  0.50204291  0.10138258  0.88374544  1
  Mo  Mo187  1  0.50265793  0.49232558  0.88114674  1
  Mo  Mo188  1  0.19922161  0.39757172  0.02061418  1
  Mo  Mo189  1  0.10360056  0.88957596  0.37556724  1
  Mo  Mo190  1  -0.00642646  0.19813661  0.24281053  1
  Mo  Mo191  1  0.88912069  0.11456726  0.11941022  1
  Mo  Mo192  1  0.60520320  0.20503064  -0.00032418  1
  Mo  Mo193  1  0.20159095  0.79591849  -0.00121214  1
  Mo  Mo194  1  -0.00495590  0.39396546  0.00983155  1
  Mo  Mo195  1  0.70483023  0.70443036  0.88721405  1
  Mo  Mo196  1  -0.01770196  0.01162206  -0.00483911  1
  Mo  Mo197  1  0.30482031  0.09603383  0.37722870  1
  Mo  Mo198  1  0.80330298  0.20245470  0.49869010  1
  Mo  Mo199  1  0.79267860  0.39230088  0.24327111  1
