# generated using pymatgen
data_HfZrTaTiMo
_symmetry_space_group_name_H-M   'P 1'
_cell_length_a   15.20182547
_cell_length_b   15.20366423
_cell_length_c   16.83026225
_cell_angle_alpha   89.97192423
_cell_angle_beta   90.00199104
_cell_angle_gamma   90.02696888
_symmetry_Int_Tables_number   1
_chemical_formula_structural   HfZrTaTiMo
_chemical_formula_sum   'Hf40 Zr40 Ta40 Ti40 Mo40'
_cell_volume   3889.86737760
_cell_formula_units_Z   40
loop_
 _symmetry_equiv_pos_site_id
 _symmetry_equiv_pos_as_xyz
  1  'x, y, z'
loop_
 _atom_site_type_symbol
 _atom_site_label
 _atom_site_symmetry_multiplicity
 _atom_site_fract_x
 _atom_site_fract_y
 _atom_site_fract_z
 _atom_site_occupancy
  Hf  Hf0  1  0.00997291  0.40390446  0.24937057  1
  Hf  Hf1  1  -0.00998501  0.79765426  -0.00706135  1
  Hf  Hf2  1  0.81072550  0.40672350  -0.00346297  1
  Hf  Hf3  1  -0.00821350  0.58140810  0.00069136  1
  Hf  Hf4  1  -0.00297744  0.59306549  0.76085113  1
  Hf  Hf5  1  0.69580232  0.11496331  0.62732643  1
  Hf  Hf6  1  0.90716134  0.30506625  0.63643113  1
  Hf  Hf7  1  0.00591677  0.20232301  0.25281526  1
  Hf  Hf8  1  0.22353374  0.37944686  0.74235687  1
  Hf  Hf9  1  0.20853458  0.20519345  0.26399161  1
  Hf  Hf10  1  0.81227010  0.58862955  0.24702084  1
  Hf  Hf11  1  0.46782298  0.91558438  0.63207134  1
  Hf  Hf12  1  0.00090217  -0.00157627  0.52153040  1
  Hf  Hf13  1  -0.00146514  0.79090366  0.50688859  1
  Hf  Hf14  1  0.30811236  0.68547119  0.11390771  1
  Hf  Hf15  1  0.22065505  0.19472441  0.49795368  1
  Hf  Hf16  1  0.50247380  0.70716134  0.12525830  1
  Hf  Hf17  1  0.21948563  0.59159205  0.74691204  1
  Hf  Hf18  1  0.19452361  0.77590419  0.25094179  1
  Hf  Hf19  1  -0.00543640  0.79665392  0.76023086  1
  Hf  Hf20  1  0.89720673  0.10923010  0.37874850  1
  Hf  Hf21  1  0.32352661  0.09612602  0.63043057  1
  Hf  Hf22  1  0.70992327  0.28696064  0.12389080  1
  Hf  Hf23  1  0.89084460  0.11978355  0.12360377  1
  Hf  Hf24  1  0.40382764  0.40442352  0.50185220  1
  Hf  Hf25  1  0.80076524  0.60306404  0.49727017  1
  Hf  Hf26  1  0.31803288  0.48811081  0.88407068  1
  Hf  Hf27  1  0.29308431  0.90832233  0.36709790  1
  Hf  Hf28  1  0.50149752  0.29529352  0.62023100  1
  Hf  Hf29  1  0.59460609  0.80473109  0.74138822  1
  Hf  Hf30  1  0.49527184  0.10548234  0.38326295  1
  Hf  Hf31  1  0.28950231  0.09285722  0.86569638  1
  Hf  Hf32  1  0.70404561  0.69121976  0.63589273  1
  Hf  Hf33  1  0.18971213  0.00740878  0.23904103  1
  Hf  Hf34  1  0.69310470  0.71015072  0.35805843  1
  Hf  Hf35  1  0.90491031  0.70674726  0.36545110  1
  Hf  Hf36  1  0.40090196  0.21577750  0.25629815  1
  Hf  Hf37  1  0.92247740  0.50338912  0.38516746  1
  Hf  Hf38  1  0.71119279  0.29266871  0.37280486  1
  Hf  Hf39  1  0.89247729  0.90694100  0.36164427  1
  Zr  Zr40  1  0.78627142  0.02454419  0.24197065  1
  Zr  Zr41  1  0.69447534  0.70160964  0.13696506  1
  Zr  Zr42  1  0.79456414  0.00783057  -0.00590651  1
  Zr  Zr43  1  0.50464514  0.90024833  0.36850315  1
  Zr  Zr44  1  0.60721662  0.19230091  0.24523600  1
  Zr  Zr45  1  0.59651030  0.79671942  0.51192654  1
  Zr  Zr46  1  0.48314673  0.68864225  0.63514367  1
  Zr  Zr47  1  0.39050813  0.60201855  0.49391139  1
  Zr  Zr48  1  0.38437227  0.80826354  0.49413305  1
  Zr  Zr49  1  0.10999296  0.90855972  0.87638980  1
  Zr  Zr50  1  0.09087992  0.88705750  0.37246062  1
  Zr  Zr51  1  0.68048865  0.30868322  0.87651232  1
  Zr  Zr52  1  0.18792742  0.58975190  0.51511026  1
  Zr  Zr53  1  0.69379042  0.89259025  0.13367437  1
  Zr  Zr54  1  0.80215181  0.20778195  0.76062992  1
  Zr  Zr55  1  0.80363633  0.20462046  -0.02318783  1
  Zr  Zr56  1  0.48783018  0.51107408  0.11108920  1
  Zr  Zr57  1  0.50476459  0.11355085  0.87662623  1
  Zr  Zr58  1  0.78107430  0.41555894  0.74289092  1
  Zr  Zr59  1  0.10278210  0.08972098  0.38440098  1
  Zr  Zr60  1  0.90084309  0.90772695  0.87062953  1
  Zr  Zr61  1  0.09433658  0.28071646  0.85714803  1
  Zr  Zr62  1  0.38936948  0.00088204  -0.00175410  1
  Zr  Zr63  1  0.49589995  0.89874371  0.13177907  1
  Zr  Zr64  1  0.59133937  -0.00091576  0.51547819  1
  Zr  Zr65  1  0.79272094  0.80685843  0.50238311  1
  Zr  Zr66  1  0.09470066  0.89162672  0.11840361  1
  Zr  Zr67  1  0.01509243  0.40688584  0.51197378  1
  Zr  Zr68  1  0.30160555  0.89230395  0.13097238  1
  Zr  Zr69  1  0.01899765  0.59863287  0.23222492  1
  Zr  Zr70  1  0.79675352  -0.00118991  0.51286626  1
  Zr  Zr71  1  0.80203386  0.00741041  0.74732400  1
  Zr  Zr72  1  0.89544101  0.70422323  0.12328783  1
  Zr  Zr73  1  0.70261407  0.49254741  0.36761398  1
  Zr  Zr74  1  0.70128347  0.50058969  0.12486055  1
  Zr  Zr75  1  0.59741477  -0.00269179  -0.00228958  1
  Zr  Zr76  1  0.39599770  0.41853114  0.25729618  1
  Zr  Zr77  1  0.10268225  0.69113464  0.88248870  1
  Zr  Zr78  1  0.39257356  0.22003143  0.75744478  1
  Zr  Zr79  1  0.10472352  0.48000925  0.87140599  1
  Ta  Ta80  1  0.39724801  0.78521279  0.26083398  1
  Ta  Ta81  1  0.50223689  0.69753617  0.86899731  1
  Ta  Ta82  1  0.39375495  0.01683804  0.24728962  1
  Ta  Ta83  1  0.41761999  0.42727518  0.73713136  1
  Ta  Ta84  1  0.49613857  0.30321802  0.11683783  1
  Ta  Ta85  1  0.00771821  0.19952212  0.51339470  1
  Ta  Ta86  1  0.10942032  0.29095222  0.12074667  1
  Ta  Ta87  1  0.89123560  0.90311268  0.12384346  1
  Ta  Ta88  1  0.10083123  0.67167172  0.37952354  1
  Ta  Ta89  1  0.80044078  0.40011759  0.51242202  1
  Ta  Ta90  1  0.30937101  0.69816564  0.87900347  1
  Ta  Ta91  1  0.50714057  0.31211071  0.38257021  1
  Ta  Ta92  1  0.80699491  0.20645368  0.51071815  1
  Ta  Ta93  1  0.50803752  0.50433604  0.88673531  1
  Ta  Ta94  1  0.21113553  0.58059343  0.24632235  1
  Ta  Ta95  1  0.61024316  0.40467970  0.50692059  1
  Ta  Ta96  1  0.09449305  0.69346669  0.63461903  1
  Ta  Ta97  1  0.69911797  0.09890360  0.38616779  1
  Ta  Ta98  1  0.90826780  0.30347229  0.38549581  1
  Ta  Ta99  1  0.21289790  0.39562460  0.51868400  1
  Ta  Ta100  1  0.19330731  0.18854448  -0.00186636  1
  Ta  Ta101  1  0.59812846  0.40125744  0.00624493  1
  Ta  Ta102  1  0.11233074  0.48344562  0.11099612  1
  Ta  Ta103  1  0.79960384  0.60660564  -0.01167867  1
  Ta  Ta104  1  0.20139545  0.79723529  0.75569758  1
  Ta  Ta105  1  0.57569688  0.59238797  0.25808647  1
  Ta  Ta106  1  0.59711140  0.57636120  0.74969341  1
  Ta  Ta107  1  0.59043408  0.01203691  0.74366778  1
  Ta  Ta108  1  0.90039061  0.70011789  0.63261967  1
  Ta  Ta109  1  0.59610412  0.59324565  0.49653557  1
  Ta  Ta110  1  0.09536737  0.08998553  0.86538931  1
  Ta  Ta111  1  0.89326842  0.89288073  0.64190449  1
  Ta  Ta112  1  0.29663427  0.11345170  0.12304571  1
  Ta  Ta113  1  0.21368123  0.80044584  -0.00749579  1
  Ta  Ta114  1  0.59478471  0.39555017  0.24442658  1
  Ta  Ta115  1  0.89919390  0.51284295  0.62824641  1
  Ta  Ta116  1  0.68965581  0.90397247  0.86273626  1
  Ta  Ta117  1  0.78162843  0.79936145  -0.01195210  1
  Ta  Ta118  1  0.00257145  0.01551530  0.00880166  1
  Ta  Ta119  1  0.21009279  -0.01464768  0.51422335  1
  Ti  Ti120  1  0.69657491  0.90555066  0.36187189  1
  Ti  Ti121  1  0.59986776  0.21234836  0.74792916  1
  Ti  Ti122  1  0.10235796  0.88887992  0.63334872  1
  Ti  Ti123  1  -0.00298212  0.80038941  0.23988459  1
  Ti  Ti124  1  0.60457072  0.61748435  -0.00510650  1
  Ti  Ti125  1  0.00492218  0.17399684  0.73071860  1
  Ti  Ti126  1  0.20201900  0.39472404  0.25130168  1
  Ti  Ti127  1  0.89839682  0.48550691  0.86605174  1
  Ti  Ti128  1  0.20569814  0.37949577  -0.00827441  1
  Ti  Ti129  1  0.10971974  0.31069242  0.38726097  1
  Ti  Ti130  1  0.28755076  0.50025909  0.37867624  1
  Ti  Ti131  1  0.11092579  0.69036581  0.10793124  1
  Ti  Ti132  1  0.49209686  0.69265056  0.37404764  1
  Ti  Ti133  1  0.60278813  0.20674767  0.50207615  1
  Ti  Ti134  1  0.41132208  0.79920664  -0.01135602  1
  Ti  Ti135  1  0.59147535  0.00608881  0.24530906  1
  Ti  Ti136  1  0.69546023  0.70526998  0.86584244  1
  Ti  Ti137  1  0.20663032  0.58997701  -0.00659464  1
  Ti  Ti138  1  0.38487248  0.80635551  0.75843655  1
  Ti  Ti139  1  0.91108471  0.31249208  0.12409052  1
  Ti  Ti140  1  0.20478038  -0.00676702  0.73607688  1
  Ti  Ti141  1  0.29815839  0.49189763  0.11131655  1
  Ti  Ti142  1  0.60018612  0.19845721  0.00321660  1
  Ti  Ti143  1  0.00383884  0.38559389  -0.00431443  1
  Ti  Ti144  1  0.09812386  0.48865083  0.64462996  1
  Ti  Ti145  1  0.49656059  0.10814769  0.12071602  1
  Ti  Ti146  1  0.19420614  0.79102187  0.50003061  1
  Ti  Ti147  1  0.81117783  0.38951952  0.24619995  1
  Ti  Ti148  1  0.48342560  0.32096778  0.88314206  1
  Ti  Ti149  1  -0.00461002  0.00345191  0.23409335  1
  Ti  Ti150  1  0.29189620  0.71007848  0.63093210  1
  Ti  Ti151  1  0.30063471  0.30490554  0.11970998  1
  Ti  Ti152  1  0.80174050  0.61072565  0.76437387  1
  Ti  Ti153  1  0.00271987  0.20092410  -0.00308123  1
  Ti  Ti154  1  0.49189646  0.90193583  0.86576693  1
  Ti  Ti155  1  0.38997623  0.20995107  -0.00400773  1
  Ti  Ti156  1  0.69324652  0.50762750  0.88153535  1
  Ti  Ti157  1  0.91493520  0.10711983  0.87008831  1
  Ti  Ti158  1  0.19491632  0.00206184  0.00902572  1
  Ti  Ti159  1  0.11370728  0.28353014  0.63467212  1
  Mo  Mo160  1  0.91239693  0.30492324  0.85876093  1
  Mo  Mo161  1  0.30516316  0.30183810  0.62136059  1
  Mo  Mo162  1  0.30926838  0.50786431  0.62830544  1
  Mo  Mo163  1  0.40896971  0.20473291  0.49181290  1
  Mo  Mo164  1  0.70028143  0.30487309  0.61975521  1
  Mo  Mo165  1  0.59953428  0.79998424  -0.01801340  1
  Mo  Mo166  1  0.68905632  0.10493263  0.12020713  1
  Mo  Mo167  1  0.11221347  0.49002397  0.37620525  1
  Mo  Mo168  1  0.38537010  0.01329158  0.49412002  1
  Mo  Mo169  1  0.19658535  0.18352371  0.73988379  1
  Mo  Mo170  1  0.69593319  0.90011062  0.64573627  1
  Mo  Mo171  1  0.29708552  0.31069282  0.38019311  1
  Mo  Mo172  1  0.30209368  0.89413475  0.87567879  1
  Mo  Mo173  1  0.59143438  0.39741658  0.75092262  1
  Mo  Mo174  1  0.30470607  0.09762951  0.37790344  1
  Mo  Mo175  1  0.51018891  0.50487691  0.62044583  1
  Mo  Mo176  1  0.38659237  0.60496435  0.26065663  1
  Mo  Mo177  1  0.80512978  0.80968751  0.25113775  1
  Mo  Mo178  1  -0.00095515  0.60286677  0.51335595  1
  Mo  Mo179  1  0.81190250  0.21458874  0.25543510  1
  Mo  Mo180  1  0.40333878  0.60674128  -0.00936762  1
  Mo  Mo181  1  -0.00011780  0.39534904  0.74165269  1
  Mo  Mo182  1  0.69168289  0.09976094  0.86362320  1
  Mo  Mo183  1  0.09900132  0.10778462  0.12157962  1
  Mo  Mo184  1  0.50656252  0.50058961  0.37608675  1
  Mo  Mo185  1  0.29709465  0.29122977  0.88471380  1
  Mo  Mo186  1  0.40478377  0.60926745  0.75686050  1
  Mo  Mo187  1  0.90782316  0.48920142  0.11765349  1
  Mo  Mo188  1  0.70055250  0.50445789  0.62137188  1
  Mo  Mo189  1  0.01006741  -0.00122096  0.73257542  1
  Mo  Mo190  1  0.79391221  0.79658456  0.75815348  1
  Mo  Mo191  1  0.50217501  0.10855384  0.62672932  1
  Mo  Mo192  1  0.90521440  0.10308760  0.62076591  1
  Mo  Mo193  1  0.28575710  0.69722827  0.37472106  1
  Mo  Mo194  1  0.28747778  0.89075575  0.62834187  1
  Mo  Mo195  1  0.59020924  0.79851367  0.25986830  1
  Mo  Mo196  1  0.39942443  -0.00439380  0.76222262  1
  Mo  Mo197  1  0.40029344  0.39584386  0.00348812  1
  Mo  Mo198  1  0.11217817  0.09350545  0.62227486  1
  Mo  Mo199  1  0.88684577  0.69339176  0.87972952  1
