# generated using pymatgen
data_HfZrTaTiMo
_symmetry_space_group_name_H-M   'P 1'
_cell_length_a   15.16336506
_cell_length_b   15.16048607
_cell_length_c   16.83369633
_cell_angle_alpha   90.04387394
_cell_angle_beta   90.02676346
_cell_angle_gamma   89.86933375
_symmetry_Int_Tables_number   1
_chemical_formula_structural   HfZrTaTiMo
_chemical_formula_sum   'Hf40 Zr40 Ta40 Ti40 Mo40'
_cell_volume   3869.78557462
_cell_formula_units_Z   40
loop_
 _symmetry_equiv_pos_site_id
 _symmetry_equiv_pos_as_xyz
  1  'x, y, z'
loop_
 _atom_site_type_symbol
 _atom_site_label
 _atom_site_symmetry_multiplicity
 _atom_site_fract_x
 _atom_site_fract_y
 _atom_site_fract_z
 _atom_site_occupancy
  Hf  Hf0  1  0.91539439  0.69704517  0.12705277  1
  Hf  Hf1  1  0.18366048  -0.00380440  -0.00156958  1
  Hf  Hf2  1  0.50656393  0.70550943  0.38632530  1
  Hf  Hf3  1  0.11195942  0.51720113  0.64462856  1
  Hf  Hf4  1  0.30792915  0.09229917  0.13028406  1
  Hf  Hf5  1  0.69245767  0.90235196  0.36917957  1
  Hf  Hf6  1  -0.01451342  0.39619561  0.23471989  1
  Hf  Hf7  1  0.39128267  0.59714432  0.49718739  1
  Hf  Hf8  1  0.50707246  0.71424443  0.60561137  1
  Hf  Hf9  1  0.29932347  0.89000665  0.11879606  1
  Hf  Hf10  1  0.08504851  0.30731048  0.37537665  1
  Hf  Hf11  1  -0.00902332  0.19640060  0.24025706  1
  Hf  Hf12  1  0.90249792  0.68168759  0.37054019  1
  Hf  Hf13  1  0.79092970  0.22123821  0.24490748  1
  Hf  Hf14  1  0.31789702  0.48299157  0.86759667  1
  Hf  Hf15  1  0.41198301  0.78509475  0.76399073  1
  Hf  Hf16  1  0.28998916  0.09574378  0.63523691  1
  Hf  Hf17  1  0.10845712  0.90840767  0.38424930  1
  Hf  Hf18  1  0.48992163  0.32282378  0.87766254  1
  Hf  Hf19  1  0.56984860  0.01626270  0.23767493  1
  Hf  Hf20  1  0.52074846  0.49878889  0.38681403  1
  Hf  Hf21  1  0.80492632  0.38352455  0.50312859  1
  Hf  Hf22  1  0.28137031  0.11021192  0.87147249  1
  Hf  Hf23  1  0.49181738  0.90518200  0.37809852  1
  Hf  Hf24  1  0.91445050  0.48454564  0.64430973  1
  Hf  Hf25  1  0.90718261  0.89997739  0.60429348  1
  Hf  Hf26  1  0.67047161  0.30696303  0.11268563  1
  Hf  Hf27  1  0.79313753  0.40479555  -0.00598857  1
  Hf  Hf28  1  0.93103248  0.69745389  0.63643093  1
  Hf  Hf29  1  -0.01185130  -0.01100491  0.74598682  1
  Hf  Hf30  1  0.60404894  0.60135966  0.24223658  1
  Hf  Hf31  1  0.28131091  0.88719900  0.86675287  1
  Hf  Hf32  1  0.41691996  0.18396583  0.25860555  1
  Hf  Hf33  1  0.90496852  0.50681373  0.86741499  1
  Hf  Hf34  1  0.89203568  0.28850562  0.63808208  1
  Hf  Hf35  1  0.39053666  0.21126436  -0.00242558  1
  Hf  Hf36  1  0.61239068  0.80664060  0.74752212  1
  Hf  Hf37  1  0.60477241  0.59661468  0.01172490  1
  Hf  Hf38  1  0.59917806  0.60664468  0.73633582  1
  Hf  Hf39  1  0.71602300  0.91149189  0.88070135  1
  Zr  Zr40  1  0.20008191  0.80504084  0.24666275  1
  Zr  Zr41  1  0.11472245  0.49813522  0.86606153  1
  Zr  Zr42  1  0.01636678  0.36820869  0.76774601  1
  Zr  Zr43  1  0.70147164  0.90984934  0.13172138  1
  Zr  Zr44  1  0.00942364  0.40247109  0.00235347  1
  Zr  Zr45  1  0.09311508  0.09985880  0.38213478  1
  Zr  Zr46  1  0.90117610  0.27980802  0.88410079  1
  Zr  Zr47  1  0.39773921  -0.00188993  -0.01286918  1
  Zr  Zr48  1  0.21615436  0.59058274  0.00407351  1
  Zr  Zr49  1  0.48876717  0.69084616  0.12266249  1
  Zr  Zr50  1  0.42514199  0.39016014  0.26219940  1
  Zr  Zr51  1  0.78925142  0.01403396  0.49120831  1
  Zr  Zr52  1  0.89040505  0.10025612  0.61953499  1
  Zr  Zr53  1  0.09098653  0.30404455  0.60898703  1
  Zr  Zr54  1  -0.00267938  0.18381225  0.02036583  1
  Zr  Zr55  1  -0.00082321  -0.00279741  0.24795834  1
  Zr  Zr56  1  0.69604422  0.70201526  0.87849117  1
  Zr  Zr57  1  0.58123241  0.01989182  0.50254274  1
  Zr  Zr58  1  0.29790705  0.68688641  0.63699657  1
  Zr  Zr59  1  0.20336477  0.19438582  0.49424813  1
  Zr  Zr60  1  0.91181508  0.71155638  0.86976119  1
  Zr  Zr61  1  0.69094075  0.90921787  0.61962028  1
  Zr  Zr62  1  0.50866480  0.90446663  0.87603885  1
  Zr  Zr63  1  0.80008707  0.79819869  0.24743345  1
  Zr  Zr64  1  0.79593484  0.60539851  0.74013452  1
  Zr  Zr65  1  0.22274312  0.80090531  0.50087846  1
  Zr  Zr66  1  0.80206712  0.80210343  0.01075237  1
  Zr  Zr67  1  0.10992744  0.69502693  0.36802772  1
  Zr  Zr68  1  0.08030791  0.10488625  0.87789484  1
  Zr  Zr69  1  0.60161071  0.01804724  0.00940130  1
  Zr  Zr70  1  0.81620968  0.58862367  0.51667092  1
  Zr  Zr71  1  0.40659923  0.18721598  0.48934677  1
  Zr  Zr72  1  0.79271615  0.78694109  0.50245720  1
  Zr  Zr73  1  0.21175163  0.38403236  0.01147920  1
  Zr  Zr74  1  0.71829420  0.50722305  0.37158681  1
  Zr  Zr75  1  0.67527147  0.12016140  0.36219601  1
  Zr  Zr76  1  0.20469215  0.41015000  0.49616504  1
  Zr  Zr77  1  0.38548650  0.21832232  0.75392094  1
  Zr  Zr78  1  0.09760151  0.50449442  0.35735405  1
  Zr  Zr79  1  0.29580063  0.89654719  0.64776631  1
  Ta  Ta80  1  0.39452506  0.78046791  -0.01217064  1
  Ta  Ta81  1  0.80769684  0.60063756  0.00406994  1
  Ta  Ta82  1  0.19942564  0.60097313  0.49836461  1
  Ta  Ta83  1  0.00851700  0.78707122  0.49275312  1
  Ta  Ta84  1  0.29569579  0.68777216  0.13377089  1
  Ta  Ta85  1  0.40773046  0.79657731  0.24757838  1
  Ta  Ta86  1  0.88340330  0.30024376  0.11273570  1
  Ta  Ta87  1  0.81607385  0.81534751  0.74409339  1
  Ta  Ta88  1  0.30389648  0.50371833  0.36100675  1
  Ta  Ta89  1  0.68839489  0.30115321  0.88032280  1
  Ta  Ta90  1  0.37722173  -0.01023194  0.50535091  1
  Ta  Ta91  1  0.10730598  0.51549005  0.13867380  1
  Ta  Ta92  1  0.19986050  0.19585705  0.25239631  1
  Ta  Ta93  1  0.59366651  0.41096724  0.74780686  1
  Ta  Ta94  1  0.88802709  0.10747880  0.37568260  1
  Ta  Ta95  1  -0.02926525  0.21218552  0.48975543  1
  Ta  Ta96  1  0.49810482  0.30422859  0.62151908  1
  Ta  Ta97  1  0.10974644  0.70076026  0.87229039  1
  Ta  Ta98  1  0.49392314  0.10470957  0.63760232  1
  Ta  Ta99  1  0.40769872  0.38931802  0.48533899  1
  Ta  Ta100  1  0.30677905  0.29596282  0.14094319  1
  Ta  Ta101  1  0.79288782  0.19611756  0.75969260  1
  Ta  Ta102  1  0.59675682  0.21034660  0.75283520  1
  Ta  Ta103  1  0.59641076  0.80192891  0.23859538  1
  Ta  Ta104  1  0.59459220  0.80122190  0.01049739  1
  Ta  Ta105  1  0.50907999  0.49454426  0.60691960  1
  Ta  Ta106  1  0.50403460  0.52182926  0.87829374  1
  Ta  Ta107  1  0.29711235  0.07536755  0.36286372  1
  Ta  Ta108  1  0.69484777  0.10627319  0.87462885  1
  Ta  Ta109  1  0.19596850  0.78771800  0.00136827  1
  Ta  Ta110  1  -0.00052889  0.79646873  0.25432537  1
  Ta  Ta111  1  0.88560087  0.07981690  0.87750307  1
  Ta  Ta112  1  0.90526516  0.90027602  0.38385977  1
  Ta  Ta113  1  0.17315304  0.20308839  0.74204238  1
  Ta  Ta114  1  0.69276088  0.30758304  0.63221758  1
  Ta  Ta115  1  0.00733717  0.80682368  0.00357484  1
  Ta  Ta116  1  0.22155102  0.38556486  0.74435456  1
  Ta  Ta117  1  0.69557885  0.70138993  0.37334366  1
  Ta  Ta118  1  0.48848689  0.90885182  0.62703595  1
  Ta  Ta119  1  0.69543569  0.49951495  0.87447574  1
  Ti  Ti120  1  0.30902883  0.69514716  0.36273972  1
  Ti  Ti121  1  0.30350814  0.89286466  0.36878086  1
  Ti  Ti122  1  0.80958695  0.59496447  0.23926992  1
  Ti  Ti123  1  0.30342942  0.29836681  0.61469496  1
  Ti  Ti124  1  0.09848843  0.89736653  0.61205467  1
  Ti  Ti125  1  0.08139365  0.89434866  0.87631294  1
  Ti  Ti126  1  0.90644739  0.90797222  0.12876490  1
  Ti  Ti127  1  0.40009698  0.00295343  0.76125005  1
  Ti  Ti128  1  0.31269065  0.48654133  0.62687637  1
  Ti  Ti129  1  0.18028223  -0.00094846  0.75225422  1
  Ti  Ti130  1  0.29939669  0.29556367  0.36691013  1
  Ti  Ti131  1  0.01428323  0.60804786  0.00076872  1
  Ti  Ti132  1  0.31779495  0.50086905  0.14694753  1
  Ti  Ti133  1  0.50072150  0.11355512  0.86958970  1
  Ti  Ti134  1  0.78847914  0.39557553  0.75982638  1
  Ti  Ti135  1  0.48904140  0.90396721  0.11716463  1
  Ti  Ti136  1  0.17714755  0.78640721  0.74414538  1
  Ti  Ti137  1  0.01216087  0.58446761  0.50281108  1
  Ti  Ti138  1  0.40553855  0.41549969  0.01327473  1
  Ti  Ti139  1  0.78515522  0.19096628  0.00366340  1
  Ti  Ti140  1  0.69161129  0.11919835  0.62830885  1
  Ti  Ti141  1  0.90492526  0.50129095  0.11814943  1
  Ti  Ti142  1  0.20357626  0.39580603  0.24679892  1
  Ti  Ti143  1  0.10505482  0.09064046  0.13031622  1
  Ti  Ti144  1  0.90715391  0.47977280  0.37109219  1
  Ti  Ti145  1  0.59725686  0.01273471  0.74860296  1
  Ti  Ti146  1  0.09699124  0.89338592  0.12550916  1
  Ti  Ti147  1  0.80181609  0.00987730  0.25198004  1
  Ti  Ti148  1  0.70951007  0.49891098  0.12820296  1
  Ti  Ti149  1  0.78938623  0.00249523  0.74482542  1
  Ti  Ti150  1  0.51182901  0.48263648  0.12997950  1
  Ti  Ti151  1  0.10637568  0.29604030  0.13059744  1
  Ti  Ti152  1  0.81236616  0.00802217  0.01202759  1
  Ti  Ti153  1  0.62759389  0.60774012  0.51521463  1
  Ti  Ti154  1  0.69355875  0.31854827  0.36972117  1
  Ti  Ti155  1  0.41019874  0.58624226  0.74155729  1
  Ti  Ti156  1  0.30659424  0.67961410  0.86937798  1
  Ti  Ti157  1  0.08499274  0.09448608  0.61099484  1
  Ti  Ti158  1  0.60209895  0.21977840  0.50294155  1
  Ti  Ti159  1  0.69280369  0.11372145  0.13265513  1
  Mo  Mo160  1  0.61513685  0.39839874  0.24933946  1
  Mo  Mo161  1  0.10497334  0.70491275  0.12458120  1
  Mo  Mo162  1  0.70234349  0.49168467  0.63022917  1
  Mo  Mo163  1  0.19852224  0.19792053  0.01966926  1
  Mo  Mo164  1  0.20013703  0.00128706  0.50711629  1
  Mo  Mo165  1  0.48841098  0.30398038  0.11755184  1
  Mo  Mo166  1  0.79839068  0.40856786  0.23668320  1
  Mo  Mo167  1  0.58962982  0.22058410  0.25000397  1
  Mo  Mo168  1  0.60228520  0.80625854  0.49948022  1
  Mo  Mo169  1  0.19939813  0.00241745  0.24378045  1
  Mo  Mo170  1  0.88251749  0.09770143  0.12981085  1
  Mo  Mo171  1  0.40113034  0.80483224  0.50016200  1
  Mo  Mo172  1  0.71234366  0.70706523  0.62897146  1
  Mo  Mo173  1  0.59284283  0.40984028  -0.00654034  1
  Mo  Mo174  1  0.70339699  0.69587578  0.12392351  1
  Mo  Mo175  1  -0.00717797  -0.01100683  0.01181390  1
  Mo  Mo176  1  0.40598238  0.59971070  0.26113180  1
  Mo  Mo177  1  0.48893743  0.09399356  0.37911179  1
  Mo  Mo178  1  0.88859059  0.30207960  0.36949635  1
  Mo  Mo179  1  0.39165465  -0.01680258  0.24498244  1
  Mo  Mo180  1  0.78121616  0.20418915  0.49438679  1
  Mo  Mo181  1  -0.00561936  0.40854906  0.50084684  1
  Mo  Mo182  1  0.21025054  0.59572303  0.24248916  1
  Mo  Mo183  1  0.40976496  0.40596535  0.73690703  1
  Mo  Mo184  1  -0.00657999  0.18011958  0.74996440  1
  Mo  Mo185  1  0.39876123  0.59223426  0.00409672  1
  Mo  Mo186  1  0.50533618  0.12416837  0.11410466  1
  Mo  Mo187  1  -0.00210099  0.60026984  0.24211646  1
  Mo  Mo188  1  0.01771326  0.60929630  0.75881702  1
  Mo  Mo189  1  0.28731421  0.30111602  0.87499632  1
  Mo  Mo190  1  0.51639883  0.29338109  0.38329158  1
  Mo  Mo191  1  0.21700304  0.59903413  0.75576071  1
  Mo  Mo192  1  0.50060518  0.69802055  0.88324767  1
  Mo  Mo193  1  0.10722026  0.70536030  0.61752636  1
  Mo  Mo194  1  0.60710864  0.40347519  0.50609548  1
  Mo  Mo195  1  0.00790320  0.80839397  0.74776971  1
  Mo  Mo196  1  0.11810359  0.28432756  0.88144279  1
  Mo  Mo197  1  0.59285845  0.20544047  -0.01424331  1
  Mo  Mo198  1  0.90132907  0.90442797  0.87917296  1
  Mo  Mo199  1  -0.00167929  0.00014319  0.49468925  1
