# generated using pymatgen
data_HfZrTaTiMo
_symmetry_space_group_name_H-M   'P 1'
_cell_length_a   15.21510938
_cell_length_b   15.20549444
_cell_length_c   16.82374467
_cell_angle_alpha   90.01008982
_cell_angle_beta   89.98160822
_cell_angle_gamma   89.86841434
_symmetry_Int_Tables_number   1
_chemical_formula_structural   HfZrTaTiMo
_chemical_formula_sum   'Hf40 Zr40 Ta40 Ti40 Mo40'
_cell_volume   3892.21766551
_cell_formula_units_Z   40
loop_
 _symmetry_equiv_pos_site_id
 _symmetry_equiv_pos_as_xyz
  1  'x, y, z'
loop_
 _atom_site_type_symbol
 _atom_site_label
 _atom_site_symmetry_multiplicity
 _atom_site_fract_x
 _atom_site_fract_y
 _atom_site_fract_z
 _atom_site_occupancy
  Hf  Hf0  1  0.31382900  0.30378049  0.13154987  1
  Hf  Hf1  1  0.90231242  0.31054552  0.62513600  1
  Hf  Hf2  1  -0.02006745  0.80084588  0.50163622  1
  Hf  Hf3  1  0.50679728  0.29092506  0.86425584  1
  Hf  Hf4  1  0.10960988  0.09957954  0.38166010  1
  Hf  Hf5  1  0.40004098  0.00947958  0.51381162  1
  Hf  Hf6  1  0.10257995  0.50840390  0.87961845  1
  Hf  Hf7  1  0.10495697  0.70492709  0.62466286  1
  Hf  Hf8  1  0.20662549  0.59922360  0.00456755  1
  Hf  Hf9  1  0.81300727  0.20759038  0.75726651  1
  Hf  Hf10  1  0.60301156  -0.00500804  0.50903914  1
  Hf  Hf11  1  0.49184627  0.90230340  0.86218620  1
  Hf  Hf12  1  0.59320315  -0.00683063  0.25274634  1
  Hf  Hf13  1  0.09836900  0.29693754  0.62574098  1
  Hf  Hf14  1  0.69381121  0.88245596  0.13065179  1
  Hf  Hf15  1  0.70403034  0.08396300  0.86840400  1
  Hf  Hf16  1  0.19952871  0.40415394  0.76054707  1
  Hf  Hf17  1  0.89992941  0.09878792  0.89339862  1
  Hf  Hf18  1  0.09753854  0.49349456  0.62567309  1
  Hf  Hf19  1  0.50387381  0.72131869  0.13098886  1
  Hf  Hf20  1  0.70986558  0.29988097  0.11986714  1
  Hf  Hf21  1  0.59125437  0.59790674  0.49325478  1
  Hf  Hf22  1  0.00387255  0.19299027  0.50131771  1
  Hf  Hf23  1  -0.01012564  0.60184900  0.01004603  1
  Hf  Hf24  1  0.60099515  0.39163989  0.24913401  1
  Hf  Hf25  1  0.40819466  0.40246976  0.26599828  1
  Hf  Hf26  1  0.80924136  -0.00322161  0.50746612  1
  Hf  Hf27  1  -0.00596136  0.00356788  0.75360368  1
  Hf  Hf28  1  0.59160512  0.38650235  0.48225920  1
  Hf  Hf29  1  0.51300827  0.70730605  0.87814158  1
  Hf  Hf30  1  0.70986319  0.09148431  0.36730522  1
  Hf  Hf31  1  0.19171997  0.00422924  -0.00669733  1
  Hf  Hf32  1  0.91188599  0.08961194  0.10780823  1
  Hf  Hf33  1  0.70962999  0.29192066  0.88743506  1
  Hf  Hf34  1  0.59647378  0.59820244  0.25587117  1
  Hf  Hf35  1  0.39540164  0.01202264  0.25734965  1
  Hf  Hf36  1  0.90318030  0.49390711  0.36539013  1
  Hf  Hf37  1  -0.00947829  0.39118931  0.76949988  1
  Hf  Hf38  1  -0.00983192  0.80110482  0.25097061  1
  Hf  Hf39  1  -0.00266068  0.59696454  0.23944862  1
  Zr  Zr40  1  0.59694908  0.40060196  0.00696132  1
  Zr  Zr41  1  0.39737316  0.40658700  0.75589498  1
  Zr  Zr42  1  0.28801680  0.70434382  0.37470706  1
  Zr  Zr43  1  0.39747136  0.80529202  0.50371925  1
  Zr  Zr44  1  -0.00860845  0.59559205  0.74946119  1
  Zr  Zr45  1  0.49152673  0.49088205  0.61762549  1
  Zr  Zr46  1  0.88879749  0.90054469  0.12934987  1
  Zr  Zr47  1  0.80421992  0.60608067  0.48862527  1
  Zr  Zr48  1  0.61034601  0.79544785  0.27920582  1
  Zr  Zr49  1  0.28583687  0.89985306  0.64144183  1
  Zr  Zr50  1  0.11491733  0.29330092  0.11756231  1
  Zr  Zr51  1  0.69988828  0.30499480  0.62919178  1
  Zr  Zr52  1  0.88200826  0.70162746  0.62761578  1
  Zr  Zr53  1  0.51203893  0.09554506  0.85252373  1
  Zr  Zr54  1  0.08579325  0.90591781  0.38025063  1
  Zr  Zr55  1  0.81574185  0.20078125  0.24008373  1
  Zr  Zr56  1  0.49432128  0.51237409  0.88029660  1
  Zr  Zr57  1  0.38662746  0.41603236  0.48062561  1
  Zr  Zr58  1  0.59579056  0.60964451  0.73681426  1
  Zr  Zr59  1  0.80376786  0.19874917  0.50120653  1
  Zr  Zr60  1  0.39124121  0.40716859  -0.00239069  1
  Zr  Zr61  1  0.21420556  0.19962150  0.50953375  1
  Zr  Zr62  1  0.41377485  0.21087870  0.50305554  1
  Zr  Zr63  1  0.28545328  0.50239152  0.14268516  1
  Zr  Zr64  1  0.71155169  0.29548330  0.36741319  1
  Zr  Zr65  1  0.10140176  0.71012941  0.12401159  1
  Zr  Zr66  1  -0.00269561  0.38265622  0.24120404  1
  Zr  Zr67  1  -0.00640583  0.81108860  0.74680627  1
  Zr  Zr68  1  0.40748748  0.81667771  0.26759813  1
  Zr  Zr69  1  0.30360496  0.90233712  0.12656428  1
  Zr  Zr70  1  0.10992003  0.71170904  0.86803112  1
  Zr  Zr71  1  -0.00335064  0.81666875  -0.00714797  1
  Zr  Zr72  1  0.31323871  0.69238640  0.87058095  1
  Zr  Zr73  1  0.29529703  0.10758291  0.12353028  1
  Zr  Zr74  1  0.70920140  0.50222671  0.62093007  1
  Zr  Zr75  1  0.31085456  0.08326898  0.85833793  1
  Zr  Zr76  1  0.88302295  0.70643794  0.87375911  1
  Zr  Zr77  1  0.09463276  0.69113589  0.37710184  1
  Zr  Zr78  1  0.20396606  0.19485442  0.74772034  1
  Zr  Zr79  1  0.41161300  0.19317687  -0.00299638  1
  Ta  Ta80  1  0.78264965  0.81470523  0.74764022  1
  Ta  Ta81  1  0.60727359  0.60902874  0.01480796  1
  Ta  Ta82  1  0.78454035  0.80581512  0.48060947  1
  Ta  Ta83  1  0.69386601  0.88809938  0.87832221  1
  Ta  Ta84  1  0.20028653  0.00064163  0.51196614  1
  Ta  Ta85  1  0.50392187  0.09902104  0.64682398  1
  Ta  Ta86  1  0.39987168  0.60670319  0.24760464  1
  Ta  Ta87  1  0.91297277  0.08865180  0.36700260  1
  Ta  Ta88  1  0.70507814  0.09604449  0.64237951  1
  Ta  Ta89  1  0.59710856  0.19462356  0.23873839  1
  Ta  Ta90  1  0.28640284  0.91706296  0.38037229  1
  Ta  Ta91  1  0.90602951  0.29276449  0.10137821  1
  Ta  Ta92  1  0.00315261  0.59176171  0.49926272  1
  Ta  Ta93  1  0.41480538  0.79028080  0.73039995  1
  Ta  Ta94  1  0.69722169  0.51429181  0.87969763  1
  Ta  Ta95  1  0.70850958  0.50755001  0.13355893  1
  Ta  Ta96  1  0.59352535  0.80498131  0.48287290  1
  Ta  Ta97  1  0.61101711  0.40262384  0.75879989  1
  Ta  Ta98  1  0.00569744  0.19846467  0.76334912  1
  Ta  Ta99  1  0.40497279  0.61462346  0.01749923  1
  Ta  Ta100  1  0.50185737  0.09564865  0.12366734  1
  Ta  Ta101  1  0.80108297  0.41241634  0.76782230  1
  Ta  Ta102  1  0.60320368  0.18910684  0.50891080  1
  Ta  Ta103  1  0.21531857  0.80705240  -0.00204304  1
  Ta  Ta104  1  0.18478651  0.00938227  0.24644681  1
  Ta  Ta105  1  0.39357455  0.60017805  0.73564991  1
  Ta  Ta106  1  0.30024417  0.70762124  0.13521616  1
  Ta  Ta107  1  0.20665498  0.58821907  0.50393963  1
  Ta  Ta108  1  0.29560588  0.88653383  0.85284562  1
  Ta  Ta109  1  0.01731217  0.18020235  0.24141758  1
  Ta  Ta110  1  0.19580798  0.81171750  0.25121681  1
  Ta  Ta111  1  0.49782363  0.50121879  0.12734169  1
  Ta  Ta112  1  0.80457912  0.40772352  -0.00486637  1
  Ta  Ta113  1  0.90550115  0.10321467  0.63459744  1
  Ta  Ta114  1  0.30624495  0.31390846  0.62705371  1
  Ta  Ta115  1  0.59797059  -0.00421735  0.00351068  1
  Ta  Ta116  1  0.30343922  0.29703555  0.87274591  1
  Ta  Ta117  1  0.70304520  0.49755295  0.36575666  1
  Ta  Ta118  1  0.70946453  0.08537674  0.12216883  1
  Ta  Ta119  1  0.00178375  0.39996110  -0.00335831  1
  Ti  Ti120  1  0.20126181  0.39747143  -0.00942403  1
  Ti  Ti121  1  0.28968989  0.51390735  0.35941259  1
  Ti  Ti122  1  0.60534805  0.19109117  0.01013288  1
  Ti  Ti123  1  0.50616385  0.29331195  0.64144794  1
  Ti  Ti124  1  0.79710012  0.61282631  0.25817583  1
  Ti  Ti125  1  0.10671337  0.49373283  0.36534069  1
  Ti  Ti126  1  0.59111468  0.80382798  0.00329429  1
  Ti  Ti127  1  0.10346561  0.91068372  0.86859179  1
  Ti  Ti128  1  0.78795487  0.60665841  0.75397573  1
  Ti  Ti129  1  0.68145036  0.72107719  0.61435918  1
  Ti  Ti130  1  0.40144918  -0.01686250  -0.00067221  1
  Ti  Ti131  1  0.20973712  0.59802954  0.74323746  1
  Ti  Ti132  1  0.89869063  0.49907312  0.62478946  1
  Ti  Ti133  1  0.20756230  0.20321303  0.25241721  1
  Ti  Ti134  1  0.88344126  0.90577349  0.36061820  1
  Ti  Ti135  1  0.02054244  0.18793867  -0.00522250  1
  Ti  Ti136  1  0.89223859  0.49165302  0.12596245  1
  Ti  Ti137  1  0.50568380  0.10537942  0.37792188  1
  Ti  Ti138  1  0.48623438  0.68879768  0.38264051  1
  Ti  Ti139  1  0.80529969  0.40237948  0.49339367  1
  Ti  Ti140  1  0.87406854  0.70191908  0.12726871  1
  Ti  Ti141  1  0.78477553  0.79566331  -0.00333814  1
  Ti  Ti142  1  0.89408426  0.50457680  0.88298641  1
  Ti  Ti143  1  0.10057458  0.29874256  0.36989709  1
  Ti  Ti144  1  -0.00040169  0.40033996  0.49184287  1
  Ti  Ti145  1  0.09861081  0.49312007  0.12615998  1
  Ti  Ti146  1  0.30241575  0.69072053  0.61706017  1
  Ti  Ti147  1  0.10009492  0.29235373  0.88257563  1
  Ti  Ti148  1  0.19066820  0.80624256  0.50219071  1
  Ti  Ti149  1  0.21050039  0.19909801  -0.01338239  1
  Ti  Ti150  1  0.41369380  0.20639294  0.25691430  1
  Ti  Ti151  1  0.09239290  0.91681206  0.12276130  1
  Ti  Ti152  1  0.10909375  0.08727256  0.63278155  1
  Ti  Ti153  1  0.30211742  0.10673334  0.37649026  1
  Ti  Ti154  1  0.61290121  -0.02906842  0.73401667  1
  Ti  Ti155  1  0.29329271  0.30075468  0.36881172  1
  Ti  Ti156  1  0.19385593  0.40054104  0.49286918  1
  Ti  Ti157  1  0.90946752  0.28999498  0.37177083  1
  Ti  Ti158  1  0.00263864  -0.00390439  0.51746188  1
  Ti  Ti159  1  0.79124809  0.60334376  0.00389520  1
  Mo  Mo160  1  0.09203965  0.90033704  0.62037570  1
  Mo  Mo161  1  0.79070931  -0.01547780  -0.00272288  1
  Mo  Mo162  1  0.79943822  0.79198442  0.26797779  1
  Mo  Mo163  1  0.69836501  0.69199419  0.38315851  1
  Mo  Mo164  1  0.19731946  0.39494024  0.26480969  1
  Mo  Mo165  1  0.61041249  0.20317291  0.74386366  1
  Mo  Mo166  1  0.69903655  0.90674152  0.37632691  1
  Mo  Mo167  1  0.70372354  0.69633896  0.12841344  1
  Mo  Mo168  1  0.88978426  0.90494029  0.62375626  1
  Mo  Mo169  1  0.50042344  0.91090713  0.11878435  1
  Mo  Mo170  1  0.28850028  0.50029114  0.62003597  1
  Mo  Mo171  1  0.60181644  0.79549351  0.74468756  1
  Mo  Mo172  1  0.80572123  0.40968799  0.23977465  1
  Mo  Mo173  1  0.49423263  0.69912792  0.61064277  1
  Mo  Mo174  1  0.18913996  -0.00903836  0.75109890  1
  Mo  Mo175  1  0.30576317  0.10409056  0.63875179  1
  Mo  Mo176  1  0.79611768  0.19458267  0.00831746  1
  Mo  Mo177  1  0.49064833  0.91429401  0.38577668  1
  Mo  Mo178  1  0.49631789  0.50465903  0.36960259  1
  Mo  Mo179  1  0.00384385  -0.00566630  -0.01254329  1
  Mo  Mo180  1  0.90598601  0.30066558  0.89901615  1
  Mo  Mo181  1  0.69629529  0.69783083  0.87920613  1
  Mo  Mo182  1  0.20433029  0.78830355  0.74666250  1
  Mo  Mo183  1  0.87810522  0.90869636  0.88014930  1
  Mo  Mo184  1  0.51029788  0.89032348  0.62970793  1
  Mo  Mo185  1  0.79941285  -0.00198138  0.24959476  1
  Mo  Mo186  1  -0.00210992  0.00109613  0.24968022  1
  Mo  Mo187  1  0.50545351  0.28621205  0.37232759  1
  Mo  Mo188  1  0.19423225  0.60444562  0.24528873  1
  Mo  Mo189  1  0.39836750  0.80323855  -0.00151037  1
  Mo  Mo190  1  0.10384682  0.10187161  0.87180656  1
  Mo  Mo191  1  0.39102685  0.60125705  0.49678415  1
  Mo  Mo192  1  0.40038618  0.20593191  0.73926375  1
  Mo  Mo193  1  0.10370870  0.09752344  0.12203171  1
  Mo  Mo194  1  0.40149548  -0.00461467  0.73347004  1
  Mo  Mo195  1  0.80355211  -0.00445577  0.74476006  1
  Mo  Mo196  1  0.50380392  0.29122578  0.12783064  1
  Mo  Mo197  1  0.89973912  0.70151991  0.37210936  1
  Mo  Mo198  1  0.70590950  0.89265957  0.61816063  1
  Mo  Mo199  1  0.29756033  0.50516573  0.87971602  1
