# generated using pymatgen
data_HfZrTaTiMo
_symmetry_space_group_name_H-M   'P 1'
_cell_length_a   15.21563916
_cell_length_b   15.19956432
_cell_length_c   16.83796586
_cell_angle_alpha   90.02553271
_cell_angle_beta   89.92531489
_cell_angle_gamma   90.10323055
_symmetry_Int_Tables_number   1
_chemical_formula_structural   HfZrTaTiMo
_chemical_formula_sum   'Hf40 Zr40 Ta40 Ti40 Mo40'
_cell_volume   3894.12464155
_cell_formula_units_Z   40
loop_
 _symmetry_equiv_pos_site_id
 _symmetry_equiv_pos_as_xyz
  1  'x, y, z'
loop_
 _atom_site_type_symbol
 _atom_site_label
 _atom_site_symmetry_multiplicity
 _atom_site_fract_x
 _atom_site_fract_y
 _atom_site_fract_z
 _atom_site_occupancy
  Hf  Hf0  1  0.59515987  0.18670159  0.25796017  1
  Hf  Hf1  1  0.70212418  0.10026036  0.61848625  1
  Hf  Hf2  1  0.49723370  0.08616181  0.12641548  1
  Hf  Hf3  1  0.59791226  0.20826651  0.74346118  1
  Hf  Hf4  1  0.20905104  0.40290430  0.00005185  1
  Hf  Hf5  1  0.90297627  0.09935271  0.62335158  1
  Hf  Hf6  1  0.58385140  0.59972559  0.74372745  1
  Hf  Hf7  1  0.30526644  0.29940241  0.86948190  1
  Hf  Hf8  1  0.50903946  0.30767562  0.87939450  1
  Hf  Hf9  1  0.90783116  0.08275626  0.87369197  1
  Hf  Hf10  1  0.40989255  0.00723165  0.27043944  1
  Hf  Hf11  1  0.50186538  0.70473496  0.11907322  1
  Hf  Hf12  1  -0.00296200  0.19004536  0.24708186  1
  Hf  Hf13  1  0.00244660  0.20096876  0.75144378  1
  Hf  Hf14  1  0.10002341  0.30632207  0.36573406  1
  Hf  Hf15  1  0.40332799  -0.02006552  0.74207900  1
  Hf  Hf16  1  0.78759472  0.40166031  0.23999908  1
  Hf  Hf17  1  0.00137281  -0.00117245  0.00682206  1
  Hf  Hf18  1  0.69718904  0.90896430  0.12427391  1
  Hf  Hf19  1  0.89724086  0.49589977  0.62474894  1
  Hf  Hf20  1  0.20714347  0.01431443  0.50204126  1
  Hf  Hf21  1  0.79844884  0.60068223  0.75550604  1
  Hf  Hf22  1  0.19355925  0.19878095  0.00195912  1
  Hf  Hf23  1  -0.00839387  0.41491219  0.24097331  1
  Hf  Hf24  1  0.80196813  0.20684547  0.75419820  1
  Hf  Hf25  1  0.49856984  0.49656819  0.37702958  1
  Hf  Hf26  1  0.89168414  0.49895281  0.88261936  1
  Hf  Hf27  1  0.60393523  0.60287229  0.24400619  1
  Hf  Hf28  1  0.38296599  0.19767500  0.49612800  1
  Hf  Hf29  1  0.88296592  0.28601788  0.13134852  1
  Hf  Hf30  1  0.60011392  0.00146913  0.49684197  1
  Hf  Hf31  1  0.20357804  0.40548502  0.75597853  1
  Hf  Hf32  1  0.60161467  0.79688081  -0.00995902  1
  Hf  Hf33  1  0.00298436  0.60804164  0.50945385  1
  Hf  Hf34  1  0.89663848  0.89265850  0.62326062  1
  Hf  Hf35  1  0.11116572  0.69654644  0.38020335  1
  Hf  Hf36  1  -0.00062555  0.78773013  0.24821530  1
  Hf  Hf37  1  0.09932730  0.30203870  0.62394898  1
  Hf  Hf38  1  0.39071971  0.59797559  0.24620395  1
  Hf  Hf39  1  0.31464198  0.68107189  0.61525660  1
  Zr  Zr40  1  0.49026190  0.68388424  0.88360206  1
  Zr  Zr41  1  0.59099572  0.40280148  0.23524310  1
  Zr  Zr42  1  0.70895947  0.70532432  0.62142760  1
  Zr  Zr43  1  0.21339593  0.00867978  -0.00574807  1
  Zr  Zr44  1  0.81552010  0.59564916  0.26006499  1
  Zr  Zr45  1  0.79310618  0.39738644  0.75374939  1
  Zr  Zr46  1  0.00835209  0.80046195  0.74749504  1
  Zr  Zr47  1  0.69300149  0.10881566  0.87409774  1
  Zr  Zr48  1  0.12423535  0.10281907  0.35714673  1
  Zr  Zr49  1  0.69246734  0.70190330  0.38228760  1
  Zr  Zr50  1  0.80209072  -0.00792940  0.75250112  1
  Zr  Zr51  1  0.28631653  0.70533722  0.10340748  1
  Zr  Zr52  1  0.49621430  0.31458093  0.61783572  1
  Zr  Zr53  1  0.68921459  0.30605456  0.38115844  1
  Zr  Zr54  1  0.81289747  0.80605721  -0.01017644  1
  Zr  Zr55  1  0.68852347  0.49223018  0.61144150  1
  Zr  Zr56  1  0.39994565  0.80013397  0.24981084  1
  Zr  Zr57  1  -0.00723441  0.39637382  0.00966786  1
  Zr  Zr58  1  0.70601401  0.30078140  0.60521476  1
  Zr  Zr59  1  0.48204969  0.09269254  0.87072832  1
  Zr  Zr60  1  0.58510697  0.60692461  0.50765018  1
  Zr  Zr61  1  0.90285158  0.89492776  0.13150547  1
  Zr  Zr62  1  0.80210089  0.19012147  -0.00185893  1
  Zr  Zr63  1  0.30101258  0.88774680  0.38749891  1
  Zr  Zr64  1  0.11443919  0.50777048  0.62156543  1
  Zr  Zr65  1  0.20478073  0.79168267  0.24529543  1
  Zr  Zr66  1  -0.00443903  0.00135909  0.49470694  1
  Zr  Zr67  1  0.69697280  0.89788386  0.61757023  1
  Zr  Zr68  1  0.59628703  0.80901782  0.76487883  1
  Zr  Zr69  1  0.00834112  0.20379273  0.49069026  1
  Zr  Zr70  1  0.20234433  -0.00049401  0.75397488  1
  Zr  Zr71  1  0.48409997  0.29002627  0.13024329  1
  Zr  Zr72  1  0.59572460  0.00077932  -0.00643832  1
  Zr  Zr73  1  0.10021649  0.50082025  0.37627119  1
  Zr  Zr74  1  0.79732865  0.79331118  0.25409930  1
  Zr  Zr75  1  0.10033353  0.90186414  0.36985621  1
  Zr  Zr76  1  0.38884879  0.18963299  -0.00114780  1
  Zr  Zr77  1  0.09665756  0.51111404  0.88484493  1
  Zr  Zr78  1  0.20634509  0.61250339  0.75526538  1
  Zr  Zr79  1  0.10541048  0.29719755  0.13223183  1
  Ta  Ta80  1  0.40240067  0.58973060  0.00990558  1
  Ta  Ta81  1  0.11111359  0.90506854  0.12875575  1
  Ta  Ta82  1  0.30981103  0.91618160  0.12362188  1
  Ta  Ta83  1  0.09525666  0.90067244  0.87664183  1
  Ta  Ta84  1  0.10445145  0.10103032  0.62943412  1
  Ta  Ta85  1  0.39554633  0.19869756  0.74420959  1
  Ta  Ta86  1  0.58846622  0.19800548  0.49291288  1
  Ta  Ta87  1  0.10734132  0.71093216  0.89486526  1
  Ta  Ta88  1  0.89926003  0.89797212  0.37029936  1
  Ta  Ta89  1  0.90261397  0.29820705  0.88485367  1
  Ta  Ta90  1  0.79436077  0.60084580  -0.00061967  1
  Ta  Ta91  1  0.00079819  0.79604310  0.50539395  1
  Ta  Ta92  1  0.70629610  0.10715601  0.13352281  1
  Ta  Ta93  1  0.89347258  0.30050387  0.36486873  1
  Ta  Ta94  1  0.40440530  0.00138950  0.49733051  1
  Ta  Ta95  1  0.10313008  0.51849007  0.11357870  1
  Ta  Ta96  1  0.81201691  0.79657496  0.49017647  1
  Ta  Ta97  1  0.49671056  0.09566285  0.62455959  1
  Ta  Ta98  1  0.81281365  0.59956022  0.48864420  1
  Ta  Ta99  1  0.20762436  0.39236728  0.49953811  1
  Ta  Ta100  1  0.68117039  0.49982388  0.88484864  1
  Ta  Ta101  1  0.10560800  0.90160696  0.62205107  1
  Ta  Ta102  1  0.09318723  0.29992500  0.87689909  1
  Ta  Ta103  1  0.30078807  0.10143937  0.62901599  1
  Ta  Ta104  1  0.80496553  0.18822350  0.48348564  1
  Ta  Ta105  1  0.08663571  0.70738628  0.09887913  1
  Ta  Ta106  1  0.21022471  0.80281469  0.74624362  1
  Ta  Ta107  1  0.80740362  0.79362178  0.76750702  1
  Ta  Ta108  1  0.48484435  0.70504638  0.38073081  1
  Ta  Ta109  1  -0.00070102  0.60755071  0.74265231  1
  Ta  Ta110  1  0.30402574  0.89006521  0.61367915  1
  Ta  Ta111  1  0.59769125  0.80902800  0.25319095  1
  Ta  Ta112  1  0.78197742  0.40111814  0.01414669  1
  Ta  Ta113  1  0.40604178  0.40206663  0.00603054  1
  Ta  Ta114  1  0.70401327  0.90519218  0.37993428  1
  Ta  Ta115  1  -0.00314560  0.40297343  0.75524305  1
  Ta  Ta116  1  0.29496828  0.11227032  0.14670982  1
  Ta  Ta117  1  0.71030101  0.69944354  0.12172308  1
  Ta  Ta118  1  0.31728765  0.51080820  0.87949421  1
  Ta  Ta119  1  0.29131742  0.29674721  0.36720335  1
  Ti  Ti120  1  0.30824855  0.90032481  0.87775757  1
  Ti  Ti121  1  0.91678147  0.69958340  0.88223719  1
  Ti  Ti122  1  0.50090017  0.90025105  0.12803818  1
  Ti  Ti123  1  0.39365007  0.40511031  0.49600296  1
  Ti  Ti124  1  0.50942670  0.89544455  0.38378895  1
  Ti  Ti125  1  0.40697178  0.41461042  0.75105933  1
  Ti  Ti126  1  0.00283295  0.60347154  0.24497125  1
  Ti  Ti127  1  0.59613702  0.40583851  0.02119397  1
  Ti  Ti128  1  0.89884060  0.08780872  0.13308573  1
  Ti  Ti129  1  0.38941696  0.39627178  0.24698608  1
  Ti  Ti130  1  0.71121792  0.90990448  0.88048819  1
  Ti  Ti131  1  0.00279820  0.19243914  0.00767121  1
  Ti  Ti132  1  0.40137739  0.81745417  -0.00383747  1
  Ti  Ti133  1  0.59940315  0.58769539  0.01261226  1
  Ti  Ti134  1  0.19430360  0.59956038  0.24187558  1
  Ti  Ti135  1  0.90064775  0.29889024  0.61698778  1
  Ti  Ti136  1  0.60354036  0.21128451  0.01152351  1
  Ti  Ti137  1  0.48760316  0.29744081  0.37405083  1
  Ti  Ti138  1  0.10238757  0.10170138  0.86926000  1
  Ti  Ti139  1  0.20179366  0.40758452  0.24106093  1
  Ti  Ti140  1  0.20210886  0.20153376  0.75416778  1
  Ti  Ti141  1  0.47402066  0.51610145  0.61846725  1
  Ti  Ti142  1  0.29366649  0.50155742  0.37336688  1
  Ti  Ti143  1  0.69915956  0.49734795  0.38421506  1
  Ti  Ti144  1  0.19982439  0.78371014  0.50980506  1
  Ti  Ti145  1  0.70233763  0.69209905  0.87897504  1
  Ti  Ti146  1  0.89993803  0.09222853  0.36401882  1
  Ti  Ti147  1  0.39982124  0.78182217  0.75113124  1
  Ti  Ti148  1  0.70051079  0.09616163  0.37347824  1
  Ti  Ti149  1  0.59781549  0.40698842  0.75176140  1
  Ti  Ti150  1  0.89666410  0.51730466  0.11426031  1
  Ti  Ti151  1  0.29703369  0.30325184  0.62978042  1
  Ti  Ti152  1  0.70193377  0.31055492  0.88483735  1
  Ti  Ti153  1  0.49751434  0.88206364  0.61270149  1
  Ti  Ti154  1  0.29538811  0.70624240  0.89017477  1
  Ti  Ti155  1  0.79528354  0.00534912  0.25447472  1
  Ti  Ti156  1  0.29988720  0.49686978  0.12328205  1
  Ti  Ti157  1  0.80690482  0.39977649  0.48905309  1
  Ti  Ti158  1  -0.00562024  0.40375047  0.49405392  1
  Ti  Ti159  1  0.59640414  -0.00070674  0.75166283  1
  Mo  Mo160  1  0.80421268  0.00184274  0.48492933  1
  Mo  Mo161  1  0.90263446  0.69128642  0.11683990  1
  Mo  Mo162  1  0.39709351  0.59500301  0.75373116  1
  Mo  Mo163  1  0.29789715  0.68446780  0.38663454  1
  Mo  Mo164  1  0.10854416  0.71075513  0.62389426  1
  Mo  Mo165  1  0.80141095  0.00361164  0.00557730  1
  Mo  Mo166  1  0.50372924  0.10157785  0.38566520  1
  Mo  Mo167  1  0.90762326  0.89529504  0.87332578  1
  Mo  Mo168  1  0.40679094  0.79677603  0.50064589  1
  Mo  Mo169  1  0.69261339  0.29090836  0.12428332  1
  Mo  Mo170  1  0.00601776  0.80894784  -0.00363830  1
  Mo  Mo171  1  -0.00086615  -0.00603075  0.24518363  1
  Mo  Mo172  1  0.49706383  0.89342693  0.87054023  1
  Mo  Mo173  1  0.39920044  0.20452942  0.26514447  1
  Mo  Mo174  1  0.58772786  0.39781369  0.49166778  1
  Mo  Mo175  1  0.90043463  0.69859813  0.62885413  1
  Mo  Mo176  1  0.29541275  0.10140137  0.85976093  1
  Mo  Mo177  1  0.79721859  0.19347585  0.26310764  1
  Mo  Mo178  1  -0.00892808  0.60705291  -0.00041329  1
  Mo  Mo179  1  0.38897746  0.59338092  0.48854222  1
  Mo  Mo180  1  0.49051957  0.50352049  0.12923670  1
  Mo  Mo181  1  0.70011357  0.50781815  0.11763376  1
  Mo  Mo182  1  0.29832733  0.30660186  0.13365355  1
  Mo  Mo183  1  0.60560801  -0.00918573  0.25871944  1
  Mo  Mo184  1  0.30573381  0.10469294  0.36685668  1
  Mo  Mo185  1  0.59796620  0.80274398  0.49312088  1
  Mo  Mo186  1  0.20650589  -0.00296039  0.24259841  1
  Mo  Mo187  1  0.30690890  0.48035673  0.62324936  1
  Mo  Mo188  1  0.20416532  0.20550160  0.50679850  1
  Mo  Mo189  1  0.89882870  0.49329143  0.37985033  1
  Mo  Mo190  1  0.20649084  0.21063615  0.24443008  1
  Mo  Mo191  1  0.10208353  0.08772230  0.13908430  1
  Mo  Mo192  1  0.91056811  0.70001223  0.38032656  1
  Mo  Mo193  1  0.01003731  -0.00110663  0.74446839  1
  Mo  Mo194  1  0.20448912  0.81607860  -0.00298085  1
  Mo  Mo195  1  0.20801894  0.58922855  0.49919105  1
  Mo  Mo196  1  0.50280176  0.49105494  0.88201192  1
  Mo  Mo197  1  0.49673874  0.70808095  0.62391082  1
  Mo  Mo198  1  0.20502311  0.60148553  -0.00480852  1
  Mo  Mo199  1  0.39635853  -0.00595010  0.00313825  1
