# generated using pymatgen
data_HfZrTaTiMo
_symmetry_space_group_name_H-M   'P 1'
_cell_length_a   15.20974586
_cell_length_b   15.21356191
_cell_length_c   16.80485328
_cell_angle_alpha   90.01740383
_cell_angle_beta   89.99505824
_cell_angle_gamma   89.93311929
_symmetry_Int_Tables_number   1
_chemical_formula_structural   HfZrTaTiMo
_chemical_formula_sum   'Hf40 Zr40 Ta40 Ti40 Mo40'
_cell_volume   3888.54627130
_cell_formula_units_Z   40
loop_
 _symmetry_equiv_pos_site_id
 _symmetry_equiv_pos_as_xyz
  1  'x, y, z'
loop_
 _atom_site_type_symbol
 _atom_site_label
 _atom_site_symmetry_multiplicity
 _atom_site_fract_x
 _atom_site_fract_y
 _atom_site_fract_z
 _atom_site_occupancy
  Hf  Hf0  1  0.09404546  0.08985027  0.61849147  1
  Hf  Hf1  1  0.69674222  0.30286112  0.12360748  1
  Hf  Hf2  1  0.30473683  0.09392120  0.87342252  1
  Hf  Hf3  1  0.20291013  0.19563265  -0.00770357  1
  Hf  Hf4  1  0.60855271  0.81758774  0.27493001  1
  Hf  Hf5  1  0.20687537  0.79723061  -0.00469267  1
  Hf  Hf6  1  0.61343329  0.79866642  -0.00255922  1
  Hf  Hf7  1  0.09639943  0.49651965  0.38611170  1
  Hf  Hf8  1  0.00709881  0.39785595  0.76540748  1
  Hf  Hf9  1  0.09619768  0.91539065  0.87132815  1
  Hf  Hf10  1  -0.00016810  0.60071804  0.76983578  1
  Hf  Hf11  1  0.50842658  0.30883561  0.36634169  1
  Hf  Hf12  1  0.50129200  0.29952271  0.13683847  1
  Hf  Hf13  1  0.70360754  0.92176641  0.12946741  1
  Hf  Hf14  1  0.79503407  0.21257965  0.50792461  1
  Hf  Hf15  1  0.80465932  0.41611607  0.23415288  1
  Hf  Hf16  1  0.60558757  0.59721430  0.50010244  1
  Hf  Hf17  1  0.00786710  0.78260670  -0.01589396  1
  Hf  Hf18  1  0.59130054  -0.00559237  0.73358256  1
  Hf  Hf19  1  0.39309674  0.40310107  0.00816494  1
  Hf  Hf20  1  -0.00493543  0.37959363  0.24496599  1
  Hf  Hf21  1  0.32333381  0.68641827  0.86302992  1
  Hf  Hf22  1  0.81820513  0.82020528  0.01316283  1
  Hf  Hf23  1  0.21072670  0.38178006  0.74044408  1
  Hf  Hf24  1  0.50542036  0.71877832  0.61784572  1
  Hf  Hf25  1  0.67724063  0.11027946  0.86785833  1
  Hf  Hf26  1  0.00503492  0.39222822  -0.01886759  1
  Hf  Hf27  1  0.31367102  0.48430828  0.85818513  1
  Hf  Hf28  1  0.69781869  0.89730088  0.60378235  1
  Hf  Hf29  1  0.49261078  0.29613682  0.62830427  1
  Hf  Hf30  1  0.11589802  0.67784647  0.13049609  1
  Hf  Hf31  1  0.00461371  0.58317831  0.25095783  1
  Hf  Hf32  1  0.80876075  0.79746009  0.25679732  1
  Hf  Hf33  1  0.88620953  0.07664183  0.87021216  1
  Hf  Hf34  1  0.79624592  0.61831217  0.00865171  1
  Hf  Hf35  1  -0.00767355  -0.00851559  0.26055252  1
  Hf  Hf36  1  0.00888839  0.78242721  0.27437484  1
  Hf  Hf37  1  0.61896205  0.79708043  0.75800747  1
  Hf  Hf38  1  0.41623561  0.81152697  0.74662668  1
  Hf  Hf39  1  0.19982321  0.79536859  0.75425632  1
  Zr  Zr40  1  0.48903893  0.29797713  0.86343334  1
  Zr  Zr41  1  0.72045147  0.91575224  0.87972883  1
  Zr  Zr42  1  0.41417369  0.77555610  0.01108436  1
  Zr  Zr43  1  0.39727349  0.39318473  0.50309221  1
  Zr  Zr44  1  0.18901249  0.41129562  0.23599177  1
  Zr  Zr45  1  0.00461454  0.58863216  -0.02173755  1
  Zr  Zr46  1  0.20276178  0.60334471  0.51222045  1
  Zr  Zr47  1  -0.01975654  -0.01408951  0.00511837  1
  Zr  Zr48  1  0.39394211  0.40724986  0.24316269  1
  Zr  Zr49  1  0.50359863  0.09646100  0.15551439  1
  Zr  Zr50  1  0.41376710  0.19252408  0.00447640  1
  Zr  Zr51  1  0.70930928  0.70267068  0.61388735  1
  Zr  Zr52  1  0.09630749  0.28961548  0.62185238  1
  Zr  Zr53  1  0.39524551  0.60084646  0.50848938  1
  Zr  Zr54  1  0.39411421  -0.00379258  0.01880103  1
  Zr  Zr55  1  0.08773089  0.88412896  0.13073459  1
  Zr  Zr56  1  0.78317053  0.19330095  0.00029109  1
  Zr  Zr57  1  0.50597511  0.92161952  0.88542589  1
  Zr  Zr58  1  0.21095484  0.59604925  -0.01367872  1
  Zr  Zr59  1  0.81382069  0.21448408  0.24869140  1
  Zr  Zr60  1  0.19644352  0.39620081  -0.00336773  1
  Zr  Zr61  1  0.28933965  0.07669097  0.35998897  1
  Zr  Zr62  1  0.58592658  0.00242511  0.48034357  1
  Zr  Zr63  1  0.91780965  0.70998190  0.62540266  1
  Zr  Zr64  1  0.60565276  0.61245483  0.25727015  1
  Zr  Zr65  1  0.59660906  0.20879954  0.49546022  1
  Zr  Zr66  1  0.59318570  0.40512359  -0.00314878  1
  Zr  Zr67  1  0.88594217  0.29182976  0.87133005  1
  Zr  Zr68  1  0.09270138  0.88784661  0.61938436  1
  Zr  Zr69  1  0.69656777  0.52514330  0.87986571  1
  Zr  Zr70  1  0.10117448  0.09594362  0.13459040  1
  Zr  Zr71  1  0.80196225  0.42310322  0.74755628  1
  Zr  Zr72  1  0.30474589  0.89824264  0.87621539  1
  Zr  Zr73  1  0.29776378  0.49660812  0.37410550  1
  Zr  Zr74  1  0.70691787  0.49228757  0.37563179  1
  Zr  Zr75  1  0.50328927  0.49980450  0.63960464  1
  Zr  Zr76  1  0.90143941  0.11488522  0.37773514  1
  Zr  Zr77  1  0.29209880  0.89976441  0.14520430  1
  Zr  Zr78  1  0.88761411  0.08895802  0.12941562  1
  Zr  Zr79  1  0.20111474  0.19612967  0.48392074  1
  Ta  Ta80  1  -0.00216291  0.18658328  0.75891150  1
  Ta  Ta81  1  0.09311657  0.50352123  0.62950827  1
  Ta  Ta82  1  0.89717150  0.50260965  0.37847326  1
  Ta  Ta83  1  0.90090851  0.31866215  0.38781265  1
  Ta  Ta84  1  0.79371028  0.19664823  0.73962898  1
  Ta  Ta85  1  0.49852864  0.50625542  0.85704728  1
  Ta  Ta86  1  0.38050273  0.20400867  0.74458035  1
  Ta  Ta87  1  0.80206193  0.41000988  -0.00268541  1
  Ta  Ta88  1  0.38784941  -0.00577524  0.49506705  1
  Ta  Ta89  1  0.39698006  0.00887289  0.73766174  1
  Ta  Ta90  1  0.18750792  0.21040701  0.26177879  1
  Ta  Ta91  1  0.09260206  0.28907541  0.11901594  1
  Ta  Ta92  1  0.19949123  0.00122337  0.74248982  1
  Ta  Ta93  1  0.00057675  0.61217020  0.49579129  1
  Ta  Ta94  1  0.89845850  0.30201952  0.63342192  1
  Ta  Ta95  1  0.49775892  0.52486908  0.12268056  1
  Ta  Ta96  1  0.79627378  0.00792298  0.49052466  1
  Ta  Ta97  1  0.38952857  0.20469316  0.26809894  1
  Ta  Ta98  1  0.50349380  0.50391705  0.37661304  1
  Ta  Ta99  1  0.48595372  0.09782994  0.61502308  1
  Ta  Ta100  1  0.29304822  0.10358172  0.61614497  1
  Ta  Ta101  1  0.19176767  0.18946166  0.75741199  1
  Ta  Ta102  1  0.69491856  0.51248248  0.11500300  1
  Ta  Ta103  1  0.68902487  0.30829260  0.86159427  1
  Ta  Ta104  1  0.78923150  -0.00904283  0.27448165  1
  Ta  Ta105  1  0.69318581  0.31044294  0.64069671  1
  Ta  Ta106  1  0.69354675  0.10429953  0.62116020  1
  Ta  Ta107  1  0.49112340  0.70118532  0.38257319  1
  Ta  Ta108  1  0.90400896  0.89421167  0.39115564  1
  Ta  Ta109  1  0.00569509  0.00050266  0.49078967  1
  Ta  Ta110  1  0.40914529  0.79369598  0.25280387  1
  Ta  Ta111  1  0.81258924  0.57922743  0.51453163  1
  Ta  Ta112  1  0.50896331  0.89468624  0.13642935  1
  Ta  Ta113  1  0.00631260  0.18814977  -0.01765052  1
  Ta  Ta114  1  0.30136066  0.90059584  0.62047340  1
  Ta  Ta115  1  0.81391684  0.81462311  0.74348771  1
  Ta  Ta116  1  0.39799147  0.19166155  0.47777422  1
  Ta  Ta117  1  0.20126216  0.39936718  0.51671618  1
  Ta  Ta118  1  0.29157332  0.70260812  0.36672466  1
  Ta  Ta119  1  0.69114115  0.11178302  0.36376953  1
  Ti  Ti120  1  -0.01339179  0.41152351  0.51352910  1
  Ti  Ti121  1  0.79692232  0.00017127  0.72981704  1
  Ti  Ti122  1  0.81636727  0.78700508  0.49039562  1
  Ti  Ti123  1  0.91431915  0.70606143  0.12678397  1
  Ti  Ti124  1  0.91145733  0.50021828  0.11266629  1
  Ti  Ti125  1  0.20107596  0.79957908  0.49769620  1
  Ti  Ti126  1  0.39476600  0.80533278  0.49480429  1
  Ti  Ti127  1  0.29285085  0.28922862  0.13017515  1
  Ti  Ti128  1  0.87844258  0.70586346  0.87117423  1
  Ti  Ti129  1  0.89776868  0.10065097  0.61963838  1
  Ti  Ti130  1  0.61513903  0.40285743  0.50613590  1
  Ti  Ti131  1  0.61169905  0.60014547  0.74202261  1
  Ti  Ti132  1  -0.01095916  -0.00902692  0.74211015  1
  Ti  Ti133  1  0.40138073  0.60088535  0.25536842  1
  Ti  Ti134  1  0.29280846  0.51447108  0.12371416  1
  Ti  Ti135  1  0.09446602  0.09684469  0.37082923  1
  Ti  Ti136  1  0.59574246  0.80543238  0.47870365  1
  Ti  Ti137  1  0.90491197  0.29431438  0.10627412  1
  Ti  Ti138  1  0.68896421  0.70936083  0.13112594  1
  Ti  Ti139  1  0.51820385  0.68647374  0.87269103  1
  Ti  Ti140  1  0.71730590  0.69201009  0.38475022  1
  Ti  Ti141  1  0.58680103  0.19411787  0.74152067  1
  Ti  Ti142  1  0.11662537  0.89828891  0.37873172  1
  Ti  Ti143  1  0.29360744  0.10073483  0.14900432  1
  Ti  Ti144  1  0.30397184  0.69611205  0.63730106  1
  Ti  Ti145  1  0.90114715  0.90589946  0.60258466  1
  Ti  Ti146  1  0.60159923  0.41457280  0.24355141  1
  Ti  Ti147  1  -0.00003704  0.79807159  0.76620008  1
  Ti  Ti148  1  0.19101114  0.00185990  0.00402485  1
  Ti  Ti149  1  0.09402590  0.30294164  0.38360135  1
  Ti  Ti150  1  0.31303754  0.69394903  0.13790561  1
  Ti  Ti151  1  -0.00525489  0.20580563  0.50166957  1
  Ti  Ti152  1  0.10414272  0.69832712  0.62996003  1
  Ti  Ti153  1  0.29929297  0.88956571  0.36085145  1
  Ti  Ti154  1  0.20009848  0.59076376  0.75005283  1
  Ti  Ti155  1  0.70984409  0.30736049  0.36970513  1
  Ti  Ti156  1  0.59815663  0.03026583  0.00904966  1
  Ti  Ti157  1  0.80076337  0.61530801  0.74252059  1
  Ti  Ti158  1  0.80728241  0.60560669  0.23949937  1
  Ti  Ti159  1  0.69027739  0.10924954  0.15010892  1
  Mo  Mo160  1  0.10334787  0.28520634  0.86938938  1
  Mo  Mo161  1  0.18857061  -0.00518029  0.25324724  1
  Mo  Mo162  1  0.20109233  -0.01378020  0.50001987  1
  Mo  Mo163  1  0.28897686  0.29968677  0.37359676  1
  Mo  Mo164  1  0.10757859  0.69634016  0.37982899  1
  Mo  Mo165  1  0.29962783  0.28981038  0.87285577  1
  Mo  Mo166  1  0.29469622  0.49715544  0.63918012  1
  Mo  Mo167  1  0.78497308  0.00511829  0.00715264  1
  Mo  Mo168  1  0.49170838  0.90511825  0.61245720  1
  Mo  Mo169  1  0.39913878  0.39691595  0.73811295  1
  Mo  Mo170  1  0.48200542  0.89943035  0.37349620  1
  Mo  Mo171  1  0.20500344  0.60225575  0.25073432  1
  Mo  Mo172  1  0.59477825  0.20304970  0.00190599  1
  Mo  Mo173  1  0.50489676  0.70759165  0.13712143  1
  Mo  Mo174  1  0.80056989  0.39859129  0.51676605  1
  Mo  Mo175  1  0.89792026  0.68363937  0.37976752  1
  Mo  Mo176  1  0.70606051  0.70964779  0.87083127  1
  Mo  Mo177  1  0.49343152  0.10030121  0.35913420  1
  Mo  Mo178  1  0.70809849  0.89770707  0.39486156  1
  Mo  Mo179  1  0.60297513  0.21522611  0.26149746  1
  Mo  Mo180  1  0.20273003  0.78991036  0.25583259  1
  Mo  Mo181  1  0.00670435  0.20486146  0.25470712  1
  Mo  Mo182  1  0.58853704  0.61379479  0.00357753  1
  Mo  Mo183  1  0.01074113  0.79871532  0.48458019  1
  Mo  Mo184  1  0.49600307  0.09771518  0.86653185  1
  Mo  Mo185  1  0.40462800  0.60780216  0.73885850  1
  Mo  Mo186  1  0.59981544  0.00189556  0.27184616  1
  Mo  Mo187  1  0.09536033  0.09067430  0.86978638  1
  Mo  Mo188  1  0.70445322  0.50065126  0.62954314  1
  Mo  Mo189  1  0.10991388  0.49588398  0.85810619  1
  Mo  Mo190  1  0.11533598  0.70362705  0.86535667  1
  Mo  Mo191  1  0.90039742  0.89605483  0.86572817  1
  Mo  Mo192  1  0.41153830  0.59048606  -0.00108977  1
  Mo  Mo193  1  0.91211485  0.50484260  0.62845333  1
  Mo  Mo194  1  0.30040383  0.28576990  0.61682480  1
  Mo  Mo195  1  0.09740194  0.48987961  0.12032254  1
  Mo  Mo196  1  0.40158141  -0.00939568  0.24876049  1
  Mo  Mo197  1  0.60216495  0.39994658  0.75526982  1
  Mo  Mo198  1  0.89675435  0.89234366  0.14358386  1
  Mo  Mo199  1  0.89262716  0.50539149  0.88410672  1
