# generated using pymatgen
data_HfZrTaTiMo
_symmetry_space_group_name_H-M   'P 1'
_cell_length_a   15.20660056
_cell_length_b   15.22165004
_cell_length_c   16.83981453
_cell_angle_alpha   90.03505723
_cell_angle_beta   89.95939837
_cell_angle_gamma   89.88859484
_symmetry_Int_Tables_number   1
_chemical_formula_structural   HfZrTaTiMo
_chemical_formula_sum   'Hf40 Zr40 Ta40 Ti40 Mo40'
_cell_volume   3897.89524541
_cell_formula_units_Z   40
loop_
 _symmetry_equiv_pos_site_id
 _symmetry_equiv_pos_as_xyz
  1  'x, y, z'
loop_
 _atom_site_type_symbol
 _atom_site_label
 _atom_site_symmetry_multiplicity
 _atom_site_fract_x
 _atom_site_fract_y
 _atom_site_fract_z
 _atom_site_occupancy
  Hf  Hf0  1  0.59506963  0.39756603  0.25392576  1
  Hf  Hf1  1  0.39414242  -0.00485540  0.24440548  1
  Hf  Hf2  1  0.88724417  0.50548854  0.13039819  1
  Hf  Hf3  1  0.00274895  0.22139407  0.00236331  1
  Hf  Hf4  1  0.19127118  0.59906388  -0.00028992  1
  Hf  Hf5  1  0.80441016  0.40305923  0.73837146  1
  Hf  Hf6  1  0.50523214  0.89252260  0.12655726  1
  Hf  Hf7  1  0.60145222  0.20521575  0.25094963  1
  Hf  Hf8  1  0.80891463  0.19824296  0.24345432  1
  Hf  Hf9  1  0.20089709  0.59201846  0.49127325  1
  Hf  Hf10  1  0.41046741  0.78776776  -0.00433418  1
  Hf  Hf11  1  0.29845480  0.47534656  0.87590209  1
  Hf  Hf12  1  0.28788107  0.31435345  0.64055331  1
  Hf  Hf13  1  -0.00655327  0.81096386  0.48429295  1
  Hf  Hf14  1  0.50481995  0.10543239  0.63351698  1
  Hf  Hf15  1  0.39374792  0.58668054  0.25413433  1
  Hf  Hf16  1  0.49243277  0.29582999  0.38438234  1
  Hf  Hf17  1  0.08210853  0.29411841  0.63571158  1
  Hf  Hf18  1  0.80521687  0.39586417  0.51567158  1
  Hf  Hf19  1  0.61460799  0.78702195  0.50036741  1
  Hf  Hf20  1  0.78583352  0.60033736  0.49000722  1
  Hf  Hf21  1  0.89730266  0.90666262  0.12014414  1
  Hf  Hf22  1  0.19438178  0.40076108  0.49326252  1
  Hf  Hf23  1  0.61664109  0.00280345  0.50044865  1
  Hf  Hf24  1  0.09318527  0.92694048  0.36406190  1
  Hf  Hf25  1  0.08263853  0.69344589  0.61285042  1
  Hf  Hf26  1  0.50934021  0.89995073  0.63426460  1
  Hf  Hf27  1  0.49222886  0.48318733  0.11526501  1
  Hf  Hf28  1  0.60192847  0.59995390  -0.00563880  1
  Hf  Hf29  1  0.40318025  0.78933160  0.74249114  1
  Hf  Hf30  1  0.10679038  0.10439544  0.90113742  1
  Hf  Hf31  1  0.10931844  0.70598796  0.36140775  1
  Hf  Hf32  1  0.79168360  0.61284192  0.26858543  1
  Hf  Hf33  1  0.50420705  0.69101773  0.12299720  1
  Hf  Hf34  1  0.60905837  0.00251073  0.25632682  1
  Hf  Hf35  1  0.81980526  -0.00101818  0.50332788  1
  Hf  Hf36  1  0.80423266  0.01368519  0.76153354  1
  Hf  Hf37  1  0.29606427  0.69891459  0.87403908  1
  Hf  Hf38  1  0.61326447  0.77348014  0.74514345  1
  Hf  Hf39  1  0.90242651  0.89456364  0.87803425  1
  Zr  Zr40  1  -0.00023602  0.78279219  0.75388726  1
  Zr  Zr41  1  0.39927367  0.00383097  0.49991409  1
  Zr  Zr42  1  0.59940284  0.58773053  0.25665705  1
  Zr  Zr43  1  0.19160454  0.60171386  0.75498567  1
  Zr  Zr44  1  0.00550371  0.19318255  0.49815284  1
  Zr  Zr45  1  0.71508829  0.89067584  0.63715199  1
  Zr  Zr46  1  0.50800939  0.10459034  0.11351551  1
  Zr  Zr47  1  0.21338382  0.80452715  0.00863422  1
  Zr  Zr48  1  0.91353470  0.09481172  0.36913789  1
  Zr  Zr49  1  0.47861015  0.30365462  0.87928984  1
  Zr  Zr50  1  0.49743464  0.10317505  0.38052420  1
  Zr  Zr51  1  0.39307632  0.20692529  0.23637106  1
  Zr  Zr52  1  0.70922364  0.09375973  0.11758342  1
  Zr  Zr53  1  0.39787847  0.39677588  0.51457495  1
  Zr  Zr54  1  0.70576840  0.89306744  0.12457099  1
  Zr  Zr55  1  0.40684495  -0.01408325  -0.00084662  1
  Zr  Zr56  1  0.69350646  0.30465164  0.11317063  1
  Zr  Zr57  1  0.29248869  0.11192623  0.61896566  1
  Zr  Zr58  1  0.30355883  0.90521686  0.62402141  1
  Zr  Zr59  1  0.71677007  0.69494193  0.88166206  1
  Zr  Zr60  1  0.10608446  0.89938485  0.88615056  1
  Zr  Zr61  1  0.29275374  0.89567818  0.37543587  1
  Zr  Zr62  1  0.10577714  0.49225779  0.63309094  1
  Zr  Zr63  1  0.30905877  0.11026017  0.89056981  1
  Zr  Zr64  1  0.20545272  0.01301206  0.75291311  1
  Zr  Zr65  1  0.68490526  0.29852680  0.63665347  1
  Zr  Zr66  1  0.89546543  0.48215413  0.36867460  1
  Zr  Zr67  1  0.40730758  0.58578799  0.74859831  1
  Zr  Zr68  1  0.10553548  0.90682234  0.12859812  1
  Zr  Zr69  1  0.88902622  0.50827231  0.88190795  1
  Zr  Zr70  1  0.19529444  0.80295116  0.74191154  1
  Zr  Zr71  1  0.50155003  0.89219540  0.38120877  1
  Zr  Zr72  1  0.29289047  0.09518775  0.10616399  1
  Zr  Zr73  1  0.10569232  0.70073507  0.14733854  1
  Zr  Zr74  1  0.28391556  0.11141161  0.37625095  1
  Zr  Zr75  1  0.19868748  0.80522200  0.50493512  1
  Zr  Zr76  1  -0.00884069  0.21044815  0.76748535  1
  Zr  Zr77  1  0.61114723  0.78650772  0.26087244  1
  Zr  Zr78  1  0.91139263  0.89994651  0.63420457  1
  Zr  Zr79  1  0.79886663  0.61250429  0.73720874  1
  Ta  Ta80  1  0.79304162  -0.00030507  -0.01687043  1
  Ta  Ta81  1  0.69832816  0.90021872  0.86235824  1
  Ta  Ta82  1  0.50577477  0.09262895  0.86390613  1
  Ta  Ta83  1  0.79375447  0.20450169  -0.01296953  1
  Ta  Ta84  1  -0.00049895  0.60331630  0.01220453  1
  Ta  Ta85  1  0.39882939  0.59019087  0.50450152  1
  Ta  Ta86  1  0.09706478  0.10267289  0.10475666  1
  Ta  Ta87  1  0.09800645  0.29315758  0.36068345  1
  Ta  Ta88  1  0.71059476  0.69453729  0.11782429  1
  Ta  Ta89  1  0.31208697  0.90478409  0.86644640  1
  Ta  Ta90  1  0.08441157  0.50479475  0.86992198  1
  Ta  Ta91  1  0.00360791  0.79014998  0.00301325  1
  Ta  Ta92  1  0.90785094  0.11299513  0.63191040  1
  Ta  Ta93  1  0.70677611  0.30183682  0.38228022  1
  Ta  Ta94  1  0.69665567  0.30646218  0.87220635  1
  Ta  Ta95  1  0.89557361  0.31800331  0.88598333  1
  Ta  Ta96  1  0.00339257  0.41333839  0.01152433  1
  Ta  Ta97  1  0.59113730  0.39688921  -0.00929664  1
  Ta  Ta98  1  0.30113646  0.68686670  0.62058793  1
  Ta  Ta99  1  0.60180817  0.40574697  0.49956788  1
  Ta  Ta100  1  0.71005546  0.10735836  0.37759676  1
  Ta  Ta101  1  0.49625078  0.69003794  0.38707632  1
  Ta  Ta102  1  0.29433145  0.30895069  0.37141705  1
  Ta  Ta103  1  0.00282808  0.39603112  0.49224967  1
  Ta  Ta104  1  0.72023259  0.90462420  0.36835518  1
  Ta  Ta105  1  0.90410867  0.10281730  0.89019405  1
  Ta  Ta106  1  0.30627245  0.69337737  0.37386554  1
  Ta  Ta107  1  0.00821413  0.01145729  0.75688009  1
  Ta  Ta108  1  -0.00708719  0.60129656  0.25975890  1
  Ta  Ta109  1  0.79793644  0.19826712  0.50676926  1
  Ta  Ta110  1  0.59908470  0.20546050  0.50501825  1
  Ta  Ta111  1  0.51551136  0.67360891  0.61582749  1
  Ta  Ta112  1  0.39386851  0.19928827  0.75048322  1
  Ta  Ta113  1  0.10529491  0.49264069  0.35404329  1
  Ta  Ta114  1  0.20661186  0.39690799  0.24195650  1
  Ta  Ta115  1  0.50605384  0.89618504  0.85660419  1
  Ta  Ta116  1  0.39912613  0.79041871  0.25107972  1
  Ta  Ta117  1  0.89664974  0.70723771  0.13174032  1
  Ta  Ta118  1  0.09636940  0.50133130  0.14356829  1
  Ta  Ta119  1  -0.01414145  0.80683234  0.26030625  1
  Ti  Ti120  1  0.41321782  0.39838250  0.73935282  1
  Ti  Ti121  1  0.59609981  0.20482221  0.75861776  1
  Ti  Ti122  1  0.69859691  0.49097314  0.88074401  1
  Ti  Ti123  1  0.50417499  0.69073537  0.87348676  1
  Ti  Ti124  1  0.88825199  0.70248664  0.61538071  1
  Ti  Ti125  1  0.80424064  0.79466940  -0.00202809  1
  Ti  Ti126  1  0.39734544  0.39352407  0.24552310  1
  Ti  Ti127  1  0.69941414  0.50056621  0.11386952  1
  Ti  Ti128  1  0.10428905  0.32112223  0.87414840  1
  Ti  Ti129  1  0.79824859  0.20445107  0.76283319  1
  Ti  Ti130  1  0.21236292  0.22872631  0.00622359  1
  Ti  Ti131  1  0.90085277  0.29181995  0.37179399  1
  Ti  Ti132  1  0.59837300  0.57479323  0.75939637  1
  Ti  Ti133  1  0.19520699  0.20673477  0.23169404  1
  Ti  Ti134  1  0.70330146  0.09973898  0.63349044  1
  Ti  Ti135  1  0.39772639  0.58463170  -0.00691600  1
  Ti  Ti136  1  0.18997540  0.40464725  0.01245844  1
  Ti  Ti137  1  0.19878758  0.21133029  0.49905244  1
  Ti  Ti138  1  0.17444703  0.01970707  0.50019911  1
  Ti  Ti139  1  0.09676348  0.91836461  0.62329987  1
  Ti  Ti140  1  0.60578085  0.80482482  -0.01027252  1
  Ti  Ti141  1  0.78836285  0.39879303  0.25110668  1
  Ti  Ti142  1  0.49005335  0.49344463  0.38100065  1
  Ti  Ti143  1  0.29400050  0.50265864  0.12246764  1
  Ti  Ti144  1  -0.00540623  0.59325133  0.47753818  1
  Ti  Ti145  1  0.19676490  0.01293206  0.24223796  1
  Ti  Ti146  1  0.91399985  0.69242167  0.87921286  1
  Ti  Ti147  1  0.89169287  0.30694332  0.11573658  1
  Ti  Ti148  1  0.59608049  0.19528164  -0.01441592  1
  Ti  Ti149  1  0.40298575  0.78840097  0.50929926  1
  Ti  Ti150  1  -0.00684767  0.01512680  0.23646123  1
  Ti  Ti151  1  0.19361142  0.20581562  0.76119940  1
  Ti  Ti152  1  0.30119940  0.69888292  0.13524550  1
  Ti  Ti153  1  -0.00326810  0.38836089  0.23977563  1
  Ti  Ti154  1  0.90122085  0.10064355  0.10356508  1
  Ti  Ti155  1  0.60599906  -0.00328328  -0.01623540  1
  Ti  Ti156  1  0.68083406  0.51292597  0.62366736  1
  Ti  Ti157  1  0.91802456  0.50366703  0.62234810  1
  Ti  Ti158  1  0.00774330  0.20168867  0.23051303  1
  Ti  Ti159  1  0.80504538  0.79581586  0.48281632  1
  Mo  Mo160  1  0.09652503  0.30553228  0.13036443  1
  Mo  Mo161  1  0.59608168  0.40292855  0.76088762  1
  Mo  Mo162  1  0.90306261  0.69972204  0.37757311  1
  Mo  Mo163  1  0.80668499  0.00386701  0.24949618  1
  Mo  Mo164  1  0.80773550  0.60461166  0.00932329  1
  Mo  Mo165  1  -0.00919616  0.59424045  0.74484317  1
  Mo  Mo166  1  0.30312472  0.50553469  0.63157140  1
  Mo  Mo167  1  0.40563734  0.20817672  0.00264159  1
  Mo  Mo168  1  0.20283863  -0.00235684  0.00048176  1
  Mo  Mo169  1  0.70389913  0.69337984  0.61872548  1
  Mo  Mo170  1  0.00610422  0.00328113  0.50406207  1
  Mo  Mo171  1  0.30033448  0.31122803  0.12364286  1
  Mo  Mo172  1  0.09381223  0.10032354  0.63297118  1
  Mo  Mo173  1  -0.00615632  0.00215961  0.00431612  1
  Mo  Mo174  1  0.69649038  0.10791149  0.87394753  1
  Mo  Mo175  1  0.28661343  0.29788044  0.86583960  1
  Mo  Mo176  1  0.90021623  0.90540066  0.36510543  1
  Mo  Mo177  1  0.30339204  0.88876274  0.13843949  1
  Mo  Mo178  1  0.10519410  0.11489636  0.35979359  1
  Mo  Mo179  1  0.21114280  0.80795457  0.25039894  1
  Mo  Mo180  1  0.69186190  0.48625409  0.37999218  1
  Mo  Mo181  1  0.80616460  0.80120615  0.75340654  1
  Mo  Mo182  1  0.37974801  0.39181250  0.00752023  1
  Mo  Mo183  1  0.49644969  0.29731669  0.10692150  1
  Mo  Mo184  1  0.19592113  0.39555609  0.75874118  1
  Mo  Mo185  1  -0.00551922  0.40819625  0.75675847  1
  Mo  Mo186  1  0.20526497  0.59643417  0.25333966  1
  Mo  Mo187  1  0.40656156  0.00279742  0.75466682  1
  Mo  Mo188  1  0.89571041  0.30253737  0.62436555  1
  Mo  Mo189  1  0.30124001  0.49375269  0.36973661  1
  Mo  Mo190  1  0.39421873  0.20847842  0.50836495  1
  Mo  Mo191  1  0.59279404  0.58844007  0.49010929  1
  Mo  Mo192  1  0.60515163  0.00271108  0.75356596  1
  Mo  Mo193  1  0.49995315  0.49897883  0.88616011  1
  Mo  Mo194  1  0.09127999  0.69223255  0.88572188  1
  Mo  Mo195  1  0.80489928  0.80247602  0.25609351  1
  Mo  Mo196  1  0.50883172  0.48758367  0.62568578  1
  Mo  Mo197  1  0.79621510  0.40003319  0.00001915  1
  Mo  Mo198  1  0.49729259  0.29182588  0.63013794  1
  Mo  Mo199  1  0.69519847  0.70222104  0.37965545  1
