# generated using pymatgen
data_HfZrTaTiMo
_symmetry_space_group_name_H-M   'P 1'
_cell_length_a   15.20302102
_cell_length_b   15.20672694
_cell_length_c   16.86207169
_cell_angle_alpha   89.98433234
_cell_angle_beta   90.03826783
_cell_angle_gamma   89.72097173
_symmetry_Int_Tables_number   1
_chemical_formula_structural   HfZrTaTiMo
_chemical_formula_sum   'Hf40 Zr40 Ta40 Ti40 Mo40'
_cell_volume   3898.26457811
_cell_formula_units_Z   40
loop_
 _symmetry_equiv_pos_site_id
 _symmetry_equiv_pos_as_xyz
  1  'x, y, z'
loop_
 _atom_site_type_symbol
 _atom_site_label
 _atom_site_symmetry_multiplicity
 _atom_site_fract_x
 _atom_site_fract_y
 _atom_site_fract_z
 _atom_site_occupancy
  Hf  Hf0  1  0.90137155  0.71411778  0.12593857  1
  Hf  Hf1  1  0.39434696  0.80920337  0.00316910  1
  Hf  Hf2  1  0.10131151  0.09794405  0.63384937  1
  Hf  Hf3  1  0.11924818  0.89584604  0.86957876  1
  Hf  Hf4  1  0.29246481  0.70062169  0.59935374  1
  Hf  Hf5  1  0.58614927  0.42215120  0.50925299  1
  Hf  Hf6  1  0.38783020  0.59048298  0.73908440  1
  Hf  Hf7  1  0.30160569  0.49090716  0.87346609  1
  Hf  Hf8  1  0.50073275  0.69174902  0.87780487  1
  Hf  Hf9  1  0.00935976  0.00642494  -0.00323005  1
  Hf  Hf10  1  0.59242339  0.59670581  0.73770896  1
  Hf  Hf11  1  0.09434139  0.30395648  0.86418949  1
  Hf  Hf12  1  0.41103809  0.79928432  0.74890644  1
  Hf  Hf13  1  0.59342450  0.40989725  0.00029703  1
  Hf  Hf14  1  0.57705348  0.40305539  0.74419708  1
  Hf  Hf15  1  0.89077807  0.29674053  0.12439104  1
  Hf  Hf16  1  0.50158735  0.90185062  0.87774618  1
  Hf  Hf17  1  0.78174144  0.40819429  0.74651331  1
  Hf  Hf18  1  0.68108100  0.51680801  0.36768033  1
  Hf  Hf19  1  0.60664881  0.20513794  -0.01470395  1
  Hf  Hf20  1  0.69346799  0.29523199  0.38511010  1
  Hf  Hf21  1  0.51025679  0.11534200  0.38042623  1
  Hf  Hf22  1  0.31679355  0.89891709  0.60522553  1
  Hf  Hf23  1  0.69005791  0.50471200  0.13090054  1
  Hf  Hf24  1  0.61272494  0.00220270  -0.00844775  1
  Hf  Hf25  1  0.61858052  0.79623855  0.25271154  1
  Hf  Hf26  1  -0.00850858  0.39464926  0.51227948  1
  Hf  Hf27  1  0.00762576  0.59412182  0.51283899  1
  Hf  Hf28  1  0.19603303  -0.00810176  0.49393721  1
  Hf  Hf29  1  0.77860812  0.61428511  0.50686313  1
  Hf  Hf30  1  0.90617242  0.90236356  0.86100680  1
  Hf  Hf31  1  0.01165441  0.80046665  0.49233530  1
  Hf  Hf32  1  0.21050179  0.77691518  0.26781098  1
  Hf  Hf33  1  -0.00410294  0.40609721  0.74155309  1
  Hf  Hf34  1  0.18405668  0.41569615  0.49925608  1
  Hf  Hf35  1  0.79126896  -0.00140508  0.25016579  1
  Hf  Hf36  1  -0.00131807  -0.01033257  0.24926331  1
  Hf  Hf37  1  0.60207398  0.19855444  0.75710887  1
  Hf  Hf38  1  0.31515917  0.09093975  0.13134579  1
  Hf  Hf39  1  0.49111205  0.10681887  0.87515113  1
  Zr  Zr40  1  0.80239278  0.19360836  0.50914270  1
  Zr  Zr41  1  0.79140100  0.39692713  0.24707890  1
  Zr  Zr42  1  0.21989243  -0.01651406  0.25266558  1
  Zr  Zr43  1  -0.00406621  0.00560730  0.50129975  1
  Zr  Zr44  1  -0.00444124  0.80089255  -0.00612968  1
  Zr  Zr45  1  0.89401972  0.50480100  0.37943463  1
  Zr  Zr46  1  0.10764875  0.68048741  0.13759958  1
  Zr  Zr47  1  0.18970336  0.40344620  0.25161525  1
  Zr  Zr48  1  0.00141359  0.20099269  -0.00684319  1
  Zr  Zr49  1  0.49844943  0.90855075  0.13284422  1
  Zr  Zr50  1  0.40685089  0.21332196  0.25135010  1
  Zr  Zr51  1  0.89740212  0.71660640  0.62912225  1
  Zr  Zr52  1  0.59723355  -0.01606565  0.51521430  1
  Zr  Zr53  1  0.50966168  0.70997865  0.61010549  1
  Zr  Zr54  1  0.70808202  0.09310993  0.63530247  1
  Zr  Zr55  1  0.51686602  0.10308187  0.12825515  1
  Zr  Zr56  1  0.50748040  0.91970600  0.36257047  1
  Zr  Zr57  1  0.40017877  0.00444957  0.74332012  1
  Zr  Zr58  1  0.10019190  0.88777266  0.13174058  1
  Zr  Zr59  1  0.19504088  0.39858762  0.00581682  1
  Zr  Zr60  1  0.31448408  0.09201219  0.37985622  1
  Zr  Zr61  1  0.89521571  0.29972080  0.37326020  1
  Zr  Zr62  1  0.40035141  0.79770418  0.26304278  1
  Zr  Zr63  1  0.20291875  0.77135721  0.00022066  1
  Zr  Zr64  1  0.21336332  0.79240863  0.75004417  1
  Zr  Zr65  1  0.89390567  0.29180679  0.63286739  1
  Zr  Zr66  1  0.10007082  0.51838117  0.86743975  1
  Zr  Zr67  1  0.89204902  0.50258256  0.86934206  1
  Zr  Zr68  1  0.58411458  0.39217552  0.25048447  1
  Zr  Zr69  1  0.19181936  0.20226174  0.49284212  1
  Zr  Zr70  1  0.29583149  0.28203830  0.87654489  1
  Zr  Zr71  1  0.80368359  0.19296487  -0.02496146  1
  Zr  Zr72  1  0.49456298  0.30488987  0.11744595  1
  Zr  Zr73  1  0.90167411  0.91229564  0.63967845  1
  Zr  Zr74  1  0.30558451  0.30923505  0.38410987  1
  Zr  Zr75  1  0.22218760  -0.01528605  0.00887509  1
  Zr  Zr76  1  0.89190287  0.70047906  0.86509699  1
  Zr  Zr77  1  0.89444259  0.10214510  0.36917094  1
  Zr  Zr78  1  0.72053308  0.89884958  0.11479602  1
  Zr  Zr79  1  0.30533787  0.30197093  0.61508992  1
  Ta  Ta80  1  0.09472202  0.29687644  0.12669979  1
  Ta  Ta81  1  -0.01106781  0.40282775  -0.00037088  1
  Ta  Ta82  1  0.08812138  0.49599516  0.12265122  1
  Ta  Ta83  1  0.38320607  0.41767546  0.24559703  1
  Ta  Ta84  1  0.70178932  0.69768567  0.12615381  1
  Ta  Ta85  1  0.78221728  0.61568352  0.74029936  1
  Ta  Ta86  1  0.00488329  0.19869120  0.50151474  1
  Ta  Ta87  1  0.48481155  0.31184453  0.87953459  1
  Ta  Ta88  1  0.79509250  0.40479945  -0.00259599  1
  Ta  Ta89  1  0.69704841  0.09006926  0.38115955  1
  Ta  Ta90  1  0.28491881  0.52033902  0.37696208  1
  Ta  Ta91  1  0.50005068  0.69866170  0.12868529  1
  Ta  Ta92  1  0.71019536  0.89185674  0.38343390  1
  Ta  Ta93  1  0.19749877  0.20002267  0.25161753  1
  Ta  Ta94  1  0.00343623  0.60047719  0.00024876  1
  Ta  Ta95  1  0.89898703  0.09256113  0.12621295  1
  Ta  Ta96  1  -0.00196788  0.20141707  0.24339491  1
  Ta  Ta97  1  0.60924387  0.78915579  0.00133703  1
  Ta  Ta98  1  0.61907521  0.79253381  0.75320936  1
  Ta  Ta99  1  0.48200657  0.51513849  0.13245796  1
  Ta  Ta100  1  0.10092621  0.29598629  0.63657998  1
  Ta  Ta101  1  -0.00546897  0.40341990  0.24455143  1
  Ta  Ta102  1  0.11249375  0.10240476  0.86457624  1
  Ta  Ta103  1  0.79276971  0.61046476  0.00150890  1
  Ta  Ta104  1  0.10419619  0.10200977  0.13479832  1
  Ta  Ta105  1  0.89605203  0.51032060  0.12320162  1
  Ta  Ta106  1  0.40775158  0.58865122  0.49676560  1
  Ta  Ta107  1  0.49633860  0.10633349  0.62258650  1
  Ta  Ta108  1  0.38650644  0.60404430  0.00383267  1
  Ta  Ta109  1  0.68902417  0.51732376  0.87782174  1
  Ta  Ta110  1  0.69025193  0.30168869  0.62759285  1
  Ta  Ta111  1  0.00129648  0.78997390  0.26803670  1
  Ta  Ta112  1  0.80664356  0.20095360  0.77359100  1
  Ta  Ta113  1  0.20768846  0.40369588  0.73993926  1
  Ta  Ta114  1  0.41807711  0.80643135  0.48132948  1
  Ta  Ta115  1  0.70872600  0.88505019  0.87885330  1
  Ta  Ta116  1  0.10864067  0.88671955  0.62693187  1
  Ta  Ta117  1  0.30618506  0.10355568  0.61188135  1
  Ta  Ta118  1  0.09827036  0.10320099  0.36278441  1
  Ta  Ta119  1  0.79705471  0.61473246  0.25168671  1
  Ti  Ti120  1  0.71278627  0.10546261  0.12178718  1
  Ti  Ti121  1  0.00050380  0.59534931  0.25909288  1
  Ti  Ti122  1  0.40105302  0.21131240  0.74587513  1
  Ti  Ti123  1  0.30037705  0.07922791  0.88028987  1
  Ti  Ti124  1  0.39257898  0.19629301  0.00220257  1
  Ti  Ti125  1  0.81424388  -0.00178632  -0.01272364  1
  Ti  Ti126  1  0.49094072  0.49974218  0.87869331  1
  Ti  Ti127  1  0.62285963  0.19369823  0.25070128  1
  Ti  Ti128  1  0.29161111  0.29856433  0.12545835  1
  Ti  Ti129  1  0.11403133  0.67110859  0.38095112  1
  Ti  Ti130  1  0.60137561  0.20282040  0.51138392  1
  Ti  Ti131  1  0.28829309  0.68735054  0.87219763  1
  Ti  Ti132  1  0.70354518  0.87311204  0.62078626  1
  Ti  Ti133  1  0.39112258  0.40685117  0.01137416  1
  Ti  Ti134  1  0.78678908  0.40568041  0.51280232  1
  Ti  Ti135  1  0.69607110  0.31590770  0.87294230  1
  Ti  Ti136  1  0.48974123  0.30541729  0.61660357  1
  Ti  Ti137  1  0.49601691  0.30968414  0.38926209  1
  Ti  Ti138  1  0.90019372  0.89940002  0.38097617  1
  Ti  Ti139  1  0.01553877  0.78609456  0.75123226  1
  Ti  Ti140  1  0.19610155  0.18963401  0.00621763  1
  Ti  Ti141  1  0.28529777  0.52145366  0.12973966  1
  Ti  Ti142  1  0.88742987  0.50838522  0.62979913  1
  Ti  Ti143  1  0.51902199  0.68797478  0.37677353  1
  Ti  Ti144  1  0.18162179  0.60328714  0.73054149  1
  Ti  Ti145  1  0.08867081  0.30133444  0.36927361  1
  Ti  Ti146  1  0.90599968  0.10448523  0.64613229  1
  Ti  Ti147  1  0.81642381  0.80449686  0.25478771  1
  Ti  Ti148  1  0.80112171  -0.00630141  0.50572765  1
  Ti  Ti149  1  0.10573185  0.89717867  0.37152486  1
  Ti  Ti150  1  0.69844366  0.29404099  0.11902519  1
  Ti  Ti151  1  0.01260113  0.00446993  0.75565940  1
  Ti  Ti152  1  0.20765656  0.19235637  0.74686779  1
  Ti  Ti153  1  0.59165417  0.60177375  0.00509978  1
  Ti  Ti154  1  0.89448162  0.70457877  0.38178603  1
  Ti  Ti155  1  0.21184881  -0.00604135  0.74334509  1
  Ti  Ti156  1  0.60038727  -0.01341723  0.74506545  1
  Ti  Ti157  1  0.48293332  0.50363104  0.36298392  1
  Ti  Ti158  1  0.79098723  0.00093174  0.76116338  1
  Ti  Ti159  1  0.29867971  0.49718665  0.61486946  1
  Mo  Mo160  1  0.39527118  0.39723154  0.74951551  1
  Mo  Mo161  1  0.48281692  0.49788928  0.62253349  1
  Mo  Mo162  1  0.19999125  0.59308074  0.00002107  1
  Mo  Mo163  1  0.90579627  0.90571841  0.12471973  1
  Mo  Mo164  1  0.09897056  0.49889048  0.63518723  1
  Mo  Mo165  1  0.80652660  0.81100395  0.49548497  1
  Mo  Mo166  1  0.61572317  0.78747419  0.48663295  1
  Mo  Mo167  1  0.40365651  0.00504318  -0.00309204  1
  Mo  Mo168  1  0.51360236  0.89950347  0.62934870  1
  Mo  Mo169  1  0.69952013  0.08558438  0.86338247  1
  Mo  Mo170  1  0.89490868  0.30971692  0.87436856  1
  Mo  Mo171  1  0.59118960  0.60572620  0.24444020  1
  Mo  Mo172  1  0.79428612  0.19406119  0.24254680  1
  Mo  Mo173  1  0.41202316  0.20178624  0.50394642  1
  Mo  Mo174  1  0.31486962  0.69087265  0.13096796  1
  Mo  Mo175  1  0.79450812  0.80852169  0.75145256  1
  Mo  Mo176  1  -0.00468654  0.60260777  0.72955547  1
  Mo  Mo177  1  0.00565875  0.19739835  0.75876652  1
  Mo  Mo178  1  0.10009614  0.70692100  0.61909541  1
  Mo  Mo179  1  0.08772977  0.49566838  0.37244222  1
  Mo  Mo180  1  0.30483607  0.89603391  0.39189573  1
  Mo  Mo181  1  0.09716485  0.69190811  0.86986842  1
  Mo  Mo182  1  0.30909305  0.69513969  0.39510163  1
  Mo  Mo183  1  0.69457822  0.69402558  0.88035838  1
  Mo  Mo184  1  0.61453074  0.00841447  0.25111058  1
  Mo  Mo185  1  0.91201758  0.09624346  0.86003794  1
  Mo  Mo186  1  0.40861689  0.00347345  0.25310777  1
  Mo  Mo187  1  0.19502800  0.59946673  0.50779094  1
  Mo  Mo188  1  0.70113545  0.70195076  0.62393582  1
  Mo  Mo189  1  0.30909652  0.88704269  0.13212446  1
  Mo  Mo190  1  0.30844401  0.89737176  0.86964344  1
  Mo  Mo191  1  0.39430048  0.40754189  0.49081771  1
  Mo  Mo192  1  0.79851524  0.80115614  -0.00142791  1
  Mo  Mo193  1  0.40691188  0.00360618  0.50914269  1
  Mo  Mo194  1  0.69556614  0.50029580  0.62368426  1
  Mo  Mo195  1  0.70902492  0.70359818  0.36790369  1
  Mo  Mo196  1  0.20161852  0.59029404  0.25492427  1
  Mo  Mo197  1  0.39246340  0.60607121  0.25638186  1
  Mo  Mo198  1  0.20207513  0.79674281  0.47954618  1
  Mo  Mo199  1  0.59187260  0.60678699  0.49862340  1
