# generated using pymatgen
data_HfZrTaTiMo
_symmetry_space_group_name_H-M   'P 1'
_cell_length_a   15.20288091
_cell_length_b   15.20567386
_cell_length_c   16.85820824
_cell_angle_alpha   89.99421657
_cell_angle_beta   90.06695328
_cell_angle_gamma   90.00571210
_symmetry_Int_Tables_number   1
_chemical_formula_structural   HfZrTaTiMo
_chemical_formula_sum   'Hf40 Zr40 Ta40 Ti40 Mo40'
_cell_volume   3897.11012584
_cell_formula_units_Z   40
loop_
 _symmetry_equiv_pos_site_id
 _symmetry_equiv_pos_as_xyz
  1  'x, y, z'
loop_
 _atom_site_type_symbol
 _atom_site_label
 _atom_site_symmetry_multiplicity
 _atom_site_fract_x
 _atom_site_fract_y
 _atom_site_fract_z
 _atom_site_occupancy
  Hf  Hf0  1  0.38795896  0.59488595  0.00737441  1
  Hf  Hf1  1  0.50249939  0.29537540  0.88269000  1
  Hf  Hf2  1  0.19476938  0.00134075  0.26196555  1
  Hf  Hf3  1  0.68777578  0.89536522  0.87188500  1
  Hf  Hf4  1  0.30725711  0.51047654  0.37011706  1
  Hf  Hf5  1  0.68506903  0.90961022  0.12538331  1
  Hf  Hf6  1  0.31384652  0.09149893  0.85940329  1
  Hf  Hf7  1  0.19944113  0.40917977  0.49797505  1
  Hf  Hf8  1  0.29957695  0.29915572  0.62595139  1
  Hf  Hf9  1  -0.01189372  -0.00827383  0.00019214  1
  Hf  Hf10  1  0.40722003  0.58960782  0.74278882  1
  Hf  Hf11  1  0.10943003  0.71759244  0.61291024  1
  Hf  Hf12  1  0.29119983  0.68674178  0.87065151  1
  Hf  Hf13  1  0.18745363  0.59463530  0.01006256  1
  Hf  Hf14  1  -0.01220472  0.00253239  0.74803433  1
  Hf  Hf15  1  0.28577780  0.70546158  0.13836804  1
  Hf  Hf16  1  0.29510135  0.09740978  0.63037083  1
  Hf  Hf17  1  0.61326150  0.61144880  0.25116726  1
  Hf  Hf18  1  0.18662347  0.79388143  -0.00229333  1
  Hf  Hf19  1  0.58278350  -0.00637757  0.74845849  1
  Hf  Hf20  1  0.20345546  0.20957702  0.24969583  1
  Hf  Hf21  1  0.39867504  0.80124289  0.74797607  1
  Hf  Hf22  1  0.09538343  0.09916695  0.12063632  1
  Hf  Hf23  1  0.50387211  0.68476646  0.39340527  1
  Hf  Hf24  1  0.18940424  0.20550180  0.49219100  1
  Hf  Hf25  1  0.51044252  0.27887275  0.12469437  1
  Hf  Hf26  1  0.30686979  0.30850541  0.37319590  1
  Hf  Hf27  1  0.50228234  0.10051273  0.61818643  1
  Hf  Hf28  1  0.89671446  0.71548208  0.39166674  1
  Hf  Hf29  1  0.78847989  0.00129692  0.75005942  1
  Hf  Hf30  1  0.80474924  0.61749613  0.73897213  1
  Hf  Hf31  1  0.00496475  0.20751880  -0.01298571  1
  Hf  Hf32  1  0.40807956  0.60148101  0.24382455  1
  Hf  Hf33  1  0.11559753  0.49955501  0.86695262  1
  Hf  Hf34  1  0.21186062  -0.00226865  -0.00963082  1
  Hf  Hf35  1  0.51328424  0.70287267  0.87443970  1
  Hf  Hf36  1  0.01104531  0.59856896  0.49439627  1
  Hf  Hf37  1  0.49367373  0.72396109  0.11961955  1
  Hf  Hf38  1  0.10267155  0.89328861  0.12908249  1
  Hf  Hf39  1  0.70296135  0.88666271  0.37874253  1
  Zr  Zr40  1  0.27905006  0.88502917  0.61927188  1
  Zr  Zr41  1  0.91073657  0.51440211  0.86174950  1
  Zr  Zr42  1  0.41323188  0.20648044  0.74616579  1
  Zr  Zr43  1  -0.00245328  0.19294238  0.25148865  1
  Zr  Zr44  1  0.90004541  0.30930496  0.12696516  1
  Zr  Zr45  1  -0.01792564  0.60309685  0.26386591  1
  Zr  Zr46  1  0.40728343  -0.02662645  0.26719589  1
  Zr  Zr47  1  0.69416169  0.10762493  0.13380923  1
  Zr  Zr48  1  0.57889484  0.39856691  0.73498765  1
  Zr  Zr49  1  0.60508313  0.39648183  0.25105222  1
  Zr  Zr50  1  0.20513353  0.40078067  0.01165427  1
  Zr  Zr51  1  0.80372199  0.20164907  -0.00917079  1
  Zr  Zr52  1  0.39363190  0.82221008  -0.01704827  1
  Zr  Zr53  1  0.18842941  0.00005350  0.75269135  1
  Zr  Zr54  1  0.08029124  0.89748991  0.37564277  1
  Zr  Zr55  1  0.20992818  0.20464597  0.00069195  1
  Zr  Zr56  1  0.70831593  0.10131186  0.37181169  1
  Zr  Zr57  1  0.80618392  0.38972812  0.50450569  1
  Zr  Zr58  1  0.58068981  0.81131002  0.25920765  1
  Zr  Zr59  1  0.80544370  0.40074910  0.74414639  1
  Zr  Zr60  1  0.08601467  0.89785697  0.87848424  1
  Zr  Zr61  1  0.51282890  0.49550617  0.11886698  1
  Zr  Zr62  1  0.61409604  0.60132344  0.00256125  1
  Zr  Zr63  1  0.40914014  0.18172086  -0.00156995  1
  Zr  Zr64  1  0.73879532  0.50425463  0.13781888  1
  Zr  Zr65  1  0.59934936  -0.00527810  0.49515094  1
  Zr  Zr66  1  0.49107956  0.49183551  0.88394307  1
  Zr  Zr67  1  0.89504984  0.88810110  0.13331981  1
  Zr  Zr68  1  0.31069842  0.09402719  0.13498777  1
  Zr  Zr69  1  0.01022781  0.39005285  0.73615066  1
  Zr  Zr70  1  0.07264179  0.69616810  0.87002190  1
  Zr  Zr71  1  0.70701385  0.71137492  0.12431872  1
  Zr  Zr72  1  0.70399637  0.30835679  0.86786848  1
  Zr  Zr73  1  0.00600737  0.38368713  0.50382254  1
  Zr  Zr74  1  0.90311167  0.50879729  0.61733431  1
  Zr  Zr75  1  0.30365229  0.10106463  0.37523314  1
  Zr  Zr76  1  0.70984763  0.28903277  0.62817940  1
  Zr  Zr77  1  0.18269134  0.00195233  0.49785038  1
  Zr  Zr78  1  0.80845372  0.41169758  -0.01066871  1
  Zr  Zr79  1  0.69851831  0.51002631  0.38286385  1
  Ta  Ta80  1  0.70952966  0.70555375  0.86667757  1
  Ta  Ta81  1  0.81670651  0.19586105  0.76101826  1
  Ta  Ta82  1  0.21760640  0.61445658  0.50048077  1
  Ta  Ta83  1  0.61602569  0.18772758  0.75494135  1
  Ta  Ta84  1  0.30821320  0.50610199  0.61728996  1
  Ta  Ta85  1  0.60181134  0.60529699  0.73563660  1
  Ta  Ta86  1  0.21574047  0.40501175  0.74408690  1
  Ta  Ta87  1  0.70387920  0.30170280  0.13040448  1
  Ta  Ta88  1  0.80409971  0.80162490  -0.00325205  1
  Ta  Ta89  1  0.30761971  0.31656114  0.86763205  1
  Ta  Ta90  1  0.00719614  0.19677234  0.76826378  1
  Ta  Ta91  1  0.69402882  0.51451054  0.86410010  1
  Ta  Ta92  1  0.69516237  0.50663910  0.61791075  1
  Ta  Ta93  1  0.39423839  0.38880130  0.01821920  1
  Ta  Ta94  1  0.10854567  0.70252853  0.37332903  1
  Ta  Ta95  1  0.00760943  0.41097146  -0.00129478  1
  Ta  Ta96  1  0.78373093  -0.00011058  -0.00772814  1
  Ta  Ta97  1  0.39161378  -0.00737474  0.49783918  1
  Ta  Ta98  1  0.09050746  0.12138556  0.63118257  1
  Ta  Ta99  1  0.49158963  0.89137396  0.61350727  1
  Ta  Ta100  1  0.70545887  0.09449129  0.62040849  1
  Ta  Ta101  1  -0.00627308  0.39872536  0.25863525  1
  Ta  Ta102  1  0.20311573  0.60214648  0.73738782  1
  Ta  Ta103  1  0.08366745  0.70329733  0.14184503  1
  Ta  Ta104  1  0.59752184  0.39693847  0.50512637  1
  Ta  Ta105  1  0.57692721  0.00331050  -0.01491390  1
  Ta  Ta106  1  0.10711741  0.50226662  0.36613158  1
  Ta  Ta107  1  0.50510442  0.29544125  0.37471634  1
  Ta  Ta108  1  0.90840100  0.09243220  0.37837277  1
  Ta  Ta109  1  0.09133677  0.50487442  0.14204552  1
  Ta  Ta110  1  0.60132647  0.79543417  0.73264605  1
  Ta  Ta111  1  0.40672268  0.20060469  0.50100683  1
  Ta  Ta112  1  -0.01078708  0.80683225  0.73184872  1
  Ta  Ta113  1  0.40013757  0.39111449  0.23981939  1
  Ta  Ta114  1  0.81503203  0.61387753  -0.01223123  1
  Ta  Ta115  1  0.30519939  0.70912248  0.36755687  1
  Ta  Ta116  1  0.40867974  0.39841206  0.50570500  1
  Ta  Ta117  1  0.60635210  0.20567251  0.49738993  1
  Ta  Ta118  1  0.70533111  0.30214907  0.37328300  1
  Ta  Ta119  1  0.80661474  -0.00681589  0.50756127  1
  Ti  Ti120  1  0.10089057  0.30840234  0.12908773  1
  Ti  Ti121  1  0.11221126  0.29969296  0.87040167  1
  Ti  Ti122  1  0.60950493  0.39354525  0.00369153  1
  Ti  Ti123  1  0.61313978  0.18906624  -0.01020908  1
  Ti  Ti124  1  0.60457502  0.79018114  0.50979531  1
  Ti  Ti125  1  0.80267042  0.00070005  0.25127695  1
  Ti  Ti126  1  0.89627984  0.48963115  0.38191251  1
  Ti  Ti127  1  0.11159986  0.50361918  0.62376226  1
  Ti  Ti128  1  0.59928281  0.81112029  -0.00315898  1
  Ti  Ti129  1  -0.00522125  0.60493872  0.00881676  1
  Ti  Ti130  1  0.70062895  0.70581766  0.61745792  1
  Ti  Ti131  1  0.19784226  0.40437944  0.24912981  1
  Ti  Ti132  1  0.50261210  0.10209171  0.38099466  1
  Ti  Ti133  1  0.09117575  0.29978360  0.36820867  1
  Ti  Ti134  1  0.88959730  0.09631299  0.12227253  1
  Ti  Ti135  1  0.41492287  0.19442455  0.25198930  1
  Ti  Ti136  1  0.38208365  0.77670947  0.51366019  1
  Ti  Ti137  1  0.79832189  0.80910517  0.73451235  1
  Ti  Ti138  1  0.89656674  0.10803783  0.62543844  1
  Ti  Ti139  1  -0.00641707  -0.00239015  0.24743245  1
  Ti  Ti140  1  0.59787783  0.00576780  0.26329532  1
  Ti  Ti141  1  0.80972223  0.19533232  0.49629459  1
  Ti  Ti142  1  0.20189402  0.80562042  0.26001882  1
  Ti  Ti143  1  -0.00311089  0.19571056  0.49318560  1
  Ti  Ti144  1  0.89150982  0.88363936  0.87444859  1
  Ti  Ti145  1  -0.00683546  0.00322829  0.51197801  1
  Ti  Ti146  1  0.80057719  0.20893437  0.25537999  1
  Ti  Ti147  1  0.78981795  0.61153903  0.49959352  1
  Ti  Ti148  1  0.90090040  0.71906912  0.60232310  1
  Ti  Ti149  1  0.89418848  0.68753800  0.13192380  1
  Ti  Ti150  1  0.48061101  0.87899976  0.39833987  1
  Ti  Ti151  1  0.49961280  0.48992149  0.37994481  1
  Ti  Ti152  1  0.80034677  0.78511658  0.25716134  1
  Ti  Ti153  1  0.31409055  0.89760673  0.12911934  1
  Ti  Ti154  1  0.89320800  0.90314264  0.37381211  1
  Ti  Ti155  1  0.18938822  0.79789833  0.75565696  1
  Ti  Ti156  1  0.89922030  0.09357114  0.87969799  1
  Ti  Ti157  1  0.29391984  0.49696536  0.14011652  1
  Ti  Ti158  1  0.00466587  0.61205527  0.73110716  1
  Ti  Ti159  1  0.50450918  0.07815090  0.13163603  1
  Mo  Mo160  1  0.08830158  0.10274775  0.37415392  1
  Mo  Mo161  1  0.79423018  0.80895118  0.50956847  1
  Mo  Mo162  1  0.08407422  0.90735401  0.62253710  1
  Mo  Mo163  1  -0.00532417  0.80301897  0.25299744  1
  Mo  Mo164  1  0.48610575  0.90586574  0.86235118  1
  Mo  Mo165  1  0.29466453  0.89425760  0.86288286  1
  Mo  Mo166  1  0.91410481  0.50524045  0.12433793  1
  Mo  Mo167  1  0.89511961  0.29204339  0.37111784  1
  Mo  Mo168  1  0.91708288  0.27182055  0.62780933  1
  Mo  Mo169  1  0.29428989  0.88742885  0.39185649  1
  Mo  Mo170  1  0.80393778  0.60371313  0.26685733  1
  Mo  Mo171  1  0.39541127  0.79698951  0.25652625  1
  Mo  Mo172  1  0.50238288  0.69768542  0.61521947  1
  Mo  Mo173  1  0.59911331  0.59657417  0.51461478  1
  Mo  Mo174  1  0.39900010  -0.00894439  0.73531173  1
  Mo  Mo175  1  0.19532173  0.60227346  0.25178453  1
  Mo  Mo176  1  0.39901418  0.40214065  0.74162557  1
  Mo  Mo177  1  0.69303026  0.89987989  0.62141425  1
  Mo  Mo178  1  -0.01835995  0.78170730  0.00700723  1
  Mo  Mo179  1  0.70096640  0.09812755  0.87501044  1
  Mo  Mo180  1  0.29935990  0.69559682  0.63074086  1
  Mo  Mo181  1  0.89090291  0.91074307  0.62453795  1
  Mo  Mo182  1  0.70155316  0.70348346  0.38628003  1
  Mo  Mo183  1  0.89600238  0.71241395  0.86430845  1
  Mo  Mo184  1  0.50536087  0.29324469  0.61514212  1
  Mo  Mo185  1  0.19570020  0.79672726  0.48828284  1
  Mo  Mo186  1  -0.00335395  0.81715384  0.50908354  1
  Mo  Mo187  1  0.91705518  0.30491731  0.87651551  1
  Mo  Mo188  1  0.10692766  0.29509525  0.63062217  1
  Mo  Mo189  1  0.49726949  0.90943953  0.12137144  1
  Mo  Mo190  1  0.30644219  0.30247628  0.13902997  1
  Mo  Mo191  1  0.30072630  0.49483150  0.87518895  1
  Mo  Mo192  1  0.59789386  0.19702498  0.25984024  1
  Mo  Mo193  1  0.39737549  -0.00003740  -0.00073414  1
  Mo  Mo194  1  0.81180265  0.39972826  0.26231726  1
  Mo  Mo195  1  0.40158206  0.59159150  0.50219998  1
  Mo  Mo196  1  0.19383525  0.20958997  0.75811180  1
  Mo  Mo197  1  0.50209325  0.49928132  0.61455490  1
  Mo  Mo198  1  0.50806128  0.09806168  0.86773132  1
  Mo  Mo199  1  0.09961371  0.10466158  0.87799949  1
