# generated using pymatgen
data_HfZrTaTiMo
_symmetry_space_group_name_H-M   'P 1'
_cell_length_a   15.21376856
_cell_length_b   15.20604205
_cell_length_c   16.84847319
_cell_angle_alpha   89.98430416
_cell_angle_beta   90.03987488
_cell_angle_gamma   90.06398057
_symmetry_Int_Tables_number   1
_chemical_formula_structural   HfZrTaTiMo
_chemical_formula_sum   'Hf40 Zr40 Ta40 Ti40 Mo40'
_cell_volume   3897.74256447
_cell_formula_units_Z   40
loop_
 _symmetry_equiv_pos_site_id
 _symmetry_equiv_pos_as_xyz
  1  'x, y, z'
loop_
 _atom_site_type_symbol
 _atom_site_label
 _atom_site_symmetry_multiplicity
 _atom_site_fract_x
 _atom_site_fract_y
 _atom_site_fract_z
 _atom_site_occupancy
  Hf  Hf0  1  0.59144518  0.38450280  0.75702609  1
  Hf  Hf1  1  0.30959168  0.09902905  0.12669399  1
  Hf  Hf2  1  0.89449823  0.31659209  0.86838651  1
  Hf  Hf3  1  0.90933403  0.91571526  0.62833265  1
  Hf  Hf4  1  -0.00291237  0.79859773  0.24021599  1
  Hf  Hf5  1  0.41573771  0.61133055  0.50000073  1
  Hf  Hf6  1  0.29310309  0.10302877  0.63360487  1
  Hf  Hf7  1  0.19589737  0.78782012  0.75001084  1
  Hf  Hf8  1  0.79572832  0.79713637  -0.00841365  1
  Hf  Hf9  1  0.50439647  0.88809322  0.38649296  1
  Hf  Hf10  1  0.10635898  0.69136990  0.89480233  1
  Hf  Hf11  1  0.10670726  0.68809675  0.11433473  1
  Hf  Hf12  1  0.70581280  0.69638980  0.12896162  1
  Hf  Hf13  1  0.60207296  0.80616447  0.75781542  1
  Hf  Hf14  1  0.61588836  -0.00957131  0.50780038  1
  Hf  Hf15  1  0.30089201  0.69506253  0.38018199  1
  Hf  Hf16  1  0.19600535  0.79744752  0.24981165  1
  Hf  Hf17  1  0.70991306  0.49316001  0.12438567  1
  Hf  Hf18  1  0.09329874  0.28971296  0.63525946  1
  Hf  Hf19  1  0.50966116  0.10070726  0.38940098  1
  Hf  Hf20  1  0.21554131  0.57641209  0.75090353  1
  Hf  Hf21  1  0.29255986  0.50792193  0.11432966  1
  Hf  Hf22  1  0.78770114  -0.00283731  -0.01346811  1
  Hf  Hf23  1  0.39594747  0.40131329  0.24332302  1
  Hf  Hf24  1  0.49853652  0.30767150  0.38835542  1
  Hf  Hf25  1  0.08565946  0.28769272  0.37661911  1
  Hf  Hf26  1  0.90783351  0.51750714  0.61553072  1
  Hf  Hf27  1  0.90126154  0.11944630  0.37341024  1
  Hf  Hf28  1  0.40424526  0.00166962  0.25949616  1
  Hf  Hf29  1  0.60660359  0.58381609  0.50105031  1
  Hf  Hf30  1  0.39701739  0.00138682  0.50863394  1
  Hf  Hf31  1  0.19836232  0.39111525  0.26340866  1
  Hf  Hf32  1  0.89521125  0.30781335  0.62460388  1
  Hf  Hf33  1  0.02226974  0.82767689  0.49665570  1
  Hf  Hf34  1  0.09206640  0.07180765  0.64041259  1
  Hf  Hf35  1  0.51082462  0.51074829  0.12802174  1
  Hf  Hf36  1  0.90335950  0.92090355  0.37321055  1
  Hf  Hf37  1  0.70032926  0.09030597  0.64156780  1
  Hf  Hf38  1  -0.01071265  -0.00452299  -0.00013908  1
  Hf  Hf39  1  0.39935887  0.80454030  0.24544560  1
  Zr  Zr40  1  0.41009796  0.62311475  0.01467687  1
  Zr  Zr41  1  0.50605710  0.51095117  0.35520648  1
  Zr  Zr42  1  0.08776422  0.50276993  0.88431633  1
  Zr  Zr43  1  0.29418691  0.29983247  0.11233404  1
  Zr  Zr44  1  0.22378397  0.80048054  0.00659664  1
  Zr  Zr45  1  0.38316906  0.20891637  0.49924416  1
  Zr  Zr46  1  0.91009164  0.50804483  0.38239355  1
  Zr  Zr47  1  0.29028361  0.31604740  0.63487454  1
  Zr  Zr48  1  -0.00945683  0.20542205  -0.01178653  1
  Zr  Zr49  1  0.20706514  0.19827426  -0.01788923  1
  Zr  Zr50  1  0.89256191  0.30935019  0.38587620  1
  Zr  Zr51  1  -0.00291188  0.00484775  0.23818511  1
  Zr  Zr52  1  0.60726721  0.38390625  0.24042728  1
  Zr  Zr53  1  0.10632676  0.30845862  0.86292677  1
  Zr  Zr54  1  0.68348697  0.09648062  0.86537611  1
  Zr  Zr55  1  0.69598967  0.49679640  0.63751035  1
  Zr  Zr56  1  0.10316482  0.10378800  0.12475733  1
  Zr  Zr57  1  0.78461811  0.41361910  0.50409029  1
  Zr  Zr58  1  0.90674241  0.71714524  0.61737274  1
  Zr  Zr59  1  0.88062068  0.11868116  0.12013816  1
  Zr  Zr60  1  0.20396174  0.00195663  -0.01109463  1
  Zr  Zr61  1  0.78874718  0.81319954  0.25591685  1
  Zr  Zr62  1  0.12064521  0.49910209  0.61337397  1
  Zr  Zr63  1  0.90828626  0.70662383  0.38090023  1
  Zr  Zr64  1  0.09327267  0.29794120  0.12434492  1
  Zr  Zr65  1  0.69386838  0.28867453  0.38590992  1
  Zr  Zr66  1  0.29374737  0.49413627  0.90227123  1
  Zr  Zr67  1  0.17351234  0.18027098  0.49848957  1
  Zr  Zr68  1  0.09383578  0.89212177  0.88170546  1
  Zr  Zr69  1  0.70532907  0.49616474  0.87419681  1
  Zr  Zr70  1  0.51056579  0.28109649  0.10636013  1
  Zr  Zr71  1  0.31706028  0.70309236  0.87361275  1
  Zr  Zr72  1  0.40438851  -0.00872311  0.73447379  1
  Zr  Zr73  1  0.27852646  0.88968006  0.60706666  1
  Zr  Zr74  1  0.60749580  0.17874611  0.24606708  1
  Zr  Zr75  1  0.39402312  0.20220040  0.25992257  1
  Zr  Zr76  1  0.30115396  0.68412628  0.61727030  1
  Zr  Zr77  1  0.70288953  0.69826057  0.63386852  1
  Zr  Zr78  1  0.78855959  0.21119249  0.75406980  1
  Zr  Zr79  1  0.09394868  0.49162663  0.11641763  1
  Ta  Ta80  1  0.10103670  0.89935447  0.11771387  1
  Ta  Ta81  1  0.70883038  0.89336642  0.63170904  1
  Ta  Ta82  1  0.80079196  0.40290725  -0.00250912  1
  Ta  Ta83  1  0.68943943  0.70171684  0.36722650  1
  Ta  Ta84  1  0.59637176  0.78050483  0.50272464  1
  Ta  Ta85  1  0.20154984  -0.00695679  0.25269562  1
  Ta  Ta86  1  0.90263506  0.10578696  0.63487798  1
  Ta  Ta87  1  0.01256795  0.61570693  0.74215778  1
  Ta  Ta88  1  0.68100443  0.90114142  0.12018113  1
  Ta  Ta89  1  0.79364622  0.19171983  0.51335528  1
  Ta  Ta90  1  0.91260537  0.69605143  0.87335561  1
  Ta  Ta91  1  0.39774299  0.41766273  0.49758749  1
  Ta  Ta92  1  0.29139586  0.89296132  0.39264853  1
  Ta  Ta93  1  0.89237172  0.31743677  0.12095913  1
  Ta  Ta94  1  -0.01405515  0.79326652  0.01561229  1
  Ta  Ta95  1  0.80773229  0.80043454  0.76664012  1
  Ta  Ta96  1  0.70409750  0.50262462  0.36169485  1
  Ta  Ta97  1  0.49473296  0.31192466  0.61577834  1
  Ta  Ta98  1  0.10794872  0.51018947  0.38214849  1
  Ta  Ta99  1  0.58685276  0.59937822  0.75780745  1
  Ta  Ta100  1  0.39333207  0.41637247  0.75915699  1
  Ta  Ta101  1  0.39534459  -0.00484316  -0.00907081  1
  Ta  Ta102  1  0.58149997  -0.00571307  -0.00457777  1
  Ta  Ta103  1  0.68379875  0.09892868  0.10880427  1
  Ta  Ta104  1  0.78269974  0.01718331  0.24480017  1
  Ta  Ta105  1  0.50448458  0.88284082  0.61741821  1
  Ta  Ta106  1  0.20575860  0.59720774  0.25197450  1
  Ta  Ta107  1  0.49105390  0.90043970  0.86945900  1
  Ta  Ta108  1  0.31043971  0.09346576  0.85753814  1
  Ta  Ta109  1  0.28025314  0.08809462  0.38086785  1
  Ta  Ta110  1  0.81387346  0.00524727  0.50457523  1
  Ta  Ta111  1  0.68068252  0.29215648  0.61624353  1
  Ta  Ta112  1  0.78743400  0.81510051  0.48949841  1
  Ta  Ta113  1  0.79649290  0.61639092  0.49237293  1
  Ta  Ta114  1  0.80263781  -0.01285734  0.76657435  1
  Ta  Ta115  1  0.50003213  0.49962446  0.88650135  1
  Ta  Ta116  1  0.80643309  0.39301724  0.24920481  1
  Ta  Ta117  1  0.21034500  0.39054218  0.48286140  1
  Ta  Ta118  1  0.50081399  0.29877125  0.88951385  1
  Ta  Ta119  1  0.41154896  0.21495973  0.75076848  1
  Ti  Ti120  1  0.88279013  0.90157820  0.12684569  1
  Ti  Ti121  1  0.20562774  0.19783341  0.75932564  1
  Ti  Ti122  1  0.50905986  0.11249298  0.62600833  1
  Ti  Ti123  1  0.30359239  0.90382357  0.12710858  1
  Ti  Ti124  1  0.80137434  0.40789239  0.74650984  1
  Ti  Ti125  1  -0.00243406  0.40954900  0.25291643  1
  Ti  Ti126  1  0.03059725  0.62369331  0.50144758  1
  Ti  Ti127  1  0.61295456  0.60062257  -0.00409072  1
  Ti  Ti128  1  0.41620975  0.81418574  0.01118302  1
  Ti  Ti129  1  0.80994276  0.60234535  0.25366680  1
  Ti  Ti130  1  -0.01690468  0.21366030  0.24371135  1
  Ti  Ti131  1  0.81806417  0.59973124  -0.00367596  1
  Ti  Ti132  1  0.90110604  0.51272294  0.12880066  1
  Ti  Ti133  1  0.89586783  0.10039964  0.87161229  1
  Ti  Ti134  1  0.49998844  0.10004781  0.86046758  1
  Ti  Ti135  1  0.68851893  0.29426887  0.89362242  1
  Ti  Ti136  1  0.70715735  0.08986430  0.38086073  1
  Ti  Ti137  1  0.19288482  0.18910370  0.26215650  1
  Ti  Ti138  1  0.19673502  -0.01679552  0.76065747  1
  Ti  Ti139  1  0.01031254  0.39805008  0.50356830  1
  Ti  Ti140  1  0.41011165  0.18012511  -0.00962950  1
  Ti  Ti141  1  0.30889196  0.50022342  0.36952957  1
  Ti  Ti142  1  0.00834403  0.60415466  0.25155745  1
  Ti  Ti143  1  0.40430027  0.78675982  0.74262231  1
  Ti  Ti144  1  -0.01288065  0.41168668  -0.00374955  1
  Ti  Ti145  1  0.81419407  0.60197168  0.75598634  1
  Ti  Ti146  1  0.70330007  0.69453109  0.87196625  1
  Ti  Ti147  1  0.40839424  0.39708676  0.00586391  1
  Ti  Ti148  1  -0.00536945  0.19514038  0.75721817  1
  Ti  Ti149  1  0.59998646  0.80111677  -0.00934830  1
  Ti  Ti150  1  0.00065123  0.81046422  0.75219841  1
  Ti  Ti151  1  0.49014584  0.50576932  0.63397854  1
  Ti  Ti152  1  0.59920814  -0.01735152  0.24954127  1
  Ti  Ti153  1  0.09577924  0.09500295  0.86220798  1
  Ti  Ti154  1  0.30930309  0.30180401  0.87567466  1
  Ti  Ti155  1  0.51515844  0.71557311  0.13896302  1
  Ti  Ti156  1  0.00215256  0.41971200  0.74536900  1
  Ti  Ti157  1  0.71059214  0.28688538  0.10515402  1
  Ti  Ti158  1  0.50738345  0.69871732  0.87759103  1
  Ti  Ti159  1  0.50409023  0.69679931  0.35573901  1
  Mo  Mo160  1  0.58639761  0.20311704  0.74631515  1
  Mo  Mo161  1  0.41146590  0.59717110  0.75701018  1
  Mo  Mo162  1  0.79622727  0.20566048  -0.01306863  1
  Mo  Mo163  1  0.89806501  0.69600538  0.12888498  1
  Mo  Mo164  1  0.10846473  0.90853010  0.36805385  1
  Mo  Mo165  1  0.58825532  0.40492859  0.50404310  1
  Mo  Mo166  1  0.08970843  0.09113156  0.36431597  1
  Mo  Mo167  1  0.59573758  -0.00663068  0.73792749  1
  Mo  Mo168  1  0.39641581  0.60860484  0.23690730  1
  Mo  Mo169  1  -0.00769925  0.00037341  0.76701716  1
  Mo  Mo170  1  0.89867332  0.89364733  0.87822979  1
  Mo  Mo171  1  0.19145442  0.77865345  0.49137668  1
  Mo  Mo172  1  0.20143475  0.60171022  0.00565656  1
  Mo  Mo173  1  0.50678791  0.69727194  0.63155196  1
  Mo  Mo174  1  0.79223350  0.20688733  0.24283814  1
  Mo  Mo175  1  -0.01409155  0.60279038  0.00472719  1
  Mo  Mo176  1  0.68888347  0.89238896  0.87551069  1
  Mo  Mo177  1  -0.01401074  0.19558476  0.51208194  1
  Mo  Mo178  1  0.09602071  0.88839304  0.63593040  1
  Mo  Mo179  1  0.29561345  0.29749073  0.37622067  1
  Mo  Mo180  1  0.59871709  0.80621334  0.24975810  1
  Mo  Mo181  1  0.00844398  0.02151739  0.49739520  1
  Mo  Mo182  1  0.61279823  0.60680680  0.24584914  1
  Mo  Mo183  1  0.40778693  0.79930973  0.49938301  1
  Mo  Mo184  1  0.49851029  0.90671968  0.12158959  1
  Mo  Mo185  1  0.89913168  0.50967800  0.86441135  1
  Mo  Mo186  1  0.69881443  0.90695968  0.37858354  1
  Mo  Mo187  1  0.19686511  0.39232730  -0.00027208  1
  Mo  Mo188  1  0.10435679  0.69705490  0.36884792  1
  Mo  Mo189  1  0.10448649  0.70305355  0.62558413  1
  Mo  Mo190  1  0.30883000  0.70244945  0.13438026  1
  Mo  Mo191  1  0.60093176  0.40276086  -0.00068816  1
  Mo  Mo192  1  0.20388659  0.39405547  0.75561806  1
  Mo  Mo193  1  0.31148247  0.89931754  0.86577863  1
  Mo  Mo194  1  0.31444832  0.49216974  0.62163978  1
  Mo  Mo195  1  0.50047077  0.08136721  0.12096291  1
  Mo  Mo196  1  0.21201273  0.58254775  0.49162777  1
  Mo  Mo197  1  0.59792591  0.19337447  0.50981425  1
  Mo  Mo198  1  0.17946274  -0.01694711  0.49480379  1
  Mo  Mo199  1  0.59702626  0.18901259  -0.00483114  1
