# generated using pymatgen
data_HfZrTaTiMo
_symmetry_space_group_name_H-M   'P 1'
_cell_length_a   15.20027618
_cell_length_b   15.20091044
_cell_length_c   16.83123827
_cell_angle_alpha   90.03361366
_cell_angle_beta   89.96619403
_cell_angle_gamma   90.06778572
_symmetry_Int_Tables_number   1
_chemical_formula_structural   HfZrTaTiMo
_chemical_formula_sum   'Hf40 Zr40 Ta40 Ti40 Mo40'
_cell_volume   3888.98880645
_cell_formula_units_Z   40
loop_
 _symmetry_equiv_pos_site_id
 _symmetry_equiv_pos_as_xyz
  1  'x, y, z'
loop_
 _atom_site_type_symbol
 _atom_site_label
 _atom_site_symmetry_multiplicity
 _atom_site_fract_x
 _atom_site_fract_y
 _atom_site_fract_z
 _atom_site_occupancy
  Hf  Hf0  1  0.41538417  0.79863502  0.48839931  1
  Hf  Hf1  1  0.88866603  0.70590736  0.63121083  1
  Hf  Hf2  1  0.00853402  0.19907397  0.75914130  1
  Hf  Hf3  1  0.68960650  0.50816468  0.36967016  1
  Hf  Hf4  1  0.09521986  0.30410526  0.10595645  1
  Hf  Hf5  1  0.39219950  0.00318569  0.74680247  1
  Hf  Hf6  1  0.00324888  0.20436384  0.24942973  1
  Hf  Hf7  1  0.09206985  0.69304645  0.35959294  1
  Hf  Hf8  1  0.39522935  0.41451295  0.76542029  1
  Hf  Hf9  1  0.77914490  0.81562412  0.49847062  1
  Hf  Hf10  1  0.00030027  0.80198753  0.75437472  1
  Hf  Hf11  1  0.30460397  0.48995065  0.61941687  1
  Hf  Hf12  1  0.09551512  0.89678935  0.36688967  1
  Hf  Hf13  1  0.79629837  0.19499372  0.25910246  1
  Hf  Hf14  1  0.59397794  0.19643066  0.26399133  1
  Hf  Hf15  1  -0.00374748  0.39726018  0.50288990  1
  Hf  Hf16  1  0.58569061  0.22043766  0.47594081  1
  Hf  Hf17  1  0.29847101  0.69627045  0.35012407  1
  Hf  Hf18  1  0.59475184  0.41013101  0.01098770  1
  Hf  Hf19  1  0.30491444  0.10436235  0.12722651  1
  Hf  Hf20  1  0.09999854  0.89559663  0.61253988  1
  Hf  Hf21  1  0.52879833  0.90626678  0.36656119  1
  Hf  Hf22  1  0.78673801  0.18412473  0.49211838  1
  Hf  Hf23  1  0.69847590  0.89521218  0.87660683  1
  Hf  Hf24  1  0.50448842  0.51688994  0.62012032  1
  Hf  Hf25  1  0.77952183  0.38667826  0.48695389  1
  Hf  Hf26  1  0.49033510  0.29929485  0.13221597  1
  Hf  Hf27  1  0.50947589  0.88640495  0.63060222  1
  Hf  Hf28  1  0.09958619  0.90365295  0.87736602  1
  Hf  Hf29  1  0.77374094  0.59526927  0.76842674  1
  Hf  Hf30  1  0.79660959  0.61493376  0.48736680  1
  Hf  Hf31  1  0.78979498  0.39860098  -0.00483009  1
  Hf  Hf32  1  0.19595238  0.38788446  0.75186539  1
  Hf  Hf33  1  0.20223645  -0.01273127  0.01471137  1
  Hf  Hf34  1  0.67669176  0.70155790  0.62596781  1
  Hf  Hf35  1  0.40450710  0.19466103  -0.01292714  1
  Hf  Hf36  1  0.68299399  0.28988507  0.63856334  1
  Hf  Hf37  1  0.20587596  0.39345116  0.49561758  1
  Hf  Hf38  1  0.90246653  0.50222965  0.37473982  1
  Hf  Hf39  1  0.28072008  0.30128104  0.88672243  1
  Zr  Zr40  1  0.89038662  0.92086792  0.61936000  1
  Zr  Zr41  1  0.11338181  0.28484554  0.61913994  1
  Zr  Zr42  1  0.30049441  0.90550517  0.61254342  1
  Zr  Zr43  1  0.39147751  0.79513071  0.02012927  1
  Zr  Zr44  1  0.30874161  0.69813405  0.61886815  1
  Zr  Zr45  1  -0.00689970  -0.00556843  0.01361504  1
  Zr  Zr46  1  0.89008406  0.10120273  0.11478231  1
  Zr  Zr47  1  0.51376382  0.11156305  0.62354632  1
  Zr  Zr48  1  0.88487469  0.29264556  0.63082243  1
  Zr  Zr49  1  0.29225426  0.88229281  0.87782613  1
  Zr  Zr50  1  -0.00810417  0.18207083  0.50097212  1
  Zr  Zr51  1  0.21668678  0.59199203  0.76506818  1
  Zr  Zr52  1  0.29190439  0.50039969  0.13984285  1
  Zr  Zr53  1  0.90202840  0.67568992  0.11100193  1
  Zr  Zr54  1  0.10293297  0.69475216  0.62327954  1
  Zr  Zr55  1  0.48372586  0.31204535  0.62583780  1
  Zr  Zr56  1  0.60463264  0.20663914  -0.00888992  1
  Zr  Zr57  1  0.89307186  0.50099861  0.63140564  1
  Zr  Zr58  1  -0.00505176  0.00625258  0.75207393  1
  Zr  Zr59  1  -0.00353163  0.39506780  0.76229671  1
  Zr  Zr60  1  0.62184587  -0.00581391  0.50991260  1
  Zr  Zr61  1  0.89786051  0.49820845  0.88860500  1
  Zr  Zr62  1  -0.01356125  -0.00516059  0.23917738  1
  Zr  Zr63  1  0.39738353  0.20232583  0.76009767  1
  Zr  Zr64  1  0.39992473  0.59776538  0.48263759  1
  Zr  Zr65  1  0.89244267  0.30761158  0.12205128  1
  Zr  Zr66  1  0.00126789  0.60464197  0.49759106  1
  Zr  Zr67  1  0.50159529  0.09791904  0.12877222  1
  Zr  Zr68  1  0.89818704  0.70571716  0.88928314  1
  Zr  Zr69  1  0.10387865  0.10216081  0.37335905  1
  Zr  Zr70  1  0.22342232  0.61238000  0.00034812  1
  Zr  Zr71  1  0.00879743  0.59918760  0.76157595  1
  Zr  Zr72  1  0.42557566  0.60074478  0.02338312  1
  Zr  Zr73  1  0.29613683  0.12143191  0.60610559  1
  Zr  Zr74  1  0.49559899  0.90090004  0.86978799  1
  Zr  Zr75  1  0.72769327  0.50586743  0.13674986  1
  Zr  Zr76  1  0.39459890  0.40698844  -0.00311152  1
  Zr  Zr77  1  0.30757445  0.90642728  0.36850065  1
  Zr  Zr78  1  0.01619989  0.79561745  0.01274409  1
  Zr  Zr79  1  0.69517157  0.49674496  0.61448456  1
  Ta  Ta80  1  0.89907281  0.09562698  0.88728422  1
  Ta  Ta81  1  0.19873911  0.59428644  0.48881168  1
  Ta  Ta82  1  0.19940377  0.78909470  0.48593763  1
  Ta  Ta83  1  0.60531367  0.41688279  0.75793264  1
  Ta  Ta84  1  0.11813184  0.69217050  0.13977605  1
  Ta  Ta85  1  0.60021018  0.40193426  0.24763272  1
  Ta  Ta86  1  0.79746005  0.19908072  -0.01436246  1
  Ta  Ta87  1  0.08656273  0.50166369  0.10518528  1
  Ta  Ta88  1  0.41493134  0.61137520  0.75862992  1
  Ta  Ta89  1  0.18287822  0.39519110  0.24707558  1
  Ta  Ta90  1  0.29499416  0.08712137  0.88036647  1
  Ta  Ta91  1  0.72557847  0.09132936  0.64366426  1
  Ta  Ta92  1  0.30387566  0.90065623  0.14264296  1
  Ta  Ta93  1  0.10679415  0.89050350  0.14417242  1
  Ta  Ta94  1  0.10387825  0.49703026  0.62365381  1
  Ta  Ta95  1  0.28744258  0.29632400  0.36877477  1
  Ta  Ta96  1  0.79516553  0.80124281  0.75825313  1
  Ta  Ta97  1  0.39319264  0.19727385  0.26701134  1
  Ta  Ta98  1  0.39623484  0.39462480  0.25486079  1
  Ta  Ta99  1  0.40405591  -0.00217721  -0.00087568  1
  Ta  Ta100  1  0.20480947  0.00813977  0.24722530  1
  Ta  Ta101  1  0.41510219  0.80047669  0.23996783  1
  Ta  Ta102  1  0.11527477  0.48753021  0.89980196  1
  Ta  Ta103  1  0.60422594  0.61050809  0.23844002  1
  Ta  Ta104  1  0.10467806  0.10338733  0.88713740  1
  Ta  Ta105  1  0.59784272  0.00344438  -0.00676016  1
  Ta  Ta106  1  0.50977325  0.30404467  0.86744922  1
  Ta  Ta107  1  0.20376270  0.79854859  0.74837095  1
  Ta  Ta108  1  0.69193425  0.07853292  0.37022300  1
  Ta  Ta109  1  0.90059523  0.29640179  0.37257679  1
  Ta  Ta110  1  0.80503748  0.19518588  0.76740302  1
  Ta  Ta111  1  -0.00166652  0.58588963  0.24291799  1
  Ta  Ta112  1  0.50664781  0.70076561  0.88637713  1
  Ta  Ta113  1  0.40861187  0.39141725  0.47805307  1
  Ta  Ta114  1  0.12063857  0.70545106  0.88278486  1
  Ta  Ta115  1  0.59877804  0.79832747  0.01043692  1
  Ta  Ta116  1  0.29329687  0.49652783  0.35775957  1
  Ta  Ta117  1  0.89263405  0.89799378  0.37814221  1
  Ta  Ta118  1  0.80594537  0.80615942  0.24077704  1
  Ta  Ta119  1  0.69754842  0.10006593  0.12052976  1
  Ti  Ti120  1  -0.00830200  0.79877185  0.49247008  1
  Ti  Ti121  1  0.41380527  0.00580782  0.25657585  1
  Ti  Ti122  1  0.80075136  0.39714405  0.25936393  1
  Ti  Ti123  1  0.19521182  0.00083882  0.74654970  1
  Ti  Ti124  1  0.79890138  0.80700867  0.00607616  1
  Ti  Ti125  1  0.20230939  0.18919165  0.75652914  1
  Ti  Ti126  1  0.49715766  0.50535258  0.36017849  1
  Ti  Ti127  1  -0.01127352  0.78892558  0.24178571  1
  Ti  Ti128  1  0.70661428  0.91321683  0.11327646  1
  Ti  Ti129  1  0.69715879  0.72040903  0.36434490  1
  Ti  Ti130  1  0.70831549  0.70793229  0.12256819  1
  Ti  Ti131  1  0.89724027  0.08583561  0.37416280  1
  Ti  Ti132  1  0.41073151  0.59962526  0.23555262  1
  Ti  Ti133  1  0.19930116  0.20268843  0.24431575  1
  Ti  Ti134  1  0.09986027  0.10198326  0.12366684  1
  Ti  Ti135  1  0.29438519  0.29896514  0.12487237  1
  Ti  Ti136  1  0.69649885  0.09801365  0.86843443  1
  Ti  Ti137  1  0.41558899  0.01329171  0.49291754  1
  Ti  Ti138  1  0.19747906  0.19413231  0.00331032  1
  Ti  Ti139  1  0.69853645  0.29329338  0.13115012  1
  Ti  Ti140  1  0.39846383  0.79388476  0.74971256  1
  Ti  Ti141  1  -0.00649683  0.40181465  0.24574493  1
  Ti  Ti142  1  0.19380631  -0.00017620  0.49242396  1
  Ti  Ti143  1  0.59664458  0.77828356  0.76094800  1
  Ti  Ti144  1  0.50855819  0.90830358  0.12756704  1
  Ti  Ti145  1  0.79048998  -0.00711198  0.24581206  1
  Ti  Ti146  1  0.30112373  0.10273783  0.38288989  1
  Ti  Ti147  1  0.80916791  0.61437708  0.26128239  1
  Ti  Ti148  1  0.51167822  0.50899344  0.87915918  1
  Ti  Ti149  1  0.61341279  0.81180232  0.23432228  1
  Ti  Ti150  1  0.70321061  0.31033877  0.86119571  1
  Ti  Ti151  1  0.70055123  0.89914030  0.64773375  1
  Ti  Ti152  1  0.61652839  0.60340427  0.01389421  1
  Ti  Ti153  1  0.09466400  0.08781180  0.61592470  1
  Ti  Ti154  1  0.60031334  0.01172771  0.75425215  1
  Ti  Ti155  1  0.50957804  0.70328202  0.35689657  1
  Ti  Ti156  1  0.10103074  0.49158480  0.36998412  1
  Ti  Ti157  1  0.09544385  0.29925187  0.37699778  1
  Ti  Ti158  1  0.89283822  0.90516004  0.88114404  1
  Ti  Ti159  1  0.59151838  0.61789995  0.48731003  1
  Mo  Mo160  1  0.78594021  0.00138815  -0.00382356  1
  Mo  Mo161  1  0.58999539  0.60351042  0.75808750  1
  Mo  Mo162  1  0.60949480  -0.00044816  0.23960149  1
  Mo  Mo163  1  0.51723419  0.70762702  0.13470576  1
  Mo  Mo164  1  0.49277662  0.09518049  0.37681872  1
  Mo  Mo165  1  0.91066075  0.49081362  0.11390678  1
  Mo  Mo166  1  0.18928453  0.58672080  0.24909097  1
  Mo  Mo167  1  0.89382227  0.29181254  0.87537803  1
  Mo  Mo168  1  0.39263347  0.20539447  0.47914926  1
  Mo  Mo169  1  0.79099795  0.60570344  -0.00592752  1
  Mo  Mo170  1  0.31457113  0.70232517  0.87554946  1
  Mo  Mo171  1  -0.00320870  0.39304622  -0.01200540  1
  Mo  Mo172  1  0.09447048  0.29305117  0.89425331  1
  Mo  Mo173  1  0.70158442  0.30386699  0.36383558  1
  Mo  Mo174  1  0.89117776  0.88935569  0.12583218  1
  Mo  Mo175  1  0.20090359  0.80232310  0.25370637  1
  Mo  Mo176  1  0.50979471  0.49759831  0.14281865  1
  Mo  Mo177  1  0.20003369  0.19842434  0.49132967  1
  Mo  Mo178  1  0.59883588  0.79291927  0.49367054  1
  Mo  Mo179  1  0.90236475  0.10590582  0.63040936  1
  Mo  Mo180  1  0.80735454  0.00788617  0.49672188  1
  Mo  Mo181  1  0.79772300  -0.00263361  0.76336683  1
  Mo  Mo182  1  -0.00065416  -0.00918239  0.49301223  1
  Mo  Mo183  1  0.49657248  0.70462267  0.62572155  1
  Mo  Mo184  1  0.69305882  0.70235873  0.89201380  1
  Mo  Mo185  1  0.50145375  0.09731325  0.87100812  1
  Mo  Mo186  1  0.20324164  0.39895635  0.00873902  1
  Mo  Mo187  1  0.49474755  0.31162254  0.36113718  1
  Mo  Mo188  1  0.89622983  0.71098293  0.36628949  1
  Mo  Mo189  1  -0.00173307  0.19715090  -0.00853156  1
  Mo  Mo190  1  0.31053621  0.50611811  0.87904472  1
  Mo  Mo191  1  0.58806652  0.41752278  0.48511260  1
  Mo  Mo192  1  0.30561492  0.30212322  0.62193095  1
  Mo  Mo193  1  0.30276958  0.70615173  0.15125526  1
  Mo  Mo194  1  0.20326688  0.80005679  0.01747403  1
  Mo  Mo195  1  0.01429782  0.59953479  -0.00818388  1
  Mo  Mo196  1  0.68787232  0.50207388  0.88397939  1
  Mo  Mo197  1  0.60473109  0.20211587  0.76128936  1
  Mo  Mo198  1  0.79216280  0.39513252  0.75747856  1
  Mo  Mo199  1  0.70960016  0.89803175  0.36349110  1
