# generated using pymatgen
data_HfZrTaTiMo
_symmetry_space_group_name_H-M   'P 1'
_cell_length_a   15.21590907
_cell_length_b   15.20470418
_cell_length_c   16.86622046
_cell_angle_alpha   89.94202272
_cell_angle_beta   90.05931381
_cell_angle_gamma   90.16574449
_symmetry_Int_Tables_number   1
_chemical_formula_structural   HfZrTaTiMo
_chemical_formula_sum   'Hf40 Zr40 Ta40 Ti40 Mo40'
_cell_volume   3902.03698295
_cell_formula_units_Z   40
loop_
 _symmetry_equiv_pos_site_id
 _symmetry_equiv_pos_as_xyz
  1  'x, y, z'
loop_
 _atom_site_type_symbol
 _atom_site_label
 _atom_site_symmetry_multiplicity
 _atom_site_fract_x
 _atom_site_fract_y
 _atom_site_fract_z
 _atom_site_occupancy
  Hf  Hf0  1  0.60093086  0.59818158  0.24834141  1
  Hf  Hf1  1  0.00831212  0.21667466  0.00462547  1
  Hf  Hf2  1  0.10816923  0.12917565  0.87317768  1
  Hf  Hf3  1  0.80550476  0.81238541  0.73874970  1
  Hf  Hf4  1  0.30923079  0.69199653  0.87817347  1
  Hf  Hf5  1  0.50036999  0.09191689  0.88596091  1
  Hf  Hf6  1  0.49546536  0.90337863  0.60754003  1
  Hf  Hf7  1  0.71182781  0.09885727  0.11732955  1
  Hf  Hf8  1  0.49764289  0.50279482  0.10696037  1
  Hf  Hf9  1  0.40132082  -0.00918168  0.75581409  1
  Hf  Hf10  1  0.19544373  0.00510910  0.76109025  1
  Hf  Hf11  1  0.49704170  0.49017002  0.62768510  1
  Hf  Hf12  1  0.80147495  0.19921843  0.52275980  1
  Hf  Hf13  1  0.61213293  0.59389696  0.75049251  1
  Hf  Hf14  1  0.21110380  0.61357927  0.25025874  1
  Hf  Hf15  1  0.69479128  0.29793587  0.10163481  1
  Hf  Hf16  1  0.49436176  0.12145367  0.63159037  1
  Hf  Hf17  1  0.81356122  0.02260763  0.25773655  1
  Hf  Hf18  1  0.27221184  0.48623382  0.87672481  1
  Hf  Hf19  1  0.70788489  0.49980221  0.10912873  1
  Hf  Hf20  1  0.49174980  0.50676880  0.89051452  1
  Hf  Hf21  1  0.09264959  0.29585624  0.36927056  1
  Hf  Hf22  1  0.90568988  0.50730353  0.86785856  1
  Hf  Hf23  1  0.29356469  0.09972737  0.62826186  1
  Hf  Hf24  1  0.80597410  0.80781529  0.25267529  1
  Hf  Hf25  1  -0.00224237  0.60465999  0.50709355  1
  Hf  Hf26  1  0.59399775  0.80055265  0.25022645  1
  Hf  Hf27  1  0.36429155  0.18437497  -0.00140213  1
  Hf  Hf28  1  0.90858268  0.71693982  0.87276864  1
  Hf  Hf29  1  0.40433400  0.19349195  0.48556831  1
  Hf  Hf30  1  0.80180483  0.80409160  0.00597564  1
  Hf  Hf31  1  0.00703548  0.61220247  0.74544829  1
  Hf  Hf32  1  0.12036467  0.91351255  0.36729369  1
  Hf  Hf33  1  0.01636979  0.40947657  0.73332173  1
  Hf  Hf34  1  0.90936606  0.69734531  0.13334659  1
  Hf  Hf35  1  0.19444003  0.01176021  -0.00382189  1
  Hf  Hf36  1  0.39106400  -0.02243387  0.00215574  1
  Hf  Hf37  1  0.37034377  -0.00856726  0.48748053  1
  Hf  Hf38  1  0.00373157  0.20851977  0.73221576  1
  Hf  Hf39  1  0.36747743  0.39468565  0.00198649  1
  Zr  Zr40  1  0.22788165  0.80942662  0.49746997  1
  Zr  Zr41  1  0.81184493  0.19243922  -0.01354575  1
  Zr  Zr42  1  0.91783466  0.69585794  0.36457886  1
  Zr  Zr43  1  0.59806400  0.40424377  0.24830165  1
  Zr  Zr44  1  0.80356572  0.38454677  0.24518043  1
  Zr  Zr45  1  0.50366560  0.70441687  0.87285489  1
  Zr  Zr46  1  0.11259111  0.71055108  0.37476204  1
  Zr  Zr47  1  0.69601718  0.09487309  0.63053900  1
  Zr  Zr48  1  0.49756643  0.29776593  0.90267750  1
  Zr  Zr49  1  0.70851180  0.90824387  0.39373951  1
  Zr  Zr50  1  0.59955439  0.40188967  0.50124620  1
  Zr  Zr51  1  0.08531220  0.50165670  0.37440248  1
  Zr  Zr52  1  0.20024962  0.59287101  0.74682990  1
  Zr  Zr53  1  0.49201846  0.30130780  0.36346534  1
  Zr  Zr54  1  0.90190070  0.29543469  0.38270466  1
  Zr  Zr55  1  0.48768444  0.88396832  0.38493421  1
  Zr  Zr56  1  0.10838226  0.70911143  0.12005845  1
  Zr  Zr57  1  0.38795681  0.39206585  0.76173714  1
  Zr  Zr58  1  0.29415704  0.29395980  0.35779139  1
  Zr  Zr59  1  0.79863789  0.57740555  0.48826641  1
  Zr  Zr60  1  0.91552602  0.49027418  0.12362022  1
  Zr  Zr61  1  0.60884740  0.19167218  0.25627497  1
  Zr  Zr62  1  0.29339239  0.49550595  0.61857728  1
  Zr  Zr63  1  0.49978862  0.09610671  0.11646370  1
  Zr  Zr64  1  0.49121100  0.29591675  0.11612891  1
  Zr  Zr65  1  0.58997745  0.03930588  0.47755687  1
  Zr  Zr66  1  0.91018712  0.30277834  0.86240063  1
  Zr  Zr67  1  0.59948715  0.00250556  0.26439516  1
  Zr  Zr68  1  0.81748169  0.79426431  0.50354266  1
  Zr  Zr69  1  0.70244724  0.29909455  0.38802833  1
  Zr  Zr70  1  0.08357018  0.90275889  0.87517583  1
  Zr  Zr71  1  0.69490139  0.69719586  0.37815679  1
  Zr  Zr72  1  0.59811561  0.79688013  0.73437129  1
  Zr  Zr73  1  0.70276184  0.70171909  0.12861199  1
  Zr  Zr74  1  0.59805791  0.39135935  0.76108387  1
  Zr  Zr75  1  0.00417268  0.20897341  0.52494487  1
  Zr  Zr76  1  0.11803324  0.70424409  0.61398538  1
  Zr  Zr77  1  0.60478659  -0.00923226  0.75154439  1
  Zr  Zr78  1  0.92027017  0.91732756  0.38027651  1
  Zr  Zr79  1  0.61384302  -0.01224434  -0.00221436  1
  Ta  Ta80  1  0.79416656  0.20118370  0.74780574  1
  Ta  Ta81  1  0.50140060  0.88902836  0.12677722  1
  Ta  Ta82  1  0.07540341  0.10107914  0.37454903  1
  Ta  Ta83  1  0.59434566  0.20167635  0.76646293  1
  Ta  Ta84  1  0.31678439  0.29415137  0.62021613  1
  Ta  Ta85  1  0.80719391  0.58219195  0.26424279  1
  Ta  Ta86  1  0.91260441  0.91973306  0.12964266  1
  Ta  Ta87  1  0.70896550  0.49154662  0.63073279  1
  Ta  Ta88  1  0.10485283  0.10124589  0.63107991  1
  Ta  Ta89  1  0.20795830  0.80300781  -0.00226761  1
  Ta  Ta90  1  0.80980735  0.60336749  -0.00481150  1
  Ta  Ta91  1  0.30188748  0.88627697  0.87143315  1
  Ta  Ta92  1  0.01486297  0.81563499  0.24269210  1
  Ta  Ta93  1  0.82254908  -0.00658307  -0.00692826  1
  Ta  Ta94  1  0.27403919  0.08603528  0.35634470  1
  Ta  Ta95  1  0.38550342  0.19769292  0.76958854  1
  Ta  Ta96  1  0.70891175  0.89256052  0.87343182  1
  Ta  Ta97  1  0.39510928  0.40087018  0.49490044  1
  Ta  Ta98  1  0.07492895  0.31309120  0.14366590  1
  Ta  Ta99  1  0.20454782  0.59232055  0.00768570  1
  Ta  Ta100  1  0.39522260  0.77927609  0.23745377  1
  Ta  Ta101  1  0.19422285  0.40529335  0.24992635  1
  Ta  Ta102  1  0.90255249  0.70361775  0.62847926  1
  Ta  Ta103  1  0.71011721  0.09406846  0.86831539  1
  Ta  Ta104  1  0.17261880  0.18930454  0.24019279  1
  Ta  Ta105  1  0.29276939  0.88725438  0.12884438  1
  Ta  Ta106  1  0.28530211  0.08967793  0.13784559  1
  Ta  Ta107  1  0.29546159  0.49749508  0.13171698  1
  Ta  Ta108  1  0.10762601  0.69825902  0.88639185  1
  Ta  Ta109  1  0.29690214  0.89220074  0.63765371  1
  Ta  Ta110  1  0.70767507  0.90250319  0.60391902  1
  Ta  Ta111  1  0.10421338  0.90609527  0.62862769  1
  Ta  Ta112  1  0.40421069  0.60040352  0.49707539  1
  Ta  Ta113  1  0.39230829  -0.01638202  0.24820242  1
  Ta  Ta114  1  0.71032493  0.69747762  0.87303047  1
  Ta  Ta115  1  0.49774868  0.88584308  0.87833323  1
  Ta  Ta116  1  -0.01379956  -0.00203698  0.73639372  1
  Ta  Ta117  1  0.60504296  0.61179297  -0.00245736  1
  Ta  Ta118  1  0.28532058  0.29585551  0.14236178  1
  Ta  Ta119  1  0.70474793  0.49945016  0.88800001  1
  Ti  Ti120  1  0.59821562  0.78614459  0.50661914  1
  Ti  Ti121  1  0.31479528  0.70103223  0.62650156  1
  Ti  Ti122  1  0.59836353  0.59494107  0.50288683  1
  Ti  Ti123  1  0.49698649  0.69127810  0.38039654  1
  Ti  Ti124  1  0.40775340  0.59383735  0.24464796  1
  Ti  Ti125  1  0.07979909  0.09704284  0.12401556  1
  Ti  Ti126  1  0.82016592  0.39771029  -0.00479375  1
  Ti  Ti127  1  0.70869933  0.68797987  0.62177565  1
  Ti  Ti128  1  0.10765509  0.49841771  0.60688565  1
  Ti  Ti129  1  0.70156242  0.29899072  0.88491698  1
  Ti  Ti130  1  0.10466087  0.91144904  0.12483960  1
  Ti  Ti131  1  -0.00037136  0.82026875  0.00497737  1
  Ti  Ti132  1  0.89030662  0.50786334  0.63761809  1
  Ti  Ti133  1  0.70722589  0.90503428  0.12993186  1
  Ti  Ti134  1  0.20202514  0.79469187  0.75387530  1
  Ti  Ti135  1  -0.01421166  0.01205519  0.52057029  1
  Ti  Ti136  1  0.60157275  0.79927301  0.00467180  1
  Ti  Ti137  1  0.18084433  0.00661325  0.50443287  1
  Ti  Ti138  1  0.11175900  0.32612112  0.87166568  1
  Ti  Ti139  1  0.21304648  0.59522727  0.48752221  1
  Ti  Ti140  1  -0.02239636  0.40315115  0.51914023  1
  Ti  Ti141  1  0.00891306  0.59446994  -0.00466649  1
  Ti  Ti142  1  0.68209251  0.29899602  0.62917284  1
  Ti  Ti143  1  0.30996662  0.49753572  0.36612064  1
  Ti  Ti144  1  0.79404326  0.40408974  0.75457653  1
  Ti  Ti145  1  0.20381546  0.19362211  0.49339515  1
  Ti  Ti146  1  0.31586849  0.70477082  0.37450726  1
  Ti  Ti147  1  0.09778594  0.50849022  0.14000122  1
  Ti  Ti148  1  0.01492934  0.81459359  0.50592426  1
  Ti  Ti149  1  0.40437246  0.78042101  0.01446027  1
  Ti  Ti150  1  -0.03182332  0.19548813  0.24296435  1
  Ti  Ti151  1  0.40371422  0.60198756  0.74630068  1
  Ti  Ti152  1  0.39340215  0.18716034  0.24598266  1
  Ti  Ti153  1  0.20382885  0.39440182  0.48642871  1
  Ti  Ti154  1  0.00837662  0.80727398  0.74091394  1
  Ti  Ti155  1  0.49665385  0.69644181  0.62256645  1
  Ti  Ti156  1  0.13193807  0.30559113  0.62006083  1
  Ti  Ti157  1  0.49934706  0.50113484  0.37435994  1
  Ti  Ti158  1  0.90828638  0.08897762  0.86118078  1
  Ti  Ti159  1  0.17402398  0.39316797  0.01729838  1
  Mo  Mo160  1  0.39177171  0.59668333  0.00495433  1
  Mo  Mo161  1  0.89325811  0.29488127  0.12213407  1
  Mo  Mo162  1  -0.00319575  0.00981203  -0.00374357  1
  Mo  Mo163  1  0.60996666  0.40604328  -0.00933444  1
  Mo  Mo164  1  0.90204949  0.10938114  0.38600367  1
  Mo  Mo165  1  0.40564999  0.78957206  0.50272344  1
  Mo  Mo166  1  0.80026994  0.60394967  0.74823600  1
  Mo  Mo167  1  0.79399975  0.20092980  0.24619969  1
  Mo  Mo168  1  0.21011677  0.80563122  0.24455340  1
  Mo  Mo169  1  0.89846575  0.90370157  0.87222926  1
  Mo  Mo170  1  0.09534665  0.50771907  0.87982303  1
  Mo  Mo171  1  0.69351741  0.49835081  0.37340917  1
  Mo  Mo172  1  -0.00330762  0.40424232  0.25628979  1
  Mo  Mo173  1  0.27377034  0.28210019  0.88300270  1
  Mo  Mo174  1  0.80475802  0.00577168  0.50233210  1
  Mo  Mo175  1  0.46375858  0.09760662  0.36012442  1
  Mo  Mo176  1  0.20472745  0.21409914  0.74679277  1
  Mo  Mo177  1  0.89717826  0.10135459  0.64110964  1
  Mo  Mo178  1  0.39350963  0.79385300  0.74431822  1
  Mo  Mo179  1  0.59383402  0.20887316  0.50192860  1
  Mo  Mo180  1  -0.00084752  0.60465909  0.24984139  1
  Mo  Mo181  1  0.49268792  0.29736195  0.62994647  1
  Mo  Mo182  1  0.90213277  0.10427194  0.11948940  1
  Mo  Mo183  1  0.00525825  0.41026668  -0.00208772  1
  Mo  Mo184  1  0.00955976  0.01412614  0.24708312  1
  Mo  Mo185  1  0.19098020  0.21039409  0.02875626  1
  Mo  Mo186  1  0.89899918  0.48829438  0.37515708  1
  Mo  Mo187  1  0.30124604  0.89031506  0.35595253  1
  Mo  Mo188  1  0.30741249  0.69119718  0.11657962  1
  Mo  Mo189  1  0.90508559  0.90176737  0.61761178  1
  Mo  Mo190  1  0.19873309  0.39010147  0.74230760  1
  Mo  Mo191  1  0.80432871  0.39756725  0.51714992  1
  Mo  Mo192  1  0.87554759  0.31827026  0.64245910  1
  Mo  Mo193  1  0.72924251  0.11369659  0.38447490  1
  Mo  Mo194  1  0.39049424  0.40944566  0.24342248  1
  Mo  Mo195  1  0.80105402  -0.00131754  0.75232103  1
  Mo  Mo196  1  0.18958468  -0.00029651  0.23708896  1
  Mo  Mo197  1  0.60830341  0.19369569  -0.02039939  1
  Mo  Mo198  1  0.29439066  0.09018070  0.87198193  1
  Mo  Mo199  1  0.50232978  0.69743572  0.12064874  1
