# generated using pymatgen
data_HfZrTaTiMo
_symmetry_space_group_name_H-M   'P 1'
_cell_length_a   15.21465018
_cell_length_b   15.20959823
_cell_length_c   16.82843664
_cell_angle_alpha   90.01101845
_cell_angle_beta   90.00897704
_cell_angle_gamma   89.95235298
_symmetry_Int_Tables_number   1
_chemical_formula_structural   HfZrTaTiMo
_chemical_formula_sum   'Hf40 Zr40 Ta40 Ti40 Mo40'
_cell_volume   3894.24545748
_cell_formula_units_Z   40
loop_
 _symmetry_equiv_pos_site_id
 _symmetry_equiv_pos_as_xyz
  1  'x, y, z'
loop_
 _atom_site_type_symbol
 _atom_site_label
 _atom_site_symmetry_multiplicity
 _atom_site_fract_x
 _atom_site_fract_y
 _atom_site_fract_z
 _atom_site_occupancy
  Hf  Hf0  1  0.41368883  0.19870568  -0.02114583  1
  Hf  Hf1  1  0.17277995  0.18750917  0.00893360  1
  Hf  Hf2  1  0.68440439  0.10225123  0.38332729  1
  Hf  Hf3  1  0.00010004  0.59659060  0.75451813  1
  Hf  Hf4  1  0.58672196  0.41176074  -0.00822709  1
  Hf  Hf5  1  0.41430058  0.59135109  0.24446867  1
  Hf  Hf6  1  0.08113081  0.29739476  0.88533542  1
  Hf  Hf7  1  0.10297542  0.90516063  0.88280653  1
  Hf  Hf8  1  0.71007885  0.51912770  0.62422538  1
  Hf  Hf9  1  0.10214832  0.91040009  0.38854137  1
  Hf  Hf10  1  0.09393653  0.48874619  0.62242239  1
  Hf  Hf11  1  0.61370816  0.21056512  -0.02140056  1
  Hf  Hf12  1  0.00313616  0.40414341  0.03133123  1
  Hf  Hf13  1  0.91237817  0.89585838  0.59591932  1
  Hf  Hf14  1  0.79824345  0.21022008  0.74412100  1
  Hf  Hf15  1  0.01132353  0.80264981  0.74954592  1
  Hf  Hf16  1  0.28827722  0.09597506  0.36779187  1
  Hf  Hf17  1  -0.00919311  -0.02145017  0.24554465  1
  Hf  Hf18  1  0.28537757  0.30359105  0.88658219  1
  Hf  Hf19  1  0.48816565  0.31734030  0.12509516  1
  Hf  Hf20  1  0.71468867  0.10245606  0.87113892  1
  Hf  Hf21  1  0.58914622  0.41720534  0.26443677  1
  Hf  Hf22  1  0.39333689  0.79984902  0.24873336  1
  Hf  Hf23  1  -0.00349111  0.19786692  0.74936149  1
  Hf  Hf24  1  0.89813496  0.09480808  0.60856625  1
  Hf  Hf25  1  0.80575892  0.40868441  0.74625609  1
  Hf  Hf26  1  0.90310787  0.90389027  0.89052797  1
  Hf  Hf27  1  0.78835528  0.21388867  0.49139442  1
  Hf  Hf28  1  0.39798668  0.78649420  -0.00227829  1
  Hf  Hf29  1  0.89116189  0.68528619  0.36995346  1
  Hf  Hf30  1  0.88527620  0.89673397  0.11403801  1
  Hf  Hf31  1  0.02995432  0.60560627  0.01921578  1
  Hf  Hf32  1  0.79427450  0.61710232  0.76041597  1
  Hf  Hf33  1  0.60299459  0.01115856  0.24684099  1
  Hf  Hf34  1  0.60190745  0.81205350  0.25900201  1
  Hf  Hf35  1  0.00997466  0.00720968  0.01996461  1
  Hf  Hf36  1  0.61478638  0.79320857  0.75415141  1
  Hf  Hf37  1  0.20089877  0.40332306  0.75213690  1
  Hf  Hf38  1  0.28329764  0.08777675  0.88144446  1
  Hf  Hf39  1  0.68662873  0.30265971  0.13285387  1
  Zr  Zr40  1  0.28808621  0.30587754  0.10570286  1
  Zr  Zr41  1  0.10266859  0.70135822  0.61700722  1
  Zr  Zr42  1  0.51152374  0.10935949  0.12053414  1
  Zr  Zr43  1  0.70915109  0.70679492  0.14015531  1
  Zr  Zr44  1  0.39513276  0.59211052  0.73371267  1
  Zr  Zr45  1  0.50621210  0.70199390  0.12585168  1
  Zr  Zr46  1  0.91203075  0.50232023  0.89303456  1
  Zr  Zr47  1  0.80814171  0.41828111  0.49048136  1
  Zr  Zr48  1  0.51039832  0.68390733  0.87030442  1
  Zr  Zr49  1  0.38679618  0.19742573  0.49909727  1
  Zr  Zr50  1  0.49585615  0.91448859  0.38026936  1
  Zr  Zr51  1  0.29734071  0.88712529  0.88261004  1
  Zr  Zr52  1  0.89206081  0.68328061  0.60711496  1
  Zr  Zr53  1  0.39187168  0.20636982  0.25221001  1
  Zr  Zr54  1  0.58602007  0.20983534  0.50053169  1
  Zr  Zr55  1  0.50640832  0.48986594  0.61467847  1
  Zr  Zr56  1  0.31685498  0.50124598  0.88590923  1
  Zr  Zr57  1  0.81479780  0.80543427  0.75284880  1
  Zr  Zr58  1  0.87682043  0.30063863  0.13862628  1
  Zr  Zr59  1  0.90806257  0.48800632  0.34939561  1
  Zr  Zr60  1  0.68786988  0.10484075  0.62553215  1
  Zr  Zr61  1  0.28772222  0.08811755  0.62508934  1
  Zr  Zr62  1  0.80837925  -0.00166778  0.74718576  1
  Zr  Zr63  1  0.59959162  0.81029265  0.49368043  1
  Zr  Zr64  1  0.70375672  0.50680164  0.87931421  1
  Zr  Zr65  1  0.20423279  0.58185492  0.49839808  1
  Zr  Zr66  1  0.90658271  0.31191086  0.61701107  1
  Zr  Zr67  1  0.87255148  0.30212118  0.89900141  1
  Zr  Zr68  1  0.88849787  0.07045599  0.37399343  1
  Zr  Zr69  1  0.19285027  0.78991294  0.26000542  1
  Zr  Zr70  1  0.29320835  0.30186502  0.62680343  1
  Zr  Zr71  1  -0.00487526  0.19847419  0.48144763  1
  Zr  Zr72  1  0.50870572  0.70756536  0.62387033  1
  Zr  Zr73  1  0.91251673  0.70953507  0.12790333  1
  Zr  Zr74  1  0.11770132  0.90606784  0.60331273  1
  Zr  Zr75  1  0.62209600  0.60978244  0.48885342  1
  Zr  Zr76  1  0.58816639  0.20795771  0.76349139  1
  Zr  Zr77  1  0.02476485  0.59859349  0.23576071  1
  Zr  Zr78  1  0.30667348  0.09617723  0.12003346  1
  Zr  Zr79  1  0.39742670  -0.00548385  0.75264357  1
  Ta  Ta80  1  0.29905931  0.88409757  0.11920601  1
  Ta  Ta81  1  0.49818449  0.90645917  0.11723162  1
  Ta  Ta82  1  0.19894192  -0.00939762  0.23324477  1
  Ta  Ta83  1  0.29991650  0.90151308  0.38376637  1
  Ta  Ta84  1  0.88686422  0.09743516  0.14304514  1
  Ta  Ta85  1  -0.01471366  0.19581316  0.02443731  1
  Ta  Ta86  1  0.39443549  0.61140988  0.51250164  1
  Ta  Ta87  1  0.20587886  0.40080580  0.23853246  1
  Ta  Ta88  1  0.11475485  0.50119044  0.88446710  1
  Ta  Ta89  1  0.48950475  0.50979664  0.39211042  1
  Ta  Ta90  1  0.28218317  0.31244336  0.37506333  1
  Ta  Ta91  1  0.49620752  0.29894486  0.62918272  1
  Ta  Ta92  1  0.11693102  0.48538208  0.36840032  1
  Ta  Ta93  1  0.39694320  -0.00704028  0.24365270  1
  Ta  Ta94  1  0.69889748  0.89981953  0.88448804  1
  Ta  Ta95  1  0.09434356  0.29526510  0.34689007  1
  Ta  Ta96  1  0.21968976  0.58967303  0.25789737  1
  Ta  Ta97  1  0.49816481  0.70114968  0.37763001  1
  Ta  Ta98  1  0.79765093  0.01444654  0.00150455  1
  Ta  Ta99  1  0.00609676  0.00200789  0.74670617  1
  Ta  Ta100  1  0.39173499  0.19928242  0.76380107  1
  Ta  Ta101  1  0.09558405  0.10007271  0.61573891  1
  Ta  Ta102  1  0.71587872  0.91257272  0.38491476  1
  Ta  Ta103  1  0.48432482  0.31261678  0.38045980  1
  Ta  Ta104  1  0.70324987  0.89662715  0.61712986  1
  Ta  Ta105  1  0.61710368  0.60693594  0.00570139  1
  Ta  Ta106  1  0.59952369  -0.00508828  0.75469662  1
  Ta  Ta107  1  0.19822025  -0.01151467  0.02138696  1
  Ta  Ta108  1  0.91824556  0.10375078  0.88346394  1
  Ta  Ta109  1  0.01764995  0.39140770  0.48571742  1
  Ta  Ta110  1  0.18356885  0.20663778  0.48989049  1
  Ta  Ta111  1  0.18869725  0.18994402  0.75689576  1
  Ta  Ta112  1  0.29102561  0.68279420  0.11991998  1
  Ta  Ta113  1  0.09688608  0.10267971  0.35140107  1
  Ta  Ta114  1  0.30943626  0.69097917  0.37937311  1
  Ta  Ta115  1  0.39989836  0.79532986  0.75107479  1
  Ta  Ta116  1  0.60600999  0.40034286  0.48361805  1
  Ta  Ta117  1  0.80986301  0.81961409  0.26309867  1
  Ta  Ta118  1  0.00798462  0.40038382  0.22641437  1
  Ta  Ta119  1  0.00068731  0.39989281  0.75646889  1
  Ti  Ti120  1  0.69331984  0.91024374  0.11632681  1
  Ti  Ti121  1  0.18964636  -0.00596032  0.74880337  1
  Ti  Ti122  1  0.21022385  0.79778518  0.74562081  1
  Ti  Ti123  1  0.48875189  0.10178818  0.63214972  1
  Ti  Ti124  1  0.68691431  0.31701308  0.62401800  1
  Ti  Ti125  1  0.79164796  0.78668502  0.48813870  1
  Ti  Ti126  1  0.50285936  0.90053896  0.87528139  1
  Ti  Ti127  1  0.78233242  0.19183989  0.26222663  1
  Ti  Ti128  1  0.31798721  0.49346937  0.10824999  1
  Ti  Ti129  1  0.30935493  0.88208106  0.61550256  1
  Ti  Ti130  1  0.39155735  0.40737086  0.25575546  1
  Ti  Ti131  1  0.70422454  0.10565337  0.12175211  1
  Ti  Ti132  1  0.89728986  0.29500198  0.35215825  1
  Ti  Ti133  1  0.29549106  0.69280184  0.87398847  1
  Ti  Ti134  1  0.00419132  0.79207890  0.27087069  1
  Ti  Ti135  1  0.59863778  0.41038261  0.75936705  1
  Ti  Ti136  1  0.00847850  0.78175336  0.47894102  1
  Ti  Ti137  1  0.59135545  0.00793962  0.50934566  1
  Ti  Ti138  1  0.09953470  0.29284524  0.62572070  1
  Ti  Ti139  1  0.40596954  0.39347087  0.75200483  1
  Ti  Ti140  1  0.09173849  0.87428133  0.12441146  1
  Ti  Ti141  1  0.70917299  0.51982159  0.36049048  1
  Ti  Ti142  1  -0.00408419  0.58206333  0.48879433  1
  Ti  Ti143  1  0.80867788  0.59201509  0.01495696  1
  Ti  Ti144  1  0.59665652  0.00450898  -0.00901190  1
  Ti  Ti145  1  0.40402895  -0.00622655  -0.00425776  1
  Ti  Ti146  1  0.48657104  0.10360211  0.37522602  1
  Ti  Ti147  1  0.38365785  0.40777001  0.50377711  1
  Ti  Ti148  1  0.42636656  0.58396111  0.00633774  1
  Ti  Ti149  1  0.39660901  -0.00516688  0.50639447  1
  Ti  Ti150  1  0.10690181  0.69779690  0.87468931  1
  Ti  Ti151  1  0.59004712  0.21376640  0.26485104  1
  Ti  Ti152  1  0.60117214  0.80277528  -0.00410876  1
  Ti  Ti153  1  0.18766875  0.78620471  0.00421492  1
  Ti  Ti154  1  0.91009831  0.70307066  0.89398815  1
  Ti  Ti155  1  0.79133597  0.79332394  -0.00431591  1
  Ti  Ti156  1  0.50156736  0.90372334  0.62903577  1
  Ti  Ti157  1  0.69807295  0.50168381  0.13767230  1
  Ti  Ti158  1  0.21504941  0.78770325  0.49116492  1
  Ti  Ti159  1  0.20122262  0.60393722  0.74335487  1
  Mo  Mo160  1  0.29732588  0.70690280  0.62589098  1
  Mo  Mo161  1  0.49115892  0.31059743  0.86344277  1
  Mo  Mo162  1  -0.01090663  0.19331814  0.24768574  1
  Mo  Mo163  1  0.50901073  0.50374684  0.12609638  1
  Mo  Mo164  1  0.78415600  0.41046941  0.01592284  1
  Mo  Mo165  1  0.09522697  0.29208024  0.13969242  1
  Mo  Mo166  1  0.70451361  0.71167868  0.62236040  1
  Mo  Mo167  1  0.70115070  0.70796722  0.35607687  1
  Mo  Mo168  1  0.00397197  0.79918175  -0.00563751  1
  Mo  Mo169  1  0.29877086  0.49916047  0.62912889  1
  Mo  Mo170  1  0.91224170  0.49903363  0.62346606  1
  Mo  Mo171  1  0.19386190  0.19867209  0.24071145  1
  Mo  Mo172  1  0.79949289  0.19710288  0.00859094  1
  Mo  Mo173  1  0.39689972  0.80071158  0.49700393  1
  Mo  Mo174  1  0.88271322  0.50343482  0.13623555  1
  Mo  Mo175  1  0.69859176  0.31021745  0.87043150  1
  Mo  Mo176  1  0.40346470  0.39993998  -0.00734716  1
  Mo  Mo177  1  0.80149118  0.60209203  0.23809517  1
  Mo  Mo178  1  0.19105247  0.40677525  0.00455059  1
  Mo  Mo179  1  0.09397241  0.09596786  0.14836838  1
  Mo  Mo180  1  0.78945942  0.39769447  0.25884684  1
  Mo  Mo181  1  0.50625026  0.50293604  0.86501399  1
  Mo  Mo182  1  0.10444684  0.68793410  0.38306381  1
  Mo  Mo183  1  0.14292487  0.50219873  0.12289966  1
  Mo  Mo184  1  0.09268970  0.09591141  0.87751679  1
  Mo  Mo185  1  0.19482635  0.38778896  0.49737775  1
  Mo  Mo186  1  0.22033881  0.60710324  -0.00575880  1
  Mo  Mo187  1  0.60657006  0.59945049  0.74621711  1
  Mo  Mo188  1  0.00446026  0.00090917  0.49274774  1
  Mo  Mo189  1  0.20542898  0.01441479  0.49250379  1
  Mo  Mo190  1  0.60224494  0.60727900  0.26608468  1
  Mo  Mo191  1  0.69850778  0.30955949  0.36624258  1
  Mo  Mo192  1  0.71171113  0.70590912  0.89005026  1
  Mo  Mo193  1  0.78534520  -0.00450151  0.24458830  1
  Mo  Mo194  1  0.11681489  0.70404111  0.12879579  1
  Mo  Mo195  1  0.80595079  0.59942933  0.48898429  1
  Mo  Mo196  1  0.78519215  -0.00415577  0.50828276  1
  Mo  Mo197  1  0.50025534  0.08781486  0.87170316  1
  Mo  Mo198  1  0.31260356  0.49260909  0.37539783  1
  Mo  Mo199  1  0.90149403  0.88870090  0.39236540  1
