# generated using pymatgen
data_HfZrTaTiMo
_symmetry_space_group_name_H-M   'P 1'
_cell_length_a   15.22395699
_cell_length_b   15.21331840
_cell_length_c   16.84440035
_cell_angle_alpha   89.99601870
_cell_angle_beta   89.97783527
_cell_angle_gamma   90.03954889
_symmetry_Int_Tables_number   1
_chemical_formula_structural   HfZrTaTiMo
_chemical_formula_sum   'Hf40 Zr40 Ta40 Ti40 Mo40'
_cell_volume   3901.27820047
_cell_formula_units_Z   40
loop_
 _symmetry_equiv_pos_site_id
 _symmetry_equiv_pos_as_xyz
  1  'x, y, z'
loop_
 _atom_site_type_symbol
 _atom_site_label
 _atom_site_symmetry_multiplicity
 _atom_site_fract_x
 _atom_site_fract_y
 _atom_site_fract_z
 _atom_site_occupancy
  Hf  Hf0  1  -0.00723604  0.18852815  0.49530166  1
  Hf  Hf1  1  0.29006566  0.29129551  0.61191392  1
  Hf  Hf2  1  0.20256589  0.00719053  0.51326126  1
  Hf  Hf3  1  0.69938619  0.70293648  0.12704346  1
  Hf  Hf4  1  0.90258441  0.50569803  0.12572965  1
  Hf  Hf5  1  0.28605292  0.70800768  0.62310493  1
  Hf  Hf6  1  0.19941984  0.60502501  0.50165020  1
  Hf  Hf7  1  0.09245611  0.50059381  0.12677143  1
  Hf  Hf8  1  0.79295949  0.19109465  0.00301738  1
  Hf  Hf9  1  0.68495258  0.71437783  0.63816205  1
  Hf  Hf10  1  0.69368394  0.29730289  0.37495836  1
  Hf  Hf11  1  0.90334509  0.71030570  0.11825853  1
  Hf  Hf12  1  0.20254764  0.39479204  0.25188431  1
  Hf  Hf13  1  0.49883746  0.69486240  0.86914109  1
  Hf  Hf14  1  0.27838901  0.89683924  0.37044998  1
  Hf  Hf15  1  0.19784954  0.79883260  0.75835604  1
  Hf  Hf16  1  0.70840604  0.70372596  0.38366674  1
  Hf  Hf17  1  0.08703542  0.89413385  0.10294067  1
  Hf  Hf18  1  0.39261379  0.80331369  0.75866014  1
  Hf  Hf19  1  0.07647612  0.09271596  0.63513053  1
  Hf  Hf20  1  0.80684744  0.81531777  0.52153149  1
  Hf  Hf21  1  0.81464351  -0.00065413  0.72848234  1
  Hf  Hf22  1  0.22270986  0.19949244  0.00767101  1
  Hf  Hf23  1  0.51752951  0.09890934  0.35241316  1
  Hf  Hf24  1  0.49406239  0.10388589  0.62473065  1
  Hf  Hf25  1  0.19167731  0.19623023  0.74946936  1
  Hf  Hf26  1  0.29899369  0.49268241  0.11820957  1
  Hf  Hf27  1  0.69062953  0.70628700  0.84486526  1
  Hf  Hf28  1  -0.00095730  0.19559212  0.25537165  1
  Hf  Hf29  1  0.10038999  0.71587262  0.89173222  1
  Hf  Hf30  1  0.60429672  0.59892242  -0.00084807  1
  Hf  Hf31  1  0.88859703  0.70812221  0.85782790  1
  Hf  Hf32  1  0.39557499  0.57668092  0.75507923  1
  Hf  Hf33  1  0.60975868  0.79967107  0.25560804  1
  Hf  Hf34  1  0.40060935  0.00007777  0.75685876  1
  Hf  Hf35  1  0.80092459  0.40171650  0.24872236  1
  Hf  Hf36  1  0.09122820  0.10141014  0.11358910  1
  Hf  Hf37  1  0.19581393  -0.00741104  0.75537504  1
  Hf  Hf38  1  0.69231262  0.29781519  0.87746749  1
  Hf  Hf39  1  0.80202884  0.40826686  -0.00724366  1
  Zr  Zr40  1  0.70540740  0.49963392  0.38650925  1
  Zr  Zr41  1  0.49397556  0.68835574  0.63636370  1
  Zr  Zr42  1  -0.00089567  0.83566455  0.76636651  1
  Zr  Zr43  1  0.69721570  0.50577997  0.86634936  1
  Zr  Zr44  1  0.90836355  0.29550485  0.11289181  1
  Zr  Zr45  1  0.19708188  0.58976043  -0.00766644  1
  Zr  Zr46  1  0.59118381  0.21240754  0.50151946  1
  Zr  Zr47  1  0.59589167  0.59141749  0.25363650  1
  Zr  Zr48  1  0.40510651  -0.00955813  0.49528417  1
  Zr  Zr49  1  0.30452891  0.49957187  0.38128369  1
  Zr  Zr50  1  0.09852819  0.71689328  0.37590159  1
  Zr  Zr51  1  0.38780903  0.18627420  0.49482768  1
  Zr  Zr52  1  0.50599116  0.88878381  0.62612707  1
  Zr  Zr53  1  0.59497296  0.81409540  -0.00521044  1
  Zr  Zr54  1  0.79536120  0.19036213  0.24624940  1
  Zr  Zr55  1  0.80595322  0.80829468  -0.00587273  1
  Zr  Zr56  1  0.10779628  0.30623760  0.11602518  1
  Zr  Zr57  1  -0.01601369  -0.00380156  -0.01998360  1
  Zr  Zr58  1  0.80502929  0.59245375  0.72869198  1
  Zr  Zr59  1  0.20771078  0.40328230  0.74921481  1
  Zr  Zr60  1  0.31074165  0.29592484  0.87187612  1
  Zr  Zr61  1  0.71597488  0.91678896  0.37375649  1
  Zr  Zr62  1  0.20159270  0.59716555  0.76138394  1
  Zr  Zr63  1  0.70451571  0.90845465  0.86004514  1
  Zr  Zr64  1  0.89904436  0.50631753  0.38267196  1
  Zr  Zr65  1  0.49693866  0.47344939  0.88554213  1
  Zr  Zr66  1  0.39173450  0.79248136  0.49335090  1
  Zr  Zr67  1  0.40450112  0.00953701  0.00288209  1
  Zr  Zr68  1  0.39282580  0.79222086  0.24705026  1
  Zr  Zr69  1  0.50984185  0.48786285  0.11606963  1
  Zr  Zr70  1  0.50753248  0.90671425  0.13713957  1
  Zr  Zr71  1  0.11148266  0.29012129  0.38333832  1
  Zr  Zr72  1  -0.01110855  0.80795702  0.24995552  1
  Zr  Zr73  1  0.61687758  0.00693056  0.50504906  1
  Zr  Zr74  1  0.40505905  0.40129031  0.25199953  1
  Zr  Zr75  1  0.09851223  0.69687442  0.11291265  1
  Zr  Zr76  1  -0.00300214  0.60923767  0.50821500  1
  Zr  Zr77  1  0.80684250  0.39261503  0.75029152  1
  Zr  Zr78  1  0.29115175  0.10225718  0.36189978  1
  Zr  Zr79  1  0.41541719  0.39163958  0.49688156  1
  Ta  Ta80  1  0.00769761  0.40089844  0.76078055  1
  Ta  Ta81  1  0.00568248  0.39816170  0.49900748  1
  Ta  Ta82  1  0.91925788  0.71974188  0.63771015  1
  Ta  Ta83  1  0.49359539  0.69631285  0.12105118  1
  Ta  Ta84  1  0.59610111  0.80206792  0.49010669  1
  Ta  Ta85  1  0.10406310  0.49692492  0.62346388  1
  Ta  Ta86  1  0.60349404  0.00755981  0.74317867  1
  Ta  Ta87  1  0.00818300  0.59753539  0.75627026  1
  Ta  Ta88  1  0.89017782  0.10398228  0.86329620  1
  Ta  Ta89  1  0.00001887  0.39895636  0.26088074  1
  Ta  Ta90  1  0.79919840  0.60682156  0.52397543  1
  Ta  Ta91  1  0.70551037  0.49938697  0.12441145  1
  Ta  Ta92  1  0.19562607  0.80290053  0.23782876  1
  Ta  Ta93  1  0.90763689  0.29671499  0.62615570  1
  Ta  Ta94  1  0.71371688  0.90910553  0.13071014  1
  Ta  Ta95  1  0.79435658  0.19736457  0.50678994  1
  Ta  Ta96  1  0.10282380  0.50119052  0.37506987  1
  Ta  Ta97  1  0.09551052  0.08281152  0.37386168  1
  Ta  Ta98  1  0.68787576  0.30742446  0.12342244  1
  Ta  Ta99  1  0.29591799  0.69800933  0.37185246  1
  Ta  Ta100  1  0.40243572  0.36449091  0.01360105  1
  Ta  Ta101  1  0.80537082  0.61440710  0.25054709  1
  Ta  Ta102  1  0.59878159  0.01532033  -0.00330529  1
  Ta  Ta103  1  0.69765935  0.30435961  0.62174035  1
  Ta  Ta104  1  0.59452704  0.39761812  0.74171779  1
  Ta  Ta105  1  0.89283035  0.08424540  0.12121979  1
  Ta  Ta106  1  0.10198020  0.87886831  0.61897199  1
  Ta  Ta107  1  0.29787441  0.89495013  0.89097355  1
  Ta  Ta108  1  0.20335961  0.60585338  0.24956211  1
  Ta  Ta109  1  0.49400980  0.10766241  0.14602185  1
  Ta  Ta110  1  0.58299616  0.20165365  0.00762550  1
  Ta  Ta111  1  0.81375545  0.01350494  0.52221094  1
  Ta  Ta112  1  0.88990149  0.08834468  0.37699380  1
  Ta  Ta113  1  0.00867176  0.40724124  -0.01794101  1
  Ta  Ta114  1  0.59724721  0.20392892  0.74112194  1
  Ta  Ta115  1  0.50329514  0.89932945  0.36370776  1
  Ta  Ta116  1  0.59733147  0.60165749  0.50191766  1
  Ta  Ta117  1  0.90869056  0.29144447  0.87951718  1
  Ta  Ta118  1  0.50463781  0.49126334  0.62010586  1
  Ta  Ta119  1  -0.01567431  0.59609973  -0.02088607  1
  Ti  Ti120  1  0.68702556  0.09806913  0.12962390  1
  Ti  Ti121  1  0.40220205  0.59661133  0.00086699  1
  Ti  Ti122  1  0.29997349  0.48364738  0.89298056  1
  Ti  Ti123  1  0.30976102  0.10266581  0.87593560  1
  Ti  Ti124  1  0.20454207  0.19124015  0.23607519  1
  Ti  Ti125  1  -0.00290123  -0.00139909  0.24792275  1
  Ti  Ti126  1  0.39784691  0.19495725  0.74198362  1
  Ti  Ti127  1  0.20240104  0.00201716  -0.00464896  1
  Ti  Ti128  1  0.00070074  0.59978626  0.25794261  1
  Ti  Ti129  1  0.30407372  0.69810206  0.88930275  1
  Ti  Ti130  1  0.49890383  0.27809446  0.87463828  1
  Ti  Ti131  1  0.09347338  0.11252515  0.88022449  1
  Ti  Ti132  1  0.10733763  0.30240588  0.88396363  1
  Ti  Ti133  1  0.50195352  0.29072209  0.14248697  1
  Ti  Ti134  1  0.09443503  0.30211445  0.61924658  1
  Ti  Ti135  1  0.30259026  0.49504263  0.61391109  1
  Ti  Ti136  1  0.29974457  0.69982625  0.11859578  1
  Ti  Ti137  1  0.79915511  0.60349053  -0.00849953  1
  Ti  Ti138  1  0.49747522  0.69246464  0.37501278  1
  Ti  Ti139  1  0.89504091  0.70714740  0.38282871  1
  Ti  Ti140  1  0.69390699  0.50000284  0.62115202  1
  Ti  Ti141  1  0.91270286  0.49350529  0.62358613  1
  Ti  Ti142  1  0.18664680  -0.00555877  0.23785088  1
  Ti  Ti143  1  0.29368700  0.90046412  0.11718513  1
  Ti  Ti144  1  -0.00012835  -0.01236261  0.49997798  1
  Ti  Ti145  1  0.78896171  0.00080600  -0.00303622  1
  Ti  Ti146  1  0.39681471  0.60110548  0.24724877  1
  Ti  Ti147  1  0.29773827  0.29735635  0.38329818  1
  Ti  Ti148  1  0.40511381  0.59803236  0.49820201  1
  Ti  Ti149  1  0.69047415  0.10680451  0.86947611  1
  Ti  Ti150  1  0.38756296  -0.00102782  0.24481147  1
  Ti  Ti151  1  0.50054764  0.29741040  0.35712268  1
  Ti  Ti152  1  0.79788976  0.19903538  0.74122468  1
  Ti  Ti153  1  0.51409671  0.49095473  0.38075133  1
  Ti  Ti154  1  0.40634313  0.38352620  0.73782219  1
  Ti  Ti155  1  0.91243006  0.89752376  0.38204702  1
  Ti  Ti156  1  0.80818195  -0.00898741  0.24680222  1
  Ti  Ti157  1  0.80423571  0.39810783  0.50965620  1
  Ti  Ti158  1  0.40212940  0.80092866  0.00163582  1
  Ti  Ti159  1  0.89600448  0.29912501  0.38111866  1
  Mo  Mo160  1  0.70033879  0.11132150  0.63079869  1
  Mo  Mo161  1  0.90362990  0.50009502  0.86951365  1
  Mo  Mo162  1  0.00771451  0.01901723  0.76912406  1
  Mo  Mo163  1  0.92200307  0.91729187  0.62194155  1
  Mo  Mo164  1  0.39089375  0.20267529  0.25601737  1
  Mo  Mo165  1  -0.00744881  0.79914925  -0.01394147  1
  Mo  Mo166  1  0.50778338  0.10451705  0.86696910  1
  Mo  Mo167  1  0.10075763  0.49561723  0.87528047  1
  Mo  Mo168  1  0.70025815  0.90475083  0.62978461  1
  Mo  Mo169  1  0.89508236  0.90899420  0.12311838  1
  Mo  Mo170  1  0.31391516  0.28667790  0.13265511  1
  Mo  Mo171  1  0.60970843  0.40571026  0.50930261  1
  Mo  Mo172  1  0.58684863  0.81707396  0.75811813  1
  Mo  Mo173  1  0.60264744  0.20530823  0.24310011  1
  Mo  Mo174  1  0.60720967  0.39833247  0.24897805  1
  Mo  Mo175  1  0.18658499  0.19785255  0.50563729  1
  Mo  Mo176  1  0.79949793  0.80922676  0.72779300  1
  Mo  Mo177  1  -0.00076686  0.80425714  0.50018948  1
  Mo  Mo178  1  0.29231610  0.09455307  0.63401619  1
  Mo  Mo179  1  -0.00007216  0.20019710  -0.01120545  1
  Mo  Mo180  1  0.71485705  0.10419049  0.37481899  1
  Mo  Mo181  1  0.59015719  0.58756458  0.74354859  1
  Mo  Mo182  1  0.80513476  0.80018128  0.25233048  1
  Mo  Mo183  1  0.21323141  0.80622844  0.00581875  1
  Mo  Mo184  1  0.10867800  0.91078466  0.89365093  1
  Mo  Mo185  1  0.89087535  0.91054624  0.87062244  1
  Mo  Mo186  1  0.41140638  0.18585859  0.00593257  1
  Mo  Mo187  1  0.61432947  0.00575155  0.24819459  1
  Mo  Mo188  1  0.09498063  0.69391125  0.63373646  1
  Mo  Mo189  1  0.09636283  0.91113308  0.37292708  1
  Mo  Mo190  1  0.29407047  0.90295885  0.62711429  1
  Mo  Mo191  1  0.50096561  0.90739273  0.87641112  1
  Mo  Mo192  1  0.49759479  0.30095827  0.63122235  1
  Mo  Mo193  1  0.20725816  0.39490661  -0.00021569  1
  Mo  Mo194  1  0.60173921  0.38541817  0.00220516  1
  Mo  Mo195  1  0.19451356  0.40287945  0.50331738  1
  Mo  Mo196  1  0.19315235  0.80427268  0.50154459  1
  Mo  Mo197  1  0.29869421  0.09181344  0.13873291  1
  Mo  Mo198  1  -0.00386694  0.21460820  0.75896581  1
  Mo  Mo199  1  0.90222696  0.11591026  0.63122034  1
