# generated using pymatgen
data_HfZrTaTiMo
_symmetry_space_group_name_H-M   'P 1'
_cell_length_a   15.21178380
_cell_length_b   15.19992007
_cell_length_c   16.85420699
_cell_angle_alpha   90.06938173
_cell_angle_beta   90.00474029
_cell_angle_gamma   90.21601459
_symmetry_Int_Tables_number   1
_chemical_formula_structural   HfZrTaTiMo
_chemical_formula_sum   'Hf40 Zr40 Ta40 Ti40 Mo40'
_cell_volume   3896.96374130
_cell_formula_units_Z   40
loop_
 _symmetry_equiv_pos_site_id
 _symmetry_equiv_pos_as_xyz
  1  'x, y, z'
loop_
 _atom_site_type_symbol
 _atom_site_label
 _atom_site_symmetry_multiplicity
 _atom_site_fract_x
 _atom_site_fract_y
 _atom_site_fract_z
 _atom_site_occupancy
  Hf  Hf0  1  0.30356732  0.70687116  0.13339591  1
  Hf  Hf1  1  0.68958798  0.10355595  0.88342601  1
  Hf  Hf2  1  0.21248695  0.22373968  0.24136079  1
  Hf  Hf3  1  0.10217658  0.11630020  0.36571998  1
  Hf  Hf4  1  0.71282577  0.49243874  0.37097433  1
  Hf  Hf5  1  0.70836808  0.68755759  0.39428512  1
  Hf  Hf6  1  -0.00178281  0.40052091  -0.00571268  1
  Hf  Hf7  1  0.70101675  0.68305397  0.60445173  1
  Hf  Hf8  1  0.58420009  -0.00351010  0.50997087  1
  Hf  Hf9  1  0.00220320  0.18426761  0.75933865  1
  Hf  Hf10  1  0.22288713  0.60762481  0.75614954  1
  Hf  Hf11  1  0.20420125  0.20245158  0.50002636  1
  Hf  Hf12  1  0.29191199  0.48472278  0.11094608  1
  Hf  Hf13  1  -0.01474891  -0.01249526  0.75621605  1
  Hf  Hf14  1  0.90307857  0.69400841  0.61500805  1
  Hf  Hf15  1  0.11557130  0.31581454  0.11396081  1
  Hf  Hf16  1  0.68776957  0.88850345  0.13567768  1
  Hf  Hf17  1  0.30199287  0.90590236  0.36191260  1
  Hf  Hf18  1  0.59838872  0.19409500  0.49966649  1
  Hf  Hf19  1  0.38107330  0.39092212  0.25082101  1
  Hf  Hf20  1  0.21049951  0.01775239  0.24279890  1
  Hf  Hf21  1  0.68915774  0.30100665  0.13189095  1
  Hf  Hf22  1  0.89243972  0.30030502  0.63829571  1
  Hf  Hf23  1  0.19063642  0.00050579  -0.01133167  1
  Hf  Hf24  1  0.50837094  0.71103472  0.36653212  1
  Hf  Hf25  1  0.31933217  0.50546264  0.88733468  1
  Hf  Hf26  1  -0.00095058  -0.00018532  0.49885092  1
  Hf  Hf27  1  -0.00610667  0.18878959  -0.00101712  1
  Hf  Hf28  1  0.19692029  0.40876325  0.49950127  1
  Hf  Hf29  1  0.70221163  0.28824426  0.36382079  1
  Hf  Hf30  1  0.60096192  0.77908111  0.73707737  1
  Hf  Hf31  1  0.00598501  0.60601498  0.76041465  1
  Hf  Hf32  1  0.88965936  0.50227622  0.87360675  1
  Hf  Hf33  1  0.47891406  0.88655370  0.63898190  1
  Hf  Hf34  1  0.69411096  0.28919638  0.63388028  1
  Hf  Hf35  1  0.10267369  0.89105887  0.12882994  1
  Hf  Hf36  1  0.20129387  0.61441190  0.00108641  1
  Hf  Hf37  1  0.90727086  0.30827683  0.36275847  1
  Hf  Hf38  1  0.09811350  0.70203834  0.37536655  1
  Hf  Hf39  1  -0.00710257  0.21355897  0.50147304  1
  Zr  Zr40  1  0.50123815  0.49322594  0.13703830  1
  Zr  Zr41  1  0.09206263  0.10092245  0.12519376  1
  Zr  Zr42  1  0.79035205  -0.00797426  0.75259841  1
  Zr  Zr43  1  0.79465715  0.40361813  0.01049599  1
  Zr  Zr44  1  0.89147341  0.10348821  0.37842441  1
  Zr  Zr45  1  0.32171754  0.91343172  0.12906663  1
  Zr  Zr46  1  0.11154075  0.28639433  0.87965315  1
  Zr  Zr47  1  0.69011587  0.09730332  0.12504167  1
  Zr  Zr48  1  0.69453170  0.30272666  0.87298966  1
  Zr  Zr49  1  -0.01067987  0.60154062  0.24618234  1
  Zr  Zr50  1  0.69711039  0.88779828  0.36795013  1
  Zr  Zr51  1  0.41926599  0.61129609  0.01049535  1
  Zr  Zr52  1  0.37221139  -0.00420943  0.75765646  1
  Zr  Zr53  1  0.11861179  0.71538865  0.86760752  1
  Zr  Zr54  1  0.00602938  0.39930228  0.76453367  1
  Zr  Zr55  1  0.59853874  0.39700074  0.49994314  1
  Zr  Zr56  1  0.42567504  0.61202811  0.73996869  1
  Zr  Zr57  1  0.80479241  0.77200028  0.24711053  1
  Zr  Zr58  1  0.38747808  0.20910163  0.74997229  1
  Zr  Zr59  1  0.69920898  0.88992585  0.87666639  1
  Zr  Zr60  1  0.19817175  0.00399708  0.49869871  1
  Zr  Zr61  1  0.50334459  0.30625199  0.87082999  1
  Zr  Zr62  1  0.57962814  -0.00932632  -0.00253693  1
  Zr  Zr63  1  0.69503626  0.68332588  0.87965224  1
  Zr  Zr64  1  0.80788046  -0.00916751  0.25102267  1
  Zr  Zr65  1  0.78548085  -0.00808021  0.49617885  1
  Zr  Zr66  1  0.10327337  0.30230305  0.63340366  1
  Zr  Zr67  1  0.48021604  0.08739306  0.12202768  1
  Zr  Zr68  1  0.10667168  0.69735027  0.63204566  1
  Zr  Zr69  1  0.39430757  0.01581692  0.51049894  1
  Zr  Zr70  1  0.40488582  0.41428149  0.73566082  1
  Zr  Zr71  1  0.90176540  0.71893460  0.87926435  1
  Zr  Zr72  1  0.49681606  0.50100931  0.36989443  1
  Zr  Zr73  1  0.39970526  0.81073729  0.48872020  1
  Zr  Zr74  1  0.20071741  0.58467363  0.25103887  1
  Zr  Zr75  1  0.90923050  0.49662215  0.63650186  1
  Zr  Zr76  1  0.09270847  0.90575404  0.36234056  1
  Zr  Zr77  1  0.20548597  0.60343093  0.49695852  1
  Zr  Zr78  1  0.89195547  0.89428431  0.61753421  1
  Zr  Zr79  1  0.59045668  0.78934742  0.00403144  1
  Ta  Ta80  1  0.20055231  0.80887094  0.50055222  1
  Ta  Ta81  1  0.31728828  0.11677470  0.37300543  1
  Ta  Ta82  1  0.69768511  0.09379850  0.62921860  1
  Ta  Ta83  1  0.30158958  0.30749045  0.88831821  1
  Ta  Ta84  1  0.52041179  0.50642649  0.87894195  1
  Ta  Ta85  1  0.79588352  0.19162654  0.75565564  1
  Ta  Ta86  1  0.60250518  0.80494194  0.50995830  1
  Ta  Ta87  1  0.19914521  0.79405609  0.24702487  1
  Ta  Ta88  1  0.88913283  0.10631482  0.61940407  1
  Ta  Ta89  1  0.50712073  0.71543215  0.14792237  1
  Ta  Ta90  1  0.59164778  -0.00266809  0.74356170  1
  Ta  Ta91  1  0.78792954  0.59574079  0.74659914  1
  Ta  Ta92  1  0.58997036  0.39824534  0.00966733  1
  Ta  Ta93  1  0.61968991  0.60796396  0.24602810  1
  Ta  Ta94  1  0.80775969  0.37727096  0.49781851  1
  Ta  Ta95  1  0.10345963  0.89735869  0.63581883  1
  Ta  Ta96  1  0.00229219  0.60460336  -0.00291952  1
  Ta  Ta97  1  0.90400871  0.90136917  0.11963547  1
  Ta  Ta98  1  0.60302545  0.41045043  0.73776891  1
  Ta  Ta99  1  0.80190556  0.80026059  0.01172169  1
  Ta  Ta100  1  0.00464679  0.79800419  0.49734243  1
  Ta  Ta101  1  0.49844884  0.10056780  0.86370504  1
  Ta  Ta102  1  0.11402352  0.49985908  0.88365518  1
  Ta  Ta103  1  0.90448173  0.29682488  0.12966716  1
  Ta  Ta104  1  0.50309404  0.92056830  0.35398612  1
  Ta  Ta105  1  0.88701968  0.29225162  0.87251935  1
  Ta  Ta106  1  0.80165785  -0.00223079  0.00668289  1
  Ta  Ta107  1  0.39670691  0.40685305  0.50663085  1
  Ta  Ta108  1  0.81109222  0.40470235  0.24172581  1
  Ta  Ta109  1  0.21033794  0.40202272  0.75400755  1
  Ta  Ta110  1  0.80337936  0.19508153  0.23800485  1
  Ta  Ta111  1  -0.00125895  0.41893824  0.50122374  1
  Ta  Ta112  1  0.79869444  0.19776653  0.00995101  1
  Ta  Ta113  1  0.38118274  0.00357754  -0.02969886  1
  Ta  Ta114  1  0.68250958  0.09339222  0.36448242  1
  Ta  Ta115  1  0.31112011  0.72353866  0.62434850  1
  Ta  Ta116  1  0.90836106  0.69897587  0.11494376  1
  Ta  Ta117  1  0.80639301  0.79373557  0.74436888  1
  Ta  Ta118  1  0.41000872  0.19384786  -0.01060967  1
  Ta  Ta119  1  0.48659204  0.88784289  0.85918319  1
  Ti  Ti120  1  0.48899542  0.28836416  0.37570578  1
  Ti  Ti121  1  0.29941193  0.31111423  0.38211075  1
  Ti  Ti122  1  0.69746275  0.49409465  0.87480040  1
  Ti  Ti123  1  0.70780481  0.50377091  0.13751872  1
  Ti  Ti124  1  0.30132995  0.30477501  0.62458167  1
  Ti  Ti125  1  -0.00088676  0.20262036  0.24024403  1
  Ti  Ti126  1  0.80161529  0.60253413  0.00704774  1
  Ti  Ti127  1  -0.00499358  0.80222978  0.24848756  1
  Ti  Ti128  1  0.90395543  0.68677854  0.38913179  1
  Ti  Ti129  1  0.71167545  0.48998343  0.61895675  1
  Ti  Ti130  1  0.10251550  0.31118783  0.36833093  1
  Ti  Ti131  1  0.89167234  0.09077202  0.88130337  1
  Ti  Ti132  1  -0.00900070  -0.00876402  -0.00658857  1
  Ti  Ti133  1  0.49877640  0.11721732  0.64083621  1
  Ti  Ti134  1  0.40483061  0.60442212  0.49843223  1
  Ti  Ti135  1  0.18337075  0.01298335  0.76674730  1
  Ti  Ti136  1  0.59269795  0.39288670  0.25221014  1
  Ti  Ti137  1  0.90233252  0.50095949  0.12165636  1
  Ti  Ti138  1  0.09624667  0.51015803  0.11565948  1
  Ti  Ti139  1  0.40261749  0.81288463  -0.00198399  1
  Ti  Ti140  1  0.51627653  0.51505836  0.61059294  1
  Ti  Ti141  1  0.01128092  0.40381872  0.24144618  1
  Ti  Ti142  1  0.09067471  0.49882421  0.37276352  1
  Ti  Ti143  1  0.82281033  0.57145211  0.49717856  1
  Ti  Ti144  1  0.09268172  0.09758059  0.62920617  1
  Ti  Ti145  1  0.28129540  0.10333048  0.63524705  1
  Ti  Ti146  1  0.29550803  0.51143959  0.62238777  1
  Ti  Ti147  1  0.39867565  0.19733090  0.24140270  1
  Ti  Ti148  1  0.40386003  0.21088137  0.51101279  1
  Ti  Ti149  1  0.30272156  0.69741884  0.36787315  1
  Ti  Ti150  1  0.49916713  0.69624595  0.87528691  1
  Ti  Ti151  1  0.01120621  0.79911807  0.00451943  1
  Ti  Ti152  1  0.58474926  0.19353605  0.25118392  1
  Ti  Ti153  1  -0.00678181  0.00344743  0.24780137  1
  Ti  Ti154  1  0.08755935  0.89578518  0.86822290  1
  Ti  Ti155  1  0.21220763  0.80728835  0.00104687  1
  Ti  Ti156  1  0.20971064  0.18993705  0.00020369  1
  Ti  Ti157  1  0.31944178  0.29593434  0.09953887  1
  Ti  Ti158  1  0.61162341  0.59408476  0.01939598  1
  Ti  Ti159  1  0.39927275  0.59995065  0.25192973  1
  Mo  Mo160  1  0.28281771  0.88960574  0.87675904  1
  Mo  Mo161  1  0.60499847  0.79760134  0.25484081  1
  Mo  Mo162  1  0.39200296  0.79198116  0.75579040  1
  Mo  Mo163  1  0.20399987  0.40260862  -0.00578918  1
  Mo  Mo164  1  0.40979588  0.39800333  -0.00087579  1
  Mo  Mo165  1  0.59392353  0.20396191  0.00455229  1
  Mo  Mo166  1  0.28289496  0.90480415  0.62816164  1
  Mo  Mo167  1  0.60969871  0.58642806  0.74365252  1
  Mo  Mo168  1  0.20924029  0.81977985  0.74841371  1
  Mo  Mo169  1  0.70458543  0.68895661  0.11973562  1
  Mo  Mo170  1  0.31984497  0.71690907  0.88042675  1
  Mo  Mo171  1  0.59889912  0.00668821  0.24971984  1
  Mo  Mo172  1  0.59739584  0.59505449  0.49338923  1
  Mo  Mo173  1  0.80615670  0.59106364  0.24762911  1
  Mo  Mo174  1  0.29811861  0.11160166  0.11271023  1
  Mo  Mo175  1  0.79229962  0.40133370  0.75433160  1
  Mo  Mo176  1  0.49902899  0.89444396  0.15031597  1
  Mo  Mo177  1  0.20088025  0.19802846  0.74840536  1
  Mo  Mo178  1  0.08929095  0.09081940  0.87934503  1
  Mo  Mo179  1  0.11510673  0.49687321  0.63430210  1
  Mo  Mo180  1  0.90702034  0.87681336  0.38051085  1
  Mo  Mo181  1  -0.00287142  0.80284208  0.74666252  1
  Mo  Mo182  1  0.49503865  0.30606063  0.62158229  1
  Mo  Mo183  1  0.49584919  0.11299103  0.37426751  1
  Mo  Mo184  1  0.79352051  0.19740739  0.50003108  1
  Mo  Mo185  1  0.30545606  0.50172846  0.37997750  1
  Mo  Mo186  1  0.50053472  0.69648343  0.60778152  1
  Mo  Mo187  1  0.40218867  0.01713924  0.25533926  1
  Mo  Mo188  1  0.19428674  0.40432907  0.25816403  1
  Mo  Mo189  1  0.80739797  0.79415118  0.49332927  1
  Mo  Mo190  1  0.59752437  0.19152435  0.74547903  1
  Mo  Mo191  1  0.00996895  0.59443053  0.49878261  1
  Mo  Mo192  1  0.69061270  0.89157722  0.62630766  1
  Mo  Mo193  1  0.89765684  0.09757362  0.12469606  1
  Mo  Mo194  1  0.89759161  0.89729553  0.89004739  1
  Mo  Mo195  1  0.09841792  0.70410039  0.12329631  1
  Mo  Mo196  1  0.39566670  0.79994650  0.26164106  1
  Mo  Mo197  1  0.50040185  0.28925632  0.12414290  1
  Mo  Mo198  1  0.28590694  0.11372306  0.87250132  1
  Mo  Mo199  1  0.90414780  0.49445573  0.37428986  1
