# generated using pymatgen
data_HfZrTaTiMo
_symmetry_space_group_name_H-M   'P 1'
_cell_length_a   15.19481159
_cell_length_b   15.20813518
_cell_length_c   16.83723288
_cell_angle_alpha   90.04641421
_cell_angle_beta   89.96216136
_cell_angle_gamma   89.92540248
_symmetry_Int_Tables_number   1
_chemical_formula_structural   HfZrTaTiMo
_chemical_formula_sum   'Hf40 Zr40 Ta40 Ti40 Mo40'
_cell_volume   3890.82230485
_cell_formula_units_Z   40
loop_
 _symmetry_equiv_pos_site_id
 _symmetry_equiv_pos_as_xyz
  1  'x, y, z'
loop_
 _atom_site_type_symbol
 _atom_site_label
 _atom_site_symmetry_multiplicity
 _atom_site_fract_x
 _atom_site_fract_y
 _atom_site_fract_z
 _atom_site_occupancy
  Hf  Hf0  1  0.78530250  0.77830262  0.00765548  1
  Hf  Hf1  1  0.51015781  0.11231256  0.88194965  1
  Hf  Hf2  1  0.10730479  0.70762642  0.38586776  1
  Hf  Hf3  1  0.70063957  0.08933743  0.35890617  1
  Hf  Hf4  1  0.42779781  0.21041008  0.02800537  1
  Hf  Hf5  1  0.59775354  -0.01253163  0.75359395  1
  Hf  Hf6  1  0.30990808  0.71741770  0.38782555  1
  Hf  Hf7  1  0.11368773  0.49534918  0.12451334  1
  Hf  Hf8  1  0.39101749  -0.00097842  0.50437521  1
  Hf  Hf9  1  0.69980934  0.29079052  0.36262314  1
  Hf  Hf10  1  0.30098740  0.71073323  0.11547992  1
  Hf  Hf11  1  0.90078786  0.48418500  0.61949300  1
  Hf  Hf12  1  0.00728087  0.59893916  0.25244523  1
  Hf  Hf13  1  0.49890549  0.30913151  0.87511401  1
  Hf  Hf14  1  0.69471245  0.08783161  0.14433336  1
  Hf  Hf15  1  0.79610737  0.60081690  0.50197340  1
  Hf  Hf16  1  0.88656408  0.28707769  0.87602185  1
  Hf  Hf17  1  0.38566825  0.39101929  0.49487071  1
  Hf  Hf18  1  0.89723219  0.08679772  0.87890217  1
  Hf  Hf19  1  0.10449980  0.11263189  0.11967020  1
  Hf  Hf20  1  0.90713329  0.49712129  0.38046615  1
  Hf  Hf21  1  0.90545914  0.08694804  0.36630382  1
  Hf  Hf22  1  0.41154483  0.80555076  0.73914761  1
  Hf  Hf23  1  0.89737562  0.69048504  0.11797641  1
  Hf  Hf24  1  0.30701457  0.51574942  0.12691086  1
  Hf  Hf25  1  0.70288746  0.50115475  0.12845444  1
  Hf  Hf26  1  0.50618387  0.09062452  0.37470489  1
  Hf  Hf27  1  0.70288503  0.08180886  0.62449978  1
  Hf  Hf28  1  0.00117315  0.18257944  0.74475724  1
  Hf  Hf29  1  0.20923765  0.22012124  0.49178928  1
  Hf  Hf30  1  0.81377667  -0.02279508  0.74941699  1
  Hf  Hf31  1  0.40342946  0.00540454  0.23921110  1
  Hf  Hf32  1  0.00952377  0.59576777  0.50355871  1
  Hf  Hf33  1  0.18169494  0.01960944  0.49889303  1
  Hf  Hf34  1  0.90415424  0.48400660  0.12151231  1
  Hf  Hf35  1  0.31360670  0.71475915  0.88173038  1
  Hf  Hf36  1  0.40721670  0.59427492  0.49443649  1
  Hf  Hf37  1  0.20830659  0.61134720  0.25678638  1
  Hf  Hf38  1  0.80309034  0.60323125  0.25774201  1
  Hf  Hf39  1  0.60512080  0.19162885  0.50164893  1
  Zr  Zr40  1  0.40286222  0.80226845  0.24480577  1
  Zr  Zr41  1  0.28996007  0.91770960  0.89194507  1
  Zr  Zr42  1  0.39574032  0.40623767  0.75127737  1
  Zr  Zr43  1  0.20612617  0.60397284  0.75775907  1
  Zr  Zr44  1  0.40306791  0.41640047  0.00951904  1
  Zr  Zr45  1  0.59108034  0.40067409  0.49442904  1
  Zr  Zr46  1  0.72092691  0.28912917  0.62704237  1
  Zr  Zr47  1  -0.00272927  0.60393625  0.75156894  1
  Zr  Zr48  1  0.08770834  0.90704392  0.37229994  1
  Zr  Zr49  1  0.59058571  0.79577368  0.01310184  1
  Zr  Zr50  1  0.00468366  0.39104120  -0.00261364  1
  Zr  Zr51  1  0.91026189  0.09236920  0.62045052  1
  Zr  Zr52  1  0.60469700  0.01431049  0.00218589  1
  Zr  Zr53  1  0.60094748  0.39133740  0.00729519  1
  Zr  Zr54  1  0.69970987  0.48956741  0.62647731  1
  Zr  Zr55  1  -0.00494019  0.39640142  0.74991380  1
  Zr  Zr56  1  0.90460718  0.72072940  0.38617154  1
  Zr  Zr57  1  0.29145083  0.49958998  0.62439849  1
  Zr  Zr58  1  0.29227237  0.31038646  0.89291090  1
  Zr  Zr59  1  0.48572402  0.90115893  0.88623729  1
  Zr  Zr60  1  0.60131812  0.60120628  0.74172563  1
  Zr  Zr61  1  0.70743985  0.49338733  0.87204984  1
  Zr  Zr62  1  0.10652942  0.70965887  0.61986029  1
  Zr  Zr63  1  0.10160349  0.89694100  0.12094333  1
  Zr  Zr64  1  0.00384520  0.20817879  0.24864938  1
  Zr  Zr65  1  0.26787265  0.30700370  0.12084813  1
  Zr  Zr66  1  0.00317582  0.60435314  -0.00843611  1
  Zr  Zr67  1  0.59935913  0.19308008  0.74141888  1
  Zr  Zr68  1  0.50151612  0.89002977  0.38475827  1
  Zr  Zr69  1  0.70027226  0.71599291  0.37881467  1
  Zr  Zr70  1  0.09878087  0.28735154  0.87430047  1
  Zr  Zr71  1  0.10190859  0.30039735  0.62400702  1
  Zr  Zr72  1  0.19499870  0.81041100  0.75428192  1
  Zr  Zr73  1  0.81105877  0.39170450  0.25640758  1
  Zr  Zr74  1  0.29988987  0.11420141  0.89926738  1
  Zr  Zr75  1  0.30319659  0.11476240  0.36796931  1
  Zr  Zr76  1  -0.01193034  0.80431846  0.24642237  1
  Zr  Zr77  1  0.70102034  0.88153561  0.87227866  1
  Zr  Zr78  1  0.39041109  0.01463322  0.74562572  1
  Zr  Zr79  1  0.48706592  0.29480573  0.36400448  1
  Ta  Ta80  1  0.08605778  0.90875399  0.88339408  1
  Ta  Ta81  1  0.80689220  -0.02024418  0.24656400  1
  Ta  Ta82  1  0.89223881  0.89824925  0.11246221  1
  Ta  Ta83  1  0.18393419  0.01516737  0.74959298  1
  Ta  Ta84  1  0.18591344  0.79732580  -0.00740699  1
  Ta  Ta85  1  0.41071548  0.59920092  0.26285748  1
  Ta  Ta86  1  0.11085941  0.49629043  0.87402576  1
  Ta  Ta87  1  0.40723517  0.60853330  0.74941849  1
  Ta  Ta88  1  0.90982846  0.29263105  0.38297816  1
  Ta  Ta89  1  -0.01732168  0.81260596  0.75281931  1
  Ta  Ta90  1  0.51040584  0.69811766  0.38076606  1
  Ta  Ta91  1  0.60061978  0.61042566  0.25210929  1
  Ta  Ta92  1  0.81146877  0.19103339  0.49164428  1
  Ta  Ta93  1  0.60821872  0.80057613  0.51806105  1
  Ta  Ta94  1  -0.00552845  0.00051048  0.00907323  1
  Ta  Ta95  1  0.39489295  0.40372458  0.24447815  1
  Ta  Ta96  1  0.08210566  0.91550206  0.62657193  1
  Ta  Ta97  1  0.61491825  0.60194761  -0.00328970  1
  Ta  Ta98  1  0.89883984  0.70978026  0.62227285  1
  Ta  Ta99  1  0.31008279  0.70872854  0.61460779  1
  Ta  Ta100  1  0.59787702  0.60419220  0.50872933  1
  Ta  Ta101  1  0.89142525  0.10056351  0.13139601  1
  Ta  Ta102  1  0.49602659  0.30034680  0.62504591  1
  Ta  Ta103  1  0.29599117  0.10030608  0.11123384  1
  Ta  Ta104  1  0.88118126  0.69533175  0.87536288  1
  Ta  Ta105  1  0.20958651  0.19971212  0.74641948  1
  Ta  Ta106  1  0.30046694  0.90839406  0.10601125  1
  Ta  Ta107  1  0.42144176  0.61252218  -0.00602864  1
  Ta  Ta108  1  0.78950880  -0.00940856  0.49584757  1
  Ta  Ta109  1  0.69562441  0.27670585  0.87305716  1
  Ta  Ta110  1  0.20834698  0.60001689  -0.01170709  1
  Ta  Ta111  1  0.51645068  0.70250608  0.87103826  1
  Ta  Ta112  1  0.20098471  0.01178936  0.24820313  1
  Ta  Ta113  1  0.68786771  0.50439102  0.37483798  1
  Ta  Ta114  1  0.50310412  0.90294339  0.61499730  1
  Ta  Ta115  1  0.80002220  0.39057399  0.48825093  1
  Ta  Ta116  1  0.01676497  0.18498496  0.48867670  1
  Ta  Ta117  1  0.28815559  0.90747398  0.62502908  1
  Ta  Ta118  1  0.70624839  0.29050127  0.13970937  1
  Ta  Ta119  1  0.59731139  0.39592440  0.75038325  1
  Ti  Ti120  1  0.39645883  0.20805407  0.74309536  1
  Ti  Ti121  1  0.20051475  0.81855020  0.50521458  1
  Ti  Ti122  1  0.19480647  0.40862468  0.49165091  1
  Ti  Ti123  1  0.01218688  0.39535573  0.25059664  1
  Ti  Ti124  1  0.79969841  0.38348276  0.75149492  1
  Ti  Ti125  1  0.50299824  0.69602547  0.12998199  1
  Ti  Ti126  1  0.61575432  0.79071726  0.72707054  1
  Ti  Ti127  1  0.79981776  0.60440172  0.74244316  1
  Ti  Ti128  1  0.89868288  0.49738868  0.87651825  1
  Ti  Ti129  1  0.38880460  0.20696545  0.23106258  1
  Ti  Ti130  1  0.40204783  0.20284007  0.50594528  1
  Ti  Ti131  1  0.31198697  0.50862301  0.87716831  1
  Ti  Ti132  1  0.10134862  0.09608759  0.89070945  1
  Ti  Ti133  1  0.10132919  0.50104008  0.62765811  1
  Ti  Ti134  1  0.20758312  0.59755711  0.49554801  1
  Ti  Ti135  1  -0.01463279  0.19914036  0.01057237  1
  Ti  Ti136  1  0.49701158  0.09764999  0.61938652  1
  Ti  Ti137  1  0.00157247  -0.00155485  0.24150351  1
  Ti  Ti138  1  0.78511280  0.18842843  0.00671518  1
  Ti  Ti139  1  0.49413294  0.49876934  0.62555038  1
  Ti  Ti140  1  0.00595348  0.38647461  0.49649436  1
  Ti  Ti141  1  0.59281525  0.40715293  0.25255402  1
  Ti  Ti142  1  0.79701756  0.38494529  0.00263842  1
  Ti  Ti143  1  0.29388062  0.11136382  0.62311645  1
  Ti  Ti144  1  -0.01503780  -0.01410573  0.49331231  1
  Ti  Ti145  1  0.20247184  0.81318828  0.24929920  1
  Ti  Ti146  1  0.79466822  -0.00554086  0.00390282  1
  Ti  Ti147  1  0.20164616  0.39575720  0.74959121  1
  Ti  Ti148  1  0.50633871  0.50814855  0.13172027  1
  Ti  Ti149  1  0.08800081  0.70927008  0.87546820  1
  Ti  Ti150  1  0.58387033  0.19507577  0.24073975  1
  Ti  Ti151  1  0.50353817  0.90850365  0.12219824  1
  Ti  Ti152  1  0.90211808  0.88557146  0.89458097  1
  Ti  Ti153  1  0.29474281  0.90849553  0.37615707  1
  Ti  Ti154  1  0.10814303  0.49230545  0.37033629  1
  Ti  Ti155  1  0.30281416  0.49583228  0.36731633  1
  Ti  Ti156  1  0.80565116  0.81134799  0.51185139  1
  Ti  Ti157  1  0.10362093  0.69962368  0.11866308  1
  Ti  Ti158  1  0.78122720  0.79827977  0.23397307  1
  Ti  Ti159  1  0.69374561  0.89939492  0.37165813  1
  Mo  Mo160  1  0.10761862  0.09907142  0.62320300  1
  Mo  Mo161  1  0.71196011  0.09921091  0.87284130  1
  Mo  Mo162  1  0.00081219  0.80803161  0.50847251  1
  Mo  Mo163  1  0.49954333  0.69780920  0.61967749  1
  Mo  Mo164  1  0.70129278  0.89494639  0.12647534  1
  Mo  Mo165  1  0.00607583  -0.00761519  0.76011713  1
  Mo  Mo166  1  0.40130345  0.80047582  0.00937515  1
  Mo  Mo167  1  0.70807986  0.69723272  0.61794434  1
  Mo  Mo168  1  0.08519760  0.30776737  0.12189904  1
  Mo  Mo169  1  0.17768400  0.20912095  0.00262395  1
  Mo  Mo170  1  0.90495347  0.29213589  0.59977045  1
  Mo  Mo171  1  0.49950375  0.10075465  0.13445302  1
  Mo  Mo172  1  -0.00527858  0.79866335  -0.00215316  1
  Mo  Mo173  1  0.19627046  0.40367765  0.25796948  1
  Mo  Mo174  1  0.39911831  0.80273376  0.51239623  1
  Mo  Mo175  1  0.19853279  0.41626175  -0.00738789  1
  Mo  Mo176  1  0.87943042  0.89839347  0.37390889  1
  Mo  Mo177  1  0.80267010  0.19304902  0.25237060  1
  Mo  Mo178  1  0.70507017  0.89353776  0.62786638  1
  Mo  Mo179  1  0.59954036  -0.02117512  0.24614317  1
  Mo  Mo180  1  0.10038554  0.30707884  0.37652817  1
  Mo  Mo181  1  0.19100893  0.00490918  0.00132588  1
  Mo  Mo182  1  0.61584322  0.20765014  0.01375955  1
  Mo  Mo183  1  0.60287773  -0.00524299  0.50395893  1
  Mo  Mo184  1  0.50008651  0.51354610  0.87382802  1
  Mo  Mo185  1  0.20067686  0.20306617  0.25399219  1
  Mo  Mo186  1  0.79918038  0.57968604  -0.00408753  1
  Mo  Mo187  1  0.59863550  0.80308504  0.23875189  1
  Mo  Mo188  1  0.79950191  0.18930342  0.75521841  1
  Mo  Mo189  1  0.89967872  0.89775092  0.62142518  1
  Mo  Mo190  1  0.80298485  0.78329772  0.74725888  1
  Mo  Mo191  1  0.40460154  0.00754736  0.01650763  1
  Mo  Mo192  1  0.50094055  0.50398974  0.36821389  1
  Mo  Mo193  1  0.70013296  0.69200727  0.86993315  1
  Mo  Mo194  1  0.89182844  0.28974483  0.11871687  1
  Mo  Mo195  1  0.29188827  0.31062590  0.35699457  1
  Mo  Mo196  1  0.69287767  0.68732888  0.13136245  1
  Mo  Mo197  1  0.30517743  0.29722401  0.62803063  1
  Mo  Mo198  1  0.50843028  0.31195354  0.14709428  1
  Mo  Mo199  1  0.10166305  0.10293156  0.36232960  1
