# generated using pymatgen
data_HfZrTaTiMo
_symmetry_space_group_name_H-M   'P 1'
_cell_length_a   15.20448686
_cell_length_b   15.19793632
_cell_length_c   16.85629871
_cell_angle_alpha   90.00262159
_cell_angle_beta   90.00177228
_cell_angle_gamma   89.95087176
_symmetry_Int_Tables_number   1
_chemical_formula_structural   HfZrTaTiMo
_chemical_formula_sum   'Hf40 Zr40 Ta40 Ti40 Mo40'
_cell_volume   3895.09851730
_cell_formula_units_Z   40
loop_
 _symmetry_equiv_pos_site_id
 _symmetry_equiv_pos_as_xyz
  1  'x, y, z'
loop_
 _atom_site_type_symbol
 _atom_site_label
 _atom_site_symmetry_multiplicity
 _atom_site_fract_x
 _atom_site_fract_y
 _atom_site_fract_z
 _atom_site_occupancy
  Hf  Hf0  1  0.19048744  0.00020200  0.24395660  1
  Hf  Hf1  1  0.00065148  0.40093417  0.75216027  1
  Hf  Hf2  1  0.09534709  0.49331350  0.38686008  1
  Hf  Hf3  1  0.90648225  0.10180504  0.37458530  1
  Hf  Hf4  1  0.30008243  0.50503619  0.13334954  1
  Hf  Hf5  1  0.59727291  0.60078791  0.50416989  1
  Hf  Hf6  1  0.59003120  0.80239946  0.00384205  1
  Hf  Hf7  1  0.30052717  0.89399718  0.11397414  1
  Hf  Hf8  1  0.30165774  0.49019887  0.87576252  1
  Hf  Hf9  1  0.20983389  0.59246325  0.75237906  1
  Hf  Hf10  1  0.41287106  0.21327912  0.01203015  1
  Hf  Hf11  1  0.29552688  0.29893206  0.15163677  1
  Hf  Hf12  1  0.89597138  0.29160712  0.63013137  1
  Hf  Hf13  1  0.48879654  0.28695043  0.61654715  1
  Hf  Hf14  1  0.28888918  0.29704590  0.35829748  1
  Hf  Hf15  1  0.90801363  0.68681783  0.12564807  1
  Hf  Hf16  1  0.11264441  0.29086276  0.63280715  1
  Hf  Hf17  1  0.79743352  0.01163844  0.23612566  1
  Hf  Hf18  1  0.31766730  0.09564134  0.88467548  1
  Hf  Hf19  1  0.70350885  0.48035052  0.11749615  1
  Hf  Hf20  1  0.20135341  0.40680486  0.01062221  1
  Hf  Hf21  1  0.79801139  0.59938252  0.51730354  1
  Hf  Hf22  1  0.80744578  0.80242185  0.74743107  1
  Hf  Hf23  1  0.70142132  0.90976824  0.88527130  1
  Hf  Hf24  1  0.41242337  0.58343541  -0.00772751  1
  Hf  Hf25  1  0.40484917  0.40200464  0.48511988  1
  Hf  Hf26  1  0.32071690  0.30086076  0.87601128  1
  Hf  Hf27  1  0.09298069  0.91994549  0.38256942  1
  Hf  Hf28  1  0.50491235  0.90764132  0.62771053  1
  Hf  Hf29  1  0.88779189  0.90201067  0.37416640  1
  Hf  Hf30  1  0.40060179  0.79268671  0.49737520  1
  Hf  Hf31  1  0.16491957  0.40214503  0.24363030  1
  Hf  Hf32  1  0.30842848  0.69714440  0.63677529  1
  Hf  Hf33  1  0.40037973  -0.00736068  0.25592930  1
  Hf  Hf34  1  0.07218636  0.29926213  0.11345388  1
  Hf  Hf35  1  0.41673601  0.03145128  0.73956208  1
  Hf  Hf36  1  0.78692159  0.18664037  0.75996227  1
  Hf  Hf37  1  0.50687056  0.69818223  0.63337970  1
  Hf  Hf38  1  0.49988741  0.92317140  0.87442251  1
  Hf  Hf39  1  0.49997729  0.29669431  0.15245321  1
  Zr  Zr40  1  0.20328618  0.00847138  0.75391148  1
  Zr  Zr41  1  0.71511020  0.69619280  0.88041758  1
  Zr  Zr42  1  0.69947424  0.50544430  0.38277479  1
  Zr  Zr43  1  0.09454393  0.09020621  0.63250180  1
  Zr  Zr44  1  0.50391855  0.50731869  0.14163292  1
  Zr  Zr45  1  0.19886430  0.20058245  -0.00244730  1
  Zr  Zr46  1  0.30617655  0.10143929  0.12823281  1
  Zr  Zr47  1  0.89423104  0.51876752  0.86561327  1
  Zr  Zr48  1  0.78323751  0.80362252  0.23697513  1
  Zr  Zr49  1  0.79759644  0.58579095  0.24131144  1
  Zr  Zr50  1  0.00913258  0.58802468  0.25095865  1
  Zr  Zr51  1  0.79283086  0.79523543  0.50927704  1
  Zr  Zr52  1  0.11339407  0.71117038  0.11601843  1
  Zr  Zr53  1  0.09903001  0.90290255  0.87075263  1
  Zr  Zr54  1  0.89637875  0.48746294  0.38584997  1
  Zr  Zr55  1  0.00881438  0.80671246  0.24852121  1
  Zr  Zr56  1  0.39216093  0.79235425  -0.01597784  1
  Zr  Zr57  1  0.67283709  0.50169601  0.88408165  1
  Zr  Zr58  1  0.29266377  0.90216809  0.63434791  1
  Zr  Zr59  1  0.20578916  0.61670025  0.25437909  1
  Zr  Zr60  1  0.80361614  0.19470124  -0.00641932  1
  Zr  Zr61  1  0.67493204  0.29041227  0.87342228  1
  Zr  Zr62  1  0.29598613  0.50940396  0.37231597  1
  Zr  Zr63  1  0.78535719  0.39762148  0.75328439  1
  Zr  Zr64  1  0.20088857  0.61110301  0.50906026  1
  Zr  Zr65  1  0.89435640  0.69167303  0.37125922  1
  Zr  Zr66  1  0.09441666  0.09367606  0.11211903  1
  Zr  Zr67  1  0.39925164  0.00524043  0.49852268  1
  Zr  Zr68  1  0.30453770  0.13159326  0.61441534  1
  Zr  Zr69  1  0.92339583  0.90339923  0.62222638  1
  Zr  Zr70  1  0.91329181  0.91266178  0.11547946  1
  Zr  Zr71  1  0.00804997  0.79172480  0.49766878  1
  Zr  Zr72  1  0.11100129  0.30992621  0.86935122  1
  Zr  Zr73  1  0.60470294  0.80252711  0.75398741  1
  Zr  Zr74  1  0.89155153  0.09794368  0.62510907  1
  Zr  Zr75  1  0.80125314  0.79968909  0.01352277  1
  Zr  Zr76  1  0.39556919  0.79257730  0.25419901  1
  Zr  Zr77  1  0.60671020  -0.01389957  0.24650473  1
  Zr  Zr78  1  0.00078497  0.39537797  0.51555995  1
  Zr  Zr79  1  0.91509525  0.69084637  0.63994679  1
  Ta  Ta80  1  0.60680934  0.20019935  0.02101411  1
  Ta  Ta81  1  0.50637272  0.08440199  0.12469559  1
  Ta  Ta82  1  0.20064243  0.81251792  0.50538691  1
  Ta  Ta83  1  0.70331461  0.10143878  0.37255073  1
  Ta  Ta84  1  -0.00613666  0.19363725  0.76916122  1
  Ta  Ta85  1  0.10548485  0.50691339  0.63410064  1
  Ta  Ta86  1  0.68759340  0.48737065  0.62440842  1
  Ta  Ta87  1  0.89967341  0.29630942  0.38233175  1
  Ta  Ta88  1  0.51174161  0.67941962  0.87183244  1
  Ta  Ta89  1  0.79287797  0.00029735  0.49718998  1
  Ta  Ta90  1  0.09316961  0.69711145  0.85801587  1
  Ta  Ta91  1  0.00987676  0.18729821  0.49729422  1
  Ta  Ta92  1  0.00498135  0.20577632  0.25246834  1
  Ta  Ta93  1  0.59232990  0.79446553  0.23961661  1
  Ta  Ta94  1  0.41228049  0.58631633  0.75708269  1
  Ta  Ta95  1  0.61854358  0.39598427  0.25951892  1
  Ta  Ta96  1  0.20333969  -0.00912925  -0.00504771  1
  Ta  Ta97  1  0.79782701  0.38972780  -0.00974549  1
  Ta  Ta98  1  0.70951100  0.29621748  0.37761810  1
  Ta  Ta99  1  0.80610110  0.59010583  0.00732728  1
  Ta  Ta100  1  0.10842303  0.72290390  0.65025524  1
  Ta  Ta101  1  0.20321638  0.81049487  0.25409948  1
  Ta  Ta102  1  0.29353576  0.90130151  0.38152708  1
  Ta  Ta103  1  0.60586036  0.00059592  0.49432688  1
  Ta  Ta104  1  0.50180409  0.10043472  0.36883377  1
  Ta  Ta105  1  0.51519780  0.12076594  0.88388960  1
  Ta  Ta106  1  0.57109779  0.39400679  0.00509000  1
  Ta  Ta107  1  0.89455750  0.89978288  0.88294385  1
  Ta  Ta108  1  0.20355318  0.60892708  -0.01409621  1
  Ta  Ta109  1  0.90491144  0.12134105  0.12095335  1
  Ta  Ta110  1  0.00465414  0.79737391  -0.00968183  1
  Ta  Ta111  1  0.79424251  0.19729138  0.50020572  1
  Ta  Ta112  1  0.50754362  0.69405508  0.37690596  1
  Ta  Ta113  1  0.49034993  0.49339689  0.62324749  1
  Ta  Ta114  1  0.68675902  0.28187490  0.62488187  1
  Ta  Ta115  1  0.68513519  0.68552225  0.11633129  1
  Ta  Ta116  1  0.28487974  0.10367908  0.37130035  1
  Ta  Ta117  1  0.60658830  0.80172452  0.50250644  1
  Ta  Ta118  1  0.80481182  0.21806960  0.24125679  1
  Ta  Ta119  1  0.50967297  0.89199344  0.37973231  1
  Ti  Ti120  1  0.09954126  0.50383050  0.87139260  1
  Ti  Ti121  1  0.22026606  0.20948092  0.75438659  1
  Ti  Ti122  1  0.69589208  0.08921265  0.88676805  1
  Ti  Ti123  1  0.61480856  0.18974900  0.24351510  1
  Ti  Ti124  1  -0.01005562  0.01185389  -0.01276154  1
  Ti  Ti125  1  0.49349564  0.69900020  0.12251726  1
  Ti  Ti126  1  0.39633882  0.20586337  0.47903513  1
  Ti  Ti127  1  0.61303486  0.02327631  0.74122486  1
  Ti  Ti128  1  0.00206603  0.60459199  -0.00961967  1
  Ti  Ti129  1  0.40615909  0.60654104  0.26307436  1
  Ti  Ti130  1  0.30353172  0.90094085  0.86892694  1
  Ti  Ti131  1  0.00572195  0.59919316  0.51008330  1
  Ti  Ti132  1  -0.00043927  0.00877524  0.24378504  1
  Ti  Ti133  1  0.38610657  0.39460860  0.73806729  1
  Ti  Ti134  1  0.59969158  0.19468166  0.49203393  1
  Ti  Ti135  1  -0.03249512  0.39501125  0.24184055  1
  Ti  Ti136  1  0.18615314  0.01577165  0.50182700  1
  Ti  Ti137  1  -0.01202587  0.20944268  -0.02888532  1
  Ti  Ti138  1  0.89924360  0.49566330  0.63366080  1
  Ti  Ti139  1  0.51179502  0.29154549  0.36177937  1
  Ti  Ti140  1  -0.01000180  -0.00068338  0.76259628  1
  Ti  Ti141  1  0.39937075  0.79143105  0.76680574  1
  Ti  Ti142  1  0.79918392  -0.00332096  0.75083140  1
  Ti  Ti143  1  0.79042040  0.60089490  0.73749570  1
  Ti  Ti144  1  0.30382589  0.69650972  0.11827715  1
  Ti  Ti145  1  0.70287441  0.90651110  0.62624371  1
  Ti  Ti146  1  0.59888143  0.39303827  0.49315363  1
  Ti  Ti147  1  0.08619850  0.50955434  0.11219421  1
  Ti  Ti148  1  0.60326919  0.58705849  0.74174442  1
  Ti  Ti149  1  0.20003827  0.79377869  -0.01965951  1
  Ti  Ti150  1  0.40043483  0.59635629  0.49525587  1
  Ti  Ti151  1  0.57788238  0.38892464  0.74549208  1
  Ti  Ti152  1  0.11344037  0.70778918  0.37783051  1
  Ti  Ti153  1  0.09710819  0.28853303  0.38072639  1
  Ti  Ti154  1  0.60232850  0.60508239  0.25891553  1
  Ti  Ti155  1  0.20861449  0.39664995  0.51026968  1
  Ti  Ti156  1  0.10367485  0.10243380  0.87497585  1
  Ti  Ti157  1  -0.01611337  0.40528837  -0.01314383  1
  Ti  Ti158  1  0.41137616  0.40953068  0.27050985  1
  Ti  Ti159  1  0.79157918  0.39169366  0.51304607  1
  Mo  Mo160  1  0.69779449  0.29706407  0.12401265  1
  Mo  Mo161  1  0.20063045  0.20739961  0.49425724  1
  Mo  Mo162  1  0.21064629  0.79942488  0.76354659  1
  Mo  Mo163  1  0.49835306  0.30524726  0.87721804  1
  Mo  Mo164  1  0.41192674  0.20838300  0.75015216  1
  Mo  Mo165  1  0.60140755  0.00646900  0.00957200  1
  Mo  Mo166  1  0.40873077  -0.00014655  0.00110266  1
  Mo  Mo167  1  0.40824121  0.19237753  0.26459412  1
  Mo  Mo168  1  -0.00298143  0.00087660  0.49746874  1
  Mo  Mo169  1  0.30437836  0.69606183  0.86494561  1
  Mo  Mo170  1  0.10589168  0.90072236  0.10308941  1
  Mo  Mo171  1  0.90792855  0.48826618  0.10694317  1
  Mo  Mo172  1  0.20464120  0.39972396  0.74094048  1
  Mo  Mo173  1  0.90686503  0.70588429  0.87376499  1
  Mo  Mo174  1  0.69633782  0.89717704  0.37751268  1
  Mo  Mo175  1  0.49398880  0.48033511  0.86707274  1
  Mo  Mo176  1  0.89397126  0.08735077  0.87168757  1
  Mo  Mo177  1  0.89300429  0.30942501  0.11450292  1
  Mo  Mo178  1  0.30136421  0.71248081  0.38453696  1
  Mo  Mo179  1  0.51619440  0.10761332  0.60828692  1
  Mo  Mo180  1  0.30786084  0.49813823  0.61931358  1
  Mo  Mo181  1  0.59928339  0.59841770  0.00352373  1
  Mo  Mo182  1  0.89569117  0.30072881  0.86661558  1
  Mo  Mo183  1  0.68699580  0.71769180  0.37086528  1
  Mo  Mo184  1  0.30135031  0.31365813  0.61907430  1
  Mo  Mo185  1  0.69370291  0.09500184  0.61722380  1
  Mo  Mo186  1  0.69811177  0.69802448  0.63493822  1
  Mo  Mo187  1  0.39529442  0.39567662  0.01527015  1
  Mo  Mo188  1  0.00346410  0.59707867  0.74822790  1
  Mo  Mo189  1  0.68784388  0.90341771  0.11254260  1
  Mo  Mo190  1  0.49545533  0.89470611  0.11992270  1
  Mo  Mo191  1  0.70631428  0.10108174  0.12569804  1
  Mo  Mo192  1  0.58652184  0.19305905  0.74537189  1
  Mo  Mo193  1  0.00108937  0.80726889  0.76301260  1
  Mo  Mo194  1  0.18723901  0.19856657  0.24957202  1
  Mo  Mo195  1  0.50699698  0.49885041  0.36862544  1
  Mo  Mo196  1  0.79937391  0.39268439  0.25092907  1
  Mo  Mo197  1  0.10120578  0.11027718  0.37189172  1
  Mo  Mo198  1  0.10427732  0.90200683  0.63031322  1
  Mo  Mo199  1  0.79953695  0.00450752  0.01179329  1
