# generated using pymatgen
data_HfZrTaTiMo
_symmetry_space_group_name_H-M   'P 1'
_cell_length_a   15.20485197
_cell_length_b   15.20991930
_cell_length_c   16.81844195
_cell_angle_alpha   89.98448556
_cell_angle_beta   90.02637961
_cell_angle_gamma   90.07555180
_symmetry_Int_Tables_number   1
_chemical_formula_structural   HfZrTaTiMo
_chemical_formula_sum   'Hf40 Zr40 Ta40 Ti40 Mo40'
_cell_volume   3889.50583337
_cell_formula_units_Z   40
loop_
 _symmetry_equiv_pos_site_id
 _symmetry_equiv_pos_as_xyz
  1  'x, y, z'
loop_
 _atom_site_type_symbol
 _atom_site_label
 _atom_site_symmetry_multiplicity
 _atom_site_fract_x
 _atom_site_fract_y
 _atom_site_fract_z
 _atom_site_occupancy
  Hf  Hf0  1  0.49014884  0.51170127  0.62752014  1
  Hf  Hf1  1  0.50097229  0.50471790  0.36620977  1
  Hf  Hf2  1  0.38959206  -0.00153930  0.75678609  1
  Hf  Hf3  1  0.19371204  0.80674871  0.75164832  1
  Hf  Hf4  1  0.28347485  0.90775412  0.13017613  1
  Hf  Hf5  1  0.88528361  0.50228003  0.60937087  1
  Hf  Hf6  1  0.19663532  0.00272257  0.48677971  1
  Hf  Hf7  1  0.07576685  0.89766504  0.62295329  1
  Hf  Hf8  1  0.00514975  0.38776962  0.26120391  1
  Hf  Hf9  1  0.29870764  0.69003083  0.36284172  1
  Hf  Hf10  1  0.60435389  0.81218065  0.75323973  1
  Hf  Hf11  1  0.67276394  0.29909793  0.35336872  1
  Hf  Hf12  1  0.20178874  0.58796391  0.74941945  1
  Hf  Hf13  1  0.30102912  0.48835910  0.89240302  1
  Hf  Hf14  1  0.90289016  0.70002200  0.37903367  1
  Hf  Hf15  1  -0.00042642  0.17702322  0.26259909  1
  Hf  Hf16  1  0.69752011  0.70468545  0.62333764  1
  Hf  Hf17  1  0.08756047  0.48280436  0.61860271  1
  Hf  Hf18  1  0.79322465  0.60311103  0.75218317  1
  Hf  Hf19  1  0.59463096  0.01269429  0.74641674  1
  Hf  Hf20  1  0.59716191  0.21213709  0.01298286  1
  Hf  Hf21  1  0.90463396  0.09952354  0.11517238  1
  Hf  Hf22  1  0.30618027  0.29074909  0.12040019  1
  Hf  Hf23  1  0.69558836  0.51249446  0.36478235  1
  Hf  Hf24  1  0.69690703  0.71048968  0.37853553  1
  Hf  Hf25  1  0.90133816  0.09194193  0.88713708  1
  Hf  Hf26  1  0.40396249  0.79563938  0.24112404  1
  Hf  Hf27  1  0.10639733  0.08174851  0.88502051  1
  Hf  Hf28  1  0.28726311  0.90126151  0.89027348  1
  Hf  Hf29  1  0.69840828  0.10547276  0.62314654  1
  Hf  Hf30  1  0.10107955  0.28365407  0.12167068  1
  Hf  Hf31  1  0.60363921  0.41637266  0.74342529  1
  Hf  Hf32  1  0.30781152  0.69497012  0.63119063  1
  Hf  Hf33  1  0.80626281  0.59924323  0.00432828  1
  Hf  Hf34  1  0.28990251  0.90000349  0.62243254  1
  Hf  Hf35  1  0.89651418  0.89991357  0.37496015  1
  Hf  Hf36  1  0.40282262  0.01006046  0.25939945  1
  Hf  Hf37  1  0.71524668  0.30983299  0.63060776  1
  Hf  Hf38  1  0.01414278  0.18933986  0.74661509  1
  Hf  Hf39  1  0.31469465  0.28761827  0.88718558  1
  Zr  Zr40  1  0.21200494  0.18950977  0.74710192  1
  Zr  Zr41  1  0.20237192  0.59317620  0.23479131  1
  Zr  Zr42  1  0.79054065  0.39025644  0.48560127  1
  Zr  Zr43  1  0.70322132  0.10018160  0.88033248  1
  Zr  Zr44  1  0.08292746  0.89091308  0.88835851  1
  Zr  Zr45  1  0.60232407  0.60623898  0.00491104  1
  Zr  Zr46  1  0.10548060  0.49391510  0.88898480  1
  Zr  Zr47  1  0.41409342  0.20181700  0.48005200  1
  Zr  Zr48  1  0.59034517  0.40682002  0.50673156  1
  Zr  Zr49  1  0.70654823  0.71957514  0.87716834  1
  Zr  Zr50  1  0.69363157  0.90703139  0.37483978  1
  Zr  Zr51  1  0.17904095  0.79340253  0.49275718  1
  Zr  Zr52  1  -0.00997551  0.59939848  0.75701962  1
  Zr  Zr53  1  0.40011748  0.79815571  0.49019732  1
  Zr  Zr54  1  0.29666739  0.29990304  0.62065040  1
  Zr  Zr55  1  0.78861141  0.80267208  0.23919786  1
  Zr  Zr56  1  -0.00267797  0.39201004  0.75869302  1
  Zr  Zr57  1  0.29420015  0.69809786  0.88952904  1
  Zr  Zr58  1  0.91166095  0.09287389  0.61476980  1
  Zr  Zr59  1  0.72097562  0.10927813  0.37039917  1
  Zr  Zr60  1  0.49497929  0.90638066  0.61917613  1
  Zr  Zr61  1  0.49937587  0.28388593  0.63755612  1
  Zr  Zr62  1  0.90412139  0.72056861  0.60778352  1
  Zr  Zr63  1  0.09854709  0.50775275  0.37316478  1
  Zr  Zr64  1  0.11309878  0.29112004  0.89249169  1
  Zr  Zr65  1  0.69775282  0.49938240  0.87978455  1
  Zr  Zr66  1  0.81475229  0.20299594  0.74774815  1
  Zr  Zr67  1  0.32041543  0.09724135  0.61832804  1
  Zr  Zr68  1  0.41146313  0.59807115  0.00563379  1
  Zr  Zr69  1  0.39324016  0.01840834  0.01114434  1
  Zr  Zr70  1  0.39878700  0.40775973  0.24336044  1
  Zr  Zr71  1  0.02018061  0.19653616  0.48650808  1
  Zr  Zr72  1  0.18170213  0.38165495  0.49352838  1
  Zr  Zr73  1  0.28668205  0.89662269  0.35734938  1
  Zr  Zr74  1  0.80630009  0.39515997  0.25828062  1
  Zr  Zr75  1  0.69685923  0.29550777  0.86957193  1
  Zr  Zr76  1  0.20602426  0.59430663  0.50392320  1
  Zr  Zr77  1  0.49593095  0.12037012  0.87748290  1
  Zr  Zr78  1  0.90801774  0.49360694  0.12960194  1
  Zr  Zr79  1  0.00924563  0.60764128  0.00037649  1
  Ta  Ta80  1  0.89695211  0.29003082  0.11992712  1
  Ta  Ta81  1  0.59292378  0.60953118  0.50303531  1
  Ta  Ta82  1  0.81261667  0.01174110  0.24291848  1
  Ta  Ta83  1  0.90424996  0.90241675  0.11889471  1
  Ta  Ta84  1  0.58850583  0.61123431  0.75723480  1
  Ta  Ta85  1  0.91186810  0.70473551  0.13141252  1
  Ta  Ta86  1  0.39299557  0.40305407  0.75613736  1
  Ta  Ta87  1  0.40510372  0.80746435  0.00953385  1
  Ta  Ta88  1  0.80676318  0.60423957  0.24442614  1
  Ta  Ta89  1  0.40456239  0.79642591  0.76078722  1
  Ta  Ta90  1  0.69649291  0.90418769  0.12372281  1
  Ta  Ta91  1  0.70342522  0.29961137  0.13835415  1
  Ta  Ta92  1  0.59252405  0.01091924  0.49811131  1
  Ta  Ta93  1  0.09684472  0.69701111  0.63210013  1
  Ta  Ta94  1  0.10695893  0.48994428  0.11686219  1
  Ta  Ta95  1  -0.01194385  -0.01936832  0.75227839  1
  Ta  Ta96  1  0.60376390  0.61748999  0.23523432  1
  Ta  Ta97  1  0.10507647  0.07770499  0.12589358  1
  Ta  Ta98  1  0.81878188  0.81612240  0.74938880  1
  Ta  Ta99  1  0.30093720  0.49571940  0.37080184  1
  Ta  Ta100  1  0.42090698  0.39256996  0.00653767  1
  Ta  Ta101  1  0.19976195  0.38929188  0.24655695  1
  Ta  Ta102  1  0.61324532  0.20537071  0.49837669  1
  Ta  Ta103  1  0.29582922  0.70259508  0.11698479  1
  Ta  Ta104  1  0.30010115  0.49397326  0.62716146  1
  Ta  Ta105  1  0.92042772  0.30603702  0.60747292  1
  Ta  Ta106  1  0.69674772  0.49881692  0.13314728  1
  Ta  Ta107  1  0.59646113  0.00392312  0.01296260  1
  Ta  Ta108  1  0.49997597  0.90754466  0.12814507  1
  Ta  Ta109  1  0.90140388  0.50536057  0.38257873  1
  Ta  Ta110  1  0.88744549  0.89598160  0.89301811  1
  Ta  Ta111  1  0.29478082  0.29849058  0.36797935  1
  Ta  Ta112  1  0.79517539  0.39277255  0.00642929  1
  Ta  Ta113  1  0.50574910  0.70187853  0.36686412  1
  Ta  Ta114  1  0.29695806  0.09608051  0.87796095  1
  Ta  Ta115  1  0.40405226  0.00524119  0.47389750  1
  Ta  Ta116  1  0.10104585  0.70112881  0.87505723  1
  Ta  Ta117  1  0.39179147  0.40567808  0.49158162  1
  Ta  Ta118  1  0.89816363  0.29919663  0.89103947  1
  Ta  Ta119  1  0.60602491  0.00474896  0.23900622  1
  Ti  Ti120  1  0.30060785  0.49338988  0.10802554  1
  Ti  Ti121  1  0.19505210  0.38850400  0.74569519  1
  Ti  Ti122  1  -0.00433066  0.39646524  -0.00011628  1
  Ti  Ti123  1  0.80095405  0.00316708  0.50040245  1
  Ti  Ti124  1  0.81272962  0.40910528  0.75495916  1
  Ti  Ti125  1  0.70456214  0.10993447  0.12914833  1
  Ti  Ti126  1  0.50785708  0.89811384  0.36700109  1
  Ti  Ti127  1  0.00284975  0.19198675  -0.00001634  1
  Ti  Ti128  1  0.69857487  0.90993716  0.88373879  1
  Ti  Ti129  1  0.49788123  0.70694002  0.62994088  1
  Ti  Ti130  1  0.50973430  0.30829866  0.13915585  1
  Ti  Ti131  1  0.60045313  0.81024510  0.00336683  1
  Ti  Ti132  1  0.90741343  0.71013777  0.88008042  1
  Ti  Ti133  1  0.18014902  0.78887902  0.01470392  1
  Ti  Ti134  1  0.08671538  0.88580918  0.13453216  1
  Ti  Ti135  1  0.59990728  0.40931259  0.00802544  1
  Ti  Ti136  1  0.40684636  0.59956081  0.23117532  1
  Ti  Ti137  1  0.20676652  0.18813911  0.48792839  1
  Ti  Ti138  1  0.52220348  0.11298741  0.36348791  1
  Ti  Ti139  1  0.08975172  0.89543805  0.35086036  1
  Ti  Ti140  1  0.40258423  0.59963101  0.49560167  1
  Ti  Ti141  1  0.29348396  0.10479677  0.14606376  1
  Ti  Ti142  1  0.51121822  0.71098275  0.12354057  1
  Ti  Ti143  1  0.78687736  0.60279447  0.49969520  1
  Ti  Ti144  1  0.79147774  0.00176767  0.00937331  1
  Ti  Ti145  1  0.40473068  0.20727984  0.26381883  1
  Ti  Ti146  1  0.89053119  0.27931467  0.38231944  1
  Ti  Ti147  1  0.00873428  0.60910102  0.49875148  1
  Ti  Ti148  1  0.71109701  0.90119502  0.61576878  1
  Ti  Ti149  1  0.09262775  0.70625620  0.35068553  1
  Ti  Ti150  1  0.40306651  0.59765785  0.76481483  1
  Ti  Ti151  1  0.59834916  0.80646483  0.50260476  1
  Ti  Ti152  1  0.49553305  0.11288918  0.13300299  1
  Ti  Ti153  1  0.50527438  0.31306727  0.86739929  1
  Ti  Ti154  1  0.49831388  0.90546456  0.88576740  1
  Ti  Ti155  1  0.79906724  -0.00361203  0.74849028  1
  Ti  Ti156  1  0.49976592  0.70934255  0.88038681  1
  Ti  Ti157  1  0.00527427  -0.00629831  0.48754133  1
  Ti  Ti158  1  0.21501869  0.17767311  0.00681131  1
  Ti  Ti159  1  0.79617752  0.79767664  0.01448942  1
  Mo  Mo160  1  0.49414977  0.30554189  0.36881068  1
  Mo  Mo161  1  0.49610383  0.49899572  0.86929945  1
  Mo  Mo162  1  0.09964406  0.69831092  0.13614140  1
  Mo  Mo163  1  0.69524670  0.51382973  0.62560290  1
  Mo  Mo164  1  0.11297006  0.08650663  0.62752245  1
  Mo  Mo165  1  0.40669142  0.20600016  0.01221303  1
  Mo  Mo166  1  0.18739931  0.00524469  0.25329913  1
  Mo  Mo167  1  -0.00592288  0.59269916  0.24908128  1
  Mo  Mo168  1  -0.00573162  -0.01135699  0.24716982  1
  Mo  Mo169  1  0.00380908  0.80228879  0.48786862  1
  Mo  Mo170  1  0.09773081  0.28828037  0.62458585  1
  Mo  Mo171  1  0.20550931  0.39071924  0.01282573  1
  Mo  Mo172  1  -0.00727876  0.79564765  0.75424109  1
  Mo  Mo173  1  0.50470421  0.09710088  0.61582916  1
  Mo  Mo174  1  0.50504661  0.50173135  0.13054707  1
  Mo  Mo175  1  0.59491515  0.19624800  0.23515287  1
  Mo  Mo176  1  -0.01114188  0.79466161  0.00773937  1
  Mo  Mo177  1  0.60016747  0.20470370  0.74767277  1
  Mo  Mo178  1  0.89443625  0.49139900  0.88598541  1
  Mo  Mo179  1  0.19328727  0.79466927  0.23721893  1
  Mo  Mo180  1  0.10685055  0.08459903  0.36589845  1
  Mo  Mo181  1  -0.00735079  0.79210140  0.24699789  1
  Mo  Mo182  1  0.30255879  0.10388608  0.36370387  1
  Mo  Mo183  1  0.20190668  0.59916313  0.01598296  1
  Mo  Mo184  1  0.80087830  0.20576303  0.00560157  1
  Mo  Mo185  1  0.18365111  0.00307845  0.74507039  1
  Mo  Mo186  1  0.59298932  0.80846678  0.24265355  1
  Mo  Mo187  1  0.19534516  -0.00568786  0.01333357  1
  Mo  Mo188  1  0.90345621  0.09017717  0.38390705  1
  Mo  Mo189  1  0.80401595  0.19936887  0.50436275  1
  Mo  Mo190  1  0.70518463  0.70465978  0.12144384  1
  Mo  Mo191  1  0.59744113  0.41123021  0.23942244  1
  Mo  Mo192  1  0.41142845  0.19823981  0.75563740  1
  Mo  Mo193  1  0.10574331  0.29196431  0.36304372  1
  Mo  Mo194  1  0.88870952  0.90712725  0.61562708  1
  Mo  Mo195  1  -0.00209383  -0.00737565  0.00735541  1
  Mo  Mo196  1  0.79280258  0.80803734  0.50012104  1
  Mo  Mo197  1  -0.00839475  0.39838690  0.48237873  1
  Mo  Mo198  1  0.20219234  0.19782019  0.25430447  1
  Mo  Mo199  1  0.80529467  0.19861985  0.24414625  1
