# generated using pymatgen
data_HfZrTaTiMo
_symmetry_space_group_name_H-M   'P 1'
_cell_length_a   15.20737522
_cell_length_b   15.21204573
_cell_length_c   16.85811049
_cell_angle_alpha   89.99335122
_cell_angle_beta   89.91317281
_cell_angle_gamma   89.88080890
_symmetry_Int_Tables_number   1
_chemical_formula_structural   HfZrTaTiMo
_chemical_formula_sum   'Hf40 Zr40 Ta40 Ti40 Mo40'
_cell_volume   3899.86288942
_cell_formula_units_Z   40
loop_
 _symmetry_equiv_pos_site_id
 _symmetry_equiv_pos_as_xyz
  1  'x, y, z'
loop_
 _atom_site_type_symbol
 _atom_site_label
 _atom_site_symmetry_multiplicity
 _atom_site_fract_x
 _atom_site_fract_y
 _atom_site_fract_z
 _atom_site_occupancy
  Hf  Hf0  1  0.60828239  0.40994775  0.50760340  1
  Hf  Hf1  1  0.48873824  0.51373396  0.61378139  1
  Hf  Hf2  1  0.50173437  0.71445832  0.37302924  1
  Hf  Hf3  1  0.89229769  0.10786536  0.12264310  1
  Hf  Hf4  1  0.70264709  0.49933782  0.12463198  1
  Hf  Hf5  1  -0.00620607  0.61274398  0.49167057  1
  Hf  Hf6  1  0.28890272  0.50225756  0.13839133  1
  Hf  Hf7  1  0.89714240  0.09003465  0.63952042  1
  Hf  Hf8  1  0.60147473  0.61188228  0.23818509  1
  Hf  Hf9  1  0.48733604  0.50609762  0.87942662  1
  Hf  Hf10  1  0.58687548  0.61761603  0.74288127  1
  Hf  Hf11  1  0.00408182  0.58283725  0.26467100  1
  Hf  Hf12  1  0.58417089  0.21222313  0.74784784  1
  Hf  Hf13  1  0.68810420  0.10495708  0.87196185  1
  Hf  Hf14  1  0.39080574  0.61121950  0.00625801  1
  Hf  Hf15  1  0.29385271  0.90259717  0.63983099  1
  Hf  Hf16  1  0.48734947  0.50038415  0.12925143  1
  Hf  Hf17  1  0.01195295  0.79528731  0.00981798  1
  Hf  Hf18  1  0.18650378  0.81011060  0.23530959  1
  Hf  Hf19  1  0.60889078  0.80624236  0.23972003  1
  Hf  Hf20  1  0.00944485  0.58577234  -0.01707351  1
  Hf  Hf21  1  0.58929839  0.01168943  0.25447170  1
  Hf  Hf22  1  0.39444576  0.19712872  0.25447390  1
  Hf  Hf23  1  0.29855593  0.29730623  0.11971835  1
  Hf  Hf24  1  0.80176785  0.00090880  0.49183468  1
  Hf  Hf25  1  0.10657907  0.66995891  0.12939575  1
  Hf  Hf26  1  0.01167537  -0.01013574  0.24416430  1
  Hf  Hf27  1  0.59686023  0.21457311  0.50352537  1
  Hf  Hf28  1  0.20355210  -0.00922554  0.50475343  1
  Hf  Hf29  1  0.00552667  0.38055564  -0.02006711  1
  Hf  Hf30  1  0.68899753  0.50759149  0.87819522  1
  Hf  Hf31  1  0.69864976  0.11360604  0.63531677  1
  Hf  Hf32  1  0.79665599  0.59358289  0.50094805  1
  Hf  Hf33  1  0.80458407  0.61084304  -0.00074819  1
  Hf  Hf34  1  0.71155803  0.30902386  0.36970199  1
  Hf  Hf35  1  0.81313102  0.81270045  0.74705190  1
  Hf  Hf36  1  0.28557335  0.68739692  0.85916329  1
  Hf  Hf37  1  0.58889151  0.40659897  0.74103362  1
  Hf  Hf38  1  0.41572990  0.79852608  0.74278091  1
  Hf  Hf39  1  0.50044930  0.50474565  0.37563705  1
  Zr  Zr40  1  0.09557189  0.09685357  0.11441201  1
  Zr  Zr41  1  0.79255364  0.39605498  0.75057762  1
  Zr  Zr42  1  0.29237105  0.90649768  0.36166678  1
  Zr  Zr43  1  0.81296484  0.60284309  0.75540821  1
  Zr  Zr44  1  0.80949532  0.40212120  -0.01639994  1
  Zr  Zr45  1  0.49606460  0.71403966  0.88313827  1
  Zr  Zr46  1  0.10724248  0.28202019  0.85749156  1
  Zr  Zr47  1  0.21495884  0.78276902  0.01157336  1
  Zr  Zr48  1  0.78931235  0.00486283  -0.00861666  1
  Zr  Zr49  1  0.70858199  0.50882914  0.36450581  1
  Zr  Zr50  1  0.48066720  0.10938400  0.62110640  1
  Zr  Zr51  1  0.59877007  0.81224597  0.50065774  1
  Zr  Zr52  1  0.19942111  0.57194773  0.72555667  1
  Zr  Zr53  1  0.79770064  0.00192774  0.25125871  1
  Zr  Zr54  1  0.70847868  0.91850113  0.62540374  1
  Zr  Zr55  1  0.10080283  0.48120332  0.39235754  1
  Zr  Zr56  1  0.69840311  0.70229847  0.62641854  1
  Zr  Zr57  1  0.58982015  0.01211489  0.48794433  1
  Zr  Zr58  1  0.09838390  0.29867439  0.63960762  1
  Zr  Zr59  1  0.60444994  0.20327095  0.25082767  1
  Zr  Zr60  1  0.91225761  0.49868115  0.12282172  1
  Zr  Zr61  1  0.08138249  0.70759740  0.63828166  1
  Zr  Zr62  1  0.19220452  -0.01604589  -0.00505067  1
  Zr  Zr63  1  0.48616018  0.30446915  0.37635397  1
  Zr  Zr64  1  0.20210161  0.60048370  0.50637134  1
  Zr  Zr65  1  0.10410878  0.87087456  0.86115695  1
  Zr  Zr66  1  0.69738727  0.72034830  0.87708301  1
  Zr  Zr67  1  0.71355845  0.29658070  0.11977488  1
  Zr  Zr68  1  0.91079492  0.10212811  0.37367444  1
  Zr  Zr69  1  0.92204655  0.49972490  0.62619972  1
  Zr  Zr70  1  0.31009043  0.29671046  0.87140918  1
  Zr  Zr71  1  0.80989339  0.62818065  0.23656485  1
  Zr  Zr72  1  0.29859555  0.70654298  0.37039775  1
  Zr  Zr73  1  0.49970074  0.29828356  0.11620215  1
  Zr  Zr74  1  0.19957629  0.19437409  0.50666809  1
  Zr  Zr75  1  0.83120440  0.79629294  0.51629749  1
  Zr  Zr76  1  0.00234535  -0.01475370  0.50687097  1
  Zr  Zr77  1  0.19596855  0.38438679  0.25602316  1
  Zr  Zr78  1  0.31410545  0.89409939  0.86780278  1
  Zr  Zr79  1  -0.01731147  0.78439165  0.23162339  1
  Ta  Ta80  1  0.29913444  0.09933791  0.12184779  1
  Ta  Ta81  1  0.70535607  0.11461395  0.37471136  1
  Ta  Ta82  1  0.59469998  0.40492386  0.24687261  1
  Ta  Ta83  1  0.30872736  0.48724647  0.37894293  1
  Ta  Ta84  1  0.89652069  0.28672257  0.64511760  1
  Ta  Ta85  1  0.20121750  0.39884099  -0.00255441  1
  Ta  Ta86  1  0.48255307  0.91263219  0.36521401  1
  Ta  Ta87  1  0.12301579  0.49326767  0.86736315  1
  Ta  Ta88  1  0.31503803  0.70401083  0.14456368  1
  Ta  Ta89  1  0.69204199  0.10551357  0.11845534  1
  Ta  Ta90  1  0.48826449  0.90718202  0.13221680  1
  Ta  Ta91  1  0.91314389  0.29598328  0.12180722  1
  Ta  Ta92  1  0.31485025  0.28816923  0.63053684  1
  Ta  Ta93  1  0.60434277  0.81819245  0.74314618  1
  Ta  Ta94  1  0.89873831  0.87325746  0.36891724  1
  Ta  Ta95  1  0.11374878  0.09282846  0.37242763  1
  Ta  Ta96  1  0.00407077  0.19929618  0.25104959  1
  Ta  Ta97  1  0.71873262  0.71866240  0.37520273  1
  Ta  Ta98  1  0.50264685  0.30445121  0.88591889  1
  Ta  Ta99  1  0.90270512  0.90375995  0.88680841  1
  Ta  Ta100  1  0.00549520  0.40825338  0.76033680  1
  Ta  Ta101  1  0.30883783  0.69977019  0.62400754  1
  Ta  Ta102  1  0.10099186  0.08708087  0.64011895  1
  Ta  Ta103  1  0.90139376  0.27897534  0.85318214  1
  Ta  Ta104  1  0.20281227  0.19260370  -0.00962244  1
  Ta  Ta105  1  0.60250646  0.81128816  0.01648233  1
  Ta  Ta106  1  0.69258489  0.30021657  0.87945800  1
  Ta  Ta107  1  0.90210916  0.90480497  0.11140103  1
  Ta  Ta108  1  0.91584816  0.70778447  0.87710263  1
  Ta  Ta109  1  0.58734881  0.00100862  0.00251706  1
  Ta  Ta110  1  0.09498768  0.89658231  0.37310846  1
  Ta  Ta111  1  0.80911181  0.38918343  0.51424707  1
  Ta  Ta112  1  0.39465568  0.00810429  -0.00260597  1
  Ta  Ta113  1  -0.00176221  0.38294853  0.25301267  1
  Ta  Ta114  1  0.39100581  0.40325333  0.74338396  1
  Ta  Ta115  1  0.59954671  0.61277855  0.49894374  1
  Ta  Ta116  1  0.08769164  0.28467287  0.38613979  1
  Ta  Ta117  1  0.59674376  0.61352175  0.01639548  1
  Ta  Ta118  1  0.58725656  0.00311546  0.75509008  1
  Ta  Ta119  1  0.80316033  0.20351136  0.50710139  1
  Ti  Ti120  1  0.19892211  0.39517154  0.51603459  1
  Ti  Ti121  1  0.20074110  0.59494026  0.26711950  1
  Ti  Ti122  1  0.39591527  0.59525504  0.74213716  1
  Ti  Ti123  1  0.49117482  0.10074686  0.11866511  1
  Ti  Ti124  1  0.18784718  0.80079082  0.50845145  1
  Ti  Ti125  1  0.21401238  0.18450557  0.75152535  1
  Ti  Ti126  1  0.79864322  0.80600599  0.00218988  1
  Ti  Ti127  1  -0.00360658  0.19675902  0.51129751  1
  Ti  Ti128  1  0.49489768  0.90956111  0.62292342  1
  Ti  Ti129  1  0.81154098  0.39889024  0.24627821  1
  Ti  Ti130  1  0.09890300  0.28733291  0.11653817  1
  Ti  Ti131  1  0.39563225  0.01876487  0.76124368  1
  Ti  Ti132  1  0.59612606  0.19667255  -0.00184741  1
  Ti  Ti133  1  0.31708797  0.09549146  0.38191818  1
  Ti  Ti134  1  0.90083899  0.29410011  0.37797082  1
  Ti  Ti135  1  0.79539047  0.00249816  0.76802670  1
  Ti  Ti136  1  0.39486257  0.39054439  0.50772275  1
  Ti  Ti137  1  0.51226751  0.90840726  0.87876935  1
  Ti  Ti138  1  0.40721336  0.81132685  0.01213803  1
  Ti  Ti139  1  0.81217560  0.20254925  -0.01434917  1
  Ti  Ti140  1  0.28833772  0.29564772  0.38367085  1
  Ti  Ti141  1  0.59812872  0.40676053  0.00197829  1
  Ti  Ti142  1  0.70196603  0.91090890  0.12599057  1
  Ti  Ti143  1  0.09915485  0.47505928  0.12411463  1
  Ti  Ti144  1  0.19581591  0.18940916  0.25356396  1
  Ti  Ti145  1  0.70213328  0.50228755  0.62819017  1
  Ti  Ti146  1  0.20317860  0.58750949  -0.00359453  1
  Ti  Ti147  1  0.39195354  0.40482791  -0.00262784  1
  Ti  Ti148  1  0.30057297  0.91221882  0.13652553  1
  Ti  Ti149  1  0.08163014  0.08995483  0.87715435  1
  Ti  Ti150  1  0.39191281  0.81542114  0.50447051  1
  Ti  Ti151  1  0.70010019  0.90292952  0.37037931  1
  Ti  Ti152  1  0.09155652  0.71244379  0.37349575  1
  Ti  Ti153  1  0.39951901  0.61022386  0.49568110  1
  Ti  Ti154  1  0.40009418  0.60036640  0.25708950  1
  Ti  Ti155  1  0.19620850  -0.00159627  0.76129764  1
  Ti  Ti156  1  0.29862665  0.09530860  0.62563863  1
  Ti  Ti157  1  0.90034961  0.48177531  0.38330084  1
  Ti  Ti158  1  0.47902466  0.11286372  0.88188442  1
  Ti  Ti159  1  -0.00587567  -0.01530722  0.75355406  1
  Mo  Mo160  1  0.20794776  0.39075080  0.73651565  1
  Mo  Mo161  1  0.09733591  0.49070182  0.61281182  1
  Mo  Mo162  1  0.10299470  0.89941780  0.12185472  1
  Mo  Mo163  1  0.39673387  0.40558697  0.25573667  1
  Mo  Mo164  1  0.40369694  0.80513030  0.24396023  1
  Mo  Mo165  1  0.89992724  0.69251212  0.37422904  1
  Mo  Mo166  1  0.28717026  0.09951722  0.87705446  1
  Mo  Mo167  1  0.49753495  0.70815001  0.12468375  1
  Mo  Mo168  1  0.70450428  0.30451000  0.62413783  1
  Mo  Mo169  1  0.39927029  0.19419878  0.00098753  1
  Mo  Mo170  1  0.79265619  0.19627566  0.75816981  1
  Mo  Mo171  1  0.92159102  0.89730106  0.63475795  1
  Mo  Mo172  1  -0.00310705  0.19337926  -0.00787941  1
  Mo  Mo173  1  0.70344341  0.71409287  0.11342988  1
  Mo  Mo174  1  0.10509923  0.68582646  0.86399363  1
  Mo  Mo175  1  0.00360227  0.18175611  0.74786041  1
  Mo  Mo176  1  0.81198746  0.21123728  0.24768287  1
  Mo  Mo177  1  0.49522018  0.10171121  0.38105369  1
  Mo  Mo178  1  0.30515786  0.49055864  0.60821871  1
  Mo  Mo179  1  0.30187034  0.49400717  0.87404446  1
  Mo  Mo180  1  0.79840820  0.81128638  0.24168374  1
  Mo  Mo181  1  -0.00714404  0.37830737  0.50315304  1
  Mo  Mo182  1  0.10202124  0.90254378  0.64423930  1
  Mo  Mo183  1  0.39934852  0.20141106  0.75434144  1
  Mo  Mo184  1  0.49265813  0.71211592  0.61209146  1
  Mo  Mo185  1  0.90090161  0.70351779  0.10461291  1
  Mo  Mo186  1  -0.00703322  -0.00443875  -0.00471190  1
  Mo  Mo187  1  0.90163520  0.69810149  0.63439092  1
  Mo  Mo188  1  0.90314179  0.09565688  0.86673219  1
  Mo  Mo189  1  0.00380836  0.59443579  0.76835704  1
  Mo  Mo190  1  0.01506915  0.80217638  0.49727111  1
  Mo  Mo191  1  0.20199071  0.01451281  0.24801839  1
  Mo  Mo192  1  0.90728774  0.49531345  0.86893511  1
  Mo  Mo193  1  0.20800500  0.79146232  0.73931179  1
  Mo  Mo194  1  0.49324381  0.31062208  0.62018979  1
  Mo  Mo195  1  0.39191408  0.19740497  0.49474747  1
  Mo  Mo196  1  -0.00509893  0.79488333  0.75833757  1
  Mo  Mo197  1  0.39449831  -0.00463636  0.50104015  1
  Mo  Mo198  1  0.39501171  0.00990486  0.24275451  1
  Mo  Mo199  1  0.68979661  0.90432678  0.87418952  1
