# generated using pymatgen
data_HfZrTaTiMo
_symmetry_space_group_name_H-M   'P 1'
_cell_length_a   15.21348232
_cell_length_b   15.21996099
_cell_length_c   16.86167135
_cell_angle_alpha   89.98512438
_cell_angle_beta   90.10691950
_cell_angle_gamma   90.02299885
_symmetry_Int_Tables_number   1
_chemical_formula_structural   HfZrTaTiMo
_chemical_formula_sum   'Hf40 Zr40 Ta40 Ti40 Mo40'
_cell_volume   3904.28927745
_cell_formula_units_Z   40
loop_
 _symmetry_equiv_pos_site_id
 _symmetry_equiv_pos_as_xyz
  1  'x, y, z'
loop_
 _atom_site_type_symbol
 _atom_site_label
 _atom_site_symmetry_multiplicity
 _atom_site_fract_x
 _atom_site_fract_y
 _atom_site_fract_z
 _atom_site_occupancy
  Hf  Hf0  1  0.49713204  0.10171499  0.12900236  1
  Hf  Hf1  1  0.19967368  0.21132669  0.76266075  1
  Hf  Hf2  1  0.90043801  0.71514697  0.14624985  1
  Hf  Hf3  1  0.78760653  -0.00979698  0.50130239  1
  Hf  Hf4  1  0.71068876  0.50541442  0.63157602  1
  Hf  Hf5  1  0.39421793  -0.00343627  0.73708706  1
  Hf  Hf6  1  0.60171757  0.57923446  0.25327062  1
  Hf  Hf7  1  0.80390059  0.61430024  -0.00134288  1
  Hf  Hf8  1  0.29319717  0.30916689  0.62034884  1
  Hf  Hf9  1  0.39720289  0.19960546  0.25954667  1
  Hf  Hf10  1  0.91065583  0.28830127  0.88226517  1
  Hf  Hf11  1  0.59210278  0.00431379  0.00049385  1
  Hf  Hf12  1  0.21268908  0.20477154  -0.01102496  1
  Hf  Hf13  1  0.50287087  0.69536831  0.86577515  1
  Hf  Hf14  1  0.18264313  0.20253330  0.25391183  1
  Hf  Hf15  1  0.91003435  0.69850893  0.36480867  1
  Hf  Hf16  1  0.50403731  0.30625073  0.62401624  1
  Hf  Hf17  1  0.60072600  0.19348327  0.74498831  1
  Hf  Hf18  1  0.40123221  0.19036766  0.50718652  1
  Hf  Hf19  1  0.89168916  0.92208394  0.13041164  1
  Hf  Hf20  1  0.39820108  0.19871539  0.74685552  1
  Hf  Hf21  1  0.32277178  0.69228016  0.36440769  1
  Hf  Hf22  1  0.50104373  0.50388091  0.38136159  1
  Hf  Hf23  1  0.31496927  0.31418711  0.12492040  1
  Hf  Hf24  1  0.49946634  0.47019911  0.12095021  1
  Hf  Hf25  1  0.70371445  0.09773184  0.87976931  1
  Hf  Hf26  1  -0.01280343  -0.01821519  0.74657077  1
  Hf  Hf27  1  0.48426378  0.87773522  0.12349199  1
  Hf  Hf28  1  0.69833956  0.69483384  0.12847671  1
  Hf  Hf29  1  0.28782056  0.09949516  0.12802307  1
  Hf  Hf30  1  0.60970482  0.20930356  0.24496898  1
  Hf  Hf31  1  0.80193725  0.59153677  0.48621753  1
  Hf  Hf32  1  0.10234852  0.29857466  0.10753535  1
  Hf  Hf33  1  0.00675244  0.60575660  0.00632284  1
  Hf  Hf34  1  0.10124471  0.69843401  0.62869650  1
  Hf  Hf35  1  0.72004995  0.09316527  0.12721966  1
  Hf  Hf36  1  0.21481001  0.81560243  0.26454585  1
  Hf  Hf37  1  0.08827253  0.10538858  0.88298994  1
  Hf  Hf38  1  0.70307667  0.29640576  0.87525547  1
  Hf  Hf39  1  0.60403296  -0.01261862  0.25144612  1
  Zr  Zr40  1  0.69364044  0.49894227  0.86658926  1
  Zr  Zr41  1  0.30336258  0.50591271  0.64288136  1
  Zr  Zr42  1  0.21437458  0.59763596  0.49653328  1
  Zr  Zr43  1  0.90970331  0.51044273  0.87739864  1
  Zr  Zr44  1  0.90399308  0.49981147  0.12702971  1
  Zr  Zr45  1  0.79724663  0.59564331  0.26318823  1
  Zr  Zr46  1  0.38590887  -0.00358865  -0.00279539  1
  Zr  Zr47  1  0.10430058  0.70472721  0.14451030  1
  Zr  Zr48  1  0.39387308  -0.01321775  0.51179345  1
  Zr  Zr49  1  0.78839002  0.82660423  0.27366272  1
  Zr  Zr50  1  0.77684665  0.79220703  0.48756499  1
  Zr  Zr51  1  0.09068401  0.09747008  0.39469042  1
  Zr  Zr52  1  0.38812747  -0.01505592  0.25888974  1
  Zr  Zr53  1  0.69510484  0.89587074  0.87924064  1
  Zr  Zr54  1  0.59076653  -0.01027257  0.74038326  1
  Zr  Zr55  1  0.39657240  0.41741883  0.49980321  1
  Zr  Zr56  1  0.28562190  0.30827088  0.38799993  1
  Zr  Zr57  1  0.10545682  0.29492144  0.61406184  1
  Zr  Zr58  1  -0.00693753  0.01755913  0.25157326  1
  Zr  Zr59  1  0.09649736  0.90012285  0.62021527  1
  Zr  Zr60  1  0.68169921  0.09873742  0.38458296  1
  Zr  Zr61  1  0.88812872  0.11939500  0.37771915  1
  Zr  Zr62  1  -0.00166060  0.19184814  0.74292780  1
  Zr  Zr63  1  -0.01338157  0.80323541  0.00374808  1
  Zr  Zr64  1  0.20249483  0.80410587  -0.00711027  1
  Zr  Zr65  1  0.01644182  0.40134809  0.75459746  1
  Zr  Zr66  1  0.30749931  0.70636394  0.13459967  1
  Zr  Zr67  1  0.89721307  0.09557221  0.61671667  1
  Zr  Zr68  1  0.08674802  0.90118218  0.87377207  1
  Zr  Zr69  1  0.59607739  0.58064346  -0.00425532  1
  Zr  Zr70  1  0.58931220  0.78387192  -0.00294714  1
  Zr  Zr71  1  0.00071756  0.38179215  0.24241742  1
  Zr  Zr72  1  0.80857827  0.40080301  0.75303075  1
  Zr  Zr73  1  0.51472930  0.29168201  0.38790326  1
  Zr  Zr74  1  0.41306249  0.21172003  -0.00737559  1
  Zr  Zr75  1  0.78505029  0.21637048  0.50543576  1
  Zr  Zr76  1  0.70090698  0.89256641  0.11297972  1
  Zr  Zr77  1  0.00601952  0.80175754  0.48618096  1
  Zr  Zr78  1  0.20105885  0.61064893  -0.01156649  1
  Zr  Zr79  1  0.10414826  0.49734674  0.62411856  1
  Ta  Ta80  1  0.22770559  0.41480983  -0.01354380  1
  Ta  Ta81  1  0.69958136  0.30570358  0.63196051  1
  Ta  Ta82  1  0.81463067  0.19382906  0.00814482  1
  Ta  Ta83  1  0.27975815  0.10196630  0.62081431  1
  Ta  Ta84  1  -0.00990222  0.20922816  0.50716968  1
  Ta  Ta85  1  0.30650290  0.71146849  0.63884169  1
  Ta  Ta86  1  0.30810728  0.51056944  0.13162808  1
  Ta  Ta87  1  0.18997154  0.00091105  0.26081621  1
  Ta  Ta88  1  0.70024243  0.48847700  0.12004492  1
  Ta  Ta89  1  0.78887837  0.39508274  0.24929780  1
  Ta  Ta90  1  0.48735243  0.48786277  0.86337392  1
  Ta  Ta91  1  0.48112738  0.89011411  0.87436770  1
  Ta  Ta92  1  0.61885493  0.40355622  0.50255506  1
  Ta  Ta93  1  0.68510027  0.09961972  0.61641449  1
  Ta  Ta94  1  0.19301739  0.80531718  0.75423834  1
  Ta  Ta95  1  0.49041859  0.67789068  0.13105234  1
  Ta  Ta96  1  0.90841820  0.48230681  0.36937824  1
  Ta  Ta97  1  0.90182721  0.69556759  0.61738113  1
  Ta  Ta98  1  0.81765341  0.61650180  0.74925422  1
  Ta  Ta99  1  0.08436052  0.30147365  0.38815349  1
  Ta  Ta100  1  0.50126453  0.88953630  0.38151983  1
  Ta  Ta101  1  0.09124193  0.10072174  0.11410955  1
  Ta  Ta102  1  0.11928004  0.49797446  0.12394940  1
  Ta  Ta103  1  0.40785907  0.40275113  0.26076790  1
  Ta  Ta104  1  0.78969667  -0.00151519  0.73755093  1
  Ta  Ta105  1  0.89861210  0.31226280  0.62601472  1
  Ta  Ta106  1  0.11184803  0.49233645  0.37432203  1
  Ta  Ta107  1  0.30721896  0.71097389  0.85901074  1
  Ta  Ta108  1  0.71151568  0.70482198  0.86475496  1
  Ta  Ta109  1  0.29266118  0.09480914  0.38398160  1
  Ta  Ta110  1  0.50758986  0.30595793  0.86490508  1
  Ta  Ta111  1  0.80015001  0.80794548  0.73930273  1
  Ta  Ta112  1  0.51350922  0.70279594  0.37602386  1
  Ta  Ta113  1  0.79722742  0.39827895  0.00085149  1
  Ta  Ta114  1  0.39272708  0.59512177  -0.00934577  1
  Ta  Ta115  1  0.29466221  0.90350647  0.86433607  1
  Ta  Ta116  1  0.60668715  0.60882694  0.50381590  1
  Ta  Ta117  1  0.41421421  0.61532984  0.51364987  1
  Ta  Ta118  1  0.11203868  0.69283341  0.36359173  1
  Ta  Ta119  1  0.10201815  0.91204747  0.12569527  1
  Ti  Ti120  1  0.00531769  0.59591050  0.48824064  1
  Ti  Ti121  1  0.00369591  0.40219426  0.00167801  1
  Ti  Ti122  1  -0.00341520  0.40554550  0.49881091  1
  Ti  Ti123  1  0.51158908  0.50160639  0.63160116  1
  Ti  Ti124  1  0.69830505  0.30528345  0.12015964  1
  Ti  Ti125  1  0.19451377  -0.01282837  0.49318787  1
  Ti  Ti126  1  0.19180639  0.00835873  0.74850358  1
  Ti  Ti127  1  0.80089251  0.19383652  0.74132330  1
  Ti  Ti128  1  0.08036911  0.70003490  0.85890015  1
  Ti  Ti129  1  0.21480387  0.79928883  0.48548782  1
  Ti  Ti130  1  0.59262574  0.79787075  0.73984020  1
  Ti  Ti131  1  0.91099703  0.50829973  0.62586916  1
  Ti  Ti132  1  0.40890284  0.60547878  0.74506270  1
  Ti  Ti133  1  0.29086227  0.90107733  0.12307244  1
  Ti  Ti134  1  0.60732580  0.60089681  0.74659101  1
  Ti  Ti135  1  0.82295656  0.20871860  0.23764755  1
  Ti  Ti136  1  0.19682994  0.60266718  0.75925517  1
  Ti  Ti137  1  0.28806559  0.89487420  0.63001549  1
  Ti  Ti138  1  0.60540615  0.20911125  0.00660167  1
  Ti  Ti139  1  0.49906728  0.09598003  0.87451001  1
  Ti  Ti140  1  0.90378854  0.91944415  0.37969214  1
  Ti  Ti141  1  0.89340079  0.88855794  0.61518358  1
  Ti  Ti142  1  0.59767859  0.78925325  0.25211094  1
  Ti  Ti143  1  0.49471693  0.08902801  0.38199794  1
  Ti  Ti144  1  0.19234667  0.00096293  -0.00443328  1
  Ti  Ti145  1  0.89138935  0.08948119  0.87125844  1
  Ti  Ti146  1  0.30124894  0.09764161  0.87004944  1
  Ti  Ti147  1  0.40599650  0.79625374  0.50931032  1
  Ti  Ti148  1  0.10863818  0.50327399  0.87287379  1
  Ti  Ti149  1  0.71098435  0.30540395  0.37209796  1
  Ti  Ti150  1  0.09736068  0.09326165  0.60938747  1
  Ti  Ti151  1  0.80900147  0.40277278  0.49815106  1
  Ti  Ti152  1  0.88442921  0.89258749  0.87603735  1
  Ti  Ti153  1  0.01326350  0.82106179  0.26395976  1
  Ti  Ti154  1  0.01409513  0.58839481  0.25252532  1
  Ti  Ti155  1  -0.01913449  0.01356821  0.00238270  1
  Ti  Ti156  1  0.69833665  0.70663975  0.62841234  1
  Ti  Ti157  1  0.20507005  0.40595074  0.25092194  1
  Ti  Ti158  1  0.58879863  -0.01823210  0.51672438  1
  Ti  Ti159  1  0.10888290  0.31147508  0.88754660  1
  Mo  Mo160  1  0.41638775  0.79765458  0.25400354  1
  Mo  Mo161  1  0.30461852  0.51354368  0.85778222  1
  Mo  Mo162  1  0.58447953  0.79261799  0.51247163  1
  Mo  Mo163  1  0.79398874  0.01316492  0.26016129  1
  Mo  Mo164  1  0.30171552  0.50290775  0.36629342  1
  Mo  Mo165  1  0.50285484  0.68931441  0.63463231  1
  Mo  Mo166  1  0.89355342  0.30333968  0.11075209  1
  Mo  Mo167  1  -0.00988315  -0.00201756  0.50239338  1
  Mo  Mo168  1  0.19785379  0.19215001  0.49960167  1
  Mo  Mo169  1  -0.01747985  0.78655913  0.74380780  1
  Mo  Mo170  1  0.00406291  0.20310617  -0.00691258  1
  Mo  Mo171  1  0.80126926  0.79789188  -0.00120221  1
  Mo  Mo172  1  0.69840708  0.89444792  0.62826995  1
  Mo  Mo173  1  0.40674963  0.40117243  0.74474517  1
  Mo  Mo174  1  0.10020743  0.89805995  0.38009778  1
  Mo  Mo175  1  0.59923215  0.40376549  0.74281246  1
  Mo  Mo176  1  0.49245652  0.88244787  0.62642220  1
  Mo  Mo177  1  0.89730176  0.71183424  0.86989076  1
  Mo  Mo178  1  0.40645847  0.40805154  -0.00763652  1
  Mo  Mo179  1  0.68910430  0.69569858  0.37505914  1
  Mo  Mo180  1  0.49386211  0.09836973  0.62149128  1
  Mo  Mo181  1  0.31711612  0.31979287  0.86945486  1
  Mo  Mo182  1  0.19221412  0.40335764  0.49415261  1
  Mo  Mo183  1  0.20281577  0.59109617  0.25412596  1
  Mo  Mo184  1  0.21007681  0.40313813  0.77221156  1
  Mo  Mo185  1  0.80730063  -0.00015039  -0.00619132  1
  Mo  Mo186  1  0.30339884  0.89814659  0.38614712  1
  Mo  Mo187  1  0.00513695  0.20677839  0.24711076  1
  Mo  Mo188  1  0.70039828  0.48756954  0.38259769  1
  Mo  Mo189  1  0.89756422  0.30670404  0.37687300  1
  Mo  Mo190  1  0.50635708  0.29436831  0.12857581  1
  Mo  Mo191  1  0.67760574  0.89776603  0.38112772  1
  Mo  Mo192  1  0.60068605  0.38359892  -0.00410966  1
  Mo  Mo193  1  0.39161231  0.78723002  -0.00819251  1
  Mo  Mo194  1  0.59456110  0.19641489  0.51293192  1
  Mo  Mo195  1  0.90932659  0.11399641  0.12481830  1
  Mo  Mo196  1  0.39846998  0.80371128  0.74466845  1
  Mo  Mo197  1  0.60750291  0.39117105  0.25397211  1
  Mo  Mo198  1  0.00326758  0.60554093  0.74825473  1
  Mo  Mo199  1  0.40769917  0.59166024  0.24858518  1
