# generated using pymatgen
data_HfZrTaTiMo
_symmetry_space_group_name_H-M   'P 1'
_cell_length_a   15.22047186
_cell_length_b   15.20860815
_cell_length_c   16.82005990
_cell_angle_alpha   89.99581324
_cell_angle_beta   90.06247471
_cell_angle_gamma   89.94533896
_symmetry_Int_Tables_number   1
_chemical_formula_structural   HfZrTaTiMo
_chemical_formula_sum   'Hf40 Zr40 Ta40 Ti40 Mo40'
_cell_volume   3893.54024484
_cell_formula_units_Z   40
loop_
 _symmetry_equiv_pos_site_id
 _symmetry_equiv_pos_as_xyz
  1  'x, y, z'
loop_
 _atom_site_type_symbol
 _atom_site_label
 _atom_site_symmetry_multiplicity
 _atom_site_fract_x
 _atom_site_fract_y
 _atom_site_fract_z
 _atom_site_occupancy
  Hf  Hf0  1  0.30669538  0.68729648  0.12902052  1
  Hf  Hf1  1  0.21422372  0.38451011  -0.00544857  1
  Hf  Hf2  1  0.80054876  -0.00321360  0.75635270  1
  Hf  Hf3  1  0.78661994  0.19879973  0.01917914  1
  Hf  Hf4  1  0.50711018  0.89958266  0.36985200  1
  Hf  Hf5  1  0.58525216  0.01133873  0.74772710  1
  Hf  Hf6  1  0.22336639  0.39514416  0.26981368  1
  Hf  Hf7  1  0.60118886  0.59538685  0.73317675  1
  Hf  Hf8  1  0.88755172  0.51606754  0.36522281  1
  Hf  Hf9  1  0.87793057  0.09024862  0.37759528  1
  Hf  Hf10  1  0.60045378  0.80170012  0.74021527  1
  Hf  Hf11  1  0.79745660  0.80344264  0.02228209  1
  Hf  Hf12  1  0.49656858  0.50521028  0.13795244  1
  Hf  Hf13  1  -0.00431635  0.59936102  0.74091329  1
  Hf  Hf14  1  0.60791263  0.79906884  0.24586981  1
  Hf  Hf15  1  0.10949896  0.09760699  0.88643608  1
  Hf  Hf16  1  0.30095520  0.90727734  0.88140814  1
  Hf  Hf17  1  0.80287426  0.60633240  0.01937165  1
  Hf  Hf18  1  0.29969145  0.50775285  0.62379746  1
  Hf  Hf19  1  0.48176382  0.69736054  0.36559402  1
  Hf  Hf20  1  0.38524242  -0.00536102  0.25147673  1
  Hf  Hf21  1  0.71318467  0.90953477  0.62010994  1
  Hf  Hf22  1  0.51011302  0.28121192  0.60614564  1
  Hf  Hf23  1  0.09046186  0.70131234  0.14632614  1
  Hf  Hf24  1  0.40811606  0.38502535  0.74289028  1
  Hf  Hf25  1  0.20558112  0.19702528  0.74066798  1
  Hf  Hf26  1  0.11534632  0.29940565  0.13209092  1
  Hf  Hf27  1  0.49310891  0.89912422  0.61700751  1
  Hf  Hf28  1  0.49998393  0.90111010  0.87658533  1
  Hf  Hf29  1  0.59768939  0.60399462  0.00512249  1
  Hf  Hf30  1  0.87393096  0.30185972  0.61494761  1
  Hf  Hf31  1  0.81375115  0.80641814  0.50016678  1
  Hf  Hf32  1  0.48746149  0.30001973  0.14170422  1
  Hf  Hf33  1  0.38196592  0.19454219  0.01123083  1
  Hf  Hf34  1  -0.01427438  0.20127807  0.48620520  1
  Hf  Hf35  1  -0.00841878  0.19554413  0.75285718  1
  Hf  Hf36  1  0.70287203  0.51373874  0.87008298  1
  Hf  Hf37  1  0.58423835  0.20109127  0.00483885  1
  Hf  Hf38  1  0.91301627  0.70989879  0.35832222  1
  Hf  Hf39  1  0.41150499  0.39652264  -0.00910053  1
  Zr  Zr40  1  0.20154932  0.40278366  0.75298460  1
  Zr  Zr41  1  0.10979309  0.50204630  0.14363499  1
  Zr  Zr42  1  -0.01064518  0.20820278  0.00211853  1
  Zr  Zr43  1  0.70967173  0.69964185  0.37476141  1
  Zr  Zr44  1  0.31006820  0.27535917  0.86719758  1
  Zr  Zr45  1  0.20338752  0.19213737  0.27043739  1
  Zr  Zr46  1  0.19579660  0.79798468  0.00690508  1
  Zr  Zr47  1  0.19735762  0.58836591  -0.00518472  1
  Zr  Zr48  1  0.20504797  0.40695809  0.49031758  1
  Zr  Zr49  1  0.81160710  0.39946626  0.00831325  1
  Zr  Zr50  1  0.20401818  0.79714487  0.75274802  1
  Zr  Zr51  1  0.68723721  0.12678871  0.62741793  1
  Zr  Zr52  1  0.60469694  0.01609454  0.49517566  1
  Zr  Zr53  1  0.89372829  0.71141176  0.86983646  1
  Zr  Zr54  1  0.09847247  0.51025542  0.36982555  1
  Zr  Zr55  1  0.70064514  0.71051105  0.86378926  1
  Zr  Zr56  1  0.60359048  0.39567552  0.26369182  1
  Zr  Zr57  1  0.09998287  0.09523291  0.60766332  1
  Zr  Zr58  1  0.09791772  0.50062903  0.61788439  1
  Zr  Zr59  1  0.60353743  0.59206699  0.49680249  1
  Zr  Zr60  1  0.79358016  0.20253266  0.23810836  1
  Zr  Zr61  1  0.88466988  0.09062813  0.61152400  1
  Zr  Zr62  1  0.90858166  0.51021835  0.87861242  1
  Zr  Zr63  1  0.09378899  0.89761296  0.37337418  1
  Zr  Zr64  1  0.59814517  0.80150035  0.00945438  1
  Zr  Zr65  1  -0.01894528  0.40926606  0.48981766  1
  Zr  Zr66  1  0.20879352  0.00119116  0.74435909  1
  Zr  Zr67  1  0.69991600  0.30091582  0.87704803  1
  Zr  Zr68  1  -0.00468517  0.20000871  0.25986282  1
  Zr  Zr69  1  0.00068296  -0.00484420  0.75207038  1
  Zr  Zr70  1  0.01137207  0.41521819  0.00119488  1
  Zr  Zr71  1  0.11581313  0.69837054  0.63350983  1
  Zr  Zr72  1  0.09545877  0.09513996  0.12047840  1
  Zr  Zr73  1  0.60666849  0.39984356  0.00746700  1
  Zr  Zr74  1  0.22059558  0.81256790  0.24760120  1
  Zr  Zr75  1  0.80057432  0.40893968  0.74960638  1
  Zr  Zr76  1  0.20192943  0.79051998  0.49837841  1
  Zr  Zr77  1  -0.00259084  0.39335931  0.75265221  1
  Zr  Zr78  1  0.39978353  0.60825501  0.74940182  1
  Zr  Zr79  1  0.10053837  0.29472152  0.61180340  1
  Ta  Ta80  1  0.49950565  0.09184693  0.13948417  1
  Ta  Ta81  1  0.90964396  0.90705113  0.12989158  1
  Ta  Ta82  1  0.80300539  0.80616072  0.23179091  1
  Ta  Ta83  1  0.88797750  0.10120815  0.88399726  1
  Ta  Ta84  1  0.59551023  0.00488823  0.00316510  1
  Ta  Ta85  1  0.31808773  0.29970475  0.39894441  1
  Ta  Ta86  1  0.50418942  0.49568810  0.86829374  1
  Ta  Ta87  1  0.09885526  0.29839090  0.87785842  1
  Ta  Ta88  1  0.68985376  0.09611235  0.87894215  1
  Ta  Ta89  1  0.70437422  0.49723781  0.13687190  1
  Ta  Ta90  1  0.50298810  0.29132428  0.38032370  1
  Ta  Ta91  1  0.31112921  0.48140996  0.13122716  1
  Ta  Ta92  1  0.09482595  0.69341969  0.87135828  1
  Ta  Ta93  1  0.50138142  0.49205081  0.61397902  1
  Ta  Ta94  1  0.48019914  0.10274947  0.87688696  1
  Ta  Ta95  1  0.89572862  0.89995622  0.35814290  1
  Ta  Ta96  1  0.48919668  0.89651260  0.13463212  1
  Ta  Ta97  1  0.59897906  0.79661128  0.50156546  1
  Ta  Ta98  1  0.81093379  0.59752141  0.51143235  1
  Ta  Ta99  1  0.39988592  0.79550168  0.00790559  1
  Ta  Ta100  1  -0.00335789  0.39512223  0.26252321  1
  Ta  Ta101  1  0.40110846  -0.00245472  0.01418180  1
  Ta  Ta102  1  0.30993626  0.09982695  0.60261542  1
  Ta  Ta103  1  0.30123011  0.90335979  0.61268684  1
  Ta  Ta104  1  0.31250132  0.88809213  0.38781041  1
  Ta  Ta105  1  0.70982242  0.70229054  0.62337625  1
  Ta  Ta106  1  -0.00019235  0.61593605  0.50318631  1
  Ta  Ta107  1  0.79958476  0.40008549  0.25666279  1
  Ta  Ta108  1  0.59962629  0.39388794  0.74222696  1
  Ta  Ta109  1  -0.00503107  0.00333321  0.24798450  1
  Ta  Ta110  1  0.20036178  -0.00404699  0.49372343  1
  Ta  Ta111  1  0.10253176  0.70126298  0.35834822  1
  Ta  Ta112  1  0.08998132  0.89108658  0.88400083  1
  Ta  Ta113  1  0.71041892  0.91255145  0.36983670  1
  Ta  Ta114  1  0.89641496  0.90219136  0.88554495  1
  Ta  Ta115  1  0.49613399  0.69691377  0.14024158  1
  Ta  Ta116  1  0.79440746  0.20277798  0.75895989  1
  Ta  Ta117  1  0.40273758  0.59833074  -0.00642091  1
  Ta  Ta118  1  0.30959542  0.29130333  0.60125215  1
  Ta  Ta119  1  0.79614275  0.00339823  0.01014726  1
  Ti  Ti120  1  -0.00001472  0.61142275  0.00801782  1
  Ti  Ti121  1  0.39076960  0.20428480  0.25685288  1
  Ti  Ti122  1  0.91058127  0.50886533  0.14234407  1
  Ti  Ti123  1  0.10143648  0.29657183  0.38299575  1
  Ti  Ti124  1  -0.00358356  0.79950167  0.00799278  1
  Ti  Ti125  1  -0.00554011  -0.00380866  0.00312001  1
  Ti  Ti126  1  0.40542958  -0.00197170  0.49164953  1
  Ti  Ti127  1  0.49692367  0.69818480  0.87442929  1
  Ti  Ti128  1  0.60567184  0.19146913  0.24797590  1
  Ti  Ti129  1  0.78669094  0.40205971  0.48078860  1
  Ti  Ti130  1  0.10591269  0.90545690  0.12748550  1
  Ti  Ti131  1  -0.00880562  0.80703061  0.74530497  1
  Ti  Ti132  1  0.58958752  0.20826993  0.75967795  1
  Ti  Ti133  1  0.09482086  0.09302254  0.38649029  1
  Ti  Ti134  1  0.19524003  0.00334857  0.25910260  1
  Ti  Ti135  1  0.78958902  0.00791870  0.23334034  1
  Ti  Ti136  1  0.20527808  0.60583372  0.48739331  1
  Ti  Ti137  1  0.70441220  0.90312480  0.87880243  1
  Ti  Ti138  1  0.30325905  0.50303917  0.86711283  1
  Ti  Ti139  1  0.40152710  0.80968232  0.74842938  1
  Ti  Ti140  1  0.32203038  0.71079825  0.62185968  1
  Ti  Ti141  1  0.30154142  0.70091053  0.87805433  1
  Ti  Ti142  1  -0.01460570  -0.01661974  0.49797595  1
  Ti  Ti143  1  0.60745289  0.39159726  0.48861468  1
  Ti  Ti144  1  0.22112441  0.59873193  0.26297678  1
  Ti  Ti145  1  0.29087740  0.10371413  0.13257515  1
  Ti  Ti146  1  0.09925250  0.89990746  0.61974431  1
  Ti  Ti147  1  0.90409875  0.31020484  0.13334605  1
  Ti  Ti148  1  0.39908481  0.60566376  0.50130910  1
  Ti  Ti149  1  0.48701662  0.49054930  0.37922230  1
  Ti  Ti150  1  0.40432246  0.17497833  0.73854711  1
  Ti  Ti151  1  0.68743471  0.91478180  0.12947252  1
  Ti  Ti152  1  0.30127585  0.09831088  0.39025971  1
  Ti  Ti153  1  0.00282526  0.79737677  0.50569644  1
  Ti  Ti154  1  0.50118442  0.10163260  0.36265969  1
  Ti  Ti155  1  0.60413654  0.59411219  0.26074708  1
  Ti  Ti156  1  0.20713102  0.00384081  0.00476937  1
  Ti  Ti157  1  0.70675156  0.48781951  0.61890317  1
  Ti  Ti158  1  0.79554977  0.60925977  0.23657714  1
  Ti  Ti159  1  0.77369746  0.20567700  0.48322794  1
  Mo  Mo160  1  0.89724352  0.09294775  0.12176707  1
  Mo  Mo161  1  0.39417313  -0.00200194  0.74318584  1
  Mo  Mo162  1  0.68669055  0.09762097  0.12228568  1
  Mo  Mo163  1  0.29999228  0.29655569  0.13323510  1
  Mo  Mo164  1  0.69903988  0.29497618  0.36949275  1
  Mo  Mo165  1  0.39979481  0.79665330  0.24414197  1
  Mo  Mo166  1  0.50400404  0.69883878  0.61573622  1
  Mo  Mo167  1  0.50287968  0.29498569  0.86737996  1
  Mo  Mo168  1  0.39918951  0.58650608  0.25444842  1
  Mo  Mo169  1  0.69109389  0.69410182  0.13724119  1
  Mo  Mo170  1  0.39966190  0.39294208  0.26282495  1
  Mo  Mo171  1  0.20181970  0.59879366  0.76692985  1
  Mo  Mo172  1  0.40761032  0.79660332  0.50071863  1
  Mo  Mo173  1  0.80719905  0.80660060  0.74289928  1
  Mo  Mo174  1  0.90311966  0.28929862  0.87554646  1
  Mo  Mo175  1  0.90133377  0.70248911  0.13430783  1
  Mo  Mo176  1  0.30419437  0.08752476  0.87818540  1
  Mo  Mo177  1  0.80220911  0.60662549  0.72283806  1
  Mo  Mo178  1  0.48929462  0.09584372  0.62064290  1
  Mo  Mo179  1  0.80064622  0.00116443  0.49345214  1
  Mo  Mo180  1  0.31592381  0.50988783  0.38449638  1
  Mo  Mo181  1  0.69640850  0.30736429  0.62172225  1
  Mo  Mo182  1  0.91085685  0.89762910  0.62288325  1
  Mo  Mo183  1  0.19749590  0.19404617  0.00225907  1
  Mo  Mo184  1  0.68891114  0.09587756  0.36357811  1
  Mo  Mo185  1  0.59983806  0.00271177  0.25050545  1
  Mo  Mo186  1  0.20038850  0.19390962  0.48510185  1
  Mo  Mo187  1  -0.00014334  0.59924531  0.24822861  1
  Mo  Mo188  1  0.89340412  0.50661791  0.61774648  1
  Mo  Mo189  1  0.29839512  0.69617211  0.37456231  1
  Mo  Mo190  1  0.69935199  0.50277405  0.37332502  1
  Mo  Mo191  1  0.69699182  0.30664983  0.13292073  1
  Mo  Mo192  1  0.00408104  0.81146531  0.24288499  1
  Mo  Mo193  1  0.29773348  0.90902023  0.11726331  1
  Mo  Mo194  1  0.89288358  0.30375678  0.37497353  1
  Mo  Mo195  1  0.10958140  0.50607652  0.87428626  1
  Mo  Mo196  1  0.90292368  0.70761108  0.62650985  1
  Mo  Mo197  1  0.60086253  0.20193657  0.48323636  1
  Mo  Mo198  1  0.40934696  0.18687019  0.48876818  1
  Mo  Mo199  1  0.41164738  0.40586437  0.50740639  1
