# generated using pymatgen
data_HfZrTaTiMo
_symmetry_space_group_name_H-M   'P 1'
_cell_length_a   15.21343418
_cell_length_b   15.21635439
_cell_length_c   16.84977757
_cell_angle_alpha   90.04578228
_cell_angle_beta   90.05560882
_cell_angle_gamma   90.06185777
_symmetry_Int_Tables_number   1
_chemical_formula_structural   HfZrTaTiMo
_chemical_formula_sum   'Hf40 Zr40 Ta40 Ti40 Mo40'
_cell_volume   3900.60030003
_cell_formula_units_Z   40
loop_
 _symmetry_equiv_pos_site_id
 _symmetry_equiv_pos_as_xyz
  1  'x, y, z'
loop_
 _atom_site_type_symbol
 _atom_site_label
 _atom_site_symmetry_multiplicity
 _atom_site_fract_x
 _atom_site_fract_y
 _atom_site_fract_z
 _atom_site_occupancy
  Hf  Hf0  1  0.40886775  -0.00264802  0.75660628  1
  Hf  Hf1  1  0.08707996  0.49114435  0.62136606  1
  Hf  Hf2  1  -0.00673224  -0.00589528  0.74645805  1
  Hf  Hf3  1  0.70405817  0.09523163  0.10606179  1
  Hf  Hf4  1  0.20891688  0.22010668  0.74234559  1
  Hf  Hf5  1  0.19835122  0.79085587  0.74466736  1
  Hf  Hf6  1  0.58349675  0.78537486  0.25423316  1
  Hf  Hf7  1  0.09407167  0.89222714  0.60615208  1
  Hf  Hf8  1  0.28849302  0.28067879  0.13406994  1
  Hf  Hf9  1  0.59096524  0.20338085  0.24767043  1
  Hf  Hf10  1  0.79493013  0.42069288  -0.00065637  1
  Hf  Hf11  1  0.29521795  0.68689705  0.87989530  1
  Hf  Hf12  1  0.60320143  -0.01628128  -0.02023928  1
  Hf  Hf13  1  0.69640577  0.90765282  0.62195844  1
  Hf  Hf14  1  0.59567648  0.59925398  0.51740337  1
  Hf  Hf15  1  0.20383075  0.59386035  0.49022795  1
  Hf  Hf16  1  -0.01150549  0.38241367  0.49188597  1
  Hf  Hf17  1  -0.00508002  0.38108633  0.00327455  1
  Hf  Hf18  1  0.10222011  0.70371235  0.37717488  1
  Hf  Hf19  1  0.40017953  0.20077808  0.50145595  1
  Hf  Hf20  1  0.91325073  0.12068733  0.11839808  1
  Hf  Hf21  1  0.69678605  0.90123857  0.38579840  1
  Hf  Hf22  1  0.19857812  0.20272391  0.49482235  1
  Hf  Hf23  1  0.49730776  0.47664826  0.63480059  1
  Hf  Hf24  1  0.41152784  0.59398478  -0.00116020  1
  Hf  Hf25  1  -0.00676792  0.59381217  0.00048093  1
  Hf  Hf26  1  0.30570272  0.49489245  0.12484499  1
  Hf  Hf27  1  0.50591378  0.70121441  0.86360099  1
  Hf  Hf28  1  0.10264155  0.09765126  0.61492927  1
  Hf  Hf29  1  0.20341758  -0.00240720  0.74330697  1
  Hf  Hf30  1  0.10228688  0.69377125  0.61203010  1
  Hf  Hf31  1  0.78812022  0.80068216  -0.00912847  1
  Hf  Hf32  1  0.70604624  0.69307877  0.86237660  1
  Hf  Hf33  1  0.10549667  0.69056480  0.88446361  1
  Hf  Hf34  1  0.69335285  0.10377377  0.64316548  1
  Hf  Hf35  1  0.90909625  0.11576639  0.86921477  1
  Hf  Hf36  1  0.39527636  0.80490153  0.74675894  1
  Hf  Hf37  1  0.09484954  0.08378670  0.37355102  1
  Hf  Hf38  1  0.89330299  0.91265663  0.13187723  1
  Hf  Hf39  1  0.29932694  0.29795344  0.36042445  1
  Zr  Zr40  1  0.78865192  0.79954739  0.25868015  1
  Zr  Zr41  1  0.41171299  0.39761920  0.24333901  1
  Zr  Zr42  1  0.29824833  0.10688948  0.87455346  1
  Zr  Zr43  1  0.80258603  0.39395567  0.24647888  1
  Zr  Zr44  1  0.10347680  0.69566639  0.13153964  1
  Zr  Zr45  1  0.49476592  0.11262864  0.10995752  1
  Zr  Zr46  1  0.39337283  0.59812748  0.73611318  1
  Zr  Zr47  1  -0.00585514  0.80812550  0.00134397  1
  Zr  Zr48  1  0.49994279  0.49046468  0.85327531  1
  Zr  Zr49  1  0.69536529  0.29988659  0.10941266  1
  Zr  Zr50  1  0.48947938  0.90313333  0.37643521  1
  Zr  Zr51  1  0.81396637  0.00739074  0.26559194  1
  Zr  Zr52  1  0.70582292  0.70695707  0.62019657  1
  Zr  Zr53  1  0.79036631  0.01315094  0.50160102  1
  Zr  Zr54  1  0.39880325  0.00139600  -0.00102304  1
  Zr  Zr55  1  0.11054125  0.49516695  0.13050241  1
  Zr  Zr56  1  0.79202771  0.19854382  0.25034350  1
  Zr  Zr57  1  0.31073293  0.50457548  0.37046181  1
  Zr  Zr58  1  0.60383349  0.00401167  0.24579804  1
  Zr  Zr59  1  0.61000788  0.59592744  0.73220259  1
  Zr  Zr60  1  0.08603023  0.29378652  0.14631404  1
  Zr  Zr61  1  0.50386743  0.49796760  0.38578957  1
  Zr  Zr62  1  0.81429018  0.81481650  0.75167164  1
  Zr  Zr63  1  0.60644454  0.40207245  0.24638606  1
  Zr  Zr64  1  0.11286719  0.48132387  0.87985192  1
  Zr  Zr65  1  0.90324327  0.49789548  0.13651348  1
  Zr  Zr66  1  0.88815399  0.69925427  0.12712567  1
  Zr  Zr67  1  0.00237469  0.59516738  0.75254749  1
  Zr  Zr68  1  0.40420728  0.80180822  -0.00314880  1
  Zr  Zr69  1  0.59149991  0.40415384  -0.01433467  1
  Zr  Zr70  1  0.00333292  0.21680278  0.73682636  1
  Zr  Zr71  1  -0.00419095  0.80619356  0.26427090  1
  Zr  Zr72  1  0.90699505  0.70160275  0.61251925  1
  Zr  Zr73  1  0.09925182  0.90669453  0.13999074  1
  Zr  Zr74  1  0.80849712  -0.00239767  -0.01862825  1
  Zr  Zr75  1  0.59449748  0.18731357  0.51237715  1
  Zr  Zr76  1  0.10360137  0.90009196  0.87524698  1
  Zr  Zr77  1  0.01273237  0.01341187  -0.00125568  1
  Zr  Zr78  1  0.49959232  0.88854332  0.12888224  1
  Zr  Zr79  1  0.70368052  0.49631118  0.39455327  1
  Ta  Ta80  1  0.09025054  0.29672651  0.36142629  1
  Ta  Ta81  1  0.36044011  0.39163570  0.76154807  1
  Ta  Ta82  1  0.89880538  0.31519788  0.86486502  1
  Ta  Ta83  1  0.50560092  0.29109538  0.37919796  1
  Ta  Ta84  1  0.50272018  0.90915094  0.62143452  1
  Ta  Ta85  1  0.40633181  0.00474224  0.50346888  1
  Ta  Ta86  1  0.59721423  0.20530027  -0.02725693  1
  Ta  Ta87  1  0.30603001  0.70057533  0.12703079  1
  Ta  Ta88  1  0.41650322  0.61551423  0.24216614  1
  Ta  Ta89  1  0.90248173  0.70214442  0.87559843  1
  Ta  Ta90  1  0.90074504  0.12003041  0.39880070  1
  Ta  Ta91  1  0.79305505  0.60029570  0.26076392  1
  Ta  Ta92  1  0.20747105  0.57967338  0.74505554  1
  Ta  Ta93  1  0.29396346  0.90194913  0.13469834  1
  Ta  Ta94  1  0.39963818  0.60189305  0.51626500  1
  Ta  Ta95  1  0.89893077  0.10864685  0.62026089  1
  Ta  Ta96  1  0.39372911  -0.00104661  0.24602795  1
  Ta  Ta97  1  0.10797320  0.11386547  0.87267394  1
  Ta  Ta98  1  0.30978008  0.10396642  0.62628466  1
  Ta  Ta99  1  0.71991155  0.48853256  0.61474572  1
  Ta  Ta100  1  0.20565530  0.00696339  0.00825932  1
  Ta  Ta101  1  0.70361956  0.29642329  0.38620849  1
  Ta  Ta102  1  0.92259538  0.91300447  0.39453165  1
  Ta  Ta103  1  0.60626426  0.59880337  0.25265555  1
  Ta  Ta104  1  0.51592681  0.50939189  0.12048591  1
  Ta  Ta105  1  0.70528086  0.10820772  0.86610771  1
  Ta  Ta106  1  0.39721340  0.79944637  0.50838849  1
  Ta  Ta107  1  0.30595950  0.09124968  0.37136815  1
  Ta  Ta108  1  0.19589137  0.39663065  0.48499574  1
  Ta  Ta109  1  0.20458685  0.80173125  0.00907730  1
  Ta  Ta110  1  0.68554461  0.10866430  0.38431311  1
  Ta  Ta111  1  0.11853958  0.10230588  0.14851553  1
  Ta  Ta112  1  0.28840265  0.48044442  0.61747610  1
  Ta  Ta113  1  0.90389097  0.49256537  0.36869121  1
  Ta  Ta114  1  -0.00526235  0.58966071  0.48563095  1
  Ta  Ta115  1  0.79512628  0.21988941  0.74357615  1
  Ta  Ta116  1  0.69249285  0.69673427  0.38922678  1
  Ta  Ta117  1  0.80212098  0.22565665  0.51937632  1
  Ta  Ta118  1  0.59553870  0.21005114  0.76625840  1
  Ta  Ta119  1  0.21100864  0.60133237  0.25780929  1
  Ti  Ti120  1  0.89286980  0.69602773  0.38230092  1
  Ti  Ti121  1  0.30278855  0.90326753  0.61841815  1
  Ti  Ti122  1  0.80557718  0.79785609  0.49341953  1
  Ti  Ti123  1  0.29467555  0.89940570  0.37344569  1
  Ti  Ti124  1  0.50043623  0.09597900  0.64058794  1
  Ti  Ti125  1  0.49047712  0.29236395  0.64172507  1
  Ti  Ti126  1  0.80863494  0.21716662  -0.01164754  1
  Ti  Ti127  1  0.50077319  0.09937315  0.87393062  1
  Ti  Ti128  1  0.80615586  0.40589239  0.74219319  1
  Ti  Ti129  1  0.49968346  0.71283981  0.62865246  1
  Ti  Ti130  1  0.39290438  0.39562692  -0.01813685  1
  Ti  Ti131  1  0.00301805  0.59304801  0.26325393  1
  Ti  Ti132  1  0.49594957  0.69536046  0.38697799  1
  Ti  Ti133  1  0.68993134  0.68940537  0.12244899  1
  Ti  Ti134  1  0.29816478  0.89750037  0.87881338  1
  Ti  Ti135  1  0.79889585  0.00409604  0.75811614  1
  Ti  Ti136  1  0.39898535  0.20452091  0.75876619  1
  Ti  Ti137  1  0.61937892  0.59601383  -0.00614125  1
  Ti  Ti138  1  0.31362623  0.70688127  0.37353464  1
  Ti  Ti139  1  0.20922471  0.80144392  0.25726198  1
  Ti  Ti140  1  0.49137907  0.30743118  0.10982437  1
  Ti  Ti141  1  0.81205696  0.59882626  0.74138222  1
  Ti  Ti142  1  0.59968349  0.82145715  0.75254626  1
  Ti  Ti143  1  0.69847891  0.89217559  0.12549494  1
  Ti  Ti144  1  0.00265775  0.79867098  0.75250520  1
  Ti  Ti145  1  0.60129456  0.38065559  0.51274359  1
  Ti  Ti146  1  0.39717753  0.39395274  0.50249390  1
  Ti  Ti147  1  0.59715474  0.78929087  -0.00505434  1
  Ti  Ti148  1  0.20359508  0.38075247  0.00125234  1
  Ti  Ti149  1  0.40007306  0.18858967  0.24984427  1
  Ti  Ti150  1  0.38667088  0.21036778  -0.00932164  1
  Ti  Ti151  1  0.20757956  0.80089831  0.49363738  1
  Ti  Ti152  1  0.89805032  0.50689111  0.87193308  1
  Ti  Ti153  1  -0.01487042  0.19726898  0.26097308  1
  Ti  Ti154  1  0.59104603  0.80617292  0.50159169  1
  Ti  Ti155  1  0.90360949  0.90697167  0.60512276  1
  Ti  Ti156  1  0.21064218  -0.00227188  0.49901131  1
  Ti  Ti157  1  0.10638481  0.30642966  0.61697033  1
  Ti  Ti158  1  0.29641872  0.69743909  0.62029259  1
  Ti  Ti159  1  0.70750665  0.49531793  0.85931445  1
  Mo  Mo160  1  0.27967959  0.30290156  0.88470364  1
  Mo  Mo161  1  0.18276440  0.39769099  0.74630069  1
  Mo  Mo162  1  0.58887830  0.00120148  0.50276736  1
  Mo  Mo163  1  0.79712810  0.60521603  -0.00998624  1
  Mo  Mo164  1  0.79892668  0.40116448  0.50097034  1
  Mo  Mo165  1  0.89945557  0.50357624  0.61797015  1
  Mo  Mo166  1  0.29808522  0.09506271  0.13157704  1
  Mo  Mo167  1  0.18800690  0.19180367  0.00725945  1
  Mo  Mo168  1  0.49976921  0.89336486  0.87203039  1
  Mo  Mo169  1  0.20554673  -0.00684009  0.26040497  1
  Mo  Mo170  1  0.38849605  0.79389766  0.25167469  1
  Mo  Mo171  1  0.60345891  0.00279991  0.76569480  1
  Mo  Mo172  1  0.70177981  0.51947695  0.12362347  1
  Mo  Mo173  1  0.89590944  0.31955866  0.63353422  1
  Mo  Mo174  1  0.11204177  0.89753005  0.38866287  1
  Mo  Mo175  1  -0.00240724  0.39759125  0.26159841  1
  Mo  Mo176  1  0.89248928  0.29623537  0.37746414  1
  Mo  Mo177  1  0.29186454  0.49834315  0.88471071  1
  Mo  Mo178  1  0.61696704  0.38809470  0.74778137  1
  Mo  Mo179  1  0.10112772  0.49470568  0.36514508  1
  Mo  Mo180  1  0.00019524  0.00522414  0.50917143  1
  Mo  Mo181  1  0.80650537  0.60124113  0.48911261  1
  Mo  Mo182  1  -0.00732999  0.40272328  0.75138048  1
  Mo  Mo183  1  0.50966182  0.69142769  0.11881518  1
  Mo  Mo184  1  0.20241255  0.19293414  0.26633588  1
  Mo  Mo185  1  0.68807518  0.30603403  0.63080530  1
  Mo  Mo186  1  0.00778858  0.20423755  -0.00442200  1
  Mo  Mo187  1  0.89416383  0.29567603  0.12072498  1
  Mo  Mo188  1  -0.00139282  0.20175525  0.50971718  1
  Mo  Mo189  1  0.30390221  0.30429571  0.61792921  1
  Mo  Mo190  1  0.20933840  0.59974077  0.00984226  1
  Mo  Mo191  1  0.09258912  0.28898492  0.87895150  1
  Mo  Mo192  1  0.19627810  0.40497230  0.26191699  1
  Mo  Mo193  1  -0.00094347  0.79545566  0.48820347  1
  Mo  Mo194  1  0.90313329  0.89977054  0.86881591  1
  Mo  Mo195  1  0.49320804  0.10149823  0.37107452  1
  Mo  Mo196  1  -0.00349158  0.00842091  0.25903620  1
  Mo  Mo197  1  0.70608167  0.30552378  0.87263885  1
  Mo  Mo198  1  0.69582977  0.89900781  0.86363066  1
  Mo  Mo199  1  0.48633816  0.29341497  0.86707414  1
