# generated using pymatgen
data_HfZrTaTiMo
_symmetry_space_group_name_H-M   'P 1'
_cell_length_a   15.21827675
_cell_length_b   15.20576438
_cell_length_c   16.85465659
_cell_angle_alpha   90.08690468
_cell_angle_beta   90.05928908
_cell_angle_gamma   89.86345554
_symmetry_Int_Tables_number   1
_chemical_formula_structural   HfZrTaTiMo
_chemical_formula_sum   'Hf40 Zr40 Ta40 Ti40 Mo40'
_cell_volume   3900.24311590
_cell_formula_units_Z   40
loop_
 _symmetry_equiv_pos_site_id
 _symmetry_equiv_pos_as_xyz
  1  'x, y, z'
loop_
 _atom_site_type_symbol
 _atom_site_label
 _atom_site_symmetry_multiplicity
 _atom_site_fract_x
 _atom_site_fract_y
 _atom_site_fract_z
 _atom_site_occupancy
  Hf  Hf0  1  0.00366475  0.20532319  0.23756590  1
  Hf  Hf1  1  0.89327847  0.10024790  0.36898896  1
  Hf  Hf2  1  0.58680745  0.60290796  0.01650838  1
  Hf  Hf3  1  0.68562757  0.89682518  0.62985296  1
  Hf  Hf4  1  0.10530057  0.49773166  0.85942777  1
  Hf  Hf5  1  0.39484685  0.39467880  0.49038545  1
  Hf  Hf6  1  0.11225246  0.31384273  0.12774023  1
  Hf  Hf7  1  0.70367254  0.29516973  0.87265780  1
  Hf  Hf8  1  0.09496763  0.69630699  0.86534948  1
  Hf  Hf9  1  0.00361341  -0.01196579  0.75989451  1
  Hf  Hf10  1  0.90126822  0.87918878  0.12944309  1
  Hf  Hf11  1  0.80851085  0.21549948  0.50962989  1
  Hf  Hf12  1  0.09231117  0.10779372  0.37572721  1
  Hf  Hf13  1  0.18511094  0.40823517  0.48813348  1
  Hf  Hf14  1  0.50861840  0.30553853  0.86285526  1
  Hf  Hf15  1  -0.00404765  0.59547458  -0.00160660  1
  Hf  Hf16  1  0.08807498  0.28603708  0.62546650  1
  Hf  Hf17  1  0.31182623  0.29439757  0.87140789  1
  Hf  Hf18  1  0.80018596  0.40869168  0.75084431  1
  Hf  Hf19  1  0.89557446  0.50391900  0.37277401  1
  Hf  Hf20  1  0.18929143  0.59357663  0.25597152  1
  Hf  Hf21  1  0.21146990  0.60612150  0.74363367  1
  Hf  Hf22  1  0.00129039  0.59418655  0.49723519  1
  Hf  Hf23  1  0.52018338  0.29522622  0.37895653  1
  Hf  Hf24  1  0.40720410  0.60646414  0.73730999  1
  Hf  Hf25  1  0.90836988  0.89901997  0.36893927  1
  Hf  Hf26  1  0.69920789  0.70181737  0.88930395  1
  Hf  Hf27  1  0.11208835  0.08968124  0.12057147  1
  Hf  Hf28  1  0.21406783  0.38827077  0.74199251  1
  Hf  Hf29  1  0.38475182  0.81741578  0.76559030  1
  Hf  Hf30  1  0.49185143  0.10308557  0.12880869  1
  Hf  Hf31  1  0.39431721  0.60772984  0.24184729  1
  Hf  Hf32  1  0.49667537  0.89640869  0.12252293  1
  Hf  Hf33  1  0.90640475  0.29611490  0.36764281  1
  Hf  Hf34  1  0.29552580  0.08882524  0.38982524  1
  Hf  Hf35  1  0.19919233  0.59525844  0.00286486  1
  Hf  Hf36  1  0.09084624  0.70046355  0.13095126  1
  Hf  Hf37  1  -0.00861477  0.39008591  0.75973884  1
  Hf  Hf38  1  0.90942268  0.11033151  0.63167986  1
  Hf  Hf39  1  0.09203656  0.49892292  0.63007567  1
  Zr  Zr40  1  0.79541471  0.80398000  0.74831455  1
  Zr  Zr41  1  0.41870859  0.60848163  0.51252417  1
  Zr  Zr42  1  0.71262664  0.49708363  0.11777542  1
  Zr  Zr43  1  0.40271375  0.19660890  0.73704464  1
  Zr  Zr44  1  0.60618958  -0.01869840  0.49048797  1
  Zr  Zr45  1  0.39838553  0.40692456  0.26502796  1
  Zr  Zr46  1  0.68235981  0.70126797  0.38543894  1
  Zr  Zr47  1  0.38780229  -0.00313814  0.25677495  1
  Zr  Zr48  1  0.50329838  0.49748243  0.87089224  1
  Zr  Zr49  1  0.30283241  0.08893015  0.61808955  1
  Zr  Zr50  1  0.40104086  0.20314472  0.26891605  1
  Zr  Zr51  1  0.69538068  0.49666599  0.37322816  1
  Zr  Zr52  1  0.81103212  0.77458117  0.26261634  1
  Zr  Zr53  1  -0.00308457  0.39703314  -0.01585276  1
  Zr  Zr54  1  0.80411039  0.39659797  0.24215717  1
  Zr  Zr55  1  0.11592837  0.09346745  0.87119415  1
  Zr  Zr56  1  0.50563505  0.88590148  0.37131349  1
  Zr  Zr57  1  0.09786713  0.89272445  0.12043507  1
  Zr  Zr58  1  0.49520416  0.30495040  0.62537714  1
  Zr  Zr59  1  0.29006848  0.90931612  0.12347203  1
  Zr  Zr60  1  0.79781060  0.00899574  0.50494411  1
  Zr  Zr61  1  0.89088524  0.69918075  0.62128458  1
  Zr  Zr62  1  0.88030254  0.09446603  0.87329642  1
  Zr  Zr63  1  0.72242232  0.71033828  0.10822022  1
  Zr  Zr64  1  0.22662176  0.18658012  0.00190359  1
  Zr  Zr65  1  0.49770816  0.30369549  0.13026469  1
  Zr  Zr66  1  0.79520475  0.19881084  0.01706367  1
  Zr  Zr67  1  0.20052773  0.38909705  0.27825262  1
  Zr  Zr68  1  0.69927214  0.90775092  0.87655941  1
  Zr  Zr69  1  0.00563463  0.80625882  0.49897390  1
  Zr  Zr70  1  0.58467837  0.00239744  0.75146379  1
  Zr  Zr71  1  0.30077715  0.72990426  0.61490250  1
  Zr  Zr72  1  0.19945230  0.20867488  0.49913860  1
  Zr  Zr73  1  0.09545780  0.71038720  0.63483451  1
  Zr  Zr74  1  0.59992730  0.60759434  0.23461513  1
  Zr  Zr75  1  0.78638832  0.80799360  0.49193313  1
  Zr  Zr76  1  0.20012467  0.39453264  -0.01049696  1
  Zr  Zr77  1  0.70259798  0.50284695  0.88578213  1
  Zr  Zr78  1  0.00405196  0.19882439  -0.00802006  1
  Zr  Zr79  1  0.49486196  0.70179196  0.87925911  1
  Ta  Ta80  1  0.60255351  0.39567013  0.24398761  1
  Ta  Ta81  1  0.60201073  0.80380959  0.23982291  1
  Ta  Ta82  1  0.10282635  0.08732907  0.63118058  1
  Ta  Ta83  1  0.20842000  0.18983607  0.25269105  1
  Ta  Ta84  1  -0.00798104  -0.01298144  -0.01226787  1
  Ta  Ta85  1  0.59821781  0.19944105  0.00647730  1
  Ta  Ta86  1  0.60916505  0.40015522  0.50334445  1
  Ta  Ta87  1  0.50933485  0.08903335  0.61168635  1
  Ta  Ta88  1  0.30369854  0.51689505  0.38529856  1
  Ta  Ta89  1  0.70033394  0.30655326  0.62805269  1
  Ta  Ta90  1  0.47865912  0.88936452  0.62173525  1
  Ta  Ta91  1  0.79554438  0.60187168  0.74547104  1
  Ta  Ta92  1  0.60156473  0.39167200  0.00882079  1
  Ta  Ta93  1  0.31284757  0.50459227  0.87026244  1
  Ta  Ta94  1  0.79654393  -0.00774639  0.00963823  1
  Ta  Ta95  1  0.28662116  0.48816912  0.12792455  1
  Ta  Ta96  1  0.61235747  0.19199471  0.50693417  1
  Ta  Ta97  1  0.90486504  0.31055733  0.12550956  1
  Ta  Ta98  1  0.60031379  0.00982054  0.00447656  1
  Ta  Ta99  1  0.00126402  0.19970586  0.76679650  1
  Ta  Ta100  1  -0.01742683  0.61767399  0.25775275  1
  Ta  Ta101  1  0.68247862  0.69227312  0.61763064  1
  Ta  Ta102  1  0.19938825  0.79215818  -0.01588778  1
  Ta  Ta103  1  0.79677361  0.19410654  0.22942932  1
  Ta  Ta104  1  0.69827272  0.10715032  0.36539437  1
  Ta  Ta105  1  0.38792728  0.60211996  0.01173141  1
  Ta  Ta106  1  0.20275041  0.80684169  0.26078315  1
  Ta  Ta107  1  0.48748124  0.91802577  0.88873162  1
  Ta  Ta108  1  0.00672114  -0.00385722  0.24789077  1
  Ta  Ta109  1  0.90981629  0.90588306  0.62562954  1
  Ta  Ta110  1  0.80367386  0.20683376  0.74244849  1
  Ta  Ta111  1  0.39007910  0.80082767  -0.00406467  1
  Ta  Ta112  1  -0.01788870  0.38821081  0.50409508  1
  Ta  Ta113  1  0.40057194  0.40265574  0.00286511  1
  Ta  Ta114  1  0.89023357  0.69491108  0.87550427  1
  Ta  Ta115  1  0.32160739  0.08485896  0.86322889  1
  Ta  Ta116  1  0.19918953  0.60901385  0.49781729  1
  Ta  Ta117  1  0.39249848  0.01587074  0.00445462  1
  Ta  Ta118  1  0.09620718  0.70817476  0.37198329  1
  Ta  Ta119  1  0.00562213  0.00906306  0.50430609  1
  Ti  Ti120  1  0.11079361  0.91041837  0.37581118  1
  Ti  Ti121  1  0.90500281  0.08741065  0.12333432  1
  Ti  Ti122  1  0.30878272  0.29088967  0.12532793  1
  Ti  Ti123  1  0.30632739  0.49213381  0.61788058  1
  Ti  Ti124  1  0.50722898  0.50713904  0.37634536  1
  Ti  Ti125  1  0.50787773  0.09536788  0.38251312  1
  Ti  Ti126  1  0.29560947  0.70765108  0.12621477  1
  Ti  Ti127  1  0.59773958  0.81101405  0.00461523  1
  Ti  Ti128  1  0.70492348  0.49892913  0.62094723  1
  Ti  Ti129  1  -0.00838989  0.80126255  0.75719579  1
  Ti  Ti130  1  0.29527439  0.89263417  0.38668669  1
  Ti  Ti131  1  0.40718611  0.19789403  0.49857904  1
  Ti  Ti132  1  0.20010943  -0.01351069  -0.01395546  1
  Ti  Ti133  1  0.70996146  0.29769144  0.37584644  1
  Ti  Ti134  1  0.58813491  0.79524043  0.75345917  1
  Ti  Ti135  1  0.50222948  0.11162356  0.88091145  1
  Ti  Ti136  1  0.49256913  0.69546916  0.37486827  1
  Ti  Ti137  1  0.81062365  0.40211481  -0.00303499  1
  Ti  Ti138  1  0.79811771  -0.00032498  0.24084276  1
  Ti  Ti139  1  0.79622212  0.59134975  0.50423118  1
  Ti  Ti140  1  0.21550276  -0.01200965  0.75353428  1
  Ti  Ti141  1  0.48934091  0.49822056  0.12641225  1
  Ti  Ti142  1  -0.00647311  0.79807349  -0.01310555  1
  Ti  Ti143  1  0.60965064  0.59625760  0.74872055  1
  Ti  Ti144  1  0.40059639  0.79533216  0.24668725  1
  Ti  Ti145  1  0.90974211  0.51425355  0.13081840  1
  Ti  Ti146  1  0.11555505  0.90142554  0.62173314  1
  Ti  Ti147  1  0.20127117  0.19322637  0.74551502  1
  Ti  Ti148  1  0.60974428  0.19654859  0.73574971  1
  Ti  Ti149  1  0.61430883  0.20143727  0.24002707  1
  Ti  Ti150  1  -0.02015526  0.59270577  0.74809833  1
  Ti  Ti151  1  0.60426635  0.00376024  0.25036114  1
  Ti  Ti152  1  0.39988101  -0.01235738  0.49858257  1
  Ti  Ti153  1  0.29965950  0.70787052  0.38277978  1
  Ti  Ti154  1  0.01312759  0.41803676  0.25278318  1
  Ti  Ti155  1  0.19298833  0.81177304  0.76842817  1
  Ti  Ti156  1  0.70019072  0.90575571  0.12660911  1
  Ti  Ti157  1  0.51637823  0.49954854  0.63044272  1
  Ti  Ti158  1  0.79500195  0.00569414  0.74034509  1
  Ti  Ti159  1  0.69074361  0.10327958  0.87431225  1
  Mo  Mo160  1  0.89473913  0.89389811  0.87778356  1
  Mo  Mo161  1  0.80323136  0.59718045  0.24979124  1
  Mo  Mo162  1  0.09549351  0.89351739  0.87751577  1
  Mo  Mo163  1  0.09603272  0.49794148  0.13215599  1
  Mo  Mo164  1  0.81213045  0.59711814  -0.00271123  1
  Mo  Mo165  1  0.90886540  0.69930371  0.11889857  1
  Mo  Mo166  1  0.29957732  0.10458044  0.12844279  1
  Mo  Mo167  1  0.19873557  0.80246522  0.48687649  1
  Mo  Mo168  1  0.89325376  0.29593191  0.87689727  1
  Mo  Mo169  1  0.89426416  0.49877089  0.62111017  1
  Mo  Mo170  1  0.01246826  0.80220247  0.26177222  1
  Mo  Mo171  1  0.89946258  0.30693014  0.62894418  1
  Mo  Mo172  1  0.19101603  -0.00767267  0.50312051  1
  Mo  Mo173  1  0.29744768  0.90319629  0.88449662  1
  Mo  Mo174  1  0.40388903  -0.00115625  0.74666616  1
  Mo  Mo175  1  0.50631374  0.70712389  0.64085310  1
  Mo  Mo176  1  0.80928971  0.80937126  -0.00667869  1
  Mo  Mo177  1  0.70648046  0.91615911  0.34653856  1
  Mo  Mo178  1  0.28951439  0.90652680  0.61999828  1
  Mo  Mo179  1  0.10703338  0.28932470  0.86330575  1
  Mo  Mo180  1  0.89707757  0.69495464  0.38842895  1
  Mo  Mo181  1  0.30306988  0.29651999  0.38328072  1
  Mo  Mo182  1  0.57269618  0.77876024  0.51274093  1
  Mo  Mo183  1  0.60081935  0.58927150  0.50624133  1
  Mo  Mo184  1  0.70171390  0.29958718  0.11933066  1
  Mo  Mo185  1  0.29768381  0.30506324  0.62182612  1
  Mo  Mo186  1  0.69597267  0.09164735  0.12993549  1
  Mo  Mo187  1  -0.00032606  0.19834563  0.50224108  1
  Mo  Mo188  1  0.69787080  0.10561884  0.62933165  1
  Mo  Mo189  1  0.09496978  0.50948121  0.38250079  1
  Mo  Mo190  1  0.40020007  0.41196727  0.74078265  1
  Mo  Mo191  1  0.41234788  0.20421450  -0.00457861  1
  Mo  Mo192  1  0.49007723  0.70897159  0.11871604  1
  Mo  Mo193  1  0.29786074  0.69243772  0.87980097  1
  Mo  Mo194  1  0.89487456  0.50895357  0.87351101  1
  Mo  Mo195  1  0.40086302  0.80229490  0.49428791  1
  Mo  Mo196  1  0.19321256  0.00113041  0.25680583  1
  Mo  Mo197  1  0.08987794  0.30161342  0.37371720  1
  Mo  Mo198  1  0.60470201  0.40426283  0.73717230  1
  Mo  Mo199  1  0.79714419  0.40414327  0.50321752  1
