# generated using pymatgen
data_HfZrTaTiMo
_symmetry_space_group_name_H-M   'P 1'
_cell_length_a   15.20011517
_cell_length_b   15.21430987
_cell_length_c   16.85792388
_cell_angle_alpha   90.00296929
_cell_angle_beta   90.00681268
_cell_angle_gamma   90.09753081
_symmetry_Int_Tables_number   1
_chemical_formula_structural   HfZrTaTiMo
_chemical_formula_sum   'Hf40 Zr40 Ta40 Ti40 Mo40'
_cell_volume   3898.54535909
_cell_formula_units_Z   40
loop_
 _symmetry_equiv_pos_site_id
 _symmetry_equiv_pos_as_xyz
  1  'x, y, z'
loop_
 _atom_site_type_symbol
 _atom_site_label
 _atom_site_symmetry_multiplicity
 _atom_site_fract_x
 _atom_site_fract_y
 _atom_site_fract_z
 _atom_site_occupancy
  Hf  Hf0  1  -0.00813574  0.60477302  0.75467448  1
  Hf  Hf1  1  0.39749322  -0.00263385  0.25167388  1
  Hf  Hf2  1  0.10345541  0.89184760  0.39063931  1
  Hf  Hf3  1  0.09909436  0.70435088  0.13147215  1
  Hf  Hf4  1  0.60817313  0.01231567  0.00396818  1
  Hf  Hf5  1  0.00255358  0.40092092  0.75965751  1
  Hf  Hf6  1  -0.00306928  0.41494940  0.24627483  1
  Hf  Hf7  1  0.28871827  0.09775648  0.87820972  1
  Hf  Hf8  1  0.19284708  0.20577390  0.00578634  1
  Hf  Hf9  1  0.19331904  0.19483227  0.25393086  1
  Hf  Hf10  1  0.88707199  0.50612057  0.88116199  1
  Hf  Hf11  1  0.50091065  0.69835657  0.86122379  1
  Hf  Hf12  1  0.49477465  0.69607493  0.39052785  1
  Hf  Hf13  1  0.89973178  0.91012859  0.10811689  1
  Hf  Hf14  1  0.89889327  0.71412592  0.13439505  1
  Hf  Hf15  1  0.50481472  0.49802637  0.11636084  1
  Hf  Hf16  1  0.19813057  0.38762153  0.24909093  1
  Hf  Hf17  1  0.58864992  0.40680793  0.75154793  1
  Hf  Hf18  1  0.31399911  0.90641801  0.61355509  1
  Hf  Hf19  1  0.78581726  0.39552515  0.00708926  1
  Hf  Hf20  1  0.19354643  0.59637438  0.24950371  1
  Hf  Hf21  1  0.31490012  0.89551673  0.86743218  1
  Hf  Hf22  1  -0.00626541  0.20214117  0.75549675  1
  Hf  Hf23  1  0.71271802  0.68791999  0.62985464  1
  Hf  Hf24  1  0.10298516  0.90182149  0.61712155  1
  Hf  Hf25  1  -0.00346459  0.21335918  0.26145566  1
  Hf  Hf26  1  0.00050670  0.39025904  -0.00085946  1
  Hf  Hf27  1  0.29387233  0.09656591  0.13198674  1
  Hf  Hf28  1  0.72101017  0.10832374  0.14120678  1
  Hf  Hf29  1  0.78919855  0.61732922  0.00974604  1
  Hf  Hf30  1  0.60570126  -0.01144292  0.25499932  1
  Hf  Hf31  1  0.49305322  0.29241816  0.62450790  1
  Hf  Hf32  1  0.88198740  0.90493273  0.88719084  1
  Hf  Hf33  1  0.69102247  0.30318241  0.87681956  1
  Hf  Hf34  1  0.48953735  0.49934956  0.88676713  1
  Hf  Hf35  1  0.10789346  0.91043052  0.87362092  1
  Hf  Hf36  1  0.90905643  0.69926454  0.36101604  1
  Hf  Hf37  1  0.11795903  0.49830229  0.88210764  1
  Hf  Hf38  1  0.30718857  0.49552385  0.36728333  1
  Hf  Hf39  1  0.79104351  0.20789131  0.49956564  1
  Zr  Zr40  1  0.71647506  0.70548857  0.86161081  1
  Zr  Zr41  1  0.39344329  0.57944341  0.50432381  1
  Zr  Zr42  1  0.00025751  0.20572110  0.49336606  1
  Zr  Zr43  1  0.89897316  0.50309551  0.61945036  1
  Zr  Zr44  1  0.50073262  0.07582066  0.86564204  1
  Zr  Zr45  1  0.78834978  0.38376539  0.23754801  1
  Zr  Zr46  1  0.38380246  0.19484842  0.75023325  1
  Zr  Zr47  1  0.09906529  0.90849966  0.12027219  1
  Zr  Zr48  1  0.19118577  0.20964460  0.75273926  1
  Zr  Zr49  1  0.10139438  0.10203690  0.61853820  1
  Zr  Zr50  1  0.59512753  0.19812793  0.75388240  1
  Zr  Zr51  1  0.80094100  0.78833544  0.49646358  1
  Zr  Zr52  1  0.29813679  0.31601798  0.61730362  1
  Zr  Zr53  1  0.80076311  0.59415334  0.24472556  1
  Zr  Zr54  1  0.00207133  0.60859418  -0.00291092  1
  Zr  Zr55  1  0.70064890  0.30878496  0.62495399  1
  Zr  Zr56  1  0.21452929  0.60406121  0.00363628  1
  Zr  Zr57  1  0.30812347  0.89657643  0.39255023  1
  Zr  Zr58  1  0.89622604  0.10156128  0.37477545  1
  Zr  Zr59  1  0.70983980  0.89488015  0.11776873  1
  Zr  Zr60  1  0.58874867  0.18290355  0.49047281  1
  Zr  Zr61  1  0.92414084  0.10213083  0.11920672  1
  Zr  Zr62  1  0.30694988  0.68709596  0.86282621  1
  Zr  Zr63  1  0.00457338  -0.00830915  0.25897641  1
  Zr  Zr64  1  0.69019577  0.09416169  0.63420473  1
  Zr  Zr65  1  0.71481945  0.49305513  0.38068707  1
  Zr  Zr66  1  -0.00031948  0.80842317  0.74931837  1
  Zr  Zr67  1  0.60179233  0.79419886  -0.01115770  1
  Zr  Zr68  1  0.58108170  0.39586357  0.48604796  1
  Zr  Zr69  1  0.60504876  0.82280810  0.75159283  1
  Zr  Zr70  1  0.50350954  0.88723773  0.12826723  1
  Zr  Zr71  1  0.09101331  0.31304015  0.61733885  1
  Zr  Zr72  1  0.40267717  0.79777342  0.25211045  1
  Zr  Zr73  1  0.89582021  0.09875831  0.62393358  1
  Zr  Zr74  1  0.29938823  0.49738124  0.13050653  1
  Zr  Zr75  1  0.70260319  0.90153272  0.61078566  1
  Zr  Zr76  1  0.50260592  0.69610811  0.62415222  1
  Zr  Zr77  1  0.39971436  -0.01201881  0.01258002  1
  Zr  Zr78  1  0.79578842  0.82116241  0.26171963  1
  Zr  Zr79  1  0.40322602  0.19507219  0.00588684  1
  Ta  Ta80  1  0.48511597  0.08190799  0.62950659  1
  Ta  Ta81  1  0.19945415  0.80618458  0.25252538  1
  Ta  Ta82  1  0.38355558  0.38939220  0.00802386  1
  Ta  Ta83  1  0.88933940  0.32049317  0.38424283  1
  Ta  Ta84  1  0.79466545  0.41134705  0.75599597  1
  Ta  Ta85  1  0.60737645  0.59644885  0.49840480  1
  Ta  Ta86  1  0.48297276  0.30241481  0.87824574  1
  Ta  Ta87  1  0.90666784  0.90410324  0.61155242  1
  Ta  Ta88  1  0.10968804  0.50360228  0.62658070  1
  Ta  Ta89  1  0.20592570  0.80119428  0.74078317  1
  Ta  Ta90  1  0.18770128  0.60090870  0.49589479  1
  Ta  Ta91  1  -0.00030651  0.00444721  0.75619024  1
  Ta  Ta92  1  0.21191963  0.00522194  0.73975222  1
  Ta  Ta93  1  0.68933253  0.49874794  0.11794700  1
  Ta  Ta94  1  0.89078057  0.29111086  0.11934868  1
  Ta  Ta95  1  0.68637131  0.50763158  0.88570399  1
  Ta  Ta96  1  0.70269728  0.09891041  0.35860148  1
  Ta  Ta97  1  0.39741576  0.78932504  0.00485651  1
  Ta  Ta98  1  0.29634236  0.69179454  0.62923452  1
  Ta  Ta99  1  0.20190747  0.41189095  0.49146088  1
  Ta  Ta100  1  0.80354075  0.20650517  0.75591366  1
  Ta  Ta101  1  0.19452050  0.00218126  0.00441403  1
  Ta  Ta102  1  0.29249956  0.69911374  0.37800690  1
  Ta  Ta103  1  0.71204347  0.09251721  0.86779797  1
  Ta  Ta104  1  0.20993894  0.01483202  0.50144528  1
  Ta  Ta105  1  0.00387593  0.78063043  0.50738032  1
  Ta  Ta106  1  0.40894875  0.59858204  0.25170985  1
  Ta  Ta107  1  0.10854356  0.70895765  0.87105346  1
  Ta  Ta108  1  0.50840393  0.89884931  0.59769510  1
  Ta  Ta109  1  0.51067127  0.10982598  0.13747527  1
  Ta  Ta110  1  0.90040671  0.50166602  0.11831380  1
  Ta  Ta111  1  0.59667263  0.59478447  0.25714669  1
  Ta  Ta112  1  0.09990678  0.69338266  0.62970517  1
  Ta  Ta113  1  0.90641728  0.90208490  0.39387555  1
  Ta  Ta114  1  0.39479552  0.20001681  0.49349314  1
  Ta  Ta115  1  0.79664868  0.19349879  -0.00429049  1
  Ta  Ta116  1  0.30110960  0.10365925  0.37143412  1
  Ta  Ta117  1  0.60171105  0.21722901  0.24859843  1
  Ta  Ta118  1  0.09639589  0.69182322  0.36861948  1
  Ta  Ta119  1  0.50928672  0.89626801  0.39568746  1
  Ti  Ti120  1  0.39449321  0.57221730  0.74115034  1
  Ti  Ti121  1  0.20970260  0.80335847  0.00254263  1
  Ti  Ti122  1  0.69553266  0.29349059  0.37350258  1
  Ti  Ti123  1  0.09055793  0.29040307  0.12231832  1
  Ti  Ti124  1  0.39977547  0.20917621  0.24643010  1
  Ti  Ti125  1  0.49146837  0.48769764  0.62202097  1
  Ti  Ti126  1  0.09448331  0.31713162  0.38563515  1
  Ti  Ti127  1  0.20063632  0.59662133  0.75022470  1
  Ti  Ti128  1  0.10271408  0.09570588  0.38615378  1
  Ti  Ti129  1  0.60554568  0.59296949  0.74598969  1
  Ti  Ti130  1  0.90773872  0.10088517  0.88377931  1
  Ti  Ti131  1  0.67849427  0.69725197  0.12919493  1
  Ti  Ti132  1  0.21783130  0.40780296  0.75479358  1
  Ti  Ti133  1  0.20549669  0.78861695  0.50750469  1
  Ti  Ti134  1  0.89313155  0.31198048  0.62116552  1
  Ti  Ti135  1  0.00594012  0.80643822  -0.00829292  1
  Ti  Ti136  1  0.81416364  0.79729750  0.73820666  1
  Ti  Ti137  1  0.09789799  0.49650129  0.11551358  1
  Ti  Ti138  1  0.90400658  0.70826193  0.87908952  1
  Ti  Ti139  1  0.79678905  -0.00953459  0.75071856  1
  Ti  Ti140  1  0.69902600  0.49669031  0.61762227  1
  Ti  Ti141  1  0.40546174  0.80723818  0.73787462  1
  Ti  Ti142  1  0.81317321  0.59778081  0.49739383  1
  Ti  Ti143  1  0.69696618  0.69794843  0.37748128  1
  Ti  Ti144  1  0.30770547  0.29909353  0.37724954  1
  Ti  Ti145  1  0.60040444  0.21232143  0.00757129  1
  Ti  Ti146  1  0.89321690  0.29861620  0.87960010  1
  Ti  Ti147  1  0.30827060  0.70752643  0.13155904  1
  Ti  Ti148  1  0.19976592  -0.00339573  0.25393038  1
  Ti  Ti149  1  0.40862736  0.39237078  0.24452278  1
  Ti  Ti150  1  0.41047349  0.01563387  0.49050713  1
  Ti  Ti151  1  0.10340423  0.29497058  0.88252896  1
  Ti  Ti152  1  0.20527157  0.20658626  0.49226299  1
  Ti  Ti153  1  0.49984059  0.10603945  0.36035663  1
  Ti  Ti154  1  0.59634159  0.78868779  0.25939593  1
  Ti  Ti155  1  0.59059138  0.40184079  0.25481671  1
  Ti  Ti156  1  0.92364672  0.50627009  0.38507316  1
  Ti  Ti157  1  0.79613032  0.00773646  0.49629101  1
  Ti  Ti158  1  0.69993971  0.90237271  0.38840600  1
  Ti  Ti159  1  0.40901656  0.60739579  0.00729548  1
  Mo  Mo160  1  0.10143168  0.50231117  0.37599945  1
  Mo  Mo161  1  0.39697791  0.79169330  0.50785607  1
  Mo  Mo162  1  0.60378852  0.78957654  0.49676843  1
  Mo  Mo163  1  0.19822260  0.39329959  0.01070744  1
  Mo  Mo164  1  0.50114924  0.49767166  0.36552184  1
  Mo  Mo165  1  0.00898026  0.79929474  0.25673041  1
  Mo  Mo166  1  0.60232383  0.00413075  0.48375229  1
  Mo  Mo167  1  0.29946862  0.29727306  0.13293821  1
  Mo  Mo168  1  0.79871077  0.01102528  -0.00534988  1
  Mo  Mo169  1  0.48921045  0.29645753  0.36426905  1
  Mo  Mo170  1  0.30642042  0.48800729  0.87935089  1
  Mo  Mo171  1  0.58859050  0.39393253  -0.00155347  1
  Mo  Mo172  1  0.80235675  0.20685760  0.25409650  1
  Mo  Mo173  1  0.80411592  -0.00121673  0.26084517  1
  Mo  Mo174  1  0.59770298  -0.00388341  0.74763757  1
  Mo  Mo175  1  0.29366181  0.31499288  0.87908143  1
  Mo  Mo176  1  0.68482136  0.29725529  0.12028897  1
  Mo  Mo177  1  0.59937128  0.59981077  -0.00050187  1
  Mo  Mo178  1  0.00251734  0.41172905  0.49696797  1
  Mo  Mo179  1  0.00204185  -0.00717371  0.49722029  1
  Mo  Mo180  1  0.39446184  0.38969573  0.49299931  1
  Mo  Mo181  1  0.40226681  -0.01327946  0.74105300  1
  Mo  Mo182  1  0.49604672  0.89117030  0.87740550  1
  Mo  Mo183  1  0.29080577  0.88958244  0.12535947  1
  Mo  Mo184  1  0.80589571  0.79953352  -0.00005971  1
  Mo  Mo185  1  0.79542386  0.59275435  0.75096584  1
  Mo  Mo186  1  0.00949779  0.01203289  -0.01573101  1
  Mo  Mo187  1  0.29228287  0.50413063  0.62404066  1
  Mo  Mo188  1  0.30253468  0.10435742  0.61407700  1
  Mo  Mo189  1  0.09662969  0.09920838  0.87070101  1
  Mo  Mo190  1  0.50387965  0.69051393  0.13041114  1
  Mo  Mo191  1  0.79868142  0.40348893  0.49697581  1
  Mo  Mo192  1  0.00131106  0.59454421  0.24012051  1
  Mo  Mo193  1  0.39729087  0.39991947  0.75318762  1
  Mo  Mo194  1  0.10143290  0.10288325  0.12759177  1
  Mo  Mo195  1  0.69322329  0.91507039  0.87712428  1
  Mo  Mo196  1  0.90443714  0.70175816  0.62605392  1
  Mo  Mo197  1  0.49658156  0.29986257  0.12858019  1
  Mo  Mo198  1  0.00646005  0.60321251  0.50382988  1
  Mo  Mo199  1  -0.00409920  0.20364055  -0.00952989  1
