# generated using pymatgen
data_HfZrTaTiMo
_symmetry_space_group_name_H-M   'P 1'
_cell_length_a   15.19631048
_cell_length_b   15.22125279
_cell_length_c   16.87829705
_cell_angle_alpha   90.04118479
_cell_angle_beta   90.01228865
_cell_angle_gamma   89.95551406
_symmetry_Int_Tables_number   1
_chemical_formula_structural   HfZrTaTiMo
_chemical_formula_sum   'Hf40 Zr40 Ta40 Ti40 Mo40'
_cell_volume   3904.06400887
_cell_formula_units_Z   40
loop_
 _symmetry_equiv_pos_site_id
 _symmetry_equiv_pos_as_xyz
  1  'x, y, z'
loop_
 _atom_site_type_symbol
 _atom_site_label
 _atom_site_symmetry_multiplicity
 _atom_site_fract_x
 _atom_site_fract_y
 _atom_site_fract_z
 _atom_site_occupancy
  Hf  Hf0  1  0.41159681  0.00138749  0.24584614  1
  Hf  Hf1  1  0.08717152  0.49783433  0.87228410  1
  Hf  Hf2  1  0.40626715  0.60407479  0.75837238  1
  Hf  Hf3  1  0.50193638  0.68458294  0.37565563  1
  Hf  Hf4  1  0.89525882  0.50313134  0.13668484  1
  Hf  Hf5  1  0.50183092  0.68134594  0.13613536  1
  Hf  Hf6  1  0.29088828  0.49281192  0.63579948  1
  Hf  Hf7  1  0.78329490  0.40629385  -0.00058011  1
  Hf  Hf8  1  0.29217696  0.69098160  0.37481065  1
  Hf  Hf9  1  0.90713355  0.70180963  0.12985565  1
  Hf  Hf10  1  0.70039518  0.89287478  0.61434860  1
  Hf  Hf11  1  0.59178977  0.80064331  0.49740534  1
  Hf  Hf12  1  0.30073787  0.90438337  0.62461289  1
  Hf  Hf13  1  0.49000421  0.46667135  0.13537150  1
  Hf  Hf14  1  0.89657323  0.50698142  0.37190616  1
  Hf  Hf15  1  0.69439245  0.50097569  0.37341892  1
  Hf  Hf16  1  0.00861810  0.79388928  0.25229768  1
  Hf  Hf17  1  0.29746467  0.48628575  0.87697646  1
  Hf  Hf18  1  0.20432892  0.79674117  0.24201591  1
  Hf  Hf19  1  0.61121552  0.78249719  0.25901369  1
  Hf  Hf20  1  0.17848601  0.60136927  0.24249372  1
  Hf  Hf21  1  0.87879717  0.71467991  0.86009323  1
  Hf  Hf22  1  0.79689425  0.60337563  0.00348615  1
  Hf  Hf23  1  0.40616850  0.59900561  -0.01014075  1
  Hf  Hf24  1  0.39525345  -0.00311192  0.76564742  1
  Hf  Hf25  1  0.02389041  0.20831184  0.50505988  1
  Hf  Hf26  1  0.68666196  0.50677533  0.14931014  1
  Hf  Hf27  1  0.81609769  0.19802144  0.50347369  1
  Hf  Hf28  1  0.78942553  0.80309553  0.00517060  1
  Hf  Hf29  1  0.59936978  0.78616622  0.74232457  1
  Hf  Hf30  1  -0.00894275  0.00926610  0.25430030  1
  Hf  Hf31  1  0.20323018  0.79584297  0.49794037  1
  Hf  Hf32  1  0.29850694  0.10976050  0.89870658  1
  Hf  Hf33  1  0.10066641  0.91292984  0.88180534  1
  Hf  Hf34  1  0.10282181  0.90878117  0.62267671  1
  Hf  Hf35  1  0.40313512  0.18246051  0.49789443  1
  Hf  Hf36  1  0.67848368  0.67470619  0.86533741  1
  Hf  Hf37  1  0.40138631  0.79757232  0.24693567  1
  Hf  Hf38  1  -0.01160306  0.01290238  0.49033989  1
  Hf  Hf39  1  -0.00259556  0.79982698  0.50166551  1
  Zr  Zr40  1  -0.01401260  0.80924210  0.74313890  1
  Zr  Zr41  1  0.58964374  0.77849877  0.00133618  1
  Zr  Zr42  1  0.40789255  0.19031230  0.75182702  1
  Zr  Zr43  1  -0.01049554  0.39332820  0.00736487  1
  Zr  Zr44  1  0.19940837  0.39454155  0.00922743  1
  Zr  Zr45  1  -0.00643488  0.40313523  0.50019260  1
  Zr  Zr46  1  0.32323945  0.10929830  0.11222092  1
  Zr  Zr47  1  -0.00645628  0.81079211  -0.00425177  1
  Zr  Zr48  1  0.19762434  0.39008496  0.49713726  1
  Zr  Zr49  1  0.68943057  0.10284242  0.62326987  1
  Zr  Zr50  1  0.00672167  0.00869484  0.74838270  1
  Zr  Zr51  1  0.50924575  0.28386708  0.62492025  1
  Zr  Zr52  1  0.69399044  0.89696239  0.12807099  1
  Zr  Zr53  1  0.77465410  0.59748001  0.72531885  1
  Zr  Zr54  1  0.89463964  0.92669706  0.12102900  1
  Zr  Zr55  1  0.20218522  0.00199412  0.23436828  1
  Zr  Zr56  1  0.80470059  -0.00986037  0.75157741  1
  Zr  Zr57  1  0.09139890  0.70221485  0.86952256  1
  Zr  Zr58  1  0.71081305  0.31284709  0.62024848  1
  Zr  Zr59  1  0.71672204  0.91244677  0.39494707  1
  Zr  Zr60  1  0.79860125  0.38005814  0.25127118  1
  Zr  Zr61  1  0.90632699  0.30661347  0.86756137  1
  Zr  Zr62  1  0.10218313  0.12308216  0.36246088  1
  Zr  Zr63  1  0.39439312  0.80305806  0.76130536  1
  Zr  Zr64  1  0.80994630  0.81821119  0.26073653  1
  Zr  Zr65  1  0.30679896  0.89502460  0.10289951  1
  Zr  Zr66  1  0.39502136  0.38868767  0.49873117  1
  Zr  Zr67  1  0.19745875  0.60555283  0.75463494  1
  Zr  Zr68  1  0.71233639  0.10374207  0.88410546  1
  Zr  Zr69  1  0.60215308  0.56938336  0.00259185  1
  Zr  Zr70  1  0.10452389  0.90035165  0.37477077  1
  Zr  Zr71  1  0.68750886  0.29441085  0.11702035  1
  Zr  Zr72  1  0.29701230  0.51030090  0.12493426  1
  Zr  Zr73  1  0.01248952  0.40419265  0.24206964  1
  Zr  Zr74  1  0.59220990  -0.00047682  0.75895058  1
  Zr  Zr75  1  0.38840116  0.59122191  0.50079766  1
  Zr  Zr76  1  0.11458845  0.30866160  0.64224147  1
  Zr  Zr77  1  0.60643925  -0.00099108  0.25033033  1
  Zr  Zr78  1  0.20676334  0.02097031  0.49204240  1
  Zr  Zr79  1  0.50477266  0.10666494  0.89785221  1
  Ta  Ta80  1  0.49532669  0.90677246  0.62124991  1
  Ta  Ta81  1  0.31417678  0.31395954  0.13528339  1
  Ta  Ta82  1  0.61429023  -0.01026259  -0.00296854  1
  Ta  Ta83  1  0.50202617  0.31139110  0.87261051  1
  Ta  Ta84  1  0.91161164  0.10155722  0.87589761  1
  Ta  Ta85  1  0.72281162  0.09800652  0.11098960  1
  Ta  Ta86  1  0.50829228  0.27861300  0.38258172  1
  Ta  Ta87  1  0.59974809  0.39514550  0.49286356  1
  Ta  Ta88  1  0.58699209  0.37732340  0.26275336  1
  Ta  Ta89  1  0.49195502  0.48647942  0.36923396  1
  Ta  Ta90  1  0.09801632  0.50423453  0.37452261  1
  Ta  Ta91  1  0.49277139  0.69960047  0.61920778  1
  Ta  Ta92  1  0.59808889  0.58964485  0.51288486  1
  Ta  Ta93  1  0.89096240  0.90674148  0.61094696  1
  Ta  Ta94  1  0.91193288  0.28503465  0.36859366  1
  Ta  Ta95  1  0.11847540  0.11048658  0.62846282  1
  Ta  Ta96  1  0.61707370  0.18928057  0.25215137  1
  Ta  Ta97  1  0.31086933  0.10786692  0.36059313  1
  Ta  Ta98  1  0.82703629  0.20321121  0.00207601  1
  Ta  Ta99  1  0.09101209  0.50489203  0.63330205  1
  Ta  Ta100  1  0.09816810  0.69943453  0.63058068  1
  Ta  Ta101  1  0.89731658  0.70120376  0.38401261  1
  Ta  Ta102  1  0.90734782  0.30084095  0.63637010  1
  Ta  Ta103  1  0.39759382  0.80129122  0.49667430  1
  Ta  Ta104  1  0.40488820  -0.00833367  0.48915379  1
  Ta  Ta105  1  0.50135834  0.49032642  0.63039735  1
  Ta  Ta106  1  0.80823435  0.20064921  0.74910734  1
  Ta  Ta107  1  0.28668226  0.48821466  0.36042346  1
  Ta  Ta108  1  0.29478047  0.70225012  0.62502902  1
  Ta  Ta109  1  0.39598541  0.39145275  0.75102638  1
  Ta  Ta110  1  0.20448998  0.20844945  0.23237349  1
  Ta  Ta111  1  0.70759988  0.88544069  0.87266945  1
  Ta  Ta112  1  -0.01875652  0.59964966  0.73539484  1
  Ta  Ta113  1  0.70902084  0.69207248  0.39829836  1
  Ta  Ta114  1  0.00862523  0.20197887  0.75012549  1
  Ta  Ta115  1  0.29250117  0.70975773  0.89415773  1
  Ta  Ta116  1  0.42203114  0.20350114  0.24750718  1
  Ta  Ta117  1  0.11781683  0.30030157  0.86848406  1
  Ta  Ta118  1  0.18662760  0.01080412  0.01321308  1
  Ta  Ta119  1  0.08959560  0.68647340  0.38176628  1
  Ti  Ti120  1  0.70953675  0.29619708  0.38503968  1
  Ti  Ti121  1  0.20465360  0.00779508  0.75700688  1
  Ti  Ti122  1  0.11250909  0.31017774  0.35938234  1
  Ti  Ti123  1  0.21409662  0.20099587  0.75920571  1
  Ti  Ti124  1  0.49777283  0.90181613  0.11227864  1
  Ti  Ti125  1  0.20083135  0.81075212  0.75443428  1
  Ti  Ti126  1  0.49842105  0.88744926  0.89075149  1
  Ti  Ti127  1  -0.00525650  0.02653131  0.00609480  1
  Ti  Ti128  1  0.58743263  0.01509126  0.49837630  1
  Ti  Ti129  1  0.29925350  0.90405991  0.90345251  1
  Ti  Ti130  1  0.52445970  0.10457118  0.10702151  1
  Ti  Ti131  1  0.69556084  0.30269762  0.87895399  1
  Ti  Ti132  1  0.09337294  0.51799948  0.11405859  1
  Ti  Ti133  1  0.19410496  0.20613030  0.01628506  1
  Ti  Ti134  1  0.41407333  0.23180922  0.00448546  1
  Ti  Ti135  1  0.69729716  0.11053717  0.38848089  1
  Ti  Ti136  1  0.28524285  0.70147481  0.09914694  1
  Ti  Ti137  1  0.80006481  0.02615775  0.25832585  1
  Ti  Ti138  1  0.60825537  0.20451817  0.75666252  1
  Ti  Ti139  1  0.50080289  0.90029047  0.37463150  1
  Ti  Ti140  1  0.18779407  0.59412081  0.50609976  1
  Ti  Ti141  1  0.39491494  0.59166240  0.25368225  1
  Ti  Ti142  1  0.88499964  0.51232069  0.86676811  1
  Ti  Ti143  1  0.09690692  0.89587592  0.11681657  1
  Ti  Ti144  1  -0.00679108  0.60154835  0.51485807  1
  Ti  Ti145  1  0.51597307  0.50091914  0.86403805  1
  Ti  Ti146  1  0.79684834  0.40119348  0.75410896  1
  Ti  Ti147  1  -0.00446229  0.60509174  -0.00588151  1
  Ti  Ti148  1  0.88053132  0.70901655  0.61775961  1
  Ti  Ti149  1  -0.00415755  0.40710897  0.74790955  1
  Ti  Ti150  1  0.90774946  0.10333661  0.62930074  1
  Ti  Ti151  1  0.30522663  0.90253936  0.37080391  1
  Ti  Ti152  1  0.08437803  0.28509054  0.12939100  1
  Ti  Ti153  1  0.30002414  0.28827401  0.62808302  1
  Ti  Ti154  1  0.30720944  0.09795152  0.62576821  1
  Ti  Ti155  1  0.10369989  0.11201443  0.88024274  1
  Ti  Ti156  1  0.78901969  0.62214887  0.25286384  1
  Ti  Ti157  1  0.30083774  0.29507483  0.36005109  1
  Ti  Ti158  1  0.88333423  0.48971726  0.61735913  1
  Ti  Ti159  1  0.60677878  0.40858856  0.74757517  1
  Mo  Mo160  1  0.49409176  0.08438201  0.62495678  1
  Mo  Mo161  1  0.61395910  0.20340186  -0.00276494  1
  Mo  Mo162  1  0.88883073  0.10302456  0.37642464  1
  Mo  Mo163  1  0.69369664  0.48950321  0.61090927  1
  Mo  Mo164  1  0.90926877  0.12244348  0.12513571  1
  Mo  Mo165  1  0.80410746  0.39634536  0.48860876  1
  Mo  Mo166  1  0.49337343  0.69431737  0.87135613  1
  Mo  Mo167  1  0.49815355  0.28311847  0.12921241  1
  Mo  Mo168  1  0.90482953  0.90549771  0.38134779  1
  Mo  Mo169  1  0.69792110  0.48210518  0.86601476  1
  Mo  Mo170  1  0.10136866  0.69837745  0.11045742  1
  Mo  Mo171  1  0.58327659  0.38639586  -0.00542257  1
  Mo  Mo172  1  0.40864957  0.40364727  -0.00630178  1
  Mo  Mo173  1  0.79128256  0.80187151  0.74348856  1
  Mo  Mo174  1  0.59515799  0.59000227  0.26145624  1
  Mo  Mo175  1  0.21518672  0.20471733  0.49619921  1
  Mo  Mo176  1  0.80336807  0.59295088  0.51085055  1
  Mo  Mo177  1  0.19114365  0.80509699  -0.00162154  1
  Mo  Mo178  1  -0.00725045  0.20469486  0.24846438  1
  Mo  Mo179  1  0.80580045  0.79808213  0.49613073  1
  Mo  Mo180  1  0.01975115  0.20084413  -0.00667509  1
  Mo  Mo181  1  0.70402122  0.69286547  0.13354079  1
  Mo  Mo182  1  0.60421918  0.19922392  0.49544530  1
  Mo  Mo183  1  0.89188669  0.91394885  0.88322238  1
  Mo  Mo184  1  0.10068912  0.09982356  0.12942224  1
  Mo  Mo185  1  0.89556559  0.29302521  0.12418739  1
  Mo  Mo186  1  0.80898580  0.00101118  -0.00736722  1
  Mo  Mo187  1  0.18706226  0.60301506  -0.00494665  1
  Mo  Mo188  1  0.19889038  0.39836655  0.23948698  1
  Mo  Mo189  1  0.41238286  0.00162811  -0.00229380  1
  Mo  Mo190  1  -0.00773749  0.60503380  0.25436501  1
  Mo  Mo191  1  0.40252958  0.79635063  -0.00215695  1
  Mo  Mo192  1  0.69443898  0.69706996  0.60296766  1
  Mo  Mo193  1  0.20306145  0.39535655  0.75614098  1
  Mo  Mo194  1  0.30690450  0.29623760  0.87852933  1
  Mo  Mo195  1  0.50552570  0.09295951  0.37102578  1
  Mo  Mo196  1  0.58939648  0.59177939  0.72798300  1
  Mo  Mo197  1  0.79825752  0.19444837  0.25557122  1
  Mo  Mo198  1  0.39603362  0.39020884  0.26354734  1
  Mo  Mo199  1  0.79919315  0.00836847  0.50751837  1
