# generated using pymatgen
data_HfZrTaTiMo
_symmetry_space_group_name_H-M   'P 1'
_cell_length_a   15.19580887
_cell_length_b   15.19176471
_cell_length_c   16.86731505
_cell_angle_alpha   90.02622302
_cell_angle_beta   90.02847945
_cell_angle_gamma   90.21281988
_symmetry_Int_Tables_number   1
_chemical_formula_structural   HfZrTaTiMo
_chemical_formula_sum   'Hf40 Zr40 Ta40 Ti40 Mo40'
_cell_volume   3893.81137137
_cell_formula_units_Z   40
loop_
 _symmetry_equiv_pos_site_id
 _symmetry_equiv_pos_as_xyz
  1  'x, y, z'
loop_
 _atom_site_type_symbol
 _atom_site_label
 _atom_site_symmetry_multiplicity
 _atom_site_fract_x
 _atom_site_fract_y
 _atom_site_fract_z
 _atom_site_occupancy
  Hf  Hf0  1  0.61061264  0.80817129  0.75266048  1
  Hf  Hf1  1  0.49111614  0.09206159  0.36820665  1
  Hf  Hf2  1  0.47971080  0.69492386  0.12772101  1
  Hf  Hf3  1  0.60286148  0.18287273  0.49612087  1
  Hf  Hf4  1  0.48223250  0.91029994  0.11434210  1
  Hf  Hf5  1  0.50739471  0.30674392  0.10482198  1
  Hf  Hf6  1  0.90141846  0.51311705  0.61333241  1
  Hf  Hf7  1  0.19328019  0.59886809  -0.00720086  1
  Hf  Hf8  1  0.11203983  0.29582061  0.35731459  1
  Hf  Hf9  1  0.49396932  0.70473577  0.37322387  1
  Hf  Hf10  1  0.80157190  0.40032423  0.74406415  1
  Hf  Hf11  1  0.89998543  0.91120762  0.12756064  1
  Hf  Hf12  1  0.49005324  0.49634325  0.61529514  1
  Hf  Hf13  1  0.19314296  0.58093836  0.75117071  1
  Hf  Hf14  1  0.70050598  0.29261467  0.62362984  1
  Hf  Hf15  1  0.01162473  0.80814023  0.00129280  1
  Hf  Hf16  1  0.40239100  0.81966217  0.49906964  1
  Hf  Hf17  1  0.29767973  0.69588201  0.63669222  1
  Hf  Hf18  1  0.80647301  0.39088346  0.49591190  1
  Hf  Hf19  1  0.69720186  0.91653814  0.11769713  1
  Hf  Hf20  1  0.80003348  0.59544296  0.24840177  1
  Hf  Hf21  1  0.01781709  0.40877812  0.50079416  1
  Hf  Hf22  1  0.29436709  0.48334096  0.62212489  1
  Hf  Hf23  1  0.31491675  0.29162394  0.35976132  1
  Hf  Hf24  1  0.37969473  0.60360365  0.49508142  1
  Hf  Hf25  1  0.01239353  0.20127236  0.74575593  1
  Hf  Hf26  1  0.48632224  0.29147856  0.63368753  1
  Hf  Hf27  1  0.51576677  0.31354081  0.88330975  1
  Hf  Hf28  1  0.68238810  0.48724482  0.86395758  1
  Hf  Hf29  1  0.20043759  0.00782262  0.75620318  1
  Hf  Hf30  1  -0.00235780  0.61462725  0.74411325  1
  Hf  Hf31  1  0.80652384  0.19109958  0.74896439  1
  Hf  Hf32  1  0.20370558  0.19796540  0.02000073  1
  Hf  Hf33  1  0.19602619  0.79680014  0.50158279  1
  Hf  Hf34  1  0.00443795  0.00518763  0.48777821  1
  Hf  Hf35  1  0.59654143  0.79663828  0.00553578  1
  Hf  Hf36  1  0.90625492  0.70445499  0.11985041  1
  Hf  Hf37  1  0.59169840  0.58061676  0.00296328  1
  Hf  Hf38  1  0.59571408  -0.01408699  0.49809253  1
  Hf  Hf39  1  0.60196747  0.20511053  0.25510214  1
  Zr  Zr40  1  0.31159090  0.50242908  0.12695457  1
  Zr  Zr41  1  0.60211347  0.00232405  0.75573752  1
  Zr  Zr42  1  0.39217382  0.40715010  0.76913041  1
  Zr  Zr43  1  -0.00135751  0.19622200  0.01417303  1
  Zr  Zr44  1  0.89301052  0.49240901  0.12282236  1
  Zr  Zr45  1  0.49679073  0.70071239  0.86943221  1
  Zr  Zr46  1  0.60517837  0.19814842  0.76015558  1
  Zr  Zr47  1  0.08008714  0.89973831  0.63827298  1
  Zr  Zr48  1  0.89015911  0.69539394  0.38849360  1
  Zr  Zr49  1  0.01770244  0.20579413  0.49655263  1
  Zr  Zr50  1  0.70388915  0.50822466  0.38525631  1
  Zr  Zr51  1  0.68422599  0.71288072  0.37222677  1
  Zr  Zr52  1  0.70462438  0.31125208  0.14009990  1
  Zr  Zr53  1  0.50430932  0.71317031  0.61977496  1
  Zr  Zr54  1  0.58657281  0.37902026  0.48702541  1
  Zr  Zr55  1  0.01037616  0.80326970  0.26369896  1
  Zr  Zr56  1  0.69816437  0.70205165  0.12937493  1
  Zr  Zr57  1  0.69522803  0.50226009  0.61414767  1
  Zr  Zr58  1  0.19574616  0.60432188  0.24453523  1
  Zr  Zr59  1  0.42592571  0.39731088  0.24632954  1
  Zr  Zr60  1  0.00560415  0.40862491  0.25070169  1
  Zr  Zr61  1  0.70823718  0.70123697  0.88152110  1
  Zr  Zr62  1  0.29569121  0.89728419  0.86954635  1
  Zr  Zr63  1  0.38087526  0.80190893  0.25151143  1
  Zr  Zr64  1  0.64352173  0.20657753  -0.01313940  1
  Zr  Zr65  1  0.11918519  0.10595345  0.62252539  1
  Zr  Zr66  1  0.29209214  0.90709950  0.63316455  1
  Zr  Zr67  1  0.89681696  0.50782413  0.87553432  1
  Zr  Zr68  1  0.09451065  0.09563748  0.87663332  1
  Zr  Zr69  1  0.79814435  0.81238352  0.25636829  1
  Zr  Zr70  1  0.48738868  0.49473520  0.38796563  1
  Zr  Zr71  1  0.38815249  0.60307718  -0.01162837  1
  Zr  Zr72  1  0.00175033  0.80840622  0.48809330  1
  Zr  Zr73  1  0.59089150  0.59445605  0.74261163  1
  Zr  Zr74  1  0.19878551  0.39533457  0.00965793  1
  Zr  Zr75  1  0.31282841  0.07222230  0.11841701  1
  Zr  Zr76  1  0.18577768  -0.01497151  -0.00049879  1
  Zr  Zr77  1  0.50163879  0.09941440  0.90283709  1
  Zr  Zr78  1  0.20611648  0.37393486  0.49975410  1
  Zr  Zr79  1  0.79038926  0.39040233  -0.00560650  1
  Ta  Ta80  1  0.07993633  0.89217824  0.85702032  1
  Ta  Ta81  1  0.78454365  0.81978095  0.49362828  1
  Ta  Ta82  1  0.21660441  0.20240725  0.76194534  1
  Ta  Ta83  1  0.58564303  0.58568027  0.24703412  1
  Ta  Ta84  1  0.39856533  0.40318475  -0.01246429  1
  Ta  Ta85  1  0.72264982  0.11449413  0.12914830  1
  Ta  Ta86  1  0.29925761  0.91261459  0.37413664  1
  Ta  Ta87  1  0.40519656  0.81023464  0.74915029  1
  Ta  Ta88  1  0.90337631  0.09430363  0.62061028  1
  Ta  Ta89  1  0.70658844  0.90651740  0.89275608  1
  Ta  Ta90  1  0.79961955  0.61527883  0.74379020  1
  Ta  Ta91  1  0.32765182  0.10029135  0.62766065  1
  Ta  Ta92  1  0.20241087  0.19040367  0.22871932  1
  Ta  Ta93  1  0.49893679  0.90157234  0.89100366  1
  Ta  Ta94  1  0.11213922  0.70967654  0.12362963  1
  Ta  Ta95  1  0.81019091  0.80472487  0.74885433  1
  Ta  Ta96  1  0.40522497  0.18899207  0.22886823  1
  Ta  Ta97  1  0.89505034  0.90886436  0.88242526  1
  Ta  Ta98  1  0.49042265  0.92379225  0.62783920  1
  Ta  Ta99  1  0.89190395  0.28373526  0.14012729  1
  Ta  Ta100  1  0.71084056  0.70807491  0.61450943  1
  Ta  Ta101  1  0.10069714  0.68212184  0.38044846  1
  Ta  Ta102  1  0.80016269  0.01908531  0.25610676  1
  Ta  Ta103  1  0.91147946  0.29608207  0.62124596  1
  Ta  Ta104  1  0.90571614  0.30020776  0.37072585  1
  Ta  Ta105  1  0.90212569  0.71517367  0.88381918  1
  Ta  Ta106  1  0.88481497  0.90822365  0.61742494  1
  Ta  Ta107  1  0.29561634  0.69564789  0.85347490  1
  Ta  Ta108  1  0.28011088  0.49645284  0.37532259  1
  Ta  Ta109  1  0.00645621  0.40326541  0.74078845  1
  Ta  Ta110  1  0.09086010  0.49056205  0.87748916  1
  Ta  Ta111  1  0.10254921  0.30049556  0.88078971  1
  Ta  Ta112  1  0.80156119  -0.00581178  0.75169007  1
  Ta  Ta113  1  0.91464174  0.50787913  0.38698477  1
  Ta  Ta114  1  0.19298305  0.38467677  0.75463156  1
  Ta  Ta115  1  0.90828071  0.29974071  0.87322008  1
  Ta  Ta116  1  0.79697579  0.60471479  0.00470823  1
  Ta  Ta117  1  0.39729035  0.20266572  0.49598524  1
  Ta  Ta118  1  0.51756830  0.10180838  0.10624729  1
  Ta  Ta119  1  0.90147105  0.71584940  0.61159822  1
  Ti  Ti120  1  0.18035632  0.78783903  0.74571568  1
  Ti  Ti121  1  0.80332740  0.02119555  0.00219760  1
  Ti  Ti122  1  0.09454361  0.29905980  0.13685158  1
  Ti  Ti123  1  0.89615083  0.10796925  0.37536783  1
  Ti  Ti124  1  -0.00283619  0.00505358  0.00911287  1
  Ti  Ti125  1  0.17796798  0.58666309  0.50973452  1
  Ti  Ti126  1  0.80608242  0.18902406  0.49828519  1
  Ti  Ti127  1  0.69735847  0.89776285  0.62100255  1
  Ti  Ti128  1  0.39901939  0.19865213  0.76619450  1
  Ti  Ti129  1  0.09301111  0.50753939  0.12102386  1
  Ti  Ti130  1  0.11663126  0.09588468  0.36661285  1
  Ti  Ti131  1  0.89182104  0.91465514  0.37673048  1
  Ti  Ti132  1  0.49793525  0.90024068  0.36426064  1
  Ti  Ti133  1  0.00061539  0.60182785  0.24919203  1
  Ti  Ti134  1  0.21140879  0.00616785  0.49516562  1
  Ti  Ti135  1  0.00553725  0.00199979  0.25915384  1
  Ti  Ti136  1  0.59623589  0.00755952  0.24428644  1
  Ti  Ti137  1  -0.00317969  0.39484096  0.00627493  1
  Ti  Ti138  1  0.70620529  0.08572911  0.62060614  1
  Ti  Ti139  1  0.30501355  0.10536226  0.89453702  1
  Ti  Ti140  1  0.28854475  0.87327859  0.11853498  1
  Ti  Ti141  1  0.59858279  0.61310838  0.50114416  1
  Ti  Ti142  1  0.10260518  0.90139952  0.13454262  1
  Ti  Ti143  1  -0.00166641  0.18682656  0.24717531  1
  Ti  Ti144  1  0.28802999  0.70307628  0.37655432  1
  Ti  Ti145  1  0.79997742  0.39994318  0.26689369  1
  Ti  Ti146  1  0.70700845  0.28722162  0.37321211  1
  Ti  Ti147  1  0.39078688  0.59688966  0.25780701  1
  Ti  Ti148  1  0.20569296  -0.01277067  0.24899903  1
  Ti  Ti149  1  0.59161603  0.80692552  0.23901964  1
  Ti  Ti150  1  -0.00113662  0.59967406  -0.00073624  1
  Ti  Ti151  1  0.89985556  0.09916744  0.87498008  1
  Ti  Ti152  1  0.69207666  0.91590310  0.36808875  1
  Ti  Ti153  1  0.40682262  0.01110473  0.76283974  1
  Ti  Ti154  1  0.20688552  0.78872451  -0.01280233  1
  Ti  Ti155  1  0.30135744  0.09808132  0.36139903  1
  Ti  Ti156  1  0.68574128  0.49473561  0.13200070  1
  Ti  Ti157  1  0.29168919  0.28206407  0.62684245  1
  Ti  Ti158  1  0.09351643  0.69860644  0.87322614  1
  Ti  Ti159  1  0.20904998  0.39820334  0.23636654  1
  Mo  Mo160  1  0.60963469  0.00278222  0.00555789  1
  Mo  Mo161  1  0.39591096  0.20557951  0.01036386  1
  Mo  Mo162  1  0.29056629  0.70395272  0.11996295  1
  Mo  Mo163  1  0.59645978  0.80755089  0.49985135  1
  Mo  Mo164  1  0.90281313  0.09483750  0.13629396  1
  Mo  Mo165  1  0.11016800  0.29827717  0.63085101  1
  Mo  Mo166  1  0.10405530  0.50165014  0.37215890  1
  Mo  Mo167  1  0.09555128  0.08531973  0.14135479  1
  Mo  Mo168  1  0.38998483  0.38925916  0.49801659  1
  Mo  Mo169  1  0.61023054  0.40439707  0.26564594  1
  Mo  Mo170  1  0.11374941  0.90580702  0.37286218  1
  Mo  Mo171  1  0.39183461  0.60435756  0.75234842  1
  Mo  Mo172  1  0.28627609  0.49203416  0.87615527  1
  Mo  Mo173  1  0.79989407  0.60921677  0.50128375  1
  Mo  Mo174  1  0.09952279  0.49314920  0.63166594  1
  Mo  Mo175  1  0.49062773  0.50317167  0.86968851  1
  Mo  Mo176  1  0.59928149  0.39427559  0.73940432  1
  Mo  Mo177  1  0.80925532  0.80596526  0.00026460  1
  Mo  Mo178  1  0.50208728  0.10005603  0.62798482  1
  Mo  Mo179  1  -0.01823687  0.00261827  0.74788035  1
  Mo  Mo180  1  0.30591906  0.29419517  0.13430496  1
  Mo  Mo181  1  0.39113604  0.01232244  0.49686448  1
  Mo  Mo182  1  0.50448928  0.50079741  0.12717833  1
  Mo  Mo183  1  -0.01374458  0.80103540  0.75036378  1
  Mo  Mo184  1  0.80783456  0.20458418  0.26406198  1
  Mo  Mo185  1  0.71804615  0.30001774  0.86418989  1
  Mo  Mo186  1  0.29853752  0.28992469  0.88398890  1
  Mo  Mo187  1  0.79759717  0.01029973  0.49267178  1
  Mo  Mo188  1  0.09409198  0.69454576  0.62183807  1
  Mo  Mo189  1  0.39698814  -0.00631509  -0.00524792  1
  Mo  Mo190  1  0.21769029  0.18028965  0.49336338  1
  Mo  Mo191  1  0.82193700  0.20062275  -0.00125209  1
  Mo  Mo192  1  0.70382793  0.09492272  0.37331734  1
  Mo  Mo193  1  0.40340119  -0.00044173  0.24698607  1
  Mo  Mo194  1  0.19202555  0.80168738  0.25958208  1
  Mo  Mo195  1  0.72291077  0.08842457  0.87645909  1
  Mo  Mo196  1  0.50072207  0.28602811  0.37309582  1
  Mo  Mo197  1  0.60051154  0.40552674  -0.00107530  1
  Mo  Mo198  1  0.38642474  0.79904910  -0.00721276  1
  Mo  Mo199  1  0.00680686  0.60705514  0.50928592  1
