# generated using pymatgen
data_HfZrTaTiMo
_symmetry_space_group_name_H-M   'P 1'
_cell_length_a   15.19782392
_cell_length_b   15.21884710
_cell_length_c   16.84749897
_cell_angle_alpha   89.98472366
_cell_angle_beta   89.96602335
_cell_angle_gamma   89.93220031
_symmetry_Int_Tables_number   1
_chemical_formula_structural   HfZrTaTiMo
_chemical_formula_sum   'Hf40 Zr40 Ta40 Ti40 Mo40'
_cell_volume   3896.71106579
_cell_formula_units_Z   40
loop_
 _symmetry_equiv_pos_site_id
 _symmetry_equiv_pos_as_xyz
  1  'x, y, z'
loop_
 _atom_site_type_symbol
 _atom_site_label
 _atom_site_symmetry_multiplicity
 _atom_site_fract_x
 _atom_site_fract_y
 _atom_site_fract_z
 _atom_site_occupancy
  Hf  Hf0  1  0.19892604  0.21999861  -0.00902954  1
  Hf  Hf1  1  0.70721651  0.70742571  0.36891908  1
  Hf  Hf2  1  -0.00159645  0.60298311  0.48477333  1
  Hf  Hf3  1  0.41367819  -0.01670773  0.49903144  1
  Hf  Hf4  1  0.52310614  0.09211129  0.37564738  1
  Hf  Hf5  1  0.00292284  -0.00819020  0.24456254  1
  Hf  Hf6  1  0.88608452  0.10446396  0.87836090  1
  Hf  Hf7  1  0.89229755  0.11219005  0.37764817  1
  Hf  Hf8  1  0.61002947  0.21292234  0.73383008  1
  Hf  Hf9  1  0.11250960  0.10726281  0.36438689  1
  Hf  Hf10  1  0.70263204  0.28694756  0.88131109  1
  Hf  Hf11  1  0.40835894  0.19788623  0.51789304  1
  Hf  Hf12  1  0.80821667  0.38671649  0.75609675  1
  Hf  Hf13  1  0.20343627  0.41924979  0.00001732  1
  Hf  Hf14  1  0.81756927  0.78779084  0.23586304  1
  Hf  Hf15  1  0.90281975  0.87565667  0.38187301  1
  Hf  Hf16  1  0.59600295  0.00036055  0.00661477  1
  Hf  Hf17  1  0.38848334  0.79639215  0.25361808  1
  Hf  Hf18  1  0.01252390  0.40299691  -0.00017694  1
  Hf  Hf19  1  0.79924357  0.79369478  0.00891156  1
  Hf  Hf20  1  0.71584418  0.09034426  0.62628005  1
  Hf  Hf21  1  0.49171002  0.29283751  0.37329834  1
  Hf  Hf22  1  -0.00114819  0.00165028  0.49607995  1
  Hf  Hf23  1  0.50008807  0.68667034  0.36631845  1
  Hf  Hf24  1  0.31137064  0.09888473  0.86836017  1
  Hf  Hf25  1  0.31629832  0.10401854  0.36453468  1
  Hf  Hf26  1  0.69106156  0.89498493  0.13238356  1
  Hf  Hf27  1  0.39924067  0.39637181  0.74267855  1
  Hf  Hf28  1  0.09144953  0.10277783  0.87446500  1
  Hf  Hf29  1  0.81086212  0.59723751  0.75389699  1
  Hf  Hf30  1  0.08890896  0.89055892  0.87147141  1
  Hf  Hf31  1  0.58923474  0.79179071  0.00426641  1
  Hf  Hf32  1  0.59906571  0.39618452  0.24136145  1
  Hf  Hf33  1  0.61300288  0.60474354  0.51021239  1
  Hf  Hf34  1  0.59451521  0.39674726  0.50438701  1
  Hf  Hf35  1  0.77302018  -0.00548851  0.48087621  1
  Hf  Hf36  1  -0.01064853  0.61057675  0.27195023  1
  Hf  Hf37  1  0.18976564  0.79167622  0.01227757  1
  Hf  Hf38  1  0.91993821  0.69946813  0.87120081  1
  Hf  Hf39  1  0.70092144  0.28060559  0.37014477  1
  Zr  Zr40  1  0.79921622  -0.00374132  0.25149738  1
  Zr  Zr41  1  0.20387621  0.62000018  0.26985368  1
  Zr  Zr42  1  0.70150619  0.30497704  0.11937707  1
  Zr  Zr43  1  0.89376426  0.89887538  0.87023437  1
  Zr  Zr44  1  -0.01616310  0.39816538  0.47927530  1
  Zr  Zr45  1  0.28606934  0.30110941  0.37585020  1
  Zr  Zr46  1  0.59650162  0.19392689  0.01048495  1
  Zr  Zr47  1  0.40722925  0.19538002  0.74044212  1
  Zr  Zr48  1  0.80181992  0.00014208  0.01373790  1
  Zr  Zr49  1  0.41143126  0.59046119  0.50365417  1
  Zr  Zr50  1  0.39866792  0.39724291  0.01192895  1
  Zr  Zr51  1  0.71079390  0.49672945  0.63158647  1
  Zr  Zr52  1  0.09430527  0.90339533  0.62753390  1
  Zr  Zr53  1  0.59295724  0.40538595  0.00222558  1
  Zr  Zr54  1  0.18773547  0.40162548  0.50375380  1
  Zr  Zr55  1  0.32314875  0.90823514  0.10949601  1
  Zr  Zr56  1  0.20392074  0.61083102  0.74090224  1
  Zr  Zr57  1  0.38927346  0.38289799  0.23337685  1
  Zr  Zr58  1  0.59302730  0.81407869  0.49712837  1
  Zr  Zr59  1  0.81153811  0.39397786  0.25786090  1
  Zr  Zr60  1  0.48610863  0.89590368  0.88388274  1
  Zr  Zr61  1  0.29125402  0.69459102  0.88746001  1
  Zr  Zr62  1  0.10769051  0.11577054  0.13272543  1
  Zr  Zr63  1  -0.01144398  0.00819795  0.74040386  1
  Zr  Zr64  1  0.19741408  0.01154275  0.00524289  1
  Zr  Zr65  1  -0.00656013  0.22439461  0.74870992  1
  Zr  Zr66  1  0.70172611  0.69999904  0.87120916  1
  Zr  Zr67  1  0.49429428  0.68203956  0.87456857  1
  Zr  Zr68  1  0.61237795  0.19251660  0.51408242  1
  Zr  Zr69  1  0.29374250  0.89976220  0.88199465  1
  Zr  Zr70  1  0.90880471  0.50783892  0.12828581  1
  Zr  Zr71  1  0.29819456  0.89247650  0.62541958  1
  Zr  Zr72  1  0.20026326  0.00394889  0.49446940  1
  Zr  Zr73  1  0.28359751  0.29757711  0.62807735  1
  Zr  Zr74  1  0.89528018  0.69606692  0.62104173  1
  Zr  Zr75  1  0.29869982  0.09022031  0.63544887  1
  Zr  Zr76  1  -0.00208077  0.21433540  0.25358978  1
  Zr  Zr77  1  0.69110789  0.68160886  0.13076049  1
  Zr  Zr78  1  0.30667361  0.70517917  0.60634743  1
  Zr  Zr79  1  -0.00576627  0.80523488  0.02397008  1
  Ta  Ta80  1  0.68087214  0.90098923  0.63118889  1
  Ta  Ta81  1  0.00772685  0.79933424  0.23576439  1
  Ta  Ta82  1  0.01719558  0.60356183  0.00127481  1
  Ta  Ta83  1  0.69178468  0.50110413  0.37394986  1
  Ta  Ta84  1  0.30774794  0.50224977  0.86882893  1
  Ta  Ta85  1  0.19381957  0.81502390  0.23944757  1
  Ta  Ta86  1  0.51808964  0.09988827  0.86640054  1
  Ta  Ta87  1  0.91891994  0.48468659  0.62758407  1
  Ta  Ta88  1  0.00842983  0.20836967  0.49841855  1
  Ta  Ta89  1  0.87970516  0.90521310  0.61704360  1
  Ta  Ta90  1  0.10387180  0.68027570  0.13291755  1
  Ta  Ta91  1  0.18209154  0.40778523  0.75313883  1
  Ta  Ta92  1  0.70314270  0.50131298  0.12348710  1
  Ta  Ta93  1  0.80700637  0.59352131  -0.00563292  1
  Ta  Ta94  1  0.80449825  0.40380660  -0.00544322  1
  Ta  Ta95  1  0.31006809  0.50243051  0.36964494  1
  Ta  Ta96  1  0.49789038  0.51726692  0.13880569  1
  Ta  Ta97  1  0.29208083  0.50092349  0.62377577  1
  Ta  Ta98  1  0.30600400  0.69358747  0.11960802  1
  Ta  Ta99  1  0.90820330  0.29958762  0.89117003  1
  Ta  Ta100  1  0.79825760  0.19217235  0.23063926  1
  Ta  Ta101  1  0.69127624  0.91048765  0.86985931  1
  Ta  Ta102  1  0.39397939  0.78992303  0.75030719  1
  Ta  Ta103  1  0.40126587  0.19772990  -0.00388860  1
  Ta  Ta104  1  0.59423209  0.19177150  0.23299523  1
  Ta  Ta105  1  0.28390448  0.50783392  0.13936504  1
  Ta  Ta106  1  0.80424149  0.19549031  0.01483616  1
  Ta  Ta107  1  0.19186355  0.20975021  0.76125994  1
  Ta  Ta108  1  0.10875268  0.49395584  0.36598414  1
  Ta  Ta109  1  0.31137881  0.11933551  0.13264927  1
  Ta  Ta110  1  0.51692089  0.07020119  0.63070158  1
  Ta  Ta111  1  0.50362546  0.49557254  0.63715822  1
  Ta  Ta112  1  0.10339251  0.11857484  0.62823145  1
  Ta  Ta113  1  0.49787377  0.49296854  0.36179581  1
  Ta  Ta114  1  0.59147891  0.80370862  0.74895754  1
  Ta  Ta115  1  0.10197734  0.70453712  0.60610106  1
  Ta  Ta116  1  0.49967773  0.29890936  0.86987867  1
  Ta  Ta117  1  0.10654601  0.51899666  0.87353988  1
  Ta  Ta118  1  0.91077311  0.30059654  0.11513185  1
  Ta  Ta119  1  0.19771258  0.60009815  0.48796480  1
  Ti  Ti120  1  0.91113619  0.49860425  0.87612789  1
  Ti  Ti121  1  0.59942672  0.59107968  -0.00214511  1
  Ti  Ti122  1  0.49210566  0.70240781  0.13252690  1
  Ti  Ti123  1  0.90690726  0.10734710  0.61598049  1
  Ti  Ti124  1  0.20880518  -0.00030383  0.24389786  1
  Ti  Ti125  1  0.49191776  0.08580179  0.12677493  1
  Ti  Ti126  1  0.01555411  0.59656513  0.74148620  1
  Ti  Ti127  1  0.40266247  0.59946191  0.74040905  1
  Ti  Ti128  1  0.09315530  0.73363522  0.38622025  1
  Ti  Ti129  1  0.41331891  -0.01639791  0.74796453  1
  Ti  Ti130  1  0.28777005  0.89709474  0.37630010  1
  Ti  Ti131  1  0.00156367  0.40390883  0.26436357  1
  Ti  Ti132  1  0.30020036  0.70891440  0.39100946  1
  Ti  Ti133  1  0.19190711  0.79734975  0.75181011  1
  Ti  Ti134  1  0.80509705  0.19635328  0.74338421  1
  Ti  Ti135  1  0.81054476  0.21183280  0.50619406  1
  Ti  Ti136  1  0.19498563  0.00214279  0.75371251  1
  Ti  Ti137  1  0.39838951  0.39825677  0.51062468  1
  Ti  Ti138  1  0.00258954  0.19859741  0.00537100  1
  Ti  Ti139  1  0.50849244  0.70706540  0.62832431  1
  Ti  Ti140  1  0.78852572  -0.00094808  0.75305984  1
  Ti  Ti141  1  0.40627537  -0.00558866  0.25001092  1
  Ti  Ti142  1  0.19541142  0.20194161  0.50172403  1
  Ti  Ti143  1  -0.00281910  0.00265404  0.01818188  1
  Ti  Ti144  1  0.79087474  0.78990368  0.50795052  1
  Ti  Ti145  1  0.11300138  0.31925018  0.13808004  1
  Ti  Ti146  1  0.39736698  0.59209301  0.00542969  1
  Ti  Ti147  1  0.79192644  0.80254010  0.74220109  1
  Ti  Ti148  1  0.79486599  0.39846815  0.49464748  1
  Ti  Ti149  1  0.30090157  0.30846972  0.86770926  1
  Ti  Ti150  1  -0.00372074  0.79467889  0.73748843  1
  Ti  Ti151  1  0.69762053  0.49680425  0.87141967  1
  Ti  Ti152  1  0.79669976  0.59213733  0.25806036  1
  Ti  Ti153  1  0.59475565  0.79925950  0.24927912  1
  Ti  Ti154  1  0.80600370  0.58956215  0.49197847  1
  Ti  Ti155  1  0.50207690  0.49195222  0.86261979  1
  Ti  Ti156  1  0.50045840  0.89438146  0.36754409  1
  Ti  Ti157  1  0.59804490  -0.00276068  0.24314344  1
  Ti  Ti158  1  0.60406565  0.60020391  0.74398246  1
  Ti  Ti159  1  0.07739689  0.32300350  0.62947631  1
  Mo  Mo160  1  0.90102279  0.68616074  0.12129425  1
  Mo  Mo161  1  0.69747565  0.10097690  0.35765136  1
  Mo  Mo162  1  0.21069993  0.21073023  0.24603890  1
  Mo  Mo163  1  -0.00677306  0.80762762  0.50990753  1
  Mo  Mo164  1  0.70145102  0.09933535  0.86981157  1
  Mo  Mo165  1  0.40977527  0.01937809  -0.00187973  1
  Mo  Mo166  1  0.60018081  -0.00566202  0.49739003  1
  Mo  Mo167  1  0.49951576  0.89354912  0.13009888  1
  Mo  Mo168  1  0.48422010  0.28169297  0.12612471  1
  Mo  Mo169  1  0.28887160  0.29548894  0.12379026  1
  Mo  Mo170  1  0.10133771  0.31130107  0.87430471  1
  Mo  Mo171  1  0.69937445  0.70872156  0.63583574  1
  Mo  Mo172  1  0.09933779  0.51043863  0.61957104  1
  Mo  Mo173  1  0.71509409  0.30328257  0.62342458  1
  Mo  Mo174  1  0.19304839  0.80384706  0.49247759  1
  Mo  Mo175  1  0.89180553  0.30194044  0.61980558  1
  Mo  Mo176  1  0.90313034  0.89944228  0.12892403  1
  Mo  Mo177  1  0.60350192  0.59422586  0.25221887  1
  Mo  Mo178  1  -0.00149019  0.41558425  0.76057884  1
  Mo  Mo179  1  0.60136323  0.40498531  0.75806068  1
  Mo  Mo180  1  0.40107208  0.78626502  0.00884720  1
  Mo  Mo181  1  0.90481150  0.10654079  0.12237218  1
  Mo  Mo182  1  0.39976910  0.79952326  0.48288853  1
  Mo  Mo183  1  0.68642793  0.89855971  0.35523644  1
  Mo  Mo184  1  0.50526852  0.30702674  0.62366202  1
  Mo  Mo185  1  0.60046176  -0.00089620  0.75640617  1
  Mo  Mo186  1  0.39876532  0.59899837  0.25015315  1
  Mo  Mo187  1  0.10844033  0.90343931  0.12869296  1
  Mo  Mo188  1  0.40774767  0.18853209  0.24816859  1
  Mo  Mo189  1  0.88643012  0.50242464  0.37316769  1
  Mo  Mo190  1  0.19307549  0.40588454  0.25257997  1
  Mo  Mo191  1  0.89379161  0.29550438  0.37538856  1
  Mo  Mo192  1  0.10523571  0.90434721  0.36855976  1
  Mo  Mo193  1  0.89691946  0.70109074  0.38397090  1
  Mo  Mo194  1  0.09777572  0.29789880  0.37134685  1
  Mo  Mo195  1  0.10121748  0.50165082  0.14624912  1
  Mo  Mo196  1  0.09446472  0.70257180  0.87188827  1
  Mo  Mo197  1  0.49241180  0.88658840  0.63182149  1
  Mo  Mo198  1  0.69693642  0.09705068  0.13341004  1
  Mo  Mo199  1  0.20053288  0.59500230  0.00610966  1
