# generated using pymatgen
data_HfZrTaTiMo
_symmetry_space_group_name_H-M   'P 1'
_cell_length_a   15.19970221
_cell_length_b   15.18908293
_cell_length_c   16.79126470
_cell_angle_alpha   90.02848591
_cell_angle_beta   89.94429030
_cell_angle_gamma   90.02585869
_symmetry_Int_Tables_number   1
_chemical_formula_structural   HfZrTaTiMo
_chemical_formula_sum   'Hf40 Zr40 Ta40 Ti40 Mo40'
_cell_volume   3876.58880967
_cell_formula_units_Z   40
loop_
 _symmetry_equiv_pos_site_id
 _symmetry_equiv_pos_as_xyz
  1  'x, y, z'
loop_
 _atom_site_type_symbol
 _atom_site_label
 _atom_site_symmetry_multiplicity
 _atom_site_fract_x
 _atom_site_fract_y
 _atom_site_fract_z
 _atom_site_occupancy
  Hf  Hf0  1  0.91948529  0.10188493  0.62998960  1
  Hf  Hf1  1  0.89874919  0.49848334  0.35603082  1
  Hf  Hf2  1  0.81139003  0.02341764  0.24630622  1
  Hf  Hf3  1  -0.01025388  0.19384794  0.48541778  1
  Hf  Hf4  1  0.88426458  0.28549093  0.36325310  1
  Hf  Hf5  1  0.68795171  0.11603345  0.10829442  1
  Hf  Hf6  1  0.10517757  0.10939019  0.12284491  1
  Hf  Hf7  1  0.39030309  0.59815485  0.75922122  1
  Hf  Hf8  1  0.59634075  0.40489115  0.24806324  1
  Hf  Hf9  1  0.29282810  0.50021576  0.37339380  1
  Hf  Hf10  1  0.59784110  0.59837864  -0.00666797  1
  Hf  Hf11  1  0.71391546  0.90127356  0.36167678  1
  Hf  Hf12  1  0.90380725  0.90317155  0.63285660  1
  Hf  Hf13  1  0.17149618  0.19564521  0.75196695  1
  Hf  Hf14  1  0.91803334  0.89881725  0.35705427  1
  Hf  Hf15  1  0.59160698  0.20329986  0.26571699  1
  Hf  Hf16  1  0.90516858  0.70159643  0.89282622  1
  Hf  Hf17  1  0.09442556  0.29434785  0.35432846  1
  Hf  Hf18  1  0.39831112  0.38973154  -0.00786241  1
  Hf  Hf19  1  0.79547129  0.60241845  0.50123311  1
  Hf  Hf20  1  0.19359506  0.58969019  0.50351469  1
  Hf  Hf21  1  0.60886991  0.00336920  0.49340127  1
  Hf  Hf22  1  0.60798068  0.39130593  -0.00475748  1
  Hf  Hf23  1  0.80289118  0.20141123  0.76387178  1
  Hf  Hf24  1  0.89641162  0.70064796  0.63446965  1
  Hf  Hf25  1  0.79070015  0.00737947  0.75738228  1
  Hf  Hf26  1  0.90217718  0.49601613  0.11995242  1
  Hf  Hf27  1  0.28981034  0.09075297  0.62916940  1
  Hf  Hf28  1  0.49701675  0.71282445  0.63437784  1
  Hf  Hf29  1  0.39106230  0.59987773  0.24605218  1
  Hf  Hf30  1  0.20546062  0.39647536  0.24047881  1
  Hf  Hf31  1  0.28248612  0.08676359  0.87339430  1
  Hf  Hf32  1  -0.00108863  -0.00801341  0.00945232  1
  Hf  Hf33  1  0.41411040  0.79335809  0.24990840  1
  Hf  Hf34  1  0.48526080  0.09531196  0.11801104  1
  Hf  Hf35  1  0.01245730  0.01830210  0.77054897  1
  Hf  Hf36  1  0.59498736  0.80857337  0.00283774  1
  Hf  Hf37  1  0.11322269  0.92295829  0.63595592  1
  Hf  Hf38  1  0.39490662  0.38772564  0.49654826  1
  Hf  Hf39  1  0.90914000  0.49790252  0.63193149  1
  Zr  Zr40  1  0.09549677  0.69907192  0.62761460  1
  Zr  Zr41  1  0.90022572  0.89916578  0.88285478  1
  Zr  Zr42  1  0.42007872  -0.00355326  0.76175406  1
  Zr  Zr43  1  0.59810931  0.17795552  0.74077533  1
  Zr  Zr44  1  0.70430240  0.71158865  0.87714534  1
  Zr  Zr45  1  0.19744491  0.39521620  0.00707749  1
  Zr  Zr46  1  0.00899117  0.80332174  0.76359695  1
  Zr  Zr47  1  0.50179400  0.88443173  0.38389043  1
  Zr  Zr48  1  0.09063249  0.50066073  0.35842579  1
  Zr  Zr49  1  0.49514456  0.28924481  0.12204283  1
  Zr  Zr50  1  0.49868414  0.49962499  0.11901173  1
  Zr  Zr51  1  0.00500268  0.59124867  0.76070848  1
  Zr  Zr52  1  -0.00506370  0.80219347  0.49480034  1
  Zr  Zr53  1  0.50474030  0.50698699  0.37535337  1
  Zr  Zr54  1  0.10087045  0.70045839  0.36772296  1
  Zr  Zr55  1  0.69408284  0.70402836  0.36491226  1
  Zr  Zr56  1  0.90801994  0.49998781  0.88969611  1
  Zr  Zr57  1  0.59823941  0.41396127  0.51010818  1
  Zr  Zr58  1  0.19297382  0.18772055  0.49365727  1
  Zr  Zr59  1  0.69749022  0.70805936  0.64057774  1
  Zr  Zr60  1  0.22148344  0.79947228  0.23973499  1
  Zr  Zr61  1  0.39040795  0.19807436  0.75038422  1
  Zr  Zr62  1  0.59580158  0.61540537  0.23921233  1
  Zr  Zr63  1  0.38172415  0.18788340  0.27145335  1
  Zr  Zr64  1  0.49558753  0.49731753  0.64028035  1
  Zr  Zr65  1  0.70029370  0.91575046  0.12593004  1
  Zr  Zr66  1  0.59065956  0.00847201  0.26292275  1
  Zr  Zr67  1  0.90013117  0.29671324  0.62405174  1
  Zr  Zr68  1  0.29825854  0.69490610  0.62643229  1
  Zr  Zr69  1  0.80483068  0.40085378  0.75978124  1
  Zr  Zr70  1  0.51064607  0.29797058  0.86040531  1
  Zr  Zr71  1  0.19643605  0.80786413  0.49878282  1
  Zr  Zr72  1  0.82539674  0.00855587  0.49044336  1
  Zr  Zr73  1  0.31669457  0.89440754  0.62362469  1
  Zr  Zr74  1  0.40150428  -0.02157273  -0.01721426  1
  Zr  Zr75  1  0.80599066  0.40632281  0.50176906  1
  Zr  Zr76  1  0.01209977  0.79347036  0.22509985  1
  Zr  Zr77  1  0.79422076  0.80441076  0.49905722  1
  Zr  Zr78  1  0.57718217  0.20380610  0.50199253  1
  Zr  Zr79  1  0.69030796  0.31738263  0.38118418  1
  Ta  Ta80  1  0.89669466  0.69212832  0.36047890  1
  Ta  Ta81  1  0.71995886  0.11945772  0.38223742  1
  Ta  Ta82  1  -0.00784220  0.59344776  0.49703591  1
  Ta  Ta83  1  0.59892013  0.60303377  0.76247867  1
  Ta  Ta84  1  0.19502159  0.38887682  0.49775262  1
  Ta  Ta85  1  0.81125019  0.79201285  0.22745643  1
  Ta  Ta86  1  0.02967943  0.00410429  0.49027205  1
  Ta  Ta87  1  0.69516321  0.91785234  0.88841894  1
  Ta  Ta88  1  0.69484429  0.30369536  0.62756499  1
  Ta  Ta89  1  0.68500651  0.11098925  0.89504119  1
  Ta  Ta90  1  0.38796620  -0.00821281  0.25560493  1
  Ta  Ta91  1  0.12348501  0.90603614  0.11649046  1
  Ta  Ta92  1  0.08529587  0.11700983  0.89873518  1
  Ta  Ta93  1  0.69328550  0.49512469  0.86823433  1
  Ta  Ta94  1  0.71002217  0.10520652  0.61379425  1
  Ta  Ta95  1  0.19398352  0.59630981  0.75733148  1
  Ta  Ta96  1  0.10710105  0.69565249  0.89528725  1
  Ta  Ta97  1  0.30349764  0.90234556  0.38333584  1
  Ta  Ta98  1  0.59934179  0.60935030  0.50537590  1
  Ta  Ta99  1  0.08879388  0.30176039  0.13756610  1
  Ta  Ta100  1  0.40466878  0.60172522  0.50307351  1
  Ta  Ta101  1  0.01658455  0.38396361  0.76406457  1
  Ta  Ta102  1  0.19618475  0.60569577  0.22516659  1
  Ta  Ta103  1  0.39874086  0.38765555  0.25803866  1
  Ta  Ta104  1  0.40163717  0.80006542  0.77025429  1
  Ta  Ta105  1  0.80828949  0.80947206  0.01932652  1
  Ta  Ta106  1  0.19758164  0.59454079  0.01476590  1
  Ta  Ta107  1  0.70646852  0.50081886  0.12407575  1
  Ta  Ta108  1  0.20621465  0.80052617  0.76379961  1
  Ta  Ta109  1  0.70273152  0.30321103  0.12582316  1
  Ta  Ta110  1  0.29646599  0.27863318  0.12535052  1
  Ta  Ta111  1  0.29120335  0.49745436  0.87645613  1
  Ta  Ta112  1  0.89358438  0.29695328  0.11806369  1
  Ta  Ta113  1  0.91696325  0.29014720  0.89264467  1
  Ta  Ta114  1  0.88848219  0.10832163  0.10366202  1
  Ta  Ta115  1  0.30546843  0.49262201  0.12295783  1
  Ta  Ta116  1  0.31187492  0.70257196  0.38524410  1
  Ta  Ta117  1  0.88696371  0.10302660  0.90220216  1
  Ta  Ta118  1  0.11731255  0.91378865  0.35804510  1
  Ta  Ta119  1  0.09424728  0.29604270  0.62240458  1
  Ti  Ti120  1  0.79840092  0.39847042  -0.00602677  1
  Ti  Ti121  1  0.79860085  0.39767009  0.24249433  1
  Ti  Ti122  1  -0.00270349  0.60404014  0.22507871  1
  Ti  Ti123  1  0.31512699  0.89448086  0.11678745  1
  Ti  Ti124  1  0.00692162  0.40105561  0.49458681  1
  Ti  Ti125  1  0.50771213  0.91133746  0.62112135  1
  Ti  Ti126  1  0.38646276  0.19634267  0.48285649  1
  Ti  Ti127  1  0.49904569  0.90282363  0.12495265  1
  Ti  Ti128  1  0.40316452  0.00990549  0.49443863  1
  Ti  Ti129  1  0.29260357  0.29905128  0.86828678  1
  Ti  Ti130  1  0.70677223  0.51399281  0.36317153  1
  Ti  Ti131  1  0.49500618  0.49328235  0.86358144  1
  Ti  Ti132  1  0.20043708  0.20384833  -0.00182886  1
  Ti  Ti133  1  0.79997458  0.60445362  0.76144322  1
  Ti  Ti134  1  0.21632176  0.80110221  0.00341713  1
  Ti  Ti135  1  0.79604528  0.80975522  0.75714341  1
  Ti  Ti136  1  0.48618362  0.70531742  0.10977606  1
  Ti  Ti137  1  0.29494531  0.69668913  0.88421172  1
  Ti  Ti138  1  0.39403070  0.59645734  -0.00621871  1
  Ti  Ti139  1  0.69795972  0.90804999  0.62906471  1
  Ti  Ti140  1  0.70415822  0.69624314  0.12153998  1
  Ti  Ti141  1  0.00640819  -0.00282184  0.22849489  1
  Ti  Ti142  1  0.10237290  0.48772524  0.62597678  1
  Ti  Ti143  1  0.59723134  0.82083458  0.75848672  1
  Ti  Ti144  1  0.01335011  0.40407773  0.00124359  1
  Ti  Ti145  1  0.29396009  0.08605911  0.11656641  1
  Ti  Ti146  1  0.20028871  0.40136628  0.75290651  1
  Ti  Ti147  1  0.59817114  0.79719225  0.50498038  1
  Ti  Ti148  1  0.00811589  0.79351309  0.01854526  1
  Ti  Ti149  1  0.12136915  0.90809038  0.89026106  1
  Ti  Ti150  1  0.39700309  0.19213180  -0.01582047  1
  Ti  Ti151  1  0.29192686  0.30164546  0.62934810  1
  Ti  Ti152  1  0.60414514  0.80397447  0.23729251  1
  Ti  Ti153  1  0.69873312  0.50470907  0.64296157  1
  Ti  Ti154  1  0.29524333  0.49008283  0.62867073  1
  Ti  Ti155  1  0.10302143  0.09498156  0.34816576  1
  Ti  Ti156  1  0.49794629  0.70046456  0.87756632  1
  Ti  Ti157  1  -0.02187028  0.18956467  0.24228197  1
  Ti  Ti158  1  0.49161124  0.30150091  0.64034170  1
  Ti  Ti159  1  0.79712861  0.59932533  0.00141908  1
  Mo  Mo160  1  0.09846321  0.49678074  0.13372559  1
  Mo  Mo161  1  0.38474385  0.39847991  0.75330644  1
  Mo  Mo162  1  0.59142068  0.00415233  0.00102653  1
  Mo  Mo163  1  0.29669299  0.88599586  0.87505834  1
  Mo  Mo164  1  0.00767053  0.59850737  0.00979544  1
  Mo  Mo165  1  0.49338819  0.09346140  0.38178231  1
  Mo  Mo166  1  0.19922853  -0.00537010  0.76150054  1
  Mo  Mo167  1  0.20129311  -0.00113889  0.00397072  1
  Mo  Mo168  1  0.78884873  0.21786536  -0.00735328  1
  Mo  Mo169  1  0.40801984  0.79698529  0.50159848  1
  Mo  Mo170  1  0.79206245  0.20036687  0.50510388  1
  Mo  Mo171  1  0.70795473  0.30176038  0.87409897  1
  Mo  Mo172  1  0.19515518  0.19388408  0.24394856  1
  Mo  Mo173  1  0.80136107  0.60284040  0.23846188  1
  Mo  Mo174  1  0.90820170  0.90609751  0.12868236  1
  Mo  Mo175  1  0.49823822  0.08973644  0.61463695  1
  Mo  Mo176  1  0.61112874  -0.00199131  0.74525371  1
  Mo  Mo177  1  0.20583604  0.00208059  0.49416700  1
  Mo  Mo178  1  0.10673189  0.30561279  0.88139911  1
  Mo  Mo179  1  0.48575407  0.30375929  0.37743358  1
  Mo  Mo180  1  0.09657557  0.10556574  0.62471700  1
  Mo  Mo181  1  0.28576620  0.08449632  0.37617223  1
  Mo  Mo182  1  0.58417303  0.20569734  -0.00423768  1
  Mo  Mo183  1  0.21102148  -0.00034661  0.23920390  1
  Mo  Mo184  1  0.40297584  0.78458229  -0.01268034  1
  Mo  Mo185  1  0.89725259  0.69521086  0.10806317  1
  Mo  Mo186  1  0.00238462  0.21073698  0.01224743  1
  Mo  Mo187  1  0.79088083  0.20531710  0.24230886  1
  Mo  Mo188  1  0.28839831  0.30062497  0.37593100  1
  Mo  Mo189  1  -0.00768605  0.20385438  0.76296392  1
  Mo  Mo190  1  -0.00886955  0.39246625  0.23904219  1
  Mo  Mo191  1  0.79444818  0.00181224  0.00342773  1
  Mo  Mo192  1  0.50437771  0.09430709  0.88506021  1
  Mo  Mo193  1  0.51198224  0.89173656  0.87362574  1
  Mo  Mo194  1  0.10808839  0.70036267  0.10743863  1
  Mo  Mo195  1  0.30991990  0.69529342  0.10985398  1
  Mo  Mo196  1  0.49833649  0.69679740  0.38495292  1
  Mo  Mo197  1  0.60221599  0.39968391  0.74582762  1
  Mo  Mo198  1  0.91449652  0.09555481  0.36529153  1
  Mo  Mo199  1  0.10991482  0.50221231  0.87821415  1
