# generated using pymatgen
data_HfZrTaTiMo
_symmetry_space_group_name_H-M   'P 1'
_cell_length_a   15.21284789
_cell_length_b   15.21010101
_cell_length_c   16.84463379
_cell_angle_alpha   89.95145982
_cell_angle_beta   90.00950504
_cell_angle_gamma   89.88440419
_symmetry_Int_Tables_number   1
_chemical_formula_structural   HfZrTaTiMo
_chemical_formula_sum   'Hf40 Zr40 Ta40 Ti40 Mo40'
_cell_volume   3897.65279162
_cell_formula_units_Z   40
loop_
 _symmetry_equiv_pos_site_id
 _symmetry_equiv_pos_as_xyz
  1  'x, y, z'
loop_
 _atom_site_type_symbol
 _atom_site_label
 _atom_site_symmetry_multiplicity
 _atom_site_fract_x
 _atom_site_fract_y
 _atom_site_fract_z
 _atom_site_occupancy
  Hf  Hf0  1  0.49718551  0.10645710  0.63736386  1
  Hf  Hf1  1  0.02622511  0.60651586  -0.00326347  1
  Hf  Hf2  1  0.39264758  0.79322244  0.75540731  1
  Hf  Hf3  1  0.38807093  0.79001501  0.24268371  1
  Hf  Hf4  1  0.19637663  0.01181714  0.00254386  1
  Hf  Hf5  1  0.60104892  0.00679881  0.25433138  1
  Hf  Hf6  1  0.89544017  0.91193588  0.38911910  1
  Hf  Hf7  1  0.60135471  0.80354659  0.25497019  1
  Hf  Hf8  1  0.70383403  0.09881507  0.39143983  1
  Hf  Hf9  1  0.49997818  0.29290592  0.15177423  1
  Hf  Hf10  1  0.30160232  0.49413404  0.87188484  1
  Hf  Hf11  1  0.10247109  0.29463629  0.36362918  1
  Hf  Hf12  1  0.09960627  0.50600068  0.37005809  1
  Hf  Hf13  1  0.90686776  0.11154389  0.61454336  1
  Hf  Hf14  1  0.37990957  0.20053393  0.02431067  1
  Hf  Hf15  1  0.71526500  0.67619683  0.62321288  1
  Hf  Hf16  1  0.89014207  0.08852311  0.12567143  1
  Hf  Hf17  1  0.81367891  0.58528510  0.47985995  1
  Hf  Hf18  1  0.30047203  0.69066600  0.10449475  1
  Hf  Hf19  1  0.09096661  0.29717453  0.61511486  1
  Hf  Hf20  1  0.18891036  0.21027526  0.74851610  1
  Hf  Hf21  1  0.28436756  0.89919741  0.63320035  1
  Hf  Hf22  1  0.22186790  0.60023956  0.24617305  1
  Hf  Hf23  1  0.70933408  0.49886146  0.12499243  1
  Hf  Hf24  1  0.70882039  0.70484851  0.12240751  1
  Hf  Hf25  1  0.17641279  0.21407621  0.01514822  1
  Hf  Hf26  1  0.20956682  0.40997453  0.00819089  1
  Hf  Hf27  1  0.61223062  0.60214696  -0.00341616  1
  Hf  Hf28  1  0.60922955  0.59197795  0.49342922  1
  Hf  Hf29  1  0.80292263  0.79890287  0.73573313  1
  Hf  Hf30  1  0.90923552  0.88621470  0.87068352  1
  Hf  Hf31  1  0.48726089  0.90848326  0.38349043  1
  Hf  Hf32  1  0.29942139  0.30207906  0.35588912  1
  Hf  Hf33  1  0.70101070  0.29453127  0.38295896  1
  Hf  Hf34  1  -0.00222040  -0.00127336  -0.00457926  1
  Hf  Hf35  1  0.49044030  0.50136364  0.37281779  1
  Hf  Hf36  1  0.79054602  0.20131036  0.24564451  1
  Hf  Hf37  1  0.49526651  0.29365396  0.62101096  1
  Hf  Hf38  1  0.58947564  0.00373578  0.50454665  1
  Hf  Hf39  1  0.81131937  0.59111190  0.26159045  1
  Zr  Zr40  1  0.49699773  0.70773457  0.38579835  1
  Zr  Zr41  1  0.50276084  0.49683759  0.62145409  1
  Zr  Zr42  1  0.90407908  0.69689444  0.87579287  1
  Zr  Zr43  1  0.48885694  0.90251196  0.62323706  1
  Zr  Zr44  1  0.78473963  0.19335796  0.00845831  1
  Zr  Zr45  1  0.80634006  0.79421313  0.50838829  1
  Zr  Zr46  1  0.00461574  0.38567346  0.75220087  1
  Zr  Zr47  1  0.00573991  0.81171395  0.25584008  1
  Zr  Zr48  1  0.01418645  0.38518418  0.00465133  1
  Zr  Zr49  1  0.62302085  0.58992090  0.75195097  1
  Zr  Zr50  1  0.60321777  0.00116754  -0.01466918  1
  Zr  Zr51  1  0.60389555  0.60209312  0.25744479  1
  Zr  Zr52  1  0.40631783  0.58872132  -0.00825645  1
  Zr  Zr53  1  0.51116584  0.47948337  0.87309175  1
  Zr  Zr54  1  0.49425348  0.29812473  0.36284867  1
  Zr  Zr55  1  0.39247151  0.18817036  0.49747655  1
  Zr  Zr56  1  0.70968430  0.90657561  0.12332621  1
  Zr  Zr57  1  0.90743278  0.28453031  0.88078714  1
  Zr  Zr58  1  0.79479469  0.41144951  0.74373948  1
  Zr  Zr59  1  0.40958584  0.59852237  0.75481999  1
  Zr  Zr60  1  0.59635466  0.39211444  0.01148977  1
  Zr  Zr61  1  0.90215517  0.49815315  0.88509366  1
  Zr  Zr62  1  0.28622229  0.09972392  0.36112986  1
  Zr  Zr63  1  0.01569560  0.59513952  0.75476812  1
  Zr  Zr64  1  0.00128230  0.00302874  0.74891499  1
  Zr  Zr65  1  0.61236734  -0.00258397  0.74877291  1
  Zr  Zr66  1  0.28503041  0.51247449  0.63406446  1
  Zr  Zr67  1  0.29501197  0.11587487  0.87372155  1
  Zr  Zr68  1  0.30187849  0.90166031  0.87640494  1
  Zr  Zr69  1  0.78717644  0.20114112  0.73916401  1
  Zr  Zr70  1  0.50113274  0.89470969  0.12079743  1
  Zr  Zr71  1  0.28756653  0.88931703  0.37402226  1
  Zr  Zr72  1  0.19982715  0.40142508  0.49866793  1
  Zr  Zr73  1  0.12801611  0.70138887  0.63408629  1
  Zr  Zr74  1  0.91659211  0.69933614  0.37377179  1
  Zr  Zr75  1  0.18012693  0.79757667  -0.01604722  1
  Zr  Zr76  1  0.57937028  0.19746183  0.00306953  1
  Zr  Zr77  1  0.40416508  0.00600404  0.00581647  1
  Zr  Zr78  1  0.60189860  0.38198560  0.74438243  1
  Zr  Zr79  1  0.87696986  0.09228873  0.86994969  1
  Ta  Ta80  1  0.61449881  0.39954423  0.25099791  1
  Ta  Ta81  1  0.01958179  0.80659301  0.49916886  1
  Ta  Ta82  1  0.89595730  0.51137932  0.62370626  1
  Ta  Ta83  1  0.08107585  0.12518159  0.87591350  1
  Ta  Ta84  1  0.29637501  0.29662361  0.62680913  1
  Ta  Ta85  1  0.71209828  0.69872601  0.87357070  1
  Ta  Ta86  1  0.38692131  0.60373130  0.50936845  1
  Ta  Ta87  1  0.39703897  0.00206576  0.75696964  1
  Ta  Ta88  1  0.01518189  0.60716727  0.50180860  1
  Ta  Ta89  1  0.09144196  0.90241243  0.12412299  1
  Ta  Ta90  1  0.11564764  0.50159382  0.13275928  1
  Ta  Ta91  1  0.30493864  0.68984407  0.37858329  1
  Ta  Ta92  1  0.90521392  0.90593816  0.61293842  1
  Ta  Ta93  1  0.90614857  0.70061674  0.12130197  1
  Ta  Ta94  1  0.39166797  0.00106677  0.23598453  1
  Ta  Ta95  1  0.69845666  0.89817451  0.38569692  1
  Ta  Ta96  1  0.69098145  0.29183800  0.87614257  1
  Ta  Ta97  1  -0.00304304  0.00930807  0.26368266  1
  Ta  Ta98  1  0.79853165  0.39421236  0.00655511  1
  Ta  Ta99  1  0.59991959  0.39607837  0.49598583  1
  Ta  Ta100  1  0.49266664  0.10581967  0.36466437  1
  Ta  Ta101  1  0.20059341  -0.00354380  0.49974872  1
  Ta  Ta102  1  0.60275516  0.79560021  0.74386483  1
  Ta  Ta103  1  0.11941897  0.70921922  0.37055948  1
  Ta  Ta104  1  0.50137180  0.69945435  0.62009300  1
  Ta  Ta105  1  0.00984421  0.59976736  0.24116330  1
  Ta  Ta106  1  -0.01016846  0.20036389  0.25515490  1
  Ta  Ta107  1  0.01199668  0.00746852  0.49427012  1
  Ta  Ta108  1  0.60537730  0.80003985  0.51103590  1
  Ta  Ta109  1  0.08822971  0.10392725  0.13418843  1
  Ta  Ta110  1  0.18567454  -0.01239740  0.24666380  1
  Ta  Ta111  1  0.49971277  0.10498310  0.85914177  1
  Ta  Ta112  1  0.90854784  0.50326083  0.11559932  1
  Ta  Ta113  1  -0.00593769  0.40395923  0.24366437  1
  Ta  Ta114  1  0.89931495  0.30632077  0.37878976  1
  Ta  Ta115  1  0.10806337  0.09562434  0.62266525  1
  Ta  Ta116  1  0.80037739  0.80195170  0.25648955  1
  Ta  Ta117  1  0.10436172  0.70688250  0.12959400  1
  Ta  Ta118  1  0.51281270  0.70926045  0.87413056  1
  Ta  Ta119  1  0.50413333  0.69810233  0.11895570  1
  Ti  Ti120  1  0.60419139  0.80441671  -0.01094169  1
  Ti  Ti121  1  0.80489193  0.79690553  -0.00158701  1
  Ti  Ti122  1  0.71403575  0.49811625  0.88633973  1
  Ti  Ti123  1  0.09596984  0.89999783  0.62910246  1
  Ti  Ti124  1  0.38940268  0.38798433  0.74489118  1
  Ti  Ti125  1  0.20501247  0.78920614  0.50192199  1
  Ti  Ti126  1  0.89611987  0.11033525  0.38801569  1
  Ti  Ti127  1  0.40931990  0.79979377  -0.01196275  1
  Ti  Ti128  1  0.70342492  0.89393157  0.86868632  1
  Ti  Ti129  1  0.90008889  0.89310403  0.12580710  1
  Ti  Ti130  1  0.00416614  0.20421671  0.48918712  1
  Ti  Ti131  1  0.67904406  0.10983227  0.13093489  1
  Ti  Ti132  1  0.38734484  0.42036894  0.24231413  1
  Ti  Ti133  1  0.19391089  0.00194889  0.76068283  1
  Ti  Ti134  1  0.80079482  -0.00466369  0.25671861  1
  Ti  Ti135  1  0.39376859  0.80325329  0.50894036  1
  Ti  Ti136  1  0.90045909  0.29636748  0.12311637  1
  Ti  Ti137  1  0.92334897  0.70266137  0.62834138  1
  Ti  Ti138  1  0.79210917  -0.00794266  -0.00636175  1
  Ti  Ti139  1  -0.01150254  0.41213789  0.49392115  1
  Ti  Ti140  1  0.19589262  0.18970373  0.50037960  1
  Ti  Ti141  1  0.29630376  0.30218567  0.87445491  1
  Ti  Ti142  1  0.21405977  0.62735814  0.77920998  1
  Ti  Ti143  1  0.29958592  0.09804280  0.63118259  1
  Ti  Ti144  1  0.48477420  0.28752261  0.86666538  1
  Ti  Ti145  1  0.40254969  0.39012386  0.01350539  1
  Ti  Ti146  1  0.19117999  0.41184995  0.75261900  1
  Ti  Ti147  1  0.89466417  0.30803706  0.61259967  1
  Ti  Ti148  1  0.69528862  0.28986979  0.60520525  1
  Ti  Ti149  1  0.27973680  0.30484608  0.15084503  1
  Ti  Ti150  1  0.49668358  0.50622752  0.13467275  1
  Ti  Ti151  1  0.79660769  -0.00550833  0.73328301  1
  Ti  Ti152  1  0.79619483  0.40301152  0.49764889  1
  Ti  Ti153  1  0.80703254  0.39824790  0.25020294  1
  Ti  Ti154  1  0.70359976  0.10058015  0.60556868  1
  Ti  Ti155  1  0.29846623  0.50180304  0.37853885  1
  Ti  Ti156  1  0.28730797  0.89523158  0.12076256  1
  Ti  Ti157  1  0.09258748  0.50091625  0.61678531  1
  Ti  Ti158  1  0.70440593  0.70517182  0.37911654  1
  Ti  Ti159  1  0.39479912  0.40041809  0.50150363  1
  Mo  Mo160  1  0.09131743  0.09885711  0.37359125  1
  Mo  Mo161  1  0.11205056  0.50364643  0.87466782  1
  Mo  Mo162  1  0.08859542  0.30396251  0.14542997  1
  Mo  Mo163  1  0.60116210  0.19787230  0.75282840  1
  Mo  Mo164  1  0.30884967  0.49569413  0.12196587  1
  Mo  Mo165  1  -0.00540099  0.19282387  0.01010950  1
  Mo  Mo166  1  0.71135287  0.48248525  0.61353856  1
  Mo  Mo167  1  0.19895643  0.79866696  0.24046606  1
  Mo  Mo168  1  0.09628569  0.91340161  0.86982147  1
  Mo  Mo169  1  0.80186299  0.00158218  0.50986170  1
  Mo  Mo170  1  0.70556454  0.30216848  0.13354915  1
  Mo  Mo171  1  0.30735217  0.70086455  0.89066486  1
  Mo  Mo172  1  0.09635335  0.71796565  0.86453950  1
  Mo  Mo173  1  0.70270188  0.48704959  0.36985353  1
  Mo  Mo174  1  0.80812801  0.59887645  0.00623261  1
  Mo  Mo175  1  0.19523024  0.40652352  0.24922972  1
  Mo  Mo176  1  0.40873745  0.60201896  0.24285412  1
  Mo  Mo177  1  0.19051461  0.81060557  0.76596056  1
  Mo  Mo178  1  0.69439955  0.10196155  0.86991625  1
  Mo  Mo179  1  0.59655067  0.20141882  0.49895607  1
  Mo  Mo180  1  0.39310381  0.20446377  0.74880314  1
  Mo  Mo181  1  0.39113975  0.19174442  0.23689850  1
  Mo  Mo182  1  0.20149070  0.59987253  -0.01371321  1
  Mo  Mo183  1  0.60068133  0.19639983  0.25468313  1
  Mo  Mo184  1  0.49235518  0.09779290  0.13804392  1
  Mo  Mo185  1  0.80890726  0.59909685  0.74765720  1
  Mo  Mo186  1  0.38409536  0.00259819  0.50246022  1
  Mo  Mo187  1  0.70137294  0.89624955  0.61867414  1
  Mo  Mo188  1  0.30876545  0.70701859  0.62608308  1
  Mo  Mo189  1  0.18532323  0.19258769  0.23852310  1
  Mo  Mo190  1  -0.00009707  0.20016648  0.74165847  1
  Mo  Mo191  1  0.80885808  0.21038911  0.50544536  1
  Mo  Mo192  1  -0.00600174  0.80522039  0.01055150  1
  Mo  Mo193  1  0.50765254  0.89330168  0.86680090  1
  Mo  Mo194  1  0.20017035  0.60341645  0.49439807  1
  Mo  Mo195  1  0.10233460  0.90228359  0.38117983  1
  Mo  Mo196  1  0.11294642  0.30512669  0.87477506  1
  Mo  Mo197  1  0.00503625  0.80528076  0.73845159  1
  Mo  Mo198  1  0.91015654  0.48905087  0.37276032  1
  Mo  Mo199  1  0.28418254  0.09418711  0.13850697  1
