# generated using pymatgen
data_HfZrTaTiMo
_symmetry_space_group_name_H-M   'P 1'
_cell_length_a   15.22900574
_cell_length_b   15.21452380
_cell_length_c   16.85500672
_cell_angle_alpha   89.98138766
_cell_angle_beta   89.99969514
_cell_angle_gamma   90.01494496
_symmetry_Int_Tables_number   1
_chemical_formula_structural   HfZrTaTiMo
_chemical_formula_sum   'Hf40 Zr40 Ta40 Ti40 Mo40'
_cell_volume   3905.33961467
_cell_formula_units_Z   40
loop_
 _symmetry_equiv_pos_site_id
 _symmetry_equiv_pos_as_xyz
  1  'x, y, z'
loop_
 _atom_site_type_symbol
 _atom_site_label
 _atom_site_symmetry_multiplicity
 _atom_site_fract_x
 _atom_site_fract_y
 _atom_site_fract_z
 _atom_site_occupancy
  Hf  Hf0  1  0.71150318  0.49063007  0.62991415  1
  Hf  Hf1  1  0.79933976  0.42441522  -0.00217423  1
  Hf  Hf2  1  0.90053424  0.91676220  0.88020055  1
  Hf  Hf3  1  0.00216083  0.39331423  -0.02620790  1
  Hf  Hf4  1  0.81350381  0.58764833  0.50078313  1
  Hf  Hf5  1  0.79397865  0.00779961  0.25319273  1
  Hf  Hf6  1  0.10356670  0.10612321  0.87703950  1
  Hf  Hf7  1  0.50479731  0.89644711  0.88215048  1
  Hf  Hf8  1  0.39219168  0.19951908  0.00589688  1
  Hf  Hf9  1  0.30346207  0.90234388  0.87400892  1
  Hf  Hf10  1  0.39769548  -0.00332103  0.23613204  1
  Hf  Hf11  1  0.10974303  0.29311692  0.11538299  1
  Hf  Hf12  1  0.80372377  0.21059850  0.74274158  1
  Hf  Hf13  1  0.59588899  -0.00216257  0.25219389  1
  Hf  Hf14  1  0.08850754  0.89653737  0.12510902  1
  Hf  Hf15  1  0.90246456  0.12186520  0.37792064  1
  Hf  Hf16  1  0.59773044  0.59676892  0.74092331  1
  Hf  Hf17  1  0.61032597  0.77884531  0.00482202  1
  Hf  Hf18  1  0.49552820  0.48583719  0.62438145  1
  Hf  Hf19  1  0.39362785  0.20023064  0.74230214  1
  Hf  Hf20  1  0.19612133  0.00533629  -0.00126859  1
  Hf  Hf21  1  0.60417376  0.38722230  0.49215607  1
  Hf  Hf22  1  0.79102387  0.01766658  0.01018555  1
  Hf  Hf23  1  0.49922107  0.68456321  0.87520421  1
  Hf  Hf24  1  0.81058181  0.20406330  0.23581042  1
  Hf  Hf25  1  0.80919495  0.00768645  0.73819060  1
  Hf  Hf26  1  0.09505384  0.30758095  0.62727561  1
  Hf  Hf27  1  0.40337188  0.00318660  0.01128276  1
  Hf  Hf28  1  0.19140203  0.79096624  -0.01665940  1
  Hf  Hf29  1  0.49880250  0.10024368  0.86948150  1
  Hf  Hf30  1  0.09297935  0.10064738  0.62294394  1
  Hf  Hf31  1  0.81517912  0.79903788  0.50054685  1
  Hf  Hf32  1  0.49492385  0.70372069  0.37751917  1
  Hf  Hf33  1  0.69060390  0.51524408  0.13072807  1
  Hf  Hf34  1  0.18876399  0.59620338  0.75716409  1
  Hf  Hf35  1  0.20757021  0.80721380  0.49163431  1
  Hf  Hf36  1  0.59367296  0.59971791  0.51067179  1
  Hf  Hf37  1  0.71208013  0.69356946  0.86325319  1
  Hf  Hf38  1  0.69829829  0.89695522  0.12164495  1
  Hf  Hf39  1  0.28857048  0.48775618  0.62270549  1
  Zr  Zr40  1  0.89983651  0.90859808  0.12528578  1
  Zr  Zr41  1  0.19282567  0.80110318  0.25713380  1
  Zr  Zr42  1  0.40168278  0.40108115  0.00127536  1
  Zr  Zr43  1  0.08537690  0.69568551  0.37329913  1
  Zr  Zr44  1  0.18700998  0.59284728  0.24426481  1
  Zr  Zr45  1  0.82447953  0.01165665  0.50627144  1
  Zr  Zr46  1  0.69927197  0.30311915  0.87858663  1
  Zr  Zr47  1  0.49589310  0.49545029  0.37308814  1
  Zr  Zr48  1  -0.01236486  0.59433874  0.00829220  1
  Zr  Zr49  1  0.60320216  0.19244519  0.00520951  1
  Zr  Zr50  1  0.70075119  0.89789087  0.88090819  1
  Zr  Zr51  1  0.68827389  0.89867553  0.39227061  1
  Zr  Zr52  1  0.31099005  0.29909596  0.37349955  1
  Zr  Zr53  1  0.69194822  0.11472890  0.61162947  1
  Zr  Zr54  1  0.31740011  0.49101258  0.86991662  1
  Zr  Zr55  1  0.29741052  0.69175369  0.11679469  1
  Zr  Zr56  1  0.68884125  0.90978382  0.61036891  1
  Zr  Zr57  1  0.68877345  0.10641121  0.39668262  1
  Zr  Zr58  1  0.20020136  0.00387016  0.26147419  1
  Zr  Zr59  1  -0.01029866  0.79830926  -0.01207329  1
  Zr  Zr60  1  0.41252914  0.18551807  0.49482597  1
  Zr  Zr61  1  0.80691580  0.41299334  0.24396855  1
  Zr  Zr62  1  0.72090846  0.30081562  0.37695064  1
  Zr  Zr63  1  0.11785878  0.90403415  0.63424838  1
  Zr  Zr64  1  0.91199387  0.68638148  0.63670975  1
  Zr  Zr65  1  0.40694786  0.19324535  0.24997996  1
  Zr  Zr66  1  0.29734896  0.50626690  0.38245868  1
  Zr  Zr67  1  0.69553341  0.69932975  0.38552343  1
  Zr  Zr68  1  0.20186193  0.39823961  0.25659762  1
  Zr  Zr69  1  0.00426762  0.01249105  0.26227347  1
  Zr  Zr70  1  0.20259334  0.00263167  0.48372729  1
  Zr  Zr71  1  0.70072412  0.09979186  0.86942811  1
  Zr  Zr72  1  0.91370205  0.31363080  0.11969771  1
  Zr  Zr73  1  0.70036065  0.70441549  0.62157414  1
  Zr  Zr74  1  0.29263745  0.89597640  0.11866977  1
  Zr  Zr75  1  0.92078279  0.90441534  0.62726801  1
  Zr  Zr76  1  0.08616324  0.50503129  0.62013611  1
  Zr  Zr77  1  0.39834736  0.59996496  0.24297295  1
  Zr  Zr78  1  0.00775511  0.80015076  0.76888461  1
  Zr  Zr79  1  0.39475772  0.59823019  0.74014707  1
  Ta  Ta80  1  0.50302002  0.30213393  0.13210936  1
  Ta  Ta81  1  0.59621653  0.78980104  0.24672307  1
  Ta  Ta82  1  0.19286936  0.39223793  0.49357334  1
  Ta  Ta83  1  0.40371636  0.78822761  0.00131349  1
  Ta  Ta84  1  0.88811772  0.71094695  0.13325474  1
  Ta  Ta85  1  0.19612466  0.58412677  -0.00703542  1
  Ta  Ta86  1  0.49173152  0.30630845  0.86348268  1
  Ta  Ta87  1  0.01032053  0.40110900  0.24942090  1
  Ta  Ta88  1  0.29485927  0.08872430  0.62593902  1
  Ta  Ta89  1  0.08463305  0.49353199  0.38742916  1
  Ta  Ta90  1  0.49833543  0.08831661  0.62712139  1
  Ta  Ta91  1  -0.01285603  0.59048377  0.23689453  1
  Ta  Ta92  1  0.40172363  0.39014904  0.50346642  1
  Ta  Ta93  1  0.10490186  0.70500389  0.62618242  1
  Ta  Ta94  1  0.19308446  0.60562261  0.50151865  1
  Ta  Ta95  1  0.90451773  0.11931685  0.88427959  1
  Ta  Ta96  1  0.18686089  0.19492112  0.26158220  1
  Ta  Ta97  1  0.69475627  0.30648667  0.12098845  1
  Ta  Ta98  1  0.59585898  0.39344448  0.25728932  1
  Ta  Ta99  1  0.59970209  0.38660387  0.74877230  1
  Ta  Ta100  1  0.10047241  0.10351601  0.11794010  1
  Ta  Ta101  1  0.48353363  0.90044639  0.37409878  1
  Ta  Ta102  1  0.79364933  0.61293724  0.24967234  1
  Ta  Ta103  1  0.30030497  0.29569642  0.13144187  1
  Ta  Ta104  1  0.30405898  0.70573465  0.37772856  1
  Ta  Ta105  1  0.60909215  0.19682167  0.24728909  1
  Ta  Ta106  1  0.50926404  0.28637446  0.62864609  1
  Ta  Ta107  1  0.20626480  0.79684442  0.76535234  1
  Ta  Ta108  1  0.39950412  -0.02150391  0.50641926  1
  Ta  Ta109  1  0.59761539  -0.00027383  0.74500641  1
  Ta  Ta110  1  0.49883612  0.49229556  0.13464870  1
  Ta  Ta111  1  0.59223858  0.80309351  0.74166531  1
  Ta  Ta112  1  0.81068180  0.21674777  0.00619781  1
  Ta  Ta113  1  0.50265992  0.88664990  0.11739130  1
  Ta  Ta114  1  0.90186718  0.50498982  0.37346371  1
  Ta  Ta115  1  0.89488282  0.52344243  0.86216569  1
  Ta  Ta116  1  0.39281849  0.60941275  0.51244659  1
  Ta  Ta117  1  0.79920101  0.80366954  0.74557469  1
  Ta  Ta118  1  0.20194973  0.38732929  0.75896043  1
  Ta  Ta119  1  -0.01162541  0.21484691  0.50903181  1
  Ti  Ti120  1  0.29931559  0.29243121  0.61850815  1
  Ti  Ti121  1  0.39944174  0.80039606  0.24337087  1
  Ti  Ti122  1  0.40365334  0.79368381  0.75013370  1
  Ti  Ti123  1  0.51681140  0.09472286  0.12227898  1
  Ti  Ti124  1  0.20134190  0.38965809  -0.01536264  1
  Ti  Ti125  1  0.29506700  0.48826257  0.11933864  1
  Ti  Ti126  1  0.01244941  0.00158648  0.48528343  1
  Ti  Ti127  1  0.79513333  0.80657484  0.25882359  1
  Ti  Ti128  1  0.09461394  0.49007368  0.11603091  1
  Ti  Ti129  1  0.19712887  0.19882066  0.49278321  1
  Ti  Ti130  1  0.91316732  0.89174647  0.36968871  1
  Ti  Ti131  1  0.31309665  0.08853551  0.37557546  1
  Ti  Ti132  1  -0.00493284  0.21345331  0.75307571  1
  Ti  Ti133  1  0.92403094  0.31271793  0.37136344  1
  Ti  Ti134  1  0.56282704  0.81172684  0.51651224  1
  Ti  Ti135  1  0.91671239  0.10997555  0.11618558  1
  Ti  Ti136  1  0.51365916  0.68584944  0.12724841  1
  Ti  Ti137  1  0.89967523  0.69879671  0.36615556  1
  Ti  Ti138  1  0.09037858  0.69722938  0.12436594  1
  Ti  Ti139  1  0.70516171  0.30162766  0.61985301  1
  Ti  Ti140  1  0.00871274  0.79941511  0.49846309  1
  Ti  Ti141  1  0.40543649  0.59378083  0.00604686  1
  Ti  Ti142  1  0.29943610  0.09867427  0.86849509  1
  Ti  Ti143  1  0.59814975  0.58424842  -0.00570393  1
  Ti  Ti144  1  0.80795568  0.40165442  0.75890193  1
  Ti  Ti145  1  0.30336089  0.69275682  0.88016103  1
  Ti  Ti146  1  0.29313894  0.28654790  0.87165297  1
  Ti  Ti147  1  0.30588975  0.89446507  0.63675167  1
  Ti  Ti148  1  0.00568720  0.40391652  0.77065149  1
  Ti  Ti149  1  0.79328033  0.62567130  0.00663368  1
  Ti  Ti150  1  0.39876506  -0.00686276  0.74635217  1
  Ti  Ti151  1  0.08519206  0.67905051  0.87598007  1
  Ti  Ti152  1  0.82264368  0.38758451  0.50433046  1
  Ti  Ti153  1  0.19561006  0.19337274  0.74445851  1
  Ti  Ti154  1  0.59370866  0.40040887  -0.00356110  1
  Ti  Ti155  1  0.70208008  0.50512931  0.37011152  1
  Ti  Ti156  1  0.90484030  0.48918287  0.63942389  1
  Ti  Ti157  1  0.00888172  0.01276919  0.75626898  1
  Ti  Ti158  1  0.69327863  0.50176487  0.86625206  1
  Ti  Ti159  1  0.29444696  0.70556436  0.62635963  1
  Mo  Mo160  1  -0.00723699  0.40919202  0.50121338  1
  Mo  Mo161  1  0.39113439  0.79619930  0.50679063  1
  Mo  Mo162  1  0.60214354  0.59859086  0.25504665  1
  Mo  Mo163  1  0.28266337  0.11536042  0.12783479  1
  Mo  Mo164  1  0.10580678  0.29482654  0.86435204  1
  Mo  Mo165  1  0.80761473  0.21486019  0.51097010  1
  Mo  Mo166  1  0.59311767  -0.00534340  0.00979711  1
  Mo  Mo167  1  0.69781321  0.70577099  0.13439619  1
  Mo  Mo168  1  0.39554331  0.38532218  0.74074747  1
  Mo  Mo169  1  -0.00163558  0.01164861  -0.00114273  1
  Mo  Mo170  1  0.59499679  0.20668949  0.49871913  1
  Mo  Mo171  1  0.51248834  0.29201761  0.36699976  1
  Mo  Mo172  1  0.00323086  0.19732097  -0.00531827  1
  Mo  Mo173  1  0.30853790  0.89329367  0.36880592  1
  Mo  Mo174  1  0.49061920  0.89985043  0.63734359  1
  Mo  Mo175  1  0.10598067  0.90577997  0.86675735  1
  Mo  Mo176  1  0.89030940  0.70587662  0.86779293  1
  Mo  Mo177  1  -0.00219290  0.60965401  0.49654372  1
  Mo  Mo178  1  0.09016379  0.89963355  0.37613967  1
  Mo  Mo179  1  0.49944630  0.09133294  0.37491719  1
  Mo  Mo180  1  0.80048786  0.59486794  0.74543146  1
  Mo  Mo181  1  -0.01439995  0.79064912  0.24785328  1
  Mo  Mo182  1  0.51426313  0.48795025  0.86854082  1
  Mo  Mo183  1  0.89735111  0.30605730  0.87342815  1
  Mo  Mo184  1  0.90203158  0.31539390  0.63565193  1
  Mo  Mo185  1  -0.00002928  0.59511490  0.75542927  1
  Mo  Mo186  1  0.48851228  0.70262883  0.62743392  1
  Mo  Mo187  1  0.70582725  0.10825844  0.12862133  1
  Mo  Mo188  1  0.20671583  0.20483834  -0.00351481  1
  Mo  Mo189  1  0.09793828  0.11734165  0.38826440  1
  Mo  Mo190  1  0.80246187  0.79776363  0.00051326  1
  Mo  Mo191  1  0.00908737  0.20880570  0.25021917  1
  Mo  Mo192  1  0.10615482  0.49640422  0.87461814  1
  Mo  Mo193  1  0.59553181  0.19877687  0.74771002  1
  Mo  Mo194  1  0.20876435  0.00388690  0.75263824  1
  Mo  Mo195  1  0.40260261  0.39601383  0.23944540  1
  Mo  Mo196  1  0.57264309  0.00675107  0.49675565  1
  Mo  Mo197  1  0.91478796  0.11453204  0.62857056  1
  Mo  Mo198  1  0.89978540  0.51061924  0.12380896  1
  Mo  Mo199  1  0.09658749  0.29862455  0.38378040  1
