# generated using pymatgen
data_HfZrTaTiMo
_symmetry_space_group_name_H-M   'P 1'
_cell_length_a   15.20427289
_cell_length_b   15.21523370
_cell_length_c   16.84949639
_cell_angle_alpha   90.02890766
_cell_angle_beta   90.08349847
_cell_angle_gamma   90.00013224
_symmetry_Int_Tables_number   1
_chemical_formula_structural   HfZrTaTiMo
_chemical_formula_sum   'Hf40 Zr40 Ta40 Ti40 Mo40'
_cell_volume   3897.89998641
_cell_formula_units_Z   40
loop_
 _symmetry_equiv_pos_site_id
 _symmetry_equiv_pos_as_xyz
  1  'x, y, z'
loop_
 _atom_site_type_symbol
 _atom_site_label
 _atom_site_symmetry_multiplicity
 _atom_site_fract_x
 _atom_site_fract_y
 _atom_site_fract_z
 _atom_site_occupancy
  Hf  Hf0  1  0.59731771  0.00260145  0.01518719  1
  Hf  Hf1  1  0.89919128  0.50157127  0.85322483  1
  Hf  Hf2  1  0.00038367  0.00639909  0.23982844  1
  Hf  Hf3  1  0.09268197  0.69139591  0.36891891  1
  Hf  Hf4  1  0.39329461  -0.00529376  0.01883283  1
  Hf  Hf5  1  0.82543664  0.41433049  0.25564817  1
  Hf  Hf6  1  0.90051612  0.90188523  0.86881516  1
  Hf  Hf7  1  0.39874529  0.57988173  0.26531245  1
  Hf  Hf8  1  0.91408805  0.31090513  0.12068957  1
  Hf  Hf9  1  0.20291145  0.40918797  0.00030062  1
  Hf  Hf10  1  0.79618038  0.80069559  0.00829522  1
  Hf  Hf11  1  0.20111695  0.57828386  0.49358257  1
  Hf  Hf12  1  0.30859256  0.28543217  0.10820572  1
  Hf  Hf13  1  0.50755318  0.68828118  0.39090135  1
  Hf  Hf14  1  0.00242591  0.19383416  0.49612105  1
  Hf  Hf15  1  0.50178559  0.28512644  0.88860234  1
  Hf  Hf16  1  0.50949260  0.28198486  0.11248407  1
  Hf  Hf17  1  0.40609637  0.77778596  0.00086948  1
  Hf  Hf18  1  0.92272873  0.90786600  0.63707706  1
  Hf  Hf19  1  0.89382782  0.69039838  0.37491518  1
  Hf  Hf20  1  0.11614347  0.29709569  0.63552530  1
  Hf  Hf21  1  0.09071273  0.50067186  0.63899302  1
  Hf  Hf22  1  0.39136068  -0.00656918  0.49012928  1
  Hf  Hf23  1  0.70264677  0.70320621  0.37871071  1
  Hf  Hf24  1  0.20342212  0.60630184  0.75569591  1
  Hf  Hf25  1  0.70018407  0.51568709  0.86667304  1
  Hf  Hf26  1  0.58827829  0.61504936  -0.00438693  1
  Hf  Hf27  1  0.10466767  0.88917481  0.12758473  1
  Hf  Hf28  1  0.59826056  0.40350497  0.24475909  1
  Hf  Hf29  1  0.89912093  0.69858498  0.86541126  1
  Hf  Hf30  1  0.79730719  0.00701188  0.74159787  1
  Hf  Hf31  1  0.19528757  0.60448582  0.00829926  1
  Hf  Hf32  1  0.39389578  -0.00863787  0.74921880  1
  Hf  Hf33  1  0.20789522  0.19989876  0.76505305  1
  Hf  Hf34  1  0.60010777  0.41048430  -0.00025687  1
  Hf  Hf35  1  -0.00407697  0.81351686  0.49296902  1
  Hf  Hf36  1  0.29174085  0.10530880  0.62699211  1
  Hf  Hf37  1  0.10739311  0.70499921  0.61445647  1
  Hf  Hf38  1  0.71032909  0.30652087  0.12464530  1
  Hf  Hf39  1  0.09450811  0.11600433  0.11726056  1
  Zr  Zr40  1  0.71000629  0.90388834  0.37788392  1
  Zr  Zr41  1  0.59689053  0.21554835  0.50418267  1
  Zr  Zr42  1  0.69904016  0.11754002  0.37778235  1
  Zr  Zr43  1  0.20541586  0.80244367  0.48111327  1
  Zr  Zr44  1  0.51190952  0.49777623  0.60663075  1
  Zr  Zr45  1  0.59321591  0.81054267  0.73635267  1
  Zr  Zr46  1  0.70097336  0.51332969  0.12501589  1
  Zr  Zr47  1  0.50557675  0.30452093  0.37022578  1
  Zr  Zr48  1  0.49537572  0.69526771  0.60447629  1
  Zr  Zr49  1  0.20955948  0.40614410  0.23389853  1
  Zr  Zr50  1  0.70236259  0.50736824  0.37746241  1
  Zr  Zr51  1  0.41210367  0.58776710  0.76466030  1
  Zr  Zr52  1  0.00116727  0.40823557  -0.00865919  1
  Zr  Zr53  1  0.29941787  0.48311258  0.63089809  1
  Zr  Zr54  1  0.10869533  0.89126869  0.88878485  1
  Zr  Zr55  1  0.90362634  0.09547131  0.37566395  1
  Zr  Zr56  1  0.28755087  0.09581005  0.36596777  1
  Zr  Zr57  1  0.50751052  0.87346463  0.12726599  1
  Zr  Zr58  1  0.50079012  0.88886270  0.88264348  1
  Zr  Zr59  1  0.81359388  -0.00371487  0.50602432  1
  Zr  Zr60  1  0.79610987  0.00557711  0.01287227  1
  Zr  Zr61  1  0.68960604  0.11030907  0.86818989  1
  Zr  Zr62  1  0.59119003  0.00165694  0.24755907  1
  Zr  Zr63  1  0.70684236  0.11595038  0.61715158  1
  Zr  Zr64  1  0.58532799  0.40844217  0.75303826  1
  Zr  Zr65  1  0.69789931  0.90848568  0.86972216  1
  Zr  Zr66  1  0.50318373  0.09566222  0.62718527  1
  Zr  Zr67  1  0.80265218  0.20732912  -0.00107681  1
  Zr  Zr68  1  0.70576584  0.31031692  0.86936228  1
  Zr  Zr69  1  -0.00174611  0.00355934  0.00556072  1
  Zr  Zr70  1  0.38942451  0.20499550  0.49685225  1
  Zr  Zr71  1  0.79915381  0.00407417  0.23782805  1
  Zr  Zr72  1  0.80922847  0.42359726  0.51076235  1
  Zr  Zr73  1  0.19825872  0.20318958  0.24614453  1
  Zr  Zr74  1  0.90196458  0.67721122  0.63658900  1
  Zr  Zr75  1  0.39268722  0.78742386  0.74833301  1
  Zr  Zr76  1  0.08985762  0.48753000  0.36076451  1
  Zr  Zr77  1  0.08506628  0.08668138  0.63508739  1
  Zr  Zr78  1  0.17919012  0.00036784  0.49728797  1
  Zr  Zr79  1  0.02104000  0.79606219  0.75328387  1
  Ta  Ta80  1  0.69482434  0.71313741  0.87214695  1
  Ta  Ta81  1  0.79174941  0.79688952  0.73395301  1
  Ta  Ta82  1  0.09143172  0.91504800  0.36089224  1
  Ta  Ta83  1  0.68653518  0.71578506  0.12906836  1
  Ta  Ta84  1  -0.00384109  0.60140367  -0.00190730  1
  Ta  Ta85  1  0.90240363  0.29927054  0.62822783  1
  Ta  Ta86  1  0.39835188  0.80404122  0.48004298  1
  Ta  Ta87  1  0.60141672  0.81129164  0.50252611  1
  Ta  Ta88  1  0.40203169  0.20014514  0.75447085  1
  Ta  Ta89  1  0.69672918  0.32257996  0.62577673  1
  Ta  Ta90  1  0.19852154  0.19171278  -0.00902800  1
  Ta  Ta91  1  0.19174546  -0.01244186  0.75163250  1
  Ta  Ta92  1  0.40946490  0.18901190  0.24474894  1
  Ta  Ta93  1  0.80149186  0.60686302  0.00147034  1
  Ta  Ta94  1  0.39058662  0.40316992  0.49274983  1
  Ta  Ta95  1  -0.00230066  0.19489076  0.75730874  1
  Ta  Ta96  1  -0.00636564  0.21300597  0.25584911  1
  Ta  Ta97  1  0.90070760  0.10445465  0.87216964  1
  Ta  Ta98  1  0.40215116  0.79281932  0.26833689  1
  Ta  Ta99  1  0.20751066  -0.00060305  0.01407922  1
  Ta  Ta100  1  0.39268577  -0.01095672  0.24063883  1
  Ta  Ta101  1  0.20916241  0.79897696  0.01073758  1
  Ta  Ta102  1  0.68114925  0.11942540  0.13180232  1
  Ta  Ta103  1  0.29108109  0.70032445  0.88186994  1
  Ta  Ta104  1  0.79655316  0.79260813  0.51955892  1
  Ta  Ta105  1  -0.01275961  0.58282139  0.50126298  1
  Ta  Ta106  1  0.49663386  0.09159659  0.87245017  1
  Ta  Ta107  1  0.19530484  0.20489604  0.49285842  1
  Ta  Ta108  1  0.00875616  0.39530915  0.50731509  1
  Ta  Ta109  1  0.90278851  0.30083960  0.86838433  1
  Ta  Ta110  1  0.38280901  0.38721850  0.76796952  1
  Ta  Ta111  1  0.49660182  0.09679240  0.36908279  1
  Ta  Ta112  1  0.09954091  0.29812442  0.87567153  1
  Ta  Ta113  1  0.79910702  0.80170602  0.24084771  1
  Ta  Ta114  1  -0.00621894  0.79766939  0.25393063  1
  Ta  Ta115  1  0.90409447  0.88913727  0.12479643  1
  Ta  Ta116  1  0.20525994  0.80082299  0.25996878  1
  Ta  Ta117  1  0.59639605  0.60220412  0.24916345  1
  Ta  Ta118  1  0.49024708  0.90116223  0.61426216  1
  Ta  Ta119  1  0.49054646  0.67595760  0.13487808  1
  Ti  Ti120  1  0.10100388  0.30459540  0.11639143  1
  Ti  Ti121  1  0.50627172  0.49820836  0.39603164  1
  Ti  Ti122  1  0.48249411  0.30649918  0.62635062  1
  Ti  Ti123  1  0.29163787  0.89038640  0.62024142  1
  Ti  Ti124  1  0.89942943  0.10905142  0.62342039  1
  Ti  Ti125  1  0.90494502  0.31148362  0.38284252  1
  Ti  Ti126  1  0.10312128  0.50711522  0.86581254  1
  Ti  Ti127  1  0.09850682  0.09356520  0.87860018  1
  Ti  Ti128  1  0.30059537  0.70468148  0.13704844  1
  Ti  Ti129  1  0.70888608  0.30922438  0.38428664  1
  Ti  Ti130  1  0.40285036  0.39170308  0.24112291  1
  Ti  Ti131  1  0.29942815  0.89908723  0.88085131  1
  Ti  Ti132  1  0.80203431  0.60712214  0.24147846  1
  Ti  Ti133  1  0.00545909  0.78578388  0.00285265  1
  Ti  Ti134  1  0.20941346  0.80096673  0.75008707  1
  Ti  Ti135  1  0.80718506  0.41665884  -0.00134579  1
  Ti  Ti136  1  0.20261984  0.38630312  0.49559343  1
  Ti  Ti137  1  0.30121060  0.29466518  0.89099428  1
  Ti  Ti138  1  0.07797203  0.50348839  0.13627911  1
  Ti  Ti139  1  0.30227528  0.09171724  0.87983033  1
  Ti  Ti140  1  0.59744901  0.79787123  0.25986535  1
  Ti  Ti141  1  0.20433336  -0.00154850  0.23612099  1
  Ti  Ti142  1  0.68914623  0.91174500  0.62218387  1
  Ti  Ti143  1  0.29985434  0.30682192  0.36609101  1
  Ti  Ti144  1  0.80194959  0.21353932  0.74681089  1
  Ti  Ti145  1  0.59186989  -0.00013405  0.49004264  1
  Ti  Ti146  1  0.09446814  0.69625199  0.13739985  1
  Ti  Ti147  1  0.60551497  0.61387627  0.74509780  1
  Ti  Ti148  1  0.30395774  0.69320194  0.60854858  1
  Ti  Ti149  1  0.19991695  0.59986082  0.24551425  1
  Ti  Ti150  1  0.29857080  0.68318714  0.37576526  1
  Ti  Ti151  1  0.40362020  0.40586467  -0.00670535  1
  Ti  Ti152  1  0.31913873  0.50976189  0.12046276  1
  Ti  Ti153  1  0.39832155  0.58667182  -0.01654460  1
  Ti  Ti154  1  0.79694974  0.21153031  0.25218793  1
  Ti  Ti155  1  0.89526071  0.11681349  0.12640755  1
  Ti  Ti156  1  0.90366483  0.69206062  0.12785370  1
  Ti  Ti157  1  0.10044109  0.29413429  0.37153457  1
  Ti  Ti158  1  0.59572530  0.20343309  0.74111581  1
  Ti  Ti159  1  0.00357176  0.39203345  0.75222533  1
  Mo  Mo160  1  0.59853717  0.19243757  -0.00113038  1
  Mo  Mo161  1  0.29462749  0.49360589  0.88094098  1
  Mo  Mo162  1  0.00284978  0.00611299  0.76406019  1
  Mo  Mo163  1  0.49081693  0.49535876  0.12414608  1
  Mo  Mo164  1  0.80517705  0.60632459  0.50665008  1
  Mo  Mo165  1  0.00071649  -0.00425966  0.49403806  1
  Mo  Mo166  1  0.70333593  0.90028408  0.13242408  1
  Mo  Mo167  1  0.90729972  0.50120788  0.37789029  1
  Mo  Mo168  1  -0.01201747  0.59485394  0.24214044  1
  Mo  Mo169  1  0.00900609  0.59651339  0.75789920  1
  Mo  Mo170  1  0.00359033  0.20335421  -0.01535037  1
  Mo  Mo171  1  0.00684524  0.39133324  0.24746892  1
  Mo  Mo172  1  0.29724547  0.89814839  0.36037534  1
  Mo  Mo173  1  0.90257778  0.48912602  0.64560244  1
  Mo  Mo174  1  0.90011751  0.88634053  0.36867864  1
  Mo  Mo175  1  0.60314494  0.40264195  0.50451494  1
  Mo  Mo176  1  0.39527228  0.18263097  -0.00837492  1
  Mo  Mo177  1  0.80056839  0.40037366  0.73783736  1
  Mo  Mo178  1  0.10437826  0.69592722  0.88544756  1
  Mo  Mo179  1  0.30316871  0.29958877  0.62908235  1
  Mo  Mo180  1  0.29747954  0.09594160  0.12785861  1
  Mo  Mo181  1  0.50563425  0.69204763  0.87136263  1
  Mo  Mo182  1  0.79001988  0.60749275  0.75052159  1
  Mo  Mo183  1  0.71079542  0.51671631  0.63808504  1
  Mo  Mo184  1  0.90103757  0.51079868  0.11985240  1
  Mo  Mo185  1  0.20115714  0.39671397  0.77020474  1
  Mo  Mo186  1  0.09539027  0.10595085  0.36505096  1
  Mo  Mo187  1  0.49911756  0.49407303  0.87487966  1
  Mo  Mo188  1  0.11158987  0.89554598  0.62970116  1
  Mo  Mo189  1  0.81050435  0.22198904  0.50522946  1
  Mo  Mo190  1  0.58845582  0.01048994  0.74324599  1
  Mo  Mo191  1  0.60508303  0.20482586  0.25685051  1
  Mo  Mo192  1  0.62636405  0.60405411  0.50720380  1
  Mo  Mo193  1  0.69547468  0.70509702  0.62051026  1
  Mo  Mo194  1  0.60339382  0.79485305  0.00244932  1
  Mo  Mo195  1  0.50027100  0.89836861  0.37441885  1
  Mo  Mo196  1  0.49148639  0.10004319  0.13167800  1
  Mo  Mo197  1  0.39002557  0.59573053  0.48660745  1
  Mo  Mo198  1  0.30274532  0.48657401  0.37218630  1
  Mo  Mo199  1  0.29972978  0.88447136  0.13713468  1
