# generated using pymatgen
data_HfZrTaTiMo
_symmetry_space_group_name_H-M   'P 1'
_cell_length_a   15.21523683
_cell_length_b   15.20106088
_cell_length_c   16.81878210
_cell_angle_alpha   90.05007463
_cell_angle_beta   90.04125492
_cell_angle_gamma   89.96229798
_symmetry_Int_Tables_number   1
_chemical_formula_structural   HfZrTaTiMo
_chemical_formula_sum   'Hf40 Zr40 Ta40 Ti40 Mo40'
_cell_volume   3889.97478879
_cell_formula_units_Z   40
loop_
 _symmetry_equiv_pos_site_id
 _symmetry_equiv_pos_as_xyz
  1  'x, y, z'
loop_
 _atom_site_type_symbol
 _atom_site_label
 _atom_site_symmetry_multiplicity
 _atom_site_fract_x
 _atom_site_fract_y
 _atom_site_fract_z
 _atom_site_occupancy
  Hf  Hf0  1  0.40479676  0.78498066  0.00266228  1
  Hf  Hf1  1  0.11140469  0.91005610  0.60841319  1
  Hf  Hf2  1  0.68919687  0.30884054  0.87941318  1
  Hf  Hf3  1  0.40389186  0.59250975  0.74256627  1
  Hf  Hf4  1  0.69903945  0.90591846  0.12140653  1
  Hf  Hf5  1  -0.00343407  0.18856139  -0.01576444  1
  Hf  Hf6  1  0.29774933  0.69570857  0.86745990  1
  Hf  Hf7  1  0.28738081  0.50400109  0.13384511  1
  Hf  Hf8  1  0.69777475  0.70199947  0.12841507  1
  Hf  Hf9  1  0.68259826  0.50489930  0.88536385  1
  Hf  Hf10  1  0.11326180  0.89094779  0.89044452  1
  Hf  Hf11  1  0.10757611  0.51413880  0.85719211  1
  Hf  Hf12  1  0.80545983  0.21133543  -0.00116951  1
  Hf  Hf13  1  0.39760993  0.59954307  0.50857496  1
  Hf  Hf14  1  0.29457231  0.69893583  0.12243827  1
  Hf  Hf15  1  0.00909697  0.78218777  0.25732141  1
  Hf  Hf16  1  0.59290736  0.19566005  0.50035167  1
  Hf  Hf17  1  0.90400072  0.10803446  0.37320360  1
  Hf  Hf18  1  0.48900645  0.11008662  0.87844685  1
  Hf  Hf19  1  0.49992903  0.49755138  0.37098517  1
  Hf  Hf20  1  0.08279359  0.50002246  0.13262829  1
  Hf  Hf21  1  0.48629059  0.10383002  0.63395625  1
  Hf  Hf22  1  0.00730567  -0.00262548  0.24802661  1
  Hf  Hf23  1  0.70465966  0.30708954  0.13254228  1
  Hf  Hf24  1  0.40390581  0.00904853  0.24155750  1
  Hf  Hf25  1  0.40662283  0.21222861  0.01596300  1
  Hf  Hf26  1  0.79265760  0.39447811  0.50851499  1
  Hf  Hf27  1  0.79690445  0.79931813  0.49189584  1
  Hf  Hf28  1  0.18513562  0.60902339  0.26813270  1
  Hf  Hf29  1  0.28368048  0.10960811  0.61806877  1
  Hf  Hf30  1  0.59860289  -0.00585562  0.50377885  1
  Hf  Hf31  1  0.90050353  0.49606135  0.87614445  1
  Hf  Hf32  1  0.59599912  -0.00151774  0.75065992  1
  Hf  Hf33  1  0.19707264  0.39555116  0.50065929  1
  Hf  Hf34  1  0.60740411  0.59952684  0.74246624  1
  Hf  Hf35  1  0.78769530  0.40009741  0.74216610  1
  Hf  Hf36  1  -0.00294817  0.39224189  -0.00679256  1
  Hf  Hf37  1  0.12082994  0.11442398  0.39304222  1
  Hf  Hf38  1  0.19998409  0.40869162  -0.00020386  1
  Hf  Hf39  1  0.91286496  0.90077214  0.88442689  1
  Zr  Zr40  1  0.20154918  0.20827803  0.00323509  1
  Zr  Zr41  1  0.80449900  0.60357923  0.75728678  1
  Zr  Zr42  1  0.09409002  0.08904558  0.11378778  1
  Zr  Zr43  1  0.09950108  0.90716340  0.38343402  1
  Zr  Zr44  1  0.69772010  0.88910543  0.63920594  1
  Zr  Zr45  1  0.20620819  0.81741961  0.74869682  1
  Zr  Zr46  1  0.69287926  0.09670900  0.36877495  1
  Zr  Zr47  1  0.91644021  0.89102832  0.11679092  1
  Zr  Zr48  1  0.59741807  0.20950169  0.75072311  1
  Zr  Zr49  1  0.89757360  0.90295340  0.62494301  1
  Zr  Zr50  1  0.60370497  0.79772321  0.49950548  1
  Zr  Zr51  1  -0.00128615  0.18496496  0.76093010  1
  Zr  Zr52  1  0.29916019  0.49358638  0.36607652  1
  Zr  Zr53  1  0.80557854  0.59056415  0.24386837  1
  Zr  Zr54  1  0.69543268  0.10054379  0.88494183  1
  Zr  Zr55  1  0.49865754  0.29302583  0.36950841  1
  Zr  Zr56  1  0.57716220  0.60660482  0.00912245  1
  Zr  Zr57  1  0.30408374  0.91487900  0.37644354  1
  Zr  Zr58  1  0.89293620  0.90030718  0.37380367  1
  Zr  Zr59  1  0.80225433  0.78769903  -0.00835797  1
  Zr  Zr60  1  0.49804576  0.69433175  0.37049229  1
  Zr  Zr61  1  0.80737197  0.59777000  0.00160891  1
  Zr  Zr62  1  0.10134300  0.69842104  0.62787041  1
  Zr  Zr63  1  0.20724239  0.19228292  0.23689894  1
  Zr  Zr64  1  0.41037214  0.80755449  0.49823965  1
  Zr  Zr65  1  0.89965620  0.51038728  0.61101063  1
  Zr  Zr66  1  0.01404645  -0.00786819  0.74735536  1
  Zr  Zr67  1  -0.01041518  0.39556197  0.74242066  1
  Zr  Zr68  1  0.01277270  0.21305533  0.25147930  1
  Zr  Zr69  1  0.81188278  0.00878278  0.00148708  1
  Zr  Zr70  1  0.59226126  0.40031740  0.50846777  1
  Zr  Zr71  1  0.29494778  0.28385806  0.37222221  1
  Zr  Zr72  1  0.68996407  0.89563457  0.87643894  1
  Zr  Zr73  1  0.11474078  0.30534279  0.85584174  1
  Zr  Zr74  1  0.51467894  0.90986110  0.36419349  1
  Zr  Zr75  1  0.89419144  0.49695437  0.38707876  1
  Zr  Zr76  1  0.21130197  0.78813281  0.48861056  1
  Zr  Zr77  1  0.37174996  0.00851286  0.76190075  1
  Zr  Zr78  1  0.71711117  0.09911381  0.62631514  1
  Zr  Zr79  1  0.70326583  0.69456715  0.36731860  1
  Ta  Ta80  1  0.69831383  0.10386654  0.12458451  1
  Ta  Ta81  1  0.60665226  0.59445520  0.51585817  1
  Ta  Ta82  1  0.79990850  0.00202728  0.24244949  1
  Ta  Ta83  1  0.00047326  0.79298827  0.49505903  1
  Ta  Ta84  1  0.30601874  0.70713116  0.63474822  1
  Ta  Ta85  1  0.11219665  0.29480239  0.63716094  1
  Ta  Ta86  1  0.91125494  0.30561446  0.13293252  1
  Ta  Ta87  1  0.58613718  0.41067024  0.73699522  1
  Ta  Ta88  1  0.19606988  0.59544639  0.49379573  1
  Ta  Ta89  1  0.89915025  0.70515881  0.61779198  1
  Ta  Ta90  1  0.29958395  0.49092212  0.86822130  1
  Ta  Ta91  1  0.48545149  0.30086426  0.62677560  1
  Ta  Ta92  1  0.80248642  0.79250243  0.76429730  1
  Ta  Ta93  1  0.30685030  0.09225640  0.11315045  1
  Ta  Ta94  1  0.50796867  0.70568401  0.86303245  1
  Ta  Ta95  1  0.50528570  0.70854004  0.63523638  1
  Ta  Ta96  1  0.80828583  0.20181854  0.76132694  1
  Ta  Ta97  1  0.59219437  0.59652471  0.23784702  1
  Ta  Ta98  1  0.09122902  0.11241566  0.61091356  1
  Ta  Ta99  1  0.20549369  -0.00538195  0.24013484  1
  Ta  Ta100  1  0.80454045  0.80138609  0.24918317  1
  Ta  Ta101  1  0.81226688  0.00690468  0.76199237  1
  Ta  Ta102  1  0.69409618  0.49722106  0.37273112  1
  Ta  Ta103  1  0.69775277  0.29611176  0.62823261  1
  Ta  Ta104  1  0.01558304  0.76659051  -0.00703110  1
  Ta  Ta105  1  0.18556182  0.61346306  -0.00638590  1
  Ta  Ta106  1  0.20657706  0.80093992  0.25945297  1
  Ta  Ta107  1  0.40278373  0.02333016  0.49268546  1
  Ta  Ta108  1  0.30622151  0.91068889  0.61524483  1
  Ta  Ta109  1  0.80200000  0.20239042  0.24752837  1
  Ta  Ta110  1  0.11554511  0.87986959  0.11398754  1
  Ta  Ta111  1  0.40948179  0.19922577  0.22811093  1
  Ta  Ta112  1  0.70809956  0.30456736  0.36394432  1
  Ta  Ta113  1  0.48606043  0.50344828  0.12758051  1
  Ta  Ta114  1  0.39765657  0.40688245  0.00413037  1
  Ta  Ta115  1  -0.00975461  0.01299863  0.50324565  1
  Ta  Ta116  1  0.39850132  0.79993581  0.24469674  1
  Ta  Ta117  1  0.10833176  0.49865286  0.63296158  1
  Ta  Ta118  1  0.59262183  0.80605259  0.00168786  1
  Ta  Ta119  1  0.41177294  -0.00430047  0.00268834  1
  Ti  Ti120  1  0.29339529  0.30936798  0.13030668  1
  Ti  Ti121  1  0.80570554  0.19894754  0.49606737  1
  Ti  Ti122  1  0.59966267  0.80158717  0.24439954  1
  Ti  Ti123  1  0.30146918  0.89569064  0.12054260  1
  Ti  Ti124  1  0.08179806  0.49806023  0.37735645  1
  Ti  Ti125  1  0.30853686  0.28931134  0.86573639  1
  Ti  Ti126  1  0.89314922  0.48900148  0.12799847  1
  Ti  Ti127  1  0.20827809  -0.00363082  0.00476563  1
  Ti  Ti128  1  0.49422012  0.31380838  0.87381081  1
  Ti  Ti129  1  0.90970655  0.68580288  0.38375295  1
  Ti  Ti130  1  0.90374870  0.27641823  0.62102439  1
  Ti  Ti131  1  -0.00339717  0.79308662  0.75725538  1
  Ti  Ti132  1  0.59611987  0.20079516  0.01342742  1
  Ti  Ti133  1  0.17192697  0.38766239  0.25398473  1
  Ti  Ti134  1  0.79717666  0.39919838  0.00050540  1
  Ti  Ti135  1  0.00464716  0.39005880  0.51088673  1
  Ti  Ti136  1  0.39958643  0.39602505  0.74731437  1
  Ti  Ti137  1  0.89908426  0.10343221  0.12944618  1
  Ti  Ti138  1  0.69471342  0.49684768  0.12279035  1
  Ti  Ti139  1  0.40203174  0.39549655  0.24042137  1
  Ti  Ti140  1  0.48768032  0.50277846  0.88075588  1
  Ti  Ti141  1  0.60075447  0.00817184  0.24281549  1
  Ti  Ti142  1  0.48904032  0.89770115  0.63819851  1
  Ti  Ti143  1  0.30511209  0.90374126  0.88617123  1
  Ti  Ti144  1  0.10051842  0.69328476  0.12633673  1
  Ti  Ti145  1  0.29555127  0.49716851  0.62970751  1
  Ti  Ti146  1  0.59414762  0.19829929  0.24234256  1
  Ti  Ti147  1  0.49508548  0.89623743  0.87028753  1
  Ti  Ti148  1  0.90677525  0.30614077  0.37313040  1
  Ti  Ti149  1  0.50217331  0.89939769  0.12491197  1
  Ti  Ti150  1  0.58442856  0.39465972  0.01268879  1
  Ti  Ti151  1  0.71148928  0.69390657  0.62405363  1
  Ti  Ti152  1  0.11918652  0.08861589  0.87816042  1
  Ti  Ti153  1  0.60027933  0.40232019  0.24492505  1
  Ti  Ti154  1  0.39503229  0.39611973  0.50736579  1
  Ti  Ti155  1  0.91442493  0.68389383  0.12714572  1
  Ti  Ti156  1  0.29759447  0.29691920  0.63470253  1
  Ti  Ti157  1  0.79496138  0.00072466  0.49476220  1
  Ti  Ti158  1  0.39540321  0.60677092  0.25067107  1
  Ti  Ti159  1  -0.00117170  0.60809120  0.74617610  1
  Mo  Mo160  1  0.38553679  0.58697682  -0.00598040  1
  Mo  Mo161  1  0.70320088  0.90134466  0.35371373  1
  Mo  Mo162  1  0.69230549  0.70223859  0.87794323  1
  Mo  Mo163  1  0.29901844  0.09859092  0.89780134  1
  Mo  Mo164  1  0.09166132  0.31296633  0.38220058  1
  Mo  Mo165  1  0.19831842  0.21234732  0.50610276  1
  Mo  Mo166  1  0.09537650  0.69196683  0.38594846  1
  Mo  Mo167  1  0.19314715  0.01129295  0.75195154  1
  Mo  Mo168  1  -0.00432477  0.59798461  0.25294552  1
  Mo  Mo169  1  0.00857169  0.59818359  0.50534793  1
  Mo  Mo170  1  0.51010043  0.09568390  0.11701811  1
  Mo  Mo171  1  0.79429971  0.60424039  0.50014755  1
  Mo  Mo172  1  0.09904143  0.30841242  0.12148805  1
  Mo  Mo173  1  0.59259366  0.00126446  0.00530787  1
  Mo  Mo174  1  0.40450994  0.80518435  0.74993654  1
  Mo  Mo175  1  0.59951976  0.79568957  0.75048316  1
  Mo  Mo176  1  0.39486834  0.21010719  0.75589834  1
  Mo  Mo177  1  0.21011566  0.18584159  0.75676645  1
  Mo  Mo178  1  0.20613268  0.59806067  0.74042905  1
  Mo  Mo179  1  0.79641846  0.39376834  0.25198537  1
  Mo  Mo180  1  0.31307004  0.10645243  0.37308604  1
  Mo  Mo181  1  0.21247013  0.39938624  0.74169071  1
  Mo  Mo182  1  0.90530368  0.09561793  0.87624017  1
  Mo  Mo183  1  0.30273797  0.69866303  0.36885533  1
  Mo  Mo184  1  0.01365903  -0.01050989  0.00424044  1
  Mo  Mo185  1  0.10000214  0.69872807  0.86011233  1
  Mo  Mo186  1  0.20774881  0.79595666  -0.00193915  1
  Mo  Mo187  1  0.50302873  0.31011689  0.13166767  1
  Mo  Mo188  1  0.39727405  0.21218600  0.50405916  1
  Mo  Mo189  1  0.91190986  0.69699234  0.87036389  1
  Mo  Mo190  1  0.49013441  0.10905312  0.36923768  1
  Mo  Mo191  1  0.88969017  0.29962727  0.87408213  1
  Mo  Mo192  1  -0.00324451  0.21431753  0.50045786  1
  Mo  Mo193  1  -0.01072463  0.40713032  0.25451814  1
  Mo  Mo194  1  0.20327044  0.00556468  0.50090626  1
  Mo  Mo195  1  0.69739641  0.50019894  0.62300118  1
  Mo  Mo196  1  0.00423062  0.59157492  -0.00100006  1
  Mo  Mo197  1  0.89715420  0.10196548  0.61883946  1
  Mo  Mo198  1  0.49391049  0.70435232  0.13555569  1
  Mo  Mo199  1  0.48995621  0.49873554  0.62333248  1
