# generated using pymatgen
data_HfZrTaTiMo
_symmetry_space_group_name_H-M   'P 1'
_cell_length_a   15.23023331
_cell_length_b   15.20337467
_cell_length_c   16.86140700
_cell_angle_alpha   89.99089580
_cell_angle_beta   90.07946517
_cell_angle_gamma   90.12413093
_symmetry_Int_Tables_number   1
_chemical_formula_structural   HfZrTaTiMo
_chemical_formula_sum   'Hf40 Zr40 Ta40 Ti40 Mo40'
_cell_volume   3904.26173082
_cell_formula_units_Z   40
loop_
 _symmetry_equiv_pos_site_id
 _symmetry_equiv_pos_as_xyz
  1  'x, y, z'
loop_
 _atom_site_type_symbol
 _atom_site_label
 _atom_site_symmetry_multiplicity
 _atom_site_fract_x
 _atom_site_fract_y
 _atom_site_fract_z
 _atom_site_occupancy
  Hf  Hf0  1  0.30800262  0.09335842  0.85675717  1
  Hf  Hf1  1  -0.00441762  0.22112614  0.48595884  1
  Hf  Hf2  1  0.70057215  0.08962025  0.85973489  1
  Hf  Hf3  1  0.80906553  0.79723405  -0.00479655  1
  Hf  Hf4  1  0.62618018  0.19207618  0.51929668  1
  Hf  Hf5  1  0.90013040  0.49714355  0.87303179  1
  Hf  Hf6  1  0.21386461  0.79925440  0.25426105  1
  Hf  Hf7  1  0.80149075  0.37738687  0.51314487  1
  Hf  Hf8  1  0.40681523  0.81038417  0.50294149  1
  Hf  Hf9  1  0.30203851  0.90051295  0.87179728  1
  Hf  Hf10  1  -0.00292799  0.39532995  0.01263668  1
  Hf  Hf11  1  0.40502831  0.18049682  -0.00697057  1
  Hf  Hf12  1  0.79170032  -0.00766850  0.00674485  1
  Hf  Hf13  1  0.59797332  0.39532958  0.25104217  1
  Hf  Hf14  1  0.50853607  0.07782572  0.38822336  1
  Hf  Hf15  1  0.40437854  0.81065189  0.01399044  1
  Hf  Hf16  1  0.68803388  0.50262469  0.87411423  1
  Hf  Hf17  1  0.80223915  0.19357079  -0.00160001  1
  Hf  Hf18  1  0.18848554  0.19336331  0.26455289  1
  Hf  Hf19  1  0.89306047  0.49338873  0.37428062  1
  Hf  Hf20  1  0.59625231  0.79575911  0.74184697  1
  Hf  Hf21  1  0.18047884  0.39783451  0.49185903  1
  Hf  Hf22  1  0.79767653  0.39654083  0.00302376  1
  Hf  Hf23  1  0.49196793  0.49243898  0.12610607  1
  Hf  Hf24  1  0.00087169  0.39231510  0.74413380  1
  Hf  Hf25  1  0.42709232  0.41949386  0.51208868  1
  Hf  Hf26  1  0.69377742  0.70496346  0.60780875  1
  Hf  Hf27  1  0.10184411  0.10382083  0.60759793  1
  Hf  Hf28  1  0.80141630  0.59836455  0.50309097  1
  Hf  Hf29  1  0.88714249  0.50786379  0.13274995  1
  Hf  Hf30  1  0.68364132  0.49121398  0.38753911  1
  Hf  Hf31  1  0.40056376  0.61087824  0.24197842  1
  Hf  Hf32  1  0.61123318  -0.02207224  0.51957638  1
  Hf  Hf33  1  0.49695257  0.70470290  0.87783370  1
  Hf  Hf34  1  0.70198787  0.29300402  0.12638649  1
  Hf  Hf35  1  0.69894271  0.29607384  0.86754668  1
  Hf  Hf36  1  0.68920535  0.89321154  0.86922180  1
  Hf  Hf37  1  0.29277750  0.30393228  0.61483287  1
  Hf  Hf38  1  0.10283014  0.70588431  0.61599193  1
  Hf  Hf39  1  0.30512286  0.30083880  0.38789161  1
  Zr  Zr40  1  0.30104738  0.09200242  0.62061112  1
  Zr  Zr41  1  0.71089088  0.70014029  0.13099427  1
  Zr  Zr42  1  0.00153707  0.79932949  0.48998817  1
  Zr  Zr43  1  0.30147192  0.50541789  0.87891960  1
  Zr  Zr44  1  0.89622204  0.70327241  0.36658181  1
  Zr  Zr45  1  -0.00393117  0.01390025  0.25341062  1
  Zr  Zr46  1  0.68830025  0.71087765  0.38011576  1
  Zr  Zr47  1  0.10348934  0.51383018  0.87554961  1
  Zr  Zr48  1  0.89867986  0.10579879  0.61609896  1
  Zr  Zr49  1  0.49552133  0.68372343  0.61175934  1
  Zr  Zr50  1  0.68238960  0.09136269  0.12441227  1
  Zr  Zr51  1  0.00780117  0.80699142  0.01652743  1
  Zr  Zr52  1  0.81129200  0.79090849  0.75650761  1
  Zr  Zr53  1  0.29923612  0.09668727  0.39525987  1
  Zr  Zr54  1  0.19802186  0.40918700  0.01117617  1
  Zr  Zr55  1  -0.00610798  0.61195320  0.74711755  1
  Zr  Zr56  1  0.19101686  0.20221877  0.74757486  1
  Zr  Zr57  1  0.31549144  0.91453993  0.14005216  1
  Zr  Zr58  1  0.19563767  0.60943322  0.48476547  1
  Zr  Zr59  1  0.31431634  0.50496417  0.37693647  1
  Zr  Zr60  1  -0.00211520  0.60799264  0.00698299  1
  Zr  Zr61  1  0.42128161  0.20128303  0.51383703  1
  Zr  Zr62  1  0.10241520  0.10485051  0.12557576  1
  Zr  Zr63  1  0.91117275  0.90910028  0.86896278  1
  Zr  Zr64  1  0.78906884  0.60302170  0.74416206  1
  Zr  Zr65  1  0.39941220  0.39094982  -0.00675143  1
  Zr  Zr66  1  -0.00659235  0.00244053  0.01495854  1
  Zr  Zr67  1  0.10664039  0.70508617  0.13966048  1
  Zr  Zr68  1  0.20092738  0.40007393  0.25446696  1
  Zr  Zr69  1  0.28690518  0.70822974  0.87827087  1
  Zr  Zr70  1  0.09798342  0.08403249  0.87769921  1
  Zr  Zr71  1  0.40513317  0.19196781  0.26189225  1
  Zr  Zr72  1  0.79610961  0.60864198  -0.01233472  1
  Zr  Zr73  1  0.79443533  0.40091270  0.73366781  1
  Zr  Zr74  1  0.20542661  0.20118143  -0.00189849  1
  Zr  Zr75  1  0.10043290  0.29923498  0.87618646  1
  Zr  Zr76  1  0.79801536  0.82846608  0.50350910  1
  Zr  Zr77  1  0.30665988  0.30162405  0.13608925  1
  Zr  Zr78  1  0.32042366  0.90910716  0.36586481  1
  Zr  Zr79  1  0.50548384  0.28198364  0.12664342  1
  Ta  Ta80  1  0.49755852  0.50034360  0.87442377  1
  Ta  Ta81  1  -0.00491051  0.39666796  0.24401430  1
  Ta  Ta82  1  0.70292067  0.91704192  0.36601041  1
  Ta  Ta83  1  0.21331559  -0.00973759  0.00400803  1
  Ta  Ta84  1  0.19921473  0.60983698  0.74356007  1
  Ta  Ta85  1  0.60449900  0.18572161  0.26288398  1
  Ta  Ta86  1  0.29331055  0.89643398  0.62173260  1
  Ta  Ta87  1  0.09478821  0.90614668  0.61399100  1
  Ta  Ta88  1  0.89246039  0.90801784  0.35838745  1
  Ta  Ta89  1  0.90240820  0.29443058  0.87202744  1
  Ta  Ta90  1  0.58949978  0.39769963  0.74216425  1
  Ta  Ta91  1  0.30019298  0.51297286  0.61868098  1
  Ta  Ta92  1  0.49290841  0.91095814  0.86480263  1
  Ta  Ta93  1  0.20467204  0.41072216  0.74188286  1
  Ta  Ta94  1  0.39978998  0.40391957  0.74202303  1
  Ta  Ta95  1  -0.00428949  0.59945449  0.24841161  1
  Ta  Ta96  1  0.60761626  0.19998160  0.73315169  1
  Ta  Ta97  1  0.39245482  0.80246924  0.73948703  1
  Ta  Ta98  1  0.29510486  0.70357446  0.62099309  1
  Ta  Ta99  1  0.10289920  0.90667885  0.36376695  1
  Ta  Ta100  1  0.59125113  0.60198464  0.00499051  1
  Ta  Ta101  1  0.39576736  0.59987829  0.74836256  1
  Ta  Ta102  1  0.20334400  0.62059384  0.01367632  1
  Ta  Ta103  1  0.59679596  0.39620586  -0.00257424  1
  Ta  Ta104  1  0.59681299  0.19332544  -0.01305610  1
  Ta  Ta105  1  0.10223540  0.50088961  0.62340015  1
  Ta  Ta106  1  0.67460689  0.49548348  0.60962976  1
  Ta  Ta107  1  0.19942197  0.60162246  0.25790720  1
  Ta  Ta108  1  0.18965396  -0.02038537  0.74314034  1
  Ta  Ta109  1  0.81244776  0.20117202  0.74289496  1
  Ta  Ta110  1  0.79655041  0.39412892  0.24956604  1
  Ta  Ta111  1  0.69136837  0.49801529  0.12457775  1
  Ta  Ta112  1  0.08736521  0.49803806  0.36626915  1
  Ta  Ta113  1  0.90269461  0.10696547  0.86587687  1
  Ta  Ta114  1  -0.01242753  -0.00448839  0.48609499  1
  Ta  Ta115  1  0.40983847  0.20770175  0.73730620  1
  Ta  Ta116  1  0.70731359  0.28460973  0.37610142  1
  Ta  Ta117  1  0.02094506  0.81278832  0.74711663  1
  Ta  Ta118  1  0.50450757  0.09627369  0.85190584  1
  Ta  Ta119  1  0.51247215  0.30654691  0.38014739  1
  Ti  Ti120  1  0.39866077  0.60761531  0.01461333  1
  Ti  Ti121  1  0.19742822  -0.00948349  0.49593516  1
  Ti  Ti122  1  0.60421259  0.80086376  0.00807596  1
  Ti  Ti123  1  0.31179797  0.70650527  0.37550425  1
  Ti  Ti124  1  0.50098375  0.29675059  0.86645432  1
  Ti  Ti125  1  0.59482945  -0.01071543  0.24708749  1
  Ti  Ti126  1  0.90638602  0.49871226  0.61788839  1
  Ti  Ti127  1  0.60747924  0.79936111  0.23840920  1
  Ti  Ti128  1  0.59365922  0.60208899  0.24699813  1
  Ti  Ti129  1  0.59362937  0.59582216  0.74902009  1
  Ti  Ti130  1  0.20022396  0.80497452  0.48488192  1
  Ti  Ti131  1  0.57961187  -0.00389108  -0.00215569  1
  Ti  Ti132  1  0.08907604  0.30150530  0.62070686  1
  Ti  Ti133  1  0.11160255  0.91095592  0.14055022  1
  Ti  Ti134  1  0.90418014  0.70850078  0.61775131  1
  Ti  Ti135  1  0.89524932  0.30201684  0.36897081  1
  Ti  Ti136  1  0.78918211  0.59920474  0.25587182  1
  Ti  Ti137  1  0.89689664  0.90848244  0.63176300  1
  Ti  Ti138  1  0.50042713  0.68270353  0.38862876  1
  Ti  Ti139  1  -0.00629929  0.20752089  0.26367417  1
  Ti  Ti140  1  0.29474673  0.50860498  0.13093075  1
  Ti  Ti141  1  0.10002134  0.50195699  0.13529743  1
  Ti  Ti142  1  0.51719710  0.87971905  0.37469761  1
  Ti  Ti143  1  0.89121572  0.10046721  0.13274904  1
  Ti  Ti144  1  0.87319675  0.10037985  0.38067332  1
  Ti  Ti145  1  -0.00507215  0.20034477  0.00345538  1
  Ti  Ti146  1  0.29884872  0.09801495  0.13540643  1
  Ti  Ti147  1  0.48639992  0.08081414  0.12871824  1
  Ti  Ti148  1  0.09717440  0.10161514  0.38849134  1
  Ti  Ti149  1  0.50611855  0.08273260  0.63759848  1
  Ti  Ti150  1  -0.00842563  0.80489338  0.24181099  1
  Ti  Ti151  1  0.79726154  0.19149587  0.25302013  1
  Ti  Ti152  1  0.30612203  0.30066320  0.86174889  1
  Ti  Ti153  1  0.09800348  0.29793044  0.13235843  1
  Ti  Ti154  1  0.90103935  0.29207398  0.13453453  1
  Ti  Ti155  1  0.11188396  0.88223144  0.88225908  1
  Ti  Ti156  1  0.09657993  0.70289991  0.36342292  1
  Ti  Ti157  1  0.42468094  0.80172823  0.23773213  1
  Ti  Ti158  1  -0.00034761  0.01062329  0.74233535  1
  Ti  Ti159  1  0.00156944  0.59261014  0.49635169  1
  Mo  Mo160  1  0.67365127  0.69715035  0.87883048  1
  Mo  Mo161  1  0.30665102  0.70052103  0.12750611  1
  Mo  Mo162  1  0.20165814  0.00590045  0.25969912  1
  Mo  Mo163  1  0.40124415  -0.00539768  0.73711216  1
  Mo  Mo164  1  -0.00519730  0.41484802  0.50425341  1
  Mo  Mo165  1  0.79009446  0.00490127  0.24293439  1
  Mo  Mo166  1  0.69486286  0.89888341  0.12400117  1
  Mo  Mo167  1  0.00019448  0.20004082  0.74768670  1
  Mo  Mo168  1  0.93291577  0.70964066  0.87172978  1
  Mo  Mo169  1  0.71037298  0.08685888  0.64380808  1
  Mo  Mo170  1  0.69870189  0.09458760  0.37352263  1
  Mo  Mo171  1  0.70741180  0.90371640  0.64166441  1
  Mo  Mo172  1  0.79724166  0.80936226  0.25038554  1
  Mo  Mo173  1  0.08669132  0.30609017  0.36696086  1
  Mo  Mo174  1  0.79970676  0.00733944  0.49911762  1
  Mo  Mo175  1  0.80638784  -0.00154413  0.74972510  1
  Mo  Mo176  1  0.50763509  0.70040669  0.12157323  1
  Mo  Mo177  1  0.50058895  0.49926772  0.36552500  1
  Mo  Mo178  1  0.60086527  0.38410551  0.50454376  1
  Mo  Mo179  1  0.40779708  0.40214751  0.25852369  1
  Mo  Mo180  1  0.50569974  0.30051745  0.63221725  1
  Mo  Mo181  1  0.60024350  0.79792759  0.49654974  1
  Mo  Mo182  1  0.40477276  0.00457024  -0.00563559  1
  Mo  Mo183  1  0.49541063  0.50091106  0.63605358  1
  Mo  Mo184  1  0.19792407  0.79995681  0.74216542  1
  Mo  Mo185  1  0.10150915  0.70928397  0.87796932  1
  Mo  Mo186  1  0.88742887  0.89797251  0.14598407  1
  Mo  Mo187  1  0.89983970  0.70206502  0.14448234  1
  Mo  Mo188  1  0.90875789  0.30154671  0.62523219  1
  Mo  Mo189  1  0.39279257  0.60737354  0.49810848  1
  Mo  Mo190  1  0.19291687  0.20219405  0.49473139  1
  Mo  Mo191  1  0.41576209  -0.00030206  0.25492882  1
  Mo  Mo192  1  0.70533295  0.29412351  0.63495668  1
  Mo  Mo193  1  0.60158132  -0.00674526  0.73833488  1
  Mo  Mo194  1  0.40805554  -0.00703663  0.51792519  1
  Mo  Mo195  1  0.58443975  0.58350757  0.49291028  1
  Mo  Mo196  1  0.51851914  0.90456862  0.12530256  1
  Mo  Mo197  1  0.49422829  0.89492175  0.63164626  1
  Mo  Mo198  1  0.80264986  0.19132244  0.49837114  1
  Mo  Mo199  1  0.20227772  0.80972391  0.01465277  1
