# generated using pymatgen
data_HfZrTaTiMo
_symmetry_space_group_name_H-M   'P 1'
_cell_length_a   15.20122223
_cell_length_b   15.22354711
_cell_length_c   16.85133182
_cell_angle_alpha   89.96117102
_cell_angle_beta   90.07865380
_cell_angle_gamma   90.09129844
_symmetry_Int_Tables_number   1
_chemical_formula_structural   HfZrTaTiMo
_chemical_formula_sum   'Hf40 Zr40 Ta40 Ti40 Mo40'
_cell_volume   3899.66710102
_cell_formula_units_Z   40
loop_
 _symmetry_equiv_pos_site_id
 _symmetry_equiv_pos_as_xyz
  1  'x, y, z'
loop_
 _atom_site_type_symbol
 _atom_site_label
 _atom_site_symmetry_multiplicity
 _atom_site_fract_x
 _atom_site_fract_y
 _atom_site_fract_z
 _atom_site_occupancy
  Hf  Hf0  1  -0.01331240  -0.02397955  0.75196898  1
  Hf  Hf1  1  0.21775728  0.81171484  0.75124890  1
  Hf  Hf2  1  0.29031282  0.09893965  0.12947879  1
  Hf  Hf3  1  0.81806685  0.58602146  -0.00432393  1
  Hf  Hf4  1  0.29934327  0.30088260  0.12898883  1
  Hf  Hf5  1  0.19520693  0.00507494  -0.00437164  1
  Hf  Hf6  1  0.79865732  0.01516667  0.01683286  1
  Hf  Hf7  1  0.10714560  0.69310008  0.86708435  1
  Hf  Hf8  1  0.78807788  0.39423183  0.25049913  1
  Hf  Hf9  1  0.00566418  0.80516782  0.01240116  1
  Hf  Hf10  1  0.08626568  0.29762286  0.12448311  1
  Hf  Hf11  1  0.80588619  0.58882846  0.25093472  1
  Hf  Hf12  1  0.00375159  0.41101559  0.75126482  1
  Hf  Hf13  1  0.10907528  0.90219266  0.14265253  1
  Hf  Hf14  1  0.90044652  0.10145684  0.64326025  1
  Hf  Hf15  1  0.39412443  0.00798374  0.48514892  1
  Hf  Hf16  1  0.60855059  0.58898986  0.74893118  1
  Hf  Hf17  1  -0.00250140  0.60938484  0.49983046  1
  Hf  Hf18  1  0.89894773  0.71795386  0.62731716  1
  Hf  Hf19  1  0.31332843  0.69572196  0.62292597  1
  Hf  Hf20  1  0.70317959  0.70388425  0.88899424  1
  Hf  Hf21  1  0.59021827  0.20204214  0.74761640  1
  Hf  Hf22  1  0.09522263  0.10316777  0.85683526  1
  Hf  Hf23  1  0.79860868  0.01933389  0.24035606  1
  Hf  Hf24  1  0.60542347  0.18933031  0.25512976  1
  Hf  Hf25  1  0.38769724  0.39355602  0.49619167  1
  Hf  Hf26  1  0.19628573  0.40856841  -0.00242847  1
  Hf  Hf27  1  0.50566082  0.30339532  0.37954596  1
  Hf  Hf28  1  0.89519883  0.30147545  0.63760652  1
  Hf  Hf29  1  0.59213062  0.20891005  -0.00401178  1
  Hf  Hf30  1  0.79802201  0.20250217  0.50398411  1
  Hf  Hf31  1  0.91569162  0.69232668  0.13750923  1
  Hf  Hf32  1  0.10407944  0.71699490  0.37190732  1
  Hf  Hf33  1  0.49923791  0.90368533  0.62016853  1
  Hf  Hf34  1  0.48243935  0.49622008  0.61968339  1
  Hf  Hf35  1  0.40098568  -0.00792536  -0.00242359  1
  Hf  Hf36  1  0.80528187  0.81147467  0.01211071  1
  Hf  Hf37  1  0.20316704  0.58399730  0.74048481  1
  Hf  Hf38  1  0.29557002  0.49761554  0.13430112  1
  Hf  Hf39  1  0.51251182  0.70136006  0.62352146  1
  Zr  Zr40  1  0.82598062  0.81558519  0.76728778  1
  Zr  Zr41  1  0.18544305  -0.00836300  0.47992622  1
  Zr  Zr42  1  0.70238059  0.68982974  0.12166093  1
  Zr  Zr43  1  0.28885438  0.09695372  0.62076731  1
  Zr  Zr44  1  0.49069871  0.49211002  0.12540601  1
  Zr  Zr45  1  0.09412361  0.89710902  0.87135603  1
  Zr  Zr46  1  0.59830573  0.59641308  0.49983035  1
  Zr  Zr47  1  0.51685515  0.90007480  0.37306284  1
  Zr  Zr48  1  0.09421207  0.50594692  0.13736498  1
  Zr  Zr49  1  -0.01213373  0.39531339  0.25678714  1
  Zr  Zr50  1  0.21550754  0.60259388  0.49608269  1
  Zr  Zr51  1  0.29256989  0.68929881  0.12388580  1
  Zr  Zr52  1  0.20828590  0.79814642  -0.00375007  1
  Zr  Zr53  1  0.10486551  0.29548193  0.61963760  1
  Zr  Zr54  1  0.80748102  0.59689564  0.75300041  1
  Zr  Zr55  1  0.71757753  0.88809192  0.62211026  1
  Zr  Zr56  1  0.79634268  0.60702526  0.49824542  1
  Zr  Zr57  1  0.20697651  0.21456581  0.74894546  1
  Zr  Zr58  1  0.70969848  0.28820189  0.12129310  1
  Zr  Zr59  1  0.38698662  -0.01085737  0.74709471  1
  Zr  Zr60  1  0.69598365  0.10472890  0.87179048  1
  Zr  Zr61  1  0.50292547  0.69607663  0.87949936  1
  Zr  Zr62  1  0.00374739  0.82610150  0.49694268  1
  Zr  Zr63  1  0.40052231  0.58909450  0.75900779  1
  Zr  Zr64  1  0.09274848  0.50129244  0.37671505  1
  Zr  Zr65  1  0.71442154  0.89758419  0.36339872  1
  Zr  Zr66  1  0.40967278  0.00138378  0.26327596  1
  Zr  Zr67  1  0.69531698  0.09626469  0.63546542  1
  Zr  Zr68  1  0.48302540  0.70156222  0.12248803  1
  Zr  Zr69  1  0.61365491  0.80515030  0.75054781  1
  Zr  Zr70  1  0.91644041  0.70527661  0.87723875  1
  Zr  Zr71  1  0.59951462  0.58478232  0.24792718  1
  Zr  Zr72  1  0.39373474  0.20028187  0.26837095  1
  Zr  Zr73  1  0.82026029  -0.00249822  0.49375645  1
  Zr  Zr74  1  0.31597163  0.89253019  0.13680179  1
  Zr  Zr75  1  0.39386855  0.19783955  -0.00151824  1
  Zr  Zr76  1  0.59042617  0.58855591  -0.00242319  1
  Zr  Zr77  1  0.18681463  0.19926534  0.26807956  1
  Zr  Zr78  1  -0.00099566  0.20423424  -0.01197178  1
  Zr  Zr79  1  0.39302280  0.79558991  0.48721966  1
  Ta  Ta80  1  0.21232633  0.20031801  0.48415977  1
  Ta  Ta81  1  0.90182579  0.71197006  0.35734334  1
  Ta  Ta82  1  0.50575187  0.30518942  0.13813723  1
  Ta  Ta83  1  0.10074134  0.49980553  0.61586073  1
  Ta  Ta84  1  0.61799705  0.79439101  0.49913256  1
  Ta  Ta85  1  0.49756128  0.09397993  0.86932248  1
  Ta  Ta86  1  0.49338579  0.46707437  0.87309281  1
  Ta  Ta87  1  0.49409215  0.10026885  0.61982338  1
  Ta  Ta88  1  0.69939905  0.70138855  0.36103155  1
  Ta  Ta89  1  0.89398795  0.10161537  0.86139401  1
  Ta  Ta90  1  0.09300444  0.09941676  0.12751543  1
  Ta  Ta91  1  0.60522308  0.00150668  0.49877642  1
  Ta  Ta92  1  0.11056327  0.71029806  0.62088235  1
  Ta  Ta93  1  0.00154156  0.18431293  0.49602776  1
  Ta  Ta94  1  0.69918419  0.30054110  0.38422786  1
  Ta  Ta95  1  0.69557740  0.48736206  0.38104225  1
  Ta  Ta96  1  0.59373928  0.19641031  0.50429377  1
  Ta  Ta97  1  0.59791713  0.00477121  0.01814701  1
  Ta  Ta98  1  0.09140051  0.29912128  0.38873756  1
  Ta  Ta99  1  0.20058299  0.00363556  0.27166837  1
  Ta  Ta100  1  0.89045007  0.30035576  0.85684639  1
  Ta  Ta101  1  -0.01169498  0.39740833  0.50363461  1
  Ta  Ta102  1  0.11016770  0.90929879  0.63039059  1
  Ta  Ta103  1  -0.01340932  0.40576860  -0.01346836  1
  Ta  Ta104  1  0.69585948  0.30564342  0.62894840  1
  Ta  Ta105  1  0.69557590  0.48103506  0.11260899  1
  Ta  Ta106  1  0.50828096  0.90468573  0.87432594  1
  Ta  Ta107  1  0.50487296  0.69930188  0.37075761  1
  Ta  Ta108  1  0.01776894  0.59442030  0.00156266  1
  Ta  Ta109  1  0.30505435  0.31332292  0.87452997  1
  Ta  Ta110  1  0.59586586  0.80266639  0.23269762  1
  Ta  Ta111  1  0.89319721  0.30146416  0.38747300  1
  Ta  Ta112  1  0.69717789  0.49072654  0.88032177  1
  Ta  Ta113  1  0.91227672  0.91341918  0.14124404  1
  Ta  Ta114  1  0.39364740  0.60401211  0.26521925  1
  Ta  Ta115  1  0.90266327  0.12761435  0.12770467  1
  Ta  Ta116  1  0.29765078  0.09582704  0.86760045  1
  Ta  Ta117  1  0.59628563  0.81628355  0.01532844  1
  Ta  Ta118  1  0.69674298  0.91017869  0.88694285  1
  Ta  Ta119  1  0.92475921  0.91671283  0.34987666  1
  Ti  Ti120  1  0.20154561  0.39398705  0.26386732  1
  Ti  Ti121  1  0.80055223  0.80534125  0.23738003  1
  Ti  Ti122  1  0.19765450  0.20308873  -0.00936999  1
  Ti  Ti123  1  0.21772759  0.79904204  0.25921028  1
  Ti  Ti124  1  0.60597723  -0.00313226  0.22646947  1
  Ti  Ti125  1  0.89930126  0.48585203  0.12305127  1
  Ti  Ti126  1  0.40951771  0.38974912  -0.00009163  1
  Ti  Ti127  1  0.89737253  0.49898395  0.61962860  1
  Ti  Ti128  1  -0.00937747  0.19650256  0.26413507  1
  Ti  Ti129  1  0.79916510  0.39280909  -0.01019488  1
  Ti  Ti130  1  0.19681661  0.39635753  0.49737756  1
  Ti  Ti131  1  0.48729390  0.29191006  0.61719661  1
  Ti  Ti132  1  0.10032109  0.30705381  0.86746530  1
  Ti  Ti133  1  0.78513574  -0.00174840  0.75787680  1
  Ti  Ti134  1  0.19815006  0.59882483  0.26374695  1
  Ti  Ti135  1  0.29942568  0.69130230  0.87654256  1
  Ti  Ti136  1  0.40707737  0.79785690  0.75739137  1
  Ti  Ti137  1  0.40275046  0.40259073  0.26113962  1
  Ti  Ti138  1  0.89119137  0.49937603  0.38322869  1
  Ti  Ti139  1  0.70443413  0.49749641  0.62094701  1
  Ti  Ti140  1  0.60416592  0.39452073  0.51016670  1
  Ti  Ti141  1  0.10502532  0.69723662  0.14209054  1
  Ti  Ti142  1  0.39850988  0.20290350  0.74993766  1
  Ti  Ti143  1  0.78801145  0.40682672  0.75515907  1
  Ti  Ti144  1  0.00240212  0.60313995  0.73819608  1
  Ti  Ti145  1  0.68525768  0.30875272  0.86943224  1
  Ti  Ti146  1  0.38041539  0.58115842  -0.01361912  1
  Ti  Ti147  1  0.50165221  0.49958624  0.37912627  1
  Ti  Ti148  1  0.09319356  0.09854210  0.63554420  1
  Ti  Ti149  1  0.80558409  0.20747094  -0.00760867  1
  Ti  Ti150  1  0.69845148  0.10053049  0.38052482  1
  Ti  Ti151  1  0.30259614  0.50009793  0.37346139  1
  Ti  Ti152  1  0.37673358  0.39180393  0.73877909  1
  Ti  Ti153  1  0.49702097  0.10584999  0.12647742  1
  Ti  Ti154  1  0.10467410  0.50095783  0.87261558  1
  Ti  Ti155  1  0.40294351  0.79922219  -0.01096885  1
  Ti  Ti156  1  0.80934091  0.79800095  0.48600569  1
  Ti  Ti157  1  -0.00736721  0.00531574  0.00067024  1
  Ti  Ti158  1  0.80468200  0.20554750  0.26032074  1
  Ti  Ti159  1  0.58527825  0.39645875  0.74270941  1
  Mo  Mo160  1  0.40465203  0.59434466  0.48249346  1
  Mo  Mo161  1  0.70341296  0.90134633  0.13086760  1
  Mo  Mo162  1  -0.00010120  0.00839079  0.50420022  1
  Mo  Mo163  1  0.29928562  0.10274456  0.38020377  1
  Mo  Mo164  1  0.51433484  0.10312009  0.38699792  1
  Mo  Mo165  1  0.29052569  0.88790140  0.61583499  1
  Mo  Mo166  1  -0.00293017  0.20104851  0.75700770  1
  Mo  Mo167  1  0.08059854  0.09516764  0.37663984  1
  Mo  Mo168  1  0.79068895  0.21260842  0.75456712  1
  Mo  Mo169  1  0.00517020  0.01878839  0.24299694  1
  Mo  Mo170  1  0.59231360  -0.00316956  0.75314745  1
  Mo  Mo171  1  0.70488337  0.69543714  0.62258091  1
  Mo  Mo172  1  0.19884795  0.00369440  0.74962158  1
  Mo  Mo173  1  0.59941631  0.39278365  -0.00526601  1
  Mo  Mo174  1  0.90859280  0.90687898  0.62430029  1
  Mo  Mo175  1  0.19985549  0.40473854  0.75041876  1
  Mo  Mo176  1  0.20288332  0.80517243  0.50256134  1
  Mo  Mo177  1  0.00612863  0.80385306  0.24365071  1
  Mo  Mo178  1  0.88802363  0.92116385  0.89530530  1
  Mo  Mo179  1  0.59837453  0.39394252  0.25543203  1
  Mo  Mo180  1  0.90106071  0.30561324  0.11788445  1
  Mo  Mo181  1  0.09941155  0.89913830  0.35683391  1
  Mo  Mo182  1  0.89407856  0.10799394  0.37224443  1
  Mo  Mo183  1  0.69611287  0.10886712  0.12165869  1
  Mo  Mo184  1  0.40595359  0.79383828  0.26322012  1
  Mo  Mo185  1  0.29068505  0.48833596  0.61646657  1
  Mo  Mo186  1  0.79494048  0.40141368  0.50492090  1
  Mo  Mo187  1  0.49198444  0.29343767  0.86479422  1
  Mo  Mo188  1  0.01974887  0.78722196  0.73421509  1
  Mo  Mo189  1  0.30401079  0.69651517  0.37058672  1
  Mo  Mo190  1  0.29932981  0.89155256  0.36432372  1
  Mo  Mo191  1  0.90512374  0.49455052  0.87335434  1
  Mo  Mo192  1  0.19604089  0.59762242  -0.00449757  1
  Mo  Mo193  1  0.29764594  0.49474751  0.87809028  1
  Mo  Mo194  1  0.30381126  0.30292298  0.62030992  1
  Mo  Mo195  1  0.49996954  0.90141535  0.12566136  1
  Mo  Mo196  1  -0.00218554  0.60143277  0.26166265  1
  Mo  Mo197  1  0.31040661  0.89805844  0.87857815  1
  Mo  Mo198  1  0.29192084  0.31086560  0.37408807  1
  Mo  Mo199  1  0.40189704  0.19891108  0.49461472  1
