# generated using pymatgen
data_HfZrTaTiMo
_symmetry_space_group_name_H-M   'P 1'
_cell_length_a   15.20696286
_cell_length_b   15.21738971
_cell_length_c   16.85444300
_cell_angle_alpha   89.99754388
_cell_angle_beta   89.96752555
_cell_angle_gamma   90.05502592
_symmetry_Int_Tables_number   1
_chemical_formula_structural   HfZrTaTiMo
_chemical_formula_sum   'Hf40 Zr40 Ta40 Ti40 Mo40'
_cell_volume   3900.28894690
_cell_formula_units_Z   40
loop_
 _symmetry_equiv_pos_site_id
 _symmetry_equiv_pos_as_xyz
  1  'x, y, z'
loop_
 _atom_site_type_symbol
 _atom_site_label
 _atom_site_symmetry_multiplicity
 _atom_site_fract_x
 _atom_site_fract_y
 _atom_site_fract_z
 _atom_site_occupancy
  Hf  Hf0  1  0.81020535  -0.00612912  0.73097320  1
  Hf  Hf1  1  0.69815607  0.69736717  0.61251278  1
  Hf  Hf2  1  0.79706708  0.59813627  0.25444672  1
  Hf  Hf3  1  0.81559228  0.40308781  0.25099239  1
  Hf  Hf4  1  0.69564793  0.90305215  0.36836005  1
  Hf  Hf5  1  0.69728055  0.50165415  0.12372363  1
  Hf  Hf6  1  0.30854342  0.92349413  0.10983620  1
  Hf  Hf7  1  0.10682120  0.88036855  0.36248984  1
  Hf  Hf8  1  0.29395931  0.28721324  0.13433819  1
  Hf  Hf9  1  0.70379016  0.29264316  0.62497431  1
  Hf  Hf10  1  -0.00985774  0.80663115  0.74057763  1
  Hf  Hf11  1  0.50566233  0.09483687  0.63597827  1
  Hf  Hf12  1  0.67749483  0.89965498  0.13879451  1
  Hf  Hf13  1  0.80434995  0.60138099  0.74580568  1
  Hf  Hf14  1  0.38824099  0.19982625  0.73300757  1
  Hf  Hf15  1  0.70536584  0.68748511  0.39228268  1
  Hf  Hf16  1  0.20322841  0.60643222  0.77612241  1
  Hf  Hf17  1  0.39084949  0.81122066  0.23791506  1
  Hf  Hf18  1  0.08879867  0.92139826  0.86325812  1
  Hf  Hf19  1  0.69740643  0.29366463  0.12959606  1
  Hf  Hf20  1  0.81635367  0.39543431  0.74475837  1
  Hf  Hf21  1  0.59416269  -0.01780720  -0.01117664  1
  Hf  Hf22  1  0.59299270  0.59662904  0.74727277  1
  Hf  Hf23  1  0.00840580  0.01051853  0.25133364  1
  Hf  Hf24  1  0.19818151  -0.00286678  0.49521491  1
  Hf  Hf25  1  0.79757097  0.19168458  0.00231373  1
  Hf  Hf26  1  0.49866330  0.28580314  0.37850447  1
  Hf  Hf27  1  0.50500488  0.69118046  0.89128551  1
  Hf  Hf28  1  0.30302383  0.50671676  0.36242915  1
  Hf  Hf29  1  0.51054351  0.69839713  0.11635324  1
  Hf  Hf30  1  0.00024468  0.00604359  0.00158068  1
  Hf  Hf31  1  0.59629167  0.00438104  0.49992437  1
  Hf  Hf32  1  0.11882770  0.10981675  0.12567213  1
  Hf  Hf33  1  0.59278535  0.39923965  0.75803080  1
  Hf  Hf34  1  0.80576783  -0.00281081  0.51262726  1
  Hf  Hf35  1  0.80221766  0.18753134  0.50898596  1
  Hf  Hf36  1  0.17859668  0.40174899  0.75067512  1
  Hf  Hf37  1  0.00902736  0.81356361  0.51707710  1
  Hf  Hf38  1  0.29850623  0.51237774  0.63231723  1
  Hf  Hf39  1  0.57676309  0.57728906  0.49531870  1
  Zr  Zr40  1  0.91403015  0.70403241  0.39305063  1
  Zr  Zr41  1  0.79067946  0.00270772  0.00923992  1
  Zr  Zr42  1  0.10479400  0.50101336  0.13109502  1
  Zr  Zr43  1  0.19326102  0.20168829  0.50779845  1
  Zr  Zr44  1  0.70084336  0.49873950  0.87770466  1
  Zr  Zr45  1  0.48957994  0.88963083  0.63200227  1
  Zr  Zr46  1  0.19370408  0.81066390  -0.01787901  1
  Zr  Zr47  1  0.90959074  0.50563794  0.11569248  1
  Zr  Zr48  1  0.50028816  0.31859220  0.62208746  1
  Zr  Zr49  1  0.00877673  0.20459572  0.00052288  1
  Zr  Zr50  1  0.90910880  0.71384343  0.88328021  1
  Zr  Zr51  1  0.90553228  0.89468853  0.12887941  1
  Zr  Zr52  1  0.69733537  0.49092938  0.61103039  1
  Zr  Zr53  1  0.69968693  0.30567779  0.38193463  1
  Zr  Zr54  1  0.09959918  0.50685973  0.36457771  1
  Zr  Zr55  1  0.58793315  0.80244675  0.49151769  1
  Zr  Zr56  1  0.48765929  0.28433342  0.87148502  1
  Zr  Zr57  1  0.22016045  0.00298743  0.25620139  1
  Zr  Zr58  1  0.48562141  0.68529737  0.62225553  1
  Zr  Zr59  1  0.80435133  0.39477223  -0.00087334  1
  Zr  Zr60  1  0.70249937  0.71417317  0.87750850  1
  Zr  Zr61  1  0.40038300  0.79188722  0.76484864  1
  Zr  Zr62  1  -0.00252160  0.61782549  0.25167240  1
  Zr  Zr63  1  0.59593511  0.38335133  -0.00357628  1
  Zr  Zr64  1  0.80720656  0.79084039  0.24863944  1
  Zr  Zr65  1  0.90574732  0.30724858  0.39099309  1
  Zr  Zr66  1  0.11538377  0.91491046  0.64222280  1
  Zr  Zr67  1  0.30528833  0.30390765  0.37663693  1
  Zr  Zr68  1  0.39218503  0.38057370  0.00471932  1
  Zr  Zr69  1  0.68650297  0.10523856  0.36059446  1
  Zr  Zr70  1  0.90158247  0.90463741  0.37106219  1
  Zr  Zr71  1  0.00583291  0.58920769  0.74955980  1
  Zr  Zr72  1  0.00543609  0.21996658  0.25105949  1
  Zr  Zr73  1  0.19841702  0.41604112  0.50779017  1
  Zr  Zr74  1  0.09367137  0.70878458  0.11269589  1
  Zr  Zr75  1  0.20808096  0.80846819  0.76998832  1
  Zr  Zr76  1  0.47534796  0.69805646  0.37689562  1
  Zr  Zr77  1  0.59088230  0.79194891  0.26282148  1
  Zr  Zr78  1  0.90707914  0.29414577  0.87528628  1
  Zr  Zr79  1  0.40053480  0.59988725  0.23821688  1
  Ta  Ta80  1  0.81319806  0.18684838  0.74067338  1
  Ta  Ta81  1  0.19619945  0.39930466  -0.00829651  1
  Ta  Ta82  1  0.60650066  -0.00941611  0.75451408  1
  Ta  Ta83  1  0.70104522  0.28297524  0.86606221  1
  Ta  Ta84  1  0.39308390  0.19653591  0.51963395  1
  Ta  Ta85  1  0.00426755  0.21920535  0.74718213  1
  Ta  Ta86  1  0.59668595  0.17728387  -0.00840311  1
  Ta  Ta87  1  0.20249721  0.79192318  0.50326594  1
  Ta  Ta88  1  0.50132062  0.48521812  0.12838413  1
  Ta  Ta89  1  0.60198213  0.58714276  0.25775699  1
  Ta  Ta90  1  0.90770458  0.50133126  0.87998832  1
  Ta  Ta91  1  0.20111686  0.21069789  0.73319654  1
  Ta  Ta92  1  0.02160152  0.59660348  0.50788562  1
  Ta  Ta93  1  0.59411154  0.19619103  0.50785338  1
  Ta  Ta94  1  0.38428819  0.40013767  0.75211566  1
  Ta  Ta95  1  0.08865596  0.10994856  0.63316322  1
  Ta  Ta96  1  0.27147545  0.70497041  0.36186587  1
  Ta  Ta97  1  0.29459912  0.70187222  0.11079610  1
  Ta  Ta98  1  0.80068643  0.20219222  0.24814460  1
  Ta  Ta99  1  0.80295052  0.60504726  -0.00120258  1
  Ta  Ta100  1  0.69418734  0.89918818  0.62484525  1
  Ta  Ta101  1  0.41432876  0.81428456  0.00185756  1
  Ta  Ta102  1  0.29601381  0.49554824  0.12803836  1
  Ta  Ta103  1  0.40459416  0.17472594  0.25003801  1
  Ta  Ta104  1  0.31055201  0.89497074  0.37708968  1
  Ta  Ta105  1  0.88382167  0.91408228  0.87425339  1
  Ta  Ta106  1  0.89749339  0.50104337  0.39894790  1
  Ta  Ta107  1  0.20633616  0.02365407  -0.00968120  1
  Ta  Ta108  1  0.90121812  0.10546147  0.37067686  1
  Ta  Ta109  1  0.49156123  0.07531697  0.12295091  1
  Ta  Ta110  1  0.29334697  0.71209677  0.63094633  1
  Ta  Ta111  1  0.68035870  0.10193205  0.14072731  1
  Ta  Ta112  1  0.20206030  0.59283449  -0.01232625  1
  Ta  Ta113  1  0.10801080  0.90168252  0.12718520  1
  Ta  Ta114  1  0.20243971  0.19606141  0.26790859  1
  Ta  Ta115  1  0.89489691  0.10793080  0.13483814  1
  Ta  Ta116  1  0.49533412  0.08645041  0.86043203  1
  Ta  Ta117  1  0.90240330  0.69119532  0.61319908  1
  Ta  Ta118  1  0.20786032  0.21291417  -0.01195992  1
  Ta  Ta119  1  0.71114454  0.08907607  0.86519033  1
  Ti  Ti120  1  0.01286135  0.40259874  -0.00764418  1
  Ti  Ti121  1  0.50417572  0.27319862  0.12817207  1
  Ti  Ti122  1  0.70487245  0.49103842  0.39081905  1
  Ti  Ti123  1  0.79614662  0.00605562  0.24493542  1
  Ti  Ti124  1  0.60672894  0.79572284  0.74789245  1
  Ti  Ti125  1  0.01010724  0.60430557  -0.01361535  1
  Ti  Ti126  1  0.30309526  0.48834990  0.88090985  1
  Ti  Ti127  1  0.10967480  0.69139246  0.63098006  1
  Ti  Ti128  1  0.79021025  0.81037531  0.00175287  1
  Ti  Ti129  1  0.60826396  0.19038841  0.75024118  1
  Ti  Ti130  1  0.91059898  0.48981555  0.60703058  1
  Ti  Ti131  1  0.70446144  0.69873827  0.11990874  1
  Ti  Ti132  1  0.10247583  0.31013998  0.12795155  1
  Ti  Ti133  1  0.60159809  0.39359049  0.24949619  1
  Ti  Ti134  1  0.90165345  0.70564625  0.10694785  1
  Ti  Ti135  1  0.31186644  0.92273405  0.88356398  1
  Ti  Ti136  1  0.38593098  0.80436671  0.50015352  1
  Ti  Ti137  1  0.39536684  0.00067404  0.50995972  1
  Ti  Ti138  1  0.60476302  0.59363714  0.00298440  1
  Ti  Ti139  1  0.00182255  0.01548031  0.49756023  1
  Ti  Ti140  1  0.39966209  0.59228653  0.76201295  1
  Ti  Ti141  1  0.80293943  0.80610181  0.50896805  1
  Ti  Ti142  1  0.38305645  -0.00529709  0.74156658  1
  Ti  Ti143  1  0.31179013  0.69701540  0.89733617  1
  Ti  Ti144  1  0.29977435  0.11024460  0.86533848  1
  Ti  Ti145  1  0.40649391  0.38723402  0.24105310  1
  Ti  Ti146  1  0.40713200  0.41246475  0.50427960  1
  Ti  Ti147  1  0.39557887  0.17631981  0.00096297  1
  Ti  Ti148  1  0.19470357  0.39476358  0.25301134  1
  Ti  Ti149  1  0.79823106  0.80106538  0.73711079  1
  Ti  Ti150  1  0.50041795  0.48422203  0.36428509  1
  Ti  Ti151  1  0.49333133  0.49456935  0.88449382  1
  Ti  Ti152  1  0.91854393  0.29454186  0.61137145  1
  Ti  Ti153  1  0.37264671  0.60602612  0.49730957  1
  Ti  Ti154  1  0.90821258  0.30511638  0.12411258  1
  Ti  Ti155  1  0.39985453  0.58716298  0.01145481  1
  Ti  Ti156  1  0.09913407  0.11717619  0.86004275  1
  Ti  Ti157  1  0.09794289  0.30191500  0.38171436  1
  Ti  Ti158  1  0.50788716  0.89130751  0.86729278  1
  Ti  Ti159  1  0.31266838  0.09893570  0.38460977  1
  Mo  Mo160  1  0.00932328  0.39708149  0.50496706  1
  Mo  Mo161  1  0.59344550  0.39272402  0.49290027  1
  Mo  Mo162  1  0.80302282  0.39793784  0.51055233  1
  Mo  Mo163  1  0.48692059  0.10013522  0.38944920  1
  Mo  Mo164  1  0.48510562  0.91218424  0.38283262  1
  Mo  Mo165  1  0.29893996  0.30638127  0.61937540  1
  Mo  Mo166  1  0.10149138  0.70190240  0.37663436  1
  Mo  Mo167  1  0.20305764  0.61254864  0.50226285  1
  Mo  Mo168  1  -0.00644069  0.02106351  0.75146407  1
  Mo  Mo169  1  0.09160630  0.30986016  0.61828335  1
  Mo  Mo170  1  0.28979998  0.08864891  0.62546420  1
  Mo  Mo171  1  0.57510652  0.00648127  0.25668039  1
  Mo  Mo172  1  0.00640928  0.80692980  0.24404870  1
  Mo  Mo173  1  0.10136474  0.70649408  0.88448868  1
  Mo  Mo174  1  0.70317392  0.89704450  0.86366736  1
  Mo  Mo175  1  0.20835545  0.02223642  0.75601482  1
  Mo  Mo176  1  0.09523274  0.50904461  0.62721081  1
  Mo  Mo177  1  0.20782558  0.60678853  0.23672684  1
  Mo  Mo178  1  0.29314893  0.29558528  0.86972617  1
  Mo  Mo179  1  0.20108992  0.79707794  0.23317962  1
  Mo  Mo180  1  0.91052282  0.10329182  0.62318179  1
  Mo  Mo181  1  0.09888657  0.10334198  0.37721111  1
  Mo  Mo182  1  0.69589033  0.09904748  0.63324185  1
  Mo  Mo183  1  0.40426014  0.00600888  -0.01638340  1
  Mo  Mo184  1  0.00496117  0.19045957  0.49359008  1
  Mo  Mo185  1  0.80637218  0.59744498  0.50513030  1
  Mo  Mo186  1  0.58931261  0.20126683  0.24572404  1
  Mo  Mo187  1  0.48624428  0.50129847  0.62914137  1
  Mo  Mo188  1  -0.00776881  0.81332402  -0.00807380  1
  Mo  Mo189  1  0.60616053  0.79398037  0.00166363  1
  Mo  Mo190  1  0.00283081  0.40231953  0.25300417  1
  Mo  Mo191  1  0.90756212  0.09413719  0.86811429  1
  Mo  Mo192  1  0.30522888  0.10819248  0.12108394  1
  Mo  Mo193  1  0.09585898  0.49872049  0.88372372  1
  Mo  Mo194  1  0.29935941  0.89903714  0.62155757  1
  Mo  Mo195  1  0.10600998  0.30229181  0.87233735  1
  Mo  Mo196  1  -0.00789000  0.40109654  0.74502487  1
  Mo  Mo197  1  0.40475768  -0.00142778  0.25726194  1
  Mo  Mo198  1  0.50021986  0.89725886  0.12118297  1
  Mo  Mo199  1  0.90408779  0.89434744  0.62056583  1
