# generated using pymatgen
data_HfZrTaTiMo
_symmetry_space_group_name_H-M   'P 1'
_cell_length_a   15.19118912
_cell_length_b   15.19980139
_cell_length_c   16.79450704
_cell_angle_alpha   89.96388433
_cell_angle_beta   90.00804906
_cell_angle_gamma   90.06108592
_symmetry_Int_Tables_number   1
_chemical_formula_structural   HfZrTaTiMo
_chemical_formula_sum   'Hf40 Zr40 Ta40 Ti40 Mo40'
_cell_volume   3877.90001388
_cell_formula_units_Z   40
loop_
 _symmetry_equiv_pos_site_id
 _symmetry_equiv_pos_as_xyz
  1  'x, y, z'
loop_
 _atom_site_type_symbol
 _atom_site_label
 _atom_site_symmetry_multiplicity
 _atom_site_fract_x
 _atom_site_fract_y
 _atom_site_fract_z
 _atom_site_occupancy
  Hf  Hf0  1  0.01632326  0.21395309  0.00708690  1
  Hf  Hf1  1  0.00298595  0.59535882  0.48927355  1
  Hf  Hf2  1  0.29288742  0.50910322  0.11904383  1
  Hf  Hf3  1  -0.00382996  0.59978285  -0.00416637  1
  Hf  Hf4  1  0.39544186  0.19569196  -0.00376646  1
  Hf  Hf5  1  0.11033472  0.50826480  0.62470871  1
  Hf  Hf6  1  0.31168405  0.88766162  0.14683027  1
  Hf  Hf7  1  0.18324582  0.38651500  -0.01274504  1
  Hf  Hf8  1  -0.00112827  0.38902046  0.75086771  1
  Hf  Hf9  1  0.79593081  0.60113995  0.49005594  1
  Hf  Hf10  1  0.09429989  0.48610600  0.12160219  1
  Hf  Hf11  1  0.20350614  0.39731161  0.75327657  1
  Hf  Hf12  1  0.80010948  0.41130565  0.00456480  1
  Hf  Hf13  1  0.90214421  0.48480993  0.37517009  1
  Hf  Hf14  1  0.88494869  0.09143207  0.36834480  1
  Hf  Hf15  1  0.78956642  0.17989454  0.51692149  1
  Hf  Hf16  1  0.90292418  0.70155328  0.62719279  1
  Hf  Hf17  1  0.90539136  0.89481555  0.87146603  1
  Hf  Hf18  1  0.79444126  0.60697941  -0.00331231  1
  Hf  Hf19  1  0.39974593  0.20306809  0.25404694  1
  Hf  Hf20  1  0.30779316  0.72124091  0.86756389  1
  Hf  Hf21  1  0.79219218  -0.00561661  0.00069335  1
  Hf  Hf22  1  0.00584410  0.59470367  0.26520366  1
  Hf  Hf23  1  0.08837628  0.30093672  0.61428129  1
  Hf  Hf24  1  0.69750025  0.30371075  0.87792946  1
  Hf  Hf25  1  0.49209798  0.30877393  0.39005532  1
  Hf  Hf26  1  0.69356583  0.28669479  0.38444768  1
  Hf  Hf27  1  0.50755262  0.10299757  0.38620785  1
  Hf  Hf28  1  0.20245321  -0.00300394  0.48139786  1
  Hf  Hf29  1  -0.00042027  0.00726692  0.74364822  1
  Hf  Hf30  1  0.79297196  0.19538021  0.23749724  1
  Hf  Hf31  1  0.39036610  -0.00273031  -0.00085261  1
  Hf  Hf32  1  0.40582238  0.61847597  0.00611116  1
  Hf  Hf33  1  0.51346612  0.70609202  0.86839020  1
  Hf  Hf34  1  0.80104813  0.79505627  0.49245476  1
  Hf  Hf35  1  0.90020183  0.09849244  0.87830521  1
  Hf  Hf36  1  0.91023797  0.30253233  0.88106959  1
  Hf  Hf37  1  0.19540571  0.40552309  0.49184963  1
  Hf  Hf38  1  0.38730469  0.00415391  0.72682559  1
  Hf  Hf39  1  0.20316617  0.60741935  0.26077054  1
  Zr  Zr40  1  0.01348334  0.00075752  0.01366218  1
  Zr  Zr41  1  0.09963391  0.10008661  0.61126893  1
  Zr  Zr42  1  0.90784924  0.49091877  0.62282620  1
  Zr  Zr43  1  0.49804148  0.30531961  0.10899405  1
  Zr  Zr44  1  0.69389831  0.49555145  0.62765325  1
  Zr  Zr45  1  0.39411432  0.41076400  0.24932808  1
  Zr  Zr46  1  0.58929173  -0.03238556  -0.00672694  1
  Zr  Zr47  1  0.60275927  0.61104860  0.49382658  1
  Zr  Zr48  1  0.19581540  -0.00062718  0.73445298  1
  Zr  Zr49  1  0.00040440  -0.00242313  0.25438904  1
  Zr  Zr50  1  0.81938134  0.19681538  0.73406360  1
  Zr  Zr51  1  0.11119353  0.70505538  0.12456292  1
  Zr  Zr52  1  0.70204910  0.51956400  0.13833893  1
  Zr  Zr53  1  0.20275538  0.18364250  0.00379706  1
  Zr  Zr54  1  0.88674126  0.69569080  0.13912808  1
  Zr  Zr55  1  0.79444662  0.79657839  0.00093132  1
  Zr  Zr56  1  0.61005860  0.00312309  0.51841849  1
  Zr  Zr57  1  0.59768461  0.19751967  0.24275251  1
  Zr  Zr58  1  0.38777814  0.20076195  0.74370112  1
  Zr  Zr59  1  0.01153309  0.80211458  0.25495096  1
  Zr  Zr60  1  0.41806417  0.80963916  0.00698195  1
  Zr  Zr61  1  0.50467422  0.30564606  0.61318671  1
  Zr  Zr62  1  0.01888882  0.79667265  0.75063854  1
  Zr  Zr63  1  0.68866114  0.88378517  0.85687734  1
  Zr  Zr64  1  0.79869933  0.19790578  0.00950789  1
  Zr  Zr65  1  0.40804941  0.61153432  0.50344042  1
  Zr  Zr66  1  0.90072096  0.10004851  0.13204740  1
  Zr  Zr67  1  0.20841673  0.80654428  0.00539830  1
  Zr  Zr68  1  0.59282165  0.39873571  0.25162058  1
  Zr  Zr69  1  0.59993417  0.20355841  0.75264857  1
  Zr  Zr70  1  0.79812421  0.39263751  0.24612726  1
  Zr  Zr71  1  0.30323968  0.50635698  0.88067367  1
  Zr  Zr72  1  0.29156848  0.09001342  0.15078260  1
  Zr  Zr73  1  0.40201864  0.40106122  0.74731980  1
  Zr  Zr74  1  0.27951894  0.30052491  0.13357924  1
  Zr  Zr75  1  0.50306831  0.51885957  0.12331705  1
  Zr  Zr76  1  0.59743456  0.18180994  -0.00714772  1
  Zr  Zr77  1  0.80125809  0.38728297  0.50428781  1
  Zr  Zr78  1  0.70284007  0.86862599  0.64089375  1
  Zr  Zr79  1  0.19777532  0.61273637  0.75174022  1
  Ta  Ta80  1  -0.01290550  0.19845786  0.49572564  1
  Ta  Ta81  1  0.11458921  0.90865107  0.87683776  1
  Ta  Ta82  1  0.80274610  0.60204377  0.74842043  1
  Ta  Ta83  1  0.18949449  0.40300637  0.26587889  1
  Ta  Ta84  1  0.30550646  0.50388232  0.37485765  1
  Ta  Ta85  1  0.91757657  0.31041217  0.12501629  1
  Ta  Ta86  1  0.70518947  0.71502276  0.35037014  1
  Ta  Ta87  1  0.10282361  0.71267571  0.39268355  1
  Ta  Ta88  1  0.68432640  0.07625480  0.12630908  1
  Ta  Ta89  1  -0.00742688  -0.00579761  0.48781095  1
  Ta  Ta90  1  0.39063126  0.41250619  0.50636170  1
  Ta  Ta91  1  0.19711787  0.20079802  0.48311678  1
  Ta  Ta92  1  0.89798887  0.89526605  0.12918219  1
  Ta  Ta93  1  0.29521614  0.89169425  0.60722112  1
  Ta  Ta94  1  0.50766438  0.71542662  0.35800714  1
  Ta  Ta95  1  0.10861523  0.71137364  0.60382334  1
  Ta  Ta96  1  0.40260006  0.60752712  0.74027174  1
  Ta  Ta97  1  0.89392657  0.50277622  0.86670457  1
  Ta  Ta98  1  0.49403769  0.09021652  0.86518082  1
  Ta  Ta99  1  0.47680182  0.89739634  0.84497500  1
  Ta  Ta100  1  0.69437334  0.50483940  0.36491714  1
  Ta  Ta101  1  0.50846740  0.49876391  0.87177796  1
  Ta  Ta102  1  0.80315754  -0.01101849  0.51299827  1
  Ta  Ta103  1  0.89882278  0.28548853  0.37230380  1
  Ta  Ta104  1  0.60269411  0.80226466  0.49274184  1
  Ta  Ta105  1  0.40836717  0.81080813  0.48690494  1
  Ta  Ta106  1  0.49444536  0.89056005  0.62963393  1
  Ta  Ta107  1  0.91026824  0.89578765  0.62394007  1
  Ta  Ta108  1  0.59446820  0.00087477  0.73792117  1
  Ta  Ta109  1  0.90330017  0.50107781  0.13404210  1
  Ta  Ta110  1  0.21060752  0.60126256  0.49400189  1
  Ta  Ta111  1  0.29236334  0.08418944  0.86991532  1
  Ta  Ta112  1  0.79460569  0.39628579  0.74671836  1
  Ta  Ta113  1  0.49276386  0.08429002  0.12967139  1
  Ta  Ta114  1  0.10035373  0.10836797  0.86976319  1
  Ta  Ta115  1  0.40066389  0.00146989  0.50301487  1
  Ta  Ta116  1  0.80009605  -0.00337583  0.73594311  1
  Ta  Ta117  1  0.49763075  0.50513754  0.62839303  1
  Ta  Ta118  1  0.60181817  0.59759984  0.74668196  1
  Ta  Ta119  1  0.38708836  0.19933637  0.50143435  1
  Ti  Ti120  1  0.50003064  0.30504355  0.87992901  1
  Ti  Ti121  1  0.00442978  0.39070775  0.25463629  1
  Ti  Ti122  1  0.29064729  0.29822130  0.61710879  1
  Ti  Ti123  1  0.41816397  -0.01421733  0.26761061  1
  Ti  Ti124  1  0.09102610  0.10933182  0.36922755  1
  Ti  Ti125  1  0.69288931  0.30413497  0.11161960  1
  Ti  Ti126  1  0.19918394  0.60499233  -0.00640898  1
  Ti  Ti127  1  0.51317084  0.70876817  0.63060357  1
  Ti  Ti128  1  0.78207867  -0.01992056  0.24596821  1
  Ti  Ti129  1  0.29538708  0.30180786  0.37477160  1
  Ti  Ti130  1  0.19241441  0.19923742  0.74664975  1
  Ti  Ti131  1  0.60677639  0.58886378  -0.00842794  1
  Ti  Ti132  1  0.09959122  0.89151593  0.60262689  1
  Ti  Ti133  1  0.00628842  0.80771162  0.00721575  1
  Ti  Ti134  1  0.50108746  0.10891573  0.61725648  1
  Ti  Ti135  1  0.69311498  0.29516459  0.62561737  1
  Ti  Ti136  1  0.10415824  0.11679387  0.15305512  1
  Ti  Ti137  1  0.69883669  0.08969402  0.86385771  1
  Ti  Ti138  1  0.30675525  0.70771394  0.38019691  1
  Ti  Ti139  1  0.20934140  0.81000649  0.74338283  1
  Ti  Ti140  1  0.40106571  0.40533960  -0.00648318  1
  Ti  Ti141  1  0.20710648  0.80568485  0.26809724  1
  Ti  Ti142  1  0.39799063  0.61565671  0.24963082  1
  Ti  Ti143  1  0.59696423  0.41197965  0.49499103  1
  Ti  Ti144  1  0.09964312  0.70833947  0.88226861  1
  Ti  Ti145  1  0.00412700  0.60005532  0.75351710  1
  Ti  Ti146  1  0.19909528  -0.00428131  0.01090121  1
  Ti  Ti147  1  0.70546108  0.69398364  0.86240464  1
  Ti  Ti148  1  0.08930904  0.49653998  0.87579735  1
  Ti  Ti149  1  0.90267825  0.70007558  0.86748040  1
  Ti  Ti150  1  0.19512476  -0.00928620  0.26934145  1
  Ti  Ti151  1  0.89244703  0.88813541  0.37136154  1
  Ti  Ti152  1  0.29600140  0.28831130  0.87353788  1
  Ti  Ti153  1  0.69665097  0.08441330  0.37358455  1
  Ti  Ti154  1  0.69771250  0.49670117  0.86467162  1
  Ti  Ti155  1  0.49749352  0.51207667  0.37139540  1
  Ti  Ti156  1  0.08761818  0.30498174  0.38031040  1
  Ti  Ti157  1  0.30229077  0.10064405  0.36709541  1
  Ti  Ti158  1  0.30303915  0.70295488  0.61933075  1
  Ti  Ti159  1  0.60465539  0.76947464  0.03301581  1
  Mo  Mo160  1  0.70436593  0.90844608  0.38035951  1
  Mo  Mo161  1  0.51363151  0.90711885  0.38528363  1
  Mo  Mo162  1  -0.00239281  0.80514628  0.49284384  1
  Mo  Mo163  1  0.51055265  0.90814125  0.13519042  1
  Mo  Mo164  1  0.09934216  0.90213513  0.38372743  1
  Mo  Mo165  1  0.21130735  0.79754769  0.49287968  1
  Mo  Mo166  1  0.59653200  0.20408041  0.50616837  1
  Mo  Mo167  1  0.69650045  0.09207501  0.63718639  1
  Mo  Mo168  1  0.30560236  0.69776238  0.13578141  1
  Mo  Mo169  1  0.80499532  0.60157431  0.26809483  1
  Mo  Mo170  1  0.39871195  0.80575445  0.27066272  1
  Mo  Mo171  1  0.90043689  0.29275197  0.62254501  1
  Mo  Mo172  1  0.10558299  0.29693076  0.86787228  1
  Mo  Mo173  1  0.10721171  0.49942455  0.37714506  1
  Mo  Mo174  1  -0.00594707  0.40777850  -0.00261201  1
  Mo  Mo175  1  0.29768819  0.10661617  0.60677665  1
  Mo  Mo176  1  0.19338839  0.20363259  0.27901106  1
  Mo  Mo177  1  -0.00269736  0.20861057  0.25835712  1
  Mo  Mo178  1  0.60317326  0.82368846  0.24540263  1
  Mo  Mo179  1  0.81126303  0.79005316  0.75469353  1
  Mo  Mo180  1  0.90531749  0.08755690  0.61638786  1
  Mo  Mo181  1  0.29648340  0.90780104  0.86951835  1
  Mo  Mo182  1  -0.00084770  0.38952615  0.49403508  1
  Mo  Mo183  1  0.30920905  0.90481698  0.37260823  1
  Mo  Mo184  1  0.68984753  0.70000076  0.15023128  1
  Mo  Mo185  1  0.80588147  0.80665516  0.25409425  1
  Mo  Mo186  1  0.60151899  0.40179070  0.75394526  1
  Mo  Mo187  1  0.59302795  0.78958052  0.74760230  1
  Mo  Mo188  1  0.70166994  0.69070053  0.62974999  1
  Mo  Mo189  1  0.59707978  0.40667951  -0.00711922  1
  Mo  Mo190  1  0.70350923  0.89047385  0.12772050  1
  Mo  Mo191  1  0.10040890  0.29892693  0.14009177  1
  Mo  Mo192  1  0.60048938  0.00161275  0.25435877  1
  Mo  Mo193  1  0.01197775  0.19698524  0.74902215  1
  Mo  Mo194  1  0.39082940  0.79661652  0.73383284  1
  Mo  Mo195  1  0.48926307  0.71840232  0.15572344  1
  Mo  Mo196  1  0.89934822  0.69824824  0.36970801  1
  Mo  Mo197  1  0.59461266  0.60854522  0.26100561  1
  Mo  Mo198  1  0.10945763  0.91454635  0.13175359  1
  Mo  Mo199  1  0.30435528  0.50567457  0.62358671  1
