# generated using pymatgen
data_HfZrTaTiMo
_symmetry_space_group_name_H-M   'P 1'
_cell_length_a   15.21207973
_cell_length_b   15.20375342
_cell_length_c   16.85085622
_cell_angle_alpha   90.05030530
_cell_angle_beta   89.95802967
_cell_angle_gamma   89.82907911
_symmetry_Int_Tables_number   1
_chemical_formula_structural   HfZrTaTiMo
_chemical_formula_sum   'Hf40 Zr40 Ta40 Ti40 Mo40'
_cell_volume   3897.25807891
_cell_formula_units_Z   40
loop_
 _symmetry_equiv_pos_site_id
 _symmetry_equiv_pos_as_xyz
  1  'x, y, z'
loop_
 _atom_site_type_symbol
 _atom_site_label
 _atom_site_symmetry_multiplicity
 _atom_site_fract_x
 _atom_site_fract_y
 _atom_site_fract_z
 _atom_site_occupancy
  Hf  Hf0  1  0.60017856  0.60002923  0.50794992  1
  Hf  Hf1  1  0.59836695  -0.01336547  0.76944442  1
  Hf  Hf2  1  0.19739465  0.82612640  0.75601798  1
  Hf  Hf3  1  0.38998312  0.19796304  0.01163308  1
  Hf  Hf4  1  0.20850422  0.01321819  0.01350985  1
  Hf  Hf5  1  0.79957654  -0.00666813  0.23144755  1
  Hf  Hf6  1  0.50604410  0.88392626  0.62088280  1
  Hf  Hf7  1  0.18693597  0.40615817  -0.00613040  1
  Hf  Hf8  1  0.30099974  0.50886584  0.62565810  1
  Hf  Hf9  1  0.70546635  0.89958002  0.63726331  1
  Hf  Hf10  1  0.70226136  0.49760645  0.86846538  1
  Hf  Hf11  1  0.50045699  0.29671409  0.36700354  1
  Hf  Hf12  1  0.08375243  0.71062602  0.12540456  1
  Hf  Hf13  1  0.30588750  0.70362917  0.86891747  1
  Hf  Hf14  1  0.70622486  0.28957477  0.87465228  1
  Hf  Hf15  1  0.82318531  0.79786359  0.24351204  1
  Hf  Hf16  1  0.39009812  0.00238754  0.74245074  1
  Hf  Hf17  1  0.60850401  0.19412786  0.50314731  1
  Hf  Hf18  1  0.68494961  0.49948171  0.64660555  1
  Hf  Hf19  1  0.50096346  0.68208225  0.64949937  1
  Hf  Hf20  1  0.80540384  0.19582017  0.23079334  1
  Hf  Hf21  1  0.29373255  0.50445930  0.86308903  1
  Hf  Hf22  1  0.30875822  0.90277875  0.13646701  1
  Hf  Hf23  1  -0.00420020  0.61007931  0.25228811  1
  Hf  Hf24  1  0.61802231  0.79153891  0.24264839  1
  Hf  Hf25  1  0.92584737  0.30391026  0.11736863  1
  Hf  Hf26  1  0.89657951  0.51035701  0.12415259  1
  Hf  Hf27  1  0.09582418  0.89294321  0.36485731  1
  Hf  Hf28  1  0.69674228  0.09847092  0.36757107  1
  Hf  Hf29  1  0.90324017  0.10351995  0.36968349  1
  Hf  Hf30  1  0.30057402  0.71617766  0.63427864  1
  Hf  Hf31  1  0.49415182  0.49953180  0.12147398  1
  Hf  Hf32  1  0.41505608  0.79442982  0.24190953  1
  Hf  Hf33  1  0.30553929  0.92216977  0.88393844  1
  Hf  Hf34  1  0.29892878  0.30122112  0.61028223  1
  Hf  Hf35  1  0.00518059  -0.02535367  0.75960040  1
  Hf  Hf36  1  0.41591186  0.80582966  -0.00231392  1
  Hf  Hf37  1  0.51053945  0.90370022  0.37639293  1
  Hf  Hf38  1  0.20852188  0.58622267  0.23912861  1
  Hf  Hf39  1  0.80906535  -0.01108743  -0.00992277  1
  Zr  Zr40  1  0.87995754  0.50826228  0.38068126  1
  Zr  Zr41  1  -0.00801039  0.60705010  0.73477444  1
  Zr  Zr42  1  0.90550882  0.11425396  0.88392971  1
  Zr  Zr43  1  0.18988089  0.40034890  0.74719088  1
  Zr  Zr44  1  0.11260080  0.09335565  0.86389154  1
  Zr  Zr45  1  0.19542408  0.80834349  0.00194180  1
  Zr  Zr46  1  0.89881859  0.09367967  0.62508407  1
  Zr  Zr47  1  0.70837073  0.89278450  0.37264657  1
  Zr  Zr48  1  0.78535389  0.40425268  0.50857813  1
  Zr  Zr49  1  0.08782107  0.49463416  0.39007412  1
  Zr  Zr50  1  0.39461275  0.60780969  0.49849443  1
  Zr  Zr51  1  0.49726492  0.51983432  0.87106793  1
  Zr  Zr52  1  0.59038697  0.19256482  0.75864283  1
  Zr  Zr53  1  0.70434779  0.30058936  0.36724103  1
  Zr  Zr54  1  -0.00538977  0.60021181  -0.00684973  1
  Zr  Zr55  1  0.10517400  0.09544033  0.62159337  1
  Zr  Zr56  1  0.11298526  0.90328800  0.61266039  1
  Zr  Zr57  1  0.79845828  0.40220277  0.24365816  1
  Zr  Zr58  1  0.50050755  0.09653201  0.62299120  1
  Zr  Zr59  1  0.20476633  0.60479678  0.00800798  1
  Zr  Zr60  1  0.79288289  0.79611021  0.50611698  1
  Zr  Zr61  1  0.28418966  0.31150056  0.14260552  1
  Zr  Zr62  1  0.90949046  0.71035528  0.38214969  1
  Zr  Zr63  1  0.38909225  0.40206427  -0.00166337  1
  Zr  Zr64  1  0.09239436  0.47684740  0.13109637  1
  Zr  Zr65  1  0.09904075  0.29343169  0.60703623  1
  Zr  Zr66  1  0.18371597  0.20745419  0.00532317  1
  Zr  Zr67  1  -0.01842527  0.20741022  0.74156608  1
  Zr  Zr68  1  0.31088163  0.09538139  0.35871571  1
  Zr  Zr69  1  0.00238629  0.80369905  0.50574050  1
  Zr  Zr70  1  0.30620139  0.89523743  0.36145702  1
  Zr  Zr71  1  0.80478931  0.40344670  -0.00094146  1
  Zr  Zr72  1  0.39864029  0.60795830  0.24721204  1
  Zr  Zr73  1  0.81863383  0.79695911  0.77286853  1
  Zr  Zr74  1  0.78081435  0.60656790  0.24019994  1
  Zr  Zr75  1  0.29404176  0.10107655  0.15673202  1
  Zr  Zr76  1  0.58935610  0.39850736  0.50418614  1
  Zr  Zr77  1  0.07353590  0.30428374  0.87244274  1
  Zr  Zr78  1  0.80777274  0.00002127  0.49834432  1
  Zr  Zr79  1  0.48403420  0.09737815  0.88600830  1
  Ta  Ta80  1  0.59370895  -0.01384182  -0.00969895  1
  Ta  Ta81  1  0.49841874  0.50201233  0.37097093  1
  Ta  Ta82  1  0.59453973  0.40499163  0.24711587  1
  Ta  Ta83  1  0.29590105  0.30764096  0.37819888  1
  Ta  Ta84  1  0.38657731  0.41132560  0.25596697  1
  Ta  Ta85  1  0.70877547  0.87687158  0.10029677  1
  Ta  Ta86  1  0.20404994  0.19016660  0.48189236  1
  Ta  Ta87  1  0.29691118  0.10236274  0.61260423  1
  Ta  Ta88  1  0.50851900  0.70332847  0.37924198  1
  Ta  Ta89  1  0.28760531  0.50626225  0.38655995  1
  Ta  Ta90  1  0.70437291  0.09462784  0.63592744  1
  Ta  Ta91  1  0.79065626  0.61177407  0.00006932  1
  Ta  Ta92  1  -0.01043055  0.59988552  0.52158533  1
  Ta  Ta93  1  0.40017860  0.39737796  0.74898431  1
  Ta  Ta94  1  0.40498878  0.20152354  0.49247725  1
  Ta  Ta95  1  0.19110352  0.61349203  0.74810726  1
  Ta  Ta96  1  0.20444639  0.78276045  0.24634839  1
  Ta  Ta97  1  0.49713811  0.30404613  0.62653092  1
  Ta  Ta98  1  0.69947199  0.68590515  0.38189715  1
  Ta  Ta99  1  0.69298235  0.30286632  0.12074576  1
  Ta  Ta100  1  0.90954451  0.30654298  0.37956108  1
  Ta  Ta101  1  0.70221683  0.28644054  0.63898965  1
  Ta  Ta102  1  0.80082352  0.00140768  0.77203030  1
  Ta  Ta103  1  0.69553655  0.08796897  0.10909806  1
  Ta  Ta104  1  0.60075952  0.19337284  0.23238027  1
  Ta  Ta105  1  0.91434384  0.88637918  0.10898676  1
  Ta  Ta106  1  0.60541756  -0.00879038  0.50330314  1
  Ta  Ta107  1  0.80152012  0.19914583  0.01315873  1
  Ta  Ta108  1  0.51556641  0.90376066  0.12002518  1
  Ta  Ta109  1  0.59689393  0.20052729  0.00829448  1
  Ta  Ta110  1  0.91668116  0.09353656  0.11478194  1
  Ta  Ta111  1  0.59465402  0.39619515  -0.00331239  1
  Ta  Ta112  1  -0.01657952  0.39831725  0.51954455  1
  Ta  Ta113  1  0.69788666  0.70518758  0.64095727  1
  Ta  Ta114  1  0.49768732  0.30198340  0.13110459  1
  Ta  Ta115  1  0.08222475  0.71885466  0.86777534  1
  Ta  Ta116  1  0.09997479  0.91242537  0.13817149  1
  Ta  Ta117  1  -0.01299410  0.40719976  0.72634709  1
  Ta  Ta118  1  0.59049552  0.39355558  0.75463200  1
  Ta  Ta119  1  0.01193637  0.21713166  0.25723277  1
  Ti  Ti120  1  0.69773524  0.09772463  0.88864476  1
  Ti  Ti121  1  0.29865924  0.11382641  0.87126305  1
  Ti  Ti122  1  0.00483175  0.00578932  0.48870043  1
  Ti  Ti123  1  0.68463892  0.50520721  0.11312279  1
  Ti  Ti124  1  0.80728011  0.38303533  0.74649490  1
  Ti  Ti125  1  0.39880556  0.40400171  0.49614833  1
  Ti  Ti126  1  0.81188545  0.20564781  0.50426978  1
  Ti  Ti127  1  0.21536288  0.79056386  0.48896587  1
  Ti  Ti128  1  0.50623532  0.09667816  0.36777898  1
  Ti  Ti129  1  0.09818923  0.11299559  0.14361007  1
  Ti  Ti130  1  0.20432837  0.19935732  0.74302800  1
  Ti  Ti131  1  0.52329103  0.70140300  0.11004904  1
  Ti  Ti132  1  0.30477702  0.90881355  0.61378763  1
  Ti  Ti133  1  0.90273184  0.49205807  0.86840211  1
  Ti  Ti134  1  0.10404957  0.09835297  0.36429679  1
  Ti  Ti135  1  0.20841462  -0.00320106  0.48636003  1
  Ti  Ti136  1  0.59456984  0.60001130  0.24974229  1
  Ti  Ti137  1  0.80166955  0.59897988  0.74893842  1
  Ti  Ti138  1  0.09057923  0.50991544  0.86515528  1
  Ti  Ti139  1  0.40701813  0.20749208  0.25002348  1
  Ti  Ti140  1  0.11666888  0.68839838  0.38149371  1
  Ti  Ti141  1  0.17696095  0.38515020  0.26523719  1
  Ti  Ti142  1  0.90278542  0.89140640  0.63381060  1
  Ti  Ti143  1  0.41251644  0.80789483  0.76438248  1
  Ti  Ti144  1  0.60438428  -0.00331161  0.23778950  1
  Ti  Ti145  1  -0.00685574  -0.00348559  0.24915125  1
  Ti  Ti146  1  0.10628852  0.50235111  0.61243838  1
  Ti  Ti147  1  0.09590501  0.29964449  0.39762301  1
  Ti  Ti148  1  0.79702722  0.60041723  0.51927763  1
  Ti  Ti149  1  0.40465571  0.00429491  0.49789690  1
  Ti  Ti150  1  0.69369415  0.69127792  0.88023599  1
  Ti  Ti151  1  0.49115856  0.30081768  0.87855260  1
  Ti  Ti152  1  0.39217992  0.20620844  0.74531412  1
  Ti  Ti153  1  0.10537165  0.70384473  0.62134398  1
  Ti  Ti154  1  0.01630809  -0.00554444  -0.00454273  1
  Ti  Ti155  1  0.40820658  0.80051973  0.49450658  1
  Ti  Ti156  1  0.29522789  0.29847704  0.86900320  1
  Ti  Ti157  1  0.60475030  0.79393527  0.77529150  1
  Ti  Ti158  1  0.39790668  0.60876082  0.01075218  1
  Ti  Ti159  1  0.49681816  0.09352170  0.12242519  1
  Mo  Mo160  1  0.10640819  0.90300729  0.88033899  1
  Mo  Mo161  1  0.30167770  0.50185656  0.12513662  1
  Mo  Mo162  1  0.92154215  0.88769607  0.88624365  1
  Mo  Mo163  1  -0.00498297  0.40008036  0.26264960  1
  Mo  Mo164  1  0.67954303  0.50916959  0.37263373  1
  Mo  Mo165  1  0.89247083  0.31085672  0.87736633  1
  Mo  Mo166  1  0.70119105  0.69593346  0.11279839  1
  Mo  Mo167  1  0.09986700  0.29246625  0.13089386  1
  Mo  Mo168  1  0.49089965  0.48870797  0.63768038  1
  Mo  Mo169  1  0.00860490  0.79266626  0.74051180  1
  Mo  Mo170  1  0.50075221  0.70006419  0.86881527  1
  Mo  Mo171  1  0.42962447  0.00238946  0.24398795  1
  Mo  Mo172  1  0.30467132  0.70158576  0.12057730  1
  Mo  Mo173  1  -0.00123407  0.19591173  0.48646643  1
  Mo  Mo174  1  0.20203493  0.40309744  0.49629082  1
  Mo  Mo175  1  0.18833351  -0.00555204  0.24947938  1
  Mo  Mo176  1  0.88799177  0.49894859  0.62935433  1
  Mo  Mo177  1  0.59649170  0.59755153  0.00016056  1
  Mo  Mo178  1  0.90623497  0.91036564  0.37072523  1
  Mo  Mo179  1  0.38998230  0.60286004  0.75033505  1
  Mo  Mo180  1  0.79084715  0.19050458  0.75279329  1
  Mo  Mo181  1  0.19516540  0.20415792  0.27550892  1
  Mo  Mo182  1  0.00135910  0.40073391  -0.01076929  1
  Mo  Mo183  1  0.40312454  0.00492312  0.01348247  1
  Mo  Mo184  1  0.59578775  0.79249224  0.50558696  1
  Mo  Mo185  1  0.49751737  0.89558279  0.87702284  1
  Mo  Mo186  1  0.89253627  0.70729078  0.11830542  1
  Mo  Mo187  1  0.89930834  0.68260614  0.87426825  1
  Mo  Mo188  1  0.70528081  0.89560019  0.88751436  1
  Mo  Mo189  1  0.01074784  0.80556450  0.25051429  1
  Mo  Mo190  1  -0.00246397  0.19072437  0.00370191  1
  Mo  Mo191  1  0.88996103  0.70325945  0.62449830  1
  Mo  Mo192  1  0.61117929  0.79119338  -0.01494924  1
  Mo  Mo193  1  0.60693300  0.60251099  0.75484535  1
  Mo  Mo194  1  0.00001979  0.80443118  -0.00358002  1
  Mo  Mo195  1  0.89007007  0.29494998  0.61795854  1
  Mo  Mo196  1  0.29811125  0.69981686  0.37686974  1
  Mo  Mo197  1  0.19092036  0.60902852  0.50548775  1
  Mo  Mo198  1  0.81150195  0.79090617  -0.02056088  1
  Mo  Mo199  1  0.21300947  0.01173390  0.74488719  1
