# generated using pymatgen
data_HfZrTaTiMo
_symmetry_space_group_name_H-M   'P 1'
_cell_length_a   15.20710971
_cell_length_b   15.19889905
_cell_length_c   16.86861891
_cell_angle_alpha   89.96808330
_cell_angle_beta   90.01355306
_cell_angle_gamma   90.05878067
_symmetry_Int_Tables_number   1
_chemical_formula_structural   HfZrTaTiMo
_chemical_formula_sum   'Hf40 Zr40 Ta40 Ti40 Mo40'
_cell_volume   3898.86347979
_cell_formula_units_Z   40
loop_
 _symmetry_equiv_pos_site_id
 _symmetry_equiv_pos_as_xyz
  1  'x, y, z'
loop_
 _atom_site_type_symbol
 _atom_site_label
 _atom_site_symmetry_multiplicity
 _atom_site_fract_x
 _atom_site_fract_y
 _atom_site_fract_z
 _atom_site_occupancy
  Hf  Hf0  1  0.40273096  0.80226810  0.48579393  1
  Hf  Hf1  1  0.10256935  0.89459578  0.37380352  1
  Hf  Hf2  1  0.59831912  0.59640995  0.49404252  1
  Hf  Hf3  1  0.70566134  0.50102052  0.37110683  1
  Hf  Hf4  1  0.19966798  0.01131061  0.00695785  1
  Hf  Hf5  1  0.48906641  0.10444176  0.13242190  1
  Hf  Hf6  1  0.49730696  0.30005593  0.87984554  1
  Hf  Hf7  1  0.60439836  0.00359467  0.00652736  1
  Hf  Hf8  1  0.70561472  0.30038421  0.13383438  1
  Hf  Hf9  1  0.10192445  0.90310425  0.87376898  1
  Hf  Hf10  1  0.89066110  0.10180144  0.61922040  1
  Hf  Hf11  1  0.89848847  0.49992521  0.11810144  1
  Hf  Hf12  1  0.29028928  0.31474087  0.37041049  1
  Hf  Hf13  1  0.79126633  0.59033805  0.74712135  1
  Hf  Hf14  1  0.59515642  0.80858253  0.75241282  1
  Hf  Hf15  1  0.50901857  0.30244775  0.61766677  1
  Hf  Hf16  1  0.09895793  0.28495402  0.87545840  1
  Hf  Hf17  1  0.59452305  0.59597142  0.24870357  1
  Hf  Hf18  1  0.40529009  0.20699766  0.26826361  1
  Hf  Hf19  1  0.80823144  0.80869274  0.74574429  1
  Hf  Hf20  1  0.08050922  0.30050733  0.36009559  1
  Hf  Hf21  1  0.29605161  0.30404107  0.61987793  1
  Hf  Hf22  1  0.39133493  0.00213344  0.26804253  1
  Hf  Hf23  1  0.39950831  0.40268410  0.75503018  1
  Hf  Hf24  1  0.39958402  -0.00860531  0.74757315  1
  Hf  Hf25  1  0.28527614  0.10129482  0.87034187  1
  Hf  Hf26  1  0.01083095  0.80115722  -0.00157692  1
  Hf  Hf27  1  0.28542710  0.10444360  0.60722685  1
  Hf  Hf28  1  0.70623836  0.91424174  0.87849236  1
  Hf  Hf29  1  0.10287074  0.30093206  0.12923681  1
  Hf  Hf30  1  0.18568239  0.57674086  0.24460185  1
  Hf  Hf31  1  0.37900093  0.19811529  -0.00100698  1
  Hf  Hf32  1  0.69664388  0.69473784  0.61990033  1
  Hf  Hf33  1  0.49842584  0.71558371  0.61865172  1
  Hf  Hf34  1  0.09274276  0.68530347  0.37444476  1
  Hf  Hf35  1  0.69950753  0.69999538  0.88060881  1
  Hf  Hf36  1  0.19066118  0.80116705  0.51087944  1
  Hf  Hf37  1  0.49468828  0.09721585  0.61123727  1
  Hf  Hf38  1  0.00544727  0.00535790  0.24128677  1
  Hf  Hf39  1  0.30121201  0.68933773  0.36725251  1
  Zr  Zr40  1  0.29873761  0.88942481  0.87664136  1
  Zr  Zr41  1  0.80498245  0.81729443  -0.00034423  1
  Zr  Zr42  1  -0.00673001  -0.00388232  0.73930928  1
  Zr  Zr43  1  0.60025571  0.20161871  0.00434574  1
  Zr  Zr44  1  0.90558435  0.70076388  0.11172789  1
  Zr  Zr45  1  0.60549391  0.80091283  0.24144879  1
  Zr  Zr46  1  0.29797046  0.29038765  0.13305744  1
  Zr  Zr47  1  0.17673469  0.39816511  0.49937371  1
  Zr  Zr48  1  0.10283901  0.89244244  0.12703496  1
  Zr  Zr49  1  0.89889303  0.90289356  0.37797077  1
  Zr  Zr50  1  0.92771827  0.50126727  0.37911307  1
  Zr  Zr51  1  0.11602995  0.69586084  0.86709799  1
  Zr  Zr52  1  0.80459597  0.80914787  0.24600573  1
  Zr  Zr53  1  0.91002588  0.11325823  0.37531022  1
  Zr  Zr54  1  0.88578987  0.30057194  0.62886370  1
  Zr  Zr55  1  0.10489938  0.48642362  0.86104702  1
  Zr  Zr56  1  0.58956874  0.59691097  0.00273207  1
  Zr  Zr57  1  0.00448149  0.21291617  0.50210986  1
  Zr  Zr58  1  0.71353742  0.30170644  0.88829410  1
  Zr  Zr59  1  0.90805721  0.70164138  0.61428586  1
  Zr  Zr60  1  0.38610353  -0.00412758  0.48005674  1
  Zr  Zr61  1  0.89082487  0.49108423  0.88168587  1
  Zr  Zr62  1  0.79808354  0.82204044  0.51095678  1
  Zr  Zr63  1  0.49842108  0.51210421  0.62598756  1
  Zr  Zr64  1  0.59893418  0.38831134  0.48168620  1
  Zr  Zr65  1  0.21723139  0.58995141  0.50172455  1
  Zr  Zr66  1  0.40333505  0.80350849  0.26038810  1
  Zr  Zr67  1  0.49926705  0.31791513  0.13137466  1
  Zr  Zr68  1  0.31034838  0.90351386  0.12366012  1
  Zr  Zr69  1  -0.00413508  0.60153119  0.74707671  1
  Zr  Zr70  1  0.61731520  0.20718342  0.75035747  1
  Zr  Zr71  1  0.51534950  0.09374858  0.37638984  1
  Zr  Zr72  1  0.60776552  0.41187064  0.75471380  1
  Zr  Zr73  1  0.79810201  0.01512402  0.24578719  1
  Zr  Zr74  1  0.39897272  0.19525198  0.75059782  1
  Zr  Zr75  1  0.00547163  -0.01549022  0.51792080  1
  Zr  Zr76  1  0.38743651  0.59984758  0.00712968  1
  Zr  Zr77  1  0.59962520  0.00988624  0.74949029  1
  Zr  Zr78  1  0.70511447  0.69206339  0.11281948  1
  Zr  Zr79  1  0.81148582  0.60473113  0.25561551  1
  Ta  Ta80  1  0.19843025  0.18261204  0.25737090  1
  Ta  Ta81  1  0.29692138  0.51490092  0.86118339  1
  Ta  Ta82  1  0.29278886  0.69665874  0.13493139  1
  Ta  Ta83  1  0.61130766  0.19347832  0.48795422  1
  Ta  Ta84  1  0.20285327  0.79839169  0.73497192  1
  Ta  Ta85  1  0.59638425  -0.01660997  0.50751126  1
  Ta  Ta86  1  0.19673760  0.58994011  0.00661232  1
  Ta  Ta87  1  0.90339691  0.29064941  0.13723465  1
  Ta  Ta88  1  0.80818218  0.39266471  0.48602599  1
  Ta  Ta89  1  -0.00162596  0.78800106  0.24732743  1
  Ta  Ta90  1  0.30861901  0.89610878  0.62341157  1
  Ta  Ta91  1  0.48684354  0.70393932  0.87472615  1
  Ta  Ta92  1  0.90161232  0.70181489  0.87847810  1
  Ta  Ta93  1  0.29813637  0.50366692  0.64199658  1
  Ta  Ta94  1  0.10375271  0.48961716  0.64343226  1
  Ta  Ta95  1  0.79661340  0.38705171  0.75007119  1
  Ta  Ta96  1  0.20993704  0.78279632  0.00572910  1
  Ta  Ta97  1  0.09746635  0.29242510  0.63658282  1
  Ta  Ta98  1  0.89541665  0.09725167  0.88047241  1
  Ta  Ta99  1  0.39584441  0.40843229  -0.00724277  1
  Ta  Ta100  1  0.01081892  0.41904013  0.23881004  1
  Ta  Ta101  1  0.01948587  0.58943140  0.51484248  1
  Ta  Ta102  1  0.00399344  0.59247719  -0.00947307  1
  Ta  Ta103  1  0.38966226  0.41927376  0.49722821  1
  Ta  Ta104  1  0.50982672  0.69903851  0.37874605  1
  Ta  Ta105  1  0.69319362  0.49042083  0.12867674  1
  Ta  Ta106  1  0.19247641  -0.00269113  0.73385710  1
  Ta  Ta107  1  0.70951359  0.48129706  0.61448179  1
  Ta  Ta108  1  0.00206249  0.39013311  0.00364310  1
  Ta  Ta109  1  0.90572637  0.70464350  0.39392584  1
  Ta  Ta110  1  0.50023965  0.89988238  0.88375560  1
  Ta  Ta111  1  0.20569314  0.39826152  -0.00252761  1
  Ta  Ta112  1  0.70641961  0.71025634  0.38606991  1
  Ta  Ta113  1  0.59389573  0.40824291  0.00295917  1
  Ta  Ta114  1  0.68572765  0.90948477  0.37535624  1
  Ta  Ta115  1  0.48976443  0.70273197  0.12483856  1
  Ta  Ta116  1  0.30877482  0.69330430  0.62598453  1
  Ta  Ta117  1  0.60068201  -0.00002891  0.24102258  1
  Ta  Ta118  1  0.59115947  0.80385334  0.00276789  1
  Ta  Ta119  1  0.40319397  0.21528917  0.48302704  1
  Ti  Ti120  1  0.19871854  0.79697324  0.24942837  1
  Ti  Ti121  1  0.80508999  0.39671694  0.25624499  1
  Ti  Ti122  1  0.29885228  0.48473516  0.13100343  1
  Ti  Ti123  1  0.50118826  0.09637219  0.87924645  1
  Ti  Ti124  1  0.80624657  0.59240871  0.49992591  1
  Ti  Ti125  1  0.69601713  0.91172888  0.62883982  1
  Ti  Ti126  1  0.70817828  0.90877773  0.11858310  1
  Ti  Ti127  1  0.11310211  0.09409249  0.38395788  1
  Ti  Ti128  1  0.20543616  -0.00060937  0.25083346  1
  Ti  Ti129  1  0.09750806  0.68455555  0.12605268  1
  Ti  Ti130  1  0.80071606  0.39613638  0.00822060  1
  Ti  Ti131  1  -0.01524720  -0.00041425  0.01416236  1
  Ti  Ti132  1  0.90271130  0.49099095  0.62031778  1
  Ti  Ti133  1  0.69847236  0.50181714  0.88451910  1
  Ti  Ti134  1  0.28934016  0.30808392  0.87088880  1
  Ti  Ti135  1  0.89982453  0.28739687  0.87631021  1
  Ti  Ti136  1  -0.00631837  0.38898985  0.75199544  1
  Ti  Ti137  1  0.00718067  0.80359704  0.73798492  1
  Ti  Ti138  1  0.47854516  0.50032228  0.37232336  1
  Ti  Ti139  1  0.39982279  0.79793899  0.00172789  1
  Ti  Ti140  1  0.08905256  0.09446602  0.87942149  1
  Ti  Ti141  1  0.19050881  0.19349879  0.74684108  1
  Ti  Ti142  1  0.39895758  0.59125565  0.24076772  1
  Ti  Ti143  1  0.78585994  0.01609281  0.49773988  1
  Ti  Ti144  1  0.49664601  0.50770887  0.87227840  1
  Ti  Ti145  1  0.58970771  0.39622467  0.26303702  1
  Ti  Ti146  1  0.50265273  0.90106013  0.12114744  1
  Ti  Ti147  1  0.90460187  0.90626987  0.87444528  1
  Ti  Ti148  1  0.59421286  0.60581712  0.75374619  1
  Ti  Ti149  1  0.79295674  0.21107597  0.48177727  1
  Ti  Ti150  1  -0.00683109  0.19105594  0.75036231  1
  Ti  Ti151  1  0.61715380  0.19570491  0.26103958  1
  Ti  Ti152  1  0.40262614  0.00164650  -0.00080885  1
  Ti  Ti153  1  -0.00515687  0.19249151  0.00510560  1
  Ti  Ti154  1  0.69964670  0.11890686  0.61995744  1
  Ti  Ti155  1  0.39773660  0.79385983  0.75274333  1
  Ti  Ti156  1  0.79649568  0.01330432  0.74738061  1
  Ti  Ti157  1  0.10407041  0.11012549  0.12320096  1
  Ti  Ti158  1  0.71306042  0.10840546  0.88641009  1
  Ti  Ti159  1  0.71689167  0.10970813  0.12011045  1
  Mo  Mo160  1  -0.00271700  0.60554625  0.24606730  1
  Mo  Mo161  1  0.10739028  0.49297445  0.37478902  1
  Mo  Mo162  1  0.09921755  0.10800897  0.62839034  1
  Mo  Mo163  1  0.49596094  0.49865197  0.12947477  1
  Mo  Mo164  1  0.00386192  0.19817047  0.24520204  1
  Mo  Mo165  1  0.19949980  0.39382397  0.24773541  1
  Mo  Mo166  1  0.11089986  0.69107434  0.63301928  1
  Mo  Mo167  1  0.29354983  0.10067084  0.13120540  1
  Mo  Mo168  1  0.80379917  0.20723759  0.25791904  1
  Mo  Mo169  1  0.20046420  0.38921059  0.74809626  1
  Mo  Mo170  1  0.28231350  0.89870677  0.37163943  1
  Mo  Mo171  1  0.00344509  0.78864960  0.50852683  1
  Mo  Mo172  1  0.70273837  0.29604040  0.61521213  1
  Mo  Mo173  1  0.80524198  0.19048100  0.75436008  1
  Mo  Mo174  1  0.80219657  0.59235958  -0.00973513  1
  Mo  Mo175  1  0.19864221  0.19790710  0.49215487  1
  Mo  Mo176  1  0.70493717  0.09373724  0.37932221  1
  Mo  Mo177  1  0.40521404  0.60938017  0.75498823  1
  Mo  Mo178  1  0.30172684  0.69967923  0.87459648  1
  Mo  Mo179  1  0.28732430  0.10583474  0.38875279  1
  Mo  Mo180  1  0.19424536  -0.00298408  0.50972966  1
  Mo  Mo181  1  0.18708948  0.20348701  -0.00657285  1
  Mo  Mo182  1  0.50102997  0.30443485  0.37464712  1
  Mo  Mo183  1  0.80730522  0.01356794  0.00786928  1
  Mo  Mo184  1  0.49771135  0.90105786  0.62543829  1
  Mo  Mo185  1  0.60319506  0.80350370  0.49768931  1
  Mo  Mo186  1  0.20759764  0.60266740  0.74142028  1
  Mo  Mo187  1  0.39939384  0.41205464  0.25553510  1
  Mo  Mo188  1  0.29998862  0.50068831  0.36539459  1
  Mo  Mo189  1  0.90765215  0.10991832  0.12675440  1
  Mo  Mo190  1  0.09887624  0.49568336  0.10969212  1
  Mo  Mo191  1  0.10230923  0.89486806  0.62996243  1
  Mo  Mo192  1  0.90325382  0.90840680  0.12614907  1
  Mo  Mo193  1  0.70442797  0.29517363  0.35886119  1
  Mo  Mo194  1  0.89666942  0.30898545  0.36115199  1
  Mo  Mo195  1  0.81649823  0.20431700  0.00599344  1
  Mo  Mo196  1  0.88950904  0.90254104  0.63054589  1
  Mo  Mo197  1  0.50761764  0.89345473  0.37019974  1
  Mo  Mo198  1  0.40225853  0.59948499  0.49598317  1
  Mo  Mo199  1  -0.00580276  0.40532293  0.51154889  1
