# generated using pymatgen
data_HfZrTaTiMo
_symmetry_space_group_name_H-M   'P 1'
_cell_length_a   15.21783841
_cell_length_b   15.19166699
_cell_length_c   16.77327541
_cell_angle_alpha   90.00670170
_cell_angle_beta   90.00533347
_cell_angle_gamma   89.91408535
_symmetry_Int_Tables_number   1
_chemical_formula_structural   HfZrTaTiMo
_chemical_formula_sum   'Hf40 Zr40 Ta40 Ti40 Mo40'
_cell_volume   3877.71409467
_cell_formula_units_Z   40
loop_
 _symmetry_equiv_pos_site_id
 _symmetry_equiv_pos_as_xyz
  1  'x, y, z'
loop_
 _atom_site_type_symbol
 _atom_site_label
 _atom_site_symmetry_multiplicity
 _atom_site_fract_x
 _atom_site_fract_y
 _atom_site_fract_z
 _atom_site_occupancy
  Hf  Hf0  1  0.00266167  0.41142344  0.49222677  1
  Hf  Hf1  1  0.19855522  0.80191436  0.47474332  1
  Hf  Hf2  1  0.79370804  0.19268250  -0.00917660  1
  Hf  Hf3  1  0.91021757  0.29558931  0.87855333  1
  Hf  Hf4  1  0.00023565  0.01505528  0.24371370  1
  Hf  Hf5  1  0.89826888  0.50342478  0.87550514  1
  Hf  Hf6  1  0.49758366  0.89810405  0.12199452  1
  Hf  Hf7  1  0.79383006  0.59839901  -0.00262337  1
  Hf  Hf8  1  0.69799744  0.28341369  0.63006389  1
  Hf  Hf9  1  0.01422519  0.19300258  0.75062291  1
  Hf  Hf10  1  0.49593380  0.29944587  0.38129265  1
  Hf  Hf11  1  0.48610075  0.90991211  0.62217194  1
  Hf  Hf12  1  0.20268701  0.40505981  0.00654075  1
  Hf  Hf13  1  0.02147743  0.59849552  0.25086891  1
  Hf  Hf14  1  0.69474521  0.70818956  0.61957503  1
  Hf  Hf15  1  0.29619351  0.52109965  0.62755959  1
  Hf  Hf16  1  0.11234174  0.28946884  0.39121948  1
  Hf  Hf17  1  0.80476350  0.79198153  -0.01174607  1
  Hf  Hf18  1  0.38995213  0.21405476  0.25093928  1
  Hf  Hf19  1  0.48934796  0.49960851  0.37681599  1
  Hf  Hf20  1  0.79612562  0.00887066  0.50088344  1
  Hf  Hf21  1  0.29579847  0.10505167  0.11387007  1
  Hf  Hf22  1  0.58898319  0.40359586  0.24601728  1
  Hf  Hf23  1  0.10650154  0.29373905  0.60930978  1
  Hf  Hf24  1  0.00701911  -0.00255328  0.74899106  1
  Hf  Hf25  1  0.49522497  0.29907272  0.11229472  1
  Hf  Hf26  1  0.19620707  -0.00293952  0.25546625  1
  Hf  Hf27  1  0.69608669  0.89865586  0.37420781  1
  Hf  Hf28  1  0.90919004  0.90452629  0.38242699  1
  Hf  Hf29  1  0.30282884  0.08284459  0.61325528  1
  Hf  Hf30  1  0.30342199  0.50803898  0.86486028  1
  Hf  Hf31  1  0.10442447  0.50436989  0.87065225  1
  Hf  Hf32  1  0.81139014  0.79110256  0.75838432  1
  Hf  Hf33  1  0.78596104  0.39786741  0.49150018  1
  Hf  Hf34  1  0.79669334  0.39733464  0.00706082  1
  Hf  Hf35  1  0.49897209  0.50283121  0.87802523  1
  Hf  Hf36  1  0.89756458  0.30078977  0.61746209  1
  Hf  Hf37  1  0.47486001  0.70692735  0.61215871  1
  Hf  Hf38  1  0.50622170  0.68942975  0.11916434  1
  Hf  Hf39  1  0.91230060  0.70606217  0.38637947  1
  Zr  Zr40  1  0.69734244  0.28838178  0.13592024  1
  Zr  Zr41  1  0.59986695  0.79672637  0.25299605  1
  Zr  Zr42  1  0.60296179  -0.00384285  -0.00727009  1
  Zr  Zr43  1  0.18733489  0.60228460  0.47293356  1
  Zr  Zr44  1  0.59261878  0.01255731  0.50178105  1
  Zr  Zr45  1  0.79765709  0.59794236  0.75083432  1
  Zr  Zr46  1  0.19882878  0.00925523  0.75784062  1
  Zr  Zr47  1  0.09377956  0.50694483  0.62539855  1
  Zr  Zr48  1  0.79378576  0.60163960  0.25514271  1
  Zr  Zr49  1  0.10624475  0.89671416  0.89256827  1
  Zr  Zr50  1  0.70958814  0.11089534  0.35872700  1
  Zr  Zr51  1  0.02009546  0.79477893  0.75121687  1
  Zr  Zr52  1  0.58211891  0.60020507  0.73785126  1
  Zr  Zr53  1  0.08728859  0.09813462  0.39091383  1
  Zr  Zr54  1  0.90141476  0.49961209  0.13190310  1
  Zr  Zr55  1  0.80853782  -0.00881795  0.24372443  1
  Zr  Zr56  1  0.49911896  0.10490818  0.11178297  1
  Zr  Zr57  1  0.39908047  0.00429003  0.25808994  1
  Zr  Zr58  1  0.20806436  0.40128390  0.25734300  1
  Zr  Zr59  1  0.29004858  0.70615208  0.88804494  1
  Zr  Zr60  1  0.68973639  0.89343880  0.85944441  1
  Zr  Zr61  1  0.69245452  0.29761872  0.36464239  1
  Zr  Zr62  1  0.90062955  0.89507630  0.62660367  1
  Zr  Zr63  1  0.69724716  0.69346431  0.38585186  1
  Zr  Zr64  1  0.40182242  0.19420114  0.74081869  1
  Zr  Zr65  1  0.00739309  0.40040364  0.00779091  1
  Zr  Zr66  1  0.89651638  0.49776312  0.36958081  1
  Zr  Zr67  1  0.30838207  0.69795617  0.13899563  1
  Zr  Zr68  1  0.69346790  0.08947541  0.64779995  1
  Zr  Zr69  1  0.69699025  0.30248057  0.86463066  1
  Zr  Zr70  1  0.30532942  0.29990253  0.87573532  1
  Zr  Zr71  1  0.49487206  0.70144421  0.88390770  1
  Zr  Zr72  1  0.90105353  0.26949340  0.38132577  1
  Zr  Zr73  1  0.00295588  0.39869098  0.74867383  1
  Zr  Zr74  1  0.00800834  0.38424442  0.25126611  1
  Zr  Zr75  1  0.69861210  0.49378543  0.62700036  1
  Zr  Zr76  1  0.80279806  -0.00614022  -0.01084370  1
  Zr  Zr77  1  0.90030944  0.10501541  0.62184224  1
  Zr  Zr78  1  0.11197693  0.70478303  0.12442715  1
  Zr  Zr79  1  0.70090707  0.09772582  0.13393928  1
  Ta  Ta80  1  0.68785036  0.50474896  0.12559660  1
  Ta  Ta81  1  0.90175888  0.70819864  0.12744449  1
  Ta  Ta82  1  0.90528624  0.28262316  0.12584181  1
  Ta  Ta83  1  0.39059298  -0.01144827  0.75702796  1
  Ta  Ta84  1  0.20599715  0.39567221  0.74421656  1
  Ta  Ta85  1  0.39860104  0.41234186  0.00402775  1
  Ta  Ta86  1  0.21308228  0.40928606  0.49422414  1
  Ta  Ta87  1  0.18920215  0.19680508  0.24869047  1
  Ta  Ta88  1  0.09929079  0.90513963  0.11281113  1
  Ta  Ta89  1  0.90777377  0.69278069  0.61038314  1
  Ta  Ta90  1  0.49946078  0.30174819  0.88445361  1
  Ta  Ta91  1  0.50511169  0.10844423  0.37199801  1
  Ta  Ta92  1  0.29724642  0.11746287  0.38610829  1
  Ta  Ta93  1  0.79760037  0.59633328  0.49961229  1
  Ta  Ta94  1  0.20313585  0.20152396  0.74385278  1
  Ta  Ta95  1  -0.00486383  0.61093589  0.75212931  1
  Ta  Ta96  1  0.39827684  0.80218116  0.00688078  1
  Ta  Ta97  1  0.10493114  0.70570915  0.61582749  1
  Ta  Ta98  1  0.79760745  0.39414281  0.24825725  1
  Ta  Ta99  1  0.12151727  0.89954662  0.61807721  1
  Ta  Ta100  1  0.40528238  0.40564368  0.73457320  1
  Ta  Ta101  1  0.79784717  0.80427514  0.50642737  1
  Ta  Ta102  1  0.19856474  0.00735120  -0.00125531  1
  Ta  Ta103  1  0.39787591  0.80402997  0.26610730  1
  Ta  Ta104  1  0.48573430  0.10329793  0.88845750  1
  Ta  Ta105  1  0.60132782  0.40543176  0.00333552  1
  Ta  Ta106  1  0.29267647  0.89727248  0.12122918  1
  Ta  Ta107  1  0.70316018  0.69706273  0.12336972  1
  Ta  Ta108  1  0.58730328  0.39607216  0.74100629  1
  Ta  Ta109  1  0.22644630  0.80858375  0.74424673  1
  Ta  Ta110  1  0.00402220  0.81182301  0.24665302  1
  Ta  Ta111  1  0.41927518  0.19595407  0.51280203  1
  Ta  Ta112  1  0.70391182  0.88702683  0.12383327  1
  Ta  Ta113  1  0.30493697  0.50441926  0.13742994  1
  Ta  Ta114  1  0.30680211  0.90474024  0.89024739  1
  Ta  Ta115  1  0.39183239  0.80819302  0.47456482  1
  Ta  Ta116  1  0.00195885  0.60592538  0.00670452  1
  Ta  Ta117  1  0.59089694  0.58995868  0.50351587  1
  Ta  Ta118  1  0.30286366  0.30145146  0.61609829  1
  Ta  Ta119  1  0.18806232  0.61911085  0.74900146  1
  Ti  Ti120  1  0.29911198  0.30150568  0.11972021  1
  Ti  Ti121  1  0.20500699  0.59682316  0.00788106  1
  Ti  Ti122  1  0.49131567  0.89966713  0.88067183  1
  Ti  Ti123  1  0.59017751  0.39253609  0.51100056  1
  Ti  Ti124  1  0.59153152  0.80585226  0.49839749  1
  Ti  Ti125  1  0.11045332  0.28842007  0.88036407  1
  Ti  Ti126  1  0.09414786  0.10820395  0.11010330  1
  Ti  Ti127  1  0.90660585  0.09964653  0.11085699  1
  Ti  Ti128  1  0.69024870  0.68910890  0.87213546  1
  Ti  Ti129  1  0.49212766  0.50460749  0.12442659  1
  Ti  Ti130  1  0.59765929  0.59824760  0.25723928  1
  Ti  Ti131  1  0.38512252  0.62431166  0.74321032  1
  Ti  Ti132  1  0.10700731  0.09881766  0.60738709  1
  Ti  Ti133  1  0.00694396  -0.01321025  0.50697048  1
  Ti  Ti134  1  0.10348686  0.29246355  0.12160811  1
  Ti  Ti135  1  0.91533731  0.89095974  0.88250367  1
  Ti  Ti136  1  0.29484432  0.10598120  0.88863428  1
  Ti  Ti137  1  0.90551469  0.89766099  0.11365657  1
  Ti  Ti138  1  0.19606661  0.79787300  0.26753583  1
  Ti  Ti139  1  0.80986752  0.19180825  0.76319064  1
  Ti  Ti140  1  0.68814077  0.10101403  0.86502677  1
  Ti  Ti141  1  0.39918840  -0.00449126  0.48040925  1
  Ti  Ti142  1  0.58587839  0.20041524  0.75407242  1
  Ti  Ti143  1  0.69598062  0.89970849  0.63869200  1
  Ti  Ti144  1  0.79961434  0.39668633  0.74901194  1
  Ti  Ti145  1  0.92288735  0.09343073  0.88545364  1
  Ti  Ti146  1  0.40434038  0.41005775  0.51691876  1
  Ti  Ti147  1  0.89854777  0.50372872  0.62217725  1
  Ti  Ti148  1  0.59487851  -0.00201357  0.25048561  1
  Ti  Ti149  1  0.30962910  0.30676443  0.39069189  1
  Ti  Ti150  1  0.80963270  -0.00037692  0.76860728  1
  Ti  Ti151  1  0.57664937  0.00371447  0.75688920  1
  Ti  Ti152  1  0.69065457  0.49637361  0.87019080  1
  Ti  Ti153  1  0.49656634  0.69943167  0.38002497  1
  Ti  Ti154  1  0.60648016  0.79129634  -0.00146084  1
  Ti  Ti155  1  0.38379300  0.60632133  0.49164346  1
  Ti  Ti156  1  0.09457608  0.70248238  0.89169373  1
  Ti  Ti157  1  0.58139929  0.80161618  0.74719235  1
  Ti  Ti158  1  0.20822767  -0.00968276  0.48465500  1
  Ti  Ti159  1  0.80604088  0.79826945  0.24804835  1
  Mo  Mo160  1  0.50228758  0.30136723  0.62266353  1
  Mo  Mo161  1  0.30771359  0.49277778  0.37400036  1
  Mo  Mo162  1  0.30300916  0.89124815  0.61301534  1
  Mo  Mo163  1  0.40400387  0.80778763  0.75394796  1
  Mo  Mo164  1  0.20379620  0.80160950  0.00737531  1
  Mo  Mo165  1  0.57925818  0.19095376  0.24895293  1
  Mo  Mo166  1  0.28844213  0.71581406  0.61658517  1
  Mo  Mo167  1  0.83256424  0.19379623  0.24229860  1
  Mo  Mo168  1  0.29784659  0.90922908  0.36541205  1
  Mo  Mo169  1  -0.00250374  0.79675423  0.00827621  1
  Mo  Mo170  1  0.39565000  0.59249153  0.00540810  1
  Mo  Mo171  1  0.11338132  0.50194745  0.12196393  1
  Mo  Mo172  1  0.49063639  0.50629221  0.61722824  1
  Mo  Mo173  1  0.10478088  0.11038261  0.88555856  1
  Mo  Mo174  1  0.39880303  0.40262977  0.24223976  1
  Mo  Mo175  1  0.41081961  0.59757857  0.25590564  1
  Mo  Mo176  1  0.20891774  0.59836609  0.26742058  1
  Mo  Mo177  1  0.91141797  0.69707631  0.88023929  1
  Mo  Mo178  1  0.01078666  0.19310887  0.24338761  1
  Mo  Mo179  1  0.00359733  0.19856567  -0.00249295  1
  Mo  Mo180  1  0.30815012  0.69292306  0.35698884  1
  Mo  Mo181  1  0.68773032  0.49776337  0.38149154  1
  Mo  Mo182  1  0.39393536  -0.00315524  -0.00279291  1
  Mo  Mo183  1  0.60062046  0.20559402  -0.01638919  1
  Mo  Mo184  1  -0.00053169  0.19059190  0.51146375  1
  Mo  Mo185  1  0.09398042  0.70500104  0.36222336  1
  Mo  Mo186  1  -0.00055391  0.00068772  0.00558805  1
  Mo  Mo187  1  0.60375093  0.59351988  0.00116676  1
  Mo  Mo188  1  0.39406586  0.20717353  -0.00424211  1
  Mo  Mo189  1  0.21564889  0.19763281  0.50519276  1
  Mo  Mo190  1  0.00690875  0.80115827  0.50743588  1
  Mo  Mo191  1  -0.00552061  0.60375704  0.49787986  1
  Mo  Mo192  1  0.50308201  0.90238173  0.37677910  1
  Mo  Mo193  1  0.10106761  0.49417261  0.37643070  1
  Mo  Mo194  1  0.60535082  0.20123579  0.50430369  1
  Mo  Mo195  1  0.09288649  0.89743734  0.37313241  1
  Mo  Mo196  1  0.19654110  0.20747886  0.00359116  1
  Mo  Mo197  1  0.90211966  0.09471270  0.38644093  1
  Mo  Mo198  1  0.49787684  0.10020117  0.63184569  1
  Mo  Mo199  1  0.78791673  0.19531292  0.50394948  1
