# generated using pymatgen
data_HfZrTaTiMo
_symmetry_space_group_name_H-M   'P 1'
_cell_length_a   15.19639840
_cell_length_b   15.19711789
_cell_length_c   16.81853189
_cell_angle_alpha   89.99411633
_cell_angle_beta   89.96721041
_cell_angle_gamma   89.94641765
_symmetry_Int_Tables_number   1
_chemical_formula_structural   HfZrTaTiMo
_chemical_formula_sum   'Hf40 Zr40 Ta40 Ti40 Mo40'
_cell_volume   3884.09391891
_cell_formula_units_Z   40
loop_
 _symmetry_equiv_pos_site_id
 _symmetry_equiv_pos_as_xyz
  1  'x, y, z'
loop_
 _atom_site_type_symbol
 _atom_site_label
 _atom_site_symmetry_multiplicity
 _atom_site_fract_x
 _atom_site_fract_y
 _atom_site_fract_z
 _atom_site_occupancy
  Hf  Hf0  1  0.30675295  0.28595540  0.39154634  1
  Hf  Hf1  1  0.38144172  0.01018710  0.50447727  1
  Hf  Hf2  1  0.89602972  0.31279187  0.62872781  1
  Hf  Hf3  1  0.02906915  0.60252693  -0.00385028  1
  Hf  Hf4  1  0.20082138  0.78668656  0.00616970  1
  Hf  Hf5  1  0.58769180  0.41717842  0.00364501  1
  Hf  Hf6  1  0.90963614  0.49929989  0.87552847  1
  Hf  Hf7  1  0.29293072  0.88161839  0.62046104  1
  Hf  Hf8  1  0.59180905  0.21481222  0.50725531  1
  Hf  Hf9  1  0.78459837  0.80076055  0.50898173  1
  Hf  Hf10  1  0.80324568  0.40720762  0.75164479  1
  Hf  Hf11  1  0.89338927  0.50351324  0.37899025  1
  Hf  Hf12  1  0.19065540  0.78325961  0.47822518  1
  Hf  Hf13  1  0.88941934  0.71264901  0.37887376  1
  Hf  Hf14  1  0.90176566  0.70592380  0.62455892  1
  Hf  Hf15  1  0.59752104  0.41653988  0.24191842  1
  Hf  Hf16  1  -0.00053591  0.40308264  0.49740892  1
  Hf  Hf17  1  0.19607265  0.38263427  0.51120295  1
  Hf  Hf18  1  0.70285363  0.10339185  0.37349476  1
  Hf  Hf19  1  0.40010545  0.38827118  0.25662582  1
  Hf  Hf20  1  0.20106005  0.18346795  0.74789069  1
  Hf  Hf21  1  0.10791522  0.90340583  0.13769110  1
  Hf  Hf22  1  0.09463993  0.28775853  0.63619058  1
  Hf  Hf23  1  0.40546935  0.78790703  0.26508028  1
  Hf  Hf24  1  0.59582299  0.20436330  -0.00189271  1
  Hf  Hf25  1  0.49635777  0.70874374  0.60691417  1
  Hf  Hf26  1  0.09786890  0.70264784  0.62322181  1
  Hf  Hf27  1  0.62834824  0.60321579  0.48665002  1
  Hf  Hf28  1  -0.00287450  0.80312900  0.00726125  1
  Hf  Hf29  1  0.80347235  0.21273126  0.24223880  1
  Hf  Hf30  1  0.59851652  0.41087947  0.74534564  1
  Hf  Hf31  1  0.01113896  0.20748241  -0.00726114  1
  Hf  Hf32  1  0.50233324  0.51465748  0.61482523  1
  Hf  Hf33  1  0.09749757  0.11318067  0.13807968  1
  Hf  Hf34  1  0.59396486  -0.00297234  0.00181615  1
  Hf  Hf35  1  0.69224970  0.70265080  0.63549738  1
  Hf  Hf36  1  0.48627715  0.88093713  0.12709242  1
  Hf  Hf37  1  0.10458494  0.89410021  0.88146615  1
  Hf  Hf38  1  0.00985673  0.19319353  0.49503811  1
  Hf  Hf39  1  0.21169153  0.58854465  0.73316201  1
  Zr  Zr40  1  0.09569880  0.50410592  0.13857675  1
  Zr  Zr41  1  0.30960708  0.68402529  0.60564501  1
  Zr  Zr42  1  0.80007708  0.00397181  0.01018060  1
  Zr  Zr43  1  0.50687877  0.67492696  0.12726818  1
  Zr  Zr44  1  0.59870834  0.21309354  0.74947168  1
  Zr  Zr45  1  0.29640037  0.90230899  0.36257449  1
  Zr  Zr46  1  0.39658450  -0.01414583  0.75167625  1
  Zr  Zr47  1  0.80553697  0.61433813  -0.00598184  1
  Zr  Zr48  1  0.90381055  0.10939263  0.63304591  1
  Zr  Zr49  1  0.79732970  0.20994099  0.49700833  1
  Zr  Zr50  1  0.61300521  0.00080499  0.50123296  1
  Zr  Zr51  1  -0.00820900  0.79165432  0.24291510  1
  Zr  Zr52  1  0.17370840  -0.00947631  0.50061817  1
  Zr  Zr53  1  0.49806201  0.09627136  0.12460406  1
  Zr  Zr54  1  0.38794027  -0.01728842  -0.00475359  1
  Zr  Zr55  1  0.18997452  0.39870811  -0.00161359  1
  Zr  Zr56  1  0.48594092  0.10888735  0.63337720  1
  Zr  Zr57  1  0.70034888  0.88127700  0.36027211  1
  Zr  Zr58  1  0.09522943  0.10859783  0.35454225  1
  Zr  Zr59  1  0.80447982  0.80183933  0.75580046  1
  Zr  Zr60  1  0.31120725  0.47653026  0.86312707  1
  Zr  Zr61  1  0.30490755  0.49295742  0.13417016  1
  Zr  Zr62  1  0.30045087  0.69533127  0.13129029  1
  Zr  Zr63  1  0.08695191  0.90543306  0.35243499  1
  Zr  Zr64  1  0.50232997  0.89763438  0.61484877  1
  Zr  Zr65  1  0.57223690  0.80224658  0.76946186  1
  Zr  Zr66  1  0.70532480  0.10832713  0.86918918  1
  Zr  Zr67  1  0.60177245  0.20732995  0.24525158  1
  Zr  Zr68  1  0.79856598  0.60501470  0.24626486  1
  Zr  Zr69  1  0.10873560  0.49761292  0.85858485  1
  Zr  Zr70  1  0.70402865  0.31307918  0.88649023  1
  Zr  Zr71  1  0.28772620  0.08499982  0.87732496  1
  Zr  Zr72  1  0.79253419  0.00706536  0.23637156  1
  Zr  Zr73  1  0.30682578  0.48930118  0.39053510  1
  Zr  Zr74  1  0.80599092  0.40745392  0.23703778  1
  Zr  Zr75  1  0.29526729  0.09158157  0.13054712  1
  Zr  Zr76  1  0.69613245  0.91146580  0.86623820  1
  Zr  Zr77  1  0.70120910  0.71713010  0.12648783  1
  Zr  Zr78  1  0.49163595  0.10806219  0.37725289  1
  Zr  Zr79  1  0.81739570  -0.00083693  0.50488903  1
  Ta  Ta80  1  0.09051880  0.07904609  0.63305911  1
  Ta  Ta81  1  0.39073095  0.21386643  0.76366703  1
  Ta  Ta82  1  0.08767778  0.08960164  0.87126608  1
  Ta  Ta83  1  0.90779722  0.91472371  0.87517031  1
  Ta  Ta84  1  0.39918412  0.19777429  0.24926154  1
  Ta  Ta85  1  0.29040829  0.67975163  0.87715707  1
  Ta  Ta86  1  0.80702011  0.20629412  0.01069309  1
  Ta  Ta87  1  0.90917620  0.30551399  0.87779282  1
  Ta  Ta88  1  0.68631989  0.90069995  0.12956931  1
  Ta  Ta89  1  0.90625367  0.10970565  0.12757550  1
  Ta  Ta90  1  0.91873334  0.31170796  0.11863348  1
  Ta  Ta91  1  0.79187099  0.41370060  0.50270825  1
  Ta  Ta92  1  0.39545011  0.38904621  0.00102854  1
  Ta  Ta93  1  0.69413428  0.32028057  0.37499910  1
  Ta  Ta94  1  0.49962419  0.09383120  0.86656412  1
  Ta  Ta95  1  0.10199507  0.49224241  0.37009863  1
  Ta  Ta96  1  0.20073912  0.22594700  0.25314309  1
  Ta  Ta97  1  0.29264852  0.09616433  0.36021335  1
  Ta  Ta98  1  0.19257821  0.58509010  0.49793497  1
  Ta  Ta99  1  0.70090483  0.51068243  0.87944509  1
  Ta  Ta100  1  0.58502704  -0.00711221  0.24890614  1
  Ta  Ta101  1  0.20193875  0.78578648  0.75277180  1
  Ta  Ta102  1  0.69035770  0.51535993  0.11518745  1
  Ta  Ta103  1  0.18682240  -0.02044860  0.74303087  1
  Ta  Ta104  1  0.39572045  0.20066992  -0.01306727  1
  Ta  Ta105  1  0.40185387  0.58312825  -0.00479188  1
  Ta  Ta106  1  0.69909166  0.30623738  0.11361616  1
  Ta  Ta107  1  0.41279438  0.59014922  0.27391530  1
  Ta  Ta108  1  0.40388403  0.78057164  -0.01252647  1
  Ta  Ta109  1  -0.00481648  0.82019931  0.49567777  1
  Ta  Ta110  1  0.91145167  0.68937244  0.12151814  1
  Ta  Ta111  1  0.71213956  0.50814858  0.62945722  1
  Ta  Ta112  1  0.59637124  0.79742689  -0.01815928  1
  Ta  Ta113  1  0.80693977  0.00886251  0.74756964  1
  Ta  Ta114  1  0.48928004  0.30398478  0.12070236  1
  Ta  Ta115  1  0.49956002  0.89989739  0.38432331  1
  Ta  Ta116  1  0.90651262  0.51417505  0.62611627  1
  Ta  Ta117  1  0.80897125  0.41050107  0.01124708  1
  Ta  Ta118  1  0.00532436  0.60962291  0.49265508  1
  Ta  Ta119  1  0.69835471  0.10551115  0.63655376  1
  Ti  Ti120  1  0.60164051  0.60858337  0.27006401  1
  Ti  Ti121  1  0.80246243  0.60562914  0.76201619  1
  Ti  Ti122  1  0.91140930  0.71147359  0.87436989  1
  Ti  Ti123  1  0.90615932  0.10000021  0.36030041  1
  Ti  Ti124  1  0.00291520  0.60788055  0.75418606  1
  Ti  Ti125  1  0.69725984  0.90810540  0.64248489  1
  Ti  Ti126  1  0.89695129  0.91245922  0.36199323  1
  Ti  Ti127  1  0.20913861  0.17701913  0.51193461  1
  Ti  Ti128  1  0.00334445  0.59942759  0.25595345  1
  Ti  Ti129  1  0.79583433  0.80768979  -0.00974120  1
  Ti  Ti130  1  0.00998975  0.39008125  0.25918947  1
  Ti  Ti131  1  0.20354175  0.19986620  -0.00849794  1
  Ti  Ti132  1  0.19055737  -0.00243325  0.00601185  1
  Ti  Ti133  1  0.21655146  0.38342042  0.73488485  1
  Ti  Ti134  1  0.89847664  0.10540705  0.87700264  1
  Ti  Ti135  1  -0.00577653  0.19976030  0.76150248  1
  Ti  Ti136  1  0.51234725  0.48405520  0.39113235  1
  Ti  Ti137  1  0.10477328  0.30207596  0.86047694  1
  Ti  Ti138  1  0.49962723  0.50050811  0.86754444  1
  Ti  Ti139  1  0.00900962  0.81108032  0.75368608  1
  Ti  Ti140  1  0.49054591  0.31264623  0.62924618  1
  Ti  Ti141  1  0.09278838  0.49340657  0.63143493  1
  Ti  Ti142  1  0.89001701  0.89514905  0.12853290  1
  Ti  Ti143  1  0.60563467  0.60631371  0.76189412  1
  Ti  Ti144  1  0.59655880  0.61180984  -0.01524924  1
  Ti  Ti145  1  0.60892257  0.40015237  0.51172368  1
  Ti  Ti146  1  0.41037346  0.60463418  0.75078869  1
  Ti  Ti147  1  -0.00242208  0.00449726  0.00742970  1
  Ti  Ti148  1  0.19681166  0.78292327  0.25623491  1
  Ti  Ti149  1  0.31685950  0.48400169  0.60886265  1
  Ti  Ti150  1  0.90656044  0.29817466  0.37354409  1
  Ti  Ti151  1  0.92007365  0.91118455  0.63278698  1
  Ti  Ti152  1  0.20494117  0.59918110  0.26877215  1
  Ti  Ti153  1  0.48601322  0.31088911  0.87132084  1
  Ti  Ti154  1  0.79931702  0.21168915  0.75117787  1
  Ti  Ti155  1  0.31263395  0.28172855  0.61730643  1
  Ti  Ti156  1  0.10537799  0.30670729  0.12872751  1
  Ti  Ti157  1  0.30188748  0.87924751  0.86735497  1
  Ti  Ti158  1  0.29629168  0.29157249  0.12293501  1
  Ti  Ti159  1  0.50885254  0.70785085  0.39182743  1
  Mo  Mo160  1  -0.00586924  0.21712786  0.24944512  1
  Mo  Mo161  1  0.81222484  0.59932235  0.50493912  1
  Mo  Mo162  1  0.60209764  0.00605524  0.74653552  1
  Mo  Mo163  1  0.39776785  0.79998921  0.47913930  1
  Mo  Mo164  1  -0.01188030  0.00736917  0.23540636  1
  Mo  Mo165  1  0.40158665  -0.00239889  0.25300686  1
  Mo  Mo166  1  0.30271568  0.68782594  0.38055786  1
  Mo  Mo167  1  0.10207574  0.30402303  0.37875105  1
  Mo  Mo168  1  -0.00710803  0.00093305  0.49449237  1
  Mo  Mo169  1  -0.00237048  -0.00044734  0.75962929  1
  Mo  Mo170  1  0.49046906  0.68669532  0.87766316  1
  Mo  Mo171  1  0.70088162  0.69912470  0.36969173  1
  Mo  Mo172  1  0.39462407  0.19753360  0.50409395  1
  Mo  Mo173  1  0.69918493  0.10702422  0.12143172  1
  Mo  Mo174  1  0.29504377  0.29439467  0.87329998  1
  Mo  Mo175  1  0.10195704  0.69920039  0.86300650  1
  Mo  Mo176  1  0.40787259  0.59608805  0.47982566  1
  Mo  Mo177  1  0.41761753  0.38675134  0.50619647  1
  Mo  Mo178  1  0.70165443  0.70047947  0.87279040  1
  Mo  Mo179  1  0.48841585  0.90052319  0.88030463  1
  Mo  Mo180  1  0.00644890  0.40379148  0.74441175  1
  Mo  Mo181  1  0.28780401  0.09543393  0.63274275  1
  Mo  Mo182  1  0.09520923  0.68829025  0.37565019  1
  Mo  Mo183  1  0.70121002  0.49714187  0.37471329  1
  Mo  Mo184  1  0.79871022  0.80187140  0.23902691  1
  Mo  Mo185  1  0.09197465  0.88619597  0.62640628  1
  Mo  Mo186  1  0.90368549  0.50480946  0.11986247  1
  Mo  Mo187  1  0.20030166  0.40037349  0.25675865  1
  Mo  Mo188  1  0.38503980  0.78161865  0.75965764  1
  Mo  Mo189  1  0.50462068  0.30652421  0.38083413  1
  Mo  Mo190  1  0.21425246  0.59880949  -0.00049893  1
  Mo  Mo191  1  -0.00092782  0.39864652  -0.00094861  1
  Mo  Mo192  1  0.60331144  0.80605317  0.50180001  1
  Mo  Mo193  1  0.10474432  0.69399095  0.13401887  1
  Mo  Mo194  1  0.69959845  0.30990697  0.62492533  1
  Mo  Mo195  1  0.29798227  0.89216319  0.14276568  1
  Mo  Mo196  1  0.49830975  0.50014518  0.12794466  1
  Mo  Mo197  1  0.20251999  0.00481679  0.24310598  1
  Mo  Mo198  1  0.59501639  0.79653314  0.25474939  1
  Mo  Mo199  1  0.40182301  0.40243738  0.73758347  1
