# generated using pymatgen
data_HfZrTaTiMo
_symmetry_space_group_name_H-M   'P 1'
_cell_length_a   15.21006167
_cell_length_b   15.21505665
_cell_length_c   16.83107580
_cell_angle_alpha   90.02034165
_cell_angle_beta   89.90974900
_cell_angle_gamma   89.98538966
_symmetry_Int_Tables_number   1
_chemical_formula_structural   HfZrTaTiMo
_chemical_formula_sum   'Hf40 Zr40 Ta40 Ti40 Mo40'
_cell_volume   3895.07517780
_cell_formula_units_Z   40
loop_
 _symmetry_equiv_pos_site_id
 _symmetry_equiv_pos_as_xyz
  1  'x, y, z'
loop_
 _atom_site_type_symbol
 _atom_site_label
 _atom_site_symmetry_multiplicity
 _atom_site_fract_x
 _atom_site_fract_y
 _atom_site_fract_z
 _atom_site_occupancy
  Hf  Hf0  1  0.40539977  -0.00197042  0.49911656  1
  Hf  Hf1  1  0.82038326  0.01094863  0.76259383  1
  Hf  Hf2  1  0.20690863  -0.00317730  -0.00298380  1
  Hf  Hf3  1  0.80900274  0.61371680  0.50896618  1
  Hf  Hf4  1  0.09470387  0.69400681  0.13933394  1
  Hf  Hf5  1  0.69729604  0.11185746  0.64092805  1
  Hf  Hf6  1  0.29223095  0.89081896  0.60987800  1
  Hf  Hf7  1  0.59735937  0.61470023  0.25963714  1
  Hf  Hf8  1  0.60600226  0.80799261  -0.01574100  1
  Hf  Hf9  1  0.08883946  0.69455682  0.37034966  1
  Hf  Hf10  1  0.88696793  0.70717009  0.36506410  1
  Hf  Hf11  1  0.58661348  0.19407947  0.24255002  1
  Hf  Hf12  1  0.70470468  0.89736656  0.12576964  1
  Hf  Hf13  1  0.19273391  -0.01979024  0.74566118  1
  Hf  Hf14  1  0.79604538  0.20085175  0.49803096  1
  Hf  Hf15  1  0.50376888  0.90563484  0.12511143  1
  Hf  Hf16  1  0.80096505  0.20697654  0.00081700  1
  Hf  Hf17  1  0.50226102  0.71588269  0.38286620  1
  Hf  Hf18  1  0.49898331  0.91250649  0.86046779  1
  Hf  Hf19  1  0.80443005  -0.00122240  0.50757400  1
  Hf  Hf20  1  0.00836401  0.60049684  0.73567750  1
  Hf  Hf21  1  0.40024953  0.39890928  -0.00662245  1
  Hf  Hf22  1  0.90963068  0.28882396  0.13862281  1
  Hf  Hf23  1  0.39817071  0.81405234  -0.00668135  1
  Hf  Hf24  1  0.10196541  0.29607842  0.86746801  1
  Hf  Hf25  1  0.69172623  0.11039251  0.86506020  1
  Hf  Hf26  1  0.09742780  0.27821123  0.63103145  1
  Hf  Hf27  1  0.29238095  0.71111641  0.87595455  1
  Hf  Hf28  1  0.60224091  0.60884054  0.49572419  1
  Hf  Hf29  1  0.88819450  0.69941722  0.13802464  1
  Hf  Hf30  1  -0.02132811  0.58814286  0.00911078  1
  Hf  Hf31  1  0.10633504  0.49643209  0.37549444  1
  Hf  Hf32  1  0.40368024  0.40631051  0.76739819  1
  Hf  Hf33  1  0.70392617  0.31458073  0.13291097  1
  Hf  Hf34  1  0.00315025  0.79920740  0.00668965  1
  Hf  Hf35  1  0.79465070  -0.00459767  -0.01462942  1
  Hf  Hf36  1  0.52074595  0.30104490  0.64387768  1
  Hf  Hf37  1  0.40410027  0.59597439  0.24589235  1
  Hf  Hf38  1  0.90178438  0.69187345  0.86583696  1
  Hf  Hf39  1  0.39980705  0.22723302  0.49838346  1
  Zr  Zr40  1  0.40525304  0.00936255  0.26365616  1
  Zr  Zr41  1  0.57735016  0.38951603  0.48935869  1
  Zr  Zr42  1  0.30068848  0.09518402  0.86341424  1
  Zr  Zr43  1  0.69039833  0.49224789  0.63570770  1
  Zr  Zr44  1  0.32013913  0.48453489  0.37414092  1
  Zr  Zr45  1  0.10033982  0.69172596  0.87762944  1
  Zr  Zr46  1  0.49800132  0.50306999  0.63783532  1
  Zr  Zr47  1  0.30815084  0.29778921  0.64713983  1
  Zr  Zr48  1  0.10333846  0.90913508  0.13321557  1
  Zr  Zr49  1  0.68639317  0.28756754  0.36191328  1
  Zr  Zr50  1  0.51269197  0.11688302  0.38893785  1
  Zr  Zr51  1  0.70396236  0.89272175  0.37480087  1
  Zr  Zr52  1  0.49980257  0.10617762  0.62767074  1
  Zr  Zr53  1  -0.00619984  -0.00077080  -0.00463614  1
  Zr  Zr54  1  0.90828773  0.50449629  0.36913967  1
  Zr  Zr55  1  0.70634291  0.90652711  0.64564068  1
  Zr  Zr56  1  0.79220198  0.39129460  0.49830132  1
  Zr  Zr57  1  0.49353297  0.70700171  0.63440094  1
  Zr  Zr58  1  0.70285934  0.50194679  0.37734080  1
  Zr  Zr59  1  0.28612468  0.10529891  0.62035125  1
  Zr  Zr60  1  0.41382024  0.60455205  -0.00273943  1
  Zr  Zr61  1  0.71453787  0.31492714  0.86323203  1
  Zr  Zr62  1  0.28712830  0.50539403  0.87885353  1
  Zr  Zr63  1  0.30740588  0.70369521  0.12588139  1
  Zr  Zr64  1  0.80341615  0.79182206  -0.00871138  1
  Zr  Zr65  1  0.49242262  0.30318115  0.12570783  1
  Zr  Zr66  1  0.29672395  0.29234931  0.86929233  1
  Zr  Zr67  1  0.60667415  0.40618517  -0.00817522  1
  Zr  Zr68  1  0.08627397  0.07857092  0.62275367  1
  Zr  Zr69  1  0.20322567  0.60863008  0.50680835  1
  Zr  Zr70  1  0.20653488  0.80240113  0.25892882  1
  Zr  Zr71  1  0.00408795  0.39330274  0.00922450  1
  Zr  Zr72  1  0.20763994  0.38465974  0.24462626  1
  Zr  Zr73  1  -0.01746245  0.38672751  0.74610136  1
  Zr  Zr74  1  0.21323786  0.38172981  0.50025010  1
  Zr  Zr75  1  0.69707892  0.70824611  0.64341815  1
  Zr  Zr76  1  0.19166627  0.58735588  0.01544115  1
  Zr  Zr77  1  0.90205128  0.49307298  0.61384259  1
  Zr  Zr78  1  0.09670748  0.11213617  0.13328728  1
  Zr  Zr79  1  -0.00019078  0.37943832  0.49173697  1
  Ta  Ta80  1  0.80832259  0.80524084  0.51056256  1
  Ta  Ta81  1  0.78677047  0.60274716  0.25307951  1
  Ta  Ta82  1  0.40630601  0.19021196  -0.00331039  1
  Ta  Ta83  1  -0.00643400  0.18563336  0.48465709  1
  Ta  Ta84  1  0.10900597  0.88853556  0.87397870  1
  Ta  Ta85  1  0.80630388  0.42119078  0.00417449  1
  Ta  Ta86  1  0.50295685  0.70364406  0.85874673  1
  Ta  Ta87  1  0.10257725  0.49569650  0.61294101  1
  Ta  Ta88  1  0.69297466  0.10087461  0.11769237  1
  Ta  Ta89  1  0.88557158  0.49329943  0.14714805  1
  Ta  Ta90  1  -0.00521638  0.81124173  0.25176376  1
  Ta  Ta91  1  0.20147781  0.60191413  0.73363171  1
  Ta  Ta92  1  0.41270429  0.80340580  0.25394042  1
  Ta  Ta93  1  0.89368299  0.09422211  0.36567067  1
  Ta  Ta94  1  0.18960014  0.41082052  0.74344154  1
  Ta  Ta95  1  0.46994534  0.31902328  0.35093555  1
  Ta  Ta96  1  0.00088986  0.19683543  -0.00775902  1
  Ta  Ta97  1  0.00431014  0.38836544  0.25518930  1
  Ta  Ta98  1  0.09282815  0.49718158  0.87210239  1
  Ta  Ta99  1  0.30897568  0.89199828  0.38155005  1
  Ta  Ta100  1  0.30463890  0.50171920  0.62559980  1
  Ta  Ta101  1  0.19394225  0.00363266  0.27371136  1
  Ta  Ta102  1  0.51695550  0.51242115  0.11792091  1
  Ta  Ta103  1  0.09897175  0.09311650  0.86922795  1
  Ta  Ta104  1  0.50742083  0.90406246  0.63419676  1
  Ta  Ta105  1  0.59096394  0.41848770  0.25049975  1
  Ta  Ta106  1  0.80931662  0.59875422  0.73970356  1
  Ta  Ta107  1  0.69317619  0.68984267  0.12025104  1
  Ta  Ta108  1  0.29974441  0.10004151  0.13119108  1
  Ta  Ta109  1  0.49334775  0.09965058  0.12045361  1
  Ta  Ta110  1  0.19170141  -0.00481504  0.47760603  1
  Ta  Ta111  1  0.39515667  -0.00104869  0.73917046  1
  Ta  Ta112  1  0.40369945  0.59384958  0.49913781  1
  Ta  Ta113  1  0.59203882  0.01520954  -0.00729358  1
  Ta  Ta114  1  0.30641006  0.91148186  0.13556677  1
  Ta  Ta115  1  -0.01273629  0.18069979  0.76191743  1
  Ta  Ta116  1  0.70250269  0.70763174  0.85199148  1
  Ta  Ta117  1  0.90491981  0.90417252  0.37002403  1
  Ta  Ta118  1  0.30347609  0.69588335  0.37275557  1
  Ta  Ta119  1  0.38349855  0.80758530  0.74819438  1
  Ti  Ti120  1  0.30904293  0.49066433  0.12269730  1
  Ti  Ti121  1  0.71747180  0.30170329  0.64943044  1
  Ti  Ti122  1  0.60522114  0.00181286  0.24741153  1
  Ti  Ti123  1  0.91119558  0.89122384  0.86231936  1
  Ti  Ti124  1  0.00054633  -0.01083166  0.49136562  1
  Ti  Ti125  1  0.51128436  0.28826256  0.87033470  1
  Ti  Ti126  1  0.19165879  0.78808496  0.73640686  1
  Ti  Ti127  1  0.92178365  0.89550510  0.63735643  1
  Ti  Ti128  1  0.30496868  0.10731640  0.37773880  1
  Ti  Ti129  1  0.20285432  0.80364873  0.00951018  1
  Ti  Ti130  1  0.19414894  0.39011622  0.01301029  1
  Ti  Ti131  1  0.89359909  0.09204830  0.13063049  1
  Ti  Ti132  1  0.50830422  0.70931484  0.12146934  1
  Ti  Ti133  1  0.60627687  0.81660020  0.50648169  1
  Ti  Ti134  1  0.89594359  0.49133524  0.87135053  1
  Ti  Ti135  1  0.39833465  0.00394053  -0.00276213  1
  Ti  Ti136  1  0.20263179  0.59174534  0.24813962  1
  Ti  Ti137  1  0.19841234  0.19643043  0.26357847  1
  Ti  Ti138  1  0.69811006  0.08993778  0.37967478  1
  Ti  Ti139  1  0.79977463  -0.00452385  0.24844048  1
  Ti  Ti140  1  0.90010792  0.10575522  0.62694483  1
  Ti  Ti141  1  0.39667701  0.79070155  0.50387279  1
  Ti  Ti142  1  0.51433686  0.50914444  0.86862612  1
  Ti  Ti143  1  0.61846639  0.60671432  -0.01177855  1
  Ti  Ti144  1  0.19253881  0.80238709  0.48862777  1
  Ti  Ti145  1  0.51014857  0.91015714  0.38106734  1
  Ti  Ti146  1  0.00738006  0.19226222  0.26694775  1
  Ti  Ti147  1  0.18534138  0.19255121  0.47912093  1
  Ti  Ti148  1  -0.00584151  0.79655594  0.49718223  1
  Ti  Ti149  1  0.38966125  0.60839993  0.75283839  1
  Ti  Ti150  1  0.49649987  0.10887790  0.86036323  1
  Ti  Ti151  1  0.19830619  0.19704435  0.00209463  1
  Ti  Ti152  1  0.08938714  0.48974971  0.14053528  1
  Ti  Ti153  1  0.09202927  0.71054038  0.61455362  1
  Ti  Ti154  1  0.60994470  0.80298405  0.25193128  1
  Ti  Ti155  1  0.79407095  0.18885479  0.24705328  1
  Ti  Ti156  1  0.89947064  0.90282199  0.13376391  1
  Ti  Ti157  1  0.89139563  0.29606565  0.35841510  1
  Ti  Ti158  1  0.29633916  0.28523543  0.12117212  1
  Ti  Ti159  1  0.70999770  0.51505436  0.86040101  1
  Mo  Mo160  1  0.00267833  0.60851981  0.50817917  1
  Mo  Mo161  1  -0.00825808  0.00196346  0.25248643  1
  Mo  Mo162  1  0.00423236  -0.01054027  0.75915209  1
  Mo  Mo163  1  0.61065335  0.19435931  0.50418047  1
  Mo  Mo164  1  0.09498749  0.89425790  0.37768077  1
  Mo  Mo165  1  0.49797789  0.50532127  0.37286882  1
  Mo  Mo166  1  0.79107401  0.59470090  -0.00427708  1
  Mo  Mo167  1  0.09358012  0.29265415  0.37435951  1
  Mo  Mo168  1  0.59584772  0.80943405  0.75866575  1
  Mo  Mo169  1  0.18701266  0.19600287  0.74998629  1
  Mo  Mo170  1  0.80746714  0.40902207  0.74980641  1
  Mo  Mo171  1  0.59723284  0.00546053  0.75560637  1
  Mo  Mo172  1  0.79663271  0.39587515  0.25156153  1
  Mo  Mo173  1  0.90472957  0.30172006  0.88569919  1
  Mo  Mo174  1  0.40123229  0.40452261  0.50666509  1
  Mo  Mo175  1  0.70100045  0.90152437  0.85865167  1
  Mo  Mo176  1  0.60207206  0.20666378  0.75578172  1
  Mo  Mo177  1  0.69797793  0.50915477  0.12790442  1
  Mo  Mo178  1  0.09737652  0.89098944  0.60984678  1
  Mo  Mo179  1  0.90243195  0.10488319  0.88378941  1
  Mo  Mo180  1  0.29592753  0.29106138  0.36946330  1
  Mo  Mo181  1  0.79339830  0.80099232  0.24366491  1
  Mo  Mo182  1  0.00109285  0.59425747  0.24352480  1
  Mo  Mo183  1  0.60623940  0.00169779  0.50512088  1
  Mo  Mo184  1  0.81699308  0.21217672  0.75232693  1
  Mo  Mo185  1  0.38148111  0.20251011  0.24615197  1
  Mo  Mo186  1  0.89975421  0.27804895  0.62376018  1
  Mo  Mo187  1  0.70124873  0.71246160  0.38432394  1
  Mo  Mo188  1  0.10396061  0.29017868  0.12662241  1
  Mo  Mo189  1  0.29958074  0.69758820  0.62387118  1
  Mo  Mo190  1  0.09098693  0.09305780  0.37281119  1
  Mo  Mo191  1  0.39963567  0.40494214  0.22779294  1
  Mo  Mo192  1  0.90494491  0.71149828  0.62855533  1
  Mo  Mo193  1  0.01277366  0.80602299  0.74497137  1
  Mo  Mo194  1  0.59525899  0.19597848  0.00305431  1
  Mo  Mo195  1  0.40262735  0.19763104  0.75522148  1
  Mo  Mo196  1  0.81426750  0.80209910  0.75466383  1
  Mo  Mo197  1  0.59683679  0.60215166  0.76008919  1
  Mo  Mo198  1  0.60331860  0.40692678  0.76864477  1
  Mo  Mo199  1  0.29577109  0.89604034  0.86955484  1
