# generated using pymatgen
data_HfZrTaTiMo
_symmetry_space_group_name_H-M   'P 1'
_cell_length_a   15.21350888
_cell_length_b   15.20155615
_cell_length_c   16.86956865
_cell_angle_alpha   89.97197344
_cell_angle_beta   89.98688845
_cell_angle_gamma   90.01507775
_symmetry_Int_Tables_number   1
_chemical_formula_structural   HfZrTaTiMo
_chemical_formula_sum   'Hf40 Zr40 Ta40 Ti40 Mo40'
_cell_volume   3901.40772784
_cell_formula_units_Z   40
loop_
 _symmetry_equiv_pos_site_id
 _symmetry_equiv_pos_as_xyz
  1  'x, y, z'
loop_
 _atom_site_type_symbol
 _atom_site_label
 _atom_site_symmetry_multiplicity
 _atom_site_fract_x
 _atom_site_fract_y
 _atom_site_fract_z
 _atom_site_occupancy
  Hf  Hf0  1  0.79285133  0.78652883  -0.00735119  1
  Hf  Hf1  1  0.21121110  -0.01420800  0.75361321  1
  Hf  Hf2  1  -0.00586514  0.59947405  0.50312434  1
  Hf  Hf3  1  0.21267344  -0.01660575  -0.01381661  1
  Hf  Hf4  1  0.80401568  -0.01052430  0.51238017  1
  Hf  Hf5  1  0.89356859  0.30899596  0.62439936  1
  Hf  Hf6  1  0.10078060  0.08373928  0.12395092  1
  Hf  Hf7  1  0.10437376  0.10430743  0.87278591  1
  Hf  Hf8  1  0.87542489  0.28592722  0.13180628  1
  Hf  Hf9  1  0.08209764  0.51372467  0.12106588  1
  Hf  Hf10  1  0.29145885  0.30825029  0.62738454  1
  Hf  Hf11  1  0.29116705  0.29692142  0.88813956  1
  Hf  Hf12  1  0.80166927  0.78858616  0.48723039  1
  Hf  Hf13  1  0.77412846  0.38786142  0.26519365  1
  Hf  Hf14  1  0.60431273  0.60724986  0.73385595  1
  Hf  Hf15  1  -0.00270114  0.80018589  0.73424880  1
  Hf  Hf16  1  0.30533148  0.11089922  0.37434101  1
  Hf  Hf17  1  0.40129775  0.21438739  0.49778769  1
  Hf  Hf18  1  0.68662840  0.51841188  0.13468444  1
  Hf  Hf19  1  0.90692860  0.08190111  0.38399056  1
  Hf  Hf20  1  0.19058283  0.20621090  0.50332113  1
  Hf  Hf21  1  0.61458620  0.79227098  0.26398459  1
  Hf  Hf22  1  0.31270264  0.30775170  0.10262814  1
  Hf  Hf23  1  0.69690846  0.09760853  0.87736654  1
  Hf  Hf24  1  0.89754147  0.28961893  0.36999117  1
  Hf  Hf25  1  0.88520627  0.49482518  0.14434155  1
  Hf  Hf26  1  0.19899199  0.40319531  0.23261329  1
  Hf  Hf27  1  0.89402090  0.67476427  0.85726105  1
  Hf  Hf28  1  0.41038177  0.80605540  -0.00102534  1
  Hf  Hf29  1  0.19737447  0.60620901  0.24749786  1
  Hf  Hf30  1  0.00798179  0.00012670  0.73988975  1
  Hf  Hf31  1  0.10604329  0.49476937  0.37063202  1
  Hf  Hf32  1  0.07239126  0.49804202  0.88859239  1
  Hf  Hf33  1  0.30370258  0.69022921  0.38807862  1
  Hf  Hf34  1  0.50516324  0.68821111  0.38282805  1
  Hf  Hf35  1  0.90020665  0.10910586  0.86521359  1
  Hf  Hf36  1  0.58248182  0.01087214  0.00778368  1
  Hf  Hf37  1  0.78851712  0.40486945  0.48430786  1
  Hf  Hf38  1  0.38902292  0.42165900  0.74729827  1
  Hf  Hf39  1  0.59708233  0.20803845  0.48982460  1
  Zr  Zr40  1  0.61095739  -0.00357902  0.74092641  1
  Zr  Zr41  1  0.69875390  0.52277912  0.87735844  1
  Zr  Zr42  1  0.90446364  0.89996831  0.11546956  1
  Zr  Zr43  1  0.41488442  -0.00111505  0.49434023  1
  Zr  Zr44  1  0.11014973  0.68971447  0.84751287  1
  Zr  Zr45  1  0.60079100  0.39411465  0.75361103  1
  Zr  Zr46  1  0.29243444  0.09040229  0.62073136  1
  Zr  Zr47  1  0.50347630  0.11425085  0.63309277  1
  Zr  Zr48  1  0.19708512  0.19139520  0.00798040  1
  Zr  Zr49  1  0.00455256  -0.01088873  -0.01203354  1
  Zr  Zr50  1  0.31009731  0.69403457  0.86119208  1
  Zr  Zr51  1  0.80770180  0.41563113  0.76065924  1
  Zr  Zr52  1  0.28345925  0.50128710  0.89560430  1
  Zr  Zr53  1  0.90672078  0.69278653  0.13109834  1
  Zr  Zr54  1  0.20358177  0.80464080  0.26616117  1
  Zr  Zr55  1  0.34609160  0.09990883  0.11464092  1
  Zr  Zr56  1  0.01732252  0.39472237  0.49961177  1
  Zr  Zr57  1  0.50079040  0.91006910  0.13259895  1
  Zr  Zr58  1  0.89820620  0.10258223  0.63545499  1
  Zr  Zr59  1  0.10826542  0.09450123  0.36872606  1
  Zr  Zr60  1  0.10769918  0.86711301  0.11501912  1
  Zr  Zr61  1  0.60087138  0.60191336  0.51208900  1
  Zr  Zr62  1  0.51668488  0.71115385  0.86696528  1
  Zr  Zr63  1  0.20716306  0.79699855  0.51033358  1
  Zr  Zr64  1  0.70254190  0.89521832  0.12319455  1
  Zr  Zr65  1  0.67401099  0.51744623  0.36726231  1
  Zr  Zr66  1  0.48998904  0.51331462  0.87840062  1
  Zr  Zr67  1  0.40889727  0.79372656  0.25753462  1
  Zr  Zr68  1  0.00620397  -0.02173774  0.25084804  1
  Zr  Zr69  1  0.78291830  0.20850968  0.75337110  1
  Zr  Zr70  1  0.89364591  0.89536803  0.87027771  1
  Zr  Zr71  1  0.17495997  0.39804454  0.75358735  1
  Zr  Zr72  1  0.00874477  0.77420102  0.26972337  1
  Zr  Zr73  1  0.71145787  0.11633882  0.12904294  1
  Zr  Zr74  1  0.00002726  0.19397658  0.50798235  1
  Zr  Zr75  1  0.49212626  0.29945921  0.88143977  1
  Zr  Zr76  1  0.30338220  0.90520138  0.12571134  1
  Zr  Zr77  1  0.21562112  0.19937488  0.23313167  1
  Zr  Zr78  1  0.81276958  0.81187078  0.27234043  1
  Zr  Zr79  1  0.29713128  0.70247967  0.11939719  1
  Ta  Ta80  1  0.51111339  0.10728621  0.36110935  1
  Ta  Ta81  1  0.69000470  0.30150047  0.61851222  1
  Ta  Ta82  1  -0.01038927  0.18584179  0.24008863  1
  Ta  Ta83  1  0.79285081  0.19965698  0.49897668  1
  Ta  Ta84  1  0.78952990  0.39961862  -0.00084781  1
  Ta  Ta85  1  0.80913891  0.01161467  0.25157559  1
  Ta  Ta86  1  0.89346154  0.50069703  0.61597847  1
  Ta  Ta87  1  0.10235008  0.68846311  0.63047588  1
  Ta  Ta88  1  0.10203040  0.90078322  0.39501575  1
  Ta  Ta89  1  0.30701655  0.49914788  0.37810389  1
  Ta  Ta90  1  0.38943723  0.40138507  0.24277244  1
  Ta  Ta91  1  0.08200646  0.29749694  0.12493341  1
  Ta  Ta92  1  -0.00389372  0.80229355  0.51173223  1
  Ta  Ta93  1  0.78316221  0.79674629  0.74438471  1
  Ta  Ta94  1  0.50348267  0.10586573  0.86367051  1
  Ta  Ta95  1  0.10283245  0.29283729  0.35752337  1
  Ta  Ta96  1  0.01287409  -0.00729278  0.52193478  1
  Ta  Ta97  1  0.40804160  0.60521925  0.00611940  1
  Ta  Ta98  1  0.80257138  0.01535341  0.00012868  1
  Ta  Ta99  1  0.89147543  0.69137652  0.62947148  1
  Ta  Ta100  1  0.59391049  0.40993945  0.00240688  1
  Ta  Ta101  1  0.49009664  0.49721650  0.11582069  1
  Ta  Ta102  1  0.50180522  0.90716875  0.87090413  1
  Ta  Ta103  1  0.08171430  0.29683780  0.88901650  1
  Ta  Ta104  1  0.01147335  0.76850150  -0.01303016  1
  Ta  Ta105  1  0.31546021  0.09960327  0.87404826  1
  Ta  Ta106  1  0.70508230  0.49722377  0.62119742  1
  Ta  Ta107  1  0.40873892  0.00335127  0.26581087  1
  Ta  Ta108  1  0.40608611  -0.00345245  0.74831424  1
  Ta  Ta109  1  0.30377349  0.90610688  0.38332647  1
  Ta  Ta110  1  0.80738144  0.59331190  0.00422936  1
  Ta  Ta111  1  0.57317400  0.40965564  0.24945381  1
  Ta  Ta112  1  0.70768721  0.10726797  0.37329295  1
  Ta  Ta113  1  -0.01912316  0.19360099  0.00978019  1
  Ta  Ta114  1  0.40224384  0.80848400  0.73424523  1
  Ta  Ta115  1  0.61183004  0.22020028  0.25883617  1
  Ta  Ta116  1  0.20201053  0.57933551  0.51469202  1
  Ta  Ta117  1  0.69819312  0.10668194  0.62102589  1
  Ta  Ta118  1  -0.00068918  0.57109968  0.73480054  1
  Ta  Ta119  1  0.29372229  0.31305614  0.37403798  1
  Ti  Ti120  1  0.89788001  0.50887989  0.36624475  1
  Ti  Ti121  1  0.10140377  0.69165454  0.39338871  1
  Ti  Ti122  1  0.12032161  0.90128360  0.62252715  1
  Ti  Ti123  1  0.60026366  0.81097140  0.73515352  1
  Ti  Ti124  1  -0.00464709  0.39478503  0.25153794  1
  Ti  Ti125  1  0.18030075  0.39912721  0.00911166  1
  Ti  Ti126  1  0.21413555  0.58556855  0.73114507  1
  Ti  Ti127  1  -0.02240631  0.39933862  0.01064027  1
  Ti  Ti128  1  0.18035017  0.62338904  0.00313588  1
  Ti  Ti129  1  0.30711328  0.88572704  0.86786706  1
  Ti  Ti130  1  0.69040084  0.89296611  0.88317663  1
  Ti  Ti131  1  0.60913602  0.00255114  0.25589123  1
  Ti  Ti132  1  0.30303537  0.69956635  0.62877487  1
  Ti  Ti133  1  0.51975146  0.69804359  0.12709534  1
  Ti  Ti134  1  0.70701197  0.70372747  0.61606439  1
  Ti  Ti135  1  0.39372845  0.41157577  0.50757393  1
  Ti  Ti136  1  0.40139075  0.59385153  0.51875136  1
  Ti  Ti137  1  0.29601969  0.50666116  0.10718284  1
  Ti  Ti138  1  0.78887328  0.62101285  0.26362809  1
  Ti  Ti139  1  0.89873615  0.30493689  0.88125617  1
  Ti  Ti140  1  0.10909009  0.87952010  0.86756408  1
  Ti  Ti141  1  0.19716387  0.19594834  0.74817937  1
  Ti  Ti142  1  0.79928988  -0.01401742  0.73617136  1
  Ti  Ti143  1  0.39714706  0.20613680  0.74931975  1
  Ti  Ti144  1  0.50040227  0.71065534  0.62094394  1
  Ti  Ti145  1  0.70171884  0.91305828  0.37902185  1
  Ti  Ti146  1  0.48940026  0.31550841  0.37010407  1
  Ti  Ti147  1  0.58237840  0.40507867  0.49911812  1
  Ti  Ti148  1  0.49813471  0.29282772  0.12241864  1
  Ti  Ti149  1  0.40768031  0.58845441  0.24405080  1
  Ti  Ti150  1  0.60025857  0.81529008  0.49698495  1
  Ti  Ti151  1  0.21086382  -0.00405840  0.25090848  1
  Ti  Ti152  1  0.60486950  0.00170496  0.50026157  1
  Ti  Ti153  1  0.59974333  0.20427440  0.00776102  1
  Ti  Ti154  1  0.01013795  0.21625395  0.74432313  1
  Ti  Ti155  1  0.68575575  0.31354218  0.12129570  1
  Ti  Ti156  1  0.49898539  0.31176511  0.63061303  1
  Ti  Ti157  1  0.61176540  0.62613372  0.00331855  1
  Ti  Ti158  1  0.69552635  0.29726219  0.88770160  1
  Ti  Ti159  1  0.41095611  0.80588671  0.50419338  1
  Mo  Mo160  1  -0.00579025  0.39122726  0.75145170  1
  Mo  Mo161  1  0.50133395  0.49716639  0.62615793  1
  Mo  Mo162  1  0.42176963  0.18855671  -0.00299148  1
  Mo  Mo163  1  0.79826638  0.60398254  0.73746712  1
  Mo  Mo164  1  0.40226406  -0.00309091  -0.02498725  1
  Mo  Mo165  1  0.09854642  0.29374032  0.63050375  1
  Mo  Mo166  1  -0.00415076  0.58925290  0.26387573  1
  Mo  Mo167  1  0.09859874  0.49128854  0.62346508  1
  Mo  Mo168  1  0.91264001  0.90060116  0.38699561  1
  Mo  Mo169  1  0.20727118  0.39538341  0.49563566  1
  Mo  Mo170  1  0.80014048  0.19496542  0.26233528  1
  Mo  Mo171  1  0.60141060  0.80264610  0.00149053  1
  Mo  Mo172  1  0.20103270  0.79396042  -0.01431967  1
  Mo  Mo173  1  0.59511496  0.20555140  0.74690970  1
  Mo  Mo174  1  0.40773835  0.61078993  0.72492367  1
  Mo  Mo175  1  0.58300967  0.60545911  0.24552072  1
  Mo  Mo176  1  0.89761605  0.88741036  0.62937671  1
  Mo  Mo177  1  0.40193121  0.40438252  0.00183630  1
  Mo  Mo178  1  0.90552814  0.68864710  0.38179317  1
  Mo  Mo179  1  0.68457017  0.30289188  0.38339331  1
  Mo  Mo180  1  0.20131368  -0.00155362  0.49999583  1
  Mo  Mo181  1  0.50524050  0.90024150  0.61979450  1
  Mo  Mo182  1  0.31316961  0.89469366  0.62103045  1
  Mo  Mo183  1  0.80001543  0.59559627  0.49674222  1
  Mo  Mo184  1  0.09875821  0.69483075  0.12518987  1
  Mo  Mo185  1  0.50904391  0.90749975  0.37304495  1
  Mo  Mo186  1  0.89424631  0.49064844  0.88127468  1
  Mo  Mo187  1  0.69815773  0.70339242  0.38429581  1
  Mo  Mo188  1  0.47849235  0.49897582  0.37791035  1
  Mo  Mo189  1  0.20569756  0.79468592  0.72850449  1
  Mo  Mo190  1  0.10579436  0.09983228  0.63628431  1
  Mo  Mo191  1  0.90233553  0.09682865  0.12289693  1
  Mo  Mo192  1  0.69809744  0.89454639  0.61590366  1
  Mo  Mo193  1  0.51939102  0.11419203  0.15668016  1
  Mo  Mo194  1  0.79321091  0.20719253  -0.00852091  1
  Mo  Mo195  1  0.29956678  0.50221913  0.62146527  1
  Mo  Mo196  1  -0.01296098  0.59584378  -0.00058184  1
  Mo  Mo197  1  0.41602187  0.21882859  0.25679858  1
  Mo  Mo198  1  0.70687437  0.69895906  0.12910095  1
  Mo  Mo199  1  0.70208142  0.71218385  0.86945345  1
