# generated using pymatgen
data_HfZrTaTiMo
_symmetry_space_group_name_H-M   'P 1'
_cell_length_a   15.20938365
_cell_length_b   15.20925284
_cell_length_c   16.84501239
_cell_angle_alpha   90.01022370
_cell_angle_beta   89.90547833
_cell_angle_gamma   90.03898852
_symmetry_Int_Tables_number   1
_chemical_formula_structural   HfZrTaTiMo
_chemical_formula_sum   'Hf40 Zr40 Ta40 Ti40 Mo40'
_cell_volume   3896.63862739
_cell_formula_units_Z   40
loop_
 _symmetry_equiv_pos_site_id
 _symmetry_equiv_pos_as_xyz
  1  'x, y, z'
loop_
 _atom_site_type_symbol
 _atom_site_label
 _atom_site_symmetry_multiplicity
 _atom_site_fract_x
 _atom_site_fract_y
 _atom_site_fract_z
 _atom_site_occupancy
  Hf  Hf0  1  0.10123325  0.09264344  0.12155550  1
  Hf  Hf1  1  0.80817877  0.40416110  0.73943403  1
  Hf  Hf2  1  0.38637586  -0.01242525  0.49950404  1
  Hf  Hf3  1  0.59736438  0.00927869  -0.01070556  1
  Hf  Hf4  1  0.61200604  0.62089970  0.50770118  1
  Hf  Hf5  1  0.51846864  0.70124020  0.86244275  1
  Hf  Hf6  1  -0.01175693  0.19523968  0.00567518  1
  Hf  Hf7  1  -0.00363612  0.58760133  0.74071679  1
  Hf  Hf8  1  0.00152023  0.79137371  0.01499203  1
  Hf  Hf9  1  0.78043669  0.19883535  -0.00063195  1
  Hf  Hf10  1  0.09489627  0.68467805  0.87461453  1
  Hf  Hf11  1  0.10989843  0.70444225  0.63033510  1
  Hf  Hf12  1  0.08740653  0.08625474  0.36247386  1
  Hf  Hf13  1  0.49475806  0.10967110  0.38297985  1
  Hf  Hf14  1  0.49071766  0.29965390  0.12031869  1
  Hf  Hf15  1  0.70998614  0.10342609  0.62464223  1
  Hf  Hf16  1  0.31221020  0.69769592  0.35321048  1
  Hf  Hf17  1  -0.00611596  0.79211079  0.23686467  1
  Hf  Hf18  1  0.79459760  0.42237145  0.26109198  1
  Hf  Hf19  1  0.49006575  0.09618418  0.12878350  1
  Hf  Hf20  1  0.41242117  0.58991719  0.49685859  1
  Hf  Hf21  1  0.38729136  0.39667079  0.75161332  1
  Hf  Hf22  1  0.88804994  0.69118882  0.37290300  1
  Hf  Hf23  1  0.09858016  0.89854386  0.64180444  1
  Hf  Hf24  1  0.10416029  0.69309108  0.35628510  1
  Hf  Hf25  1  0.89877647  0.31132002  0.13178007  1
  Hf  Hf26  1  -0.00383868  0.60075631  0.49339977  1
  Hf  Hf27  1  0.78006360  0.20085654  0.25363225  1
  Hf  Hf28  1  0.40648356  -0.00615895  0.75800654  1
  Hf  Hf29  1  0.81135757  0.00087946  0.50421039  1
  Hf  Hf30  1  0.42592863  0.79276490  0.50733754  1
  Hf  Hf31  1  -0.00886835  -0.01625616  0.23196831  1
  Hf  Hf32  1  0.40030126  0.59794142  0.00177722  1
  Hf  Hf33  1  0.29950647  0.88913066  0.64004648  1
  Hf  Hf34  1  0.30834731  0.10752327  0.87187982  1
  Hf  Hf35  1  0.68884644  0.30614137  0.12880562  1
  Hf  Hf36  1  0.59885357  0.20565152  0.73262899  1
  Hf  Hf37  1  0.10647311  0.29496264  0.13677548  1
  Hf  Hf38  1  0.09118062  0.09433890  0.64225597  1
  Hf  Hf39  1  -0.00394086  0.39772913  0.48176635  1
  Zr  Zr40  1  0.21721735  0.80176835  0.48809347  1
  Zr  Zr41  1  0.80471267  0.80521099  0.00730589  1
  Zr  Zr42  1  0.39347727  0.20351422  0.51879105  1
  Zr  Zr43  1  0.40311180  0.20268178  0.73318667  1
  Zr  Zr44  1  0.31513383  0.68539126  0.63986636  1
  Zr  Zr45  1  0.91071937  0.29891971  0.87415196  1
  Zr  Zr46  1  0.28456842  0.10708823  0.37888278  1
  Zr  Zr47  1  0.40952414  0.80614978  -0.00835796  1
  Zr  Zr48  1  0.10409322  0.49971654  0.61263161  1
  Zr  Zr49  1  0.80923233  0.60819646  0.01194129  1
  Zr  Zr50  1  0.70345746  0.89028470  0.86940989  1
  Zr  Zr51  1  0.19969849  0.22178833  -0.01418149  1
  Zr  Zr52  1  0.51240066  0.69843632  0.36049684  1
  Zr  Zr53  1  0.91464859  0.50627873  0.87691969  1
  Zr  Zr54  1  0.49331597  0.50257102  0.86578666  1
  Zr  Zr55  1  0.60410287  0.61135337  0.00802640  1
  Zr  Zr56  1  0.50518416  0.70557353  0.13969166  1
  Zr  Zr57  1  0.08229858  0.10685202  0.86934451  1
  Zr  Zr58  1  0.08189990  0.30174880  0.62288766  1
  Zr  Zr59  1  0.20192393  -0.00576178  -0.01275427  1
  Zr  Zr60  1  0.67464230  0.32427102  0.37924957  1
  Zr  Zr61  1  -0.01119225  0.18047602  0.49878258  1
  Zr  Zr62  1  0.20041559  0.58504929  0.00605955  1
  Zr  Zr63  1  0.59483052  0.40303293  -0.00091240  1
  Zr  Zr64  1  0.20638247  0.79601218  0.00692448  1
  Zr  Zr65  1  0.70150650  0.91878119  0.12567700  1
  Zr  Zr66  1  0.00374118  0.81073901  0.49730962  1
  Zr  Zr67  1  0.87545620  0.09191268  0.13145708  1
  Zr  Zr68  1  0.30836571  0.68877476  0.14496108  1
  Zr  Zr69  1  0.60269377  0.21703358  0.51442769  1
  Zr  Zr70  1  0.21106679  0.59289544  0.48820363  1
  Zr  Zr71  1  0.88569012  0.08908480  0.36344111  1
  Zr  Zr72  1  0.69650758  0.30288437  0.87243768  1
  Zr  Zr73  1  0.18070229  -0.00060739  0.50090664  1
  Zr  Zr74  1  0.59704641  -0.01309685  0.50234442  1
  Zr  Zr75  1  0.10644613  0.48816282  0.14521718  1
  Zr  Zr76  1  0.19903391  0.21166810  0.75560192  1
  Zr  Zr77  1  0.70188626  0.51545382  0.86991320  1
  Zr  Zr78  1  0.17988776  0.40665496  0.76047785  1
  Zr  Zr79  1  0.11177700  0.28335861  0.37655303  1
  Ta  Ta80  1  0.59970142  -0.00930326  0.74390796  1
  Ta  Ta81  1  0.38188983  0.39807685  -0.00412881  1
  Ta  Ta82  1  0.80251032  0.00392654  -0.01304625  1
  Ta  Ta83  1  0.30024629  0.10586482  0.11952647  1
  Ta  Ta84  1  0.10431263  0.68858075  0.14070532  1
  Ta  Ta85  1  0.52438460  0.48879417  0.37679499  1
  Ta  Ta86  1  0.61441059  0.79082190  0.73766552  1
  Ta  Ta87  1  0.20128511  0.80992929  0.23983558  1
  Ta  Ta88  1  0.69887353  0.10247413  0.85823171  1
  Ta  Ta89  1  0.28885140  0.09147403  0.63313329  1
  Ta  Ta90  1  0.88757374  0.09594217  0.86508764  1
  Ta  Ta91  1  0.40673928  0.19653295  -0.00512092  1
  Ta  Ta92  1  0.31262444  0.48625836  0.14778162  1
  Ta  Ta93  1  0.20618351  -0.00442643  0.24289120  1
  Ta  Ta94  1  0.30190828  0.48317412  0.62104932  1
  Ta  Ta95  1  0.31515899  0.49249031  0.36039842  1
  Ta  Ta96  1  0.61933279  0.58955635  0.25066173  1
  Ta  Ta97  1  -0.00993999  -0.01450980  -0.00012300  1
  Ta  Ta98  1  0.57768144  0.21261808  0.25925633  1
  Ta  Ta99  1  0.09380474  0.88671669  0.86888529  1
  Ta  Ta100  1  0.78916134  0.40733955  0.49863130  1
  Ta  Ta101  1  0.38058113  0.20771299  0.25434983  1
  Ta  Ta102  1  0.31249668  0.91310466  0.12432066  1
  Ta  Ta103  1  0.79395991  0.61533579  0.74018018  1
  Ta  Ta104  1  0.59933662  0.00982429  0.26305873  1
  Ta  Ta105  1  -0.00646245  0.19903218  0.24885087  1
  Ta  Ta106  1  0.81039003  0.40701062  0.00616319  1
  Ta  Ta107  1  0.79169431  0.79297620  0.50443570  1
  Ta  Ta108  1  0.89798396  0.89420323  0.37396172  1
  Ta  Ta109  1  0.88547392  0.29414892  0.37704039  1
  Ta  Ta110  1  0.69671637  0.50432814  0.62345763  1
  Ta  Ta111  1  0.61070599  0.81658464  0.25198709  1
  Ta  Ta112  1  -0.00395490  0.39483867  0.27033111  1
  Ta  Ta113  1  0.81019992  0.80499342  0.74082351  1
  Ta  Ta114  1  0.30517943  0.69784275  0.86205384  1
  Ta  Ta115  1  0.20177489  -0.00917885  0.76752486  1
  Ta  Ta116  1  0.59845077  0.40324134  0.74092858  1
  Ta  Ta117  1  0.21906259  0.37775325  0.26308692  1
  Ta  Ta118  1  0.40329195  0.82378883  0.25088485  1
  Ta  Ta119  1  0.49393628  0.29503743  0.87579309  1
  Ti  Ti120  1  0.10216846  0.89656738  0.36624882  1
  Ti  Ti121  1  0.90386560  0.90356495  0.62342275  1
  Ti  Ti122  1  0.50109598  0.49891003  0.13515782  1
  Ti  Ti123  1  0.49478653  0.51791751  0.63720618  1
  Ti  Ti124  1  0.89920032  0.49169948  0.61548223  1
  Ti  Ti125  1  0.80559844  0.20830507  0.74172436  1
  Ti  Ti126  1  0.49835814  0.32922730  0.61884369  1
  Ti  Ti127  1  0.40302175  -0.00628096  -0.01733791  1
  Ti  Ti128  1  -0.00533782  0.79339729  0.75189371  1
  Ti  Ti129  1  0.89913981  0.70036530  0.61821117  1
  Ti  Ti130  1  0.70488206  0.90125800  0.37727232  1
  Ti  Ti131  1  0.42204193  0.38675469  0.26336535  1
  Ti  Ti132  1  0.51070932  0.10423861  0.86808211  1
  Ti  Ti133  1  0.29867267  0.29881169  0.12280671  1
  Ti  Ti134  1  0.41390580  0.80068115  0.75430509  1
  Ti  Ti135  1  0.50071339  0.89854938  0.37328760  1
  Ti  Ti136  1  0.01771234  0.40235078  0.00287124  1
  Ti  Ti137  1  0.39649569  0.39626634  0.49313647  1
  Ti  Ti138  1  0.49653973  0.08231477  0.62186873  1
  Ti  Ti139  1  0.70512167  0.50101325  0.12295368  1
  Ti  Ti140  1  -0.00165215  0.59231978  0.02044984  1
  Ti  Ti141  1  0.69976355  0.89366859  0.62276719  1
  Ti  Ti142  1  0.11168783  0.49475493  0.36534448  1
  Ti  Ti143  1  0.50500317  0.90717643  0.12992215  1
  Ti  Ti144  1  0.20184802  0.21022484  0.51660934  1
  Ti  Ti145  1  0.88972845  0.71062773  0.87113412  1
  Ti  Ti146  1  -0.01047938  0.58392007  0.25005767  1
  Ti  Ti147  1  -0.01358429  -0.00880328  0.76078422  1
  Ti  Ti148  1  0.90361433  0.10372337  0.63634978  1
  Ti  Ti149  1  0.20395824  0.59671500  0.75347776  1
  Ti  Ti150  1  0.80340254  0.81167549  0.24153506  1
  Ti  Ti151  1  0.79941133  -0.00407127  0.74692605  1
  Ti  Ti152  1  0.70274796  0.70850657  0.36901013  1
  Ti  Ti153  1  0.67830990  0.10890717  0.12846121  1
  Ti  Ti154  1  0.60192515  0.80719765  -0.00049863  1
  Ti  Ti155  1  0.70062914  0.70956353  0.13401393  1
  Ti  Ti156  1  0.80749740  0.60959246  0.23685524  1
  Ti  Ti157  1  0.39697642  0.00698108  0.25885598  1
  Ti  Ti158  1  0.69620070  0.10859735  0.38582415  1
  Ti  Ti159  1  0.28796713  0.49899702  0.87619711  1
  Mo  Mo160  1  0.89716546  0.90167497  0.12103536  1
  Mo  Mo161  1  0.39462614  0.59492960  0.75455122  1
  Mo  Mo162  1  0.58599361  0.42292634  0.51528781  1
  Mo  Mo163  1  0.42073983  0.57907155  0.25373668  1
  Mo  Mo164  1  0.30432133  0.30703893  0.88014031  1
  Mo  Mo165  1  0.88278363  0.29492965  0.61032415  1
  Mo  Mo166  1  0.79868333  0.20934789  0.50031406  1
  Mo  Mo167  1  0.50476440  0.89518129  0.63266872  1
  Mo  Mo168  1  0.30109411  0.89144008  0.86561046  1
  Mo  Mo169  1  0.30683657  0.29902446  0.38221843  1
  Mo  Mo170  1  0.60917462  0.80737668  0.49758816  1
  Mo  Mo171  1  0.58976734  0.19533259  -0.00625109  1
  Mo  Mo172  1  0.19960088  0.79444808  0.76330237  1
  Mo  Mo173  1  -0.01122712  0.39543371  0.74020211  1
  Mo  Mo174  1  0.70169009  0.31287453  0.62279840  1
  Mo  Mo175  1  0.71115392  0.52617796  0.38195580  1
  Mo  Mo176  1  0.20404733  0.40702526  0.00361756  1
  Mo  Mo177  1  0.77938464  -0.01008101  0.26122733  1
  Mo  Mo178  1  0.08967789  0.31775127  0.87835086  1
  Mo  Mo179  1  0.20522257  0.58881971  0.25565281  1
  Mo  Mo180  1  0.11023843  0.89568571  0.12120828  1
  Mo  Mo181  1  0.89877775  0.49695980  0.37730251  1
  Mo  Mo182  1  0.09335453  0.49860134  0.88081728  1
  Mo  Mo183  1  0.90642870  0.90029292  0.86999309  1
  Mo  Mo184  1  0.90384833  0.49504144  0.12680244  1
  Mo  Mo185  1  0.59619913  0.40940673  0.24407588  1
  Mo  Mo186  1  0.29155955  0.30702298  0.61948671  1
  Mo  Mo187  1  0.71184287  0.70466892  0.62324795  1
  Mo  Mo188  1  0.71104884  0.69905595  0.86589740  1
  Mo  Mo189  1  0.50777710  0.90081996  0.86806914  1
  Mo  Mo190  1  0.50994021  0.70102374  0.63963476  1
  Mo  Mo191  1  0.49145806  0.30421604  0.38292960  1
  Mo  Mo192  1  0.20158835  0.18968933  0.24255884  1
  Mo  Mo193  1  0.90090592  0.69313106  0.13499266  1
  Mo  Mo194  1  0.21083847  0.39895977  0.48489871  1
  Mo  Mo195  1  0.60287228  0.59942991  0.73644828  1
  Mo  Mo196  1  -0.00502896  -0.01072831  0.50007778  1
  Mo  Mo197  1  0.30087853  0.90048711  0.36454627  1
  Mo  Mo198  1  0.80644898  0.59837257  0.50682782  1
  Mo  Mo199  1  -0.01382893  0.20341001  0.74682896  1
