# generated using pymatgen
data_HfZrTaTiMo
_symmetry_space_group_name_H-M   'P 1'
_cell_length_a   15.21252907
_cell_length_b   15.22312460
_cell_length_c   16.85383222
_cell_angle_alpha   90.00064950
_cell_angle_beta   90.01403880
_cell_angle_gamma   90.15729786
_symmetry_Int_Tables_number   1
_chemical_formula_structural   HfZrTaTiMo
_chemical_formula_sum   'Hf40 Zr40 Ta40 Ti40 Mo40'
_cell_volume   3903.03314756
_cell_formula_units_Z   40
loop_
 _symmetry_equiv_pos_site_id
 _symmetry_equiv_pos_as_xyz
  1  'x, y, z'
loop_
 _atom_site_type_symbol
 _atom_site_label
 _atom_site_symmetry_multiplicity
 _atom_site_fract_x
 _atom_site_fract_y
 _atom_site_fract_z
 _atom_site_occupancy
  Hf  Hf0  1  0.20878803  0.41571403  0.51891286  1
  Hf  Hf1  1  0.89107654  0.29106660  0.62435884  1
  Hf  Hf2  1  0.39964098  0.60034382  0.50114780  1
  Hf  Hf3  1  0.68702094  0.91546742  0.60971068  1
  Hf  Hf4  1  0.68612166  0.70474870  0.86418049  1
  Hf  Hf5  1  0.20482370  0.81615757  -0.00371987  1
  Hf  Hf6  1  0.39260240  0.20272363  0.00140415  1
  Hf  Hf7  1  0.49491941  0.08773491  0.13875194  1
  Hf  Hf8  1  0.13183002  0.51004686  0.37074761  1
  Hf  Hf9  1  0.89017347  0.70143137  0.86116919  1
  Hf  Hf10  1  0.61071001  0.18973314  0.75599653  1
  Hf  Hf11  1  0.38240422  0.59177062  0.25538084  1
  Hf  Hf12  1  0.38621299  0.19959184  0.25693368  1
  Hf  Hf13  1  0.30714856  0.09173829  0.63004122  1
  Hf  Hf14  1  0.88067837  0.91141021  0.39133981  1
  Hf  Hf15  1  0.60205460  0.61574910  0.24450179  1
  Hf  Hf16  1  0.31139359  0.29055044  0.61844290  1
  Hf  Hf17  1  0.20803021  0.39822988  0.73689161  1
  Hf  Hf18  1  0.10587412  0.29686561  0.12983078  1
  Hf  Hf19  1  0.87924272  0.71249994  0.12522249  1
  Hf  Hf20  1  0.49727803  0.30002169  0.87553316  1
  Hf  Hf21  1  0.40159089  0.40920511  0.74638621  1
  Hf  Hf22  1  0.80828538  0.40147953  0.74654962  1
  Hf  Hf23  1  0.79922736  0.60546081  0.26716381  1
  Hf  Hf24  1  0.18523345  0.79656025  0.25112740  1
  Hf  Hf25  1  0.90786255  0.49948723  0.86824168  1
  Hf  Hf26  1  0.11733689  0.50825415  0.86743360  1
  Hf  Hf27  1  -0.00056723  0.60378669  -0.00132459  1
  Hf  Hf28  1  0.50152145  0.51272653  0.87185029  1
  Hf  Hf29  1  0.09232685  0.71448244  0.11689919  1
  Hf  Hf30  1  0.71927032  0.50876541  0.61669817  1
  Hf  Hf31  1  0.89425498  0.29667231  0.13114839  1
  Hf  Hf32  1  0.01210049  0.39834928  0.00290047  1
  Hf  Hf33  1  0.10234003  0.10047954  0.37459085  1
  Hf  Hf34  1  0.79442592  0.39534796  0.25943151  1
  Hf  Hf35  1  0.29079818  0.09138025  0.87436074  1
  Hf  Hf36  1  0.77082821  0.79782359  0.26899491  1
  Hf  Hf37  1  0.59797100  0.19010413  0.00611099  1
  Hf  Hf38  1  0.21440926  -0.00303634  0.26011408  1
  Hf  Hf39  1  -0.00641947  0.82103437  -0.00701791  1
  Zr  Zr40  1  0.60061372  0.60435011  0.00843396  1
  Zr  Zr41  1  0.50656841  0.50627750  0.37495621  1
  Zr  Zr42  1  0.00175881  0.19618421  0.49885389  1
  Zr  Zr43  1  0.70497767  0.30241939  0.87666226  1
  Zr  Zr44  1  0.01144445  0.61421752  0.25655916  1
  Zr  Zr45  1  0.29632169  0.69223103  0.11797847  1
  Zr  Zr46  1  0.80387131  0.40463272  0.00054134  1
  Zr  Zr47  1  -0.01274259  0.59443919  0.51671227  1
  Zr  Zr48  1  0.20661780  0.79744301  0.74780983  1
  Zr  Zr49  1  0.00905023  0.39501001  0.51443038  1
  Zr  Zr50  1  0.09778836  0.70396019  0.62682123  1
  Zr  Zr51  1  0.79349356  0.00071147  0.75382384  1
  Zr  Zr52  1  0.60174647  0.40101443  0.00967688  1
  Zr  Zr53  1  0.29507157  0.68343032  0.88025578  1
  Zr  Zr54  1  0.09215215  0.70401646  0.86569842  1
  Zr  Zr55  1  0.70396773  0.08385032  0.36534918  1
  Zr  Zr56  1  0.50747336  0.90183073  0.88442567  1
  Zr  Zr57  1  0.91022971  0.09126138  0.12456268  1
  Zr  Zr58  1  0.50441550  0.08648541  0.62744656  1
  Zr  Zr59  1  0.59944317  0.18819782  0.48614526  1
  Zr  Zr60  1  0.90837328  0.50507620  0.13302546  1
  Zr  Zr61  1  -0.01891435  0.81095121  0.26591278  1
  Zr  Zr62  1  0.79832941  0.19529476  -0.00142047  1
  Zr  Zr63  1  0.91374886  0.49729786  0.37649835  1
  Zr  Zr64  1  0.70051721  0.09118150  0.13335467  1
  Zr  Zr65  1  0.19752771  0.19924199  0.00465617  1
  Zr  Zr66  1  0.27902376  0.69318192  0.38510484  1
  Zr  Zr67  1  0.19012058  0.19683689  0.74773912  1
  Zr  Zr68  1  0.10603559  0.29945355  0.87675608  1
  Zr  Zr69  1  0.88892812  0.89524119  0.61749131  1
  Zr  Zr70  1  0.49219729  0.30510896  0.13742013  1
  Zr  Zr71  1  0.10516054  0.30689430  0.36747787  1
  Zr  Zr72  1  0.39583357  0.81447722  0.25772246  1
  Zr  Zr73  1  0.21233087  -0.00139374  0.49455223  1
  Zr  Zr74  1  -0.01037427  0.79899684  0.50176716  1
  Zr  Zr75  1  0.61308006  0.39323186  0.50097880  1
  Zr  Zr76  1  0.51005150  0.28958757  0.62476875  1
  Zr  Zr77  1  0.12967995  0.50904145  0.13028104  1
  Zr  Zr78  1  0.41641429  -0.00597167  0.48554282  1
  Zr  Zr79  1  0.60725487  0.40297939  0.74059640  1
  Ta  Ta80  1  0.30133200  0.31214949  0.37973681  1
  Ta  Ta81  1  0.69897889  0.70655204  0.62769123  1
  Ta  Ta82  1  0.40815529  0.39677427  0.49859721  1
  Ta  Ta83  1  0.59503001  -0.00785178  0.75304491  1
  Ta  Ta84  1  -0.00820005  0.81393337  0.74525825  1
  Ta  Ta85  1  0.80516974  0.19336707  0.75592184  1
  Ta  Ta86  1  0.39739079  0.19436190  0.47941989  1
  Ta  Ta87  1  0.60362448  0.80315343  0.00315251  1
  Ta  Ta88  1  0.01080681  0.39657701  0.73234196  1
  Ta  Ta89  1  0.78163031  0.78023720  0.49202529  1
  Ta  Ta90  1  0.19961243  0.19953539  0.24569176  1
  Ta  Ta91  1  0.57509756  0.80449559  0.51200187  1
  Ta  Ta92  1  0.70336569  0.50174815  0.13182969  1
  Ta  Ta93  1  0.80233857  0.19775755  0.25848066  1
  Ta  Ta94  1  0.59653488  0.60751512  0.73895958  1
  Ta  Ta95  1  0.90440326  0.09773189  0.87862809  1
  Ta  Ta96  1  0.40296153  0.61377121  0.73839049  1
  Ta  Ta97  1  0.38647601  0.80601880  0.49212900  1
  Ta  Ta98  1  0.01004988  0.39790397  0.24901090  1
  Ta  Ta99  1  0.79646773  0.20499078  0.48591998  1
  Ta  Ta100  1  0.79430050  0.60431701  -0.00081558  1
  Ta  Ta101  1  0.89214415  0.09504975  0.61828490  1
  Ta  Ta102  1  0.79233656  0.80174019  -0.00925667  1
  Ta  Ta103  1  0.48780543  0.70931319  0.87859196  1
  Ta  Ta104  1  0.49250689  0.50443714  0.13355951  1
  Ta  Ta105  1  0.49709487  0.89759712  0.11326210  1
  Ta  Ta106  1  0.50160224  0.08662432  0.35205508  1
  Ta  Ta107  1  0.10207690  0.91476450  0.86943825  1
  Ta  Ta108  1  0.38865837  -0.00675636  0.00221161  1
  Ta  Ta109  1  0.91177893  0.29347909  0.86845036  1
  Ta  Ta110  1  0.00116992  0.00685838  0.74375273  1
  Ta  Ta111  1  0.39866513  0.19719593  0.76194434  1
  Ta  Ta112  1  0.58299852  0.80243385  0.73684390  1
  Ta  Ta113  1  0.50408134  0.30017951  0.36572047  1
  Ta  Ta114  1  0.80715459  -0.01102373  0.24769615  1
  Ta  Ta115  1  0.30975577  0.89678703  0.86804808  1
  Ta  Ta116  1  0.70221213  0.88783500  0.12360586  1
  Ta  Ta117  1  0.10399152  0.90791264  0.62173487  1
  Ta  Ta118  1  0.39228968  0.58856444  0.00361335  1
  Ta  Ta119  1  0.19620181  -0.00361700  0.74537373  1
  Ti  Ti120  1  0.60420653  0.40515082  0.25145376  1
  Ti  Ti121  1  0.08959505  0.09448970  0.88030805  1
  Ti  Ti122  1  0.89777226  0.90765112  0.86970400  1
  Ti  Ti123  1  0.80836047  0.39895561  0.49544749  1
  Ti  Ti124  1  0.67317416  0.89247954  0.38981794  1
  Ti  Ti125  1  0.09779749  0.10201747  0.61996137  1
  Ti  Ti126  1  0.50528478  0.71480768  0.37355057  1
  Ti  Ti127  1  -0.00171678  0.00276255  0.50214470  1
  Ti  Ti128  1  0.30393500  0.70382815  0.61607751  1
  Ti  Ti129  1  0.29692406  0.90618275  0.12265345  1
  Ti  Ti130  1  0.70685373  0.51121883  0.86584194  1
  Ti  Ti131  1  0.61182145  0.21061632  0.25263217  1
  Ti  Ti132  1  0.22233615  0.40734788  -0.00171779  1
  Ti  Ti133  1  0.49472279  0.09088626  0.87712906  1
  Ti  Ti134  1  0.10600052  0.89310091  0.38985242  1
  Ti  Ti135  1  0.50352901  0.50847129  0.61900569  1
  Ti  Ti136  1  0.31152351  0.89728065  0.63334783  1
  Ti  Ti137  1  0.60705136  0.61385819  0.50439359  1
  Ti  Ti138  1  0.10310384  0.08089953  0.12262356  1
  Ti  Ti139  1  0.21083349  0.58963718  0.73044251  1
  Ti  Ti140  1  0.20226582  0.20530549  0.49982857  1
  Ti  Ti141  1  -0.00172603  0.19519408  0.00129572  1
  Ti  Ti142  1  0.23207162  0.40366883  0.24497875  1
  Ti  Ti143  1  -0.01360820  0.59602086  0.73194091  1
  Ti  Ti144  1  0.49643805  0.70908149  0.12200234  1
  Ti  Ti145  1  0.09221847  0.69982320  0.39597267  1
  Ti  Ti146  1  0.90432934  0.90525971  0.12312751  1
  Ti  Ti147  1  0.78773623  0.80363065  0.74705296  1
  Ti  Ti148  1  0.29527752  0.09682586  0.12321836  1
  Ti  Ti149  1  0.00045420  0.19545824  0.24999033  1
  Ti  Ti150  1  -0.00289395  0.19632586  0.74430905  1
  Ti  Ti151  1  0.90245451  0.29538273  0.37033594  1
  Ti  Ti152  1  0.59697809  -0.03067430  0.24922118  1
  Ti  Ti153  1  0.69196960  0.07785305  0.88563641  1
  Ti  Ti154  1  0.70629190  0.11189693  0.61704788  1
  Ti  Ti155  1  0.00644172  -0.00402230  0.25537962  1
  Ti  Ti156  1  0.90232949  0.09865148  0.37315163  1
  Ti  Ti157  1  0.79811692  -0.01257084  -0.00336853  1
  Ti  Ti158  1  0.39828762  0.40002520  -0.00268206  1
  Ti  Ti159  1  0.70306108  0.50411489  0.38583749  1
  Mo  Mo160  1  0.19880217  0.60528710  0.51734614  1
  Mo  Mo161  1  0.20243049  0.60362318  0.24942565  1
  Mo  Mo162  1  0.40912702  0.39852274  0.25882887  1
  Mo  Mo163  1  0.31486248  0.48608695  0.12190503  1
  Mo  Mo164  1  0.29671940  0.30359494  0.12693525  1
  Mo  Mo165  1  0.09392825  0.91241413  0.12727046  1
  Mo  Mo166  1  0.90036527  0.49869701  0.62711730  1
  Mo  Mo167  1  0.29414752  0.89779001  0.37633376  1
  Mo  Mo168  1  0.48698998  0.89858956  0.62990765  1
  Mo  Mo169  1  0.79475919  0.60474084  0.74860682  1
  Mo  Mo170  1  0.79707161  0.01008292  0.49896065  1
  Mo  Mo171  1  0.30658408  0.30539266  0.87282901  1
  Mo  Mo172  1  0.79570101  0.59959928  0.48983732  1
  Mo  Mo173  1  0.39918635  -0.00074332  0.24777554  1
  Mo  Mo174  1  0.87923837  0.69413738  0.63920805  1
  Mo  Mo175  1  0.10279759  0.28953293  0.62584593  1
  Mo  Mo176  1  0.40325844  0.79874852  0.00519700  1
  Mo  Mo177  1  0.71374838  0.28834595  0.62272269  1
  Mo  Mo178  1  0.67871169  0.69453657  0.38591113  1
  Mo  Mo179  1  0.10369909  0.50317372  0.63758438  1
  Mo  Mo180  1  0.69916474  0.70151499  0.11957018  1
  Mo  Mo181  1  0.29820694  0.11085978  0.37441236  1
  Mo  Mo182  1  0.20193508  0.59455465  -0.00476123  1
  Mo  Mo183  1  0.49971627  0.89685049  0.37126853  1
  Mo  Mo184  1  0.69838254  0.30136119  0.13878095  1
  Mo  Mo185  1  0.60063488  -0.00245084  0.49357276  1
  Mo  Mo186  1  0.59158681  0.79901689  0.24140922  1
  Mo  Mo187  1  0.30823164  0.49296701  0.87349740  1
  Mo  Mo188  1  0.40311516  0.79852682  0.74782262  1
  Mo  Mo189  1  0.70343726  0.30417136  0.36997259  1
  Mo  Mo190  1  -0.00018999  0.00288914  -0.00655371  1
  Mo  Mo191  1  0.20071591  0.80387846  0.51012678  1
  Mo  Mo192  1  0.30595645  0.49257688  0.38301023  1
  Mo  Mo193  1  0.49631574  0.70089575  0.61932769  1
  Mo  Mo194  1  0.60516857  -0.00291023  0.00561737  1
  Mo  Mo195  1  0.39879239  -0.00347026  0.75736343  1
  Mo  Mo196  1  0.19683965  -0.00235935  0.00116013  1
  Mo  Mo197  1  0.31368703  0.50767378  0.62241719  1
  Mo  Mo198  1  0.70352796  0.89562751  0.87420449  1
  Mo  Mo199  1  0.89058969  0.70173349  0.38113183  1
