# generated using pymatgen
data_HfZrTaTiMo
_symmetry_space_group_name_H-M   'P 1'
_cell_length_a   15.20874998
_cell_length_b   15.21990048
_cell_length_c   16.85871687
_cell_angle_alpha   90.01896762
_cell_angle_beta   89.98691654
_cell_angle_gamma   90.07801577
_symmetry_Int_Tables_number   1
_chemical_formula_structural   HfZrTaTiMo
_chemical_formula_sum   'Hf40 Zr40 Ta40 Ti40 Mo40'
_cell_volume   3902.37870046
_cell_formula_units_Z   40
loop_
 _symmetry_equiv_pos_site_id
 _symmetry_equiv_pos_as_xyz
  1  'x, y, z'
loop_
 _atom_site_type_symbol
 _atom_site_label
 _atom_site_symmetry_multiplicity
 _atom_site_fract_x
 _atom_site_fract_y
 _atom_site_fract_z
 _atom_site_occupancy
  Hf  Hf0  1  0.01101203  0.01002826  0.48171131  1
  Hf  Hf1  1  0.39418859  0.19394196  0.73003359  1
  Hf  Hf2  1  0.49165751  0.49694267  0.13383223  1
  Hf  Hf3  1  0.11664645  0.90861562  0.61461786  1
  Hf  Hf4  1  0.40298346  0.60627058  0.00591172  1
  Hf  Hf5  1  0.40110372  0.39754291  -0.00762294  1
  Hf  Hf6  1  -0.00392695  0.39657978  -0.00454053  1
  Hf  Hf7  1  0.71262010  0.29999933  0.39017156  1
  Hf  Hf8  1  0.69766894  0.69824885  0.38082437  1
  Hf  Hf9  1  0.40233223  0.61774315  0.49512726  1
  Hf  Hf10  1  0.79646012  0.80055196  0.25585353  1
  Hf  Hf11  1  0.01291521  0.79190753  0.48788427  1
  Hf  Hf12  1  0.70102123  0.89340379  0.86476317  1
  Hf  Hf13  1  0.28328244  0.51039847  0.13608392  1
  Hf  Hf14  1  0.49845204  0.50920964  0.62666801  1
  Hf  Hf15  1  0.79579621  0.39425445  -0.00896252  1
  Hf  Hf16  1  0.60148226  0.78946836  0.72988776  1
  Hf  Hf17  1  0.00362161  0.80838576  0.26201944  1
  Hf  Hf18  1  0.39340332  0.39655073  0.74784736  1
  Hf  Hf19  1  0.70928809  0.91387994  0.13063686  1
  Hf  Hf20  1  0.49665122  0.30473166  0.39224123  1
  Hf  Hf21  1  0.41043971  0.20113070  0.25457906  1
  Hf  Hf22  1  0.91192667  0.70718205  0.12319430  1
  Hf  Hf23  1  0.90155826  0.28958053  0.60795596  1
  Hf  Hf24  1  0.29977593  0.70577617  0.88244793  1
  Hf  Hf25  1  0.49764636  0.89283284  0.12979636  1
  Hf  Hf26  1  0.11387585  0.68946713  0.35834228  1
  Hf  Hf27  1  0.90776761  0.90478934  0.86656447  1
  Hf  Hf28  1  0.80547176  0.78512431  0.50850552  1
  Hf  Hf29  1  0.19959186  0.59322671  0.49439111  1
  Hf  Hf30  1  0.19256802  0.20227248  0.74336315  1
  Hf  Hf31  1  0.09427624  0.88745108  0.12796924  1
  Hf  Hf32  1  0.60881423  0.39987565  0.75334525  1
  Hf  Hf33  1  0.29358910  0.30011903  0.38098087  1
  Hf  Hf34  1  0.19390366  0.00274854  -0.00059703  1
  Hf  Hf35  1  0.68841865  0.89906548  0.39181390  1
  Hf  Hf36  1  0.50186329  0.30516363  0.61962645  1
  Hf  Hf37  1  0.59672565  0.61284257  0.24140709  1
  Hf  Hf38  1  0.10595975  0.71691960  0.88511858  1
  Hf  Hf39  1  -0.00071062  0.19086040  0.00604046  1
  Zr  Zr40  1  0.60399041  0.58731800  0.00427220  1
  Zr  Zr41  1  0.20525867  0.20209856  0.01086470  1
  Zr  Zr42  1  -0.00240512  0.61603143  0.74598557  1
  Zr  Zr43  1  0.11109348  0.30250962  0.87800250  1
  Zr  Zr44  1  0.81239884  0.78892885  0.73141059  1
  Zr  Zr45  1  0.37983473  -0.00610850  0.72230104  1
  Zr  Zr46  1  0.31322189  0.71814133  0.62619889  1
  Zr  Zr47  1  0.07044977  0.49008367  0.36168774  1
  Zr  Zr48  1  0.71348843  0.10698679  0.61038311  1
  Zr  Zr49  1  0.51289378  0.29937730  0.11859602  1
  Zr  Zr50  1  0.70074436  0.50768552  0.37624540  1
  Zr  Zr51  1  0.59005995  -0.00861985  -0.00942553  1
  Zr  Zr52  1  0.61111286  0.19335665  0.74535151  1
  Zr  Zr53  1  0.30832557  0.30545666  0.12706620  1
  Zr  Zr54  1  0.80706163  0.20096890  0.25970375  1
  Zr  Zr55  1  0.00155047  0.38667011  0.76141694  1
  Zr  Zr56  1  0.37877214  0.41157813  0.50617165  1
  Zr  Zr57  1  0.51032130  0.70104305  0.87059445  1
  Zr  Zr58  1  0.88945007  0.50454272  0.86601077  1
  Zr  Zr59  1  0.30162865  0.71708691  0.12157763  1
  Zr  Zr60  1  0.21008656  0.18973152  0.24696968  1
  Zr  Zr61  1  0.11221205  0.70207955  0.62481151  1
  Zr  Zr62  1  0.90093821  0.70734089  0.88486912  1
  Zr  Zr63  1  0.89207425  0.08414199  0.13943549  1
  Zr  Zr64  1  0.29241568  0.50138662  0.87039240  1
  Zr  Zr65  1  0.60595050  0.19306146  -0.01196261  1
  Zr  Zr66  1  0.10889115  0.48741502  0.63487729  1
  Zr  Zr67  1  0.70335755  0.49074263  0.12765490  1
  Zr  Zr68  1  0.60036414  0.20300106  0.50711685  1
  Zr  Zr69  1  0.60663788  0.79148757  0.00227889  1
  Zr  Zr70  1  0.91021779  0.90493344  0.61524080  1
  Zr  Zr71  1  0.81693614  0.40658929  0.25912298  1
  Zr  Zr72  1  0.40026410  0.00508171  0.25525920  1
  Zr  Zr73  1  0.58808690  -0.00774115  0.73400238  1
  Zr  Zr74  1  0.48370227  0.08544943  0.86895896  1
  Zr  Zr75  1  0.00998525  0.59176874  0.00312081  1
  Zr  Zr76  1  0.49684494  0.50848674  0.37386468  1
  Zr  Zr77  1  -0.01506983  -0.01329269  0.00330383  1
  Zr  Zr78  1  0.60189986  0.19759925  0.26018385  1
  Zr  Zr79  1  0.89439525  0.49026686  0.63427411  1
  Ta  Ta80  1  0.89923837  0.90029860  0.38118301  1
  Ta  Ta81  1  0.90895329  0.10345358  0.61441564  1
  Ta  Ta82  1  0.21027713  -0.00102102  0.48721704  1
  Ta  Ta83  1  0.09836836  0.08945079  0.14575229  1
  Ta  Ta84  1  0.71318146  0.69018549  0.87427910  1
  Ta  Ta85  1  0.39340461  0.80596026  0.26158985  1
  Ta  Ta86  1  0.69935647  0.09264326  0.38944233  1
  Ta  Ta87  1  0.79853036  0.01115389  0.74317358  1
  Ta  Ta88  1  0.58786707  0.79151194  0.51712988  1
  Ta  Ta89  1  0.70162483  0.90062207  0.61369450  1
  Ta  Ta90  1  0.29656107  0.91329663  0.12161082  1
  Ta  Ta91  1  0.18992564  0.39415869  0.25440076  1
  Ta  Ta92  1  0.30699828  0.09593521  0.38385282  1
  Ta  Ta93  1  0.38437412  0.18792462  0.51856989  1
  Ta  Ta94  1  0.18632404  0.19506896  0.49466443  1
  Ta  Ta95  1  0.40549054  0.81926953  -0.00567777  1
  Ta  Ta96  1  -0.00141016  0.00938185  0.74683002  1
  Ta  Ta97  1  0.80167675  0.19375993  0.00530819  1
  Ta  Ta98  1  0.70241712  0.70845647  0.12624183  1
  Ta  Ta99  1  0.49065902  0.09345845  0.11882729  1
  Ta  Ta100  1  0.70667214  0.29482715  0.12493637  1
  Ta  Ta101  1  0.81250089  0.81347445  0.00762883  1
  Ta  Ta102  1  0.18779530  -0.00015727  0.75437321  1
  Ta  Ta103  1  -0.00814922  0.59098973  0.50636779  1
  Ta  Ta104  1  0.49934192  0.09372190  0.39629608  1
  Ta  Ta105  1  0.49656664  0.29406760  0.86963169  1
  Ta  Ta106  1  0.21147555  0.81284840  0.75560765  1
  Ta  Ta107  1  0.01862606  0.81804546  0.74782292  1
  Ta  Ta108  1  0.30255276  0.91038922  0.88027700  1
  Ta  Ta109  1  0.19834290  -0.02011250  0.26435844  1
  Ta  Ta110  1  0.90304832  0.68115713  0.37244731  1
  Ta  Ta111  1  0.18994372  0.41759213  0.00903506  1
  Ta  Ta112  1  0.40324568  0.60944283  0.75126520  1
  Ta  Ta113  1  0.60030291  0.00360302  0.25950200  1
  Ta  Ta114  1  0.88462967  0.10820733  0.87110710  1
  Ta  Ta115  1  0.08904489  0.09549596  0.87175137  1
  Ta  Ta116  1  0.11248900  0.69049423  0.13355041  1
  Ta  Ta117  1  0.09507052  0.30053289  0.13369985  1
  Ta  Ta118  1  0.90133821  0.30398758  0.12587698  1
  Ta  Ta119  1  0.28606506  0.50885094  0.36027280  1
  Ti  Ti120  1  0.69803740  0.50346842  0.87170211  1
  Ti  Ti121  1  0.09446474  0.10532003  0.62075110  1
  Ti  Ti122  1  0.71565213  0.27637040  0.86931892  1
  Ti  Ti123  1  0.39832178  0.18867747  -0.00159432  1
  Ti  Ti124  1  0.17560662  0.39331353  0.48562652  1
  Ti  Ti125  1  0.10010880  0.10368671  0.35870920  1
  Ti  Ti126  1  0.30237803  0.29800406  0.87428165  1
  Ti  Ti127  1  0.90620388  0.11420939  0.37448967  1
  Ti  Ti128  1  0.58520666  -0.00454139  0.51798994  1
  Ti  Ti129  1  0.11048382  0.51197166  0.86447937  1
  Ti  Ti130  1  0.50064987  0.49800221  0.86808341  1
  Ti  Ti131  1  0.80850164  0.60097002  0.24139905  1
  Ti  Ti132  1  0.29163892  0.51282386  0.64136198  1
  Ti  Ti133  1  0.80611785  0.00193528  0.49462060  1
  Ti  Ti134  1  0.78770345  0.59643662  0.73525013  1
  Ti  Ti135  1  0.60176805  0.39078024  -0.01641987  1
  Ti  Ti136  1  0.80063924  0.59470523  0.51485469  1
  Ti  Ti137  1  0.40857643  0.81067388  0.75357304  1
  Ti  Ti138  1  0.21928077  0.80046012  0.47890691  1
  Ti  Ti139  1  0.60895726  0.41466147  0.50635986  1
  Ti  Ti140  1  0.68934714  0.10384213  0.12963241  1
  Ti  Ti141  1  0.59363742  0.80686397  0.25214098  1
  Ti  Ti142  1  0.39531732  0.61419643  0.25157497  1
  Ti  Ti143  1  -0.01307297  0.19621828  0.75315437  1
  Ti  Ti144  1  0.80176339  -0.00346776  0.26828331  1
  Ti  Ti145  1  0.09098653  0.29553146  0.61975662  1
  Ti  Ti146  1  0.60034342  0.39511139  0.25588984  1
  Ti  Ti147  1  0.28959510  0.10562029  0.87241157  1
  Ti  Ti148  1  0.50082018  0.71313020  0.37617932  1
  Ti  Ti149  1  0.49320794  0.90537804  0.38811136  1
  Ti  Ti150  1  0.39753788  0.40169483  0.25841489  1
  Ti  Ti151  1  0.81670488  0.40881335  0.49202760  1
  Ti  Ti152  1  0.71359889  0.31265987  0.61520218  1
  Ti  Ti153  1  0.27770439  0.30918765  0.61787441  1
  Ti  Ti154  1  0.79981413  0.60215627  0.00917358  1
  Ti  Ti155  1  0.60801641  0.60481514  0.51600151  1
  Ti  Ti156  1  0.60612159  0.59787519  0.74209948  1
  Ti  Ti157  1  0.08130872  0.49812378  0.14305658  1
  Ti  Ti158  1  0.80078055  0.37948786  0.75653133  1
  Ti  Ti159  1  0.78787325  0.00727093  -0.00724807  1
  Mo  Mo160  1  0.30985789  0.69608730  0.36702721  1
  Mo  Mo161  1  0.39791482  -0.00256494  0.51362520  1
  Mo  Mo162  1  0.48706552  0.88782074  0.61366704  1
  Mo  Mo163  1  0.81207667  0.19553819  0.48386851  1
  Mo  Mo164  1  0.70543239  0.08912622  0.86772095  1
  Mo  Mo165  1  0.89260867  0.50753663  0.38204076  1
  Mo  Mo166  1  0.09300817  0.28926224  0.36513025  1
  Mo  Mo167  1  0.00501554  0.40126627  0.50246271  1
  Mo  Mo168  1  0.91015771  0.69440459  0.62325849  1
  Mo  Mo169  1  0.49306641  0.09838458  0.61229541  1
  Mo  Mo170  1  0.49877334  0.69683251  0.63008340  1
  Mo  Mo171  1  0.89870699  0.28851431  0.87983440  1
  Mo  Mo172  1  0.27277310  0.09687069  0.61562810  1
  Mo  Mo173  1  0.89736886  0.49844395  0.11933023  1
  Mo  Mo174  1  0.39165436  0.00652831  0.00183219  1
  Mo  Mo175  1  0.69897385  0.48844890  0.62388595  1
  Mo  Mo176  1  0.70217961  0.68895036  0.61904873  1
  Mo  Mo177  1  0.50022705  0.70645539  0.13381970  1
  Mo  Mo178  1  0.40146250  0.80922855  0.48867198  1
  Mo  Mo179  1  0.00223690  0.20227220  0.24521843  1
  Mo  Mo180  1  -0.00701176  0.39046801  0.24368042  1
  Mo  Mo181  1  0.30065440  0.09226758  0.12596189  1
  Mo  Mo182  1  0.00425515  0.80513609  0.00702247  1
  Mo  Mo183  1  0.28886327  0.89618196  0.61761269  1
  Mo  Mo184  1  0.10593532  0.89943541  0.37812826  1
  Mo  Mo185  1  0.20379703  0.39651507  0.74780098  1
  Mo  Mo186  1  0.30736772  0.89967351  0.37779963  1
  Mo  Mo187  1  0.92265545  0.30849245  0.38798511  1
  Mo  Mo188  1  0.80927732  0.20011673  0.74357524  1
  Mo  Mo189  1  0.01035620  0.20227794  0.49185114  1
  Mo  Mo190  1  0.49038421  0.89343953  0.86868437  1
  Mo  Mo191  1  0.19738627  0.59711521  0.24838294  1
  Mo  Mo192  1  -0.01291715  0.59624664  0.23970295  1
  Mo  Mo193  1  0.20971435  0.80103821  0.25501694  1
  Mo  Mo194  1  0.20212852  0.80823596  0.00007705  1
  Mo  Mo195  1  0.20739607  0.60918045  0.75263646  1
  Mo  Mo196  1  0.10570161  0.90631990  0.87306412  1
  Mo  Mo197  1  -0.00193915  0.00231241  0.26888601  1
  Mo  Mo198  1  0.19490442  0.59809964  0.00681288  1
  Mo  Mo199  1  0.89254129  0.89942498  0.13651828  1
