# generated using pymatgen
data_HfZrTaTiMo
_symmetry_space_group_name_H-M   'P 1'
_cell_length_a   15.22133485
_cell_length_b   15.22373378
_cell_length_c   16.82523011
_cell_angle_alpha   89.94102582
_cell_angle_beta   90.01626604
_cell_angle_gamma   89.85575858
_symmetry_Int_Tables_number   1
_chemical_formula_structural   HfZrTaTiMo
_chemical_formula_sum   'Hf40 Zr40 Ta40 Ti40 Mo40'
_cell_volume   3898.82111347
_cell_formula_units_Z   40
loop_
 _symmetry_equiv_pos_site_id
 _symmetry_equiv_pos_as_xyz
  1  'x, y, z'
loop_
 _atom_site_type_symbol
 _atom_site_label
 _atom_site_symmetry_multiplicity
 _atom_site_fract_x
 _atom_site_fract_y
 _atom_site_fract_z
 _atom_site_occupancy
  Hf  Hf0  1  0.48662662  0.49717386  0.14005199  1
  Hf  Hf1  1  0.79485494  0.80002826  0.74545379  1
  Hf  Hf2  1  0.58932906  0.00111768  0.23985261  1
  Hf  Hf3  1  0.89012196  0.50007956  0.86151533  1
  Hf  Hf4  1  0.69801065  0.10743059  0.11240274  1
  Hf  Hf5  1  0.69114343  0.11700385  0.88486174  1
  Hf  Hf6  1  0.40319849  0.59777364  0.48872773  1
  Hf  Hf7  1  0.49727421  0.90172417  0.62543991  1
  Hf  Hf8  1  0.39432693  -0.00018971  0.76082697  1
  Hf  Hf9  1  0.11343871  0.29711060  0.85722744  1
  Hf  Hf10  1  0.89662286  0.10720367  0.37224970  1
  Hf  Hf11  1  0.10334467  0.50417469  0.63851685  1
  Hf  Hf12  1  0.30498851  0.89993460  0.12451315  1
  Hf  Hf13  1  0.49353450  0.11023179  0.10572954  1
  Hf  Hf14  1  0.90505446  0.70444403  0.11932967  1
  Hf  Hf15  1  -0.00320052  0.20832650  0.52302738  1
  Hf  Hf16  1  0.89424053  0.49095954  0.12630446  1
  Hf  Hf17  1  0.29466914  0.70048986  0.62511329  1
  Hf  Hf18  1  0.68862267  0.49282877  0.13962898  1
  Hf  Hf19  1  0.39925118  0.79986187  0.48407064  1
  Hf  Hf20  1  0.11232414  0.89410975  0.62499749  1
  Hf  Hf21  1  0.59395676  0.00366624  0.76409129  1
  Hf  Hf22  1  0.41001423  0.38094074  0.74467700  1
  Hf  Hf23  1  0.59723496  0.79812728  0.49354047  1
  Hf  Hf24  1  0.89623704  0.50002455  0.38148566  1
  Hf  Hf25  1  0.20822160  -0.00669741  0.24968747  1
  Hf  Hf26  1  0.18518989  0.39658067  0.26820111  1
  Hf  Hf27  1  0.00550470  0.01144304  0.24160542  1
  Hf  Hf28  1  0.79199102  0.80497855  0.51669949  1
  Hf  Hf29  1  0.31227168  0.08033618  0.38712894  1
  Hf  Hf30  1  0.00875243  0.79223725  -0.00795580  1
  Hf  Hf31  1  0.19190054  0.19332122  0.24913459  1
  Hf  Hf32  1  0.39702580  0.38809260  -0.00544394  1
  Hf  Hf33  1  0.40854463  0.80437127  0.26112908  1
  Hf  Hf34  1  0.41280871  0.20289192  0.49011227  1
  Hf  Hf35  1  0.09233480  0.48997558  0.85229394  1
  Hf  Hf36  1  0.21237443  0.19836043  0.00628955  1
  Hf  Hf37  1  0.19623814  0.59428377  0.49117606  1
  Hf  Hf38  1  0.79076953  0.62067946  0.24692785  1
  Hf  Hf39  1  0.79807533  -0.00713278  0.23797644  1
  Zr  Zr40  1  -0.00541503  0.60035777  0.25166769  1
  Zr  Zr41  1  0.61667309  0.79966378  0.23882813  1
  Zr  Zr42  1  0.60023014  0.40276920  0.49464168  1
  Zr  Zr43  1  0.50412886  0.49424946  0.62411992  1
  Zr  Zr44  1  0.19250893  0.59059047  -0.01415481  1
  Zr  Zr45  1  0.60798839  0.78901038  0.01753833  1
  Zr  Zr46  1  0.31118875  0.29934761  0.13850629  1
  Zr  Zr47  1  0.72617582  0.30393734  0.35965113  1
  Zr  Zr48  1  0.70292482  0.89372678  0.88802852  1
  Zr  Zr49  1  0.50719707  0.30771420  0.35762125  1
  Zr  Zr50  1  0.28957688  0.70311669  0.13370232  1
  Zr  Zr51  1  0.90687493  0.10395418  0.88089005  1
  Zr  Zr52  1  0.69979052  0.09732679  0.37212578  1
  Zr  Zr53  1  0.59428125  0.59761583  0.74554271  1
  Zr  Zr54  1  0.80025916  0.00110679  0.75288681  1
  Zr  Zr55  1  0.30036227  0.09355986  0.60977059  1
  Zr  Zr56  1  -0.00023708  0.00163406  0.50804944  1
  Zr  Zr57  1  0.79023107  0.60117962  0.74131542  1
  Zr  Zr58  1  0.00442295  0.20301890  0.72436723  1
  Zr  Zr59  1  0.90702694  0.30616324  0.85962792  1
  Zr  Zr60  1  0.79159202  0.40238259  -0.00215862  1
  Zr  Zr61  1  0.69301985  0.50893527  0.36420815  1
  Zr  Zr62  1  0.10212427  0.10928759  0.38651224  1
  Zr  Zr63  1  0.79818619  0.00424941  0.51083686  1
  Zr  Zr64  1  0.51875024  0.30533401  0.13122341  1
  Zr  Zr65  1  0.50081874  0.11258161  0.62809092  1
  Zr  Zr66  1  0.50179913  0.49399516  0.87463034  1
  Zr  Zr67  1  0.08376821  0.70128416  0.37701679  1
  Zr  Zr68  1  0.39577100  0.60179585  -0.00027047  1
  Zr  Zr69  1  0.69487207  0.10275054  0.63128312  1
  Zr  Zr70  1  0.10353205  0.85392239  0.14768231  1
  Zr  Zr71  1  0.11265530  0.09814960  0.87569406  1
  Zr  Zr72  1  0.29497703  0.90381204  0.87959171  1
  Zr  Zr73  1  0.00502677  0.39878573  0.51267196  1
  Zr  Zr74  1  0.28789916  0.49528200  0.13172156  1
  Zr  Zr75  1  0.00424500  0.00189594  0.74067125  1
  Zr  Zr76  1  0.89773242  0.90033409  0.11382489  1
  Zr  Zr77  1  -0.00702348  0.80260769  0.49519377  1
  Zr  Zr78  1  0.20285552  0.79271249  -0.00971311  1
  Zr  Zr79  1  0.19069406  0.60261004  0.26052600  1
  Ta  Ta80  1  0.29583273  0.48622745  0.62716966  1
  Ta  Ta81  1  0.61035781  0.19676263  0.24802401  1
  Ta  Ta82  1  0.67847726  0.30947723  0.63883948  1
  Ta  Ta83  1  0.80761321  0.21205339  0.00062550  1
  Ta  Ta84  1  -0.00077782  0.79818504  0.75376859  1
  Ta  Ta85  1  0.71323632  0.89086332  0.37256851  1
  Ta  Ta86  1  0.89666127  0.49731954  0.63358968  1
  Ta  Ta87  1  0.79296877  0.20636448  0.74312460  1
  Ta  Ta88  1  0.20201569  0.39532007  0.48912628  1
  Ta  Ta89  1  0.61058090  0.20398962  0.49477130  1
  Ta  Ta90  1  0.72586320  0.30170659  0.14389535  1
  Ta  Ta91  1  0.90579262  0.69848167  0.62546717  1
  Ta  Ta92  1  0.30445430  0.09652099  0.12734829  1
  Ta  Ta93  1  0.79298932  0.60027497  0.51123682  1
  Ta  Ta94  1  0.49148102  0.70258027  0.62766780  1
  Ta  Ta95  1  0.80196865  0.00232679  0.00240697  1
  Ta  Ta96  1  0.20317421  0.80450066  0.48442331  1
  Ta  Ta97  1  0.69533086  0.69180382  0.87980145  1
  Ta  Ta98  1  0.39216778  0.39557082  0.49866784  1
  Ta  Ta99  1  0.39693435  0.60779264  0.26402752  1
  Ta  Ta100  1  0.79048268  0.60755221  0.00365979  1
  Ta  Ta101  1  0.59553903  0.80114984  0.75164241  1
  Ta  Ta102  1  0.59640443  0.59176255  0.00964759  1
  Ta  Ta103  1  0.90414748  0.11593845  0.11824947  1
  Ta  Ta104  1  0.09595435  0.90213052  0.87046565  1
  Ta  Ta105  1  0.40674994  0.79621795  0.00169716  1
  Ta  Ta106  1  0.49837200  0.89543093  0.88552414  1
  Ta  Ta107  1  -0.00646912  0.58802754  -0.00872136  1
  Ta  Ta108  1  0.49581560  0.90442282  0.11530615  1
  Ta  Ta109  1  0.59575911  0.00019163  0.49816904  1
  Ta  Ta110  1  0.49869959  0.92000702  0.37385706  1
  Ta  Ta111  1  0.90598646  0.89900328  0.88327186  1
  Ta  Ta112  1  -0.00218257  0.39406568  0.25555319  1
  Ta  Ta113  1  0.40832048  0.18000132  0.25842843  1
  Ta  Ta114  1  0.89337574  0.70189247  0.87796733  1
  Ta  Ta115  1  0.09027045  0.48928538  0.12013874  1
  Ta  Ta116  1  0.69674596  0.31072500  0.86235205  1
  Ta  Ta117  1  0.19996478  0.80164155  0.75547840  1
  Ta  Ta118  1  0.89987065  0.89845767  0.63305877  1
  Ta  Ta119  1  0.50136066  0.70321848  0.87381065  1
  Ti  Ti120  1  0.59937584  0.60597282  0.49792541  1
  Ti  Ti121  1  0.39579460  0.19356339  0.75016747  1
  Ti  Ti122  1  0.20523985  0.60427530  0.75291172  1
  Ti  Ti123  1  0.80144578  0.21092780  0.51786975  1
  Ti  Ti124  1  0.91264013  0.29930261  0.37797527  1
  Ti  Ti125  1  0.79767261  0.39980352  0.51324670  1
  Ti  Ti126  1  0.58758976  0.61690405  0.24449459  1
  Ti  Ti127  1  0.10117800  0.90688723  0.37335354  1
  Ti  Ti128  1  0.51410426  0.29342938  0.88318592  1
  Ti  Ti129  1  0.30274171  0.49261896  0.37076409  1
  Ti  Ti130  1  0.68628705  0.70116039  0.62496510  1
  Ti  Ti131  1  0.20430613  0.00763758  0.75002548  1
  Ti  Ti132  1  0.59566821  0.00044403  -0.00181804  1
  Ti  Ti133  1  0.49707383  0.50212055  0.36152697  1
  Ti  Ti134  1  0.30662100  0.28458534  0.86967335  1
  Ti  Ti135  1  0.86892538  0.71472087  0.38219366  1
  Ti  Ti136  1  0.69132806  0.49764004  0.87667778  1
  Ti  Ti137  1  0.30094572  0.29311107  0.36751980  1
  Ti  Ti138  1  0.29519846  0.48594240  0.86169825  1
  Ti  Ti139  1  0.30126317  0.89872684  0.61910716  1
  Ti  Ti140  1  0.38873618  0.00591355  -0.00812806  1
  Ti  Ti141  1  -0.00260742  0.20975113  0.24300018  1
  Ti  Ti142  1  0.00107574  0.39223545  -0.00455122  1
  Ti  Ti143  1  0.09610099  0.29837474  0.12277979  1
  Ti  Ti144  1  0.39985899  0.79691514  0.75298495  1
  Ti  Ti145  1  0.19408762  0.39482792  -0.00609591  1
  Ti  Ti146  1  0.11592006  0.09972814  0.61776315  1
  Ti  Ti147  1  0.09697770  0.69756941  0.86421450  1
  Ti  Ti148  1  0.19202766  -0.00145605  0.01295551  1
  Ti  Ti149  1  -0.00762899  0.59911730  0.50503816  1
  Ti  Ti150  1  -0.02973111  0.81183025  0.27001108  1
  Ti  Ti151  1  0.00912520  0.00311320  0.01011860  1
  Ti  Ti152  1  0.00967302  0.20098283  0.00503270  1
  Ti  Ti153  1  0.30678916  0.69780555  0.86731955  1
  Ti  Ti154  1  0.49002589  0.11163809  0.88959595  1
  Ti  Ti155  1  -0.00468333  0.60865401  0.74776831  1
  Ti  Ti156  1  0.20369234  0.21193076  0.49749599  1
  Ti  Ti157  1  0.39426076  0.59779315  0.74846657  1
  Ti  Ti158  1  0.13792559  0.30751347  0.63899996  1
  Ti  Ti159  1  0.09927960  0.70234579  0.62585302  1
  Mo  Mo160  1  0.39349802  0.39991655  0.26323638  1
  Mo  Mo161  1  0.69673362  0.70123384  0.38237844  1
  Mo  Mo162  1  0.60266292  0.39816496  0.75138652  1
  Mo  Mo163  1  0.89739415  0.10467957  0.62795512  1
  Mo  Mo164  1  0.80424548  0.79564415  -0.00786036  1
  Mo  Mo165  1  0.31028166  0.29663016  0.61731368  1
  Mo  Mo166  1  0.40605555  0.00198100  0.24285771  1
  Mo  Mo167  1  0.21911476  0.19475294  0.74324048  1
  Mo  Mo168  1  0.00239835  0.40150940  0.73069995  1
  Mo  Mo169  1  0.91557850  0.30323988  0.12006878  1
  Mo  Mo170  1  0.30113193  0.10455992  0.87645062  1
  Mo  Mo171  1  0.89379497  0.90919096  0.37399582  1
  Mo  Mo172  1  0.79798307  0.80441484  0.24828231  1
  Mo  Mo173  1  0.60561320  0.40574521  0.25571090  1
  Mo  Mo174  1  0.81703596  0.40195591  0.25303980  1
  Mo  Mo175  1  0.08976154  0.49147504  0.38545375  1
  Mo  Mo176  1  0.40187894  0.19871234  -0.00425619  1
  Mo  Mo177  1  0.49258752  0.69601188  0.12774808  1
  Mo  Mo178  1  0.81584507  0.19606212  0.24133940  1
  Mo  Mo179  1  0.70216406  0.50132870  0.61407853  1
  Mo  Mo180  1  0.87741815  0.30670384  0.63370495  1
  Mo  Mo181  1  0.20974885  0.80160471  0.28138673  1
  Mo  Mo182  1  0.09366794  0.29689854  0.37953263  1
  Mo  Mo183  1  0.49791636  0.29547360  0.61924268  1
  Mo  Mo184  1  0.58372842  0.21045893  0.76033075  1
  Mo  Mo185  1  0.21733265  0.39990931  0.75089946  1
  Mo  Mo186  1  0.70009056  0.90623038  0.10819688  1
  Mo  Mo187  1  0.30018532  0.69604870  0.37517151  1
  Mo  Mo188  1  0.79312235  0.40250291  0.74228583  1
  Mo  Mo189  1  0.20124443  -0.01112619  0.49841969  1
  Mo  Mo190  1  0.61267343  0.22258922  -0.00025232  1
  Mo  Mo191  1  0.51111102  0.69445382  0.37244075  1
  Mo  Mo192  1  0.60419395  0.40024661  0.00114813  1
  Mo  Mo193  1  0.68815605  0.89518440  0.63275811  1
  Mo  Mo194  1  0.10113950  0.10246293  0.11992292  1
  Mo  Mo195  1  0.51110118  0.10222030  0.37521709  1
  Mo  Mo196  1  0.40991406  -0.00831616  0.50117217  1
  Mo  Mo197  1  0.09364040  0.66838680  0.10740628  1
  Mo  Mo198  1  0.29978707  0.90082807  0.37629705  1
  Mo  Mo199  1  0.70276511  0.69337833  0.11884380  1
