# generated using pymatgen
data_HfZrTaTiMo
_symmetry_space_group_name_H-M   'P 1'
_cell_length_a   15.20967310
_cell_length_b   15.21140246
_cell_length_c   16.85948941
_cell_angle_alpha   90.02526013
_cell_angle_beta   90.00891351
_cell_angle_gamma   90.06704091
_symmetry_Int_Tables_number   1
_chemical_formula_structural   HfZrTaTiMo
_chemical_formula_sum   'Hf40 Zr40 Ta40 Ti40 Mo40'
_cell_volume   3900.61610965
_cell_formula_units_Z   40
loop_
 _symmetry_equiv_pos_site_id
 _symmetry_equiv_pos_as_xyz
  1  'x, y, z'
loop_
 _atom_site_type_symbol
 _atom_site_label
 _atom_site_symmetry_multiplicity
 _atom_site_fract_x
 _atom_site_fract_y
 _atom_site_fract_z
 _atom_site_occupancy
  Hf  Hf0  1  0.60718405  -0.01188384  0.24178158  1
  Hf  Hf1  1  0.69947874  0.31064248  0.62156643  1
  Hf  Hf2  1  0.60866845  0.00582271  0.77367965  1
  Hf  Hf3  1  0.70012057  0.90059510  0.10641550  1
  Hf  Hf4  1  0.28709947  0.49990296  0.12639235  1
  Hf  Hf5  1  0.49879396  0.89173299  0.11360051  1
  Hf  Hf6  1  0.71534390  0.28764946  0.36018447  1
  Hf  Hf7  1  0.50111598  0.68827919  0.10887675  1
  Hf  Hf8  1  0.30544748  0.11246480  0.11980936  1
  Hf  Hf9  1  0.00272308  0.40570654  0.00844831  1
  Hf  Hf10  1  0.41061475  0.60062823  0.50447286  1
  Hf  Hf11  1  0.69693349  0.08887506  0.62607774  1
  Hf  Hf12  1  0.60410569  0.77754544  0.25413343  1
  Hf  Hf13  1  0.69536375  0.12367913  0.89248218  1
  Hf  Hf14  1  0.48553192  0.68781305  0.87002693  1
  Hf  Hf15  1  0.09694874  0.49906250  0.61069043  1
  Hf  Hf16  1  0.39072687  0.79321768  -0.01112049  1
  Hf  Hf17  1  0.69925354  0.50148293  0.13754352  1
  Hf  Hf18  1  0.00146688  0.00115443  0.24014312  1
  Hf  Hf19  1  0.89450955  0.10837748  0.36646558  1
  Hf  Hf20  1  0.70168805  0.69470866  0.10950120  1
  Hf  Hf21  1  0.10237904  0.30224240  0.87814813  1
  Hf  Hf22  1  0.88548222  0.49583797  0.62918162  1
  Hf  Hf23  1  0.80675332  -0.00920182  0.50607806  1
  Hf  Hf24  1  0.10673251  0.29081906  0.37896141  1
  Hf  Hf25  1  0.51183306  0.28372095  0.88498344  1
  Hf  Hf26  1  0.59415551  0.18144226  0.24988174  1
  Hf  Hf27  1  0.58804714  0.39200694  0.25131962  1
  Hf  Hf28  1  0.87534054  0.69744416  0.36029046  1
  Hf  Hf29  1  0.29535153  0.10977686  0.86734277  1
  Hf  Hf30  1  0.00216920  0.59839700  0.74972675  1
  Hf  Hf31  1  0.50857000  0.09660976  0.10231484  1
  Hf  Hf32  1  0.88292964  0.70103186  0.63835763  1
  Hf  Hf33  1  0.60157713  0.80074714  0.76807046  1
  Hf  Hf34  1  0.19916419  0.80263189  0.50668808  1
  Hf  Hf35  1  0.39161905  0.57973219  0.74877849  1
  Hf  Hf36  1  0.20606986  0.21204138  0.23846646  1
  Hf  Hf37  1  0.00345758  0.39906758  0.26096096  1
  Hf  Hf38  1  0.39642270  0.80035167  0.50505136  1
  Hf  Hf39  1  0.39094859  -0.00302339  -0.01930183  1
  Zr  Zr40  1  0.30017902  0.10029283  0.64678821  1
  Zr  Zr41  1  0.49483035  0.50154491  0.37033412  1
  Zr  Zr42  1  0.51031701  0.91092248  0.63396649  1
  Zr  Zr43  1  0.59914441  0.18890246  0.49345053  1
  Zr  Zr44  1  0.41169214  0.00946887  0.50551818  1
  Zr  Zr45  1  0.49316080  0.49548183  0.12067818  1
  Zr  Zr46  1  0.28264633  0.89186667  0.85601963  1
  Zr  Zr47  1  0.00954322  0.60086544  0.25545518  1
  Zr  Zr48  1  0.59686602  0.79439331  0.50631784  1
  Zr  Zr49  1  0.00576563  0.81125476  0.00253079  1
  Zr  Zr50  1  0.89961454  0.10572249  0.11050671  1
  Zr  Zr51  1  0.79143477  0.78039118  0.50718792  1
  Zr  Zr52  1  0.71517392  0.89201288  0.37356019  1
  Zr  Zr53  1  0.40767191  0.02289703  0.25235664  1
  Zr  Zr54  1  0.29678791  0.69784604  0.12951608  1
  Zr  Zr55  1  0.09581448  0.71120656  0.38009066  1
  Zr  Zr56  1  0.40160855  0.80024884  0.25546683  1
  Zr  Zr57  1  0.79801580  0.40931914  0.48507510  1
  Zr  Zr58  1  -0.01492384  0.81391584  0.50564921  1
  Zr  Zr59  1  0.90748575  0.29508946  0.63207827  1
  Zr  Zr60  1  0.79505563  0.20060808  0.75353447  1
  Zr  Zr61  1  0.10781029  0.51709287  0.88379422  1
  Zr  Zr62  1  0.10695051  0.30356502  0.62314818  1
  Zr  Zr63  1  0.80199412  0.79696843  -0.02043447  1
  Zr  Zr64  1  0.10037092  0.09558849  0.88269516  1
  Zr  Zr65  1  0.30234442  0.11780459  0.37224243  1
  Zr  Zr66  1  0.70823888  0.51905480  0.35308432  1
  Zr  Zr67  1  0.80008433  0.41195953  0.00363396  1
  Zr  Zr68  1  0.09195150  0.69840251  0.61531668  1
  Zr  Zr69  1  0.09221796  0.10527192  0.63309416  1
  Zr  Zr70  1  0.50990903  0.91112989  0.38283702  1
  Zr  Zr71  1  0.29117693  0.90525816  0.37058229  1
  Zr  Zr72  1  0.40035529  0.20960199  0.50751601  1
  Zr  Zr73  1  0.20106656  0.00325476  0.50915286  1
  Zr  Zr74  1  0.90840477  0.68973211  0.87431400  1
  Zr  Zr75  1  0.60078096  0.58901303  0.75398913  1
  Zr  Zr76  1  0.62220193  0.59508387  0.51485956  1
  Zr  Zr77  1  0.28630310  0.90752029  0.12561016  1
  Zr  Zr78  1  0.20826974  0.41144367  0.75280058  1
  Zr  Zr79  1  -0.00317856  0.39564560  0.48000586  1
  Ta  Ta80  1  0.38343044  0.58293813  -0.01244526  1
  Ta  Ta81  1  0.41001266  0.00016481  0.76667873  1
  Ta  Ta82  1  0.10673788  0.09120160  0.10635815  1
  Ta  Ta83  1  0.89881268  0.70104145  0.12535585  1
  Ta  Ta84  1  0.90505446  0.10332590  0.88833585  1
  Ta  Ta85  1  0.61080437  0.58730726  -0.01804338  1
  Ta  Ta86  1  0.40006762  0.40149170  0.50226237  1
  Ta  Ta87  1  0.60412955  0.38808545  0.00291499  1
  Ta  Ta88  1  -0.00212272  0.00575365  0.49904911  1
  Ta  Ta89  1  -0.02080579  0.59467041  0.48453583  1
  Ta  Ta90  1  0.09932694  0.09849270  0.37559226  1
  Ta  Ta91  1  0.30817192  0.69478312  0.37527073  1
  Ta  Ta92  1  0.70443134  0.09876429  0.10605866  1
  Ta  Ta93  1  0.20391938  0.21329987  0.00458349  1
  Ta  Ta94  1  0.31017307  0.31200711  0.87523956  1
  Ta  Ta95  1  0.70106581  0.29391564  0.13755893  1
  Ta  Ta96  1  0.61841843  0.39667401  0.76009981  1
  Ta  Ta97  1  0.89989077  0.90257368  0.12121068  1
  Ta  Ta98  1  0.49565177  0.70150246  0.64187613  1
  Ta  Ta99  1  0.48862590  0.29371292  0.12139625  1
  Ta  Ta100  1  0.89579357  0.30547761  0.14010675  1
  Ta  Ta101  1  0.79542118  0.80210074  0.76987290  1
  Ta  Ta102  1  0.59769697  0.79679997  -0.02642326  1
  Ta  Ta103  1  0.19454707  0.80071323  -0.00059937  1
  Ta  Ta104  1  0.20431173  0.59532525  0.26733706  1
  Ta  Ta105  1  0.41948692  0.38376602  0.74553936  1
  Ta  Ta106  1  0.90023321  0.50797591  0.13876731  1
  Ta  Ta107  1  0.30187730  0.89392002  0.64813250  1
  Ta  Ta108  1  0.29791259  0.69365876  0.62945538  1
  Ta  Ta109  1  0.59245176  0.39275699  0.49055027  1
  Ta  Ta110  1  0.29952321  0.31896900  0.37728297  1
  Ta  Ta111  1  0.28140109  0.68627981  0.86826512  1
  Ta  Ta112  1  0.89698538  0.30110479  0.87390751  1
  Ta  Ta113  1  0.09367790  0.90947738  0.37278675  1
  Ta  Ta114  1  0.30051286  0.49428899  0.61796458  1
  Ta  Ta115  1  0.79850449  0.00542363  0.24038580  1
  Ta  Ta116  1  0.80883888  0.19747283  0.50123610  1
  Ta  Ta117  1  0.58732751  0.20755741  0.74721249  1
  Ta  Ta118  1  0.20445363  0.58837980  0.48586562  1
  Ta  Ta119  1  0.19108589  0.00637432  0.24735868  1
  Ti  Ti120  1  0.89481948  0.49711076  0.87378079  1
  Ti  Ti121  1  0.79970700  0.80642279  0.23857832  1
  Ti  Ti122  1  0.31170684  0.30232780  0.63222996  1
  Ti  Ti123  1  0.48979043  0.28793860  0.36831058  1
  Ti  Ti124  1  0.19649082  0.60174007  0.74223519  1
  Ti  Ti125  1  0.90538053  0.90352824  0.36431132  1
  Ti  Ti126  1  0.39820482  0.20853585  -0.00286053  1
  Ti  Ti127  1  0.78557814  0.59101887  0.75803752  1
  Ti  Ti128  1  0.09187384  0.90877333  0.63298886  1
  Ti  Ti129  1  0.10282882  0.71160152  0.87529992  1
  Ti  Ti130  1  -0.00481232  0.00187469  0.75338927  1
  Ti  Ti131  1  -0.00232340  0.40040567  0.75681838  1
  Ti  Ti132  1  0.10561749  0.69534669  0.12733207  1
  Ti  Ti133  1  -0.00758063  0.81175052  0.75014393  1
  Ti  Ti134  1  0.38386257  0.39332691  0.24712632  1
  Ti  Ti135  1  0.40522362  0.60032529  0.25545117  1
  Ti  Ti136  1  0.49935175  0.10966148  0.63683161  1
  Ti  Ti137  1  -0.00547751  0.19437893  0.49573828  1
  Ti  Ti138  1  0.20086514  0.20978264  0.75233299  1
  Ti  Ti139  1  0.19035462  0.80035201  0.25198545  1
  Ti  Ti140  1  -0.00210414  0.19921984  0.75891981  1
  Ti  Ti141  1  0.80732882  -0.00377269  0.76539309  1
  Ti  Ti142  1  0.18651787  0.79472958  0.74060913  1
  Ti  Ti143  1  0.10722445  0.31182869  0.12225917  1
  Ti  Ti144  1  0.00325493  0.60178436  0.01253866  1
  Ti  Ti145  1  0.51064535  0.48097985  0.62443052  1
  Ti  Ti146  1  0.20267720  0.20592373  0.50567555  1
  Ti  Ti147  1  0.19333489  0.41198215  0.25288216  1
  Ti  Ti148  1  0.21134271  0.41197714  -0.00190039  1
  Ti  Ti149  1  0.59696558  -0.00734965  -0.02340177  1
  Ti  Ti150  1  0.49409958  0.47853622  0.88298041  1
  Ti  Ti151  1  0.09449800  0.90661144  0.87167361  1
  Ti  Ti152  1  0.00121267  0.21023208  0.00486807  1
  Ti  Ti153  1  0.71458286  0.88865759  0.63754265  1
  Ti  Ti154  1  0.00211374  0.80670519  0.23857999  1
  Ti  Ti155  1  0.80998112  -0.00516126  -0.01447965  1
  Ti  Ti156  1  0.00566770  0.19812231  0.24185610  1
  Ti  Ti157  1  0.89956345  0.09205077  0.62837972  1
  Ti  Ti158  1  0.69645586  0.08550281  0.37984369  1
  Ti  Ti159  1  0.80004163  0.22112997  0.00176107  1
  Mo  Mo160  1  0.10029266  0.50545779  0.12317295  1
  Mo  Mo161  1  0.69751693  0.69866040  0.64431222  1
  Mo  Mo162  1  0.58884402  0.60239158  0.24438795  1
  Mo  Mo163  1  0.70634494  0.30747559  0.87725979  1
  Mo  Mo164  1  0.61293470  -0.00118754  0.50984315  1
  Mo  Mo165  1  0.70521612  0.90725059  0.88171973  1
  Mo  Mo166  1  0.10626198  0.49781943  0.38647123  1
  Mo  Mo167  1  0.30667954  0.49891762  0.87306059  1
  Mo  Mo168  1  0.90034550  0.28871556  0.35854634  1
  Mo  Mo169  1  0.49612268  0.10130932  0.88582919  1
  Mo  Mo170  1  0.79711678  0.61373438  0.23736103  1
  Mo  Mo171  1  0.80473630  0.39865962  0.24754347  1
  Mo  Mo172  1  0.89887895  0.90926990  0.64549293  1
  Mo  Mo173  1  0.91004119  0.91046304  0.86437769  1
  Mo  Mo174  1  0.70150703  0.69000462  0.88007634  1
  Mo  Mo175  1  0.09971641  0.89617106  0.12923191  1
  Mo  Mo176  1  0.39745740  0.39342022  -0.00009371  1
  Mo  Mo177  1  0.80376311  0.40453641  0.76053498  1
  Mo  Mo178  1  0.19037562  -0.00745427  0.74397927  1
  Mo  Mo179  1  0.40517254  0.21835058  0.24749220  1
  Mo  Mo180  1  0.49257197  0.89586563  0.87145504  1
  Mo  Mo181  1  0.39250088  0.78873044  0.74672934  1
  Mo  Mo182  1  0.40209973  0.20298662  0.75350653  1
  Mo  Mo183  1  -0.00047483  0.00067378  0.00165328  1
  Mo  Mo184  1  0.79925311  0.18999247  0.23917212  1
  Mo  Mo185  1  0.60722050  0.20461943  0.01403076  1
  Mo  Mo186  1  0.19345025  -0.00496539  -0.00070421  1
  Mo  Mo187  1  0.50984633  0.10309485  0.37553981  1
  Mo  Mo188  1  0.30127388  0.49955600  0.37072142  1
  Mo  Mo189  1  0.68980140  0.69700458  0.37105392  1
  Mo  Mo190  1  0.29892385  0.30884888  0.11711990  1
  Mo  Mo191  1  0.19353360  0.60978287  0.00107614  1
  Mo  Mo192  1  0.50632802  0.30436393  0.62520116  1
  Mo  Mo193  1  0.89947370  0.49974904  0.35836164  1
  Mo  Mo194  1  0.80483592  0.59792763  0.50204568  1
  Mo  Mo195  1  0.81310909  0.59445340  0.00390046  1
  Mo  Mo196  1  0.69973100  0.49577530  0.62747636  1
  Mo  Mo197  1  0.70175451  0.49474664  0.88065971  1
  Mo  Mo198  1  0.21328531  0.39567306  0.50314148  1
  Mo  Mo199  1  0.50019262  0.69495808  0.37709869  1
