# generated using pymatgen
data_HfZrTaTiMo
_symmetry_space_group_name_H-M   'P 1'
_cell_length_a   15.20209162
_cell_length_b   15.20857593
_cell_length_c   16.86559687
_cell_angle_alpha   90.03180569
_cell_angle_beta   90.10238618
_cell_angle_gamma   89.98203904
_symmetry_Int_Tables_number   1
_chemical_formula_structural   HfZrTaTiMo
_chemical_formula_sum   'Hf40 Zr40 Ta40 Ti40 Mo40'
_cell_volume   3899.35548727
_cell_formula_units_Z   40
loop_
 _symmetry_equiv_pos_site_id
 _symmetry_equiv_pos_as_xyz
  1  'x, y, z'
loop_
 _atom_site_type_symbol
 _atom_site_label
 _atom_site_symmetry_multiplicity
 _atom_site_fract_x
 _atom_site_fract_y
 _atom_site_fract_z
 _atom_site_occupancy
  Hf  Hf0  1  0.00436169  0.40301787  0.74443845  1
  Hf  Hf1  1  0.40412271  0.58302839  0.75332012  1
  Hf  Hf2  1  0.09844471  0.51433688  0.13090205  1
  Hf  Hf3  1  0.59442088  0.01123901  0.49553130  1
  Hf  Hf4  1  0.69016506  0.89209214  0.37866118  1
  Hf  Hf5  1  0.90223910  0.70468629  0.86983795  1
  Hf  Hf6  1  -0.00148238  0.59809617  0.49805259  1
  Hf  Hf7  1  0.29658005  0.91299748  0.62708791  1
  Hf  Hf8  1  0.30440994  0.29942977  0.11603364  1
  Hf  Hf9  1  -0.01876526  -0.00450358  0.74607970  1
  Hf  Hf10  1  0.78823569  0.19906137  0.48685388  1
  Hf  Hf11  1  -0.01450191  0.79547636  0.50561662  1
  Hf  Hf12  1  0.30063296  0.49608165  0.11547769  1
  Hf  Hf13  1  0.70696933  0.29812180  0.87475053  1
  Hf  Hf14  1  0.61310277  0.60184675  0.24341446  1
  Hf  Hf15  1  0.20645287  0.01441963  0.48277723  1
  Hf  Hf16  1  0.51442231  0.48352095  0.36826732  1
  Hf  Hf17  1  0.52678474  0.69744712  0.63508359  1
  Hf  Hf18  1  0.78221064  0.01154633  0.01122697  1
  Hf  Hf19  1  0.09599954  0.10408670  0.14133646  1
  Hf  Hf20  1  0.21114653  0.39109578  0.50290408  1
  Hf  Hf21  1  0.68725270  0.69974066  0.86165400  1
  Hf  Hf22  1  0.78502339  0.78683002  0.01099927  1
  Hf  Hf23  1  0.11704235  0.30867478  0.87747872  1
  Hf  Hf24  1  0.41287972  0.38514820  0.24931715  1
  Hf  Hf25  1  0.21225126  0.59632961  0.49555910  1
  Hf  Hf26  1  -0.00158568  0.40017319  0.26389795  1
  Hf  Hf27  1  0.18842346  0.80078412  0.74876724  1
  Hf  Hf28  1  0.89497489  0.47711264  0.12421755  1
  Hf  Hf29  1  0.69198900  0.51011243  0.62464624  1
  Hf  Hf30  1  0.58462746  0.00088981  0.00740120  1
  Hf  Hf31  1  0.91017737  0.28988576  0.87521990  1
  Hf  Hf32  1  0.40969764  0.80098533  0.50070575  1
  Hf  Hf33  1  0.10777641  0.49919861  0.37981294  1
  Hf  Hf34  1  0.59533396  0.01985609  0.25894045  1
  Hf  Hf35  1  0.41046937  0.18790670  0.00074061  1
  Hf  Hf36  1  0.38772699  -0.00594916  -0.00405360  1
  Hf  Hf37  1  0.31415667  0.31592691  0.89207931  1
  Hf  Hf38  1  0.20826650  0.80126662  -0.00720688  1
  Hf  Hf39  1  0.80084197  0.38990040  0.27134825  1
  Zr  Zr40  1  0.21041188  0.40633871  0.73864160  1
  Zr  Zr41  1  0.72037216  0.29932863  0.12729016  1
  Zr  Zr42  1  0.19839312  0.80958375  0.50060924  1
  Zr  Zr43  1  0.40032737  0.60445268  -0.00139173  1
  Zr  Zr44  1  0.51003118  0.70972970  0.37156844  1
  Zr  Zr45  1  0.60354585  0.60674840  0.01017240  1
  Zr  Zr46  1  0.30843837  0.69229342  0.62787857  1
  Zr  Zr47  1  0.40126757  0.59634801  0.25182132  1
  Zr  Zr48  1  0.40332366  0.20807776  0.75300291  1
  Zr  Zr49  1  0.08146698  0.10778859  0.87211745  1
  Zr  Zr50  1  0.10723447  0.28983536  0.37492228  1
  Zr  Zr51  1  0.68756427  0.90453164  0.87350571  1
  Zr  Zr52  1  0.89576615  0.87605088  0.36673035  1
  Zr  Zr53  1  0.69049598  0.88565800  0.61574476  1
  Zr  Zr54  1  0.22480893  -0.00025510  0.25941688  1
  Zr  Zr55  1  0.28868409  0.70608198  0.12943280  1
  Zr  Zr56  1  0.19406741  0.19551565  0.01014016  1
  Zr  Zr57  1  0.00422222  0.20166244  0.73457855  1
  Zr  Zr58  1  0.68995898  0.90261608  0.13480176  1
  Zr  Zr59  1  0.10275616  0.09565555  0.62502957  1
  Zr  Zr60  1  0.01526507  0.80002938  0.00202293  1
  Zr  Zr61  1  0.40457830  0.80621374  0.74757645  1
  Zr  Zr62  1  0.09892215  0.69363471  0.62813945  1
  Zr  Zr63  1  0.29649296  0.11534296  0.63324254  1
  Zr  Zr64  1  -0.00154366  -0.00681531  0.49293866  1
  Zr  Zr65  1  0.89182688  0.49778871  0.61760475  1
  Zr  Zr66  1  0.90556059  0.89757999  0.13280032  1
  Zr  Zr67  1  0.60689724  0.19593130  0.73793265  1
  Zr  Zr68  1  0.19045161  -0.00619908  -0.00146535  1
  Zr  Zr69  1  0.29411356  0.68763225  0.86561997  1
  Zr  Zr70  1  0.80257103  0.56979844  -0.01970218  1
  Zr  Zr71  1  0.00709714  0.59504781  0.74853661  1
  Zr  Zr72  1  0.60340740  0.60914151  0.49676134  1
  Zr  Zr73  1  -0.00342322  0.61085152  0.26404725  1
  Zr  Zr74  1  -0.01146298  0.02108382  0.00422886  1
  Zr  Zr75  1  0.00456486  0.42153980  -0.01305908  1
  Zr  Zr76  1  0.91401948  0.68084034  0.11358476  1
  Zr  Zr77  1  0.00259618  0.19399913  0.49760787  1
  Zr  Zr78  1  0.88604788  0.11122474  0.14529764  1
  Zr  Zr79  1  0.88954337  0.91041343  0.87838136  1
  Ta  Ta80  1  0.19510904  0.00599130  0.75854634  1
  Ta  Ta81  1  0.20421469  0.59962245  0.26341562  1
  Ta  Ta82  1  0.89411700  0.30049354  0.61437498  1
  Ta  Ta83  1  0.50834388  0.09588266  0.87194712  1
  Ta  Ta84  1  0.79987129  0.39618375  0.75114825  1
  Ta  Ta85  1  0.41142762  0.39748929  0.75149726  1
  Ta  Ta86  1  0.78379824  0.01108672  0.73774405  1
  Ta  Ta87  1  0.80544587  0.59109457  0.25711177  1
  Ta  Ta88  1  0.61747646  0.40359649  0.00026808  1
  Ta  Ta89  1  0.67380079  0.30608633  0.38084557  1
  Ta  Ta90  1  0.09705339  0.71074580  0.37763811  1
  Ta  Ta91  1  0.39602675  0.18466324  0.24191005  1
  Ta  Ta92  1  0.51335059  0.29896343  0.11396037  1
  Ta  Ta93  1  0.49696287  0.89657725  0.87230915  1
  Ta  Ta94  1  0.79200265  -0.00131083  0.25965741  1
  Ta  Ta95  1  0.70544324  0.30534987  0.61806084  1
  Ta  Ta96  1  0.88377754  0.70544994  0.63723331  1
  Ta  Ta97  1  0.51448580  0.30088472  0.88646706  1
  Ta  Ta98  1  0.50104568  0.49182246  0.88418580  1
  Ta  Ta99  1  0.21031155  0.40376658  0.25380512  1
  Ta  Ta100  1  0.58530168  0.79881544  0.00834359  1
  Ta  Ta101  1  0.40681531  0.39813658  0.49403154  1
  Ta  Ta102  1  0.00252961  -0.00569353  0.25711404  1
  Ta  Ta103  1  0.79441751  0.58827674  0.76056067  1
  Ta  Ta104  1  0.89787085  0.09335061  0.36899406  1
  Ta  Ta105  1  0.39089588  0.81435238  0.25768552  1
  Ta  Ta106  1  0.71679952  0.70401348  0.37473201  1
  Ta  Ta107  1  0.78103431  0.19312689  0.27352740  1
  Ta  Ta108  1  0.31036989  0.29161306  0.37019745  1
  Ta  Ta109  1  0.10252514  0.10227572  0.35909233  1
  Ta  Ta110  1  0.39373182  0.20467218  0.50363881  1
  Ta  Ta111  1  0.81517593  0.19979747  0.00091455  1
  Ta  Ta112  1  0.80430385  0.19699438  0.73871853  1
  Ta  Ta113  1  -0.00993289  0.39563317  0.49238699  1
  Ta  Ta114  1  0.18090815  0.59720610  -0.00597185  1
  Ta  Ta115  1  0.59842565  0.40670488  0.74656301  1
  Ta  Ta116  1  0.61538383  0.19169503  0.00440858  1
  Ta  Ta117  1  0.80061584  0.77986974  0.23874216  1
  Ta  Ta118  1  0.30087823  0.70268866  0.37493490  1
  Ta  Ta119  1  0.29430948  0.10669405  0.86598008  1
  Ti  Ti120  1  0.19570665  0.79632192  0.25834987  1
  Ti  Ti121  1  0.10191482  0.89864783  0.36821941  1
  Ti  Ti122  1  0.50087547  0.70260931  0.86845347  1
  Ti  Ti123  1  0.79580883  -0.00350518  0.49319417  1
  Ti  Ti124  1  0.59995890  0.80090501  0.24560006  1
  Ti  Ti125  1  0.80427674  0.61223060  0.49773487  1
  Ti  Ti126  1  0.09401806  0.31339387  0.12369904  1
  Ti  Ti127  1  0.10584158  0.88886306  0.13844553  1
  Ti  Ti128  1  0.88843003  0.89863152  0.62241011  1
  Ti  Ti129  1  0.79552709  0.80825842  0.74934159  1
  Ti  Ti130  1  0.29721483  0.90269944  0.86572985  1
  Ti  Ti131  1  0.40356569  0.80256815  -0.00128250  1
  Ti  Ti132  1  0.49863691  0.70837591  0.13268614  1
  Ti  Ti133  1  0.88420908  0.09808284  0.61354558  1
  Ti  Ti134  1  0.50767535  0.49021008  0.12451576  1
  Ti  Ti135  1  0.09734130  0.69767006  0.86423031  1
  Ti  Ti136  1  0.31224579  0.49208151  0.62133476  1
  Ti  Ti137  1  0.40629988  0.58871987  0.49400255  1
  Ti  Ti138  1  0.40239403  0.00439865  0.75530424  1
  Ti  Ti139  1  0.59088838  0.21844711  0.24995609  1
  Ti  Ti140  1  0.30197659  0.90729567  0.12915416  1
  Ti  Ti141  1  0.20531926  0.20700973  0.24150667  1
  Ti  Ti142  1  0.48919306  0.90924836  0.37202279  1
  Ti  Ti143  1  0.59001478  0.20486070  0.50763871  1
  Ti  Ti144  1  0.48732021  0.90025669  0.13557149  1
  Ti  Ti145  1  0.49648546  0.09836562  0.13033001  1
  Ti  Ti146  1  0.49627849  0.30984435  0.62283017  1
  Ti  Ti147  1  -0.01489032  0.20820837  0.25964317  1
  Ti  Ti148  1  0.49790953  0.90308867  0.62335135  1
  Ti  Ti149  1  0.59441483  -0.00406189  0.74328902  1
  Ti  Ti150  1  0.39734900  0.00809415  0.49270093  1
  Ti  Ti151  1  0.11276298  0.29764015  0.61752439  1
  Ti  Ti152  1  0.49899228  0.09758312  0.62383970  1
  Ti  Ti153  1  0.70509704  0.10182351  0.87123919  1
  Ti  Ti154  1  0.09031999  0.90060147  0.63074270  1
  Ti  Ti155  1  0.70764071  0.50195224  0.38445676  1
  Ti  Ti156  1  0.08942254  0.89677058  0.86544868  1
  Ti  Ti157  1  0.70391320  0.49617295  0.13015745  1
  Ti  Ti158  1  0.59914497  0.40032606  0.50793452  1
  Ti  Ti159  1  0.49110604  0.12008201  0.37504110  1
  Mo  Mo160  1  0.30439751  0.11154187  0.37576815  1
  Mo  Mo161  1  0.20743637  0.20119435  0.49365371  1
  Mo  Mo162  1  0.00306369  0.60620585  -0.01506680  1
  Mo  Mo163  1  0.89227476  0.49945560  0.38808693  1
  Mo  Mo164  1  0.70165027  0.69352057  0.13099666  1
  Mo  Mo165  1  0.11000422  0.70271352  0.12912016  1
  Mo  Mo166  1  0.59798729  0.80497696  0.75341440  1
  Mo  Mo167  1  0.87946237  0.10576024  0.87005002  1
  Mo  Mo168  1  0.89717696  0.69612395  0.37424642  1
  Mo  Mo169  1  0.30510362  0.09520092  0.12583875  1
  Mo  Mo170  1  0.31106665  0.30420127  0.62223135  1
  Mo  Mo171  1  0.42045890  0.40129829  0.00634835  1
  Mo  Mo172  1  0.01062248  0.80183526  0.24629284  1
  Mo  Mo173  1  0.49910688  0.29236332  0.37913844  1
  Mo  Mo174  1  0.69822138  0.10100652  0.61768070  1
  Mo  Mo175  1  0.79127022  0.40183698  0.48836123  1
  Mo  Mo176  1  0.20583658  0.40997929  0.00389561  1
  Mo  Mo177  1  0.71049158  0.69616526  0.64098604  1
  Mo  Mo178  1  -0.01060742  0.80513670  0.74363444  1
  Mo  Mo179  1  0.69142041  0.48962292  0.86578251  1
  Mo  Mo180  1  0.80202004  0.38998368  -0.00653744  1
  Mo  Mo181  1  0.91473880  0.29503855  0.12561290  1
  Mo  Mo182  1  0.69019874  0.10063986  0.38012844  1
  Mo  Mo183  1  0.60067647  0.80481769  0.49761976  1
  Mo  Mo184  1  0.90121971  0.49341423  0.86141872  1
  Mo  Mo185  1  0.29682181  0.49238897  0.88605564  1
  Mo  Mo186  1  0.68703981  0.11185589  0.13415565  1
  Mo  Mo187  1  0.10169793  0.48760057  0.60687302  1
  Mo  Mo188  1  0.40702721  0.00179516  0.25407712  1
  Mo  Mo189  1  0.79502769  0.79257563  0.50497615  1
  Mo  Mo190  1  0.60516036  0.39863744  0.24367234  1
  Mo  Mo191  1  0.49467412  0.49348351  0.62018538  1
  Mo  Mo192  1  0.20217633  0.58962371  0.74433008  1
  Mo  Mo193  1  -0.00245930  0.20991605  0.01098612  1
  Mo  Mo194  1  0.59641461  0.58972057  0.75908339  1
  Mo  Mo195  1  0.11682676  0.51161216  0.86811394  1
  Mo  Mo196  1  0.20324220  0.20497829  0.75775555  1
  Mo  Mo197  1  0.89173145  0.29556137  0.38318317  1
  Mo  Mo198  1  0.30833621  0.49603211  0.37345972  1
  Mo  Mo199  1  0.30801963  0.89573101  0.38048712  1
