# generated using pymatgen
data_HfZrTaTiMo
_symmetry_space_group_name_H-M   'P 1'
_cell_length_a   15.17981700
_cell_length_b   15.16391068
_cell_length_c   16.80073851
_cell_angle_alpha   89.91208036
_cell_angle_beta   90.06454577
_cell_angle_gamma   90.00435827
_symmetry_Int_Tables_number   1
_chemical_formula_structural   HfZrTaTiMo
_chemical_formula_sum   'Hf40 Zr40 Ta40 Ti40 Mo40'
_cell_volume   3867.27751281
_cell_formula_units_Z   40
loop_
 _symmetry_equiv_pos_site_id
 _symmetry_equiv_pos_as_xyz
  1  'x, y, z'
loop_
 _atom_site_type_symbol
 _atom_site_label
 _atom_site_symmetry_multiplicity
 _atom_site_fract_x
 _atom_site_fract_y
 _atom_site_fract_z
 _atom_site_occupancy
  Hf  Hf0  1  0.00260468  0.19084552  0.23102395  1
  Hf  Hf1  1  0.69201989  0.30759443  0.37824142  1
  Hf  Hf2  1  -0.01891578  -0.01240244  0.23771875  1
  Hf  Hf3  1  0.32015662  0.30582378  0.87630372  1
  Hf  Hf4  1  0.39823660  0.79754272  0.74504926  1
  Hf  Hf5  1  0.58627815  0.60642915  0.00679629  1
  Hf  Hf6  1  0.08976214  0.69514413  0.86941194  1
  Hf  Hf7  1  0.29673556  0.30804264  0.37220773  1
  Hf  Hf8  1  0.09706992  0.90672708  0.88697896  1
  Hf  Hf9  1  0.58617585  0.39548786  -0.01362520  1
  Hf  Hf10  1  0.29649098  0.90193885  0.37608650  1
  Hf  Hf11  1  0.41686281  0.20461475  -0.00392028  1
  Hf  Hf12  1  0.30033965  0.89656592  0.12200278  1
  Hf  Hf13  1  0.40485967  0.80264766  0.50512937  1
  Hf  Hf14  1  0.18494279  0.40459339  -0.01823494  1
  Hf  Hf15  1  0.40416679  0.38422878  0.51173628  1
  Hf  Hf16  1  0.09799887  0.10050909  0.37016844  1
  Hf  Hf17  1  0.91064311  0.28863026  0.37432787  1
  Hf  Hf18  1  0.40903949  0.20992230  0.25100871  1
  Hf  Hf19  1  0.50525570  0.28997458  0.65145006  1
  Hf  Hf20  1  0.70835580  0.09900141  0.11755003  1
  Hf  Hf21  1  0.58738132  0.20981721  0.49749986  1
  Hf  Hf22  1  0.90313547  0.50445287  0.36586924  1
  Hf  Hf23  1  0.89380100  0.68968228  0.62787923  1
  Hf  Hf24  1  0.89976458  0.89593645  0.88197587  1
  Hf  Hf25  1  0.10393716  0.69717618  0.37266289  1
  Hf  Hf26  1  0.17961719  0.40835077  0.77202924  1
  Hf  Hf27  1  0.70312209  0.70927878  0.12269291  1
  Hf  Hf28  1  0.29558321  0.50889640  0.38540839  1
  Hf  Hf29  1  0.02032140  0.39896764  0.49081012  1
  Hf  Hf30  1  -0.01801864  0.39035175  0.01118042  1
  Hf  Hf31  1  0.39095230  0.17919409  0.50205459  1
  Hf  Hf32  1  0.89509057  0.48831415  0.88048675  1
  Hf  Hf33  1  0.90053025  0.71133203  0.36818174  1
  Hf  Hf34  1  0.71555407  0.10177107  0.87131691  1
  Hf  Hf35  1  0.69162067  0.71146305  0.36668804  1
  Hf  Hf36  1  0.18532758  -0.00308987  0.23694629  1
  Hf  Hf37  1  0.82619844  0.20170522  0.74670432  1
  Hf  Hf38  1  0.91273322  0.29540768  0.61495303  1
  Hf  Hf39  1  0.50241630  0.08987404  0.36912911  1
  Zr  Zr40  1  0.89550892  0.69642343  0.86664181  1
  Zr  Zr41  1  0.09901953  0.50319244  0.12737807  1
  Zr  Zr42  1  0.30411508  0.31794020  0.12093240  1
  Zr  Zr43  1  0.29626992  0.10028548  0.35872197  1
  Zr  Zr44  1  0.71626345  0.31524773  0.86113700  1
  Zr  Zr45  1  0.19497967  0.81550131  0.74813294  1
  Zr  Zr46  1  0.00083898  0.18986307  0.02702669  1
  Zr  Zr47  1  0.10419373  0.70279221  0.13191303  1
  Zr  Zr48  1  0.49559542  0.69803228  0.86355057  1
  Zr  Zr49  1  0.88022720  0.90418775  0.39031281  1
  Zr  Zr50  1  0.39762864  0.59707280  0.51540027  1
  Zr  Zr51  1  0.08725044  0.70936126  0.62793879  1
  Zr  Zr52  1  0.19716310  0.20569002  0.00401041  1
  Zr  Zr53  1  0.51030494  0.30708623  0.12580134  1
  Zr  Zr54  1  0.39379365  -0.00465298  0.76886089  1
  Zr  Zr55  1  0.30685700  0.09903966  0.12039395  1
  Zr  Zr56  1  0.70353377  0.70321723  0.88441669  1
  Zr  Zr57  1  0.60298311  0.00059737  0.50292294  1
  Zr  Zr58  1  0.20453865  0.80099994  -0.00488810  1
  Zr  Zr59  1  0.30855725  0.92085170  0.61515759  1
  Zr  Zr60  1  0.80212716  -0.01569589  0.74619543  1
  Zr  Zr61  1  0.19944626  0.20008256  0.76323003  1
  Zr  Zr62  1  0.10819769  0.30703180  0.63017450  1
  Zr  Zr63  1  0.50836000  0.08193453  0.12800878  1
  Zr  Zr64  1  0.61274595  0.19649787  0.25760439  1
  Zr  Zr65  1  0.79709428  0.18691299  0.49811585  1
  Zr  Zr66  1  0.68897852  0.10454387  0.63815164  1
  Zr  Zr67  1  0.60999277  0.20144107  -0.01334143  1
  Zr  Zr68  1  0.79922665  0.41357323  0.49018145  1
  Zr  Zr69  1  0.20894108  0.60035820  0.74511836  1
  Zr  Zr70  1  0.50823442  0.88690216  0.37177058  1
  Zr  Zr71  1  0.00697452  -0.00129110  0.73942415  1
  Zr  Zr72  1  0.61349323  0.80972517  0.74898992  1
  Zr  Zr73  1  0.70880326  0.31573238  0.63239779  1
  Zr  Zr74  1  0.69517451  0.49409007  0.11650407  1
  Zr  Zr75  1  0.79742383  0.39668229  0.25304116  1
  Zr  Zr76  1  0.49397920  0.49740379  0.85999510  1
  Zr  Zr77  1  0.50939683  0.49784225  0.38548480  1
  Zr  Zr78  1  0.29807424  0.50837734  0.11772075  1
  Zr  Zr79  1  0.90879539  0.88031229  0.60924462  1
  Ta  Ta80  1  0.08817063  0.89441182  0.37573396  1
  Ta  Ta81  1  0.89738805  0.49251534  0.62415493  1
  Ta  Ta82  1  0.90208067  0.70220761  0.13936426  1
  Ta  Ta83  1  0.19786042  0.21399726  0.50113176  1
  Ta  Ta84  1  0.59396014  -0.00003228  -0.01720052  1
  Ta  Ta85  1  0.30136183  0.51260492  0.87753007  1
  Ta  Ta86  1  0.20491783  0.01650592  0.50062993  1
  Ta  Ta87  1  0.01469569  -0.00769629  0.50584658  1
  Ta  Ta88  1  -0.01102224  0.78860445  0.00937893  1
  Ta  Ta89  1  0.40726851  0.79509884  -0.00104594  1
  Ta  Ta90  1  0.40501218  -0.01437212  -0.01213377  1
  Ta  Ta91  1  0.59222099  0.40575955  0.25543506  1
  Ta  Ta92  1  0.79221705  0.60369052  0.24879245  1
  Ta  Ta93  1  0.40076367  0.41234054  0.25745266  1
  Ta  Ta94  1  0.00865947  0.39308129  0.24231928  1
  Ta  Ta95  1  0.48267715  0.09383937  0.64045295  1
  Ta  Ta96  1  0.81311640  0.21796210  0.00271892  1
  Ta  Ta97  1  0.30575151  0.69733014  0.12497044  1
  Ta  Ta98  1  0.29340722  0.08975962  0.89186218  1
  Ta  Ta99  1  -0.00575527  0.59737818  0.49602052  1
  Ta  Ta100  1  0.58955249  0.81018020  0.00690583  1
  Ta  Ta101  1  0.70516969  0.89633029  0.88956685  1
  Ta  Ta102  1  0.70346977  0.51098238  0.88467353  1
  Ta  Ta103  1  0.59254661  0.60047758  0.24334663  1
  Ta  Ta104  1  0.60796356  0.60410613  0.50795245  1
  Ta  Ta105  1  0.50479829  0.70101097  0.62921040  1
  Ta  Ta106  1  0.38645842  0.40922523  0.73942217  1
  Ta  Ta107  1  0.18808173  0.81157463  0.50358050  1
  Ta  Ta108  1  0.09758554  0.09725901  0.88610920  1
  Ta  Ta109  1  0.01167503  0.18941542  0.49795013  1
  Ta  Ta110  1  0.40426613  0.60466761  0.25308473  1
  Ta  Ta111  1  0.20091108  0.00707460  0.75262463  1
  Ta  Ta112  1  0.70430785  0.70473217  0.62525511  1
  Ta  Ta113  1  0.91683635  0.10359293  0.88167030  1
  Ta  Ta114  1  0.81837862  0.60253592  0.01120274  1
  Ta  Ta115  1  -0.00235530  0.57649313  0.74916207  1
  Ta  Ta116  1  0.39651434  0.79051117  0.24739186  1
  Ta  Ta117  1  0.59573412  0.00017044  0.76543599  1
  Ta  Ta118  1  0.78890206  0.58747440  0.74601571  1
  Ta  Ta119  1  0.80911538  0.18356769  0.25103298  1
  Ti  Ti120  1  0.79546197  0.82162349  0.24492077  1
  Ti  Ti121  1  0.90427848  0.09062811  0.61334524  1
  Ti  Ti122  1  0.39342647  0.60246641  -0.00237161  1
  Ti  Ti123  1  0.71201885  0.89713319  0.61830417  1
  Ti  Ti124  1  0.30166836  0.28916872  0.63523166  1
  Ti  Ti125  1  0.48751197  0.50065101  0.12376085  1
  Ti  Ti126  1  0.40735389  -0.01446035  0.24439390  1
  Ti  Ti127  1  0.61601585  -0.01537254  0.24997010  1
  Ti  Ti128  1  0.49591794  0.69468933  0.37874938  1
  Ti  Ti129  1  0.09228695  0.50141690  0.62268420  1
  Ti  Ti130  1  0.10840499  0.29983235  0.36423082  1
  Ti  Ti131  1  0.30077582  0.70295588  0.87123325  1
  Ti  Ti132  1  0.58749502  0.79888031  0.23310592  1
  Ti  Ti133  1  0.10874101  0.10319953  0.62396558  1
  Ti  Ti134  1  0.00152875  0.60241778  0.25125735  1
  Ti  Ti135  1  0.18948518  0.60366903  -0.00957464  1
  Ti  Ti136  1  0.28500418  0.48904781  0.61911037  1
  Ti  Ti137  1  0.29574312  0.70131549  0.62105897  1
  Ti  Ti138  1  0.10817621  0.49466388  0.36607512  1
  Ti  Ti139  1  0.81023524  0.00645030  -0.00025470  1
  Ti  Ti140  1  0.19415656  0.80152999  0.24943104  1
  Ti  Ti141  1  0.49763240  0.11372367  0.86317570  1
  Ti  Ti142  1  0.69581000  0.90796176  0.11127399  1
  Ti  Ti143  1  -0.01325703  0.38053569  0.76096204  1
  Ti  Ti144  1  0.60919455  0.79818459  0.50481495  1
  Ti  Ti145  1  0.50356653  0.50086641  0.63243677  1
  Ti  Ti146  1  0.19557441  0.21203003  0.23092812  1
  Ti  Ti147  1  0.79269253  0.60289425  0.49446051  1
  Ti  Ti148  1  0.60423055  0.41067773  0.50987038  1
  Ti  Ti149  1  0.21105544  0.60059921  0.25346523  1
  Ti  Ti150  1  0.89032967  0.89680435  0.11477651  1
  Ti  Ti151  1  0.70797879  0.30087095  0.12664458  1
  Ti  Ti152  1  0.71447485  0.07683219  0.37424896  1
  Ti  Ti153  1  0.61465998  0.41535849  0.74881728  1
  Ti  Ti154  1  0.89644901  0.50166386  0.13203265  1
  Ti  Ti155  1  0.90334806  0.09031303  0.38232608  1
  Ti  Ti156  1  0.59949567  0.60316193  0.74177016  1
  Ti  Ti157  1  0.29945641  0.70518933  0.38024673  1
  Ti  Ti158  1  0.51164316  0.90482645  0.62510508  1
  Ti  Ti159  1  0.18817511  0.60035197  0.50542084  1
  Mo  Mo160  1  0.10600473  0.90950883  0.61863880  1
  Mo  Mo161  1  0.79850992  0.80300361  0.01212938  1
  Mo  Mo162  1  0.49172334  0.69560213  0.12558229  1
  Mo  Mo163  1  0.50499386  0.89815992  0.87592871  1
  Mo  Mo164  1  -0.00125407  0.59879454  0.00646545  1
  Mo  Mo165  1  0.00417162  0.79009470  0.49327071  1
  Mo  Mo166  1  0.19686406  0.00224511  0.00896553  1
  Mo  Mo167  1  0.88850882  0.09225966  0.12028018  1
  Mo  Mo168  1  0.10394354  0.30601854  0.13358250  1
  Mo  Mo169  1  0.20512889  0.40684646  0.50266115  1
  Mo  Mo170  1  0.39729331  0.19670177  0.75787988  1
  Mo  Mo171  1  0.00833552  0.19176316  0.75157969  1
  Mo  Mo172  1  0.79188461  0.40283761  0.00864458  1
  Mo  Mo173  1  0.69895291  0.51371630  0.62424501  1
  Mo  Mo174  1  0.79044283  -0.00209352  0.24395501  1
  Mo  Mo175  1  0.40437602  -0.00011550  0.50168052  1
  Mo  Mo176  1  0.50567613  0.30263174  0.84607863  1
  Mo  Mo177  1  0.29854148  0.89611767  0.88299717  1
  Mo  Mo178  1  0.69424915  0.89741480  0.37340354  1
  Mo  Mo179  1  0.88833927  0.30228944  0.13790036  1
  Mo  Mo180  1  -0.00231877  0.80246073  0.24422451  1
  Mo  Mo181  1  0.10493373  0.08858724  0.12287153  1
  Mo  Mo182  1  -0.00000858  -0.00827853  0.01507760  1
  Mo  Mo183  1  0.07537605  0.28817700  0.87547598  1
  Mo  Mo184  1  -0.00652670  0.79758994  0.75237438  1
  Mo  Mo185  1  0.39665743  0.59644786  0.72791213  1
  Mo  Mo186  1  0.49632814  0.30284614  0.37725022  1
  Mo  Mo187  1  0.90327611  0.28973051  0.87849651  1
  Mo  Mo188  1  0.80489081  0.79649421  0.74827853  1
  Mo  Mo189  1  0.80213664  -0.00033492  0.50889691  1
  Mo  Mo190  1  0.60386600  0.19580400  0.75977790  1
  Mo  Mo191  1  0.29369008  0.10976964  0.62921426  1
  Mo  Mo192  1  0.50223547  0.89496276  0.12731615  1
  Mo  Mo193  1  0.08981044  0.89456744  0.11636962  1
  Mo  Mo194  1  0.81097820  0.41083297  0.74539457  1
  Mo  Mo195  1  0.69565402  0.51635302  0.36855623  1
  Mo  Mo196  1  0.78653250  0.78806264  0.49930145  1
  Mo  Mo197  1  0.08785510  0.50335343  0.88013237  1
  Mo  Mo198  1  0.40095346  0.41406703  -0.00797433  1
  Mo  Mo199  1  0.20090368  0.40565905  0.25311707  1
