# generated using pymatgen
data_HfZrTaTiMo
_symmetry_space_group_name_H-M   'P 1'
_cell_length_a   15.21056904
_cell_length_b   15.22192739
_cell_length_c   16.86178002
_cell_angle_alpha   90.03512384
_cell_angle_beta   90.00320751
_cell_angle_gamma   89.91849674
_symmetry_Int_Tables_number   1
_chemical_formula_structural   HfZrTaTiMo
_chemical_formula_sum   'Hf40 Zr40 Ta40 Ti40 Mo40'
_cell_volume   3904.07368004
_cell_formula_units_Z   40
loop_
 _symmetry_equiv_pos_site_id
 _symmetry_equiv_pos_as_xyz
  1  'x, y, z'
loop_
 _atom_site_type_symbol
 _atom_site_label
 _atom_site_symmetry_multiplicity
 _atom_site_fract_x
 _atom_site_fract_y
 _atom_site_fract_z
 _atom_site_occupancy
  Hf  Hf0  1  0.00191818  -0.00819006  0.24753556  1
  Hf  Hf1  1  0.00370474  -0.01158469  0.00182711  1
  Hf  Hf2  1  0.49313828  0.49333937  0.12342543  1
  Hf  Hf3  1  0.60735736  0.79120737  0.76588135  1
  Hf  Hf4  1  0.00502731  0.20757780  0.01194265  1
  Hf  Hf5  1  0.59270732  0.20457745  0.74745865  1
  Hf  Hf6  1  0.30708724  0.50507806  0.37146116  1
  Hf  Hf7  1  0.90840104  0.68693377  0.39100395  1
  Hf  Hf8  1  0.90038136  0.10949757  0.37034072  1
  Hf  Hf9  1  0.09035598  0.30241380  0.87656259  1
  Hf  Hf10  1  0.78107607  0.00637234  0.49877806  1
  Hf  Hf11  1  0.68503767  0.90553076  0.63911117  1
  Hf  Hf12  1  0.31150081  0.09459465  0.14466125  1
  Hf  Hf13  1  0.00768845  0.20199088  0.49109678  1
  Hf  Hf14  1  0.89109200  0.90071096  0.62336483  1
  Hf  Hf15  1  0.10031761  0.51175382  0.37764570  1
  Hf  Hf16  1  0.79941190  0.21477947  0.24764490  1
  Hf  Hf17  1  0.50275398  0.89723096  0.12334978  1
  Hf  Hf18  1  0.70396458  0.71109984  0.36443165  1
  Hf  Hf19  1  0.31089619  0.90847443  0.63313842  1
  Hf  Hf20  1  0.11009299  0.09758197  0.87043978  1
  Hf  Hf21  1  0.10643568  0.29714215  0.36330567  1
  Hf  Hf22  1  0.40179366  0.39018004  0.74797584  1
  Hf  Hf23  1  0.47762084  0.70378192  0.10560790  1
  Hf  Hf24  1  0.40294773  0.19111733  -0.00714264  1
  Hf  Hf25  1  0.68814859  0.11401665  0.11440344  1
  Hf  Hf26  1  0.19937972  0.80075891  0.74948380  1
  Hf  Hf27  1  0.89925218  0.10395181  0.62726547  1
  Hf  Hf28  1  0.09147692  0.48808025  0.12455385  1
  Hf  Hf29  1  0.30276338  0.10664444  0.35390785  1
  Hf  Hf30  1  -0.00621832  -0.00175827  0.76027174  1
  Hf  Hf31  1  0.70201303  0.51545322  0.87431232  1
  Hf  Hf32  1  0.79003127  0.41074255  0.24475772  1
  Hf  Hf33  1  0.79551849  0.40386029  0.50710975  1
  Hf  Hf34  1  0.80198796  0.42218241  0.00992778  1
  Hf  Hf35  1  0.19932775  0.58872323  0.74650547  1
  Hf  Hf36  1  0.20993157  0.60524558  0.50538875  1
  Hf  Hf37  1  0.48853826  0.69375387  0.36896907  1
  Hf  Hf38  1  0.09141292  0.69036407  0.62723723  1
  Hf  Hf39  1  0.29743638  0.69713430  0.88034955  1
  Zr  Zr40  1  0.60992261  0.38120229  0.00983276  1
  Zr  Zr41  1  0.20503418  -0.02651796  0.24356929  1
  Zr  Zr42  1  0.50050224  0.08760221  0.63017945  1
  Zr  Zr43  1  0.20373945  0.20331029  0.74929172  1
  Zr  Zr44  1  0.30221757  0.29059027  0.61400790  1
  Zr  Zr45  1  0.68918442  0.11175245  0.88378757  1
  Zr  Zr46  1  0.10759073  0.49469172  0.88513793  1
  Zr  Zr47  1  0.88425734  0.68943708  0.61578631  1
  Zr  Zr48  1  0.89182864  0.09772771  0.88598899  1
  Zr  Zr49  1  0.29756295  0.30311110  0.87618379  1
  Zr  Zr50  1  0.01078848  0.39696539  0.73841076  1
  Zr  Zr51  1  0.61549932  0.59690686  0.01135439  1
  Zr  Zr52  1  0.58593952  0.81884432  0.50021625  1
  Zr  Zr53  1  0.30329994  0.89631597  0.37997097  1
  Zr  Zr54  1  0.00659113  0.78809746  0.25615290  1
  Zr  Zr55  1  0.39182054  0.78786210  0.50295802  1
  Zr  Zr56  1  0.20892092  -0.00159832  0.00384756  1
  Zr  Zr57  1  0.59774237  0.59435079  0.24227814  1
  Zr  Zr58  1  0.50961902  0.69439749  0.62734779  1
  Zr  Zr59  1  -0.01441988  0.79365544  0.75495459  1
  Zr  Zr60  1  0.50085046  0.09498688  0.13232352  1
  Zr  Zr61  1  0.41573493  -0.01092150  -0.01847726  1
  Zr  Zr62  1  0.90357964  0.50362319  0.87228070  1
  Zr  Zr63  1  0.49753201  0.28963735  0.13485737  1
  Zr  Zr64  1  0.70499965  0.72002576  0.12834031  1
  Zr  Zr65  1  0.80225469  0.41462534  0.73756266  1
  Zr  Zr66  1  0.20635872  0.00905016  0.49766598  1
  Zr  Zr67  1  0.89060525  0.89043568  0.37776420  1
  Zr  Zr68  1  0.20552488  0.20089257  0.01236612  1
  Zr  Zr69  1  0.89450717  0.49096729  0.38401667  1
  Zr  Zr70  1  0.89397574  0.09879554  0.11852864  1
  Zr  Zr71  1  0.59311844  0.41202294  0.74293794  1
  Zr  Zr72  1  0.10546575  0.10237566  0.63406721  1
  Zr  Zr73  1  0.20095030  0.60989170  0.01526510  1
  Zr  Zr74  1  0.72548474  0.91117275  0.86668594  1
  Zr  Zr75  1  0.69744090  0.30035243  0.61955207  1
  Zr  Zr76  1  0.00792449  -0.00357549  0.49101219  1
  Zr  Zr77  1  0.59746037  0.19467027  0.49620759  1
  Zr  Zr78  1  0.40860217  0.58938648  0.74999631  1
  Zr  Zr79  1  0.79539878  -0.00170399  0.24899717  1
  Ta  Ta80  1  0.69492181  0.52705525  0.61846494  1
  Ta  Ta81  1  0.30708937  0.87584694  0.11001835  1
  Ta  Ta82  1  0.49477313  0.49208128  0.89270563  1
  Ta  Ta83  1  0.30577632  0.49728545  0.88649065  1
  Ta  Ta84  1  0.38619620  0.60321960  0.24232720  1
  Ta  Ta85  1  0.38623080  0.79711334  0.24639092  1
  Ta  Ta86  1  0.19342920  0.80280841  0.51331671  1
  Ta  Ta87  1  0.00108977  0.59493305  0.24829273  1
  Ta  Ta88  1  0.09991061  0.90178979  0.63066445  1
  Ta  Ta89  1  0.90820066  0.31519895  0.12210907  1
  Ta  Ta90  1  0.60540909  0.60677721  0.49146120  1
  Ta  Ta91  1  0.40880963  0.80113112  0.76166882  1
  Ta  Ta92  1  0.80745215  0.20480388  0.75247696  1
  Ta  Ta93  1  0.10567234  0.87251966  0.11860617  1
  Ta  Ta94  1  0.88310564  0.70490316  0.88062451  1
  Ta  Ta95  1  0.58679701  0.41196061  0.49192058  1
  Ta  Ta96  1  0.08977811  0.69390255  0.87403288  1
  Ta  Ta97  1  0.78794440  0.22418946  0.00668287  1
  Ta  Ta98  1  0.70427810  0.30735893  0.38200362  1
  Ta  Ta99  1  -0.00693150  0.39596996  0.25448375  1
  Ta  Ta100  1  0.69955461  0.91443818  0.11195357  1
  Ta  Ta101  1  0.90710846  0.70398303  0.12143672  1
  Ta  Ta102  1  0.00538116  0.79430525  0.50266589  1
  Ta  Ta103  1  0.30321184  0.69738201  0.63309777  1
  Ta  Ta104  1  0.59738531  0.81480429  -0.01731630  1
  Ta  Ta105  1  0.60115684  0.00175580  0.25116566  1
  Ta  Ta106  1  0.68896981  0.90634226  0.37327719  1
  Ta  Ta107  1  0.78508568  0.79646573  0.50325777  1
  Ta  Ta108  1  0.90932265  0.29655479  0.62388074  1
  Ta  Ta109  1  0.89516140  0.88926748  0.12210590  1
  Ta  Ta110  1  0.89680496  0.51242670  0.12811588  1
  Ta  Ta111  1  0.89502213  0.30252275  0.87942530  1
  Ta  Ta112  1  0.50530175  0.29314871  0.87881269  1
  Ta  Ta113  1  0.49841324  0.69039626  0.89084157  1
  Ta  Ta114  1  0.49941314  0.09446592  0.36437256  1
  Ta  Ta115  1  0.10432210  0.09627820  0.13690097  1
  Ta  Ta116  1  0.80740402  0.61147667  0.24850616  1
  Ta  Ta117  1  0.31224874  0.49330890  0.61383130  1
  Ta  Ta118  1  0.41844801  -0.00150184  0.49854389  1
  Ta  Ta119  1  -0.00954585  0.59803416  0.00134287  1
  Ti  Ti120  1  0.19564262  0.39114333  0.01490324  1
  Ti  Ti121  1  0.20134922  0.40395690  0.25035433  1
  Ti  Ti122  1  0.20683903  0.39411933  0.49237074  1
  Ti  Ti123  1  0.00393955  0.39434577  0.49755679  1
  Ti  Ti124  1  0.29796222  0.90179682  0.87139025  1
  Ti  Ti125  1  0.30833585  0.10024119  0.63408993  1
  Ti  Ti126  1  0.10708084  0.09699659  0.35626210  1
  Ti  Ti127  1  0.40555969  0.00345425  0.76542525  1
  Ti  Ti128  1  0.10622634  0.49165620  0.61158579  1
  Ti  Ti129  1  0.30141276  0.49947305  0.13005881  1
  Ti  Ti130  1  0.41590691  0.58192915  0.50261076  1
  Ti  Ti131  1  0.59895940  0.39760161  0.25854513  1
  Ti  Ti132  1  0.69429673  0.10413557  0.37331752  1
  Ti  Ti133  1  0.39779654  0.19807289  0.48196833  1
  Ti  Ti134  1  0.70322376  0.09629932  0.63941557  1
  Ti  Ti135  1  0.70367915  0.31107212  0.86902746  1
  Ti  Ti136  1  0.90941484  0.50407133  0.61089069  1
  Ti  Ti137  1  0.10759607  0.88133082  0.37663185  1
  Ti  Ti138  1  0.49619002  0.90254147  0.36218201  1
  Ti  Ti139  1  0.40325824  0.39058943  0.48211075  1
  Ti  Ti140  1  0.80514822  0.20564260  0.49635864  1
  Ti  Ti141  1  0.59791969  0.60062835  0.75675279  1
  Ti  Ti142  1  0.10378777  0.89198243  0.87577652  1
  Ti  Ti143  1  0.40553297  0.39587787  0.26560633  1
  Ti  Ti144  1  0.00270704  0.20386064  0.24207010  1
  Ti  Ti145  1  0.20647832  0.20121383  0.49022432  1
  Ti  Ti146  1  0.29797339  0.29915859  0.14531473  1
  Ti  Ti147  1  0.69501950  0.50833224  0.37691891  1
  Ti  Ti148  1  -0.00946123  0.59423972  0.74944364  1
  Ti  Ti149  1  0.20718335  0.40305634  0.74163597  1
  Ti  Ti150  1  0.60056152  0.20976613  0.26156958  1
  Ti  Ti151  1  0.49102866  0.29970107  0.61375357  1
  Ti  Ti152  1  0.59829407  0.80739350  0.24769174  1
  Ti  Ti153  1  0.28063203  0.70277219  0.36968956  1
  Ti  Ti154  1  0.00457840  0.79105413  -0.00660759  1
  Ti  Ti155  1  0.19274484  0.61459539  0.23966933  1
  Ti  Ti156  1  0.10364643  0.29873725  0.61727106  1
  Ti  Ti157  1  0.80382990  0.80714130  -0.00395101  1
  Ti  Ti158  1  0.78588804  0.62847841  0.74955025  1
  Ti  Ti159  1  0.39013963  0.39326947  0.00726609  1
  Mo  Mo160  1  0.00014423  0.39802996  0.00592927  1
  Mo  Mo161  1  0.19051002  0.80479828  -0.01279755  1
  Mo  Mo162  1  0.40328074  0.19593836  0.75740271  1
  Mo  Mo163  1  0.00676434  0.58923603  0.50648205  1
  Mo  Mo164  1  0.69691964  0.70726566  0.62281329  1
  Mo  Mo165  1  0.70178449  0.50641147  0.13708015  1
  Mo  Mo166  1  0.59596005  0.20162120  -0.00664238  1
  Mo  Mo167  1  0.79664456  0.80388931  0.24600032  1
  Mo  Mo168  1  0.39761757  0.58628044  0.00391967  1
  Mo  Mo169  1  0.20597618  -0.00643602  0.75579537  1
  Mo  Mo170  1  0.20173416  0.78512992  0.24619718  1
  Mo  Mo171  1  0.78896229  0.60025419  0.49728607  1
  Mo  Mo172  1  0.10623428  0.69944656  0.38503612  1
  Mo  Mo173  1  0.80405407  0.80230403  0.75171248  1
  Mo  Mo174  1  0.40871173  -0.01392827  0.24955469  1
  Mo  Mo175  1  0.30413370  0.09543928  0.86100688  1
  Mo  Mo176  1  0.49123818  0.90252721  0.64029243  1
  Mo  Mo177  1  0.50214414  0.50043248  0.37024148  1
  Mo  Mo178  1  0.80271380  0.00112483  0.00954526  1
  Mo  Mo179  1  0.29934564  0.30398172  0.36894251  1
  Mo  Mo180  1  0.69968467  0.30539535  0.13212633  1
  Mo  Mo181  1  0.50386228  0.29814291  0.37265654  1
  Mo  Mo182  1  0.39338003  0.79527636  -0.01890576  1
  Mo  Mo183  1  0.59426399  0.00290923  0.49096032  1
  Mo  Mo184  1  0.19702002  0.20380934  0.24049497  1
  Mo  Mo185  1  0.80610262  0.61607960  0.00725627  1
  Mo  Mo186  1  0.89878342  0.29964500  0.37662488  1
  Mo  Mo187  1  0.59409355  0.00009636  0.75761025  1
  Mo  Mo188  1  0.50161484  0.49101888  0.61321319  1
  Mo  Mo189  1  0.79965440  0.00894213  0.74619696  1
  Mo  Mo190  1  0.29008090  0.70268947  0.12302006  1
  Mo  Mo191  1  0.70065441  0.70261383  0.88450700  1
  Mo  Mo192  1  0.60517500  -0.00100566  -0.00508847  1
  Mo  Mo193  1  0.40462841  0.20809306  0.26386326  1
  Mo  Mo194  1  0.91110273  0.89662665  0.88625610  1
  Mo  Mo195  1  -0.01079004  0.20788289  0.75303068  1
  Mo  Mo196  1  0.08923362  0.69467201  0.12012061  1
  Mo  Mo197  1  0.49944189  0.10130786  0.86392440  1
  Mo  Mo198  1  0.50671330  0.89855265  0.86779334  1
  Mo  Mo199  1  0.10290140  0.29731211  0.14237959  1
