# generated using pymatgen
data_HfZrTaTiMo
_symmetry_space_group_name_H-M   'P 1'
_cell_length_a   15.20691776
_cell_length_b   15.20392842
_cell_length_c   16.86273574
_cell_angle_alpha   89.90334325
_cell_angle_beta   89.97471628
_cell_angle_gamma   89.95337393
_symmetry_Int_Tables_number   1
_chemical_formula_structural   HfZrTaTiMo
_chemical_formula_sum   'Hf40 Zr40 Ta40 Ti40 Mo40'
_cell_volume   3898.73973211
_cell_formula_units_Z   40
loop_
 _symmetry_equiv_pos_site_id
 _symmetry_equiv_pos_as_xyz
  1  'x, y, z'
loop_
 _atom_site_type_symbol
 _atom_site_label
 _atom_site_symmetry_multiplicity
 _atom_site_fract_x
 _atom_site_fract_y
 _atom_site_fract_z
 _atom_site_occupancy
  Hf  Hf0  1  0.50368792  0.91765106  0.36292029  1
  Hf  Hf1  1  0.49854151  0.10661664  0.11505988  1
  Hf  Hf2  1  0.20860063  0.39059387  -0.00554613  1
  Hf  Hf3  1  0.20863642  0.81574888  0.75659347  1
  Hf  Hf4  1  -0.00647397  0.19953632  0.00308805  1
  Hf  Hf5  1  0.60737915  0.41968658  0.76150818  1
  Hf  Hf6  1  0.39419984  0.01444502  0.24794172  1
  Hf  Hf7  1  0.39637055  0.00596675  0.49506765  1
  Hf  Hf8  1  0.09363112  0.30928511  0.63144686  1
  Hf  Hf9  1  0.49249602  0.48662485  0.36966943  1
  Hf  Hf10  1  0.70929467  0.10918334  0.13363683  1
  Hf  Hf11  1  0.20539380  0.40786662  0.50034254  1
  Hf  Hf12  1  0.89467357  0.47239150  0.61613202  1
  Hf  Hf13  1  -0.01242169  0.59135536  0.75450829  1
  Hf  Hf14  1  0.11419602  0.28242073  0.37304180  1
  Hf  Hf15  1  0.61259474  0.41952265  0.50661938  1
  Hf  Hf16  1  0.70943549  0.32600918  0.63138480  1
  Hf  Hf17  1  0.59928708  0.21477355  -0.01261331  1
  Hf  Hf18  1  0.19791779  0.60772734  0.75641991  1
  Hf  Hf19  1  0.10174519  0.50818189  0.63070609  1
  Hf  Hf20  1  0.79914659  0.79071141  0.73472518  1
  Hf  Hf21  1  0.80361686  0.39656060  0.26508953  1
  Hf  Hf22  1  0.00956436  0.58952499  0.25435078  1
  Hf  Hf23  1  0.48766100  0.70175844  0.60568787  1
  Hf  Hf24  1  0.10198578  0.48861463  0.87288440  1
  Hf  Hf25  1  -0.00954262  0.19455550  0.73993512  1
  Hf  Hf26  1  0.00816438  0.79616819  0.74135618  1
  Hf  Hf27  1  0.89070978  0.29084265  0.12936847  1
  Hf  Hf28  1  0.10474642  0.49244715  0.11813149  1
  Hf  Hf29  1  0.58495864  0.62283410  0.75721350  1
  Hf  Hf30  1  0.60281989  0.59839438  0.25400470  1
  Hf  Hf31  1  0.11836538  0.69255719  0.11536799  1
  Hf  Hf32  1  0.58949419  0.21665084  0.24877506  1
  Hf  Hf33  1  0.10989455  0.69511728  0.38459576  1
  Hf  Hf34  1  0.00219804  0.18078482  0.51007925  1
  Hf  Hf35  1  0.28460298  0.11112912  0.36921806  1
  Hf  Hf36  1  0.40448726  0.18770732  0.75626588  1
  Hf  Hf37  1  0.28912846  0.68994302  0.61506423  1
  Hf  Hf38  1  0.90658096  0.68304408  0.61456174  1
  Hf  Hf39  1  0.48842801  0.89376550  0.86833149  1
  Zr  Zr40  1  0.80321965  0.80715356  0.00066156  1
  Zr  Zr41  1  0.38688909  0.22752009  0.22779894  1
  Zr  Zr42  1  0.60163646  0.41683964  -0.01979894  1
  Zr  Zr43  1  0.18863351  0.00176522  0.49257431  1
  Zr  Zr44  1  0.60336024  0.80246259  0.25392163  1
  Zr  Zr45  1  0.29810359  0.08555944  0.87978170  1
  Zr  Zr46  1  0.59883051  0.01633630  0.50765554  1
  Zr  Zr47  1  0.60324997  0.00152379  -0.00501955  1
  Zr  Zr48  1  0.60132708  0.80161054  0.00428419  1
  Zr  Zr49  1  0.21049683  0.39167041  0.24705562  1
  Zr  Zr50  1  0.29935336  0.68691073  0.39467669  1
  Zr  Zr51  1  0.80341463  0.00674033  0.00283388  1
  Zr  Zr52  1  0.68945753  0.31716452  0.12611530  1
  Zr  Zr53  1  0.80993803  0.01053240  0.51741984  1
  Zr  Zr54  1  0.89572985  0.09884557  0.87267629  1
  Zr  Zr55  1  0.38688152  0.21272478  0.00254268  1
  Zr  Zr56  1  0.89428294  0.69667742  0.87673415  1
  Zr  Zr57  1  0.80750129  0.80157961  0.25127600  1
  Zr  Zr58  1  0.09605733  0.08167385  0.87871665  1
  Zr  Zr59  1  0.19219503  -0.01467950  0.24245516  1
  Zr  Zr60  1  0.48871900  0.70114540  0.38607232  1
  Zr  Zr61  1  0.50685769  0.48427180  0.13280859  1
  Zr  Zr62  1  0.20789753  -0.01503801  0.01495755  1
  Zr  Zr63  1  0.68819990  0.10576416  0.37182047  1
  Zr  Zr64  1  0.81179564  0.00875583  0.73506266  1
  Zr  Zr65  1  0.58582491  0.01612546  0.75208873  1
  Zr  Zr66  1  0.70498223  0.90306929  0.85721962  1
  Zr  Zr67  1  0.30546006  0.29748743  0.64391816  1
  Zr  Zr68  1  0.49219561  0.69459119  0.12388293  1
  Zr  Zr69  1  0.80787008  0.59778247  0.25820956  1
  Zr  Zr70  1  0.41331949  0.37532468  0.51629916  1
  Zr  Zr71  1  0.50145280  0.90347230  0.13536983  1
  Zr  Zr72  1  0.01507689  0.79907944  0.24405454  1
  Zr  Zr73  1  0.80198408  0.80612744  0.51331597  1
  Zr  Zr74  1  0.90427857  0.70265912  0.38960987  1
  Zr  Zr75  1  0.32042195  0.69392979  0.87506292  1
  Zr  Zr76  1  -0.00748857  -0.00558505  0.23629399  1
  Zr  Zr77  1  0.59601085  0.81478033  0.49684842  1
  Zr  Zr78  1  0.90473758  0.68795697  0.11828055  1
  Zr  Zr79  1  0.80018692  0.21968336  0.50139895  1
  Ta  Ta80  1  0.68968865  0.12201949  0.63084655  1
  Ta  Ta81  1  0.19444699  0.19714970  0.01162969  1
  Ta  Ta82  1  0.00974906  0.80341830  0.00249464  1
  Ta  Ta83  1  -0.00125947  0.39369499  0.26356552  1
  Ta  Ta84  1  0.08234339  0.09044686  0.36949995  1
  Ta  Ta85  1  0.00426304  0.59211073  -0.00484811  1
  Ta  Ta86  1  0.09821961  0.29242923  0.86706119  1
  Ta  Ta87  1  -0.00878578  0.38484306  0.48001686  1
  Ta  Ta88  1  0.79712697  0.00427115  0.24821707  1
  Ta  Ta89  1  0.71153686  0.90749317  0.37213673  1
  Ta  Ta90  1  0.69641113  0.69872852  0.39018753  1
  Ta  Ta91  1  0.70063960  0.69993239  0.12220968  1
  Ta  Ta92  1  0.38342897  0.60382388  0.24979634  1
  Ta  Ta93  1  0.60098660  0.21361718  0.75830535  1
  Ta  Ta94  1  0.58200098  0.22102844  0.50815621  1
  Ta  Ta95  1  0.39261489  0.81311760  -0.00041369  1
  Ta  Ta96  1  0.90583478  0.30678737  0.87613190  1
  Ta  Ta97  1  0.68912099  0.90447704  0.63665206  1
  Ta  Ta98  1  0.30277891  0.88638890  0.37042380  1
  Ta  Ta99  1  0.78802682  0.58269778  0.50055638  1
  Ta  Ta100  1  0.32205734  0.30099089  0.37998287  1
  Ta  Ta101  1  0.37972264  -0.01501884  0.74737332  1
  Ta  Ta102  1  0.50179944  0.50111634  0.63464345  1
  Ta  Ta103  1  0.09986724  0.70227022  0.88344341  1
  Ta  Ta104  1  0.00749550  0.58441480  0.49549486  1
  Ta  Ta105  1  0.30416634  0.89174468  0.61771057  1
  Ta  Ta106  1  0.90911942  0.91240507  0.38151550  1
  Ta  Ta107  1  0.69374651  0.70555754  0.87259245  1
  Ta  Ta108  1  0.19252822  0.18428094  0.74634385  1
  Ta  Ta109  1  0.20888898  0.20185141  0.50971736  1
  Ta  Ta110  1  0.90633557  0.48532973  0.11709514  1
  Ta  Ta111  1  0.30528617  0.50438315  0.12455372  1
  Ta  Ta112  1  0.49251118  0.90292192  0.63158494  1
  Ta  Ta113  1  0.71232738  0.50953505  0.12268361  1
  Ta  Ta114  1  0.29160226  0.08891333  0.62853142  1
  Ta  Ta115  1  -0.00581000  0.19664872  0.24728335  1
  Ta  Ta116  1  0.10519715  0.90394732  0.61999320  1
  Ta  Ta117  1  0.48726412  0.31436044  0.86415326  1
  Ta  Ta118  1  0.00173499  -0.01052199  0.01452337  1
  Ta  Ta119  1  0.09280379  0.09919465  0.12236139  1
  Ti  Ti120  1  0.92108962  0.90111504  0.87244782  1
  Ti  Ti121  1  0.09161886  0.30216174  0.12564798  1
  Ti  Ti122  1  0.70010854  0.11060898  0.86739306  1
  Ti  Ti123  1  0.10824646  0.49738998  0.37436668  1
  Ti  Ti124  1  0.21548853  0.77751735  0.25074780  1
  Ti  Ti125  1  0.90401216  0.49313089  0.88642299  1
  Ti  Ti126  1  0.29707584  0.49654343  0.36894001  1
  Ti  Ti127  1  0.69955485  0.50358194  0.37500982  1
  Ti  Ti128  1  0.68996324  0.30649084  0.37559691  1
  Ti  Ti129  1  0.00514500  0.80703356  0.51201058  1
  Ti  Ti130  1  0.79939122  0.21209073  0.74391550  1
  Ti  Ti131  1  0.79745494  0.59906133  0.00034312  1
  Ti  Ti132  1  0.01148479  -0.00432659  0.73558080  1
  Ti  Ti133  1  0.31571349  0.48663251  0.85662781  1
  Ti  Ti134  1  0.81721615  0.40613946  0.75920520  1
  Ti  Ti135  1  0.29131072  0.29855107  0.85828551  1
  Ti  Ti136  1  0.48574873  0.12769647  0.37693156  1
  Ti  Ti137  1  0.09774156  0.89398451  0.38034193  1
  Ti  Ti138  1  0.20200650  0.79917982  -0.00998962  1
  Ti  Ti139  1  0.60127291  0.60429512  -0.00896111  1
  Ti  Ti140  1  0.40991005  0.59408709  -0.00506195  1
  Ti  Ti141  1  0.30497702  0.69628096  0.11688252  1
  Ti  Ti142  1  0.19941845  0.79976873  0.50313990  1
  Ti  Ti143  1  0.78716618  0.59337738  0.74188173  1
  Ti  Ti144  1  0.89310999  0.90072655  0.12289449  1
  Ti  Ti145  1  0.49292615  0.09908467  0.88654397  1
  Ti  Ti146  1  0.79496029  0.20530421  -0.00663202  1
  Ti  Ti147  1  0.30196635  0.49326577  0.64610857  1
  Ti  Ti148  1  0.80574346  0.40148947  -0.00305154  1
  Ti  Ti149  1  0.39260056  0.57006223  0.50656913  1
  Ti  Ti150  1  0.71142615  0.30768015  0.86998506  1
  Ti  Ti151  1  0.19631101  0.19118435  0.22793131  1
  Ti  Ti152  1  0.68458729  0.69267131  0.61535722  1
  Ti  Ti153  1  0.41085787  0.78407160  0.74759242  1
  Ti  Ti154  1  0.21240918  0.59448334  -0.01323307  1
  Ti  Ti155  1  0.40217035  0.40459658  -0.00408378  1
  Ti  Ti156  1  0.48964146  0.11044037  0.62484189  1
  Ti  Ti157  1  0.89302240  0.10087004  0.37236199  1
  Ti  Ti158  1  0.30202425  0.88665998  0.13431212  1
  Ti  Ti159  1  0.71277482  0.51500531  0.87653095  1
  Mo  Mo160  1  0.19352499  -0.00437065  0.74409436  1
  Mo  Mo161  1  0.50293924  0.70483838  0.88278626  1
  Mo  Mo162  1  0.89896510  0.29910450  0.62499471  1
  Mo  Mo163  1  0.39582843  0.19256561  0.50724725  1
  Mo  Mo164  1  0.48847568  0.51430502  0.87448658  1
  Mo  Mo165  1  0.70099471  0.51691309  0.63098550  1
  Mo  Mo166  1  0.29321153  0.09954804  0.12202239  1
  Mo  Mo167  1  0.38751684  0.79969173  0.24921076  1
  Mo  Mo168  1  0.40031117  -0.00600690  0.00712240  1
  Mo  Mo169  1  0.09497299  0.89371902  0.87692769  1
  Mo  Mo170  1  0.09949970  0.70291735  0.61411200  1
  Mo  Mo171  1  0.10576425  0.09839184  0.62727698  1
  Mo  Mo172  1  0.89974466  0.10143081  0.12612164  1
  Mo  Mo173  1  0.40732666  0.39887260  0.74900547  1
  Mo  Mo174  1  0.19849493  0.58672022  0.50541359  1
  Mo  Mo175  1  0.51551452  0.29466956  0.64454547  1
  Mo  Mo176  1  0.39870334  0.59618442  0.74060709  1
  Mo  Mo177  1  0.80366232  0.40165584  0.47958399  1
  Mo  Mo178  1  0.90787347  0.89715461  0.62711085  1
  Mo  Mo179  1  -0.00189790  -0.00806179  0.50130928  1
  Mo  Mo180  1  0.19800579  0.39314665  0.75938620  1
  Mo  Mo181  1  0.60427295  0.00881611  0.25080721  1
  Mo  Mo182  1  0.40308680  0.40591420  0.25017532  1
  Mo  Mo183  1  0.20434725  0.59460467  0.24700290  1
  Mo  Mo184  1  0.10437516  0.88446016  0.12232133  1
  Mo  Mo185  1  0.28771906  0.31497235  0.11706769  1
  Mo  Mo186  1  0.60599857  0.40573354  0.25665720  1
  Mo  Mo187  1  0.39211220  0.81685261  0.49988303  1
  Mo  Mo188  1  0.90667867  0.28497723  0.36675072  1
  Mo  Mo189  1  -0.00546966  0.39608553  0.75678477  1
  Mo  Mo190  1  0.89938602  0.10403683  0.62892250  1
  Mo  Mo191  1  0.80285481  0.20239695  0.26326924  1
  Mo  Mo192  1  0.59513813  0.59960911  0.49827621  1
  Mo  Mo193  1  0.70205985  0.90485408  0.14221426  1
  Mo  Mo194  1  0.49767812  0.30997670  0.11314924  1
  Mo  Mo195  1  0.90713560  0.49530162  0.38388945  1
  Mo  Mo196  1  0.59834884  0.80482174  0.73886343  1
  Mo  Mo197  1  0.29737059  0.89614583  0.87606849  1
  Mo  Mo198  1  -0.00122146  0.39457251  0.00025055  1
  Mo  Mo199  1  0.50469316  0.29899569  0.37748318  1
