# generated using pymatgen
data_HfZrTaTiMo
_symmetry_space_group_name_H-M   'P 1'
_cell_length_a   15.20500277
_cell_length_b   15.20226800
_cell_length_c   16.86354353
_cell_angle_alpha   90.04443716
_cell_angle_beta   89.96421107
_cell_angle_gamma   89.98866127
_symmetry_Int_Tables_number   1
_chemical_formula_structural   HfZrTaTiMo
_chemical_formula_sum   'Hf40 Zr40 Ta40 Ti40 Mo40'
_cell_volume   3898.01496517
_cell_formula_units_Z   40
loop_
 _symmetry_equiv_pos_site_id
 _symmetry_equiv_pos_as_xyz
  1  'x, y, z'
loop_
 _atom_site_type_symbol
 _atom_site_label
 _atom_site_symmetry_multiplicity
 _atom_site_fract_x
 _atom_site_fract_y
 _atom_site_fract_z
 _atom_site_occupancy
  Hf  Hf0  1  0.39906213  0.79679432  0.74256373  1
  Hf  Hf1  1  0.19565596  0.79539656  0.26406851  1
  Hf  Hf2  1  0.72575749  0.50073824  0.13774489  1
  Hf  Hf3  1  0.00033994  0.01224271  0.01309324  1
  Hf  Hf4  1  0.90528282  0.30601986  0.61084289  1
  Hf  Hf5  1  0.60162795  0.19151648  0.00568406  1
  Hf  Hf6  1  0.70082795  0.89676547  0.11678250  1
  Hf  Hf7  1  0.29473819  0.29985945  0.38034220  1
  Hf  Hf8  1  0.70326998  0.48619029  0.35049845  1
  Hf  Hf9  1  0.20604415  0.59647931  0.25400105  1
  Hf  Hf10  1  0.30171984  0.69535135  0.87061524  1
  Hf  Hf11  1  0.59571878  -0.00447566  -0.00119272  1
  Hf  Hf12  1  0.79451823  0.22109812  0.24433781  1
  Hf  Hf13  1  0.40088890  0.80754272  0.00640483  1
  Hf  Hf14  1  0.41008955  0.60139734  0.50947173  1
  Hf  Hf15  1  0.79654800  -0.00747114  0.74322546  1
  Hf  Hf16  1  0.18599314  0.39917647  0.25459321  1
  Hf  Hf17  1  0.19413126  0.00600771  0.75225583  1
  Hf  Hf18  1  0.18853608  0.20927166  -0.01548944  1
  Hf  Hf19  1  0.09544921  0.68329993  0.39519608  1
  Hf  Hf20  1  0.79407890  0.41818829  0.49358061  1
  Hf  Hf21  1  0.91355043  0.51349236  0.36529685  1
  Hf  Hf22  1  0.39833069  0.20571724  0.76722819  1
  Hf  Hf23  1  0.69258400  0.10720645  0.37592204  1
  Hf  Hf24  1  0.57975067  0.59624890  0.22749775  1
  Hf  Hf25  1  0.00487523  0.39463460  0.74097877  1
  Hf  Hf26  1  -0.00109630  0.58483476  -0.00287193  1
  Hf  Hf27  1  0.31367402  0.91175219  0.37158114  1
  Hf  Hf28  1  0.01311566  0.39232905  -0.00547362  1
  Hf  Hf29  1  0.11536153  0.48479510  0.86227854  1
  Hf  Hf30  1  0.69700200  0.30409265  0.62344284  1
  Hf  Hf31  1  -0.00183073  0.00645473  0.23834528  1
  Hf  Hf32  1  0.49087603  0.30198985  0.62566832  1
  Hf  Hf33  1  0.89282955  0.10034822  0.87940778  1
  Hf  Hf34  1  0.40445389  0.60158169  0.01614178  1
  Hf  Hf35  1  0.80195700  0.78507221  0.49192295  1
  Hf  Hf36  1  0.49754687  0.90026458  0.87148217  1
  Hf  Hf37  1  0.79619613  0.01763444  0.23664732  1
  Hf  Hf38  1  0.51737246  0.29326382  0.36754831  1
  Hf  Hf39  1  0.30096584  0.90787433  0.62765455  1
  Zr  Zr40  1  0.38472038  0.18823602  0.25395214  1
  Zr  Zr41  1  -0.00698051  0.00885710  0.73798597  1
  Zr  Zr42  1  -0.00732376  0.78497034  0.25576566  1
  Zr  Zr43  1  0.40111603  0.78034929  0.24493458  1
  Zr  Zr44  1  0.79626430  0.00326332  0.50224411  1
  Zr  Zr45  1  0.50733736  0.51316385  0.88537390  1
  Zr  Zr46  1  -0.01639322  0.60759472  0.73517133  1
  Zr  Zr47  1  0.00433601  0.80729345  0.00193494  1
  Zr  Zr48  1  0.87767712  0.49444357  0.86337625  1
  Zr  Zr49  1  0.09960364  0.91750465  0.37649081  1
  Zr  Zr50  1  0.20194178  -0.00269774  -0.01027385  1
  Zr  Zr51  1  0.69465161  0.69713007  0.36263363  1
  Zr  Zr52  1  0.81177139  0.40427489  0.00962710  1
  Zr  Zr53  1  0.49006642  0.08245520  0.36634860  1
  Zr  Zr54  1  0.88631470  0.70264030  0.88461085  1
  Zr  Zr55  1  0.40127961  0.41013825  0.24144640  1
  Zr  Zr56  1  0.20083873  0.58857295  0.72751916  1
  Zr  Zr57  1  0.39148259  0.20435838  -0.01965981  1
  Zr  Zr58  1  0.20456243  0.38911932  0.51958866  1
  Zr  Zr59  1  0.80413516  0.19831420  0.74318242  1
  Zr  Zr60  1  0.39324832  0.40641854  0.75741875  1
  Zr  Zr61  1  0.69123688  0.66849900  0.87778065  1
  Zr  Zr62  1  0.40894106  0.81127735  0.50424897  1
  Zr  Zr63  1  0.69579775  0.89255593  0.62512857  1
  Zr  Zr64  1  0.91235259  0.11473331  0.37582748  1
  Zr  Zr65  1  0.10278423  0.69555580  0.87087800  1
  Zr  Zr66  1  0.30612526  0.91076683  0.13405640  1
  Zr  Zr67  1  0.88790928  0.70010361  0.11006340  1
  Zr  Zr68  1  0.50227372  0.49648695  0.37459662  1
  Zr  Zr69  1  0.71011207  0.88704377  0.88516606  1
  Zr  Zr70  1  0.71243202  0.67559501  0.63213678  1
  Zr  Zr71  1  0.30083909  0.50539142  0.39142006  1
  Zr  Zr72  1  0.00791416  0.02479647  0.51475601  1
  Zr  Zr73  1  0.48352939  0.28392949  0.12129071  1
  Zr  Zr74  1  0.39104875  0.19982928  0.49853903  1
  Zr  Zr75  1  0.80060438  0.81525672  0.25117188  1
  Zr  Zr76  1  0.60408612  0.79587053  0.75036650  1
  Zr  Zr77  1  0.61867097  0.41279940  0.75674191  1
  Zr  Zr78  1  0.10622528  0.89667958  0.13345666  1
  Zr  Zr79  1  0.00218325  0.80944360  0.74742974  1
  Ta  Ta80  1  0.19761822  0.79894352  0.73993203  1
  Ta  Ta81  1  0.09823232  0.49074627  0.39684139  1
  Ta  Ta82  1  0.59897378  0.19849487  0.76130463  1
  Ta  Ta83  1  0.20315392  0.79030302  0.00138732  1
  Ta  Ta84  1  0.09616900  0.70552207  0.60682607  1
  Ta  Ta85  1  0.58927147  -0.00538305  0.50187823  1
  Ta  Ta86  1  0.71401361  0.30027996  0.88220952  1
  Ta  Ta87  1  0.90184930  0.89084351  0.61621779  1
  Ta  Ta88  1  0.80374705  0.19957352  0.01569133  1
  Ta  Ta89  1  0.51354688  0.50143337  0.62203868  1
  Ta  Ta90  1  0.09683313  0.30733123  0.12781113  1
  Ta  Ta91  1  0.61258864  0.37959224  0.22808713  1
  Ta  Ta92  1  0.29857441  0.11324411  0.63642769  1
  Ta  Ta93  1  0.40230292  0.00906483  -0.00864339  1
  Ta  Ta94  1  0.91038010  0.29060509  0.87140077  1
  Ta  Ta95  1  0.21035494  0.00948618  0.50376388  1
  Ta  Ta96  1  0.51403259  0.30862736  0.88311149  1
  Ta  Ta97  1  0.51244584  0.89077699  0.36580419  1
  Ta  Ta98  1  0.90117684  0.90496944  0.88316549  1
  Ta  Ta99  1  0.20179811  0.80589284  0.49725168  1
  Ta  Ta100  1  0.40312607  0.00688454  0.75546948  1
  Ta  Ta101  1  0.49910972  0.69531915  0.37370487  1
  Ta  Ta102  1  0.11242311  0.11489523  0.12803554  1
  Ta  Ta103  1  0.50094239  0.09952301  0.63164193  1
  Ta  Ta104  1  0.30129917  0.10666480  0.11869907  1
  Ta  Ta105  1  0.29534167  0.70032298  0.61523885  1
  Ta  Ta106  1  0.18338573  0.19037507  0.50720339  1
  Ta  Ta107  1  0.09888063  0.68192445  0.12550950  1
  Ta  Ta108  1  0.60342625  0.39657784  0.01721989  1
  Ta  Ta109  1  0.59550757  0.80107160  0.23353368  1
  Ta  Ta110  1  0.81963142  0.61427042  0.25027893  1
  Ta  Ta111  1  0.69028883  0.10225608  0.62194034  1
  Ta  Ta112  1  0.89613694  0.31510273  0.37787172  1
  Ta  Ta113  1  0.89710967  0.90668312  0.38005984  1
  Ta  Ta114  1  0.20890665  0.39989734  0.00075326  1
  Ta  Ta115  1  0.20085793  0.59252476  0.00443060  1
  Ta  Ta116  1  0.61673693  0.59365748  0.49595109  1
  Ta  Ta117  1  0.60487090  0.18298179  0.23312623  1
  Ta  Ta118  1  0.59967195  0.79472582  0.49887798  1
  Ta  Ta119  1  0.08313900  0.29568553  0.38861926  1
  Ti  Ti120  1  0.29421099  0.09918051  0.86834393  1
  Ti  Ti121  1  0.30330305  0.50339517  0.87585947  1
  Ti  Ti122  1  -0.00496583  0.20411671  0.00910480  1
  Ti  Ti123  1  0.90344266  0.31155578  0.13446527  1
  Ti  Ti124  1  0.29877709  0.49593835  0.12468515  1
  Ti  Ti125  1  0.00652189  0.19730076  0.73473129  1
  Ti  Ti126  1  0.10082343  0.90048199  0.87395039  1
  Ti  Ti127  1  0.60931981  0.59167088  0.02444013  1
  Ti  Ti128  1  0.28506512  0.29330962  0.12586454  1
  Ti  Ti129  1  0.40706893  0.60217367  0.73796714  1
  Ti  Ti130  1  0.18893507  0.20110782  0.25801651  1
  Ti  Ti131  1  0.29596794  0.89543597  0.86869663  1
  Ti  Ti132  1  0.79752970  0.20563908  0.49819600  1
  Ti  Ti133  1  0.69893908  0.10022096  0.87908273  1
  Ti  Ti134  1  0.00159155  0.20880405  0.24615964  1
  Ti  Ti135  1  0.40153021  0.00750549  0.50744775  1
  Ti  Ti136  1  0.29267605  0.69758202  0.12617838  1
  Ti  Ti137  1  0.81184871  0.78533254  0.74747928  1
  Ti  Ti138  1  -0.02900813  0.60440545  0.51093777  1
  Ti  Ti139  1  0.59759324  0.39481201  0.49696887  1
  Ti  Ti140  1  0.59904442  0.00929117  0.75642799  1
  Ti  Ti141  1  0.50451799  0.90825803  0.63116568  1
  Ti  Ti142  1  0.80610831  0.00569143  0.01624471  1
  Ti  Ti143  1  0.21067454  0.01984765  0.25529392  1
  Ti  Ti144  1  0.87050097  0.50945710  0.63088721  1
  Ti  Ti145  1  0.49703069  0.70162580  0.87643275  1
  Ti  Ti146  1  -0.00327995  0.80736148  0.49613734  1
  Ti  Ti147  1  0.50991663  0.69971021  0.62454281  1
  Ti  Ti148  1  0.49514506  0.07259154  0.13540010  1
  Ti  Ti149  1  0.39761423  0.40047196  -0.00130383  1
  Ti  Ti150  1  0.31341489  0.49104268  0.61764322  1
  Ti  Ti151  1  0.08358565  0.49727583  0.60767797  1
  Ti  Ti152  1  0.19562037  0.22265799  0.75583897  1
  Ti  Ti153  1  0.93323216  0.50028639  0.14819580  1
  Ti  Ti154  1  0.59758658  0.78274030  0.01364746  1
  Ti  Ti155  1  0.30370783  0.69672290  0.38974871  1
  Ti  Ti156  1  0.69332118  0.90635942  0.37132001  1
  Ti  Ti157  1  0.08758955  0.11024513  0.86923390  1
  Ti  Ti158  1  0.10422871  0.90192430  0.61681211  1
  Ti  Ti159  1  0.59762310  0.19472946  0.50171148  1
  Mo  Mo160  1  0.89986707  0.90875341  0.11576015  1
  Mo  Mo161  1  0.81132703  0.40255329  0.25132970  1
  Mo  Mo162  1  0.29891343  0.29515974  0.63036856  1
  Mo  Mo163  1  0.89083919  0.10483034  0.61776046  1
  Mo  Mo164  1  0.49812596  0.69929952  0.11824752  1
  Mo  Mo165  1  0.10106276  0.29605558  0.62342409  1
  Mo  Mo166  1  0.58283679  0.59954708  0.74835856  1
  Mo  Mo167  1  0.68770169  0.48117423  0.89090651  1
  Mo  Mo168  1  0.69689643  0.29520421  0.37947857  1
  Mo  Mo169  1  0.79322979  0.59834531  0.00784720  1
  Mo  Mo170  1  0.79759615  0.59852700  0.48829899  1
  Mo  Mo171  1  0.09556578  0.29508568  0.86665852  1
  Mo  Mo172  1  0.70337463  0.29695278  0.11938250  1
  Mo  Mo173  1  0.11130238  0.49642123  0.12199809  1
  Mo  Mo174  1  0.49777591  0.48928225  0.11713063  1
  Mo  Mo175  1  0.69652561  0.10042853  0.12170584  1
  Mo  Mo176  1  0.41256990  0.39823211  0.50643096  1
  Mo  Mo177  1  0.90823241  0.11700447  0.12595510  1
  Mo  Mo178  1  0.79375639  0.80692562  -0.00066992  1
  Mo  Mo179  1  0.50415349  0.10006567  0.87033539  1
  Mo  Mo180  1  0.80450849  0.39317787  0.75146801  1
  Mo  Mo181  1  0.19925319  0.60097222  0.51704708  1
  Mo  Mo182  1  0.01965296  0.59493327  0.25259356  1
  Mo  Mo183  1  0.90202081  0.70270204  0.62273888  1
  Mo  Mo184  1  0.10925283  0.10734183  0.63351468  1
  Mo  Mo185  1  0.40176855  -0.00647976  0.24730572  1
  Mo  Mo186  1  0.28359668  0.09773607  0.37880015  1
  Mo  Mo187  1  0.69382464  0.49130027  0.61956357  1
  Mo  Mo188  1  0.00609848  0.39274163  0.25578807  1
  Mo  Mo189  1  0.60244177  -0.00971038  0.24662932  1
  Mo  Mo190  1  0.19981262  0.39686081  0.72674959  1
  Mo  Mo191  1  0.70029021  0.69748570  0.12576101  1
  Mo  Mo192  1  -0.00526067  0.41022118  0.50468448  1
  Mo  Mo193  1  0.50062193  0.89808354  0.12330213  1
  Mo  Mo194  1  0.10541501  0.11188108  0.36881754  1
  Mo  Mo195  1  0.29238841  0.32106342  0.87410316  1
  Mo  Mo196  1  0.77959267  0.57964489  0.75132122  1
  Mo  Mo197  1  0.39122765  0.59873637  0.24206627  1
  Mo  Mo198  1  0.90483021  0.70701067  0.37584069  1
  Mo  Mo199  1  -0.00270809  0.21050724  0.50484471  1
