# generated using pymatgen
data_HfZrTaTiMo
_symmetry_space_group_name_H-M   'P 1'
_cell_length_a   15.20606425
_cell_length_b   15.21417348
_cell_length_c   16.87612552
_cell_angle_alpha   89.98193931
_cell_angle_beta   90.00152125
_cell_angle_gamma   89.93593187
_symmetry_Int_Tables_number   1
_chemical_formula_structural   HfZrTaTiMo
_chemical_formula_sum   'Hf40 Zr40 Ta40 Ti40 Mo40'
_cell_volume   3904.25017771
_cell_formula_units_Z   40
loop_
 _symmetry_equiv_pos_site_id
 _symmetry_equiv_pos_as_xyz
  1  'x, y, z'
loop_
 _atom_site_type_symbol
 _atom_site_label
 _atom_site_symmetry_multiplicity
 _atom_site_fract_x
 _atom_site_fract_y
 _atom_site_fract_z
 _atom_site_occupancy
  Hf  Hf0  1  0.60507795  -0.00595976  0.24173963  1
  Hf  Hf1  1  0.39733315  0.40497398  0.49994165  1
  Hf  Hf2  1  0.62297482  -0.00498022  0.50675154  1
  Hf  Hf3  1  0.39584466  0.78824819  0.76573590  1
  Hf  Hf4  1  0.50124643  0.68359406  0.64128728  1
  Hf  Hf5  1  0.31297963  0.29741460  0.12516749  1
  Hf  Hf6  1  0.68265124  0.50161144  0.64088668  1
  Hf  Hf7  1  0.89691972  0.49655782  0.36717408  1
  Hf  Hf8  1  0.18904681  0.00107867  0.49917098  1
  Hf  Hf9  1  0.70251988  0.49767801  0.13171491  1
  Hf  Hf10  1  0.18883378  0.19568833  0.25434470  1
  Hf  Hf11  1  0.30045600  0.09910739  0.37930175  1
  Hf  Hf12  1  0.20281365  0.40081219  0.23839847  1
  Hf  Hf13  1  0.49888079  0.10204036  0.11643807  1
  Hf  Hf14  1  0.51432894  0.30317083  0.12302830  1
  Hf  Hf15  1  0.80866968  0.00579356  0.25017203  1
  Hf  Hf16  1  0.20909567  0.60516995  0.23381506  1
  Hf  Hf17  1  0.10030552  0.10007533  0.11678141  1
  Hf  Hf18  1  0.10222811  0.09341525  0.86931013  1
  Hf  Hf19  1  -0.00878938  -0.00695967  0.49707715  1
  Hf  Hf20  1  0.07538614  0.30540876  0.13323891  1
  Hf  Hf21  1  0.30368341  0.09637357  0.11636769  1
  Hf  Hf22  1  0.68924219  0.71273030  0.13039306  1
  Hf  Hf23  1  0.51320238  0.32411876  0.63086255  1
  Hf  Hf24  1  0.11138004  0.31356704  0.87214804  1
  Hf  Hf25  1  0.30097267  0.09978716  0.87954836  1
  Hf  Hf26  1  0.20361576  0.20741463  -0.00137970  1
  Hf  Hf27  1  0.58563672  0.78843782  0.50690145  1
  Hf  Hf28  1  0.51161248  0.09903863  0.87586130  1
  Hf  Hf29  1  0.20133830  -0.00191378  0.25667383  1
  Hf  Hf30  1  0.79476485  0.80862978  0.49825565  1
  Hf  Hf31  1  0.29775186  0.88853917  0.38016815  1
  Hf  Hf32  1  0.29978931  0.89623659  0.11642215  1
  Hf  Hf33  1  0.40664655  0.20068124  0.49947403  1
  Hf  Hf34  1  0.30760135  0.50555415  0.63257356  1
  Hf  Hf35  1  0.51157430  0.09269820  0.37714765  1
  Hf  Hf36  1  0.62395054  -0.00721754  0.00421432  1
  Hf  Hf37  1  -0.00989100  -0.00268765  -0.00575802  1
  Hf  Hf38  1  0.00496984  0.20251079  0.74169244  1
  Hf  Hf39  1  0.30066241  0.30301302  0.62771476  1
  Zr  Zr40  1  0.40173296  0.77549801  0.24139099  1
  Zr  Zr41  1  0.71528140  0.11328992  0.12359566  1
  Zr  Zr42  1  0.09566726  0.29670089  0.38298503  1
  Zr  Zr43  1  0.50990111  0.09486303  0.62814827  1
  Zr  Zr44  1  0.49860365  0.89731437  0.86970879  1
  Zr  Zr45  1  0.40714640  -0.01726481  0.51012532  1
  Zr  Zr46  1  0.89301572  0.90352104  0.86380860  1
  Zr  Zr47  1  0.18185275  0.80116116  0.00610118  1
  Zr  Zr48  1  0.09961504  0.69955292  0.36736626  1
  Zr  Zr49  1  0.09690294  0.49225467  0.37056824  1
  Zr  Zr50  1  0.50620902  0.88598853  0.11606131  1
  Zr  Zr51  1  0.00240855  0.41113239  0.74460384  1
  Zr  Zr52  1  0.19928010  0.41030347  0.01411341  1
  Zr  Zr53  1  0.50004945  0.48744878  0.87926798  1
  Zr  Zr54  1  0.70641781  0.29991010  0.88076604  1
  Zr  Zr55  1  0.08369684  0.90175773  0.13507083  1
  Zr  Zr56  1  0.40553278  0.20362602  0.26108060  1
  Zr  Zr57  1  0.89452554  0.89363871  0.63177190  1
  Zr  Zr58  1  0.90024079  0.31067951  0.88301372  1
  Zr  Zr59  1  0.61311472  0.21571079  0.49745352  1
  Zr  Zr60  1  0.40439186  0.20363742  0.75049863  1
  Zr  Zr61  1  0.67949686  0.49734665  0.36175707  1
  Zr  Zr62  1  0.30574272  0.49822006  0.37153091  1
  Zr  Zr63  1  0.29770391  0.70212664  0.61613564  1
  Zr  Zr64  1  0.87526766  0.29784606  0.10670964  1
  Zr  Zr65  1  0.61833222  0.40040448  -0.00232682  1
  Zr  Zr66  1  0.19124588  0.60434571  0.01921032  1
  Zr  Zr67  1  -0.00645363  0.60221968  0.49578497  1
  Zr  Zr68  1  0.69531491  0.89732260  0.85493724  1
  Zr  Zr69  1  0.31090783  0.69718545  0.38940747  1
  Zr  Zr70  1  0.00349118  0.18773049  0.50981626  1
  Zr  Zr71  1  0.29087608  0.90201436  0.63198966  1
  Zr  Zr72  1  0.89197360  0.50472753  0.61765809  1
  Zr  Zr73  1  0.91250501  0.50059061  0.14863410  1
  Zr  Zr74  1  0.62182904  0.21690052  0.25900974  1
  Zr  Zr75  1  0.09419730  0.88697872  0.86565269  1
  Zr  Zr76  1  0.70566256  0.70407572  0.63573722  1
  Zr  Zr77  1  0.50250270  0.87879871  0.37005251  1
  Zr  Zr78  1  0.81312275  0.19934836  0.74422217  1
  Zr  Zr79  1  0.61221906  0.20548137  0.74960073  1
  Ta  Ta80  1  0.78702576  0.39861339  0.49564697  1
  Ta  Ta81  1  0.18208898  0.60392310  0.74709297  1
  Ta  Ta82  1  0.27498854  0.69415668  0.87472566  1
  Ta  Ta83  1  0.72010612  0.09949661  0.37726659  1
  Ta  Ta84  1  0.43164478  0.59747980  0.50260137  1
  Ta  Ta85  1  0.68433832  0.70815109  0.36440114  1
  Ta  Ta86  1  0.20650490  0.19889866  0.50879940  1
  Ta  Ta87  1  0.78686215  0.38235461  0.25643339  1
  Ta  Ta88  1  0.59332157  0.42619724  0.50244326  1
  Ta  Ta89  1  -0.00156954  0.77161741  0.74214531  1
  Ta  Ta90  1  0.09047513  0.89509589  0.36632133  1
  Ta  Ta91  1  0.78344881  0.60485852  0.48776634  1
  Ta  Ta92  1  0.71808658  0.50576528  0.86829366  1
  Ta  Ta93  1  0.09686455  0.52101239  0.87554347  1
  Ta  Ta94  1  -0.00360190  0.79869033  0.49841258  1
  Ta  Ta95  1  0.88725309  0.89890617  0.13009684  1
  Ta  Ta96  1  0.28706159  0.90538917  0.87419053  1
  Ta  Ta97  1  0.90371600  0.69955918  0.87829048  1
  Ta  Ta98  1  0.79331484  0.80884827  0.00162587  1
  Ta  Ta99  1  0.50169565  0.50287753  0.11003491  1
  Ta  Ta100  1  -0.00826702  0.60354969  0.01104358  1
  Ta  Ta101  1  0.39797298  -0.00486399  -0.00697563  1
  Ta  Ta102  1  0.90527291  0.51356558  0.87476389  1
  Ta  Ta103  1  0.89556507  0.29628471  0.38675450  1
  Ta  Ta104  1  0.28630132  0.49513492  0.87181372  1
  Ta  Ta105  1  0.00029016  0.20241159  -0.01123028  1
  Ta  Ta106  1  0.51045258  0.32621670  0.37241821  1
  Ta  Ta107  1  0.70197779  0.89889942  0.36903402  1
  Ta  Ta108  1  0.38953287  0.00181696  0.74718249  1
  Ta  Ta109  1  0.59616761  0.60591801  0.77584159  1
  Ta  Ta110  1  0.19808882  0.79840610  0.24188422  1
  Ta  Ta111  1  0.48631085  0.68732978  0.10248611  1
  Ta  Ta112  1  0.10427882  0.30845044  0.61589263  1
  Ta  Ta113  1  0.20478201  0.19599099  0.74185064  1
  Ta  Ta114  1  0.00164246  0.41612689  -0.00033157  1
  Ta  Ta115  1  0.40132055  -0.00635174  0.24894344  1
  Ta  Ta116  1  0.78877335  0.60773093  0.25559302  1
  Ta  Ta117  1  0.60658724  0.60536360  -0.01342790  1
  Ta  Ta118  1  0.57343804  0.60519013  0.24314073  1
  Ta  Ta119  1  0.89199607  0.71027514  0.36029091  1
  Ti  Ti120  1  0.40044303  0.39107159  -0.00463850  1
  Ti  Ti121  1  0.80221889  0.18896599  0.50194830  1
  Ti  Ti122  1  0.81729920  0.60589416  0.74982223  1
  Ti  Ti123  1  0.20319405  0.40437027  0.74848734  1
  Ti  Ti124  1  0.71005812  0.30451937  0.62359064  1
  Ti  Ti125  1  0.29669264  0.30441012  0.38000874  1
  Ti  Ti126  1  0.39004652  0.79023964  -0.01568542  1
  Ti  Ti127  1  0.09396239  0.89215807  0.63283062  1
  Ti  Ti128  1  0.82114032  0.20282392  0.25834066  1
  Ti  Ti129  1  0.00151601  0.02036895  0.26336103  1
  Ti  Ti130  1  -0.00415478  0.00147409  0.74594644  1
  Ti  Ti131  1  0.91198485  0.10142766  0.12384220  1
  Ti  Ti132  1  0.59871315  0.79069887  -0.01168911  1
  Ti  Ti133  1  0.70863419  0.70271536  0.87079183  1
  Ti  Ti134  1  0.80168660  0.60937738  0.00457872  1
  Ti  Ti135  1  0.32030748  0.51010580  0.12235876  1
  Ti  Ti136  1  0.18759931  0.80021549  0.50286628  1
  Ti  Ti137  1  0.79943790  0.40009511  0.74725610  1
  Ti  Ti138  1  0.80920471  0.16853150  -0.01508640  1
  Ti  Ti139  1  0.71771624  0.08413432  0.86353353  1
  Ti  Ti140  1  -0.01555235  0.79037225  0.00670712  1
  Ti  Ti141  1  0.20548937  0.58879999  0.50127340  1
  Ti  Ti142  1  0.80447166  0.79368133  0.74784645  1
  Ti  Ti143  1  0.09211327  0.69477935  0.61675622  1
  Ti  Ti144  1  0.07601461  0.69657427  0.14444448  1
  Ti  Ti145  1  0.39081588  0.59559094  0.76900660  1
  Ti  Ti146  1  0.31056347  0.30206412  0.87297181  1
  Ti  Ti147  1  0.69646171  0.91413497  0.64815918  1
  Ti  Ti148  1  0.40874198  0.40067457  0.75888384  1
  Ti  Ti149  1  0.89574304  0.90322444  0.36911314  1
  Ti  Ti150  1  0.10311625  0.49567304  0.61363656  1
  Ti  Ti151  1  0.39245324  0.59855001  -0.01628230  1
  Ti  Ti152  1  0.41757173  0.41483665  0.24768332  1
  Ti  Ti153  1  0.90290615  0.30636379  0.60974852  1
  Ti  Ti154  1  0.60634816  0.20021149  -0.00490129  1
  Ti  Ti155  1  0.11145359  0.09169914  0.63421347  1
  Ti  Ti156  1  0.89144855  0.70793314  0.14467477  1
  Ti  Ti157  1  0.19195619  0.79424970  0.74994880  1
  Ti  Ti158  1  0.88887949  0.08971891  0.62341972  1
  Ti  Ti159  1  0.50486724  0.88750871  0.64679010  1
  Mo  Mo160  1  -0.01531142  0.38044904  0.25642118  1
  Mo  Mo161  1  0.80852149  -0.00463948  0.00183246  1
  Mo  Mo162  1  0.60787731  0.40447221  0.76179599  1
  Mo  Mo163  1  0.39862983  0.59432204  0.23815428  1
  Mo  Mo164  1  0.00060635  0.59979389  0.74066660  1
  Mo  Mo165  1  0.19940003  0.39879106  0.50506575  1
  Mo  Mo166  1  0.08417352  0.69433140  0.87863036  1
  Mo  Mo167  1  0.19456268  0.00113200  0.74403562  1
  Mo  Mo168  1  0.49304762  0.69529711  0.88838318  1
  Mo  Mo169  1  0.20361324  -0.00182482  -0.00370229  1
  Mo  Mo170  1  0.80076271  0.00661726  0.74429685  1
  Mo  Mo171  1  0.49665116  0.50444596  0.64549451  1
  Mo  Mo172  1  0.60034984  0.79286583  0.75256663  1
  Mo  Mo173  1  0.79212523  0.80689233  0.25411473  1
  Mo  Mo174  1  0.59875948  0.79441196  0.24499341  1
  Mo  Mo175  1  0.29671382  0.10227256  0.62620657  1
  Mo  Mo176  1  -0.00727442  0.39650885  0.50655153  1
  Mo  Mo177  1  0.70618465  0.89801089  0.12336002  1
  Mo  Mo178  1  0.09183766  0.50219473  0.13784648  1
  Mo  Mo179  1  0.80136888  0.00056678  0.49401336  1
  Mo  Mo180  1  0.89873459  0.70026645  0.61649447  1
  Mo  Mo181  1  0.09961461  0.09416443  0.37778882  1
  Mo  Mo182  1  0.30273870  0.70231263  0.11154884  1
  Mo  Mo183  1  0.71254990  0.10065067  0.62250863  1
  Mo  Mo184  1  -0.00566907  0.60497917  0.25553940  1
  Mo  Mo185  1  0.61173029  0.59941503  0.50390544  1
  Mo  Mo186  1  -0.00959420  0.19744750  0.25443565  1
  Mo  Mo187  1  -0.00901349  0.81045396  0.25375131  1
  Mo  Mo188  1  0.59797540  0.40458869  0.24221921  1
  Mo  Mo189  1  0.90693747  0.10104442  0.86879572  1
  Mo  Mo190  1  0.59496808  0.00461634  0.74181504  1
  Mo  Mo191  1  0.41157044  0.20448188  -0.00949295  1
  Mo  Mo192  1  0.50404254  0.68608686  0.37557038  1
  Mo  Mo193  1  0.70627863  0.30241080  0.38430566  1
  Mo  Mo194  1  0.81374700  0.43779470  -0.00122397  1
  Mo  Mo195  1  0.40007858  0.79062804  0.51188697  1
  Mo  Mo196  1  0.70510030  0.30123281  0.11555330  1
  Mo  Mo197  1  0.49695278  0.29371545  0.88445112  1
  Mo  Mo198  1  0.49520236  0.50946177  0.37191295  1
  Mo  Mo199  1  0.90494951  0.10192184  0.37807144  1
