# generated using pymatgen
data_HfZrTaTiMo
_symmetry_space_group_name_H-M   'P 1'
_cell_length_a   15.21725833
_cell_length_b   15.21492106
_cell_length_c   16.83464251
_cell_angle_alpha   90.01784958
_cell_angle_beta   89.95915754
_cell_angle_gamma   90.00471930
_symmetry_Int_Tables_number   1
_chemical_formula_structural   HfZrTaTiMo
_chemical_formula_sum   'Hf40 Zr40 Ta40 Ti40 Mo40'
_cell_volume   3897.71322057
_cell_formula_units_Z   40
loop_
 _symmetry_equiv_pos_site_id
 _symmetry_equiv_pos_as_xyz
  1  'x, y, z'
loop_
 _atom_site_type_symbol
 _atom_site_label
 _atom_site_symmetry_multiplicity
 _atom_site_fract_x
 _atom_site_fract_y
 _atom_site_fract_z
 _atom_site_occupancy
  Hf  Hf0  1  0.59684476  0.01811594  0.24144887  1
  Hf  Hf1  1  0.79742815  0.00491675  0.00814932  1
  Hf  Hf2  1  0.69066289  0.09965010  0.63292837  1
  Hf  Hf3  1  0.40637276  0.17870047  0.26006259  1
  Hf  Hf4  1  0.49648004  0.11241812  0.11259058  1
  Hf  Hf5  1  0.20051124  -0.02446948  0.26340960  1
  Hf  Hf6  1  0.81589396  0.81767114  0.24108679  1
  Hf  Hf7  1  0.28985494  0.29310522  0.36898697  1
  Hf  Hf8  1  0.19877064  -0.00320789  0.50017031  1
  Hf  Hf9  1  0.29754023  0.27861240  0.11378746  1
  Hf  Hf10  1  0.10179810  0.69843755  0.12152016  1
  Hf  Hf11  1  0.51187994  0.49891649  0.87954131  1
  Hf  Hf12  1  0.50631531  0.69724657  0.11798032  1
  Hf  Hf13  1  0.09917333  0.48253410  0.36818476  1
  Hf  Hf14  1  0.40802752  0.58384339  0.50534450  1
  Hf  Hf15  1  0.31173107  0.49227486  0.87665605  1
  Hf  Hf16  1  0.59061186  0.21444170  -0.01752170  1
  Hf  Hf17  1  0.59644978  0.39940765  0.50550241  1
  Hf  Hf18  1  0.90293670  0.49733912  0.36534392  1
  Hf  Hf19  1  0.07956171  0.08152698  0.13318435  1
  Hf  Hf20  1  0.18576273  0.38846603  0.50463418  1
  Hf  Hf21  1  0.69811051  0.50015535  0.35868742  1
  Hf  Hf22  1  0.00077695  0.21942285  0.74139561  1
  Hf  Hf23  1  0.60296055  0.81955191  0.23256112  1
  Hf  Hf24  1  0.78356411  0.39719745  0.73453466  1
  Hf  Hf25  1  0.67899911  0.31403045  0.11958587  1
  Hf  Hf26  1  -0.00127293  0.79698685  0.76000240  1
  Hf  Hf27  1  0.60284767  0.60612919  0.49167245  1
  Hf  Hf28  1  0.09855136  0.10923613  0.37766281  1
  Hf  Hf29  1  0.41748259  0.39117909  0.01986556  1
  Hf  Hf30  1  0.70130203  0.71440783  0.35737037  1
  Hf  Hf31  1  0.21775670  0.80521784  0.75121387  1
  Hf  Hf32  1  0.61646552  0.81742403  0.01202762  1
  Hf  Hf33  1  0.39051594  0.81825725  0.23624867  1
  Hf  Hf34  1  0.09146406  0.29567407  0.10951566  1
  Hf  Hf35  1  0.71373714  0.70456912  0.88582068  1
  Hf  Hf36  1  0.71300973  0.69512196  0.12856620  1
  Hf  Hf37  1  0.01286886  0.80659200  -0.01162675  1
  Hf  Hf38  1  0.08375192  0.49497453  0.12460586  1
  Hf  Hf39  1  0.19535722  0.19180350  0.24533488  1
  Zr  Zr40  1  0.80300854  0.01635390  0.23612932  1
  Zr  Zr41  1  0.88510142  0.32075489  0.11533060  1
  Zr  Zr42  1  0.30003837  0.88801883  0.38608853  1
  Zr  Zr43  1  0.49032091  0.88395081  0.88128041  1
  Zr  Zr44  1  0.09324080  0.49259707  0.63875398  1
  Zr  Zr45  1  0.29292691  0.70190364  0.11509597  1
  Zr  Zr46  1  -0.00445047  0.80379079  0.49437291  1
  Zr  Zr47  1  0.88477721  0.10956253  0.38237955  1
  Zr  Zr48  1  0.80312373  0.61280535  0.49131155  1
  Zr  Zr49  1  0.49814906  0.10205920  0.62685854  1
  Zr  Zr50  1  0.40791571  0.78143294  0.73923454  1
  Zr  Zr51  1  0.79977843  0.21389886  0.51688574  1
  Zr  Zr52  1  0.60703130  0.21700741  0.75758400  1
  Zr  Zr53  1  0.28692927  0.29305664  0.88431946  1
  Zr  Zr54  1  0.91188968  0.09465021  0.62791879  1
  Zr  Zr55  1  0.90106286  0.69560305  0.63212797  1
  Zr  Zr56  1  0.40391128  0.58596021  0.22963796  1
  Zr  Zr57  1  0.71575506  0.11762727  0.87445550  1
  Zr  Zr58  1  0.19469311  -0.01357686  -0.00948921  1
  Zr  Zr59  1  -0.01532255  0.41169235  0.76556808  1
  Zr  Zr60  1  0.50392926  0.69772990  0.35806487  1
  Zr  Zr61  1  -0.00629180  0.59938293  -0.01167274  1
  Zr  Zr62  1  -0.01583884  0.20329098  0.24385876  1
  Zr  Zr63  1  0.30335820  0.69000666  0.36854157  1
  Zr  Zr64  1  0.10023970  0.69539728  0.63356988  1
  Zr  Zr65  1  0.08483531  0.29724418  0.89212637  1
  Zr  Zr66  1  0.39350004  0.38585825  0.49363480  1
  Zr  Zr67  1  0.21395726  0.59929923  0.75667338  1
  Zr  Zr68  1  0.80127883  0.40972973  0.51360759  1
  Zr  Zr69  1  0.79107887  -0.00220965  0.49871586  1
  Zr  Zr70  1  -0.00113948  0.00204868  -0.01061342  1
  Zr  Zr71  1  0.09332475  0.91445914  0.63586168  1
  Zr  Zr72  1  0.39377750  0.19004043  0.76140233  1
  Zr  Zr73  1  0.88105032  0.89957809  0.86593398  1
  Zr  Zr74  1  0.40510579  0.78745612  0.51308211  1
  Zr  Zr75  1  0.69479660  0.90085386  0.63271147  1
  Zr  Zr76  1  0.29960118  0.06961516  0.12623668  1
  Zr  Zr77  1  0.51259141  0.68775074  0.89140202  1
  Zr  Zr78  1  0.20945011  0.59104342  0.50652476  1
  Zr  Zr79  1  0.41059684  0.37970176  0.23549956  1
  Ta  Ta80  1  0.70724608  0.71095316  0.62594446  1
  Ta  Ta81  1  0.48622565  0.30870925  0.63348719  1
  Ta  Ta82  1  0.69642283  0.92074851  0.37144100  1
  Ta  Ta83  1  0.52261737  0.69474851  0.62640705  1
  Ta  Ta84  1  0.00321434  0.58911676  0.49507089  1
  Ta  Ta85  1  0.41010213  -0.00291955  0.50476927  1
  Ta  Ta86  1  0.11530650  0.88724571  0.13012489  1
  Ta  Ta87  1  0.90534802  0.10909826  0.86035535  1
  Ta  Ta88  1  0.91334892  0.30944649  0.37663809  1
  Ta  Ta89  1  0.09951230  0.10150748  0.85340700  1
  Ta  Ta90  1  0.11509349  0.11327994  0.63281788  1
  Ta  Ta91  1  0.30990961  0.47989355  0.63767054  1
  Ta  Ta92  1  0.87218446  0.29796756  0.88585668  1
  Ta  Ta93  1  0.81065690  0.60415946  0.24954588  1
  Ta  Ta94  1  0.62467232  0.57641108  0.01335547  1
  Ta  Ta95  1  0.59220971  0.00147438  0.77438166  1
  Ta  Ta96  1  0.70252416  0.29868841  0.37552288  1
  Ta  Ta97  1  0.01558474  0.80580089  0.26119425  1
  Ta  Ta98  1  0.30133380  0.49148723  0.36159999  1
  Ta  Ta99  1  0.19984096  0.79166591  0.51410608  1
  Ta  Ta100  1  0.28859384  0.28334610  0.63185671  1
  Ta  Ta101  1  0.42036925  0.58482213  0.73988404  1
  Ta  Ta102  1  0.31975408  0.69844357  0.88959532  1
  Ta  Ta103  1  0.48995760  0.31284364  0.86621494  1
  Ta  Ta104  1  0.10540974  0.69659424  0.37724427  1
  Ta  Ta105  1  0.18651278  0.17698540  -0.00022841  1
  Ta  Ta106  1  0.50692134  0.90340089  0.63065290  1
  Ta  Ta107  1  0.81706394  0.80478039  0.01725023  1
  Ta  Ta108  1  0.58677358  0.42174785  0.73737661  1
  Ta  Ta109  1  0.89284374  0.89669390  0.63609378  1
  Ta  Ta110  1  0.20241586  0.59494155  -0.00941583  1
  Ta  Ta111  1  0.60562754  0.81277398  0.49484776  1
  Ta  Ta112  1  0.20753294  0.19671444  0.50079968  1
  Ta  Ta113  1  0.50200680  0.48589107  0.35965077  1
  Ta  Ta114  1  0.39376232  -0.01433514  0.75537650  1
  Ta  Ta115  1  0.78416467  0.21209993  0.24753978  1
  Ta  Ta116  1  -0.00245313  0.00183289  0.49153380  1
  Ta  Ta117  1  0.59588076  0.00979942  -0.01564309  1
  Ta  Ta118  1  0.50207212  0.90649360  0.37448838  1
  Ta  Ta119  1  0.19658316  0.59319585  0.24882050  1
  Ti  Ti120  1  0.80526279  0.21116839  0.73262613  1
  Ti  Ti121  1  0.10749919  0.91189152  0.85378868  1
  Ti  Ti122  1  0.39225901  -0.01060791  -0.01518790  1
  Ti  Ti123  1  0.51490492  0.09585904  0.38644697  1
  Ti  Ti124  1  0.10082655  0.50138378  0.87247754  1
  Ti  Ti125  1  0.40140349  0.19529440  0.49678002  1
  Ti  Ti126  1  0.69919145  0.11627634  0.11078191  1
  Ti  Ti127  1  -0.02126300  0.19080592  0.00086965  1
  Ti  Ti128  1  -0.02258646  0.41049991  -0.01059667  1
  Ti  Ti129  1  0.29000131  0.08143086  0.86679530  1
  Ti  Ti130  1  0.40568107  0.58644082  0.01571517  1
  Ti  Ti131  1  0.69057809  0.33929461  0.88281591  1
  Ti  Ti132  1  0.30133009  0.09131674  0.62888568  1
  Ti  Ti133  1  0.86812586  0.50385786  0.87704109  1
  Ti  Ti134  1  0.19483546  0.40252539  0.00026409  1
  Ti  Ti135  1  0.28543746  0.49281132  0.12218051  1
  Ti  Ti136  1  0.39312516  0.18353185  -0.01793407  1
  Ti  Ti137  1  0.48840756  0.91617967  0.11188796  1
  Ti  Ti138  1  0.00426068  0.60304185  0.25183323  1
  Ti  Ti139  1  0.19109051  0.39108960  0.24231722  1
  Ti  Ti140  1  0.92269331  0.91195041  0.12583855  1
  Ti  Ti141  1  0.01336191  0.22080980  0.51202526  1
  Ti  Ti142  1  0.59767619  0.20314642  0.50000938  1
  Ti  Ti143  1  0.79598521  0.60431582  0.75027927  1
  Ti  Ti144  1  0.79429857  0.00096247  0.75214270  1
  Ti  Ti145  1  0.90658797  0.70501067  0.36994961  1
  Ti  Ti146  1  0.19607050  0.38437134  0.75376192  1
  Ti  Ti147  1  0.61284658  0.80043480  0.75910581  1
  Ti  Ti148  1  -0.00580892  -0.01173641  0.27231590  1
  Ti  Ti149  1  0.68880129  0.52153213  0.62845715  1
  Ti  Ti150  1  0.59293483  0.21356268  0.25701915  1
  Ti  Ti151  1  0.11098979  0.69808893  0.87166654  1
  Ti  Ti152  1  0.91260310  0.69789174  0.12765535  1
  Ti  Ti153  1  0.90206866  0.50725926  0.62949519  1
  Ti  Ti154  1  0.71807565  0.49489762  0.14409095  1
  Ti  Ti155  1  0.89961806  0.69596618  0.87268820  1
  Ti  Ti156  1  0.30445680  0.90025995  0.62131303  1
  Ti  Ti157  1  0.80017771  0.80780247  0.49036862  1
  Ti  Ti158  1  0.21260146  0.80177009  -0.01427432  1
  Ti  Ti159  1  0.31094658  0.08625426  0.37907161  1
  Mo  Mo160  1  0.80668479  0.39184865  0.25552804  1
  Mo  Mo161  1  0.53024270  0.48837962  0.13595622  1
  Mo  Mo162  1  0.79589252  0.21013543  -0.00095556  1
  Mo  Mo163  1  -0.00544205  0.59938245  0.77503265  1
  Mo  Mo164  1  0.78692314  0.42637942  -0.00173119  1
  Mo  Mo165  1  0.89137685  0.11099406  0.12302073  1
  Mo  Mo166  1  0.31009367  0.69032858  0.62398728  1
  Mo  Mo167  1  0.19998225  0.19938955  0.75304876  1
  Mo  Mo168  1  0.80854112  0.60464628  0.00723411  1
  Mo  Mo169  1  0.50875912  0.28600273  0.38106460  1
  Mo  Mo170  1  0.90536574  0.31427525  0.62179297  1
  Mo  Mo171  1  0.09609392  0.89402276  0.38773280  1
  Mo  Mo172  1  0.68726822  0.11564085  0.37411730  1
  Mo  Mo173  1  0.68311152  0.30226051  0.62790633  1
  Mo  Mo174  1  0.49824845  0.28582347  0.12349896  1
  Mo  Mo175  1  0.70373614  0.91164493  0.11979238  1
  Mo  Mo176  1  0.79564565  0.79774564  0.75175019  1
  Mo  Mo177  1  0.00181836  0.39942586  0.24546357  1
  Mo  Mo178  1  0.19290915  0.78553096  0.25392376  1
  Mo  Mo179  1  0.89509724  0.51343841  0.13548811  1
  Mo  Mo180  1  0.09464311  0.29575323  0.37389286  1
  Mo  Mo181  1  -0.00611826  0.40087240  0.50691352  1
  Mo  Mo182  1  0.29869098  0.89451885  0.11974864  1
  Mo  Mo183  1  0.69793470  0.90494551  0.87488929  1
  Mo  Mo184  1  0.10232441  0.30014674  0.62858929  1
  Mo  Mo185  1  0.49041019  0.09909725  0.87747439  1
  Mo  Mo186  1  0.29797910  0.88864830  0.86976786  1
  Mo  Mo187  1  0.40090049  0.80110003  0.01095853  1
  Mo  Mo188  1  0.60821326  0.61251299  0.74719690  1
  Mo  Mo189  1  0.20970688  0.00506812  0.74372288  1
  Mo  Mo190  1  0.69719936  0.51470201  0.86634838  1
  Mo  Mo191  1  0.60441781  0.59523989  0.23949139  1
  Mo  Mo192  1  0.59969760  0.40604047  0.00121434  1
  Mo  Mo193  1  -0.00527685  0.00669428  0.75112131  1
  Mo  Mo194  1  0.41098464  -0.00434928  0.25586456  1
  Mo  Mo195  1  0.89604806  0.89945419  0.37350128  1
  Mo  Mo196  1  0.50169695  0.50043852  0.62128730  1
  Mo  Mo197  1  0.59364375  0.00172501  0.49746155  1
  Mo  Mo198  1  0.60576935  0.39132115  0.25750896  1
  Mo  Mo199  1  0.39434310  0.39627901  0.74994950  1
