# generated using pymatgen
data_HfZrTaTiMo
_symmetry_space_group_name_H-M   'P 1'
_cell_length_a   15.21390194
_cell_length_b   15.20865777
_cell_length_c   16.85045496
_cell_angle_alpha   89.96033966
_cell_angle_beta   90.00296202
_cell_angle_gamma   89.95440991
_symmetry_Int_Tables_number   1
_chemical_formula_structural   HfZrTaTiMo
_chemical_formula_sum   'Hf40 Zr40 Ta40 Ti40 Mo40'
_cell_volume   3898.90711654
_cell_formula_units_Z   40
loop_
 _symmetry_equiv_pos_site_id
 _symmetry_equiv_pos_as_xyz
  1  'x, y, z'
loop_
 _atom_site_type_symbol
 _atom_site_label
 _atom_site_symmetry_multiplicity
 _atom_site_fract_x
 _atom_site_fract_y
 _atom_site_fract_z
 _atom_site_occupancy
  Hf  Hf0  1  0.10746580  0.52231900  0.12049712  1
  Hf  Hf1  1  0.21148238  0.41170310  0.00180186  1
  Hf  Hf2  1  0.02044772  0.19292240  0.49788144  1
  Hf  Hf3  1  0.50026282  0.49491036  0.86540581  1
  Hf  Hf4  1  0.49895062  0.90655364  0.88093681  1
  Hf  Hf5  1  0.70388669  0.10763267  0.88081472  1
  Hf  Hf6  1  0.50461833  0.29356877  0.87785828  1
  Hf  Hf7  1  0.70686722  0.68609647  0.38350692  1
  Hf  Hf8  1  0.89829543  0.49301598  0.63718489  1
  Hf  Hf9  1  0.10182394  0.49956506  0.37562261  1
  Hf  Hf10  1  -0.00353573  0.61685469  -0.01506320  1
  Hf  Hf11  1  0.39080448  0.59245392  -0.00171953  1
  Hf  Hf12  1  0.09371257  0.90657782  0.37142766  1
  Hf  Hf13  1  0.70566433  0.90701047  0.88041055  1
  Hf  Hf14  1  0.27118345  0.69532877  0.11898877  1
  Hf  Hf15  1  0.31564701  0.50445785  0.37763522  1
  Hf  Hf16  1  0.38364772  0.79734127  -0.00312919  1
  Hf  Hf17  1  0.70523850  0.49473932  0.12073269  1
  Hf  Hf18  1  0.30166009  0.89153190  0.37208987  1
  Hf  Hf19  1  0.09084066  0.50885886  0.63161502  1
  Hf  Hf20  1  0.20148546  -0.00660685  0.75997465  1
  Hf  Hf21  1  0.49847678  0.30047550  0.62380308  1
  Hf  Hf22  1  -0.00099178  0.19480852  0.74756150  1
  Hf  Hf23  1  0.80870079  -0.00424054  0.49736253  1
  Hf  Hf24  1  0.18920796  0.80402735  0.50266830  1
  Hf  Hf25  1  0.27926763  0.10413944  0.35157799  1
  Hf  Hf26  1  -0.00386464  0.77973560  0.73999274  1
  Hf  Hf27  1  0.40726236  -0.01739790  0.24895401  1
  Hf  Hf28  1  0.09840551  0.88325646  0.12165577  1
  Hf  Hf29  1  0.20180614  0.20093243  0.00798024  1
  Hf  Hf30  1  0.20957476  0.40493204  0.23899493  1
  Hf  Hf31  1  0.60357744  0.00167452  0.74058217  1
  Hf  Hf32  1  0.19137566  0.02153812  0.49491552  1
  Hf  Hf33  1  0.19782466  0.38284890  0.49828401  1
  Hf  Hf34  1  0.29865694  0.10545738  0.62429905  1
  Hf  Hf35  1  -0.00867649  0.20299211  0.01272472  1
  Hf  Hf36  1  0.90194169  0.51691185  0.38686475  1
  Hf  Hf37  1  0.30303576  0.30125161  0.36247524  1
  Hf  Hf38  1  -0.00604603  0.20906370  0.24351928  1
  Hf  Hf39  1  0.89763645  0.29529221  0.86922465  1
  Zr  Zr40  1  0.39333005  0.79710387  0.76182499  1
  Zr  Zr41  1  0.09667157  0.31084625  0.12195243  1
  Zr  Zr42  1  0.80351679  0.60319619  0.24833464  1
  Zr  Zr43  1  0.60182711  0.60442788  -0.01121841  1
  Zr  Zr44  1  0.30715182  0.30422606  0.87663956  1
  Zr  Zr45  1  0.31014314  0.09473940  0.88643293  1
  Zr  Zr46  1  0.92040389  0.08830416  0.37269822  1
  Zr  Zr47  1  0.19255131  0.60083597  0.50244126  1
  Zr  Zr48  1  0.09319807  0.09977325  0.88152736  1
  Zr  Zr49  1  0.61798177  0.39572912  -0.00551762  1
  Zr  Zr50  1  0.38859926  0.21108611  0.49432573  1
  Zr  Zr51  1  0.50143093  0.09811938  0.60759865  1
  Zr  Zr52  1  0.79889366  0.58808049  -0.02464671  1
  Zr  Zr53  1  0.79832355  0.21132762  0.00881807  1
  Zr  Zr54  1  0.48701164  0.69753905  0.38217400  1
  Zr  Zr55  1  0.80356032  0.40270798  0.26511236  1
  Zr  Zr56  1  0.32097981  0.69505678  0.61752887  1
  Zr  Zr57  1  0.49931886  0.88456603  0.61822675  1
  Zr  Zr58  1  0.40329946  -0.00704609  0.02098429  1
  Zr  Zr59  1  0.51313286  0.09783772  0.13187297  1
  Zr  Zr60  1  0.50710098  0.10063526  0.89021564  1
  Zr  Zr61  1  0.70680779  0.10296051  0.14246982  1
  Zr  Zr62  1  0.59859452  0.59564068  0.24624099  1
  Zr  Zr63  1  0.30120547  0.90372771  0.61675224  1
  Zr  Zr64  1  0.59555125  0.79721501  0.24785815  1
  Zr  Zr65  1  0.00112048  0.62595127  0.24314428  1
  Zr  Zr66  1  0.60241491  -0.00659691  0.26749908  1
  Zr  Zr67  1  0.59328863  0.40783873  0.50021178  1
  Zr  Zr68  1  0.49295737  0.52022254  0.64146247  1
  Zr  Zr69  1  0.29176255  0.09975843  0.13993012  1
  Zr  Zr70  1  0.80438182  0.79374772  0.51175652  1
  Zr  Zr71  1  0.60160105  -0.00388830  0.48529445  1
  Zr  Zr72  1  -0.00908290  -0.00919975  0.00117872  1
  Zr  Zr73  1  0.20285621  0.20471751  0.75812218  1
  Zr  Zr74  1  0.49852322  0.12100356  0.37142688  1
  Zr  Zr75  1  0.69309813  0.90150062  0.11621536  1
  Zr  Zr76  1  0.60194826  0.19926394  0.74534776  1
  Zr  Zr77  1  0.71595546  0.11523660  0.37204564  1
  Zr  Zr78  1  0.29565436  0.49396924  0.63841631  1
  Zr  Zr79  1  0.70042147  0.50408052  0.63814366  1
  Ta  Ta80  1  0.70877321  0.10946001  0.60653454  1
  Ta  Ta81  1  0.20204559  0.60597917  0.25779622  1
  Ta  Ta82  1  0.40423473  0.21313441  0.02243801  1
  Ta  Ta83  1  0.60325302  0.79771709  0.75511958  1
  Ta  Ta84  1  0.30028431  0.50528781  0.85887432  1
  Ta  Ta85  1  0.40171546  0.00265025  0.75192700  1
  Ta  Ta86  1  0.09244736  0.31330502  0.88225445  1
  Ta  Ta87  1  0.90684725  0.48750749  0.85473668  1
  Ta  Ta88  1  0.80134234  0.00490129  0.74031386  1
  Ta  Ta89  1  0.19313345  0.61385713  0.76002771  1
  Ta  Ta90  1  0.08411975  0.88880883  0.87185840  1
  Ta  Ta91  1  -0.00145034  0.41031779  0.25236081  1
  Ta  Ta92  1  0.69156173  0.30379799  0.37027141  1
  Ta  Ta93  1  0.50078652  0.50028847  0.12151108  1
  Ta  Ta94  1  0.69323085  0.70392654  0.63182969  1
  Ta  Ta95  1  0.81184985  -0.01728073  0.25669575  1
  Ta  Ta96  1  0.00328822  -0.01827811  0.51020112  1
  Ta  Ta97  1  0.09837077  0.89972913  0.63202000  1
  Ta  Ta98  1  0.89456877  0.88122840  0.12576907  1
  Ta  Ta99  1  0.39068569  0.78684632  0.24067106  1
  Ta  Ta100  1  0.18150466  0.79058139  0.25548281  1
  Ta  Ta101  1  0.89809537  0.09314569  0.13799022  1
  Ta  Ta102  1  0.90458042  0.09640803  0.61923150  1
  Ta  Ta103  1  0.80024128  0.19634850  0.74118521  1
  Ta  Ta104  1  0.19509971  0.60520972  -0.02529870  1
  Ta  Ta105  1  0.70746807  0.29934830  0.61868819  1
  Ta  Ta106  1  0.39355450  0.59905417  0.23652035  1
  Ta  Ta107  1  0.09970064  0.09012109  0.13423552  1
  Ta  Ta108  1  0.80320401  0.61267529  0.76297824  1
  Ta  Ta109  1  0.89895981  0.29536945  0.38397682  1
  Ta  Ta110  1  0.79648230  0.39823706  0.49242235  1
  Ta  Ta111  1  0.89996705  0.29490091  0.61696512  1
  Ta  Ta112  1  0.70809423  0.88740179  0.37507500  1
  Ta  Ta113  1  0.09674025  0.30384166  0.62864579  1
  Ta  Ta114  1  0.90461711  0.49646718  0.12007750  1
  Ta  Ta115  1  0.29255066  0.69836979  0.37925332  1
  Ta  Ta116  1  0.71494668  0.70431432  0.11377258  1
  Ta  Ta117  1  0.81486053  0.79467128  -0.01606614  1
  Ta  Ta118  1  0.70571021  0.30071831  0.14693926  1
  Ta  Ta119  1  0.89934193  0.89742000  0.63283788  1
  Ti  Ti120  1  0.07807685  0.70284432  0.38291524  1
  Ti  Ti121  1  0.90552613  0.87718279  0.37863217  1
  Ti  Ti122  1  0.60239527  0.61301768  0.76431644  1
  Ti  Ti123  1  0.79620141  0.80385180  0.75382159  1
  Ti  Ti124  1  -0.00140979  0.40221664  0.49818690  1
  Ti  Ti125  1  0.80465124  0.59992055  0.51296453  1
  Ti  Ti126  1  0.20109688  -0.01497172  -0.00546562  1
  Ti  Ti127  1  0.19785074  0.79945184  0.75586537  1
  Ti  Ti128  1  -0.00267283  0.77697222  0.52473825  1
  Ti  Ti129  1  0.29064355  0.89335115  0.13468479  1
  Ti  Ti130  1  0.89402911  0.08863032  0.87205077  1
  Ti  Ti131  1  0.40168131  0.21540787  0.23550999  1
  Ti  Ti132  1  0.51597997  0.30878205  0.13255218  1
  Ti  Ti133  1  0.18441516  0.40454583  0.75921206  1
  Ti  Ti134  1  0.39901484  0.39234789  0.74885963  1
  Ti  Ti135  1  0.39898310  0.41184185  0.50570503  1
  Ti  Ti136  1  0.59740916  0.60197909  0.50653231  1
  Ti  Ti137  1  0.18245225  0.79275282  -0.01827865  1
  Ti  Ti138  1  0.49603643  0.70128717  0.87719015  1
  Ti  Ti139  1  0.59962951  0.80342172  -0.00209405  1
  Ti  Ti140  1  0.80887367  0.79059693  0.25105213  1
  Ti  Ti141  1  0.40573693  0.39933040  0.00976545  1
  Ti  Ti142  1  -0.00572491  -0.00761179  0.74929848  1
  Ti  Ti143  1  0.70076063  0.90188703  0.62384806  1
  Ti  Ti144  1  0.50126564  0.70472987  0.11662500  1
  Ti  Ti145  1  0.60379704  0.19974265  0.01123263  1
  Ti  Ti146  1  0.41105805  0.40995745  0.23837259  1
  Ti  Ti147  1  -0.00828250  0.41097602  -0.00267855  1
  Ti  Ti148  1  0.80158487  0.00093327  0.00508576  1
  Ti  Ti149  1  0.29227875  0.29889083  0.63042814  1
  Ti  Ti150  1  0.40015357  -0.00629026  0.48360730  1
  Ti  Ti151  1  0.50159514  0.31307672  0.36575695  1
  Ti  Ti152  1  0.50977576  0.50173462  0.37237973  1
  Ti  Ti153  1  0.59690923  0.79606215  0.49823423  1
  Ti  Ti154  1  0.40371077  0.19409035  0.74887896  1
  Ti  Ti155  1  0.00297745  -0.01268186  0.24240696  1
  Ti  Ti156  1  0.10461605  0.28776324  0.36415356  1
  Ti  Ti157  1  0.71015115  0.31182299  0.86685271  1
  Ti  Ti158  1  0.60796644  0.39770057  0.75052973  1
  Ti  Ti159  1  0.10087969  0.09806108  0.63103237  1
  Mo  Mo160  1  0.29765581  0.70202625  0.87413004  1
  Mo  Mo161  1  0.89645960  0.70872243  0.86481977  1
  Mo  Mo162  1  0.40032041  0.60322367  0.76386954  1
  Mo  Mo163  1  0.10533871  0.70131530  0.63132086  1
  Mo  Mo164  1  0.19270586  -0.01134965  0.24503152  1
  Mo  Mo165  1  -0.00693316  0.80093248  -0.00934264  1
  Mo  Mo166  1  0.59595189  0.40473086  0.25272638  1
  Mo  Mo167  1  0.40920719  0.59369375  0.49742518  1
  Mo  Mo168  1  0.49631021  0.89022004  0.38335062  1
  Mo  Mo169  1  0.69236076  0.71079702  0.87091713  1
  Mo  Mo170  1  0.51336557  0.69928466  0.62691250  1
  Mo  Mo171  1  0.61375241  0.21656874  0.49868331  1
  Mo  Mo172  1  0.80628437  0.20058660  0.25282252  1
  Mo  Mo173  1  0.81262981  0.39800612  -0.00034869  1
  Mo  Mo174  1  0.89354446  0.70136305  0.11548703  1
  Mo  Mo175  1  0.09341229  0.70674066  0.11801575  1
  Mo  Mo176  1  0.81093402  0.20658269  0.50210727  1
  Mo  Mo177  1  0.00270484  0.59211052  0.76451155  1
  Mo  Mo178  1  -0.01281624  0.80669420  0.25173970  1
  Mo  Mo179  1  0.90166204  0.70605879  0.38466284  1
  Mo  Mo180  1  0.89742168  0.90731935  0.85912472  1
  Mo  Mo181  1  0.59621148  0.21549374  0.25247103  1
  Mo  Mo182  1  0.70656242  0.49255109  0.85188195  1
  Mo  Mo183  1  0.30569934  0.50474055  0.12295581  1
  Mo  Mo184  1  0.31510439  0.30731630  0.12815999  1
  Mo  Mo185  1  0.09865961  0.49485125  0.87114891  1
  Mo  Mo186  1  0.09718366  0.09981162  0.35741899  1
  Mo  Mo187  1  0.89452433  0.31414301  0.12782511  1
  Mo  Mo188  1  0.89171622  0.68602646  0.63678358  1
  Mo  Mo189  1  0.00333307  0.38773352  0.74730923  1
  Mo  Mo190  1  0.49240391  0.88375302  0.12057214  1
  Mo  Mo191  1  -0.00740388  0.60436975  0.50751230  1
  Mo  Mo192  1  0.61000231  -0.00052497  0.00446559  1
  Mo  Mo193  1  0.40198145  0.79808367  0.49370389  1
  Mo  Mo194  1  0.09678942  0.70103345  0.86687899  1
  Mo  Mo195  1  0.19424186  0.20518544  0.50175731  1
  Mo  Mo196  1  0.28712075  0.90152572  0.87872288  1
  Mo  Mo197  1  0.69693326  0.49933817  0.38916092  1
  Mo  Mo198  1  0.79868967  0.38963150  0.74522033  1
  Mo  Mo199  1  0.19398457  0.20513793  0.23644345  1
