# generated using pymatgen
data_HfZrTaTiMo
_symmetry_space_group_name_H-M   'P 1'
_cell_length_a   15.21426402
_cell_length_b   15.21033449
_cell_length_c   16.85053906
_cell_angle_alpha   89.96323662
_cell_angle_beta   90.04289115
_cell_angle_gamma   90.05546637
_symmetry_Int_Tables_number   1
_chemical_formula_structural   HfZrTaTiMo
_chemical_formula_sum   'Hf40 Zr40 Ta40 Ti40 Mo40'
_cell_volume   3899.44767817
_cell_formula_units_Z   40
loop_
 _symmetry_equiv_pos_site_id
 _symmetry_equiv_pos_as_xyz
  1  'x, y, z'
loop_
 _atom_site_type_symbol
 _atom_site_label
 _atom_site_symmetry_multiplicity
 _atom_site_fract_x
 _atom_site_fract_y
 _atom_site_fract_z
 _atom_site_occupancy
  Hf  Hf0  1  0.01885148  0.59482678  0.00399797  1
  Hf  Hf1  1  -0.00577250  0.20200251  0.75600113  1
  Hf  Hf2  1  0.38835840  0.21042326  -0.00062416  1
  Hf  Hf3  1  0.28540530  0.89533008  0.86814944  1
  Hf  Hf4  1  -0.00191444  0.60100947  0.47947433  1
  Hf  Hf5  1  0.30043782  0.30074304  0.13170737  1
  Hf  Hf6  1  0.29339840  0.69762546  0.14542746  1
  Hf  Hf7  1  0.30822931  0.69917518  0.37050517  1
  Hf  Hf8  1  0.60248007  0.81648855  0.24806979  1
  Hf  Hf9  1  0.29175533  0.50077721  0.12410158  1
  Hf  Hf10  1  0.61185899  0.40989832  0.50445512  1
  Hf  Hf11  1  0.28225069  0.09605577  0.12346091  1
  Hf  Hf12  1  0.39308558  0.80030401  -0.00467854  1
  Hf  Hf13  1  0.28284182  0.09376503  0.37639953  1
  Hf  Hf14  1  0.41179776  0.80183900  0.25814214  1
  Hf  Hf15  1  0.71049554  0.68899921  0.14717575  1
  Hf  Hf16  1  0.60779666  0.20122988  -0.00400383  1
  Hf  Hf17  1  -0.00492993  0.80000743  0.00752412  1
  Hf  Hf18  1  0.38854990  0.60087602  -0.00429883  1
  Hf  Hf19  1  0.51344691  0.30370138  0.37543281  1
  Hf  Hf20  1  0.09114157  0.30580720  0.87798580  1
  Hf  Hf21  1  0.50474678  0.10045460  0.11636477  1
  Hf  Hf22  1  0.19151416  0.58000279  0.26774694  1
  Hf  Hf23  1  0.19479221  0.78056315  0.00388667  1
  Hf  Hf24  1  0.50007371  0.69403809  0.12688628  1
  Hf  Hf25  1  0.50954315  0.91278525  0.88204762  1
  Hf  Hf26  1  0.61442062  0.60038566  -0.00441277  1
  Hf  Hf27  1  0.29726646  0.90107886  0.37196737  1
  Hf  Hf28  1  0.49394436  0.10668907  0.86966868  1
  Hf  Hf29  1  0.50005793  0.08943683  0.38758850  1
  Hf  Hf30  1  0.19535005  0.80841199  0.50342393  1
  Hf  Hf31  1  0.19771325  0.40301803  0.74885282  1
  Hf  Hf32  1  0.72936480  0.70723033  0.63245099  1
  Hf  Hf33  1  0.09670425  0.29526793  0.62303392  1
  Hf  Hf34  1  0.61613569  0.82268941  0.75377178  1
  Hf  Hf35  1  0.40857357  0.40408033  0.50023027  1
  Hf  Hf36  1  0.79174622  0.19939908  0.24235197  1
  Hf  Hf37  1  0.81428485  0.61250407  0.00714720  1
  Hf  Hf38  1  -0.00761397  0.18570392  0.00330003  1
  Hf  Hf39  1  0.00788937  0.59417887  0.73959969  1
  Zr  Zr40  1  0.08455868  0.68790869  0.15173579  1
  Zr  Zr41  1  0.90029857  0.69394282  0.86744797  1
  Zr  Zr42  1  0.61319597  0.60724071  0.75273038  1
  Zr  Zr43  1  0.61038227  0.20569684  0.51097800  1
  Zr  Zr44  1  0.89328807  0.70204365  0.34453906  1
  Zr  Zr45  1  0.10670058  0.70826989  0.86149449  1
  Zr  Zr46  1  0.30644330  0.48052577  0.88110530  1
  Zr  Zr47  1  0.60520495  0.01331427  0.25773969  1
  Zr  Zr48  1  0.10296930  0.28834298  0.12867501  1
  Zr  Zr49  1  0.61060215  0.41628939  0.24535771  1
  Zr  Zr50  1  -0.00102455  0.17873803  0.50120693  1
  Zr  Zr51  1  0.68678844  0.70738940  0.36190824  1
  Zr  Zr52  1  0.49416468  0.70828336  0.86564856  1
  Zr  Zr53  1  0.72463134  0.50749779  0.86197212  1
  Zr  Zr54  1  0.80191376  0.59478915  0.48847654  1
  Zr  Zr55  1  0.60091579  0.61120506  0.50663793  1
  Zr  Zr56  1  0.48816361  0.30782997  0.87656203  1
  Zr  Zr57  1  0.80451454  0.40632422  0.00593467  1
  Zr  Zr58  1  0.29484586  0.90064265  0.12945490  1
  Zr  Zr59  1  0.61632097  0.80014733  -0.00224607  1
  Zr  Zr60  1  0.10832223  0.50058789  0.61049370  1
  Zr  Zr61  1  0.39693244  0.19598527  0.50654307  1
  Zr  Zr62  1  0.90104059  0.49466562  0.62371739  1
  Zr  Zr63  1  0.38572251  -0.01394747  0.51865191  1
  Zr  Zr64  1  0.08777440  0.90518444  0.63065304  1
  Zr  Zr65  1  0.30083747  0.29283992  0.37597699  1
  Zr  Zr66  1  0.39309237  0.58759073  0.74567034  1
  Zr  Zr67  1  0.27745138  0.69728913  0.63625890  1
  Zr  Zr68  1  0.70852101  0.93519244  0.11348815  1
  Zr  Zr69  1  0.40742059  0.41597025  0.25521763  1
  Zr  Zr70  1  0.40426922  0.19350394  0.24983005  1
  Zr  Zr71  1  0.90647877  0.52094439  0.14615005  1
  Zr  Zr72  1  0.50769081  0.71207931  0.63433396  1
  Zr  Zr73  1  0.79272563  0.18890486  0.75036471  1
  Zr  Zr74  1  0.59411788  0.20413131  0.74400957  1
  Zr  Zr75  1  0.39889957  0.00006789  0.74098100  1
  Zr  Zr76  1  0.20057409  0.60081788  0.48688781  1
  Zr  Zr77  1  0.49885809  0.90706558  0.11150331  1
  Zr  Zr78  1  0.51014806  0.49690823  0.87475074  1
  Zr  Zr79  1  0.81615420  0.00571500  0.49393963  1
  Ta  Ta80  1  0.29503896  0.29959329  0.61950848  1
  Ta  Ta81  1  0.50359187  0.31021976  0.11870100  1
  Ta  Ta82  1  0.00207217  0.39866018  0.00978950  1
  Ta  Ta83  1  0.09490125  0.90111218  0.37068134  1
  Ta  Ta84  1  0.11022032  0.50653928  0.87431391  1
  Ta  Ta85  1  0.39987938  0.38095136  0.73978736  1
  Ta  Ta86  1  0.70489149  0.11148970  0.38301256  1
  Ta  Ta87  1  0.28157683  0.10318810  0.63301006  1
  Ta  Ta88  1  0.69222079  0.90434297  0.60778769  1
  Ta  Ta89  1  0.40481796  0.59992018  0.50790650  1
  Ta  Ta90  1  0.19729557  0.39973635  0.00139151  1
  Ta  Ta91  1  0.38463983  0.00877485  -0.00968821  1
  Ta  Ta92  1  0.89984993  0.29594670  0.62101449  1
  Ta  Ta93  1  0.70092994  0.30541753  0.12150940  1
  Ta  Ta94  1  0.71015004  0.49885712  0.63745401  1
  Ta  Ta95  1  0.19632691  0.39258210  0.26207172  1
  Ta  Ta96  1  0.70662158  0.30194641  0.87499661  1
  Ta  Ta97  1  0.91061730  0.08547380  0.63069493  1
  Ta  Ta98  1  0.18141738  -0.00064521  0.24737639  1
  Ta  Ta99  1  0.92248007  0.48119604  0.86842211  1
  Ta  Ta100  1  0.09740093  0.71292478  0.35839222  1
  Ta  Ta101  1  0.40318897  0.79228577  0.51040796  1
  Ta  Ta102  1  -0.00319919  0.39088698  0.48127490  1
  Ta  Ta103  1  0.09697172  0.28258588  0.36998517  1
  Ta  Ta104  1  0.90214430  0.30100907  0.13213344  1
  Ta  Ta105  1  0.80528076  0.40114161  0.25021843  1
  Ta  Ta106  1  0.81208052  0.01428702  0.25800197  1
  Ta  Ta107  1  0.50555523  0.49503375  0.63301040  1
  Ta  Ta108  1  -0.00781013  0.17653865  0.24154097  1
  Ta  Ta109  1  0.91457169  0.92282988  0.12271944  1
  Ta  Ta110  1  0.60847384  0.39647422  0.74488251  1
  Ta  Ta111  1  0.00688944  0.39748219  0.26172530  1
  Ta  Ta112  1  0.19412274  0.19241381  -0.00915801  1
  Ta  Ta113  1  0.80307049  0.79808356  0.49062144  1
  Ta  Ta114  1  0.50539027  0.09143017  0.62157782  1
  Ta  Ta115  1  0.79566097  -0.01723610  0.74645259  1
  Ta  Ta116  1  0.89975938  0.28752061  0.36748051  1
  Ta  Ta117  1  0.89237954  0.09054066  0.87814870  1
  Ta  Ta118  1  0.29080416  0.10402752  0.86805067  1
  Ta  Ta119  1  0.60949602  0.00757114  0.74312243  1
  Ti  Ti120  1  0.81834116  0.38955071  0.75382238  1
  Ti  Ti121  1  0.50325991  0.50401887  0.11812431  1
  Ti  Ti122  1  -0.01090166  0.80065102  0.74114406  1
  Ti  Ti123  1  -0.00575726  0.80024335  0.49720715  1
  Ti  Ti124  1  0.80636768  0.82484391  0.23998865  1
  Ti  Ti125  1  0.39056440  0.81062314  0.73791014  1
  Ti  Ti126  1  0.09543028  0.09125704  0.87301297  1
  Ti  Ti127  1  0.28890771  0.69041910  0.85662440  1
  Ti  Ti128  1  0.71753258  0.71832274  0.86781956  1
  Ti  Ti129  1  -0.01077523  -0.00141031  0.75578739  1
  Ti  Ti130  1  0.88803733  0.88671970  0.62041412  1
  Ti  Ti131  1  0.19822941  0.39313884  0.48666671  1
  Ti  Ti132  1  0.70208743  0.91037335  0.38534158  1
  Ti  Ti133  1  0.10085167  0.89720393  0.13120165  1
  Ti  Ti134  1  0.91011553  0.90728231  0.37013233  1
  Ti  Ti135  1  0.08161964  0.08711789  0.37330804  1
  Ti  Ti136  1  0.60168940  0.20650404  0.24462102  1
  Ti  Ti137  1  0.51010951  0.88885485  0.39773669  1
  Ti  Ti138  1  0.19074535  0.00001032  0.74695880  1
  Ti  Ti139  1  0.80664034  0.39745949  0.49230056  1
  Ti  Ti140  1  0.40128279  -0.00009325  0.25226019  1
  Ti  Ti141  1  0.18843069  0.19055413  0.25177939  1
  Ti  Ti142  1  0.19281123  0.19479625  0.50224834  1
  Ti  Ti143  1  0.18169430  -0.00426167  -0.00283515  1
  Ti  Ti144  1  0.20274023  0.20209696  0.75464743  1
  Ti  Ti145  1  0.80710146  0.20705964  0.50206679  1
  Ti  Ti146  1  0.70793510  0.30410834  0.37486061  1
  Ti  Ti147  1  0.69846241  0.08341546  0.88035678  1
  Ti  Ti148  1  0.30257424  0.49254460  0.61996237  1
  Ti  Ti149  1  0.60493532  0.40396689  0.00290618  1
  Ti  Ti150  1  0.88990151  0.89836845  0.87902066  1
  Ti  Ti151  1  0.31178171  0.49840956  0.37929726  1
  Ti  Ti152  1  0.69681845  0.50386852  0.37076454  1
  Ti  Ti153  1  0.80652993  0.80808747  0.01393718  1
  Ti  Ti154  1  0.70825012  0.09678368  0.61737802  1
  Ti  Ti155  1  0.49842505  0.29828461  0.62613940  1
  Ti  Ti156  1  0.17885884  0.00708635  0.50950637  1
  Ti  Ti157  1  0.80039597  0.20016611  0.00280641  1
  Ti  Ti158  1  0.08878803  0.90103831  0.86783382  1
  Ti  Ti159  1  0.71184785  0.30839960  0.62725538  1
  Mo  Mo160  1  0.29258478  0.89909003  0.63348896  1
  Mo  Mo161  1  -0.00531183  -0.00095383  0.24949354  1
  Mo  Mo162  1  0.89228696  0.29708055  0.88216375  1
  Mo  Mo163  1  0.89725293  0.10288340  0.37399655  1
  Mo  Mo164  1  0.00442487  -0.01425964  0.49962604  1
  Mo  Mo165  1  0.89387124  0.48646014  0.36616361  1
  Mo  Mo166  1  0.81060942  0.01146359  -0.00416117  1
  Mo  Mo167  1  0.19644134  0.59353056  0.00276123  1
  Mo  Mo168  1  0.89803528  0.71742824  0.14519965  1
  Mo  Mo169  1  0.69459130  0.49949019  0.12465231  1
  Mo  Mo170  1  0.20047703  0.59573145  0.74561588  1
  Mo  Mo171  1  0.38740613  0.20020914  0.73696002  1
  Mo  Mo172  1  0.40395448  0.40054267  0.01326118  1
  Mo  Mo173  1  0.08805573  0.07863832  0.11904122  1
  Mo  Mo174  1  0.81362663  0.59869221  0.74929902  1
  Mo  Mo175  1  0.09644294  0.10098468  0.63761610  1
  Mo  Mo176  1  0.19689561  0.80481540  0.25599485  1
  Mo  Mo177  1  0.50189901  0.52036639  0.37937223  1
  Mo  Mo178  1  0.60692144  0.80664476  0.50139205  1
  Mo  Mo179  1  0.71639672  0.90824801  0.88424128  1
  Mo  Mo180  1  0.57930802  0.60122313  0.25533015  1
  Mo  Mo181  1  0.60442319  0.00309896  0.50011967  1
  Mo  Mo182  1  0.70147368  0.11459678  0.12096856  1
  Mo  Mo183  1  0.91492040  0.70670341  0.61690140  1
  Mo  Mo184  1  0.59858979  0.01045201  -0.00944354  1
  Mo  Mo185  1  -0.00033930  0.39221361  0.74894538  1
  Mo  Mo186  1  -0.00257624  0.81381340  0.24460587  1
  Mo  Mo187  1  0.40629270  0.59564763  0.25476411  1
  Mo  Mo188  1  0.10266368  0.48520722  0.38621978  1
  Mo  Mo189  1  0.80851872  0.80736427  0.74795537  1
  Mo  Mo190  1  0.00237322  -0.00773630  -0.01187586  1
  Mo  Mo191  1  0.88881189  0.09833858  0.11690875  1
  Mo  Mo192  1  0.08330179  0.70626611  0.62145207  1
  Mo  Mo193  1  0.19321406  0.80792656  0.74653830  1
  Mo  Mo194  1  0.50374036  0.90128584  0.62111373  1
  Mo  Mo195  1  0.78325639  0.58351855  0.25820523  1
  Mo  Mo196  1  0.10025835  0.48188250  0.13209065  1
  Mo  Mo197  1  0.29019967  0.29031820  0.87516646  1
  Mo  Mo198  1  -0.00330242  0.58750591  0.27274084  1
  Mo  Mo199  1  0.49559668  0.70556747  0.38537715  1
