# generated using pymatgen
data_HfZrTaTiMo
_symmetry_space_group_name_H-M   'P 1'
_cell_length_a   15.20807475
_cell_length_b   15.22152384
_cell_length_c   16.87666348
_cell_angle_alpha   90.01527923
_cell_angle_beta   90.04520611
_cell_angle_gamma   90.10620074
_symmetry_Int_Tables_number   1
_chemical_formula_structural   HfZrTaTiMo
_chemical_formula_sum   'Hf40 Zr40 Ta40 Ti40 Mo40'
_cell_volume   3906.77198288
_cell_formula_units_Z   40
loop_
 _symmetry_equiv_pos_site_id
 _symmetry_equiv_pos_as_xyz
  1  'x, y, z'
loop_
 _atom_site_type_symbol
 _atom_site_label
 _atom_site_symmetry_multiplicity
 _atom_site_fract_x
 _atom_site_fract_y
 _atom_site_fract_z
 _atom_site_occupancy
  Hf  Hf0  1  0.20233477  0.80351847  0.48728423  1
  Hf  Hf1  1  0.30291593  0.50266386  0.13113344  1
  Hf  Hf2  1  0.10493022  0.71780055  0.14479942  1
  Hf  Hf3  1  0.00226047  0.80836830  0.49463934  1
  Hf  Hf4  1  0.07974132  0.08590570  0.88424728  1
  Hf  Hf5  1  0.51535090  0.49544894  0.12014874  1
  Hf  Hf6  1  0.30223186  0.29700022  0.88030819  1
  Hf  Hf7  1  0.69033337  0.90038135  0.37652806  1
  Hf  Hf8  1  0.39902077  0.79594205  0.75919223  1
  Hf  Hf9  1  0.50592649  0.69048996  0.62377455  1
  Hf  Hf10  1  0.60823558  0.00425606  0.74928488  1
  Hf  Hf11  1  0.19237800  0.39795183  0.74960937  1
  Hf  Hf12  1  0.69698768  0.31325506  0.39387803  1
  Hf  Hf13  1  0.30359658  0.11112865  0.36930687  1
  Hf  Hf14  1  0.49555716  0.89143303  0.36730652  1
  Hf  Hf15  1  0.92104452  0.90999872  0.14247050  1
  Hf  Hf16  1  0.10174338  0.90249683  0.35097358  1
  Hf  Hf17  1  0.31762272  0.49659971  0.37034388  1
  Hf  Hf18  1  0.80557729  0.60238939  0.50038080  1
  Hf  Hf19  1  0.20443253  0.40767768  0.00235568  1
  Hf  Hf20  1  0.20286837  0.60091663  0.48802240  1
  Hf  Hf21  1  0.39927152  0.37563570  0.50232243  1
  Hf  Hf22  1  0.19471747  0.18313185  0.00590657  1
  Hf  Hf23  1  0.40122415  0.00632697  0.24468014  1
  Hf  Hf24  1  0.89899831  0.49282044  0.62309842  1
  Hf  Hf25  1  0.88690818  0.29733140  0.87240275  1
  Hf  Hf26  1  0.10133888  0.50604874  0.88022392  1
  Hf  Hf27  1  0.89335726  0.90678989  0.36299535  1
  Hf  Hf28  1  0.09066918  0.29893269  0.11744051  1
  Hf  Hf29  1  0.50323567  0.90989114  0.88269809  1
  Hf  Hf30  1  0.40289033  0.39595964  0.74818575  1
  Hf  Hf31  1  0.50680716  0.48970489  0.88784781  1
  Hf  Hf32  1  0.49693395  0.88703867  0.12338883  1
  Hf  Hf33  1  0.91464718  0.90707163  0.87177952  1
  Hf  Hf34  1  0.78605122  0.21500440  0.25797117  1
  Hf  Hf35  1  0.62430295  0.40045250  0.24845715  1
  Hf  Hf36  1  0.88505238  0.32163095  0.12447522  1
  Hf  Hf37  1  0.69562597  0.09340532  0.38799383  1
  Hf  Hf38  1  0.37927490  -0.01026845  0.01122640  1
  Hf  Hf39  1  0.81751386  0.19407793  0.49346342  1
  Zr  Zr40  1  0.48770988  0.29050819  0.36364273  1
  Zr  Zr41  1  0.80867446  0.59125599  0.00596446  1
  Zr  Zr42  1  0.70633507  0.30522726  0.61626131  1
  Zr  Zr43  1  0.39617501  0.79420084  -0.01167862  1
  Zr  Zr44  1  0.29045266  0.10261252  0.62407706  1
  Zr  Zr45  1  0.58010470  0.20567249  0.51173952  1
  Zr  Zr46  1  0.50935393  0.28492630  0.13017312  1
  Zr  Zr47  1  0.19589547  0.39681948  0.25560032  1
  Zr  Zr48  1  0.60011957  0.39595008  0.74287141  1
  Zr  Zr49  1  0.90020997  0.70435898  0.13362624  1
  Zr  Zr50  1  0.19670095  0.19479365  0.75359552  1
  Zr  Zr51  1  0.59979461  0.59884663  0.75781613  1
  Zr  Zr52  1  0.81367326  0.01377172  0.01540742  1
  Zr  Zr53  1  0.28973064  0.06985622  0.87294773  1
  Zr  Zr54  1  0.01718711  0.60710926  0.73271206  1
  Zr  Zr55  1  -0.00366087  0.19188652  0.74731777  1
  Zr  Zr56  1  0.39638204  -0.00604537  0.49327622  1
  Zr  Zr57  1  0.19195957  0.19091698  0.24560672  1
  Zr  Zr58  1  0.21052756  0.59810014  0.74476842  1
  Zr  Zr59  1  0.08875039  0.50432055  0.12763089  1
  Zr  Zr60  1  0.30654462  0.69561908  0.61888234  1
  Zr  Zr61  1  0.90774651  0.72285602  0.63179740  1
  Zr  Zr62  1  0.08816698  0.29986699  0.88772513  1
  Zr  Zr63  1  0.29837934  0.89917447  0.62358472  1
  Zr  Zr64  1  0.90591512  0.29317387  0.62573640  1
  Zr  Zr65  1  -0.01367790  0.21293375  0.25821490  1
  Zr  Zr66  1  0.50252384  0.69064880  0.37635678  1
  Zr  Zr67  1  0.09720052  0.71393801  0.87571088  1
  Zr  Zr68  1  0.00025742  0.61418800  0.00095875  1
  Zr  Zr69  1  0.71042837  0.71003148  0.88756187  1
  Zr  Zr70  1  0.40680251  0.18280566  -0.00335719  1
  Zr  Zr71  1  0.17958739  0.00778964  0.49224109  1
  Zr  Zr72  1  0.31201953  0.71222772  0.13899238  1
  Zr  Zr73  1  0.69692438  0.69592986  0.38124208  1
  Zr  Zr74  1  0.77556991  0.59765697  0.24253375  1
  Zr  Zr75  1  0.79522296  0.01476298  0.24001343  1
  Zr  Zr76  1  0.80156891  0.60668056  0.75026351  1
  Zr  Zr77  1  0.60970128  0.80543726  0.75403232  1
  Zr  Zr78  1  0.29746366  0.49008975  0.61755982  1
  Zr  Zr79  1  0.40037405  0.59628555  -0.00193088  1
  Ta  Ta80  1  0.40490392  0.39424763  0.24511553  1
  Ta  Ta81  1  0.40084298  -0.00281814  0.74963724  1
  Ta  Ta82  1  0.01601624  0.82555190  0.00971556  1
  Ta  Ta83  1  0.59700140  0.19621119  0.73992068  1
  Ta  Ta84  1  0.01420928  0.19684595  0.49093845  1
  Ta  Ta85  1  0.10751713  0.30421804  0.61432529  1
  Ta  Ta86  1  0.70964390  0.48835838  0.88192634  1
  Ta  Ta87  1  0.69454103  0.51137070  0.61868635  1
  Ta  Ta88  1  0.71192072  0.91277917  0.88993244  1
  Ta  Ta89  1  -0.01472137  0.58463645  0.25691222  1
  Ta  Ta90  1  0.17627062  -0.01188236  0.73749540  1
  Ta  Ta91  1  0.50471724  0.09144367  0.37731375  1
  Ta  Ta92  1  0.49353306  0.09586075  0.62356413  1
  Ta  Ta93  1  -0.00548900  0.40005720  0.49046692  1
  Ta  Ta94  1  0.41756142  0.59997961  0.24656282  1
  Ta  Ta95  1  0.69298679  0.10314620  0.87827598  1
  Ta  Ta96  1  0.59387083  0.00704322  0.00662556  1
  Ta  Ta97  1  0.58781057  0.42118254  0.50942090  1
  Ta  Ta98  1  0.00906555  0.60237249  0.50561089  1
  Ta  Ta99  1  0.82614086  0.41285679  0.27504060  1
  Ta  Ta100  1  0.70612207  0.08817116  0.61194634  1
  Ta  Ta101  1  0.59965015  0.80502243  0.50753916  1
  Ta  Ta102  1  -0.02310081  0.18876624  0.00858320  1
  Ta  Ta103  1  0.30380843  0.29634728  0.12395685  1
  Ta  Ta104  1  0.20499771  0.61630708  0.00371997  1
  Ta  Ta105  1  0.90328403  0.50113794  0.86413622  1
  Ta  Ta106  1  0.60231379  0.78264843  0.23972736  1
  Ta  Ta107  1  0.40628169  0.38909548  0.00406868  1
  Ta  Ta108  1  0.40934496  0.19140504  0.75790284  1
  Ta  Ta109  1  0.20164648  0.60316078  0.26335580  1
  Ta  Ta110  1  0.19463994  0.39726852  0.48894156  1
  Ta  Ta111  1  0.50433766  0.90011035  0.62334642  1
  Ta  Ta112  1  0.70397892  0.70999899  0.61992298  1
  Ta  Ta113  1  0.11424346  0.90279027  0.87559661  1
  Ta  Ta114  1  0.41949494  0.58139315  0.49827567  1
  Ta  Ta115  1  0.78985792  0.80383088  0.24294638  1
  Ta  Ta116  1  0.60117737  0.19718424  -0.00333899  1
  Ta  Ta117  1  0.18539507  0.79725965  0.73549184  1
  Ta  Ta118  1  0.68843304  0.11216051  0.12344658  1
  Ta  Ta119  1  0.80313487  0.81219269  0.50188823  1
  Ti  Ti120  1  0.88319765  0.09587612  0.87125804  1
  Ti  Ti121  1  0.61257477  0.60102978  0.00137680  1
  Ti  Ti122  1  0.20968565  0.21105979  0.49234326  1
  Ti  Ti123  1  0.69848451  0.89119982  0.11311952  1
  Ti  Ti124  1  0.10231194  0.29820266  0.37699035  1
  Ti  Ti125  1  0.31010442  0.70744278  0.36419736  1
  Ti  Ti126  1  0.50813090  0.69777884  0.88203610  1
  Ti  Ti127  1  0.90708880  0.71123390  0.86761435  1
  Ti  Ti128  1  0.40591746  0.59476383  0.75846641  1
  Ti  Ti129  1  0.52351472  0.49773614  0.36625724  1
  Ti  Ti130  1  0.81469501  0.80406305  0.00511060  1
  Ti  Ti131  1  0.50808990  0.28895514  0.87781628  1
  Ti  Ti132  1  0.30351325  0.50225709  0.88001776  1
  Ti  Ti133  1  0.40108102  0.79248702  0.49718234  1
  Ti  Ti134  1  0.71984984  0.47904231  0.11457122  1
  Ti  Ti135  1  0.20677527  0.81460517  0.00611456  1
  Ti  Ti136  1  0.59001547  0.18182000  0.25096639  1
  Ti  Ti137  1  0.09043216  0.50091507  0.37330803  1
  Ti  Ti138  1  0.90120000  0.92645776  0.63073660  1
  Ti  Ti139  1  0.61506081  0.38599122  0.00057992  1
  Ti  Ti140  1  0.29487178  0.09786587  0.13136131  1
  Ti  Ti141  1  0.09089088  0.69715833  0.36384683  1
  Ti  Ti142  1  0.27497548  0.90092704  0.15053521  1
  Ti  Ti143  1  0.89796582  0.70175462  0.36816340  1
  Ti  Ti144  1  0.70787015  0.90442090  0.61893811  1
  Ti  Ti145  1  0.79735407  0.40128434  0.75033391  1
  Ti  Ti146  1  0.00458669  0.02545109  0.25914637  1
  Ti  Ti147  1  0.29027609  0.70209907  0.87209618  1
  Ti  Ti148  1  0.30540864  0.28791629  0.62828554  1
  Ti  Ti149  1  0.51499892  0.69502603  0.11801995  1
  Ti  Ti150  1  0.78896957  0.18273192  0.74227793  1
  Ti  Ti151  1  0.00215087  0.40090326  0.74594806  1
  Ti  Ti152  1  0.08905476  0.07879107  0.12005005  1
  Ti  Ti153  1  0.69706426  0.29451544  0.86784222  1
  Ti  Ti154  1  -0.01930864  0.40886081  -0.00347182  1
  Ti  Ti155  1  -0.02073874  0.01137785  0.49017334  1
  Ti  Ti156  1  0.80441804  0.82175263  0.75124364  1
  Ti  Ti157  1  0.60258579  -0.00796174  0.23758312  1
  Ti  Ti158  1  0.78725601  0.21141454  0.00531239  1
  Ti  Ti159  1  0.07814086  0.09402861  0.62183063  1
  Mo  Mo160  1  0.89506443  0.09706627  0.62325932  1
  Mo  Mo161  1  0.60103912  0.59322896  0.23749311  1
  Mo  Mo162  1  0.30244359  0.89594412  0.35869817  1
  Mo  Mo163  1  0.59689958  -0.00548719  0.50881832  1
  Mo  Mo164  1  0.50395765  0.09874343  0.86993089  1
  Mo  Mo165  1  0.50207326  0.08895027  0.12641208  1
  Mo  Mo166  1  0.29538796  0.30328952  0.36939472  1
  Mo  Mo167  1  -0.00677859  -0.00043150  0.74697728  1
  Mo  Mo168  1  0.69744561  0.29952684  0.12571418  1
  Mo  Mo169  1  0.08622212  0.89996932  0.61761213  1
  Mo  Mo170  1  0.60139672  0.60317848  0.50711734  1
  Mo  Mo171  1  0.69516179  0.71127132  0.11023360  1
  Mo  Mo172  1  0.90325923  0.49689041  0.12999067  1
  Mo  Mo173  1  0.49154115  0.29154470  0.63157594  1
  Mo  Mo174  1  0.20541130  0.79505863  0.26890873  1
  Mo  Mo175  1  0.39240099  0.19200022  0.50208639  1
  Mo  Mo176  1  0.49605039  0.49936072  0.62799667  1
  Mo  Mo177  1  0.79341534  0.00396519  0.75345954  1
  Mo  Mo178  1  0.10115232  0.90245369  0.14984292  1
  Mo  Mo179  1  0.28976729  0.88994983  0.86374134  1
  Mo  Mo180  1  0.00247332  0.40252454  0.26515264  1
  Mo  Mo181  1  0.18743665  -0.01816463  0.01214763  1
  Mo  Mo182  1  0.90656726  0.30571701  0.38606637  1
  Mo  Mo183  1  0.80086218  -0.00758320  0.49894866  1
  Mo  Mo184  1  0.19709957  0.00715365  0.25243878  1
  Mo  Mo185  1  0.60942770  0.80227728  -0.00103460  1
  Mo  Mo186  1  0.40595598  0.79698783  0.24833524  1
  Mo  Mo187  1  0.69744467  0.50131310  0.38681854  1
  Mo  Mo188  1  -0.00991021  0.78911281  0.26397257  1
  Mo  Mo189  1  0.39893530  0.20029553  0.23983567  1
  Mo  Mo190  1  0.79931841  0.40724010  0.49078694  1
  Mo  Mo191  1  0.90255700  0.51250598  0.38763265  1
  Mo  Mo192  1  0.01120358  0.82241389  0.74109174  1
  Mo  Mo193  1  0.09644332  0.10504248  0.38041805  1
  Mo  Mo194  1  0.00377171  0.00084965  0.00608976  1
  Mo  Mo195  1  0.89836004  0.11658236  0.12738823  1
  Mo  Mo196  1  0.79966456  0.39488338  -0.01338387  1
  Mo  Mo197  1  0.90027232  0.10217186  0.37635209  1
  Mo  Mo198  1  0.09681821  0.49127324  0.60841183  1
  Mo  Mo199  1  0.10538154  0.70418781  0.61072634  1
