# generated using pymatgen
data_HfZrTaTiMo
_symmetry_space_group_name_H-M   'P 1'
_cell_length_a   15.21887321
_cell_length_b   15.21806707
_cell_length_c   16.81959289
_cell_angle_alpha   89.95992965
_cell_angle_beta   89.98900875
_cell_angle_gamma   90.04536744
_symmetry_Int_Tables_number   1
_chemical_formula_structural   HfZrTaTiMo
_chemical_formula_sum   'Hf40 Zr40 Ta40 Ti40 Mo40'
_cell_volume   3895.44630317
_cell_formula_units_Z   40
loop_
 _symmetry_equiv_pos_site_id
 _symmetry_equiv_pos_as_xyz
  1  'x, y, z'
loop_
 _atom_site_type_symbol
 _atom_site_label
 _atom_site_symmetry_multiplicity
 _atom_site_fract_x
 _atom_site_fract_y
 _atom_site_fract_z
 _atom_site_occupancy
  Hf  Hf0  1  0.88876039  0.68960540  0.13142098  1
  Hf  Hf1  1  0.00011039  0.59739673  0.75304275  1
  Hf  Hf2  1  0.59099476  0.01197392  0.51843174  1
  Hf  Hf3  1  0.78980319  0.00365413  0.73729636  1
  Hf  Hf4  1  0.28522549  0.09070300  0.64147769  1
  Hf  Hf5  1  0.10302673  0.48677345  0.61897800  1
  Hf  Hf6  1  0.60922542  0.60995285  -0.01069335  1
  Hf  Hf7  1  0.60256419  0.41208771  0.50528474  1
  Hf  Hf8  1  0.49605001  0.69967147  0.38495688  1
  Hf  Hf9  1  -0.02192293  0.78517083  -0.01006807  1
  Hf  Hf10  1  0.49779260  0.10478165  0.11116472  1
  Hf  Hf11  1  0.41024547  0.19716643  0.51182984  1
  Hf  Hf12  1  0.49403721  0.30833125  0.87483362  1
  Hf  Hf13  1  0.30369869  0.48942523  0.62945168  1
  Hf  Hf14  1  0.10228838  0.69329005  0.38104070  1
  Hf  Hf15  1  -0.00433255  -0.00752489  -0.00431151  1
  Hf  Hf16  1  0.49853462  0.49663952  0.37566374  1
  Hf  Hf17  1  0.60143003  0.40553585  0.23300093  1
  Hf  Hf18  1  0.59154807  0.00908718  0.25148230  1
  Hf  Hf19  1  0.10063915  0.69288441  0.88412838  1
  Hf  Hf20  1  0.40483505  0.20501041  0.74384004  1
  Hf  Hf21  1  0.70791172  0.10230399  0.11964494  1
  Hf  Hf22  1  0.90890047  0.32094046  0.12676192  1
  Hf  Hf23  1  0.29835130  0.90466138  0.38465938  1
  Hf  Hf24  1  0.59231513  0.01038947  0.72865332  1
  Hf  Hf25  1  0.50175815  0.09566016  0.87833176  1
  Hf  Hf26  1  -0.00437056  0.01131784  0.75869185  1
  Hf  Hf27  1  0.61210820  0.21323489  -0.00618057  1
  Hf  Hf28  1  0.20745089  0.80612536  0.00611412  1
  Hf  Hf29  1  0.10062307  0.90573440  0.61832748  1
  Hf  Hf30  1  0.09253768  0.28990691  0.61678665  1
  Hf  Hf31  1  0.80808548  0.20583401  0.25910032  1
  Hf  Hf32  1  0.79858755  0.80009711  0.50315191  1
  Hf  Hf33  1  0.09600821  0.67819923  0.11318562  1
  Hf  Hf34  1  0.20033607  0.58495293  0.75811596  1
  Hf  Hf35  1  0.30806689  0.69176386  0.86945302  1
  Hf  Hf36  1  -0.01016268  0.57580721  0.25664440  1
  Hf  Hf37  1  0.90049108  0.11290391  0.11702598  1
  Hf  Hf38  1  0.29151503  0.48794444  0.12062589  1
  Hf  Hf39  1  0.19524230  0.39965055  0.26194591  1
  Zr  Zr40  1  0.80380757  0.20997216  0.75961723  1
  Zr  Zr41  1  0.81541781  0.21154778  0.48391475  1
  Zr  Zr42  1  0.50751413  0.89187874  0.12043653  1
  Zr  Zr43  1  0.10377059  0.10554328  0.88595763  1
  Zr  Zr44  1  0.10761602  0.29689066  0.13274488  1
  Zr  Zr45  1  0.50762609  0.29397748  0.36888026  1
  Zr  Zr46  1  -0.00710065  0.79581775  0.26372015  1
  Zr  Zr47  1  0.19863078  0.18009573  0.48317493  1
  Zr  Zr48  1  0.87407950  0.90242617  0.87127001  1
  Zr  Zr49  1  -0.01343290  0.59283585  0.49773781  1
  Zr  Zr50  1  0.20797532  -0.00718758  0.24498469  1
  Zr  Zr51  1  0.20630294  0.36941050  -0.01053630  1
  Zr  Zr52  1  0.70290521  0.50717665  0.64369494  1
  Zr  Zr53  1  0.10204157  0.10409491  0.12171442  1
  Zr  Zr54  1  0.08966733  0.89075494  0.12255659  1
  Zr  Zr55  1  0.88430382  0.90173407  0.12795804  1
  Zr  Zr56  1  0.51497842  0.88959832  0.86487029  1
  Zr  Zr57  1  0.39389556  0.80519477  0.24368460  1
  Zr  Zr58  1  0.29514369  0.29880646  0.62230399  1
  Zr  Zr59  1  -0.00118514  0.80194804  0.75554260  1
  Zr  Zr60  1  0.68486522  0.11009939  0.37700420  1
  Zr  Zr61  1  0.79901913  0.41001249  0.49316035  1
  Zr  Zr62  1  0.60105780  0.80292454  0.51556950  1
  Zr  Zr63  1  0.21432588  0.19160022  0.26698884  1
  Zr  Zr64  1  0.28816719  0.88808182  0.64261970  1
  Zr  Zr65  1  0.90549640  0.91019496  0.61673963  1
  Zr  Zr66  1  0.39001299  -0.00793222  0.00222520  1
  Zr  Zr67  1  0.20055060  0.78763495  0.24374019  1
  Zr  Zr68  1  0.60000769  0.80712843  0.26004781  1
  Zr  Zr69  1  0.30308106  0.89533607  0.84936034  1
  Zr  Zr70  1  0.39642955  0.79294206  0.51364197  1
  Zr  Zr71  1  0.89855836  0.49358047  0.63651356  1
  Zr  Zr72  1  0.71827561  0.51689534  0.12200608  1
  Zr  Zr73  1  0.79258960  0.40496022  -0.00840685  1
  Zr  Zr74  1  0.59750688  0.60422231  0.24307710  1
  Zr  Zr75  1  0.29482308  0.10041711  0.85919633  1
  Zr  Zr76  1  -0.00476690  0.00851900  0.26330343  1
  Zr  Zr77  1  0.40732002  0.78586183  0.00129528  1
  Zr  Zr78  1  0.10213936  0.70036525  0.62211580  1
  Zr  Zr79  1  0.39018827  0.59387804  0.24365346  1
  Ta  Ta80  1  0.81749912  0.42359776  0.25605791  1
  Ta  Ta81  1  0.20214817  0.39644592  0.48575586  1
  Ta  Ta82  1  0.79863162  0.00819620  0.49659852  1
  Ta  Ta83  1  0.09247758  0.09663099  0.62357048  1
  Ta  Ta84  1  0.90094556  0.50466403  0.86996957  1
  Ta  Ta85  1  -0.00407102  0.79952250  0.49158088  1
  Ta  Ta86  1  -0.00512299  0.38108533  0.48345816  1
  Ta  Ta87  1  0.39191460  0.00180939  0.51708341  1
  Ta  Ta88  1  0.00220456  0.39104465  0.75876673  1
  Ta  Ta89  1  0.80893646  0.62055320  -0.01909204  1
  Ta  Ta90  1  0.39702968  0.39073316  0.24086042  1
  Ta  Ta91  1  0.79402296  -0.00048290  0.26509966  1
  Ta  Ta92  1  0.88622853  0.69781300  0.63141878  1
  Ta  Ta93  1  0.49218035  0.91477479  0.38360752  1
  Ta  Ta94  1  0.90445548  0.30549362  0.88319351  1
  Ta  Ta95  1  0.69700880  0.69784293  0.38046015  1
  Ta  Ta96  1  0.70343592  0.72463894  0.85691252  1
  Ta  Ta97  1  0.20116798  0.37865474  0.76495905  1
  Ta  Ta98  1  0.60828085  0.21779191  0.51046845  1
  Ta  Ta99  1  0.08319926  0.48722821  0.11133550  1
  Ta  Ta100  1  0.61718458  -0.01444407  -0.00378376  1
  Ta  Ta101  1  0.49634020  0.30409601  0.11782078  1
  Ta  Ta102  1  0.50098873  0.49711948  0.63624909  1
  Ta  Ta103  1  0.89379068  0.30006920  0.62931360  1
  Ta  Ta104  1  0.70636860  0.09553963  0.88189530  1
  Ta  Ta105  1  0.30130186  0.68730115  0.63567042  1
  Ta  Ta106  1  0.77335658  0.81412209  -0.00495223  1
  Ta  Ta107  1  0.69983158  0.31751435  0.36281622  1
  Ta  Ta108  1  0.31464204  0.30036595  0.37908963  1
  Ta  Ta109  1  0.42001687  0.78551896  0.73552730  1
  Ta  Ta110  1  0.21193643  0.59522788  0.49997770  1
  Ta  Ta111  1  0.59876289  0.61230414  0.75567254  1
  Ta  Ta112  1  0.71033821  0.12415699  0.61839215  1
  Ta  Ta113  1  0.60966100  0.20489187  0.75181613  1
  Ta  Ta114  1  0.00424935  0.20454352  0.75654332  1
  Ta  Ta115  1  0.69809593  0.71831026  0.12306627  1
  Ta  Ta116  1  0.10856596  0.89833934  0.87346798  1
  Ta  Ta117  1  0.59313169  0.41276993  0.00380152  1
  Ta  Ta118  1  0.40645375  0.59155504  0.75161906  1
  Ta  Ta119  1  0.09618615  0.48582467  0.88764313  1
  Ti  Ti120  1  0.50218643  0.50062919  0.86778981  1
  Ti  Ti121  1  0.90945888  0.11350535  0.61717733  1
  Ti  Ti122  1  0.29864389  0.69239672  0.37790547  1
  Ti  Ti123  1  0.50232585  0.68719460  0.11754460  1
  Ti  Ti124  1  0.88725879  0.69041029  0.37475665  1
  Ti  Ti125  1  0.70146808  0.90584790  0.13216920  1
  Ti  Ti126  1  0.00971695  0.21864265  -0.00390862  1
  Ti  Ti127  1  0.70186993  0.50528166  0.86401860  1
  Ti  Ti128  1  0.00295932  0.01712733  0.48459080  1
  Ti  Ti129  1  0.30014149  0.69067752  0.11724200  1
  Ti  Ti130  1  0.30235526  0.50029008  0.37822991  1
  Ti  Ti131  1  0.59894952  0.20689375  0.23874190  1
  Ti  Ti132  1  0.61595894  0.81197729  0.72292171  1
  Ti  Ti133  1  0.39455775  0.00558597  0.24280051  1
  Ti  Ti134  1  0.20844788  0.58595299  -0.00767654  1
  Ti  Ti135  1  0.40586215  0.59043818  0.50803858  1
  Ti  Ti136  1  0.69218756  0.90491825  0.38422228  1
  Ti  Ti137  1  0.51230468  0.30897493  0.63463286  1
  Ti  Ti138  1  0.70937387  0.30237723  0.12484378  1
  Ti  Ti139  1  0.89604588  0.10998207  0.89342249  1
  Ti  Ti140  1  0.10009050  0.90183369  0.38705303  1
  Ti  Ti141  1  0.70117916  0.51450585  0.36937389  1
  Ti  Ti142  1  0.38180718  0.20522220  -0.00103032  1
  Ti  Ti143  1  0.40299103  0.39865259  0.50153790  1
  Ti  Ti144  1  0.00898069  0.20785988  0.27841757  1
  Ti  Ti145  1  0.09616267  0.49403244  0.38315020  1
  Ti  Ti146  1  0.77959283  0.60445500  0.50506656  1
  Ti  Ti147  1  0.40284125  0.19521008  0.24359707  1
  Ti  Ti148  1  0.20534006  0.00251237  0.01018032  1
  Ti  Ti149  1  0.60876963  0.39556020  0.75589117  1
  Ti  Ti150  1  0.31169707  0.48161438  0.87255664  1
  Ti  Ti151  1  0.79290237  0.80219891  0.26341712  1
  Ti  Ti152  1  0.89488714  0.90243930  0.38238719  1
  Ti  Ti153  1  0.19432602  0.59245361  0.24924074  1
  Ti  Ti154  1  0.51122678  0.68400788  0.62276872  1
  Ti  Ti155  1  0.50546665  0.69792321  0.87112849  1
  Ti  Ti156  1  0.40685729  0.58333470  -0.00245161  1
  Ti  Ti157  1  0.39998890  0.39570354  0.00409998  1
  Ti  Ti158  1  0.48713005  0.09983460  0.37792522  1
  Ti  Ti159  1  0.19951267  0.79510614  0.49946348  1
  Mo  Mo160  1  0.18486316  0.19801400  0.74469876  1
  Mo  Mo161  1  0.89172401  0.70213083  0.86576410  1
  Mo  Mo162  1  0.90618763  0.50810665  0.11816060  1
  Mo  Mo163  1  0.30073287  0.89917248  0.12417297  1
  Mo  Mo164  1  0.20010497  0.78645664  0.75622990  1
  Mo  Mo165  1  0.70342230  0.70026239  0.63556412  1
  Mo  Mo166  1  0.49562919  0.49880753  0.11096810  1
  Mo  Mo167  1  0.59913842  0.59835610  0.50245903  1
  Mo  Mo168  1  0.09845411  0.29239650  0.87431314  1
  Mo  Mo169  1  0.32125514  0.09106874  0.38016710  1
  Mo  Mo170  1  0.10567865  0.29926240  0.37961758  1
  Mo  Mo171  1  0.89038459  0.50468932  0.38367178  1
  Mo  Mo172  1  0.31080329  0.28921630  0.13103244  1
  Mo  Mo173  1  0.10527742  0.08902635  0.37669674  1
  Mo  Mo174  1  0.30353903  0.29246295  0.86796890  1
  Mo  Mo175  1  0.21039311  0.18817333  0.00567922  1
  Mo  Mo176  1  0.00189431  0.39667828  0.26478194  1
  Mo  Mo177  1  -0.00133788  0.19607104  0.48918326  1
  Mo  Mo178  1  0.60242954  0.79386592  -0.00192357  1
  Mo  Mo179  1  0.49194589  0.90256101  0.63037062  1
  Mo  Mo180  1  0.40331533  -0.00376682  0.73430988  1
  Mo  Mo181  1  0.30475238  0.10444918  0.12230114  1
  Mo  Mo182  1  0.49928223  0.11657631  0.62656015  1
  Mo  Mo183  1  0.40493890  0.40318867  0.75344926  1
  Mo  Mo184  1  0.79548198  0.61399869  0.25794521  1
  Mo  Mo185  1  0.19939076  -0.00962295  0.49737285  1
  Mo  Mo186  1  -0.00598461  0.59197671  -0.00557258  1
  Mo  Mo187  1  0.80048378  0.60867553  0.76574178  1
  Mo  Mo188  1  0.79469327  0.80409024  0.73226808  1
  Mo  Mo189  1  0.70537921  0.91233113  0.61161000  1
  Mo  Mo190  1  0.90215087  0.30761139  0.36229856  1
  Mo  Mo191  1  0.70370986  0.30574770  0.63100244  1
  Mo  Mo192  1  0.89865630  0.09574343  0.37481766  1
  Mo  Mo193  1  0.80438909  0.20641868  -0.00630635  1
  Mo  Mo194  1  0.18193916  -0.00607361  0.75273002  1
  Mo  Mo195  1  0.69631806  0.30847045  0.87594270  1
  Mo  Mo196  1  -0.00105929  0.40140326  -0.00769519  1
  Mo  Mo197  1  0.80113600  0.40096593  0.76900698  1
  Mo  Mo198  1  0.79659087  0.00597122  0.00106225  1
  Mo  Mo199  1  0.69040074  0.91005312  0.86325855  1
