# generated using pymatgen
data_HfZrTaTiMo
_symmetry_space_group_name_H-M   'P 1'
_cell_length_a   15.21255982
_cell_length_b   15.21264333
_cell_length_c   16.84615422
_cell_angle_alpha   90.01720250
_cell_angle_beta   90.06737461
_cell_angle_gamma   89.99838218
_symmetry_Int_Tables_number   1
_chemical_formula_structural   HfZrTaTiMo
_chemical_formula_sum   'Hf40 Zr40 Ta40 Ti40 Mo40'
_cell_volume   3898.58882944
_cell_formula_units_Z   40
loop_
 _symmetry_equiv_pos_site_id
 _symmetry_equiv_pos_as_xyz
  1  'x, y, z'
loop_
 _atom_site_type_symbol
 _atom_site_label
 _atom_site_symmetry_multiplicity
 _atom_site_fract_x
 _atom_site_fract_y
 _atom_site_fract_z
 _atom_site_occupancy
  Hf  Hf0  1  0.30836371  0.31129427  0.36383393  1
  Hf  Hf1  1  0.89779885  0.70630036  0.35950461  1
  Hf  Hf2  1  0.79047010  0.58995772  0.23657357  1
  Hf  Hf3  1  -0.01312416  0.81649064  0.74755344  1
  Hf  Hf4  1  0.59522533  0.19580750  -0.01391463  1
  Hf  Hf5  1  0.62716371  0.79480957  0.76005768  1
  Hf  Hf6  1  0.00025723  0.19684830  0.49639825  1
  Hf  Hf7  1  0.88926335  0.71498546  0.62173724  1
  Hf  Hf8  1  0.70309936  0.08314956  0.62803702  1
  Hf  Hf9  1  0.79842200  0.38914318  0.23976297  1
  Hf  Hf10  1  0.01816133  0.60066963  0.24158336  1
  Hf  Hf11  1  0.69905647  0.09587284  0.12298145  1
  Hf  Hf12  1  0.89870832  0.30486807  0.63407074  1
  Hf  Hf13  1  0.50661761  0.28103140  0.12986794  1
  Hf  Hf14  1  0.48862304  0.48876014  0.36120432  1
  Hf  Hf15  1  0.40397603  0.80376843  0.24809395  1
  Hf  Hf16  1  0.79168463  0.19068265  0.48685238  1
  Hf  Hf17  1  0.10147711  0.31906104  0.11455733  1
  Hf  Hf18  1  0.79777985  0.39675888  0.49429326  1
  Hf  Hf19  1  0.57635583  0.39780010  0.73222366  1
  Hf  Hf20  1  0.18899610  0.19826712  0.25293497  1
  Hf  Hf21  1  0.69853487  0.28999780  0.63688628  1
  Hf  Hf22  1  0.30744284  0.91541431  0.12179464  1
  Hf  Hf23  1  0.09511119  0.93536728  0.62581371  1
  Hf  Hf24  1  0.50164730  0.68753527  0.87392093  1
  Hf  Hf25  1  0.39399721  0.38887724  -0.00362032  1
  Hf  Hf26  1  0.59105160  -0.00257178  0.49367063  1
  Hf  Hf27  1  0.61491448  -0.01176481  -0.01227953  1
  Hf  Hf28  1  0.80628581  0.60223427  0.00683334  1
  Hf  Hf29  1  0.19806492  0.60160590  0.50728729  1
  Hf  Hf30  1  0.19105428  0.80875967  0.73940673  1
  Hf  Hf31  1  0.38988739  0.59772899  0.49294421  1
  Hf  Hf32  1  0.30578114  0.88566754  0.38386543  1
  Hf  Hf33  1  0.32008158  0.92014747  0.63308834  1
  Hf  Hf34  1  0.69746007  0.49825359  0.88308588  1
  Hf  Hf35  1  0.39898948  0.81070800  -0.00734306  1
  Hf  Hf36  1  0.40929136  0.39259672  0.51489937  1
  Hf  Hf37  1  0.31499603  0.69505079  0.63887697  1
  Hf  Hf38  1  0.30214710  0.30126704  0.13040826  1
  Hf  Hf39  1  0.20747988  0.39735542  0.50117996  1
  Zr  Zr40  1  0.00041307  0.40118998  0.77290782  1
  Zr  Zr41  1  0.70354046  0.50097706  0.62223155  1
  Zr  Zr42  1  0.09945590  0.29053475  0.63387034  1
  Zr  Zr43  1  0.29851452  0.70507675  0.86359872  1
  Zr  Zr44  1  0.59176282  0.20009352  0.50753072  1
  Zr  Zr45  1  0.49362437  0.08165676  0.11955113  1
  Zr  Zr46  1  0.51583307  0.30100577  0.36860028  1
  Zr  Zr47  1  0.39867337  0.18195696  0.49630061  1
  Zr  Zr48  1  0.38039109  0.59811600  0.25715268  1
  Zr  Zr49  1  0.78403169  0.00309878  0.26142583  1
  Zr  Zr50  1  0.11096572  0.10310877  0.11088056  1
  Zr  Zr51  1  0.89754883  0.29021127  0.11527786  1
  Zr  Zr52  1  0.10430128  0.72232431  0.37749597  1
  Zr  Zr53  1  0.28206492  0.70591264  0.11929162  1
  Zr  Zr54  1  0.59608909  0.59576905  0.74884185  1
  Zr  Zr55  1  -0.00435694  0.60858119  0.50169466  1
  Zr  Zr56  1  -0.01243760  0.60533862  0.75739776  1
  Zr  Zr57  1  -0.00799950  0.82543742  0.50336597  1
  Zr  Zr58  1  0.02056101  0.59904960  0.00246451  1
  Zr  Zr59  1  -0.00344743  0.80130412  -0.00461791  1
  Zr  Zr60  1  0.91627514  0.08986238  0.36695560  1
  Zr  Zr61  1  0.20210577  0.80428902  0.52205971  1
  Zr  Zr62  1  0.89890728  0.10277398  0.87865034  1
  Zr  Zr63  1  0.18934538  0.59908589  0.74115952  1
  Zr  Zr64  1  0.79493963  0.61255992  0.75904785  1
  Zr  Zr65  1  0.69121949  0.29951352  0.86260112  1
  Zr  Zr66  1  0.48405596  0.48878998  0.13037332  1
  Zr  Zr67  1  0.38926587  0.59600275  -0.00041223  1
  Zr  Zr68  1  0.58957118  0.59319731  0.49605395  1
  Zr  Zr69  1  0.90982221  0.71003496  0.13470889  1
  Zr  Zr70  1  0.59212838  0.60451968  0.24194031  1
  Zr  Zr71  1  0.40980548  0.17888704  0.25824451  1
  Zr  Zr72  1  0.69195604  0.71816217  0.12469345  1
  Zr  Zr73  1  0.19571666  0.18724788  0.49835703  1
  Zr  Zr74  1  0.91474658  0.09346384  0.62958227  1
  Zr  Zr75  1  0.90660904  0.09996461  0.12357559  1
  Zr  Zr76  1  0.29403377  0.07484468  0.36970927  1
  Zr  Zr77  1  0.08876780  0.49572308  0.62498343  1
  Zr  Zr78  1  0.89541959  0.90866778  0.13071359  1
  Zr  Zr79  1  0.90042502  0.50164778  0.36683651  1
  Ta  Ta80  1  0.19174927  0.81533122  0.25093067  1
  Ta  Ta81  1  0.51752828  0.89202315  0.12171322  1
  Ta  Ta82  1  0.00802665  -0.00153912  -0.00598214  1
  Ta  Ta83  1  0.60117206  0.79366748  -0.01278236  1
  Ta  Ta84  1  0.19212144  0.41849450  -0.01776274  1
  Ta  Ta85  1  0.49678674  0.48464964  0.87838789  1
  Ta  Ta86  1  0.90297602  0.30070640  0.36941211  1
  Ta  Ta87  1  0.60856272  -0.00884238  0.75476670  1
  Ta  Ta88  1  0.48983630  0.29338865  0.86391709  1
  Ta  Ta89  1  0.91274157  0.48988397  0.12346183  1
  Ta  Ta90  1  0.88836856  0.30371981  0.87878859  1
  Ta  Ta91  1  0.89197045  0.90694303  0.88112005  1
  Ta  Ta92  1  0.71571468  0.88907911  0.61689456  1
  Ta  Ta93  1  0.69925597  0.70338049  0.61326410  1
  Ta  Ta94  1  0.30345629  0.11261452  0.64086130  1
  Ta  Ta95  1  0.80221822  0.19347864  0.75377087  1
  Ta  Ta96  1  0.69076422  0.48744853  0.37259613  1
  Ta  Ta97  1  0.79279853  0.60431283  0.49009009  1
  Ta  Ta98  1  0.58240600  -0.00326321  0.26705772  1
  Ta  Ta99  1  0.69549078  0.69614002  0.37064304  1
  Ta  Ta100  1  0.09755642  0.70538030  0.87055364  1
  Ta  Ta101  1  0.61187089  0.39318485  0.23445592  1
  Ta  Ta102  1  0.30430316  0.50064398  0.85914514  1
  Ta  Ta103  1  0.58370344  0.17836625  0.74970360  1
  Ta  Ta104  1  0.49277400  0.71106503  0.37730654  1
  Ta  Ta105  1  0.00021105  0.39713815  0.49428650  1
  Ta  Ta106  1  -0.00583077  0.40763075  -0.01706759  1
  Ta  Ta107  1  0.61926391  0.18888263  0.26380447  1
  Ta  Ta108  1  0.39310567  0.18994267  -0.01504878  1
  Ta  Ta109  1  0.19956412  0.41769692  0.25636732  1
  Ta  Ta110  1  0.00761751  0.39760691  0.25101880  1
  Ta  Ta111  1  0.50748165  0.70286282  0.62693184  1
  Ta  Ta112  1  0.41594530  0.80471189  0.50884411  1
  Ta  Ta113  1  0.50457515  0.89886545  0.86591037  1
  Ta  Ta114  1  0.21086640  -0.00098892  -0.01594654  1
  Ta  Ta115  1  0.59949237  0.59186147  0.00802110  1
  Ta  Ta116  1  0.30932098  0.48454356  0.64251548  1
  Ta  Ta117  1  0.10620783  0.89469628  0.11795241  1
  Ta  Ta118  1  0.19047932  0.20087270  0.76518532  1
  Ta  Ta119  1  0.27337942  0.50041229  0.12127876  1
  Ti  Ti120  1  0.11183474  0.93467425  0.38543582  1
  Ti  Ti121  1  0.29619642  0.29955550  0.86882336  1
  Ti  Ti122  1  0.60055357  0.80916204  0.26026790  1
  Ti  Ti123  1  0.60201217  0.39288768  0.01107679  1
  Ti  Ti124  1  0.79137001  0.80592768  0.25161564  1
  Ti  Ti125  1  0.79957407  0.40877766  0.75474393  1
  Ti  Ti126  1  0.00801487  0.01755935  0.76214281  1
  Ti  Ti127  1  0.20833598  0.01306978  0.76330777  1
  Ti  Ti128  1  0.19253648  0.79932892  -0.00850037  1
  Ti  Ti129  1  0.60521706  0.79721236  0.49470828  1
  Ti  Ti130  1  0.41653870  0.80291896  0.74919000  1
  Ti  Ti131  1  0.78728392  0.82113898  0.00286765  1
  Ti  Ti132  1  0.70645454  0.08778432  0.86665934  1
  Ti  Ti133  1  0.79749063  0.20099890  0.26106952  1
  Ti  Ti134  1  0.88538986  0.71026456  0.88010181  1
  Ti  Ti135  1  0.09762311  0.30289863  0.37347674  1
  Ti  Ti136  1  0.89347696  0.50328187  0.61911531  1
  Ti  Ti137  1  0.51656451  0.90277903  0.63399748  1
  Ti  Ti138  1  0.03244248  -0.00151473  0.24466806  1
  Ti  Ti139  1  0.10340668  0.49923019  0.38094422  1
  Ti  Ti140  1  0.19657205  0.39562678  0.76156162  1
  Ti  Ti141  1  0.30635035  0.90627335  0.86108105  1
  Ti  Ti142  1  0.40605132  0.00507828  -0.01925494  1
  Ti  Ti143  1  0.59835632  0.39578661  0.51205317  1
  Ti  Ti144  1  0.30099175  0.10213851  0.12238382  1
  Ti  Ti145  1  -0.00168050  0.20488804  0.25008195  1
  Ti  Ti146  1  0.49210129  0.70276845  0.11713745  1
  Ti  Ti147  1  0.19991582  0.61118189  0.26263197  1
  Ti  Ti148  1  0.00367946  0.20854878  -0.01103456  1
  Ti  Ti149  1  0.79007629  0.19722444  -0.00494095  1
  Ti  Ti150  1  0.10439621  0.10555347  0.88293735  1
  Ti  Ti151  1  0.79941329  0.79894476  0.48561660  1
  Ti  Ti152  1  0.46587169  0.27318461  0.64442469  1
  Ti  Ti153  1  0.80650629  -0.01868954  0.74852940  1
  Ti  Ti154  1  0.20613018  0.20722412  -0.01148579  1
  Ti  Ti155  1  0.91802808  0.89764200  0.35790877  1
  Ti  Ti156  1  0.69987489  0.89743652  0.38036089  1
  Ti  Ti157  1  0.79144630  0.39817015  0.00980580  1
  Ti  Ti158  1  0.10070425  0.90429440  0.87312729  1
  Ti  Ti159  1  0.81493475  -0.01036737  0.49052751  1
  Mo  Mo160  1  0.10461037  0.50702714  0.87057937  1
  Mo  Mo161  1  0.50441823  0.09428380  0.87492316  1
  Mo  Mo162  1  0.41613345  0.00571707  0.76022709  1
  Mo  Mo163  1  0.80468394  0.00260033  -0.00013980  1
  Mo  Mo164  1  0.71204005  0.89799122  0.87431591  1
  Mo  Mo165  1  0.20575880  -0.00296147  0.24234561  1
  Mo  Mo166  1  0.49995387  0.08996938  0.37441147  1
  Mo  Mo167  1  0.69732485  0.28952594  0.12003869  1
  Mo  Mo168  1  0.11218093  0.10772009  0.64208514  1
  Mo  Mo169  1  0.40140768  -0.00718089  0.50897838  1
  Mo  Mo170  1  0.70303957  0.69932509  0.89533309  1
  Mo  Mo171  1  0.50132945  0.89347586  0.38100702  1
  Mo  Mo172  1  0.19818760  0.60487636  -0.01189864  1
  Mo  Mo173  1  0.10075393  0.10541077  0.36681958  1
  Mo  Mo174  1  0.10288849  0.50228609  0.12661540  1
  Mo  Mo175  1  0.80325745  0.80361828  0.75285950  1
  Mo  Mo176  1  0.69033499  0.90270572  0.13155921  1
  Mo  Mo177  1  0.01066145  0.01107579  0.49571026  1
  Mo  Mo178  1  0.10076145  0.29845444  0.88886156  1
  Mo  Mo179  1  0.69968305  0.49222103  0.11180548  1
  Mo  Mo180  1  0.29969985  0.70496415  0.37895347  1
  Mo  Mo181  1  0.29070095  0.49886103  0.37663316  1
  Mo  Mo182  1  0.48836885  0.50968776  0.62332715  1
  Mo  Mo183  1  0.21034500  0.01063746  0.51019704  1
  Mo  Mo184  1  0.39557213  0.39679264  0.23902206  1
  Mo  Mo185  1  0.00910052  0.81374006  0.25122606  1
  Mo  Mo186  1  0.29805498  0.09982260  0.87303855  1
  Mo  Mo187  1  0.89044847  0.49720687  0.88689931  1
  Mo  Mo188  1  -0.00209276  0.20099353  0.76772392  1
  Mo  Mo189  1  0.40183605  -0.01537970  0.24677674  1
  Mo  Mo190  1  0.40898023  0.59052248  0.75037264  1
  Mo  Mo191  1  0.39108538  0.39288070  0.75272977  1
  Mo  Mo192  1  0.29125131  0.29396183  0.63995940  1
  Mo  Mo193  1  0.88834595  0.91541767  0.62052139  1
  Mo  Mo194  1  0.70497105  0.30454587  0.37404718  1
  Mo  Mo195  1  0.09825594  0.71337396  0.62756225  1
  Mo  Mo196  1  0.38911891  0.19193213  0.76738558  1
  Mo  Mo197  1  0.11027619  0.70775141  0.12928535  1
  Mo  Mo198  1  0.70064716  0.09532861  0.38226981  1
  Mo  Mo199  1  0.49051459  0.08044034  0.63607640  1
