# generated using pymatgen
data_HfZrTaTiMo
_symmetry_space_group_name_H-M   'P 1'
_cell_length_a   15.22087276
_cell_length_b   15.20844972
_cell_length_c   16.81331652
_cell_angle_alpha   89.97269392
_cell_angle_beta   90.03399926
_cell_angle_gamma   90.05962096
_symmetry_Int_Tables_number   1
_chemical_formula_structural   HfZrTaTiMo
_chemical_formula_sum   'Hf40 Zr40 Ta40 Ti40 Mo40'
_cell_volume   3892.04210656
_cell_formula_units_Z   40
loop_
 _symmetry_equiv_pos_site_id
 _symmetry_equiv_pos_as_xyz
  1  'x, y, z'
loop_
 _atom_site_type_symbol
 _atom_site_label
 _atom_site_symmetry_multiplicity
 _atom_site_fract_x
 _atom_site_fract_y
 _atom_site_fract_z
 _atom_site_occupancy
  Hf  Hf0  1  0.10707582  0.29705391  0.61858275  1
  Hf  Hf1  1  0.59974986  0.00058246  0.49873350  1
  Hf  Hf2  1  0.62079594  0.39822593  0.01031320  1
  Hf  Hf3  1  0.29126851  0.49232385  0.61618353  1
  Hf  Hf4  1  0.48859252  0.71175071  0.62332260  1
  Hf  Hf5  1  0.10243062  0.90514391  0.64453338  1
  Hf  Hf6  1  0.09802639  0.48129466  0.37524868  1
  Hf  Hf7  1  0.80639933  0.79533493  0.24447203  1
  Hf  Hf8  1  0.79521031  0.58456106  0.00823311  1
  Hf  Hf9  1  0.29999691  0.29714111  0.39134784  1
  Hf  Hf10  1  0.80578927  0.00477424  -0.00454422  1
  Hf  Hf11  1  0.19976705  0.43659621  -0.01782166  1
  Hf  Hf12  1  0.20370422  0.01557035  0.26237246  1
  Hf  Hf13  1  -0.01217468  0.18057903  -0.00532191  1
  Hf  Hf14  1  0.69510453  0.09414147  0.36035253  1
  Hf  Hf15  1  0.38699275  0.59161464  -0.00342333  1
  Hf  Hf16  1  0.89292249  0.10767112  0.36688305  1
  Hf  Hf17  1  0.69545506  0.70467301  0.11443439  1
  Hf  Hf18  1  0.80433636  -0.00020614  0.49821861  1
  Hf  Hf19  1  0.71196947  0.09875257  0.63100834  1
  Hf  Hf20  1  0.20007475  0.21580835  0.24673985  1
  Hf  Hf21  1  0.70341155  0.49614457  0.37610192  1
  Hf  Hf22  1  0.71385643  0.30853449  0.61520225  1
  Hf  Hf23  1  0.39372987  0.79552438  0.00147642  1
  Hf  Hf24  1  0.79386514  0.58968047  0.23618793  1
  Hf  Hf25  1  -0.00096365  0.19608884  0.76062299  1
  Hf  Hf26  1  -0.00202108  0.00112650  0.24533004  1
  Hf  Hf27  1  0.40341262  -0.00291927  0.00011666  1
  Hf  Hf28  1  0.89609444  0.69180829  0.37461432  1
  Hf  Hf29  1  0.89496669  0.90656141  0.64315300  1
  Hf  Hf30  1  0.18923213  0.81353083  -0.00167465  1
  Hf  Hf31  1  0.40256501  0.58839962  0.74510748  1
  Hf  Hf32  1  0.40972287  0.19714208  0.74138958  1
  Hf  Hf33  1  0.00022389  0.20217813  0.24267894  1
  Hf  Hf34  1  -0.00082207  0.39437666  0.76303395  1
  Hf  Hf35  1  0.48819456  0.29340279  0.11315378  1
  Hf  Hf36  1  0.02215194  -0.01064999  0.00263761  1
  Hf  Hf37  1  0.09321711  0.89610070  0.36499143  1
  Hf  Hf38  1  0.89641880  0.70367402  0.63815283  1
  Hf  Hf39  1  0.21045987  0.78737290  0.48392695  1
  Zr  Zr40  1  0.89205621  0.70630597  0.88526019  1
  Zr  Zr41  1  0.59818979  0.79853783  0.75669301  1
  Zr  Zr42  1  0.71944617  0.11378652  0.86340403  1
  Zr  Zr43  1  0.80614173  0.38597680  0.25021810  1
  Zr  Zr44  1  0.39462014  0.60982182  0.49620784  1
  Zr  Zr45  1  0.20945491  0.60052549  0.26495525  1
  Zr  Zr46  1  0.00680869  0.00687684  0.49673898  1
  Zr  Zr47  1  0.40165701  -0.00579139  0.75565226  1
  Zr  Zr48  1  0.59644710  0.59566391  0.50852489  1
  Zr  Zr49  1  0.60868471  -0.00252554  0.75547407  1
  Zr  Zr50  1  0.09210287  0.71636972  0.86670662  1
  Zr  Zr51  1  -0.00375114  0.59412355  0.24406200  1
  Zr  Zr52  1  0.30050326  0.09875079  0.88052950  1
  Zr  Zr53  1  0.60295323  0.40300019  0.24153745  1
  Zr  Zr54  1  -0.00844069  0.59144061  0.49999037  1
  Zr  Zr55  1  0.59891725  0.79667988  0.25211927  1
  Zr  Zr56  1  0.59048604  0.20186393  0.50893430  1
  Zr  Zr57  1  0.20905818  0.20571272  0.75269137  1
  Zr  Zr58  1  0.20766754  -0.00509362  0.48526632  1
  Zr  Zr59  1  0.90856118  0.90264731  0.86609732  1
  Zr  Zr60  1  0.60093583  0.21219262  0.74121068  1
  Zr  Zr61  1  0.29919609  0.90080955  0.13324897  1
  Zr  Zr62  1  0.09391309  0.49378334  0.62760192  1
  Zr  Zr63  1  0.09544416  0.30952940  0.10622442  1
  Zr  Zr64  1  0.29617390  0.31578074  0.10605476  1
  Zr  Zr65  1  0.30137977  0.87933533  0.62603694  1
  Zr  Zr66  1  0.11411921  0.70198694  0.63535767  1
  Zr  Zr67  1  0.59114520  0.41317331  0.73880475  1
  Zr  Zr68  1  -0.00422879  0.80168004  0.50222801  1
  Zr  Zr69  1  0.39494881  0.79587633  0.26636518  1
  Zr  Zr70  1  0.39417091  0.38752800  0.74510789  1
  Zr  Zr71  1  0.88395937  0.49100752  0.63852681  1
  Zr  Zr72  1  0.59741716  0.81208661  0.00005579  1
  Zr  Zr73  1  0.01710416  0.59424851  -0.00030721  1
  Zr  Zr74  1  0.59140832  0.20433442  0.24852257  1
  Zr  Zr75  1  0.49905838  0.91101208  0.61699379  1
  Zr  Zr76  1  0.50081262  0.68986740  0.87252253  1
  Zr  Zr77  1  0.49437822  0.50406494  0.12949366  1
  Zr  Zr78  1  0.88922991  0.29900123  0.11270704  1
  Zr  Zr79  1  0.87703041  0.29179053  0.88048849  1
  Ta  Ta80  1  -0.00503948  0.59908424  0.75914788  1
  Ta  Ta81  1  0.30121053  0.10702859  0.11883592  1
  Ta  Ta82  1  0.80825786  0.40474454  0.49453436  1
  Ta  Ta83  1  0.38524952  0.40070095  0.25487458  1
  Ta  Ta84  1  0.49920566  0.31126237  0.38157107  1
  Ta  Ta85  1  0.70816916  0.28980658  0.38797581  1
  Ta  Ta86  1  0.49761263  0.49911666  0.37209280  1
  Ta  Ta87  1  0.19228388  0.18434837  0.00057269  1
  Ta  Ta88  1  0.79488612  0.60030023  0.50419131  1
  Ta  Ta89  1  0.90491557  0.10527794  0.63285818  1
  Ta  Ta90  1  0.30518624  0.09080773  0.61996959  1
  Ta  Ta91  1  0.29263467  0.51514072  0.13072113  1
  Ta  Ta92  1  0.70458283  0.91316212  0.13060525  1
  Ta  Ta93  1  0.89992694  0.89407649  0.11962500  1
  Ta  Ta94  1  0.78381355  0.60214052  0.75778287  1
  Ta  Ta95  1  0.89226559  0.89823609  0.36719719  1
  Ta  Ta96  1  0.51014479  0.91527434  0.36801499  1
  Ta  Ta97  1  0.31050337  0.30453797  0.89655627  1
  Ta  Ta98  1  0.90552350  0.30402620  0.38063465  1
  Ta  Ta99  1  0.69937858  0.69841287  0.37702869  1
  Ta  Ta100  1  0.20052536  0.40209506  0.76921228  1
  Ta  Ta101  1  0.20296178  0.59419651  0.75669146  1
  Ta  Ta102  1  0.30264502  0.48809058  0.38506098  1
  Ta  Ta103  1  0.19671597  0.59266020  0.49044801  1
  Ta  Ta104  1  0.59414965  0.59730128  0.00298860  1
  Ta  Ta105  1  0.60220506  0.19228076  0.00497574  1
  Ta  Ta106  1  0.69995969  0.10130220  0.13651011  1
  Ta  Ta107  1  0.50472512  0.29611960  0.88931427  1
  Ta  Ta108  1  0.29144626  0.69725068  0.87351812  1
  Ta  Ta109  1  0.88999096  0.50161919  0.87140831  1
  Ta  Ta110  1  0.11828404  0.70032766  0.12637953  1
  Ta  Ta111  1  0.10092410  0.89837498  0.13730823  1
  Ta  Ta112  1  0.60244175  0.79946836  0.48831419  1
  Ta  Ta113  1  0.70130267  0.70190757  0.88798148  1
  Ta  Ta114  1  0.40410803  0.01368907  0.25746286  1
  Ta  Ta115  1  0.50601468  0.10473607  0.88378444  1
  Ta  Ta116  1  0.40571694  0.80963063  0.47366608  1
  Ta  Ta117  1  0.70113571  0.70418899  0.62377504  1
  Ta  Ta118  1  0.50632884  0.90834453  0.13498579  1
  Ta  Ta119  1  0.10510730  0.29697424  0.88920611  1
  Ti  Ti120  1  0.00830417  0.39531374  0.24998935  1
  Ti  Ti121  1  0.09604093  0.69423763  0.37239446  1
  Ti  Ti122  1  0.70571493  0.90032127  0.36452862  1
  Ti  Ti123  1  0.40331488  0.60275312  0.26244027  1
  Ti  Ti124  1  0.29056176  0.89963935  0.86962602  1
  Ti  Ti125  1  0.19674488  0.18392462  0.49504154  1
  Ti  Ti126  1  0.60136404  0.40726109  0.50937425  1
  Ti  Ti127  1  0.30151451  0.29003338  0.60567092  1
  Ti  Ti128  1  0.79489272  0.79995407  0.49683516  1
  Ti  Ti129  1  -0.00823909  0.40377349  -0.01699278  1
  Ti  Ti130  1  0.90292860  0.29177408  0.62100684  1
  Ti  Ti131  1  0.70232760  0.89384860  0.62268719  1
  Ti  Ti132  1  0.69281932  0.49946767  0.87606420  1
  Ti  Ti133  1  0.41264584  0.39888302  0.50822325  1
  Ti  Ti134  1  0.39058629  0.79101089  0.75845674  1
  Ti  Ti135  1  0.00322455  0.79197480  0.24193224  1
  Ti  Ti136  1  0.49891911  0.09462227  0.12392418  1
  Ti  Ti137  1  0.48993972  0.11658506  0.37399148  1
  Ti  Ti138  1  0.59589296  0.60364337  0.25124732  1
  Ti  Ti139  1  0.78574010  0.80813428  0.75894847  1
  Ti  Ti140  1  0.09999454  0.28988829  0.38372034  1
  Ti  Ti141  1  0.39217522  0.20515160  0.25031784  1
  Ti  Ti142  1  0.10901402  0.49899444  0.13258205  1
  Ti  Ti143  1  0.78178640  0.20699871  0.00554792  1
  Ti  Ti144  1  0.89017971  0.09385453  0.13316888  1
  Ti  Ti145  1  0.49519995  0.48656475  0.88374766  1
  Ti  Ti146  1  0.90875532  0.70286494  0.11036275  1
  Ti  Ti147  1  0.10818792  0.90769610  0.84879273  1
  Ti  Ti148  1  0.60918880  0.00337971  -0.00410227  1
  Ti  Ti149  1  -0.00335570  0.19564901  0.49991484  1
  Ti  Ti150  1  0.10304041  0.08854198  0.86767371  1
  Ti  Ti151  1  0.50159147  0.90149954  0.87674444  1
  Ti  Ti152  1  0.48831202  0.70129328  0.12596327  1
  Ti  Ti153  1  0.10573236  0.09883519  0.63336512  1
  Ti  Ti154  1  0.00034846  0.39324056  0.50021180  1
  Ti  Ti155  1  0.60215113  0.60025954  0.73913380  1
  Ti  Ti156  1  0.39848370  0.01139021  0.48342120  1
  Ti  Ti157  1  0.78514608  0.39528327  0.75841704  1
  Ti  Ti158  1  0.90632632  0.48919308  0.11744365  1
  Ti  Ti159  1  0.20363232  0.79778061  0.25938447  1
  Mo  Mo160  1  0.20690167  0.00674960  0.74596362  1
  Mo  Mo161  1  0.30430078  0.50345807  0.86769747  1
  Mo  Mo162  1  0.21042382  0.79858343  0.75727413  1
  Mo  Mo163  1  0.80132306  0.40194261  -0.00593690  1
  Mo  Mo164  1  0.00041799  0.79983103  0.01707095  1
  Mo  Mo165  1  0.68918340  0.30732390  0.87395596  1
  Mo  Mo166  1  -0.00243773  0.79634096  0.74792197  1
  Mo  Mo167  1  0.00519610  0.00783547  0.75005812  1
  Mo  Mo168  1  0.40619646  0.40440299  -0.00476270  1
  Mo  Mo169  1  0.20049633  0.40087880  0.25042230  1
  Mo  Mo170  1  0.20125536  0.00143485  0.00294628  1
  Mo  Mo171  1  0.69809226  0.28947685  0.12453915  1
  Mo  Mo172  1  0.59311039  0.00086270  0.24756114  1
  Mo  Mo173  1  0.50025085  0.49895029  0.62076917  1
  Mo  Mo174  1  0.80567263  0.00465563  0.75199191  1
  Mo  Mo175  1  0.49302203  0.09778514  0.61813245  1
  Mo  Mo176  1  0.39680163  0.19411471  0.50641321  1
  Mo  Mo177  1  0.29839525  0.69390653  0.37636516  1
  Mo  Mo178  1  0.30488299  0.10939550  0.37351835  1
  Mo  Mo179  1  0.30673210  0.90519403  0.36646579  1
  Mo  Mo180  1  0.30023855  0.69851816  0.12793217  1
  Mo  Mo181  1  0.70226490  0.89658216  0.88296128  1
  Mo  Mo182  1  0.89973520  0.49016896  0.37741926  1
  Mo  Mo183  1  0.50906133  0.69726017  0.37635157  1
  Mo  Mo184  1  0.79924575  0.80520063  0.00751670  1
  Mo  Mo185  1  0.49399584  0.30410740  0.61179669  1
  Mo  Mo186  1  0.80732306  0.21128450  0.74153273  1
  Mo  Mo187  1  0.90903395  0.09475867  0.86981414  1
  Mo  Mo188  1  0.40403164  0.19452616  0.00173643  1
  Mo  Mo189  1  0.20334302  0.61594173  0.00095964  1
  Mo  Mo190  1  0.70617498  0.50821432  0.62645303  1
  Mo  Mo191  1  0.79859712  0.19913187  0.24720768  1
  Mo  Mo192  1  0.10805309  0.09629041  0.12235331  1
  Mo  Mo193  1  0.70558631  0.49938445  0.12726111  1
  Mo  Mo194  1  0.79945306  -0.00563728  0.24460601  1
  Mo  Mo195  1  0.09430154  0.50571792  0.86646716  1
  Mo  Mo196  1  0.29578876  0.69350659  0.62955317  1
  Mo  Mo197  1  0.81005515  0.20334662  0.49883898  1
  Mo  Mo198  1  0.19788923  0.39468172  0.50029363  1
  Mo  Mo199  1  0.09671693  0.11510592  0.37721497  1
