# generated using pymatgen
data_HfZrTaTiMo
_symmetry_space_group_name_H-M   'P 1'
_cell_length_a   15.16064764
_cell_length_b   15.17211714
_cell_length_c   16.79712572
_cell_angle_alpha   89.94046135
_cell_angle_beta   90.03218192
_cell_angle_gamma   89.93049367
_symmetry_Int_Tables_number   1
_chemical_formula_structural   HfZrTaTiMo
_chemical_formula_sum   'Hf40 Zr40 Ta40 Ti40 Mo40'
_cell_volume   3863.65456988
_cell_formula_units_Z   40
loop_
 _symmetry_equiv_pos_site_id
 _symmetry_equiv_pos_as_xyz
  1  'x, y, z'
loop_
 _atom_site_type_symbol
 _atom_site_label
 _atom_site_symmetry_multiplicity
 _atom_site_fract_x
 _atom_site_fract_y
 _atom_site_fract_z
 _atom_site_occupancy
  Hf  Hf0  1  0.39841814  0.78386829  0.25079900  1
  Hf  Hf1  1  0.10292594  0.88080790  0.37790127  1
  Hf  Hf2  1  0.09718468  0.68972716  0.88319748  1
  Hf  Hf3  1  0.10387358  0.88255479  0.10906356  1
  Hf  Hf4  1  0.48932996  0.50280224  0.86869082  1
  Hf  Hf5  1  0.69965618  0.13218869  0.12965397  1
  Hf  Hf6  1  0.20751611  0.20916241  0.00764120  1
  Hf  Hf7  1  0.20211028  -0.01090999  0.25582908  1
  Hf  Hf8  1  0.10439447  0.09644122  0.62019095  1
  Hf  Hf9  1  0.50234534  0.68055124  0.38028099  1
  Hf  Hf10  1  0.60338333  0.40435390  0.73702419  1
  Hf  Hf11  1  0.59986576  0.01173986  0.24732280  1
  Hf  Hf12  1  0.49946038  0.08427161  0.86119767  1
  Hf  Hf13  1  0.50607551  0.29637386  0.13479069  1
  Hf  Hf14  1  -0.02181827  0.39473925  0.50287997  1
  Hf  Hf15  1  0.68087438  0.71732029  0.88686556  1
  Hf  Hf16  1  0.88939653  0.29341865  0.13560520  1
  Hf  Hf17  1  0.19065222  0.78547398  0.24502237  1
  Hf  Hf18  1  0.59131061  0.80308577  0.73312478  1
  Hf  Hf19  1  0.80397500  0.01069168  0.24629240  1
  Hf  Hf20  1  0.88541870  0.68993511  0.87942621  1
  Hf  Hf21  1  0.10583973  0.30257510  0.88491317  1
  Hf  Hf22  1  0.60213924  0.20877469  0.73453567  1
  Hf  Hf23  1  0.30672398  0.68711718  0.88041186  1
  Hf  Hf24  1  0.78535958  0.60949018  0.73523043  1
  Hf  Hf25  1  0.80496562  0.01830899  0.01502244  1
  Hf  Hf26  1  0.21014734  0.18596923  0.26229139  1
  Hf  Hf27  1  -0.00096798  -0.00493452  0.75885685  1
  Hf  Hf28  1  0.49452117  0.90318215  0.12672185  1
  Hf  Hf29  1  0.49973429  0.09194363  0.61486881  1
  Hf  Hf30  1  0.09063391  0.50702321  0.37337660  1
  Hf  Hf31  1  0.90862888  0.10514091  0.37434698  1
  Hf  Hf32  1  0.70033476  0.70883671  0.39634947  1
  Hf  Hf33  1  0.50231126  0.29813244  0.87278691  1
  Hf  Hf34  1  0.89704112  0.91332294  0.62494868  1
  Hf  Hf35  1  0.32344482  0.89264379  0.87638023  1
  Hf  Hf36  1  0.00962205  0.00008669  0.49564843  1
  Hf  Hf37  1  0.80176450  0.00654989  0.49234473  1
  Hf  Hf38  1  0.69375856  0.90670923  0.38009147  1
  Hf  Hf39  1  0.20200700  0.39962718  0.26321539  1
  Zr  Zr40  1  0.89372969  0.49465566  0.13749048  1
  Zr  Zr41  1  0.00862872  0.79206291  0.50757428  1
  Zr  Zr42  1  0.09911761  0.30080079  0.13497976  1
  Zr  Zr43  1  0.19518906  0.58460410  0.01115953  1
  Zr  Zr44  1  0.19512927  0.58531376  0.75068310  1
  Zr  Zr45  1  0.30785329  0.10042309  0.86877189  1
  Zr  Zr46  1  0.19652851  0.21026860  0.75027745  1
  Zr  Zr47  1  0.81186786  0.40607072  0.74012364  1
  Zr  Zr48  1  0.21354356  0.39654519  0.47937665  1
  Zr  Zr49  1  0.77735693  0.60975975  0.25436082  1
  Zr  Zr50  1  0.39665908  -0.00144963  0.27015295  1
  Zr  Zr51  1  0.67960298  0.52337939  0.11453641  1
  Zr  Zr52  1  0.58693976  0.60522914  0.73454582  1
  Zr  Zr53  1  0.80647421  0.22640617  0.48634763  1
  Zr  Zr54  1  0.30728227  0.50022464  0.62203511  1
  Zr  Zr55  1  0.20336057  0.79521447  0.75359660  1
  Zr  Zr56  1  0.09060997  0.29003885  0.37555257  1
  Zr  Zr57  1  0.32197559  0.09296735  0.12913983  1
  Zr  Zr58  1  0.10363082  0.49619815  0.61384705  1
  Zr  Zr59  1  0.89883564  0.69950671  0.11370889  1
  Zr  Zr60  1  0.00318770  0.61068461  0.25167272  1
  Zr  Zr61  1  0.80180640  0.80680636  0.24177375  1
  Zr  Zr62  1  0.41677127  0.18460642  0.00268659  1
  Zr  Zr63  1  0.30692920  0.29713020  0.61671526  1
  Zr  Zr64  1  0.70522036  0.51385181  0.88212751  1
  Zr  Zr65  1  0.69657475  0.11197380  0.87924142  1
  Zr  Zr66  1  0.21382161  -0.00183867  -0.00102976  1
  Zr  Zr67  1  0.01088628  0.39371845  0.73851310  1
  Zr  Zr68  1  -0.00380719  0.79602039  0.75678281  1
  Zr  Zr69  1  0.88845352  0.70864110  0.62272450  1
  Zr  Zr70  1  -0.00830957  0.20035935  0.75045175  1
  Zr  Zr71  1  0.71062013  0.10465493  0.61386612  1
  Zr  Zr72  1  0.20562378  -0.00424032  0.75600360  1
  Zr  Zr73  1  0.62230922  -0.00637214  0.74207153  1
  Zr  Zr74  1  0.00640400  -0.00905351  0.25106708  1
  Zr  Zr75  1  0.79953079  0.40391412  0.00095556  1
  Zr  Zr76  1  0.21839349  -0.00696440  0.48708907  1
  Zr  Zr77  1  0.79964988  0.81513407  0.00243278  1
  Zr  Zr78  1  0.41060417  0.58510653  0.01261184  1
  Zr  Zr79  1  0.30669845  0.09169823  0.62437823  1
  Ta  Ta80  1  -0.01497643  0.58657572  0.74870181  1
  Ta  Ta81  1  0.10349829  0.89603486  0.89024408  1
  Ta  Ta82  1  0.30676764  0.30420089  0.87059743  1
  Ta  Ta83  1  0.89554098  0.88990590  0.37946291  1
  Ta  Ta84  1  0.41365737  -0.01588554  0.48524928  1
  Ta  Ta85  1  0.59246583  0.21612391  0.50053092  1
  Ta  Ta86  1  0.29806384  0.69856143  0.11968295  1
  Ta  Ta87  1  0.79082851  0.82590367  0.75805547  1
  Ta  Ta88  1  0.51769629  0.89008729  0.88315328  1
  Ta  Ta89  1  0.69262314  0.11546972  0.38086954  1
  Ta  Ta90  1  0.38927342  0.79417116  0.48859628  1
  Ta  Ta91  1  0.09460553  0.09896327  0.88787727  1
  Ta  Ta92  1  0.50412543  0.10509530  0.38323710  1
  Ta  Ta93  1  0.09311014  0.09369719  0.11778740  1
  Ta  Ta94  1  -0.00189975  0.19218427  0.24864545  1
  Ta  Ta95  1  0.58586344  0.40803397  0.00220811  1
  Ta  Ta96  1  0.09253915  0.49074249  0.87792731  1
  Ta  Ta97  1  0.60739015  0.22402566  0.26409941  1
  Ta  Ta98  1  0.09569723  0.49704846  0.13481316  1
  Ta  Ta99  1  0.58846887  0.42589688  0.25550243  1
  Ta  Ta100  1  0.38722353  0.38716541  0.00673420  1
  Ta  Ta101  1  0.11390055  0.89345029  0.62476378  1
  Ta  Ta102  1  0.10384651  0.29153066  0.60594683  1
  Ta  Ta103  1  0.32300527  0.88854666  0.62941124  1
  Ta  Ta104  1  0.70123990  0.30770275  0.87168956  1
  Ta  Ta105  1  0.29025820  0.48368881  0.87421872  1
  Ta  Ta106  1  0.00459252  0.39748737  0.00369220  1
  Ta  Ta107  1  -0.01013421  0.59479560  0.50011694  1
  Ta  Ta108  1  0.47824624  0.70095148  0.61561787  1
  Ta  Ta109  1  0.29386239  0.69715546  0.62411091  1
  Ta  Ta110  1  0.58687459  0.80681639  0.51053123  1
  Ta  Ta111  1  0.20968925  0.59856472  0.24164048  1
  Ta  Ta112  1  0.60454172  0.78958758  0.24543882  1
  Ta  Ta113  1  -0.01095160  0.19366319  0.00347978  1
  Ta  Ta114  1  0.90079246  0.69932945  0.38528745  1
  Ta  Ta115  1  0.19552124  0.61083920  0.49434692  1
  Ta  Ta116  1  0.79705765  0.21122018  0.26735189  1
  Ta  Ta117  1  0.77475710  0.39822798  0.25815353  1
  Ta  Ta118  1  0.30760916  0.29748808  0.14034085  1
  Ta  Ta119  1  0.89339353  0.09769469  0.87478128  1
  Ti  Ti120  1  0.30156574  0.89140049  0.11639360  1
  Ti  Ti121  1  -0.00300390  0.79614698  0.25003614  1
  Ti  Ti122  1  0.00242617  0.19770766  0.49847537  1
  Ti  Ti123  1  0.41510039  0.58465090  0.24123730  1
  Ti  Ti124  1  0.60833329  0.21539972  0.00255791  1
  Ti  Ti125  1  0.79161469  0.41520852  0.49790173  1
  Ti  Ti126  1  0.90014207  0.30615614  0.87839731  1
  Ti  Ti127  1  0.51639117  0.69089574  0.12085943  1
  Ti  Ti128  1  0.88345816  0.50221179  0.36959841  1
  Ti  Ti129  1  0.59898537  0.40892228  0.50610668  1
  Ti  Ti130  1  0.39751067  0.40134365  0.74350271  1
  Ti  Ti131  1  0.41140322  0.39286908  0.49031871  1
  Ti  Ti132  1  0.40250231  0.39336712  0.26036071  1
  Ti  Ti133  1  0.90862936  0.90934868  0.12394656  1
  Ti  Ti134  1  0.09810032  0.69366305  0.63051299  1
  Ti  Ti135  1  -0.01139506  0.58717693  0.00190322  1
  Ti  Ti136  1  0.79124233  0.59933024  0.51299799  1
  Ti  Ti137  1  0.70602160  0.30970166  0.61673916  1
  Ti  Ti138  1  0.31357201  0.50652623  0.37003217  1
  Ti  Ti139  1  0.20600388  0.79465147  0.50289498  1
  Ti  Ti140  1  0.28923963  0.69429498  0.37272842  1
  Ti  Ti141  1  0.39589655  0.59280066  0.49653809  1
  Ti  Ti142  1  0.50425180  0.30537503  0.37552027  1
  Ti  Ti143  1  0.90200878  0.11244729  0.62357668  1
  Ti  Ti144  1  0.38902331  0.19731001  0.48642723  1
  Ti  Ti145  1  0.49388006  0.70306939  0.87689475  1
  Ti  Ti146  1  0.67721403  0.51408958  0.38566754  1
  Ti  Ti147  1  0.59088705  0.01361129  0.01129241  1
  Ti  Ti148  1  0.40633723  0.79464816  0.00690353  1
  Ti  Ti149  1  0.69251717  0.90267023  0.12236371  1
  Ti  Ti150  1  0.70924099  0.91943167  0.88349700  1
  Ti  Ti151  1  0.80115762  0.21182001  -0.00283443  1
  Ti  Ti152  1  0.40672225  0.20448088  0.74116887  1
  Ti  Ti153  1  0.50536594  0.88781563  0.37138606  1
  Ti  Ti154  1  0.80045776  0.20404711  0.74961663  1
  Ti  Ti155  1  0.49563956  0.49561057  0.61835004  1
  Ti  Ti156  1  0.00079203  0.79595901  -0.00726000  1
  Ti  Ti157  1  -0.00521012  -0.00325079  -0.00565673  1
  Ti  Ti158  1  0.70247254  0.89794534  0.60840518  1
  Ti  Ti159  1  0.30171082  0.48617649  0.13364354  1
  Mo  Mo160  1  0.30764934  0.88136446  0.37323735  1
  Mo  Mo161  1  0.49908920  0.89937715  0.61608112  1
  Mo  Mo162  1  0.69603309  0.31655695  0.12769494  1
  Mo  Mo163  1  0.79991766  0.60498978  -0.00287049  1
  Mo  Mo164  1  0.42131111  -0.02683526  0.74483881  1
  Mo  Mo165  1  0.59303322  0.60708055  -0.00704814  1
  Mo  Mo166  1  0.59327619  0.59829477  0.51807545  1
  Mo  Mo167  1  0.68939814  0.32412305  0.38504435  1
  Mo  Mo168  1  0.90664346  0.10488585  0.12962558  1
  Mo  Mo169  1  0.20713338  0.79137257  -0.00157526  1
  Mo  Mo170  1  0.39715558  0.60171425  0.74762861  1
  Mo  Mo171  1  0.68897603  0.71506885  0.10982388  1
  Mo  Mo172  1  0.10279436  0.09659735  0.37912156  1
  Mo  Mo173  1  0.09900129  0.69328839  0.37754436  1
  Mo  Mo174  1  0.79928859  0.80341992  0.49787401  1
  Mo  Mo175  1  0.90092215  0.90482048  0.87919259  1
  Mo  Mo176  1  0.91169484  0.49782979  0.87738285  1
  Mo  Mo177  1  0.80919550  0.00974988  0.75113512  1
  Mo  Mo178  1  0.59793552  0.00401901  0.49211216  1
  Mo  Mo179  1  0.20525772  0.39052863  0.74937614  1
  Mo  Mo180  1  0.10005991  0.69061494  0.11187561  1
  Mo  Mo181  1  0.20409599  0.39730459  0.01143472  1
  Mo  Mo182  1  0.59106004  0.81501818  0.00749281  1
  Mo  Mo183  1  0.49874331  0.30191126  0.61473395  1
  Mo  Mo184  1  0.51103568  0.10305093  0.13636816  1
  Mo  Mo185  1  0.40727108  0.78511399  0.75047024  1
  Mo  Mo186  1  0.89686540  0.29205579  0.62150413  1
  Mo  Mo187  1  0.89548878  0.50369505  0.61722015  1
  Mo  Mo188  1  0.19795998  0.19136972  0.48578255  1
  Mo  Mo189  1  0.30728190  0.09811636  0.38205617  1
  Mo  Mo190  1  0.89672086  0.31512857  0.36027237  1
  Mo  Mo191  1  0.41092399  0.20367793  0.26547491  1
  Mo  Mo192  1  0.49845954  0.49337789  0.38447552  1
  Mo  Mo193  1  -0.01395502  0.39999914  0.25786897  1
  Mo  Mo194  1  0.31440722  0.29667726  0.36947126  1
  Mo  Mo195  1  0.48937466  0.49130255  0.12786287  1
  Mo  Mo196  1  0.69175453  0.71116271  0.61011902  1
  Mo  Mo197  1  0.69605180  0.50345704  0.61305965  1
  Mo  Mo198  1  0.59162541  0.61125035  0.25332381  1
  Mo  Mo199  1  0.42015237  -0.01545270  0.00140276  1
