# generated using pymatgen
data_HfZrTaTiMo
_symmetry_space_group_name_H-M   'P 1'
_cell_length_a   15.18608861
_cell_length_b   15.21333490
_cell_length_c   16.83488283
_cell_angle_alpha   90.02543166
_cell_angle_beta   89.98610155
_cell_angle_gamma   90.05686053
_symmetry_Int_Tables_number   1
_chemical_formula_structural   HfZrTaTiMo
_chemical_formula_sum   'Hf40 Zr40 Ta40 Ti40 Mo40'
_cell_volume   3889.37827578
_cell_formula_units_Z   40
loop_
 _symmetry_equiv_pos_site_id
 _symmetry_equiv_pos_as_xyz
  1  'x, y, z'
loop_
 _atom_site_type_symbol
 _atom_site_label
 _atom_site_symmetry_multiplicity
 _atom_site_fract_x
 _atom_site_fract_y
 _atom_site_fract_z
 _atom_site_occupancy
  Hf  Hf0  1  0.89512225  0.29275023  0.61471538  1
  Hf  Hf1  1  0.81319116  0.38781161  -0.01188465  1
  Hf  Hf2  1  0.60185994  0.21014350  0.74270991  1
  Hf  Hf3  1  0.39881829  0.59721016  0.00990482  1
  Hf  Hf4  1  0.67869773  0.28683219  0.39266069  1
  Hf  Hf5  1  0.79528643  0.58939656  0.75422210  1
  Hf  Hf6  1  0.70924474  0.91590562  0.38443552  1
  Hf  Hf7  1  0.11320166  0.71150742  0.63795225  1
  Hf  Hf8  1  0.50365678  0.31667342  0.60738189  1
  Hf  Hf9  1  0.78310951  0.17397923  0.50507417  1
  Hf  Hf10  1  0.28366777  0.11780834  0.12986600  1
  Hf  Hf11  1  0.29064192  0.32350005  0.13569482  1
  Hf  Hf12  1  0.59899865  -0.01229979  0.74653095  1
  Hf  Hf13  1  0.88980096  0.08407739  0.12317404  1
  Hf  Hf14  1  0.48887818  0.68887825  0.36284932  1
  Hf  Hf15  1  0.51155630  0.90100857  0.89252824  1
  Hf  Hf16  1  0.39896177  0.80898668  0.25348086  1
  Hf  Hf17  1  0.29909559  0.51896547  0.62254221  1
  Hf  Hf18  1  0.89868409  0.87689221  0.39041479  1
  Hf  Hf19  1  0.40545905  0.00798006  0.25934465  1
  Hf  Hf20  1  0.00620447  0.78297038  0.25187226  1
  Hf  Hf21  1  0.79911624  0.59299090  -0.00176514  1
  Hf  Hf22  1  0.31296904  0.49749843  0.86607303  1
  Hf  Hf23  1  0.39905614  0.40660190  0.27394100  1
  Hf  Hf24  1  0.71259573  0.29834449  0.12091689  1
  Hf  Hf25  1  0.38421632  0.21933093  0.74067457  1
  Hf  Hf26  1  0.00334946  -0.00953137  0.51638593  1
  Hf  Hf27  1  0.38634657  -0.00258165  0.75253996  1
  Hf  Hf28  1  0.29011230  0.09920812  0.39233629  1
  Hf  Hf29  1  0.09208290  0.10937082  0.39868791  1
  Hf  Hf30  1  0.78431690  0.19084594  0.25570678  1
  Hf  Hf31  1  0.29653588  0.31373337  0.59962884  1
  Hf  Hf32  1  0.49479471  0.10286196  0.62309195  1
  Hf  Hf33  1  0.49242405  0.10904978  0.86992876  1
  Hf  Hf34  1  0.80086464  0.18001766  -0.01140096  1
  Hf  Hf35  1  -0.00701941  0.19520049  0.25969606  1
  Hf  Hf36  1  0.11020982  0.47325301  0.13064292  1
  Hf  Hf37  1  0.20583662  0.39279253  0.74198641  1
  Hf  Hf38  1  -0.00893836  -0.01226130  0.25567365  1
  Hf  Hf39  1  0.28530584  0.10273832  0.61422657  1
  Zr  Zr40  1  0.51801761  0.11339676  0.38814258  1
  Zr  Zr41  1  0.92254752  0.29238189  0.12025117  1
  Zr  Zr42  1  0.60902928  0.80911568  0.24722060  1
  Zr  Zr43  1  0.11492505  0.89379796  0.38441057  1
  Zr  Zr44  1  0.69968290  0.08791079  0.86621065  1
  Zr  Zr45  1  0.89135333  0.30186961  0.39258479  1
  Zr  Zr46  1  0.71441309  0.89159771  0.61677302  1
  Zr  Zr47  1  -0.00232444  0.38310414  0.75485526  1
  Zr  Zr48  1  0.90485813  0.69474482  0.63396825  1
  Zr  Zr49  1  0.49121922  0.49081387  0.13492390  1
  Zr  Zr50  1  0.91880335  0.50051729  0.10936483  1
  Zr  Zr51  1  0.10031909  0.49542154  0.87397750  1
  Zr  Zr52  1  0.51236192  0.50668392  0.87294285  1
  Zr  Zr53  1  0.80625925  0.80204799  0.75991967  1
  Zr  Zr54  1  0.01999639  0.59021696  0.50285303  1
  Zr  Zr55  1  0.09748710  0.68842987  0.11505357  1
  Zr  Zr56  1  0.26929506  0.10493964  0.86040377  1
  Zr  Zr57  1  0.59030390  0.20392938  0.00545256  1
  Zr  Zr58  1  0.38533619  0.20904506  -0.00132371  1
  Zr  Zr59  1  0.50751986  0.89888581  0.11044216  1
  Zr  Zr60  1  0.60503575  0.39216525  0.24951959  1
  Zr  Zr61  1  0.60453746  0.79446098  0.49285491  1
  Zr  Zr62  1  0.71472346  0.49403247  0.36960765  1
  Zr  Zr63  1  0.71550345  0.70228550  0.36391698  1
  Zr  Zr64  1  0.19381024  0.00893176  0.25340422  1
  Zr  Zr65  1  0.38910105  0.21016612  0.26405810  1
  Zr  Zr66  1  0.80702766  0.59631256  0.50315656  1
  Zr  Zr67  1  0.58957933  0.58640236  0.48853316  1
  Zr  Zr68  1  0.09110791  0.90096948  0.12098213  1
  Zr  Zr69  1  0.39820672  0.80916814  0.75904647  1
  Zr  Zr70  1  0.40971173  0.61536152  0.75120019  1
  Zr  Zr71  1  0.19902680  0.59829736  -0.00270035  1
  Zr  Zr72  1  0.59961587  0.78816642  0.75119481  1
  Zr  Zr73  1  0.88424267  0.08127010  0.38290651  1
  Zr  Zr74  1  0.29864454  0.91041314  0.12074165  1
  Zr  Zr75  1  0.60460080  0.40310465  0.00770415  1
  Zr  Zr76  1  0.58383811  0.19932701  0.23366943  1
  Zr  Zr77  1  0.50471834  0.50849991  0.63222975  1
  Zr  Zr78  1  0.17749706  0.01793029  -0.00274606  1
  Zr  Zr79  1  0.29463310  0.54044352  0.36599375  1
  Ta  Ta80  1  0.70222601  0.49643895  0.87326975  1
  Ta  Ta81  1  0.09615834  0.29954765  0.60514512  1
  Ta  Ta82  1  0.30002613  0.70604507  0.87910379  1
  Ta  Ta83  1  0.29306522  0.30462486  0.87096233  1
  Ta  Ta84  1  0.00265398  0.17796549  -0.00890816  1
  Ta  Ta85  1  0.90068747  0.48624887  0.62660388  1
  Ta  Ta86  1  0.49327610  0.31326516  0.86580551  1
  Ta  Ta87  1  0.39801355  -0.00589833  0.49829400  1
  Ta  Ta88  1  0.09787193  0.91489146  0.86742298  1
  Ta  Ta89  1  0.49311369  0.70771717  0.61664195  1
  Ta  Ta90  1  0.69266499  0.68468649  0.62428460  1
  Ta  Ta91  1  0.91062557  0.68229650  0.37270317  1
  Ta  Ta92  1  0.00136992  -0.01360105  0.73637003  1
  Ta  Ta93  1  0.18843082  0.42908787  0.49439134  1
  Ta  Ta94  1  0.49488925  0.89861858  0.61475613  1
  Ta  Ta95  1  0.18394198  0.22418217  0.26863226  1
  Ta  Ta96  1  0.48630257  0.09566038  0.11758517  1
  Ta  Ta97  1  0.90104111  0.69963700  0.87727020  1
  Ta  Ta98  1  0.60508405  0.60074271  0.02022020  1
  Ta  Ta99  1  0.69299288  0.69339464  0.88618166  1
  Ta  Ta100  1  0.70348183  0.48627329  0.62300174  1
  Ta  Ta101  1  0.69801835  0.29924996  0.87074968  1
  Ta  Ta102  1  0.20591054  0.79425594  0.25204461  1
  Ta  Ta103  1  0.09817239  0.50099919  0.63486410  1
  Ta  Ta104  1  0.60756141  0.00696804  0.23940610  1
  Ta  Ta105  1  0.60960464  0.01056161  0.51051722  1
  Ta  Ta106  1  0.20411616  0.61143819  0.75525392  1
  Ta  Ta107  1  0.20055926  0.80924520  -0.01247484  1
  Ta  Ta108  1  0.39467810  0.80458916  0.49087288  1
  Ta  Ta109  1  0.81645105  0.41108861  0.24133734  1
  Ta  Ta110  1  0.09885825  0.70756147  0.86753084  1
  Ta  Ta111  1  0.50581534  0.70084476  0.89370084  1
  Ta  Ta112  1  0.38844145  0.00409757  -0.01091544  1
  Ta  Ta113  1  0.18176949  0.21968755  -0.00068675  1
  Ta  Ta114  1  0.90337656  0.70370775  0.11187845  1
  Ta  Ta115  1  0.60895292  0.59614516  0.23671665  1
  Ta  Ta116  1  0.50639749  0.90933196  0.38178768  1
  Ta  Ta117  1  -0.00141124  0.80783117  -0.01680546  1
  Ta  Ta118  1  0.39413141  0.79994487  -0.00265031  1
  Ta  Ta119  1  0.71072218  0.70163601  0.12631515  1
  Ti  Ti120  1  0.20943539  0.79796772  0.50333912  1
  Ti  Ti121  1  0.21172383  0.39997939  -0.00539045  1
  Ti  Ti122  1  0.00108484  0.59905222  0.75425036  1
  Ti  Ti123  1  0.71158387  0.88743781  0.89783670  1
  Ti  Ti124  1  0.29195180  0.89773609  0.62229794  1
  Ti  Ti125  1  0.40308145  0.20699541  0.49411533  1
  Ti  Ti126  1  0.79848167  0.38875460  0.75696791  1
  Ti  Ti127  1  0.71278878  0.89835526  0.10764086  1
  Ti  Ti128  1  0.08714895  0.11118478  0.13035257  1
  Ti  Ti129  1  0.02330434  0.37174261  -0.01367418  1
  Ti  Ti130  1  0.38425523  0.62073294  0.50128413  1
  Ti  Ti131  1  0.09962141  0.50048199  0.36366372  1
  Ti  Ti132  1  0.89653970  0.89070802  0.10990640  1
  Ti  Ti133  1  0.41109825  0.42931276  0.47881828  1
  Ti  Ti134  1  0.90956924  0.49084498  0.37721362  1
  Ti  Ti135  1  0.70037092  0.30323639  0.61545663  1
  Ti  Ti136  1  0.49912556  0.70187795  0.12676226  1
  Ti  Ti137  1  -0.00621961  0.58566332  0.24828529  1
  Ti  Ti138  1  0.79002577  -0.01133071  0.24258637  1
  Ti  Ti139  1  0.61122563  0.00888427  0.00714544  1
  Ti  Ti140  1  0.60546381  0.40632060  0.75024382  1
  Ti  Ti141  1  0.08869393  0.30835443  0.40369672  1
  Ti  Ti142  1  0.80842953  -0.00600712  0.75423231  1
  Ti  Ti143  1  0.91307604  0.27548677  0.86882745  1
  Ti  Ti144  1  0.70407325  0.09594058  0.63932367  1
  Ti  Ti145  1  0.80808875  0.19585754  0.75318646  1
  Ti  Ti146  1  0.09822871  0.10352824  0.62450001  1
  Ti  Ti147  1  0.11437998  0.68740406  0.37462834  1
  Ti  Ti148  1  0.81321628  0.79649430  0.24319447  1
  Ti  Ti149  1  0.00963944  0.78392101  0.50044805  1
  Ti  Ti150  1  0.90604558  0.49775260  0.87763740  1
  Ti  Ti151  1  0.07769638  0.11200740  0.84889094  1
  Ti  Ti152  1  0.29230401  0.51857954  0.15098304  1
  Ti  Ti153  1  0.28650467  0.31134330  0.39623377  1
  Ti  Ti154  1  0.20222466  0.81917025  0.75842803  1
  Ti  Ti155  1  0.29747229  0.70672122  0.12450216  1
  Ti  Ti156  1  0.01333920  0.38381717  0.25721789  1
  Ti  Ti157  1  0.40311585  0.39681590  0.00302501  1
  Ti  Ti158  1  0.89700964  0.09061390  0.63046273  1
  Ti  Ti159  1  0.91263454  0.88307887  0.62220447  1
  Mo  Mo160  1  0.60409789  0.79129936  0.00917280  1
  Mo  Mo161  1  0.29040793  0.71929428  0.37267149  1
  Mo  Mo162  1  0.00696994  0.80190186  0.76342016  1
  Mo  Mo163  1  0.39650342  0.61808939  0.23331923  1
  Mo  Mo164  1  0.19142064  0.00012486  0.74066661  1
  Mo  Mo165  1  0.69202266  0.08929233  0.37428732  1
  Mo  Mo166  1  0.48462423  0.29570236  0.12515031  1
  Mo  Mo167  1  0.30455593  0.71604851  0.62692437  1
  Mo  Mo168  1  0.80644031  -0.01072432  -0.00652305  1
  Mo  Mo169  1  0.90241610  0.90522885  0.87708701  1
  Mo  Mo170  1  0.69580839  0.08594728  0.12007233  1
  Mo  Mo171  1  0.18184599  0.20781911  0.73553351  1
  Mo  Mo172  1  0.18496773  0.61085216  0.24278541  1
  Mo  Mo173  1  0.79665116  0.39949352  0.50488784  1
  Mo  Mo174  1  -0.00652159  0.19397081  0.51490060  1
  Mo  Mo175  1  0.80401177  -0.01139722  0.51673723  1
  Mo  Mo176  1  -0.00998031  0.00248884  -0.00752598  1
  Mo  Mo177  1  0.40370685  0.39763392  0.74666125  1
  Mo  Mo178  1  0.90356421  0.08886195  0.85832836  1
  Mo  Mo179  1  -0.00186307  0.40607608  0.50374058  1
  Mo  Mo180  1  0.59675914  0.19684111  0.52343323  1
  Mo  Mo181  1  0.19935229  0.61503939  0.50706514  1
  Mo  Mo182  1  0.50569673  0.50803727  0.35888175  1
  Mo  Mo183  1  0.61073700  0.60348352  0.75071396  1
  Mo  Mo184  1  -0.00517479  0.19117673  0.73081246  1
  Mo  Mo185  1  0.81676006  0.60359866  0.24021838  1
  Mo  Mo186  1  0.49157389  0.31254011  0.39918764  1
  Mo  Mo187  1  0.10886162  0.90107567  0.62715531  1
  Mo  Mo188  1  0.10680117  0.28552657  0.86791307  1
  Mo  Mo189  1  0.29484553  0.90339140  0.88261817  1
  Mo  Mo190  1  0.71326840  0.50231401  0.13388505  1
  Mo  Mo191  1  0.20248674  -0.00773941  0.51092371  1
  Mo  Mo192  1  0.19575696  0.40044635  0.27359438  1
  Mo  Mo193  1  -0.00168366  0.60716612  -0.01618084  1
  Mo  Mo194  1  0.19646861  0.20985666  0.49519365  1
  Mo  Mo195  1  0.10543439  0.28876184  0.12921840  1
  Mo  Mo196  1  0.60217602  0.40416856  0.49618223  1
  Mo  Mo197  1  0.30604665  0.90280496  0.37934106  1
  Mo  Mo198  1  0.80349038  0.79196659  -0.00382007  1
  Mo  Mo199  1  0.81593731  0.78671135  0.50331833  1
