# generated using pymatgen
data_HfZrTaTiMo
_symmetry_space_group_name_H-M   'P 1'
_cell_length_a   15.20494858
_cell_length_b   15.21169019
_cell_length_c   16.87131885
_cell_angle_alpha   90.00815982
_cell_angle_beta   90.02520127
_cell_angle_gamma   90.00773171
_symmetry_Int_Tables_number   1
_chemical_formula_structural   HfZrTaTiMo
_chemical_formula_sum   'Hf40 Zr40 Ta40 Ti40 Mo40'
_cell_volume   3902.21694299
_cell_formula_units_Z   40
loop_
 _symmetry_equiv_pos_site_id
 _symmetry_equiv_pos_as_xyz
  1  'x, y, z'
loop_
 _atom_site_type_symbol
 _atom_site_label
 _atom_site_symmetry_multiplicity
 _atom_site_fract_x
 _atom_site_fract_y
 _atom_site_fract_z
 _atom_site_occupancy
  Hf  Hf0  1  -0.00831165  -0.02314103  0.24586269  1
  Hf  Hf1  1  0.10635895  0.30259581  0.87781436  1
  Hf  Hf2  1  0.30550507  0.89553619  0.37945445  1
  Hf  Hf3  1  0.00535689  0.20027829  0.01127923  1
  Hf  Hf4  1  0.59281623  0.77249375  0.74648812  1
  Hf  Hf5  1  0.79544506  0.19290890  0.23851588  1
  Hf  Hf6  1  0.41505736  0.20295136  0.23952928  1
  Hf  Hf7  1  0.89795632  0.69721625  0.87277636  1
  Hf  Hf8  1  0.59496785  0.60291198  0.00996117  1
  Hf  Hf9  1  0.80275895  0.40257535  0.24917744  1
  Hf  Hf10  1  0.79554174  0.20240727  0.00961322  1
  Hf  Hf11  1  0.70176406  0.28107957  0.37515994  1
  Hf  Hf12  1  0.41338679  0.60823644  0.75420377  1
  Hf  Hf13  1  0.59159523  0.39928645  0.48771449  1
  Hf  Hf14  1  0.20279317  0.79712444  0.50572513  1
  Hf  Hf15  1  0.19845863  0.60836936  0.00659710  1
  Hf  Hf16  1  0.80788207  0.60502097  0.25743077  1
  Hf  Hf17  1  0.28950329  0.12047332  0.61447656  1
  Hf  Hf18  1  0.80789701  0.38950129  0.49562478  1
  Hf  Hf19  1  0.70033510  0.29652933  0.62112849  1
  Hf  Hf20  1  0.80914528  0.40561394  0.01938716  1
  Hf  Hf21  1  0.09869326  0.70398218  0.87003029  1
  Hf  Hf22  1  0.69513006  0.89845870  0.86889729  1
  Hf  Hf23  1  0.20052938  -0.00266365  0.25959401  1
  Hf  Hf24  1  0.40940205  0.19846550  0.01521125  1
  Hf  Hf25  1  0.91374193  0.29584007  0.36397096  1
  Hf  Hf26  1  0.30283510  0.50119200  0.88337991  1
  Hf  Hf27  1  0.21033368  0.40580829  0.74999676  1
  Hf  Hf28  1  0.31086981  0.32180451  0.35435550  1
  Hf  Hf29  1  0.68612424  0.51354007  0.61312364  1
  Hf  Hf30  1  0.66753470  0.08868091  0.10976833  1
  Hf  Hf31  1  0.31316014  0.70107856  0.62340740  1
  Hf  Hf32  1  0.18509931  0.01665346  0.49013478  1
  Hf  Hf33  1  0.91554827  0.70921828  0.38560925  1
  Hf  Hf34  1  0.09161823  0.50529800  0.87461392  1
  Hf  Hf35  1  0.90168824  0.49877007  0.61091457  1
  Hf  Hf36  1  0.59688970  0.39339164  0.01225670  1
  Hf  Hf37  1  0.79068386  0.61347359  0.49025954  1
  Hf  Hf38  1  0.89054220  0.49845029  0.87281942  1
  Hf  Hf39  1  0.79453743  0.39990668  0.73841870  1
  Zr  Zr40  1  0.20291690  0.39588373  0.48985090  1
  Zr  Zr41  1  0.80310215  0.80324161  0.74487582  1
  Zr  Zr42  1  0.79077423  -0.01778840  0.00488790  1
  Zr  Zr43  1  0.59672927  -0.00431788  0.52091391  1
  Zr  Zr44  1  0.90477146  0.29070160  0.87009828  1
  Zr  Zr45  1  0.01853868  0.20325600  0.48792516  1
  Zr  Zr46  1  -0.01672877  0.00637413  0.50472035  1
  Zr  Zr47  1  0.00093222  0.40131758  0.74415119  1
  Zr  Zr48  1  0.10507478  0.50481470  0.61601219  1
  Zr  Zr49  1  -0.01060742  0.59515454  0.01449810  1
  Zr  Zr50  1  0.08522216  0.88881080  0.38154421  1
  Zr  Zr51  1  0.30373412  0.07814306  0.12772420  1
  Zr  Zr52  1  0.60764015  0.78740951  0.49976518  1
  Zr  Zr53  1  0.39873842  -0.00214758  0.51404276  1
  Zr  Zr54  1  0.39054108  0.81163014  0.24298281  1
  Zr  Zr55  1  0.60905683  0.82214582  0.24741749  1
  Zr  Zr56  1  0.40335772  0.38779480  0.74976325  1
  Zr  Zr57  1  0.20012547  0.39922987  0.01039348  1
  Zr  Zr58  1  0.90397420  0.08831007  0.12367461  1
  Zr  Zr59  1  0.11518513  0.29562366  0.62317605  1
  Zr  Zr60  1  0.50600956  0.50669475  0.88032511  1
  Zr  Zr61  1  0.22499953  0.20131785  0.75946702  1
  Zr  Zr62  1  0.09756990  0.10295138  0.87355136  1
  Zr  Zr63  1  0.60262256  0.80772884  0.00525090  1
  Zr  Zr64  1  0.72256114  0.09097318  0.64517687  1
  Zr  Zr65  1  -0.01523485  -0.00144218  0.74816889  1
  Zr  Zr66  1  0.59364955  0.21061825  0.74716010  1
  Zr  Zr67  1  0.30028791  0.11748311  0.37419860  1
  Zr  Zr68  1  0.58130281  0.39182415  0.25396582  1
  Zr  Zr69  1  0.58635921  -0.01907593  0.73748964  1
  Zr  Zr70  1  0.49966140  0.70449377  0.13674792  1
  Zr  Zr71  1  0.21134913  0.80753723  0.74728434  1
  Zr  Zr72  1  0.00728788  0.60549222  0.24760960  1
  Zr  Zr73  1  0.49469465  0.09563543  0.87631490  1
  Zr  Zr74  1  0.69487403  0.50684208  0.13701235  1
  Zr  Zr75  1  0.70088528  0.30580691  0.87334074  1
  Zr  Zr76  1  0.88583182  0.08896339  0.36451451  1
  Zr  Zr77  1  0.77717979  -0.01334111  0.23540586  1
  Zr  Zr78  1  0.59591780  0.60043615  0.26546373  1
  Zr  Zr79  1  0.38415815  0.00337382  0.74173881  1
  Ta  Ta80  1  0.70133071  0.10111093  0.87065303  1
  Ta  Ta81  1  0.90793617  0.86589451  0.10796162  1
  Ta  Ta82  1  0.78686297  0.60246767  0.74237662  1
  Ta  Ta83  1  0.20488343  0.19650001  0.01116792  1
  Ta  Ta84  1  0.00201642  0.80042528  0.73417035  1
  Ta  Ta85  1  0.80485407  0.18003537  0.49973111  1
  Ta  Ta86  1  0.30541832  0.50314403  0.62012425  1
  Ta  Ta87  1  0.60059175  0.19389645  0.50558486  1
  Ta  Ta88  1  0.11462591  0.29066259  0.34903498  1
  Ta  Ta89  1  0.10450058  0.90733008  0.62439951  1
  Ta  Ta90  1  0.49845423  0.92943142  0.11519348  1
  Ta  Ta91  1  0.20234143  0.81131790  -0.00375221  1
  Ta  Ta92  1  0.30181597  0.30639585  0.13543704  1
  Ta  Ta93  1  0.10039943  0.89884396  0.87455763  1
  Ta  Ta94  1  0.69319681  0.68905543  0.87733204  1
  Ta  Ta95  1  0.39439182  0.59779980  0.48543284  1
  Ta  Ta96  1  0.31351308  0.71143964  0.88050130  1
  Ta  Ta97  1  0.48816574  0.70530984  0.36722143  1
  Ta  Ta98  1  0.90694530  0.27838637  0.62682045  1
  Ta  Ta99  1  0.40841485  0.79590110  0.50014309  1
  Ta  Ta100  1  0.19830993  -0.00030029  0.75295557  1
  Ta  Ta101  1  -0.00327911  0.79898581  0.52371637  1
  Ta  Ta102  1  0.18570676  0.79625504  0.24907213  1
  Ta  Ta103  1  0.70489245  0.91466287  0.38632840  1
  Ta  Ta104  1  0.90650620  0.89123183  0.88498510  1
  Ta  Ta105  1  0.10321187  0.69698231  0.62790034  1
  Ta  Ta106  1  0.08716811  0.72024896  0.12086457  1
  Ta  Ta107  1  0.38921295  0.58578652  0.25068537  1
  Ta  Ta108  1  0.81898163  0.80379500  0.25053783  1
  Ta  Ta109  1  0.00952517  -0.00929668  0.00026643  1
  Ta  Ta110  1  0.79390069  0.60547802  0.00838799  1
  Ta  Ta111  1  0.09128893  0.10655252  0.63612671  1
  Ta  Ta112  1  0.89195073  0.09188587  0.88010831  1
  Ta  Ta113  1  0.49805713  0.30150379  0.88268186  1
  Ta  Ta114  1  0.11047640  0.90541367  0.11915536  1
  Ta  Ta115  1  0.39745068  0.60744059  0.01007921  1
  Ta  Ta116  1  0.20669586  0.60357078  0.75234003  1
  Ta  Ta117  1  0.49230909  0.50141299  0.61804982  1
  Ta  Ta118  1  0.10496213  0.29644595  0.14546738  1
  Ta  Ta119  1  0.40048601  0.21654178  0.49810128  1
  Ti  Ti120  1  0.49926413  0.29181965  0.37670399  1
  Ti  Ti121  1  0.88576602  0.91338934  0.62191628  1
  Ti  Ti122  1  0.01286778  0.60020701  0.49971599  1
  Ti  Ti123  1  0.91248931  0.49878573  0.38565997  1
  Ti  Ti124  1  0.89157468  0.69984863  0.61967262  1
  Ti  Ti125  1  0.10932002  0.69233398  0.38177999  1
  Ti  Ti126  1  0.58621033  0.59637145  0.47460294  1
  Ti  Ti127  1  0.51285251  0.68286744  0.61415050  1
  Ti  Ti128  1  0.71716258  0.71683365  0.12809203  1
  Ti  Ti129  1  0.50661199  0.90316507  0.37856812  1
  Ti  Ti130  1  -0.00598344  0.60500297  0.73997048  1
  Ti  Ti131  1  0.49229926  0.30634060  0.61883415  1
  Ti  Ti132  1  0.20962735  0.42086016  0.24336410  1
  Ti  Ti133  1  0.70035287  0.50312285  0.87672197  1
  Ti  Ti134  1  0.40287155  0.40778343  0.02144824  1
  Ti  Ti135  1  0.51022301  0.09785255  0.38494677  1
  Ti  Ti136  1  0.10349244  0.09991433  0.13316263  1
  Ti  Ti137  1  0.59690845  0.41488181  0.74688006  1
  Ti  Ti138  1  0.21132310  0.00001292  -0.00925295  1
  Ti  Ti139  1  0.41571613  0.00419880  0.25554896  1
  Ti  Ti140  1  0.48564365  0.89037196  0.88313136  1
  Ti  Ti141  1  0.68710409  0.29071923  0.12973242  1
  Ti  Ti142  1  0.00533253  0.40814000  0.25033674  1
  Ti  Ti143  1  0.49388803  0.11670879  0.63003378  1
  Ti  Ti144  1  0.40322080  0.80989325  0.75009269  1
  Ti  Ti145  1  0.39251834  0.80859840  0.00861367  1
  Ti  Ti146  1  0.39952882  0.41011736  0.49211727  1
  Ti  Ti147  1  0.91251485  0.30079871  0.14022264  1
  Ti  Ti148  1  0.00124064  0.39666891  0.01375131  1
  Ti  Ti149  1  0.10657692  0.49868597  0.37755146  1
  Ti  Ti150  1  0.70230331  0.49567840  0.37474459  1
  Ti  Ti151  1  0.29056264  0.70811718  0.12599510  1
  Ti  Ti152  1  0.59960723  0.17920829  0.25326263  1
  Ti  Ti153  1  0.88739466  0.89259472  0.38956231  1
  Ti  Ti154  1  0.29490996  0.69535167  0.37146552  1
  Ti  Ti155  1  0.70091773  0.88270848  0.62342191  1
  Ti  Ti156  1  0.70605477  0.71891439  0.36932395  1
  Ti  Ti157  1  0.20018640  0.60568296  0.24126088  1
  Ti  Ti158  1  0.31233929  0.29027048  0.89017713  1
  Ti  Ti159  1  0.09943184  0.49876668  0.12895580  1
  Mo  Mo160  1  0.30068069  0.90498047  0.87797949  1
  Mo  Mo161  1  0.70255152  0.69260354  0.62073265  1
  Mo  Mo162  1  0.20707895  0.20124640  0.23639663  1
  Mo  Mo163  1  0.48422012  0.49525262  0.37662740  1
  Mo  Mo164  1  0.80562441  0.80671650  0.50599111  1
  Mo  Mo165  1  0.00146940  0.19848059  0.75022109  1
  Mo  Mo166  1  0.79094686  -0.00306594  0.50357483  1
  Mo  Mo167  1  0.90577280  0.49348235  0.13058259  1
  Mo  Mo168  1  0.79993552  0.78533788  -0.00751955  1
  Mo  Mo169  1  0.58615929  0.00401303  0.25598283  1
  Mo  Mo170  1  0.39392966  -0.00877641  -0.00597433  1
  Mo  Mo171  1  0.31597331  0.31187096  0.61529756  1
  Mo  Mo172  1  0.20516318  0.60396076  0.49698300  1
  Mo  Mo173  1  0.40055385  0.40865928  0.23610303  1
  Mo  Mo174  1  0.68854363  0.09558800  0.38140471  1
  Mo  Mo175  1  0.00054690  0.40223689  0.48536946  1
  Mo  Mo176  1  0.69752843  0.89304965  0.11974115  1
  Mo  Mo177  1  0.58914394  0.00192747  -0.01550656  1
  Mo  Mo178  1  0.50749205  0.29667562  0.12411454  1
  Mo  Mo179  1  0.20694363  0.20377589  0.48918203  1
  Mo  Mo180  1  0.09310556  0.10689986  0.35494185  1
  Mo  Mo181  1  0.00684332  0.79910941  -0.00717437  1
  Mo  Mo182  1  0.81343894  0.19376052  0.75626487  1
  Mo  Mo183  1  0.48779555  0.50154781  0.12511837  1
  Mo  Mo184  1  0.00624529  0.19043941  0.24725685  1
  Mo  Mo185  1  0.40348649  0.20549515  0.75268804  1
  Mo  Mo186  1  0.29810703  0.10184632  0.88836787  1
  Mo  Mo187  1  0.48521681  0.87008219  0.62642638  1
  Mo  Mo188  1  0.00073379  0.79830126  0.24995281  1
  Mo  Mo189  1  0.49648162  0.10262902  0.12226440  1
  Mo  Mo190  1  0.49375366  0.70679810  0.88517553  1
  Mo  Mo191  1  0.29572429  0.51153379  0.12219019  1
  Mo  Mo192  1  0.29411452  0.90496967  0.61699250  1
  Mo  Mo193  1  0.28958913  0.51337546  0.36987557  1
  Mo  Mo194  1  0.60301836  0.59184469  0.75091823  1
  Mo  Mo195  1  0.90370070  0.10352090  0.62682038  1
  Mo  Mo196  1  0.79932934  -0.00429652  0.76371724  1
  Mo  Mo197  1  0.89592637  0.69393480  0.12570667  1
  Mo  Mo198  1  0.29319677  0.89306516  0.12406048  1
  Mo  Mo199  1  0.60301423  0.20237432  -0.01027637  1
