# generated using pymatgen
data_HfZrTaTiMo
_symmetry_space_group_name_H-M   'P 1'
_cell_length_a   15.20509387
_cell_length_b   15.22502171
_cell_length_c   16.83031835
_cell_angle_alpha   90.01155520
_cell_angle_beta   90.01703441
_cell_angle_gamma   89.98515764
_symmetry_Int_Tables_number   1
_chemical_formula_structural   HfZrTaTiMo
_chemical_formula_sum   'Hf40 Zr40 Ta40 Ti40 Mo40'
_cell_volume   3896.18270827
_cell_formula_units_Z   40
loop_
 _symmetry_equiv_pos_site_id
 _symmetry_equiv_pos_as_xyz
  1  'x, y, z'
loop_
 _atom_site_type_symbol
 _atom_site_label
 _atom_site_symmetry_multiplicity
 _atom_site_fract_x
 _atom_site_fract_y
 _atom_site_fract_z
 _atom_site_occupancy
  Hf  Hf0  1  0.80494336  0.21069308  -0.00075226  1
  Hf  Hf1  1  0.49436745  0.50406103  0.37182521  1
  Hf  Hf2  1  0.91590067  0.49319036  0.36543039  1
  Hf  Hf3  1  -0.01453674  -0.00353269  0.24801455  1
  Hf  Hf4  1  0.19803960  0.00129474  -0.01063475  1
  Hf  Hf5  1  0.40481530  0.40179767  0.00250979  1
  Hf  Hf6  1  0.59098127  0.60810952  0.23624153  1
  Hf  Hf7  1  0.20200936  0.80576835  0.74219828  1
  Hf  Hf8  1  -0.01402381  0.78368622  0.24611874  1
  Hf  Hf9  1  0.70555152  0.30255513  0.37575142  1
  Hf  Hf10  1  0.78457290  0.01864381  0.24295725  1
  Hf  Hf11  1  0.50428969  0.31788888  0.85752258  1
  Hf  Hf12  1  0.49804426  0.30368598  0.37965676  1
  Hf  Hf13  1  0.90907794  0.69488417  0.88802197  1
  Hf  Hf14  1  0.40282156  0.00665089  0.49272051  1
  Hf  Hf15  1  0.80442893  0.61559423  0.23763791  1
  Hf  Hf16  1  0.09605472  0.31454239  0.37306490  1
  Hf  Hf17  1  0.90249461  0.48734487  0.87398963  1
  Hf  Hf18  1  0.68438716  0.91056997  0.11153068  1
  Hf  Hf19  1  0.37937530  0.40838634  0.73682235  1
  Hf  Hf20  1  0.81232858  0.20780945  0.74961863  1
  Hf  Hf21  1  0.70679940  0.51611233  0.61724577  1
  Hf  Hf22  1  0.11474602  0.30177504  0.14438700  1
  Hf  Hf23  1  0.59284120  0.01071115  -0.01830870  1
  Hf  Hf24  1  0.59780240  0.61317811  0.49871735  1
  Hf  Hf25  1  0.60308898  0.20777557  -0.00597886  1
  Hf  Hf26  1  0.11234121  0.49150547  0.86486597  1
  Hf  Hf27  1  0.18143028  0.01903018  0.74747279  1
  Hf  Hf28  1  0.91490739  0.10882616  0.87232499  1
  Hf  Hf29  1  0.28950424  0.10051418  0.12572046  1
  Hf  Hf30  1  0.79458950  0.60757111  0.75958294  1
  Hf  Hf31  1  0.69170438  0.71524582  0.36997058  1
  Hf  Hf32  1  0.19617508  0.20443128  -0.00077605  1
  Hf  Hf33  1  0.00509036  0.18894032  0.24843119  1
  Hf  Hf34  1  0.61348516  0.19134492  0.24116583  1
  Hf  Hf35  1  0.39369097  -0.00146870  0.25770995  1
  Hf  Hf36  1  0.08099303  0.29056249  0.87050217  1
  Hf  Hf37  1  0.22247855  0.41370310  0.25700684  1
  Hf  Hf38  1  0.00536157  0.78782021  0.73351636  1
  Hf  Hf39  1  0.01311624  0.59346520  0.00411615  1
  Zr  Zr40  1  0.40588656  0.20562282  0.24285492  1
  Zr  Zr41  1  0.59565556  0.19925285  0.50596967  1
  Zr  Zr42  1  0.50901667  0.67564309  0.88546007  1
  Zr  Zr43  1  0.00131418  0.19581096  0.02208386  1
  Zr  Zr44  1  0.78902856  0.80841125  0.23737754  1
  Zr  Zr45  1  0.80359519  0.40767350  0.74033622  1
  Zr  Zr46  1  0.69473907  0.09070577  0.63495191  1
  Zr  Zr47  1  0.00357096  0.00853757  0.01523888  1
  Zr  Zr48  1  0.29137932  0.91163941  0.61493433  1
  Zr  Zr49  1  0.10333057  0.89387344  0.12959066  1
  Zr  Zr50  1  0.50882519  0.89601185  0.64984699  1
  Zr  Zr51  1  0.80830843  0.80420400  0.75821209  1
  Zr  Zr52  1  0.38136226  -0.00323883  0.75837442  1
  Zr  Zr53  1  0.50660184  0.88597612  0.36127347  1
  Zr  Zr54  1  0.88865587  0.68184303  0.61343612  1
  Zr  Zr55  1  0.30946099  0.70405196  0.62724358  1
  Zr  Zr56  1  -0.00238226  0.79757294  0.51065155  1
  Zr  Zr57  1  0.08846546  0.89191338  0.38025502  1
  Zr  Zr58  1  0.29313553  0.89197264  0.12770471  1
  Zr  Zr59  1  0.78860959  -0.00807607  0.49290317  1
  Zr  Zr60  1  0.40713911  0.19867870  0.00203297  1
  Zr  Zr61  1  0.49388325  0.09700915  0.64154672  1
  Zr  Zr62  1  0.09196633  0.88943638  0.87822122  1
  Zr  Zr63  1  0.40861473  0.79350907  0.49364623  1
  Zr  Zr64  1  0.80159685  0.41174885  0.00665085  1
  Zr  Zr65  1  0.61503546  0.78885511  0.76834327  1
  Zr  Zr66  1  0.48891776  0.89452415  0.11803695  1
  Zr  Zr67  1  0.89942000  0.09837276  0.61303786  1
  Zr  Zr68  1  0.00697037  0.39538275  0.01114114  1
  Zr  Zr69  1  0.70706147  0.50705091  0.37886404  1
  Zr  Zr70  1  0.18929858  0.00654794  0.26584741  1
  Zr  Zr71  1  0.89538823  0.89721289  0.89457300  1
  Zr  Zr72  1  0.38153532  0.38883028  0.51423076  1
  Zr  Zr73  1  -0.00832672  -0.01514110  0.73626099  1
  Zr  Zr74  1  0.01603286  0.19243527  0.72843634  1
  Zr  Zr75  1  0.51418408  0.09675587  0.36986424  1
  Zr  Zr76  1  0.40108650  0.59422075  0.50729505  1
  Zr  Zr77  1  0.28992225  0.31016084  0.87184927  1
  Zr  Zr78  1  0.38957818  0.79041376  -0.00529513  1
  Zr  Zr79  1  0.60542881  0.81321192  0.50750914  1
  Ta  Ta80  1  0.21406734  0.21979917  0.48586993  1
  Ta  Ta81  1  0.00695940  0.57835717  0.50584801  1
  Ta  Ta82  1  0.40814679  0.60194496  0.74951561  1
  Ta  Ta83  1  0.20439260  0.41247168  0.01060222  1
  Ta  Ta84  1  0.60052211  0.40011826  0.23965789  1
  Ta  Ta85  1  0.81342600  0.40686279  0.50847326  1
  Ta  Ta86  1  0.21331171  0.20075611  0.27519797  1
  Ta  Ta87  1  0.11643549  0.48108152  0.62665556  1
  Ta  Ta88  1  0.10782157  0.68470293  0.61952318  1
  Ta  Ta89  1  0.59988789  -0.00160508  0.50310088  1
  Ta  Ta90  1  0.79585503  0.01873676  0.00391289  1
  Ta  Ta91  1  0.39475347  0.00471979  -0.01549342  1
  Ta  Ta92  1  0.61043139  0.20311894  0.75730666  1
  Ta  Ta93  1  0.20803456  0.59210437  0.74439367  1
  Ta  Ta94  1  0.89437489  0.10340020  0.38357502  1
  Ta  Ta95  1  0.70059830  0.30496057  0.12767724  1
  Ta  Ta96  1  0.89818736  0.68986751  0.38558348  1
  Ta  Ta97  1  0.39664704  0.77543871  0.25152932  1
  Ta  Ta98  1  0.29682808  0.88861818  0.37643616  1
  Ta  Ta99  1  0.69665199  0.30636165  0.62499707  1
  Ta  Ta100  1  0.79855243  0.40484373  0.24369924  1
  Ta  Ta101  1  0.91419057  0.50854700  0.13863339  1
  Ta  Ta102  1  0.90079576  0.30734489  0.14274947  1
  Ta  Ta103  1  0.49967019  0.29893524  0.63697407  1
  Ta  Ta104  1  0.80278288  0.20987456  0.50077448  1
  Ta  Ta105  1  0.38552108  0.58713336  0.24502168  1
  Ta  Ta106  1  0.78464625  -0.00001021  0.76478450  1
  Ta  Ta107  1  0.09246465  0.10804629  0.39437400  1
  Ta  Ta108  1  0.49629272  0.10538684  0.85905149  1
  Ta  Ta109  1  0.00443359  0.58485517  0.73937097  1
  Ta  Ta110  1  0.49509402  0.89232369  0.87094732  1
  Ta  Ta111  1  0.70845975  0.31221726  0.86972384  1
  Ta  Ta112  1  0.59781149  0.40370164  0.00689754  1
  Ta  Ta113  1  0.09508974  0.68747613  0.37918492  1
  Ta  Ta114  1  0.10026920  0.68953095  0.13305415  1
  Ta  Ta115  1  0.29561133  0.68422257  0.37542665  1
  Ta  Ta116  1  0.89117189  0.90369244  0.11599484  1
  Ta  Ta117  1  0.50877925  0.49885742  0.63433887  1
  Ta  Ta118  1  0.67705861  0.50555836  0.87862038  1
  Ta  Ta119  1  0.29209438  0.68711616  0.12796901  1
  Ti  Ti120  1  0.68875954  0.92141651  0.36106553  1
  Ti  Ti121  1  0.29922393  0.69742938  0.86639291  1
  Ti  Ti122  1  0.80505590  0.20425243  0.24920483  1
  Ti  Ti123  1  0.79332646  0.79691513  0.49767105  1
  Ti  Ti124  1  0.59968065  0.40380759  0.50675192  1
  Ti  Ti125  1  0.11324562  0.50698866  0.14240562  1
  Ti  Ti126  1  0.10501840  0.69009235  0.86623758  1
  Ti  Ti127  1  0.69917689  0.71275085  0.62642377  1
  Ti  Ti128  1  0.90280571  0.29963475  0.37144175  1
  Ti  Ti129  1  0.20935294  0.59921774  -0.00136193  1
  Ti  Ti130  1  0.29173535  0.11011788  0.86977244  1
  Ti  Ti131  1  0.19730146  0.79382852  0.49940489  1
  Ti  Ti132  1  0.69949041  0.89490597  0.89524394  1
  Ti  Ti133  1  0.20063871  0.00066575  0.48648512  1
  Ti  Ti134  1  0.00083112  0.79246549  0.01593641  1
  Ti  Ti135  1  0.50874840  0.09116851  0.12449998  1
  Ti  Ti136  1  0.70348282  0.50968825  0.12047765  1
  Ti  Ti137  1  0.19273240  0.78639741  -0.00209040  1
  Ti  Ti138  1  0.30913606  0.30757099  0.12603097  1
  Ti  Ti139  1  0.87872704  0.89660569  0.62219874  1
  Ti  Ti140  1  0.59196923  0.79706888  0.23179233  1
  Ti  Ti141  1  0.49673415  0.49782285  0.12677233  1
  Ti  Ti142  1  0.39042560  0.20539359  0.74531453  1
  Ti  Ti143  1  0.88683827  0.89253757  0.37400948  1
  Ti  Ti144  1  0.79623639  0.79210461  0.01712896  1
  Ti  Ti145  1  0.40127020  0.59154837  0.01017790  1
  Ti  Ti146  1  -0.00479988  -0.00586587  0.50119785  1
  Ti  Ti147  1  0.51066485  0.69674437  0.64282235  1
  Ti  Ti148  1  0.29795097  0.12123976  0.61100937  1
  Ti  Ti149  1  0.31026437  0.50809394  0.87605826  1
  Ti  Ti150  1  -0.00085229  0.38480500  0.72965921  1
  Ti  Ti151  1  0.70541666  0.69082067  0.90791149  1
  Ti  Ti152  1  0.10837058  0.10144975  0.59489632  1
  Ti  Ti153  1  0.20216412  0.21502663  0.73731330  1
  Ti  Ti154  1  0.29489734  0.89244224  0.87391118  1
  Ti  Ti155  1  0.20422183  0.58634627  0.50213447  1
  Ti  Ti156  1  0.19866318  0.78888585  0.25919481  1
  Ti  Ti157  1  0.40899853  0.39834027  0.24464125  1
  Ti  Ti158  1  0.00451662  0.38560779  0.51253889  1
  Ti  Ti159  1  0.11018641  0.50880850  0.36796131  1
  Mo  Mo160  1  0.49648574  0.49640449  0.87169749  1
  Mo  Mo161  1  0.80454821  0.59932641  0.00864869  1
  Mo  Mo162  1  0.20361893  0.61064137  0.25496194  1
  Mo  Mo163  1  0.59690070  -0.00278881  0.24050135  1
  Mo  Mo164  1  0.49033936  0.69349691  0.11610537  1
  Mo  Mo165  1  0.80534036  0.60228577  0.49052484  1
  Mo  Mo166  1  0.91187636  0.49750900  0.62207238  1
  Mo  Mo167  1  0.89951869  0.30034651  0.61248777  1
  Mo  Mo168  1  0.30021706  0.10261558  0.38663818  1
  Mo  Mo169  1  0.29978765  0.49609257  0.37910017  1
  Mo  Mo170  1  0.70348694  0.90074395  0.63470769  1
  Mo  Mo171  1  0.00549371  0.60192647  0.25141740  1
  Mo  Mo172  1  0.00329296  0.40217804  0.24668653  1
  Mo  Mo173  1  0.90093294  0.69774496  0.11109356  1
  Mo  Mo174  1  0.89900637  0.30367660  0.87104197  1
  Mo  Mo175  1  0.39745850  0.79220191  0.76695933  1
  Mo  Mo176  1  0.19176808  0.41339985  0.49067695  1
  Mo  Mo177  1  0.11000408  0.10423009  0.13879243  1
  Mo  Mo178  1  0.28384686  0.30496274  0.62681215  1
  Mo  Mo179  1  0.70289803  0.10635424  0.86990062  1
  Mo  Mo180  1  0.10677052  0.10208377  0.86924389  1
  Mo  Mo181  1  0.18625835  0.39897609  0.74969987  1
  Mo  Mo182  1  -0.00157133  0.20068315  0.49398372  1
  Mo  Mo183  1  0.29633339  0.50873103  0.62892608  1
  Mo  Mo184  1  0.39922760  0.20004465  0.50693756  1
  Mo  Mo185  1  0.30913647  0.30451372  0.37197759  1
  Mo  Mo186  1  0.60594833  0.59330663  0.74835195  1
  Mo  Mo187  1  0.68722126  0.70168800  0.10659860  1
  Mo  Mo188  1  0.70796963  0.10907438  0.37939107  1
  Mo  Mo189  1  0.59761280  0.58995639  0.01760394  1
  Mo  Mo190  1  0.59869690  0.79866051  -0.00725980  1
  Mo  Mo191  1  0.60452914  -0.00083590  0.77926962  1
  Mo  Mo192  1  0.30044596  0.49946515  0.11982888  1
  Mo  Mo193  1  0.89162178  0.10431327  0.12925520  1
  Mo  Mo194  1  0.69826987  0.10921254  0.11551323  1
  Mo  Mo195  1  0.49675990  0.69431712  0.36551004  1
  Mo  Mo196  1  0.10856365  0.29018616  0.60802634  1
  Mo  Mo197  1  0.09897120  0.90401138  0.60566683  1
  Mo  Mo198  1  0.50766101  0.30570128  0.12604717  1
  Mo  Mo199  1  0.60265975  0.40266509  0.74329934  1
