# generated using pymatgen
data_HfZrTaTiMo
_symmetry_space_group_name_H-M   'P 1'
_cell_length_a   15.19080590
_cell_length_b   15.19193800
_cell_length_c   16.89252406
_cell_angle_alpha   90.04537938
_cell_angle_beta   89.99252799
_cell_angle_gamma   89.96714891
_symmetry_Int_Tables_number   1
_chemical_formula_structural   HfZrTaTiMo
_chemical_formula_sum   'Hf40 Zr40 Ta40 Ti40 Mo40'
_cell_volume   3898.41732967
_cell_formula_units_Z   40
loop_
 _symmetry_equiv_pos_site_id
 _symmetry_equiv_pos_as_xyz
  1  'x, y, z'
loop_
 _atom_site_type_symbol
 _atom_site_label
 _atom_site_symmetry_multiplicity
 _atom_site_fract_x
 _atom_site_fract_y
 _atom_site_fract_z
 _atom_site_occupancy
  Hf  Hf0  1  0.58363899  0.40129997  -0.00685927  1
  Hf  Hf1  1  0.80425635  0.79226264  0.73744803  1
  Hf  Hf2  1  0.41539841  0.00173677  0.75764010  1
  Hf  Hf3  1  0.29091894  0.90659138  0.87841743  1
  Hf  Hf4  1  0.10575518  0.91027383  0.63745098  1
  Hf  Hf5  1  0.39912228  0.79144946  0.75771595  1
  Hf  Hf6  1  0.71533687  0.10918902  0.37007482  1
  Hf  Hf7  1  0.90525713  0.11281949  0.62957318  1
  Hf  Hf8  1  0.88931562  0.09947840  0.89374032  1
  Hf  Hf9  1  0.30387880  0.08532368  0.36949508  1
  Hf  Hf10  1  0.01865969  0.58771663  0.51115615  1
  Hf  Hf11  1  0.79745894  0.36823050  0.50310170  1
  Hf  Hf12  1  0.00066296  0.78226984  0.26395802  1
  Hf  Hf13  1  0.01034433  0.01526711  0.49786775  1
  Hf  Hf14  1  0.58101675  0.20153733  -0.01246189  1
  Hf  Hf15  1  0.18088260  0.39359861  0.72956249  1
  Hf  Hf16  1  0.79915976  0.80126648  0.25665064  1
  Hf  Hf17  1  0.69956112  0.69638447  0.38062108  1
  Hf  Hf18  1  0.60131286  0.59917620  0.00702981  1
  Hf  Hf19  1  0.29532106  0.47667634  0.86641885  1
  Hf  Hf20  1  0.30086342  0.71646961  0.37591865  1
  Hf  Hf21  1  0.39619047  0.79830090  0.00526491  1
  Hf  Hf22  1  -0.01721584  0.20096765  0.24105546  1
  Hf  Hf23  1  0.20513121  -0.00216553  0.49977427  1
  Hf  Hf24  1  0.00392120  0.01068476  0.76455128  1
  Hf  Hf25  1  0.59361563  -0.00732477  0.49187943  1
  Hf  Hf26  1  0.50669030  0.90341330  0.12650396  1
  Hf  Hf27  1  0.90339461  0.30271674  0.88568223  1
  Hf  Hf28  1  0.70896660  0.70421824  0.88096031  1
  Hf  Hf29  1  0.50761046  0.30552968  0.39010106  1
  Hf  Hf30  1  0.61747565  0.20208062  0.50476818  1
  Hf  Hf31  1  0.20063949  0.40675806  0.26317943  1
  Hf  Hf32  1  0.79090423  0.37362887  0.26302515  1
  Hf  Hf33  1  0.69405780  0.29204938  0.85718684  1
  Hf  Hf34  1  0.20620702  0.60634351  0.74504372  1
  Hf  Hf35  1  0.79776269  0.00142511  0.50180305  1
  Hf  Hf36  1  0.27691877  0.28747911  0.60837140  1
  Hf  Hf37  1  0.22622348  0.20532534  0.01369955  1
  Hf  Hf38  1  0.59752093  0.59254983  0.26114693  1
  Hf  Hf39  1  0.40450180  0.02117078  -0.00183497  1
  Zr  Zr40  1  0.40172150  0.18951484  0.50288816  1
  Zr  Zr41  1  0.29114155  0.30014116  0.38970895  1
  Zr  Zr42  1  0.39992437  0.41400305  0.27234270  1
  Zr  Zr43  1  0.41642409  0.59075961  0.75063132  1
  Zr  Zr44  1  0.50943521  0.08871328  0.62383433  1
  Zr  Zr45  1  0.48528558  0.30552615  0.84901936  1
  Zr  Zr46  1  0.10557646  0.31494995  0.11905067  1
  Zr  Zr47  1  0.01791367  -0.01533116  -0.00859374  1
  Zr  Zr48  1  0.10524541  0.88512875  0.13195405  1
  Zr  Zr49  1  0.81724814  0.58969051  0.26521649  1
  Zr  Zr50  1  -0.00345809  0.60157456  0.74079609  1
  Zr  Zr51  1  0.68115674  0.50639789  0.85654018  1
  Zr  Zr52  1  0.70602169  0.10565460  0.11573720  1
  Zr  Zr53  1  0.12086598  0.89543943  0.36489750  1
  Zr  Zr54  1  0.51362086  0.89224384  0.88367364  1
  Zr  Zr55  1  0.48838717  0.48808460  0.13510665  1
  Zr  Zr56  1  0.91219580  0.47652973  0.61930170  1
  Zr  Zr57  1  0.38794449  0.37666137  -0.00195407  1
  Zr  Zr58  1  0.90361806  0.89824289  0.62440228  1
  Zr  Zr59  1  0.71092119  0.89675947  0.10956684  1
  Zr  Zr60  1  0.88582240  0.29838623  0.10534197  1
  Zr  Zr61  1  0.78508991  0.40647176  -0.00955617  1
  Zr  Zr62  1  0.12248780  0.31007089  0.88706685  1
  Zr  Zr63  1  0.89952485  0.90400839  0.38088124  1
  Zr  Zr64  1  0.49443509  0.70022827  0.13985607  1
  Zr  Zr65  1  0.19861897  0.19810250  0.24650351  1
  Zr  Zr66  1  0.78788410  -0.00086074  0.75495749  1
  Zr  Zr67  1  0.28727262  0.69701292  0.88069313  1
  Zr  Zr68  1  0.70510910  0.70186713  0.12572349  1
  Zr  Zr69  1  0.49597358  0.11613925  0.13678199  1
  Zr  Zr70  1  0.00260672  0.42724701  -0.00649867  1
  Zr  Zr71  1  0.11056887  0.71008911  0.62578570  1
  Zr  Zr72  1  0.90168180  0.09121948  0.10369371  1
  Zr  Zr73  1  0.39219912  0.20452022  0.72943080  1
  Zr  Zr74  1  0.17334763  0.41001031  0.50457501  1
  Zr  Zr75  1  0.09321915  0.51902602  0.13283568  1
  Zr  Zr76  1  0.70222349  0.49240461  0.13316609  1
  Zr  Zr77  1  0.71487032  0.89788846  0.89304357  1
  Zr  Zr78  1  -0.01190022  0.40861107  0.26009912  1
  Zr  Zr79  1  0.39523438  0.58441080  -0.00456349  1
  Ta  Ta80  1  0.17464670  0.19131576  0.49108665  1
  Ta  Ta81  1  0.00720857  0.80473902  0.49771750  1
  Ta  Ta82  1  0.60247594  0.79069069  0.74531956  1
  Ta  Ta83  1  0.79379155  0.59873816  0.73517049  1
  Ta  Ta84  1  0.60877022  -0.00139516  0.25105537  1
  Ta  Ta85  1  0.58352223  0.79806920  0.49558137  1
  Ta  Ta86  1  0.30813804  0.12089778  0.87283457  1
  Ta  Ta87  1  0.27975518  0.70118750  0.12198012  1
  Ta  Ta88  1  0.20780983  0.01226027  0.75518828  1
  Ta  Ta89  1  0.61125845  0.21158159  0.25604546  1
  Ta  Ta90  1  0.21479603  0.80371241  0.50560562  1
  Ta  Ta91  1  0.32137939  0.30144005  0.13950206  1
  Ta  Ta92  1  0.89904361  0.50903894  0.12626498  1
  Ta  Ta93  1  0.68856348  0.89768177  0.37054917  1
  Ta  Ta94  1  0.40703558  0.20687167  0.26291247  1
  Ta  Ta95  1  0.80582016  0.39660091  0.74664371  1
  Ta  Ta96  1  0.81388649  0.60029741  -0.00157951  1
  Ta  Ta97  1  0.30272832  0.89597595  0.63605731  1
  Ta  Ta98  1  0.29455548  0.08664367  0.62180168  1
  Ta  Ta99  1  0.69831926  0.28926538  0.64544320  1
  Ta  Ta100  1  0.10605560  0.11954732  0.63219740  1
  Ta  Ta101  1  0.51374954  0.68722970  0.87772506  1
  Ta  Ta102  1  0.00341169  -0.00125006  0.24542409  1
  Ta  Ta103  1  0.50711629  0.09557290  0.36561112  1
  Ta  Ta104  1  0.49688232  0.71565762  0.36050086  1
  Ta  Ta105  1  0.90828974  0.69801009  0.12509813  1
  Ta  Ta106  1  0.09775610  0.09865525  0.36112549  1
  Ta  Ta107  1  0.90377378  0.68930955  0.40231631  1
  Ta  Ta108  1  0.40011185  0.40998417  0.51285626  1
  Ta  Ta109  1  0.22267173  -0.01364638  0.23433415  1
  Ta  Ta110  1  0.50331202  0.51968013  0.61223125  1
  Ta  Ta111  1  0.81058143  0.00383962  0.24738561  1
  Ta  Ta112  1  0.00860325  0.21946327  0.75800543  1
  Ta  Ta113  1  0.78816427  0.79741681  0.50248547  1
  Ta  Ta114  1  0.91657221  0.87982065  0.87507470  1
  Ta  Ta115  1  0.37698640  0.81975955  0.23788321  1
  Ta  Ta116  1  0.28741276  0.50136855  0.12786605  1
  Ta  Ta117  1  0.21037718  0.00333629  0.00921982  1
  Ta  Ta118  1  0.89293969  0.69311554  0.60488574  1
  Ta  Ta119  1  0.59857451  0.40103380  0.51777757  1
  Ti  Ti120  1  0.59592730  0.39584765  0.26047777  1
  Ti  Ti121  1  0.17865523  0.80057267  -0.00779858  1
  Ti  Ti122  1  0.09319007  0.50940470  0.37212250  1
  Ti  Ti123  1  0.68931805  0.69313142  0.61393853  1
  Ti  Ti124  1  0.10603291  0.69499690  0.38792251  1
  Ti  Ti125  1  0.07901571  0.29641294  0.37355550  1
  Ti  Ti126  1  0.80637314  0.19411844  0.75672396  1
  Ti  Ti127  1  0.18860675  0.59589077  -0.00467839  1
  Ti  Ti128  1  0.90611459  0.10920161  0.37401235  1
  Ti  Ti129  1  0.49828073  0.88632828  0.62875747  1
  Ti  Ti130  1  0.00084374  0.62029434  -0.01189286  1
  Ti  Ti131  1  0.90456064  0.69823836  0.86753172  1
  Ti  Ti132  1  0.60446358  0.00633216  -0.00447121  1
  Ti  Ti133  1  0.40017568  -0.02024558  0.50010910  1
  Ti  Ti134  1  0.09267703  0.69874781  0.12702912  1
  Ti  Ti135  1  0.29316101  0.51805382  0.39467904  1
  Ti  Ti136  1  0.58632756  0.41310761  0.72873822  1
  Ti  Ti137  1  0.29299400  0.51563559  0.61056331  1
  Ti  Ti138  1  0.40741434  0.62390184  0.49849344  1
  Ti  Ti139  1  0.60162763  0.60323527  0.49607923  1
  Ti  Ti140  1  0.69585256  0.48809639  0.39036175  1
  Ti  Ti141  1  0.19153316  0.61197225  0.25587696  1
  Ti  Ti142  1  0.49711194  0.51160867  0.39278354  1
  Ti  Ti143  1  0.01648393  0.19768261  0.00149803  1
  Ti  Ti144  1  0.68626272  0.29557529  0.12017639  1
  Ti  Ti145  1  0.10743824  0.09516321  0.12780264  1
  Ti  Ti146  1  0.09624684  0.51482353  0.86778802  1
  Ti  Ti147  1  0.70376876  0.09191811  0.62880833  1
  Ti  Ti148  1  0.31738823  0.70736541  0.61902934  1
  Ti  Ti149  1  -0.01514022  0.21681275  0.49963080  1
  Ti  Ti150  1  0.48672375  0.90163879  0.35896717  1
  Ti  Ti151  1  0.89810925  0.48999237  0.39704245  1
  Ti  Ti152  1  0.39142367  0.40275600  0.71635891  1
  Ti  Ti153  1  0.38292051  0.60622065  0.25430778  1
  Ti  Ti154  1  0.89247654  0.50794900  0.86359177  1
  Ti  Ti155  1  0.11582612  0.10442867  0.87966219  1
  Ti  Ti156  1  0.70417919  0.50047567  0.62175117  1
  Ti  Ti157  1  0.60015794  0.16972563  0.75509951  1
  Ti  Ti158  1  0.68734978  0.89556922  0.62238063  1
  Ti  Ti159  1  0.90405567  0.89032171  0.11832539  1
  Mo  Mo160  1  0.89608038  0.29189670  0.63725878  1
  Mo  Mo161  1  0.50569236  0.70626306  0.62105387  1
  Mo  Mo162  1  0.80800825  -0.00753610  -0.00302906  1
  Mo  Mo163  1  0.78217428  0.20234393  -0.01138456  1
  Mo  Mo164  1  -0.00614246  0.40401900  0.76544391  1
  Mo  Mo165  1  0.19373168  0.19453413  0.74907043  1
  Mo  Mo166  1  0.30104530  0.89692357  0.10679939  1
  Mo  Mo167  1  0.50613425  0.30237002  0.13805500  1
  Mo  Mo168  1  0.20744570  0.41642883  0.00724540  1
  Mo  Mo169  1  0.49669515  0.49822688  0.86517929  1
  Mo  Mo170  1  0.21279348  0.60927593  0.50251996  1
  Mo  Mo171  1  0.69526492  0.30060169  0.37949032  1
  Mo  Mo172  1  -0.00357431  0.39137555  0.48664362  1
  Mo  Mo173  1  0.08696784  0.71838210  0.86330589  1
  Mo  Mo174  1  0.40516481  0.00612455  0.24359353  1
  Mo  Mo175  1  0.79555762  0.59219297  0.50368579  1
  Mo  Mo176  1  -0.00086810  0.80021845  0.74709547  1
  Mo  Mo177  1  0.79785834  0.18918852  0.24448086  1
  Mo  Mo178  1  0.00294657  0.78944018  -0.00141453  1
  Mo  Mo179  1  0.30801366  0.90053830  0.37123645  1
  Mo  Mo180  1  0.89025663  0.28071249  0.37461327  1
  Mo  Mo181  1  0.10338721  0.50163310  0.62867022  1
  Mo  Mo182  1  0.30263239  0.09988261  0.13558975  1
  Mo  Mo183  1  0.59617488  0.79302025  -0.00002661  1
  Mo  Mo184  1  0.29442978  0.29785436  0.86113676  1
  Mo  Mo185  1  0.59479756  0.80625772  0.25761202  1
  Mo  Mo186  1  0.60861502  0.60490919  0.73856003  1
  Mo  Mo187  1  0.10809954  0.89928946  0.86344311  1
  Mo  Mo188  1  0.80236330  0.18793221  0.50948098  1
  Mo  Mo189  1  0.69576059  0.09790324  0.88362027  1
  Mo  Mo190  1  0.50605215  0.09774101  0.86656556  1
  Mo  Mo191  1  0.06854806  0.30109967  0.62233476  1
  Mo  Mo192  1  0.40557162  0.81080604  0.49941370  1
  Mo  Mo193  1  -0.00221715  0.60419760  0.26645567  1
  Mo  Mo194  1  0.50508935  0.30879593  0.62480947  1
  Mo  Mo195  1  0.60814940  -0.01745237  0.74669755  1
  Mo  Mo196  1  0.40282019  0.20106573  -0.00073809  1
  Mo  Mo197  1  0.20142380  0.78826354  0.24518654  1
  Mo  Mo198  1  0.82459746  0.78678628  0.00048203  1
  Mo  Mo199  1  0.20358519  0.80796622  0.75082439  1
