# generated using pymatgen
data_HfZrTaTiMo
_symmetry_space_group_name_H-M   'P 1'
_cell_length_a   15.22009026
_cell_length_b   15.21545201
_cell_length_c   16.83118900
_cell_angle_alpha   90.07534271
_cell_angle_beta   90.00580321
_cell_angle_gamma   89.99964662
_symmetry_Int_Tables_number   1
_chemical_formula_structural   HfZrTaTiMo
_chemical_formula_sum   'Hf40 Zr40 Ta40 Ti40 Mo40'
_cell_volume   3897.77266496
_cell_formula_units_Z   40
loop_
 _symmetry_equiv_pos_site_id
 _symmetry_equiv_pos_as_xyz
  1  'x, y, z'
loop_
 _atom_site_type_symbol
 _atom_site_label
 _atom_site_symmetry_multiplicity
 _atom_site_fract_x
 _atom_site_fract_y
 _atom_site_fract_z
 _atom_site_occupancy
  Hf  Hf0  1  0.71282538  0.90275111  0.62293661  1
  Hf  Hf1  1  0.78797780  0.61863494  0.50428432  1
  Hf  Hf2  1  0.18923622  0.01305232  0.02163558  1
  Hf  Hf3  1  0.11970164  0.30334681  0.62730293  1
  Hf  Hf4  1  0.69611661  0.09992918  0.37311422  1
  Hf  Hf5  1  0.29167958  0.48419041  0.62321765  1
  Hf  Hf6  1  0.30093183  0.91850034  0.37151136  1
  Hf  Hf7  1  0.40146920  0.20628519  0.74611503  1
  Hf  Hf8  1  0.40993730  0.41274998  -0.01606980  1
  Hf  Hf9  1  0.59970783  0.20764355  0.74633506  1
  Hf  Hf10  1  0.58329171  0.59477197  0.75316413  1
  Hf  Hf11  1  0.49518647  0.50283719  0.38014097  1
  Hf  Hf12  1  0.59811769  0.19743686  0.51093454  1
  Hf  Hf13  1  0.49848150  0.48842560  0.61800755  1
  Hf  Hf14  1  -0.00242884  0.61498208  0.49438037  1
  Hf  Hf15  1  0.11057176  0.28427146  0.87892902  1
  Hf  Hf16  1  0.09636841  0.90381562  0.88250253  1
  Hf  Hf17  1  0.49584214  0.29743064  0.37420317  1
  Hf  Hf18  1  0.51039819  0.88507397  0.62198167  1
  Hf  Hf19  1  0.69202168  0.88305650  0.13297890  1
  Hf  Hf20  1  0.29121025  0.11189447  0.88265702  1
  Hf  Hf21  1  0.48440471  0.88534213  0.87476922  1
  Hf  Hf22  1  0.10794894  0.09493009  0.35347578  1
  Hf  Hf23  1  0.20968031  0.21415366  0.48790793  1
  Hf  Hf24  1  0.70202193  0.10296755  0.88016336  1
  Hf  Hf25  1  0.51713888  0.28853396  0.10464669  1
  Hf  Hf26  1  0.60496962  0.40894583  0.25140425  1
  Hf  Hf27  1  0.48151397  0.89109598  0.13365511  1
  Hf  Hf28  1  0.59556180  -0.00443596  0.75351565  1
  Hf  Hf29  1  0.01263496  0.19027150  0.49553342  1
  Hf  Hf30  1  0.89737225  0.70504108  0.86797076  1
  Hf  Hf31  1  0.10869378  0.30630495  0.12777878  1
  Hf  Hf32  1  0.23456290  0.20535470  0.25281988  1
  Hf  Hf33  1  0.59297626  0.00061137  0.00604014  1
  Hf  Hf34  1  0.20076485  0.62078248  0.00077840  1
  Hf  Hf35  1  0.91081868  0.88359098  0.61677514  1
  Hf  Hf36  1  0.79015512  0.60079032  -0.00585250  1
  Hf  Hf37  1  0.20303054  0.40741046  -0.01597354  1
  Hf  Hf38  1  0.20704702  0.81186400  0.73972013  1
  Hf  Hf39  1  0.58420230  0.00874299  0.24470644  1
  Zr  Zr40  1  0.58740777  0.78114169  0.00050206  1
  Zr  Zr41  1  -0.00726005  0.41255702  0.25229928  1
  Zr  Zr42  1  0.18673894  0.00275678  0.50092069  1
  Zr  Zr43  1  0.90148655  0.30105132  0.12518607  1
  Zr  Zr44  1  0.40206491  0.79346206  0.48373507  1
  Zr  Zr45  1  -0.00250201  0.60419627  0.25428832  1
  Zr  Zr46  1  0.81441163  -0.00908316  0.75632155  1
  Zr  Zr47  1  0.89508113  0.49984715  0.62284576  1
  Zr  Zr48  1  0.68639116  0.71278020  0.64221888  1
  Zr  Zr49  1  0.91233665  0.09487377  0.14602305  1
  Zr  Zr50  1  0.00842683  0.18638420  0.74147119  1
  Zr  Zr51  1  0.38284279  -0.00404293  0.75019279  1
  Zr  Zr52  1  0.70329168  0.88438790  0.87459466  1
  Zr  Zr53  1  0.80561047  0.19881639  0.74864481  1
  Zr  Zr54  1  0.39091995  0.38391755  0.23859197  1
  Zr  Zr55  1  0.80823841  -0.01201051  0.00928951  1
  Zr  Zr56  1  0.50514685  0.50268968  0.12329973  1
  Zr  Zr57  1  0.41348449  0.40300404  0.76659010  1
  Zr  Zr58  1  0.90482039  0.08108571  0.61736868  1
  Zr  Zr59  1  0.12237793  0.32121585  0.35760312  1
  Zr  Zr60  1  0.10190905  0.70496668  0.86881991  1
  Zr  Zr61  1  0.40232265  0.21796143  0.51870200  1
  Zr  Zr62  1  0.38643648  -0.00996768  0.00811120  1
  Zr  Zr63  1  0.69744271  0.11225725  0.12508756  1
  Zr  Zr64  1  0.79869436  0.39781489  0.75713176  1
  Zr  Zr65  1  0.08873723  0.71555323  0.62888151  1
  Zr  Zr66  1  0.80222500  0.19047792  0.50489249  1
  Zr  Zr67  1  0.78826314  0.58578050  0.24740550  1
  Zr  Zr68  1  0.30970682  0.28494175  0.09724071  1
  Zr  Zr69  1  0.02109717  0.40798539  0.49370196  1
  Zr  Zr70  1  0.30135248  0.89798893  0.60879048  1
  Zr  Zr71  1  0.70467593  0.31356052  0.61971242  1
  Zr  Zr72  1  0.30483229  0.53135185  0.86857742  1
  Zr  Zr73  1  0.09359631  0.50591375  0.64362965  1
  Zr  Zr74  1  0.89513560  0.30089891  0.38255012  1
  Zr  Zr75  1  0.09621814  0.90246186  0.14662032  1
  Zr  Zr76  1  0.29288175  0.48004650  0.37890559  1
  Zr  Zr77  1  0.09773482  0.51052282  0.12099155  1
  Zr  Zr78  1  0.81530787  0.19521703  -0.00071779  1
  Zr  Zr79  1  0.60949927  0.79070857  0.48236075  1
  Ta  Ta80  1  0.91267628  0.30580176  0.61587180  1
  Ta  Ta81  1  0.39732338  0.80054412  0.26471711  1
  Ta  Ta82  1  0.69557754  0.50402157  0.38985837  1
  Ta  Ta83  1  0.40224476  0.62031426  0.00850041  1
  Ta  Ta84  1  0.30122978  0.70860177  0.14144932  1
  Ta  Ta85  1  -0.00182745  0.79918488  0.01062994  1
  Ta  Ta86  1  0.89463210  0.09774765  0.36113263  1
  Ta  Ta87  1  0.21151032  0.39077375  0.76888412  1
  Ta  Ta88  1  0.90891360  0.29305402  0.88227801  1
  Ta  Ta89  1  0.88700455  0.50074711  0.38679416  1
  Ta  Ta90  1  0.79075639  0.78868884  0.25410120  1
  Ta  Ta91  1  0.01949873  0.18701138  0.00664828  1
  Ta  Ta92  1  0.28863019  0.68840363  0.36326485  1
  Ta  Ta93  1  0.89747741  0.88929348  0.14313208  1
  Ta  Ta94  1  -0.01170923  -0.00706925  0.47729877  1
  Ta  Ta95  1  0.48730464  0.09514339  0.38448090  1
  Ta  Ta96  1  -0.00065337  0.40033085  -0.00850127  1
  Ta  Ta97  1  0.49678048  0.08757779  0.62064691  1
  Ta  Ta98  1  0.50069019  0.69799355  0.14472232  1
  Ta  Ta99  1  -0.00621171  0.79489084  0.26142986  1
  Ta  Ta100  1  0.70361951  0.31032495  0.89367715  1
  Ta  Ta101  1  0.19602502  0.60118976  0.50356146  1
  Ta  Ta102  1  0.79247345  -0.00280834  0.24835357  1
  Ta  Ta103  1  0.89736753  0.69903556  0.12608481  1
  Ta  Ta104  1  0.70588056  0.31170239  0.10802997  1
  Ta  Ta105  1  0.38994488  0.60301729  0.50440659  1
  Ta  Ta106  1  0.09267521  0.50625245  0.86500072  1
  Ta  Ta107  1  0.10502771  0.89602742  0.35641921  1
  Ta  Ta108  1  0.91961583  0.09072860  0.87841314  1
  Ta  Ta109  1  0.61185911  0.21310295  0.25074417  1
  Ta  Ta110  1  0.89994578  0.49903249  0.87801265  1
  Ta  Ta111  1  0.00555395  0.80655270  0.47718319  1
  Ta  Ta112  1  0.00027037  0.39259288  0.76009460  1
  Ta  Ta113  1  0.69615640  0.50576826  0.61890743  1
  Ta  Ta114  1  0.88976281  0.70113187  0.37223420  1
  Ta  Ta115  1  0.20771203  0.19564501  0.74564678  1
  Ta  Ta116  1  0.79073896  0.39021223  0.25292232  1
  Ta  Ta117  1  0.49638834  0.09921098  0.87966740  1
  Ta  Ta118  1  0.29250790  0.10562435  0.62196394  1
  Ta  Ta119  1  0.79191170  0.59405330  0.75745254  1
  Ti  Ti120  1  0.17755324  0.00464265  0.73299049  1
  Ti  Ti121  1  0.11030779  0.10940189  0.14859427  1
  Ti  Ti122  1  0.42248399  0.17920195  0.24172820  1
  Ti  Ti123  1  0.68994813  0.68744832  0.13048301  1
  Ti  Ti124  1  0.10148957  0.70704927  0.13308862  1
  Ti  Ti125  1  0.20958596  0.81333247  0.01303053  1
  Ti  Ti126  1  -0.00212831  0.20894438  0.25726954  1
  Ti  Ti127  1  -0.00357542  -0.00467155  0.01262204  1
  Ti  Ti128  1  0.69719510  0.89545477  0.36305581  1
  Ti  Ti129  1  0.48534744  0.69252041  0.87135236  1
  Ti  Ti130  1  0.59445516  0.39687173  0.50052353  1
  Ti  Ti131  1  0.58654033  0.60658092  0.50480964  1
  Ti  Ti132  1  0.59234217  0.59085144  -0.01087333  1
  Ti  Ti133  1  0.39100873  0.60881866  0.73088858  1
  Ti  Ti134  1  0.20047833  0.61087226  0.74484482  1
  Ti  Ti135  1  0.50760242  0.29104976  0.89048192  1
  Ti  Ti136  1  0.29586076  0.50556946  0.12279310  1
  Ti  Ti137  1  0.89365069  0.90472485  0.35872961  1
  Ti  Ti138  1  0.39532522  0.59220044  0.24831619  1
  Ti  Ti139  1  0.90556017  0.89709849  0.87982900  1
  Ti  Ti140  1  0.50644282  0.69315736  0.35636045  1
  Ti  Ti141  1  0.28609062  0.90775894  0.87651294  1
  Ti  Ti142  1  0.19545068  0.79119904  0.49291408  1
  Ti  Ti143  1  0.80263852  0.79385874  0.00885974  1
  Ti  Ti144  1  -0.00215872  0.81274309  0.75143226  1
  Ti  Ti145  1  0.60110392  -0.00548808  0.49583152  1
  Ti  Ti146  1  0.69002190  0.69754662  0.86290101  1
  Ti  Ti147  1  0.80684184  0.81176783  0.48332227  1
  Ti  Ti148  1  0.69806787  0.09045208  0.62347968  1
  Ti  Ti149  1  0.10104598  0.09108452  0.87585078  1
  Ti  Ti150  1  0.30414461  0.72575304  0.87747223  1
  Ti  Ti151  1  0.69852339  0.49379221  0.11390525  1
  Ti  Ti152  1  0.40376018  0.78794214  0.73684715  1
  Ti  Ti153  1  0.89080553  0.49643701  0.11256150  1
  Ti  Ti154  1  0.10948203  0.51977335  0.36704328  1
  Ti  Ti155  1  0.89119184  0.69691042  0.64559589  1
  Ti  Ti156  1  0.70275065  0.30747399  0.38500028  1
  Ti  Ti157  1  0.50090911  0.90577964  0.36775112  1
  Ti  Ti158  1  0.60457339  0.40298629  0.76435122  1
  Ti  Ti159  1  -0.00368657  0.60507624  0.00043591  1
  Mo  Mo160  1  0.69721870  0.69404992  0.37370651  1
  Mo  Mo161  1  0.40893370  0.00664806  0.50362985  1
  Mo  Mo162  1  0.00771084  -0.00830873  0.75279834  1
  Mo  Mo163  1  0.20534200  0.40684136  0.50015357  1
  Mo  Mo164  1  0.48608594  0.69526779  0.62217358  1
  Mo  Mo165  1  0.81033126  0.40688332  -0.00500492  1
  Mo  Mo166  1  0.79464313  0.40868513  0.49970531  1
  Mo  Mo167  1  0.39454639  0.00698690  0.24781984  1
  Mo  Mo168  1  0.60949003  0.40788345  -0.01066386  1
  Mo  Mo169  1  0.30683478  0.29646889  0.88533152  1
  Mo  Mo170  1  0.10252453  0.09496871  0.61632734  1
  Mo  Mo171  1  0.80322763  0.79477695  0.75497898  1
  Mo  Mo172  1  0.29346560  0.69392045  0.61742487  1
  Mo  Mo173  1  0.50869540  0.30294968  0.63375925  1
  Mo  Mo174  1  0.21051151  0.40950433  0.23422891  1
  Mo  Mo175  1  0.31224716  0.09269132  0.12723549  1
  Mo  Mo176  1  0.10355616  0.70172147  0.37466026  1
  Mo  Mo177  1  0.49902623  0.10269431  0.11990932  1
  Mo  Mo178  1  0.60392044  0.19707791  -0.01006674  1
  Mo  Mo179  1  0.38371904  0.78988939  0.00486399  1
  Mo  Mo180  1  0.79145341  0.20857528  0.25525527  1
  Mo  Mo181  1  0.59000131  0.79585605  0.75838090  1
  Mo  Mo182  1  0.08771494  0.90735351  0.61517448  1
  Mo  Mo183  1  0.19901840  0.19361447  0.00773306  1
  Mo  Mo184  1  -0.00949905  0.59633695  0.75716642  1
  Mo  Mo185  1  0.30251166  0.30448043  0.63478605  1
  Mo  Mo186  1  -0.00338304  -0.00108994  0.26259988  1
  Mo  Mo187  1  0.40961749  0.18867459  -0.00715686  1
  Mo  Mo188  1  0.19965185  0.79388707  0.25681014  1
  Mo  Mo189  1  0.40262910  0.40171734  0.50306268  1
  Mo  Mo190  1  0.31764481  0.29183562  0.37084437  1
  Mo  Mo191  1  0.79657125  -0.01380373  0.48324905  1
  Mo  Mo192  1  0.29341795  0.89301051  0.14584054  1
  Mo  Mo193  1  0.20548173  0.59780033  0.24290676  1
  Mo  Mo194  1  0.59863757  0.60034925  0.25230839  1
  Mo  Mo195  1  0.69892430  0.50545135  0.87709834  1
  Mo  Mo196  1  0.31426144  0.10823666  0.37874064  1
  Mo  Mo197  1  0.59727712  0.79692491  0.26018322  1
  Mo  Mo198  1  0.50395479  0.51053901  0.87801881  1
  Mo  Mo199  1  0.21223702  0.00437883  0.24144408  1
