# generated using pymatgen
data_HfZrTaTiMo
_symmetry_space_group_name_H-M   'P 1'
_cell_length_a   15.21190189
_cell_length_b   15.20825467
_cell_length_c   16.82272724
_cell_angle_alpha   89.97755822
_cell_angle_beta   90.01062725
_cell_angle_gamma   89.98106499
_symmetry_Int_Tables_number   1
_chemical_formula_structural   HfZrTaTiMo
_chemical_formula_sum   'Hf40 Zr40 Ta40 Ti40 Mo40'
_cell_volume   3891.87811952
_cell_formula_units_Z   40
loop_
 _symmetry_equiv_pos_site_id
 _symmetry_equiv_pos_as_xyz
  1  'x, y, z'
loop_
 _atom_site_type_symbol
 _atom_site_label
 _atom_site_symmetry_multiplicity
 _atom_site_fract_x
 _atom_site_fract_y
 _atom_site_fract_z
 _atom_site_occupancy
  Hf  Hf0  1  0.50396540  0.10373000  0.11730886  1
  Hf  Hf1  1  0.38834936  0.80541274  0.24885275  1
  Hf  Hf2  1  0.90323295  0.90918931  0.86986405  1
  Hf  Hf3  1  0.90725389  0.90055339  0.11401605  1
  Hf  Hf4  1  0.70351668  0.69610009  0.38035327  1
  Hf  Hf5  1  0.00905015  0.79965899  0.50654994  1
  Hf  Hf6  1  0.70684904  0.69351961  0.13904298  1
  Hf  Hf7  1  0.50254060  0.48240198  0.38038137  1
  Hf  Hf8  1  0.68864371  0.30548610  0.37954519  1
  Hf  Hf9  1  0.11169001  0.90231198  0.64277248  1
  Hf  Hf10  1  0.11466475  0.68906013  0.63579157  1
  Hf  Hf11  1  0.49203011  0.69094946  0.12827664  1
  Hf  Hf12  1  0.31527075  0.28827920  0.37141742  1
  Hf  Hf13  1  0.90539862  0.09225908  0.12068400  1
  Hf  Hf14  1  0.59170295  0.00937188  0.75307366  1
  Hf  Hf15  1  0.59956040  0.61684409  0.73253650  1
  Hf  Hf16  1  -0.00766457  0.40104294  0.24993550  1
  Hf  Hf17  1  0.39253364  0.60184841  0.49570401  1
  Hf  Hf18  1  0.49793478  0.90351926  0.12884303  1
  Hf  Hf19  1  0.61104597  -0.00612578  -0.00142484  1
  Hf  Hf20  1  0.00459062  0.60874340  0.26156035  1
  Hf  Hf21  1  0.71104603  0.09978267  0.11823143  1
  Hf  Hf22  1  0.50258037  0.30324142  0.85528086  1
  Hf  Hf23  1  0.60652626  0.79993181  0.25302184  1
  Hf  Hf24  1  0.10398615  0.30352515  0.36713153  1
  Hf  Hf25  1  0.60285654  0.79033073  0.00843176  1
  Hf  Hf26  1  0.91041448  0.11062893  0.88954651  1
  Hf  Hf27  1  0.38433304  0.60301254  -0.00892895  1
  Hf  Hf28  1  0.20787065  0.19166860  0.50926398  1
  Hf  Hf29  1  0.59663649  0.80718544  0.50101408  1
  Hf  Hf30  1  0.01062205  0.58433956  0.50738401  1
  Hf  Hf31  1  0.09987151  0.49594157  0.86523065  1
  Hf  Hf32  1  0.20839524  0.00355785  0.76558261  1
  Hf  Hf33  1  0.18022023  0.40545417  0.50456420  1
  Hf  Hf34  1  0.59441377  0.20452883  0.50908085  1
  Hf  Hf35  1  0.10434888  0.07695130  0.12557645  1
  Hf  Hf36  1  0.49910106  0.90721822  0.37077210  1
  Hf  Hf37  1  -0.00462302  0.18578068  0.73486773  1
  Hf  Hf38  1  0.40102309  0.80015578  0.74931886  1
  Hf  Hf39  1  0.29649000  0.32313363  0.12945619  1
  Zr  Zr40  1  0.19316846  0.21062114  0.00916835  1
  Zr  Zr41  1  0.79449946  0.78501339  0.74790678  1
  Zr  Zr42  1  0.41815120  0.22013680  0.23459168  1
  Zr  Zr43  1  0.59384914  0.80905351  0.73215328  1
  Zr  Zr44  1  0.69802660  0.91151090  0.62005098  1
  Zr  Zr45  1  0.51174898  0.70102502  0.87838803  1
  Zr  Zr46  1  0.50048427  0.11838180  0.37438323  1
  Zr  Zr47  1  0.89367893  0.29586061  0.37893593  1
  Zr  Zr48  1  0.91308077  0.89784564  0.64169063  1
  Zr  Zr49  1  0.29888095  0.51512317  0.13110061  1
  Zr  Zr50  1  0.48091802  0.51459094  0.63210459  1
  Zr  Zr51  1  0.29437800  0.71073102  0.37110345  1
  Zr  Zr52  1  0.90816528  0.09576999  0.36691898  1
  Zr  Zr53  1  0.39185476  0.38816982  0.51548911  1
  Zr  Zr54  1  0.01224745  0.79177138  -0.01508996  1
  Zr  Zr55  1  0.28894144  0.48719289  0.36553526  1
  Zr  Zr56  1  0.80884950  0.00666938  0.50221952  1
  Zr  Zr57  1  0.70372011  0.51352883  0.86746546  1
  Zr  Zr58  1  0.50122633  0.10930775  0.88254414  1
  Zr  Zr59  1  0.39431307  0.81078351  0.50040567  1
  Zr  Zr60  1  0.79749791  0.80101912  -0.00662460  1
  Zr  Zr61  1  -0.00762725  0.38870697  -0.00004389  1
  Zr  Zr62  1  0.80051033  0.58817484  0.25694432  1
  Zr  Zr63  1  -0.00465728  0.59029998  0.73883206  1
  Zr  Zr64  1  0.20764770  0.78899901  0.76940915  1
  Zr  Zr65  1  0.20975519  0.18927167  0.23985688  1
  Zr  Zr66  1  0.40700333  0.40113049  -0.01326026  1
  Zr  Zr67  1  0.89243461  0.50068574  0.12530416  1
  Zr  Zr68  1  0.37804627  0.40734461  0.75095397  1
  Zr  Zr69  1  0.38175548  0.01527181  0.25195116  1
  Zr  Zr70  1  0.90758706  0.70564277  0.38338415  1
  Zr  Zr71  1  0.81202211  0.01996316  0.74511531  1
  Zr  Zr72  1  0.70644907  0.30521662  0.85388749  1
  Zr  Zr73  1  0.89391057  0.67793765  0.86633790  1
  Zr  Zr74  1  0.71028242  0.10793879  0.87897987  1
  Zr  Zr75  1  0.10675555  0.49199190  0.12493453  1
  Zr  Zr76  1  0.60613657  0.23501178  0.00897353  1
  Zr  Zr77  1  0.79558260  0.59810142  0.00443439  1
  Zr  Zr78  1  0.11685786  0.08439200  0.36535394  1
  Zr  Zr79  1  0.00572088  0.19422635  0.51172444  1
  Ta  Ta80  1  0.19351553  0.60423220  0.25988946  1
  Ta  Ta81  1  0.00864252  0.59380776  -0.00755449  1
  Ta  Ta82  1  0.59686919  0.58500062  0.25621948  1
  Ta  Ta83  1  0.70537019  0.30503402  0.63321537  1
  Ta  Ta84  1  0.38982032  0.80509675  0.00075793  1
  Ta  Ta85  1  0.70979648  0.90612227  0.37597203  1
  Ta  Ta86  1  0.69669742  0.89427619  0.87018095  1
  Ta  Ta87  1  0.81325945  0.21619395  0.01090844  1
  Ta  Ta88  1  0.30460854  0.08273862  0.62997923  1
  Ta  Ta89  1  0.19764913  -0.01600657  -0.01345460  1
  Ta  Ta90  1  0.49965580  0.29298442  0.64445512  1
  Ta  Ta91  1  0.60551371  0.41470817  0.73224302  1
  Ta  Ta92  1  0.27045286  0.50990641  0.63103596  1
  Ta  Ta93  1  0.70090726  0.11469937  0.63251167  1
  Ta  Ta94  1  0.60904172  0.00827114  0.25176395  1
  Ta  Ta95  1  0.29857943  0.10688146  0.88641988  1
  Ta  Ta96  1  0.19932557  0.19574365  0.74645845  1
  Ta  Ta97  1  0.40228096  0.59913520  0.25592163  1
  Ta  Ta98  1  0.28772330  0.29794790  0.86887616  1
  Ta  Ta99  1  0.39629005  0.20823637  0.00493199  1
  Ta  Ta100  1  0.49789914  0.49129036  0.12791336  1
  Ta  Ta101  1  0.61439375  0.20688662  0.24040730  1
  Ta  Ta102  1  0.78619082  0.39525266  0.00077714  1
  Ta  Ta103  1  0.80266794  -0.00317279  0.25504636  1
  Ta  Ta104  1  0.39507238  -0.00156323  -0.00259281  1
  Ta  Ta105  1  0.09461772  0.29213237  0.86477306  1
  Ta  Ta106  1  0.49747378  0.50607169  0.85814209  1
  Ta  Ta107  1  0.59927001  0.40208206  0.52154436  1
  Ta  Ta108  1  0.80632009  0.80421975  0.49976106  1
  Ta  Ta109  1  0.10657884  0.88205490  0.11884850  1
  Ta  Ta110  1  0.79562194  0.58607962  0.72448149  1
  Ta  Ta111  1  0.49737356  0.90114117  0.88290096  1
  Ta  Ta112  1  0.59612359  0.60158927  0.50609108  1
  Ta  Ta113  1  0.89595045  0.49061003  0.39699562  1
  Ta  Ta114  1  0.71029487  0.90219333  0.13295621  1
  Ta  Ta115  1  0.28349212  0.71003795  0.12682234  1
  Ta  Ta116  1  0.20099092  0.80403079  0.50497866  1
  Ta  Ta117  1  0.79688580  0.20241116  0.50867187  1
  Ta  Ta118  1  0.01233656  -0.00307958  0.50527672  1
  Ta  Ta119  1  0.50345992  0.69396541  0.37152688  1
  Ti  Ti120  1  0.00353826  -0.02460346  0.25070223  1
  Ti  Ti121  1  0.81902788  0.80660909  0.25687313  1
  Ti  Ti122  1  0.39007928  0.00851240  0.49390819  1
  Ti  Ti123  1  0.00210692  0.20116459  0.23588029  1
  Ti  Ti124  1  0.29559589  0.29381112  0.63619600  1
  Ti  Ti125  1  0.49830576  0.09999076  0.62917347  1
  Ti  Ti126  1  0.08989494  0.88648501  0.37423376  1
  Ti  Ti127  1  0.09372696  0.90107433  0.86598012  1
  Ti  Ti128  1  0.20077082  0.41225157  -0.01022053  1
  Ti  Ti129  1  -0.00694717  0.39524437  0.74427649  1
  Ti  Ti130  1  0.17865168  0.79933076  0.25152539  1
  Ti  Ti131  1  0.00604218  0.20516384  0.01503021  1
  Ti  Ti132  1  0.19615701  0.60637472  0.49000649  1
  Ti  Ti133  1  0.70440339  0.10553575  0.37313398  1
  Ti  Ti134  1  0.68541409  0.48785185  0.12500007  1
  Ti  Ti135  1  0.09803842  0.10080241  0.88256424  1
  Ti  Ti136  1  0.59804730  0.00905703  0.49794824  1
  Ti  Ti137  1  0.47838963  0.91532288  0.61951670  1
  Ti  Ti138  1  0.59452318  0.58599944  0.00032053  1
  Ti  Ti139  1  0.70221536  0.49828623  0.39281007  1
  Ti  Ti140  1  0.89851895  0.30493902  0.86641190  1
  Ti  Ti141  1  0.91152528  0.70395848  0.12647073  1
  Ti  Ti142  1  0.80997354  0.40758175  0.73637706  1
  Ti  Ti143  1  0.39663554  -0.00574534  0.76210373  1
  Ti  Ti144  1  0.20248695  -0.00612385  0.50771833  1
  Ti  Ti145  1  0.90127349  0.69508000  0.61849432  1
  Ti  Ti146  1  0.58880833  0.38951756  0.24838796  1
  Ti  Ti147  1  0.30935495  0.69918513  0.62721567  1
  Ti  Ti148  1  0.40005094  0.19496029  0.51118249  1
  Ti  Ti149  1  0.29995920  0.09303214  0.10954013  1
  Ti  Ti150  1  0.28802969  0.90220840  0.12180617  1
  Ti  Ti151  1  0.39409688  0.18592233  0.75082781  1
  Ti  Ti152  1  0.10159979  0.30598210  0.63291700  1
  Ti  Ti153  1  0.27945562  0.91562329  0.37099825  1
  Ti  Ti154  1  0.80340960  0.20326814  0.24136276  1
  Ti  Ti155  1  0.10134267  0.69206554  0.12083114  1
  Ti  Ti156  1  0.78719073  0.39304880  0.24845920  1
  Ti  Ti157  1  0.20463161  0.78297576  -0.01907067  1
  Ti  Ti158  1  0.89815807  0.30251234  0.61756941  1
  Ti  Ti159  1  0.70578046  0.69813070  0.60475738  1
  Mo  Mo160  1  0.30573535  0.90123228  0.88511586  1
  Mo  Mo161  1  0.09175491  0.50066836  0.37259444  1
  Mo  Mo162  1  0.80332451  0.00139389  -0.00439300  1
  Mo  Mo163  1  0.30071990  0.09577608  0.38532995  1
  Mo  Mo164  1  0.69827744  0.70241678  0.86719421  1
  Mo  Mo165  1  0.60249697  0.41608730  -0.00644446  1
  Mo  Mo166  1  0.09642677  0.69486481  0.86543097  1
  Mo  Mo167  1  0.00456041  0.80043060  0.24412587  1
  Mo  Mo168  1  0.19714890  -0.02007493  0.24579623  1
  Mo  Mo169  1  0.89694904  0.29654722  0.13227533  1
  Mo  Mo170  1  0.79939260  0.60083119  0.50859502  1
  Mo  Mo171  1  0.40749583  0.41011848  0.24925693  1
  Mo  Mo172  1  0.50589457  0.31195888  0.11988651  1
  Mo  Mo173  1  0.30359661  0.69412806  0.87843465  1
  Mo  Mo174  1  0.50722912  0.30374529  0.38183911  1
  Mo  Mo175  1  0.59950568  0.20221195  0.73909392  1
  Mo  Mo176  1  0.01369616  0.00515607  0.75539612  1
  Mo  Mo177  1  0.38808728  0.61078627  0.75747143  1
  Mo  Mo178  1  0.00396685  0.79388503  0.76136226  1
  Mo  Mo179  1  0.29429641  0.49858754  0.87150230  1
  Mo  Mo180  1  0.80881054  0.21416745  0.73877948  1
  Mo  Mo181  1  0.89518530  0.47943120  0.87076721  1
  Mo  Mo182  1  0.49515810  0.70603027  0.61324609  1
  Mo  Mo183  1  0.70604489  0.31063356  0.13321742  1
  Mo  Mo184  1  0.90259627  0.90213856  0.37671790  1
  Mo  Mo185  1  -0.00270297  0.39139959  0.50397203  1
  Mo  Mo186  1  0.89590593  0.48799729  0.60699057  1
  Mo  Mo187  1  0.79570809  0.39695612  0.50634778  1
  Mo  Mo188  1  0.18681503  0.38908461  0.74807265  1
  Mo  Mo189  1  0.21402137  0.58985318  0.75716567  1
  Mo  Mo190  1  0.09559893  0.29613275  0.13756083  1
  Mo  Mo191  1  0.01185046  -0.00064593  -0.00372912  1
  Mo  Mo192  1  0.90331018  0.10105461  0.61642356  1
  Mo  Mo193  1  0.69998561  0.50268664  0.61390006  1
  Mo  Mo194  1  0.19544642  0.40035752  0.25590955  1
  Mo  Mo195  1  0.18917231  0.60652885  -0.00553565  1
  Mo  Mo196  1  0.09581925  0.49016554  0.63633910  1
  Mo  Mo197  1  0.10670466  0.70231408  0.38257960  1
  Mo  Mo198  1  0.30162134  0.90218544  0.62648245  1
  Mo  Mo199  1  0.11098902  0.09420747  0.62622983  1
