# generated using pymatgen
data_HfZrTaTiMo
_symmetry_space_group_name_H-M   'P 1'
_cell_length_a   15.22324621
_cell_length_b   15.21449205
_cell_length_c   16.84920213
_cell_angle_alpha   90.03665115
_cell_angle_beta   89.96895238
_cell_angle_gamma   89.83636794
_symmetry_Int_Tables_number   1
_chemical_formula_structural   HfZrTaTiMo
_chemical_formula_sum   'Hf40 Zr40 Ta40 Ti40 Mo40'
_cell_volume   3902.49311142
_cell_formula_units_Z   40
loop_
 _symmetry_equiv_pos_site_id
 _symmetry_equiv_pos_as_xyz
  1  'x, y, z'
loop_
 _atom_site_type_symbol
 _atom_site_label
 _atom_site_symmetry_multiplicity
 _atom_site_fract_x
 _atom_site_fract_y
 _atom_site_fract_z
 _atom_site_occupancy
  Hf  Hf0  1  0.39662884  0.38585227  0.00653593  1
  Hf  Hf1  1  0.10405142  0.89857255  0.86596713  1
  Hf  Hf2  1  0.80921976  0.81212431  -0.00130620  1
  Hf  Hf3  1  0.41548663  0.19312527  0.75082194  1
  Hf  Hf4  1  0.80403745  0.39060967  0.01241533  1
  Hf  Hf5  1  0.51132006  0.69516423  0.11212448  1
  Hf  Hf6  1  0.19039485  0.59545306  0.74482386  1
  Hf  Hf7  1  0.50653824  0.89834935  0.87566102  1
  Hf  Hf8  1  0.20368351  0.81281003  0.51213859  1
  Hf  Hf9  1  0.90478911  0.48914787  0.88134871  1
  Hf  Hf10  1  0.38649236  0.59357381  0.01242792  1
  Hf  Hf11  1  0.50257981  0.91376885  0.12098348  1
  Hf  Hf12  1  0.58985135  0.39183436  0.75747932  1
  Hf  Hf13  1  0.69411416  0.50568680  0.88232222  1
  Hf  Hf14  1  0.80613091  0.38487219  0.23982775  1
  Hf  Hf15  1  0.30083122  0.30228324  0.15054423  1
  Hf  Hf16  1  0.20432401  0.20890177  0.00831979  1
  Hf  Hf17  1  0.49398656  0.49110118  0.60847876  1
  Hf  Hf18  1  0.51371932  0.69681174  0.61599393  1
  Hf  Hf19  1  0.79047894  0.19493146  0.01025281  1
  Hf  Hf20  1  0.50125965  0.70352458  0.38293256  1
  Hf  Hf21  1  0.01164559  0.18866453  0.49935502  1
  Hf  Hf22  1  0.19129498  0.20515742  0.74923213  1
  Hf  Hf23  1  0.19534954  0.00093962  0.00116292  1
  Hf  Hf24  1  0.69464141  0.07024776  0.62469528  1
  Hf  Hf25  1  0.71360610  0.29571359  0.38417104  1
  Hf  Hf26  1  0.79534929  0.60719850  0.00030829  1
  Hf  Hf27  1  0.29941830  0.09343934  0.86772926  1
  Hf  Hf28  1  0.00741664  0.80731079  0.00563126  1
  Hf  Hf29  1  0.19985073  0.80935092  0.24503356  1
  Hf  Hf30  1  0.80904915  0.40522146  0.74262888  1
  Hf  Hf31  1  0.28274151  0.51466731  0.36127519  1
  Hf  Hf32  1  0.50772115  0.27732800  0.13286656  1
  Hf  Hf33  1  -0.01320822  0.80387946  0.50374346  1
  Hf  Hf34  1  0.89010433  0.68992684  0.62867523  1
  Hf  Hf35  1  0.87951046  0.89877309  0.64116013  1
  Hf  Hf36  1  0.30140834  0.89803462  0.86268138  1
  Hf  Hf37  1  0.09867395  0.92387920  0.38365718  1
  Hf  Hf38  1  0.28465607  0.30257629  0.35501050  1
  Hf  Hf39  1  0.89662107  0.89954856  0.36500738  1
  Zr  Zr40  1  0.11054917  0.10004211  0.13956528  1
  Zr  Zr41  1  0.80802828  0.60591442  0.49002465  1
  Zr  Zr42  1  0.70460967  0.87627434  0.36231949  1
  Zr  Zr43  1  0.60058516  0.78845991  0.24470781  1
  Zr  Zr44  1  0.49943460  0.29037943  0.60961882  1
  Zr  Zr45  1  0.68483794  0.11214441  0.13984065  1
  Zr  Zr46  1  0.39808504  0.80572106  0.24485977  1
  Zr  Zr47  1  0.60112940  0.39803988  0.26358426  1
  Zr  Zr48  1  0.71554835  0.08164379  0.36742823  1
  Zr  Zr49  1  0.19970489  0.40964508  0.01750500  1
  Zr  Zr50  1  0.29751103  0.70490417  0.86779575  1
  Zr  Zr51  1  0.70214376  0.29836143  0.61641791  1
  Zr  Zr52  1  -0.00883480  0.59183870  0.75575127  1
  Zr  Zr53  1  0.19651634  0.60319533  0.00633732  1
  Zr  Zr54  1  0.30115417  0.30114622  0.87388401  1
  Zr  Zr55  1  -0.00007674  0.79747325  0.24163147  1
  Zr  Zr56  1  0.50544321  0.48887241  0.12333142  1
  Zr  Zr57  1  0.40623256  0.81039931  0.50995419  1
  Zr  Zr58  1  0.71561178  0.29062255  0.86804009  1
  Zr  Zr59  1  0.30114398  0.10230538  0.62131467  1
  Zr  Zr60  1  0.91395130  0.09346595  0.36513909  1
  Zr  Zr61  1  0.81041073  0.18569611  0.50611499  1
  Zr  Zr62  1  0.08695800  0.10509427  0.87726499  1
  Zr  Zr63  1  0.39928667  0.59341448  0.74726418  1
  Zr  Zr64  1  0.50889595  0.69465221  0.89230083  1
  Zr  Zr65  1  0.61509354  0.18072291  0.75106557  1
  Zr  Zr66  1  0.71396319  0.90485003  0.13769119  1
  Zr  Zr67  1  0.00925180  0.79838415  0.74728306  1
  Zr  Zr68  1  -0.00814108  0.19851259  0.01344788  1
  Zr  Zr69  1  0.39773132  0.60643826  0.24418134  1
  Zr  Zr70  1  0.59385552  0.18400360  0.48729029  1
  Zr  Zr71  1  0.59709104  0.59867465  0.75301471  1
  Zr  Zr72  1  0.90745769  0.50075723  0.12823085  1
  Zr  Zr73  1  0.39190480  0.40175336  0.75340828  1
  Zr  Zr74  1  0.00228733  0.60316445  -0.00277188  1
  Zr  Zr75  1  0.10603652  0.30086741  0.62134449  1
  Zr  Zr76  1  0.10166804  0.69847631  0.38259341  1
  Zr  Zr77  1  0.41076609  0.80060947  0.73846471  1
  Zr  Zr78  1  0.70306295  0.51087217  0.62007687  1
  Zr  Zr79  1  0.30308333  0.30980127  0.61751496  1
  Ta  Ta80  1  0.39254958  0.80553486  0.00917042  1
  Ta  Ta81  1  0.31567995  0.10458408  0.13611250  1
  Ta  Ta82  1  0.09778550  0.31394272  0.87493360  1
  Ta  Ta83  1  0.29339854  0.91426554  0.12583066  1
  Ta  Ta84  1  0.01479179  0.58956034  0.25146191  1
  Ta  Ta85  1  0.49330575  0.48960722  0.89190310  1
  Ta  Ta86  1  -0.00349305  0.01113987  0.74570320  1
  Ta  Ta87  1  0.09056146  0.31411225  0.35971187  1
  Ta  Ta88  1  0.51257318  0.91980458  0.62918457  1
  Ta  Ta89  1  0.40862569  0.18894722  -0.00236771  1
  Ta  Ta90  1  0.79997919  0.60176205  0.25316160  1
  Ta  Ta91  1  0.62299667  0.79532679  0.50553677  1
  Ta  Ta92  1  0.60398731  0.59677645  0.48410578  1
  Ta  Ta93  1  0.01202257  0.39876634  0.74720942  1
  Ta  Ta94  1  0.87945298  0.10023457  0.86547240  1
  Ta  Ta95  1  0.90618127  0.30251778  0.62436235  1
  Ta  Ta96  1  0.19420821  0.40651189  0.48830369  1
  Ta  Ta97  1  0.60437303  0.01096248  -0.00135580  1
  Ta  Ta98  1  0.60333099  0.38717605  -0.00132459  1
  Ta  Ta99  1  0.41068776  0.19075909  0.27098794  1
  Ta  Ta100  1  0.19995302  0.20673157  0.48652764  1
  Ta  Ta101  1  0.70679832  0.91508090  0.87040046  1
  Ta  Ta102  1  0.62149446  0.80412314  0.74309680  1
  Ta  Ta103  1  0.00785944  0.39418924  0.00522674  1
  Ta  Ta104  1  -0.00297986  0.40233099  0.49565208  1
  Ta  Ta105  1  0.39474686  0.00046514  0.25801609  1
  Ta  Ta106  1  0.58450079  0.00346225  0.26163700  1
  Ta  Ta107  1  0.09825363  0.69828808  0.61526344  1
  Ta  Ta108  1  0.09015685  0.50287026  0.61304526  1
  Ta  Ta109  1  0.60457915  0.59297497  0.26407258  1
  Ta  Ta110  1  0.39285070  0.19957383  0.47733596  1
  Ta  Ta111  1  0.91233641  0.49459048  0.36769936  1
  Ta  Ta112  1  0.40112992  0.00322589  0.00022237  1
  Ta  Ta113  1  0.39147906  0.59835434  0.49656972  1
  Ta  Ta114  1  0.59624006  -0.01581862  0.49013223  1
  Ta  Ta115  1  0.59859970  0.19924093  0.27190487  1
  Ta  Ta116  1  0.28676187  0.09203438  0.37194991  1
  Ta  Ta117  1  -0.01453058  0.21172721  0.24084391  1
  Ta  Ta118  1  0.39366854  0.40231002  0.47658128  1
  Ta  Ta119  1  0.20347436  0.80241618  0.01003715  1
  Ti  Ti120  1  0.10600931  0.11558026  0.35148366  1
  Ti  Ti121  1  0.90831099  0.29194306  0.87014908  1
  Ti  Ti122  1  0.19620153  0.60188422  0.50285138  1
  Ti  Ti123  1  0.10530574  0.70131165  0.87343555  1
  Ti  Ti124  1  0.79982675  0.00486957  0.00199925  1
  Ti  Ti125  1  0.10558264  0.69635712  0.12926127  1
  Ti  Ti126  1  0.79068580  0.61229192  0.75789471  1
  Ti  Ti127  1  0.90102357  0.90923087  0.86502150  1
  Ti  Ti128  1  0.80862898  0.40379897  0.50388936  1
  Ti  Ti129  1  0.29595731  0.69845879  0.62596210  1
  Ti  Ti130  1  0.18068067  0.02121279  0.51038953  1
  Ti  Ti131  1  0.80163206  -0.02464297  0.50191341  1
  Ti  Ti132  1  0.50571381  0.09099493  0.87220515  1
  Ti  Ti133  1  0.28844272  0.49942801  0.61728763  1
  Ti  Ti134  1  0.40849586  0.40426501  0.26449834  1
  Ti  Ti135  1  0.30273962  0.90761387  0.63566138  1
  Ti  Ti136  1  0.28484227  0.49718609  0.87340432  1
  Ti  Ti137  1  0.69922699  0.71312997  0.88062652  1
  Ti  Ti138  1  0.71206420  0.49835919  0.37546392  1
  Ti  Ti139  1  0.39892151  0.00705810  0.49773229  1
  Ti  Ti140  1  0.00615756  -0.00774042  0.23535420  1
  Ti  Ti141  1  0.88689519  0.09206740  0.14151225  1
  Ti  Ti142  1  -0.01272185  -0.00216396  0.00909779  1
  Ti  Ti143  1  0.59433878  0.40255101  0.48057520  1
  Ti  Ti144  1  0.89354727  0.70029072  0.36704430  1
  Ti  Ti145  1  0.89865795  0.71000416  0.87121497  1
  Ti  Ti146  1  -0.00656922  0.20241277  0.74560656  1
  Ti  Ti147  1  0.70340254  0.69320955  0.12444760  1
  Ti  Ti148  1  0.09364790  0.31430944  0.14600361  1
  Ti  Ti149  1  0.59477301  0.19797957  -0.01115242  1
  Ti  Ti150  1  0.61134015  0.80834760  0.00421080  1
  Ti  Ti151  1  0.90273928  0.29729095  0.37559213  1
  Ti  Ti152  1  0.19262887  -0.00016549  0.73936874  1
  Ti  Ti153  1  0.90014969  0.09674422  0.63233633  1
  Ti  Ti154  1  0.29842154  0.71210290  0.38130665  1
  Ti  Ti155  1  0.09128550  0.91208416  0.62282327  1
  Ti  Ti156  1  0.69460708  0.50203141  0.12407632  1
  Ti  Ti157  1  0.29544409  0.90615631  0.38057382  1
  Ti  Ti158  1  0.49407103  0.89879679  0.37853151  1
  Ti  Ti159  1  0.89628623  0.70484070  0.13065595  1
  Mo  Mo160  1  0.50384246  0.29438509  0.88293893  1
  Mo  Mo161  1  0.59011055  -0.00666299  0.75412560  1
  Mo  Mo162  1  0.79053705  0.00310641  0.75425771  1
  Mo  Mo163  1  0.49475008  0.09775100  0.12786836  1
  Mo  Mo164  1  0.70605015  0.68983292  0.36930413  1
  Mo  Mo165  1  0.10085034  0.49401015  0.87443751  1
  Mo  Mo166  1  0.29719595  0.50254070  0.14982953  1
  Mo  Mo167  1  0.79703729  0.20071100  0.24817159  1
  Mo  Mo168  1  -0.00841657  -0.00054492  0.51429623  1
  Mo  Mo169  1  0.90593512  0.49001719  0.61994742  1
  Mo  Mo170  1  0.18603707  0.42062418  0.24241055  1
  Mo  Mo171  1  0.09406077  0.09982454  0.62813402  1
  Mo  Mo172  1  0.49432149  0.09246729  0.61177699  1
  Mo  Mo173  1  0.29976512  0.71113395  0.12154202  1
  Mo  Mo174  1  0.70084736  0.88828776  0.62679377  1
  Mo  Mo175  1  0.49747454  0.29959194  0.37954731  1
  Mo  Mo176  1  0.90044859  0.29066114  0.12426802  1
  Mo  Mo177  1  0.09973733  0.50314876  0.12994969  1
  Mo  Mo178  1  0.20019231  0.80303777  0.72135472  1
  Mo  Mo179  1  0.19727914  0.61443749  0.24173379  1
  Mo  Mo180  1  0.40248127  0.00260426  0.74770145  1
  Mo  Mo181  1  0.20513124  -0.00109545  0.25284735  1
  Mo  Mo182  1  0.80249367  0.79590244  0.76881545  1
  Mo  Mo183  1  0.70595578  0.70397210  0.62733832  1
  Mo  Mo184  1  0.60402249  0.59699701  -0.00046686  1
  Mo  Mo185  1  0.19213606  0.41119328  0.74944742  1
  Mo  Mo186  1  0.10104863  0.90241277  0.12032123  1
  Mo  Mo187  1  0.00291105  0.59544801  0.49664467  1
  Mo  Mo188  1  0.81563045  0.19358793  0.73940317  1
  Mo  Mo189  1  0.80503129  -0.00364565  0.24514796  1
  Mo  Mo190  1  0.80187765  0.79827071  0.49856135  1
  Mo  Mo191  1  0.69799451  0.09344520  0.87963578  1
  Mo  Mo192  1  0.19824902  0.20353394  0.24914291  1
  Mo  Mo193  1  0.09749177  0.50421821  0.38315935  1
  Mo  Mo194  1  0.90582614  0.90749264  0.12262264  1
  Mo  Mo195  1  0.49318546  0.08626372  0.38217824  1
  Mo  Mo196  1  0.68993682  0.30772691  0.12576696  1
  Mo  Mo197  1  -0.00340565  0.40133900  0.25400081  1
  Mo  Mo198  1  0.49659668  0.50452416  0.38300282  1
  Mo  Mo199  1  0.80784242  0.78755290  0.23846270  1
