# generated using pymatgen
data_HfZrTaTiMo
_symmetry_space_group_name_H-M   'P 1'
_cell_length_a   15.21382413
_cell_length_b   15.20991335
_cell_length_c   16.84945276
_cell_angle_alpha   89.99527310
_cell_angle_beta   90.04090069
_cell_angle_gamma   90.02009472
_symmetry_Int_Tables_number   1
_chemical_formula_structural   HfZrTaTiMo
_chemical_formula_sum   'Hf40 Zr40 Ta40 Ti40 Mo40'
_cell_volume   3898.97807607
_cell_formula_units_Z   40
loop_
 _symmetry_equiv_pos_site_id
 _symmetry_equiv_pos_as_xyz
  1  'x, y, z'
loop_
 _atom_site_type_symbol
 _atom_site_label
 _atom_site_symmetry_multiplicity
 _atom_site_fract_x
 _atom_site_fract_y
 _atom_site_fract_z
 _atom_site_occupancy
  Hf  Hf0  1  0.21470495  0.40328599  -0.01480077  1
  Hf  Hf1  1  0.69469161  0.30108109  0.61402618  1
  Hf  Hf2  1  0.79396184  0.80397575  0.00795450  1
  Hf  Hf3  1  0.09725990  0.29606943  0.37496050  1
  Hf  Hf4  1  0.01109016  0.77981111  0.48411112  1
  Hf  Hf5  1  0.71153976  0.90970720  0.13431725  1
  Hf  Hf6  1  0.40101884  0.60182751  0.25043872  1
  Hf  Hf7  1  0.78373756  0.39100579  0.75616420  1
  Hf  Hf8  1  0.29166441  0.10617046  0.13271559  1
  Hf  Hf9  1  0.50309241  0.90688386  0.62952839  1
  Hf  Hf10  1  0.39755793  -0.01184920  0.01865424  1
  Hf  Hf11  1  0.00171722  0.80391421  0.27013110  1
  Hf  Hf12  1  0.00102865  -0.01660851  0.72405716  1
  Hf  Hf13  1  0.48609801  0.30744237  0.38163405  1
  Hf  Hf14  1  0.91336874  0.09068486  0.85698922  1
  Hf  Hf15  1  0.11083615  0.90326882  0.12704499  1
  Hf  Hf16  1  0.89858963  0.69877943  0.12492496  1
  Hf  Hf17  1  0.89522295  0.49669529  0.87075519  1
  Hf  Hf18  1  0.11159120  0.29400408  0.12824762  1
  Hf  Hf19  1  0.70569281  0.09799492  0.62588151  1
  Hf  Hf20  1  0.21165280  0.00370362  0.73007104  1
  Hf  Hf21  1  0.80782609  0.18313763  0.50295032  1
  Hf  Hf22  1  0.60528409  0.59893203  0.01249728  1
  Hf  Hf23  1  0.00393734  0.80315733  -0.00008690  1
  Hf  Hf24  1  0.40026833  0.59280119  0.49115894  1
  Hf  Hf25  1  0.60511515  0.60223025  0.75655890  1
  Hf  Hf26  1  0.49277243  0.49577876  0.88154064  1
  Hf  Hf27  1  0.78686091  0.58519444  0.23766690  1
  Hf  Hf28  1  0.48381322  0.70224399  0.11272519  1
  Hf  Hf29  1  -0.01936944  0.38677262  0.24254064  1
  Hf  Hf30  1  0.88965844  0.28201759  0.10981561  1
  Hf  Hf31  1  0.20673151  0.60204582  0.76884309  1
  Hf  Hf32  1  0.20471028  0.60298841  0.25377297  1
  Hf  Hf33  1  0.29761734  0.91687163  0.87508367  1
  Hf  Hf34  1  0.70487828  0.30121450  0.38471515  1
  Hf  Hf35  1  0.70503837  0.71061215  0.87931873  1
  Hf  Hf36  1  0.39395183  0.19677653  0.74744599  1
  Hf  Hf37  1  0.88753431  0.68614474  0.37674574  1
  Hf  Hf38  1  0.60504529  0.21103644  0.75618965  1
  Hf  Hf39  1  -0.00514977  0.59690770  0.25333887  1
  Zr  Zr40  1  0.10054468  0.49558602  0.12440199  1
  Zr  Zr41  1  0.29216698  0.30648331  0.61504213  1
  Zr  Zr42  1  0.00779353  0.39141378  -0.01244362  1
  Zr  Zr43  1  0.58384923  0.41294093  0.49498841  1
  Zr  Zr44  1  0.59842717  0.79380842  0.23826648  1
  Zr  Zr45  1  0.08937995  0.90200734  0.87503471  1
  Zr  Zr46  1  0.49101000  0.70086727  0.63620301  1
  Zr  Zr47  1  0.30260188  0.10807044  0.38463981  1
  Zr  Zr48  1  0.81235112  0.59228194  0.51131898  1
  Zr  Zr49  1  0.48837993  0.49776014  0.63618357  1
  Zr  Zr50  1  0.71237599  0.11386838  0.12351914  1
  Zr  Zr51  1  0.60270070  0.80128442  0.49557214  1
  Zr  Zr52  1  0.79517124  -0.01089969  0.74561159  1
  Zr  Zr53  1  0.20211670  0.81041815  0.27210261  1
  Zr  Zr54  1  0.49475174  0.88324136  0.87310640  1
  Zr  Zr55  1  0.00281829  0.17532108  -0.00317398  1
  Zr  Zr56  1  0.18036402  0.79632067  0.75005186  1
  Zr  Zr57  1  0.39187410  0.79659665  0.49963823  1
  Zr  Zr58  1  0.70512460  0.50263039  0.37804831  1
  Zr  Zr59  1  0.88543358  0.48544831  0.10749408  1
  Zr  Zr60  1  0.48607961  0.10293593  0.88434864  1
  Zr  Zr61  1  0.19355525  0.60654780  -0.01785851  1
  Zr  Zr62  1  0.91993523  0.48460123  0.64362375  1
  Zr  Zr63  1  0.61158263  0.00750201  0.48823703  1
  Zr  Zr64  1  0.40546187  -0.00121846  0.49567392  1
  Zr  Zr65  1  0.60111574  0.40368791  0.24483336  1
  Zr  Zr66  1  0.09685173  0.49278114  0.36630403  1
  Zr  Zr67  1  0.10211231  0.70136165  0.12429875  1
  Zr  Zr68  1  0.17275589  0.41226355  0.51357015  1
  Zr  Zr69  1  0.49790221  0.89174368  0.36389687  1
  Zr  Zr70  1  0.70094922  0.50057395  0.62812765  1
  Zr  Zr71  1  0.11189931  0.88679600  0.59937004  1
  Zr  Zr72  1  0.61349096  -0.00548005  -0.00707954  1
  Zr  Zr73  1  0.88909979  0.28342584  0.86898092  1
  Zr  Zr74  1  0.11670595  0.10196632  0.85979463  1
  Zr  Zr75  1  0.59810545  0.61256170  0.49868019  1
  Zr  Zr76  1  0.50628029  0.10481183  0.12887087  1
  Zr  Zr77  1  0.61515224  0.80711288  0.75099164  1
  Zr  Zr78  1  0.09768746  0.09809525  0.13675462  1
  Zr  Zr79  1  0.59792568  0.00897040  0.76226109  1
  Ta  Ta80  1  0.30129909  0.10174287  0.60339394  1
  Ta  Ta81  1  0.30056205  0.29474515  0.86997815  1
  Ta  Ta82  1  0.89150371  0.88579645  0.60048035  1
  Ta  Ta83  1  0.01419077  0.58143789  0.50258760  1
  Ta  Ta84  1  0.30391832  0.49028515  0.37875728  1
  Ta  Ta85  1  0.01383176  0.61045400  0.76152575  1
  Ta  Ta86  1  0.80749092  0.60997736  0.74960094  1
  Ta  Ta87  1  0.89987343  0.29749591  0.38162498  1
  Ta  Ta88  1  0.39571562  0.40159829  0.24854797  1
  Ta  Ta89  1  0.71697976  0.11224161  0.88050223  1
  Ta  Ta90  1  0.60438066  0.20783418  0.25206628  1
  Ta  Ta91  1  0.89922102  0.28208831  0.64450590  1
  Ta  Ta92  1  -0.00233887  0.60021052  -0.01716003  1
  Ta  Ta93  1  0.10319021  0.11079304  0.61249046  1
  Ta  Ta94  1  0.39897901  0.21178408  0.24790028  1
  Ta  Ta95  1  0.50405099  0.10791659  0.36095385  1
  Ta  Ta96  1  0.90624239  0.10211018  0.37535609  1
  Ta  Ta97  1  0.30783956  0.71806732  0.88635668  1
  Ta  Ta98  1  0.59485169  0.59835053  0.23500985  1
  Ta  Ta99  1  0.19582618  0.00608972  0.00154815  1
  Ta  Ta100  1  0.29014432  0.51735964  0.62817810  1
  Ta  Ta101  1  0.00759697  -0.00457620  0.27150850  1
  Ta  Ta102  1  0.39668929  -0.00289513  0.24519437  1
  Ta  Ta103  1  0.90279468  0.08652827  0.13787562  1
  Ta  Ta104  1  0.80604197  0.20854022  0.25546429  1
  Ta  Ta105  1  0.10040331  0.10064803  0.39595213  1
  Ta  Ta106  1  0.38570129  0.40315490  0.75315746  1
  Ta  Ta107  1  0.60605609  0.00438024  0.25491692  1
  Ta  Ta108  1  0.69667555  0.49940794  0.88064968  1
  Ta  Ta109  1  0.71939462  0.71062878  0.62564515  1
  Ta  Ta110  1  0.49182900  0.30006970  0.61756356  1
  Ta  Ta111  1  0.39822338  0.21332521  0.00561735  1
  Ta  Ta112  1  0.71478588  0.89654467  0.36888524  1
  Ta  Ta113  1  0.89140808  0.89260037  0.87229632  1
  Ta  Ta114  1  0.00224360  0.21701064  0.51306822  1
  Ta  Ta115  1  0.82346331  0.00572466  -0.00213608  1
  Ta  Ta116  1  0.50119822  0.11182239  0.62176587  1
  Ta  Ta117  1  0.20758131  0.20280509  -0.00653859  1
  Ta  Ta118  1  0.80330319  0.79666948  0.24787460  1
  Ta  Ta119  1  0.29401197  0.30431802  0.39248383  1
  Ti  Ti120  1  0.30837033  0.70432520  0.37474602  1
  Ti  Ti121  1  0.19990100  0.20750533  0.73878033  1
  Ti  Ti122  1  0.69353192  0.70296321  0.36879472  1
  Ti  Ti123  1  0.81434642  0.79963279  0.74495202  1
  Ti  Ti124  1  0.59914007  0.20531609  0.00202696  1
  Ti  Ti125  1  0.59072823  0.39495268  0.00775565  1
  Ti  Ti126  1  0.79686890  0.59794481  0.00187493  1
  Ti  Ti127  1  0.89730381  0.90167320  0.39206447  1
  Ti  Ti128  1  0.69224269  0.30452675  0.88942303  1
  Ti  Ti129  1  0.20429134  0.20269025  0.25969717  1
  Ti  Ti130  1  0.59176583  0.19649037  0.49355094  1
  Ti  Ti131  1  0.38147443  0.80431448  0.74277471  1
  Ti  Ti132  1  0.49806856  0.69784320  0.88893584  1
  Ti  Ti133  1  0.19176553  0.40858281  0.75301009  1
  Ti  Ti134  1  0.38951771  0.59104065  -0.00416932  1
  Ti  Ti135  1  0.91314334  0.90462064  0.13261437  1
  Ti  Ti136  1  0.09711190  0.29707850  0.85861217  1
  Ti  Ti137  1  0.81320496  -0.00187968  0.25985536  1
  Ti  Ti138  1  0.70937012  0.89793940  0.60960640  1
  Ti  Ti139  1  0.49341797  0.30381748  0.87963102  1
  Ti  Ti140  1  0.70831439  0.09889576  0.36813450  1
  Ti  Ti141  1  0.29895599  0.50469825  0.12210267  1
  Ti  Ti142  1  0.39221196  0.80528251  0.24143988  1
  Ti  Ti143  1  0.48839464  0.48665880  0.11609878  1
  Ti  Ti144  1  0.28034541  0.71086434  0.61911767  1
  Ti  Ti145  1  0.00097207  0.19063646  0.25594463  1
  Ti  Ti146  1  0.20087732  0.00078434  0.26960520  1
  Ti  Ti147  1  0.19700628  0.61663003  0.49121248  1
  Ti  Ti148  1  0.31093036  0.31144063  0.12137561  1
  Ti  Ti149  1  0.89464120  0.47990787  0.37942731  1
  Ti  Ti150  1  -0.00747008  0.00959986  0.50592313  1
  Ti  Ti151  1  0.39788452  0.00372470  0.74016991  1
  Ti  Ti152  1  0.39552630  0.60589490  0.76316224  1
  Ti  Ti153  1  0.90528890  0.70504296  0.87229721  1
  Ti  Ti154  1  0.58684570  0.39952584  0.75451602  1
  Ti  Ti155  1  0.21138052  0.39555418  0.24919832  1
  Ti  Ti156  1  0.29060129  0.71630356  0.11072984  1
  Ti  Ti157  1  0.91873472  0.69740417  0.62605836  1
  Ti  Ti158  1  0.70128586  0.31149046  0.11805799  1
  Ti  Ti159  1  0.59430796  0.80653800  0.01437298  1
  Mo  Mo160  1  0.70138071  0.69758475  0.12317286  1
  Mo  Mo161  1  0.19274864  0.20325690  0.50501431  1
  Mo  Mo162  1  0.10170209  0.69094966  0.37433575  1
  Mo  Mo163  1  0.50084497  0.29848218  0.12767410  1
  Mo  Mo164  1  0.40589078  0.20409514  0.50268828  1
  Mo  Mo165  1  0.79907640  0.79200149  0.49471393  1
  Mo  Mo166  1  0.49290085  0.50621976  0.36366786  1
  Mo  Mo167  1  -0.01341518  0.79122808  0.74083232  1
  Mo  Mo168  1  0.30227304  0.90625311  0.37059596  1
  Mo  Mo169  1  0.08756444  0.31137823  0.64412674  1
  Mo  Mo170  1  0.50184724  0.68924590  0.36225311  1
  Mo  Mo171  1  0.10607422  0.68158249  0.62007543  1
  Mo  Mo172  1  0.00539024  0.39723895  0.76337153  1
  Mo  Mo173  1  0.80512045  -0.00576046  0.49065356  1
  Mo  Mo174  1  0.20775313  0.79821493  0.48040221  1
  Mo  Mo175  1  0.29990766  0.90200987  0.12983434  1
  Mo  Mo176  1  0.69229519  0.49460942  0.11455437  1
  Mo  Mo177  1  0.09487906  0.70570244  0.88065283  1
  Mo  Mo178  1  0.30565225  0.49992440  0.86861358  1
  Mo  Mo179  1  0.79232120  0.19417106  -0.00034069  1
  Mo  Mo180  1  0.79448246  0.19215451  0.74654319  1
  Mo  Mo181  1  0.30796756  0.89819647  0.62759849  1
  Mo  Mo182  1  0.30175371  0.10700349  0.87964634  1
  Mo  Mo183  1  0.10635018  0.51054181  0.63606374  1
  Mo  Mo184  1  0.70939996  0.90513351  0.88463133  1
  Mo  Mo185  1  0.39840225  0.39823287  0.00239899  1
  Mo  Mo186  1  0.09544954  0.49475102  0.86977162  1
  Mo  Mo187  1  0.79563969  0.38541988  0.24909535  1
  Mo  Mo188  1  0.81859706  0.38465404  0.50908826  1
  Mo  Mo189  1  0.20123442  -0.00284370  0.49890375  1
  Mo  Mo190  1  0.21275119  0.81409184  -0.00045964  1
  Mo  Mo191  1  0.39874292  0.79792004  0.00437673  1
  Mo  Mo192  1  -0.01504565  0.39789739  0.50638869  1
  Mo  Mo193  1  -0.00061000  -0.00442546  0.00261589  1
  Mo  Mo194  1  0.50084095  0.90265349  0.13774821  1
  Mo  Mo195  1  0.78182277  0.40057403  -0.01159299  1
  Mo  Mo196  1  0.00862901  0.19453450  0.73586525  1
  Mo  Mo197  1  0.90674660  0.09126726  0.62629349  1
  Mo  Mo198  1  0.38765751  0.40702712  0.50370688  1
  Mo  Mo199  1  0.10070006  0.91228408  0.39557912  1
