# generated using pymatgen
data_HfZrTaTiMo
_symmetry_space_group_name_H-M   'P 1'
_cell_length_a   15.21311756
_cell_length_b   15.19951913
_cell_length_c   16.86170247
_cell_angle_alpha   89.97526805
_cell_angle_beta   90.00163652
_cell_angle_gamma   89.89552979
_symmetry_Int_Tables_number   1
_chemical_formula_structural   HfZrTaTiMo
_chemical_formula_sum   'Hf40 Zr40 Ta40 Ti40 Mo40'
_cell_volume   3898.95954470
_cell_formula_units_Z   40
loop_
 _symmetry_equiv_pos_site_id
 _symmetry_equiv_pos_as_xyz
  1  'x, y, z'
loop_
 _atom_site_type_symbol
 _atom_site_label
 _atom_site_symmetry_multiplicity
 _atom_site_fract_x
 _atom_site_fract_y
 _atom_site_fract_z
 _atom_site_occupancy
  Hf  Hf0  1  0.19750742  -0.00930633  0.23851529  1
  Hf  Hf1  1  0.80834485  0.00502288  0.24165440  1
  Hf  Hf2  1  0.60572754  -0.00766211  0.49675947  1
  Hf  Hf3  1  0.80851051  0.60900419  0.00046302  1
  Hf  Hf4  1  0.70917083  0.89233697  0.62265884  1
  Hf  Hf5  1  -0.00432210  0.60552776  0.49379923  1
  Hf  Hf6  1  0.39089338  -0.00162733  0.49993483  1
  Hf  Hf7  1  0.90319688  0.90584026  0.63531800  1
  Hf  Hf8  1  0.60511482  0.59694734  -0.01338119  1
  Hf  Hf9  1  0.78391260  0.19730878  0.74361003  1
  Hf  Hf10  1  0.49910030  0.30731242  0.37461775  1
  Hf  Hf11  1  0.11735372  0.10671581  0.87625709  1
  Hf  Hf12  1  0.10988471  0.10663912  0.63667985  1
  Hf  Hf13  1  0.29667030  0.30853654  0.13561375  1
  Hf  Hf14  1  0.67774094  0.51657883  0.38919660  1
  Hf  Hf15  1  0.90889034  0.92597463  0.38056895  1
  Hf  Hf16  1  0.28856667  0.69847068  0.88382245  1
  Hf  Hf17  1  0.00207925  0.19855804  0.00004732  1
  Hf  Hf18  1  0.30864251  0.89107987  0.61918442  1
  Hf  Hf19  1  0.70900325  0.71157222  0.86524096  1
  Hf  Hf20  1  0.29669591  0.29087056  0.87434337  1
  Hf  Hf21  1  0.11165769  0.90005278  0.61898646  1
  Hf  Hf22  1  0.09588887  0.31186596  0.12792757  1
  Hf  Hf23  1  -0.01708237  0.80267461  0.00356965  1
  Hf  Hf24  1  0.08983565  0.71047805  0.87191785  1
  Hf  Hf25  1  0.80808370  0.80695074  0.25472499  1
  Hf  Hf26  1  0.41228685  -0.00847966  0.75039873  1
  Hf  Hf27  1  0.60990500  0.19088971  0.25936909  1
  Hf  Hf28  1  0.20097399  0.17823488  0.49518655  1
  Hf  Hf29  1  0.89684393  0.88339876  0.85950069  1
  Hf  Hf30  1  0.78500369  0.60436647  0.25223017  1
  Hf  Hf31  1  0.69422024  0.29857756  0.12565389  1
  Hf  Hf32  1  0.88759537  0.50521727  0.38355736  1
  Hf  Hf33  1  0.49477226  0.49454295  0.86565645  1
  Hf  Hf34  1  0.30577412  0.09497335  0.88822644  1
  Hf  Hf35  1  0.89535215  0.31112979  0.11627022  1
  Hf  Hf36  1  0.32321317  0.71020538  0.35675621  1
  Hf  Hf37  1  0.40594634  0.79995799  0.76097955  1
  Hf  Hf38  1  0.60083554  0.41095643  0.25583458  1
  Hf  Hf39  1  0.79345290  0.40093983  0.50708304  1
  Zr  Zr40  1  0.08638450  0.09107143  0.36805917  1
  Zr  Zr41  1  0.70081871  0.70877035  0.11883432  1
  Zr  Zr42  1  0.60173916  0.81912290  -0.00923301  1
  Zr  Zr43  1  0.00213287  0.21103981  0.76043089  1
  Zr  Zr44  1  0.01235920  -0.00528234  0.75913775  1
  Zr  Zr45  1  0.50155280  0.69803045  0.13002536  1
  Zr  Zr46  1  0.90272414  0.30255199  0.62454364  1
  Zr  Zr47  1  0.48680616  0.50844845  0.63157697  1
  Zr  Zr48  1  0.00408072  0.80190672  0.49364562  1
  Zr  Zr49  1  0.39827733  0.59693290  -0.00514526  1
  Zr  Zr50  1  0.08719475  0.49112378  0.61583939  1
  Zr  Zr51  1  0.87890737  0.31054975  0.88516602  1
  Zr  Zr52  1  0.78622780  0.18663876  0.00791651  1
  Zr  Zr53  1  0.50107154  0.11136755  0.62409446  1
  Zr  Zr54  1  0.60393227  0.38508471  -0.01549166  1
  Zr  Zr55  1  0.60450149  0.38966571  0.74594453  1
  Zr  Zr56  1  0.89886465  0.50544276  0.86715746  1
  Zr  Zr57  1  0.20076411  0.80106471  0.75297290  1
  Zr  Zr58  1  0.59896930  0.19257285  0.48686843  1
  Zr  Zr59  1  0.30106420  0.70649548  0.13494399  1
  Zr  Zr60  1  0.29550033  0.29265319  0.36775558  1
  Zr  Zr61  1  -0.00298880  0.60458329  0.73458739  1
  Zr  Zr62  1  -0.01064165  0.19985118  0.50129548  1
  Zr  Zr63  1  0.11844126  0.69565105  0.61965706  1
  Zr  Zr64  1  0.40993672  0.19898254  0.01219043  1
  Zr  Zr65  1  0.10101009  0.71732194  0.13712155  1
  Zr  Zr66  1  0.28078959  0.50557213  0.62645514  1
  Zr  Zr67  1  0.19510341  0.39649634  0.48557468  1
  Zr  Zr68  1  0.38486690  0.39716493  -0.00060222  1
  Zr  Zr69  1  0.19358331  0.59143870  0.00959804  1
  Zr  Zr70  1  0.30094610  0.28232553  0.62255323  1
  Zr  Zr71  1  0.49090490  0.88177996  0.37309372  1
  Zr  Zr72  1  0.41797487  -0.01141667  0.00652460  1
  Zr  Zr73  1  0.39883553  0.18634491  0.24602494  1
  Zr  Zr74  1  0.00097393  0.59947525  0.00879691  1
  Zr  Zr75  1  0.80025212  0.39923866  0.25839720  1
  Zr  Zr76  1  0.51156117  0.09664441  0.87333254  1
  Zr  Zr77  1  0.50116682  0.49399583  0.12237905  1
  Zr  Zr78  1  0.39719306  0.38752769  0.74696299  1
  Zr  Zr79  1  0.88964769  0.08944414  0.87872172  1
  Ta  Ta80  1  0.39039131  0.60648108  0.75818575  1
  Ta  Ta81  1  0.50195521  0.29455692  0.13570280  1
  Ta  Ta82  1  -0.00855647  0.61125906  0.26254596  1
  Ta  Ta83  1  0.01537416  -0.00824818  -0.01018811  1
  Ta  Ta84  1  0.39944136  0.40772993  0.49822307  1
  Ta  Ta85  1  0.09543403  0.50401282  0.15030493  1
  Ta  Ta86  1  0.30855440  0.50580819  0.36559664  1
  Ta  Ta87  1  0.00721159  0.00986074  0.51118693  1
  Ta  Ta88  1  0.72214764  0.09659324  0.37825179  1
  Ta  Ta89  1  0.70768686  0.29873906  0.38295033  1
  Ta  Ta90  1  0.61579842  0.78324477  0.49398761  1
  Ta  Ta91  1  0.80457433  0.19592459  0.24134209  1
  Ta  Ta92  1  0.51969482  0.08847016  0.13288050  1
  Ta  Ta93  1  0.91502529  0.08196394  0.11706050  1
  Ta  Ta94  1  -0.00880158  0.19207164  0.24076596  1
  Ta  Ta95  1  0.50611474  0.89285432  0.13874598  1
  Ta  Ta96  1  0.10504794  0.31705062  0.88816502  1
  Ta  Ta97  1  0.09609800  0.50443020  0.36731498  1
  Ta  Ta98  1  0.28039932  0.49360133  0.86615927  1
  Ta  Ta99  1  0.29482649  0.08156213  0.36744585  1
  Ta  Ta100  1  0.59582073  0.60827192  0.74432867  1
  Ta  Ta101  1  0.68500309  0.28644689  0.61646243  1
  Ta  Ta102  1  0.57556563  0.60696172  0.51394848  1
  Ta  Ta103  1  0.19451077  0.60918716  0.26368388  1
  Ta  Ta104  1  0.77808125  0.62488226  0.51318041  1
  Ta  Ta105  1  0.21832443  0.80148733  0.48220827  1
  Ta  Ta106  1  0.18579684  0.39006220  0.75003439  1
  Ta  Ta107  1  0.60807206  -0.01035615  0.26021137  1
  Ta  Ta108  1  0.29098478  0.50360786  0.14687733  1
  Ta  Ta109  1  0.60823401  0.78846212  0.26348909  1
  Ta  Ta110  1  0.20140212  0.20593414  0.01521183  1
  Ta  Ta111  1  0.21865786  0.00551185  0.75104170  1
  Ta  Ta112  1  0.10392073  0.30065510  0.62431900  1
  Ta  Ta113  1  0.79376451  0.40504321  0.73330532  1
  Ta  Ta114  1  0.61508959  0.00791218  0.73897116  1
  Ta  Ta115  1  -0.00537110  0.40038265  0.26136055  1
  Ta  Ta116  1  0.18991319  0.19116069  0.23906621  1
  Ta  Ta117  1  0.59105930  0.40283445  0.50948932  1
  Ta  Ta118  1  0.70668136  0.49844156  0.11750206  1
  Ta  Ta119  1  0.39950259  0.80181176  -0.00656620  1
  Ti  Ti120  1  0.50270538  0.70501339  0.87492015  1
  Ti  Ti121  1  0.29162522  0.90171919  0.88902773  1
  Ti  Ti122  1  0.71352296  0.89500239  0.38512401  1
  Ti  Ti123  1  0.00973262  0.81587661  0.25943871  1
  Ti  Ti124  1  0.31340891  0.69298404  0.61968591  1
  Ti  Ti125  1  0.59772227  0.19480506  0.00281545  1
  Ti  Ti126  1  0.89598229  0.69737271  0.85773423  1
  Ti  Ti127  1  0.09092556  0.29315117  0.36412202  1
  Ti  Ti128  1  0.69735940  0.10889142  0.87008342  1
  Ti  Ti129  1  0.00298078  0.41416357  0.00259937  1
  Ti  Ti130  1  0.09926193  0.50618084  0.86827489  1
  Ti  Ti131  1  0.19441981  0.40099695  0.26264062  1
  Ti  Ti132  1  0.81023712  -0.02576131  0.00975171  1
  Ti  Ti133  1  0.90158227  0.50376608  0.13264101  1
  Ti  Ti134  1  -0.00585704  0.40187476  0.75177529  1
  Ti  Ti135  1  0.70159714  0.90315643  0.12829187  1
  Ti  Ti136  1  0.88598482  0.71566877  0.62580367  1
  Ti  Ti137  1  0.39868411  0.19819477  0.49285191  1
  Ti  Ti138  1  0.81191927  0.01989269  0.50994153  1
  Ti  Ti139  1  0.29836781  0.09117910  0.11958292  1
  Ti  Ti140  1  0.40074329  0.19237366  0.74888683  1
  Ti  Ti141  1  -0.00090713  0.39720865  0.48608092  1
  Ti  Ti142  1  0.70421415  0.91541159  0.86445029  1
  Ti  Ti143  1  0.09074081  0.91288659  0.12250895  1
  Ti  Ti144  1  0.40245194  0.40623338  0.25397117  1
  Ti  Ti145  1  0.88934796  0.50820509  0.61620049  1
  Ti  Ti146  1  0.60039035  0.80763009  0.75110633  1
  Ti  Ti147  1  0.29671752  0.89059360  0.11814415  1
  Ti  Ti148  1  0.11528718  0.90097661  0.37776773  1
  Ti  Ti149  1  0.88977791  0.71251574  0.38226564  1
  Ti  Ti150  1  0.41814455  0.77383968  0.50027032  1
  Ti  Ti151  1  0.20509514  0.60770158  0.47630876  1
  Ti  Ti152  1  0.50908733  0.88456741  0.61728589  1
  Ti  Ti153  1  0.61965443  0.00777568  0.00546523  1
  Ti  Ti154  1  0.89980736  0.70762257  0.13483718  1
  Ti  Ti155  1  0.89391836  0.28431951  0.37700474  1
  Ti  Ti156  1  0.71022473  0.49405818  0.86982358  1
  Ti  Ti157  1  0.49645905  0.08865503  0.37018286  1
  Ti  Ti158  1  0.78497678  0.60061166  0.73038392  1
  Ti  Ti159  1  0.40092371  -0.01121441  0.24452548  1
  Mo  Mo160  1  0.51271187  0.89698590  0.87212014  1
  Mo  Mo161  1  0.38851893  0.60244556  0.49899992  1
  Mo  Mo162  1  0.19041776  0.81936856  -0.00120547  1
  Mo  Mo163  1  0.40603558  0.80781596  0.24343061  1
  Mo  Mo164  1  0.10922248  0.90161746  0.88090450  1
  Mo  Mo165  1  0.51363754  0.67858972  0.36795895  1
  Mo  Mo166  1  0.20401875  0.59192389  0.75237388  1
  Mo  Mo167  1  0.79448897  0.79409059  0.74631531  1
  Mo  Mo168  1  0.20320563  0.00196827  0.01401610  1
  Mo  Mo169  1  0.70277718  0.70369249  0.37856563  1
  Mo  Mo170  1  0.59122723  0.20163201  0.74744807  1
  Mo  Mo171  1  0.30281100  0.90387966  0.37213424  1
  Mo  Mo172  1  0.69602363  0.50252289  0.61974864  1
  Mo  Mo173  1  0.89804685  0.09623879  0.63239238  1
  Mo  Mo174  1  0.70659153  0.09581678  0.62015098  1
  Mo  Mo175  1  0.79856971  0.80571829  -0.00066002  1
  Mo  Mo176  1  0.19996858  0.80768211  0.26070808  1
  Mo  Mo177  1  0.10194636  0.70632406  0.36872387  1
  Mo  Mo178  1  0.50411967  0.28361176  0.87008483  1
  Mo  Mo179  1  0.79462392  0.00326517  0.74963761  1
  Mo  Mo180  1  0.59921464  0.59870883  0.25026529  1
  Mo  Mo181  1  0.90673453  0.89271404  0.12759490  1
  Mo  Mo182  1  0.40525742  0.59208932  0.24664374  1
  Mo  Mo183  1  0.18951252  0.40622921  0.00391515  1
  Mo  Mo184  1  0.69451088  0.29728531  0.87233445  1
  Mo  Mo185  1  0.70084822  0.08987126  0.12759905  1
  Mo  Mo186  1  0.89564309  0.10930783  0.37187854  1
  Mo  Mo187  1  0.48880869  0.50610521  0.38080473  1
  Mo  Mo188  1  0.00202160  0.00122527  0.24358958  1
  Mo  Mo189  1  0.10376449  0.10306247  0.11907198  1
  Mo  Mo190  1  0.79918240  0.41437837  0.00339539  1
  Mo  Mo191  1  0.20857861  0.20262693  0.75355354  1
  Mo  Mo192  1  0.49509078  0.30046304  0.60855181  1
  Mo  Mo193  1  0.79522316  0.19829171  0.50686790  1
  Mo  Mo194  1  -0.00153878  0.79520132  0.74321768  1
  Mo  Mo195  1  0.69007693  0.70252877  0.63421726  1
  Mo  Mo196  1  0.19819097  -0.00805561  0.49786754  1
  Mo  Mo197  1  0.49411463  0.71088260  0.63247699  1
  Mo  Mo198  1  0.80198993  0.80993908  0.49690509  1
  Mo  Mo199  1  0.30048837  0.08887938  0.62962970  1
