# generated using pymatgen
data_HfZrTaTiMo
_symmetry_space_group_name_H-M   'P 1'
_cell_length_a   15.21585406
_cell_length_b   15.21868709
_cell_length_c   16.84198514
_cell_angle_alpha   90.00104154
_cell_angle_beta   90.03426917
_cell_angle_gamma   89.95792994
_symmetry_Int_Tables_number   1
_chemical_formula_structural   HfZrTaTiMo
_chemical_formula_sum   'Hf40 Zr40 Ta40 Ti40 Mo40'
_cell_volume   3900.01795960
_cell_formula_units_Z   40
loop_
 _symmetry_equiv_pos_site_id
 _symmetry_equiv_pos_as_xyz
  1  'x, y, z'
loop_
 _atom_site_type_symbol
 _atom_site_label
 _atom_site_symmetry_multiplicity
 _atom_site_fract_x
 _atom_site_fract_y
 _atom_site_fract_z
 _atom_site_occupancy
  Hf  Hf0  1  0.49843108  0.07965963  0.12058596  1
  Hf  Hf1  1  0.50393198  0.28724669  0.63314625  1
  Hf  Hf2  1  0.19073859  -0.00565876  0.26136429  1
  Hf  Hf3  1  0.61262161  0.59520822  0.49775388  1
  Hf  Hf4  1  0.70824488  0.50795780  0.12170038  1
  Hf  Hf5  1  0.49797419  0.51113768  0.11877213  1
  Hf  Hf6  1  0.21828747  0.60385607  -0.00597886  1
  Hf  Hf7  1  0.30066764  0.09708177  0.62660995  1
  Hf  Hf8  1  0.19884166  -0.00103156  0.74597682  1
  Hf  Hf9  1  0.30509219  0.29391811  0.37414875  1
  Hf  Hf10  1  0.10584353  0.88773800  0.88792308  1
  Hf  Hf11  1  0.00917301  0.60307394  0.49024613  1
  Hf  Hf12  1  0.48167365  0.88811842  0.38304095  1
  Hf  Hf13  1  0.78879042  -0.01683639  0.26662705  1
  Hf  Hf14  1  0.68513399  0.91967588  0.88356633  1
  Hf  Hf15  1  0.59366632  0.00352234  0.49245949  1
  Hf  Hf16  1  0.11546017  0.51003124  0.63279336  1
  Hf  Hf17  1  0.60666237  0.60935508  0.25278349  1
  Hf  Hf18  1  0.40946926  0.39284271  0.24367218  1
  Hf  Hf19  1  0.50605832  0.08264015  0.88250515  1
  Hf  Hf20  1  0.10373114  0.49758727  0.12801438  1
  Hf  Hf21  1  0.11257047  0.50469680  0.87313199  1
  Hf  Hf22  1  0.68847239  0.91245556  0.11606943  1
  Hf  Hf23  1  0.30753260  0.51033280  0.36474311  1
  Hf  Hf24  1  0.60888310  0.39725316  0.24136409  1
  Hf  Hf25  1  0.50291576  0.69142059  0.62632271  1
  Hf  Hf26  1  0.40798772  0.40044680  0.50534977  1
  Hf  Hf27  1  0.90156339  0.29953983  0.12936082  1
  Hf  Hf28  1  0.29720095  0.90276749  0.12483444  1
  Hf  Hf29  1  0.92123871  0.50862934  0.88200460  1
  Hf  Hf30  1  0.19811103  0.80532846  0.50149025  1
  Hf  Hf31  1  0.40104688  0.19242405  0.50151159  1
  Hf  Hf32  1  0.09464356  0.29879963  0.10706134  1
  Hf  Hf33  1  -0.02334209  0.18711448  -0.01210633  1
  Hf  Hf34  1  0.01030884  0.39586687  0.74235321  1
  Hf  Hf35  1  0.40385159  0.40500354  -0.01434748  1
  Hf  Hf36  1  0.39041631  0.80104509  0.73801293  1
  Hf  Hf37  1  0.80197429  0.02239501  -0.00386143  1
  Hf  Hf38  1  0.80920507  0.62342862  0.25394832  1
  Hf  Hf39  1  0.80713441  0.40852874  0.50168032  1
  Zr  Zr40  1  0.08685013  0.11162444  0.61933838  1
  Zr  Zr41  1  0.18480030  0.21421641  0.49815036  1
  Zr  Zr42  1  0.79978527  0.01059667  0.74806492  1
  Zr  Zr43  1  0.81527020  0.62149558  0.76095115  1
  Zr  Zr44  1  0.30304255  0.50178311  0.13021298  1
  Zr  Zr45  1  0.91762669  0.51412483  0.12740425  1
  Zr  Zr46  1  0.29378365  0.08407425  0.88273284  1
  Zr  Zr47  1  0.60449223  0.80308711  0.75101752  1
  Zr  Zr48  1  -0.01145857  0.18396623  0.76113561  1
  Zr  Zr49  1  0.09373070  0.09439681  0.11007293  1
  Zr  Zr50  1  -0.01057532  0.00609587  0.25560921  1
  Zr  Zr51  1  0.09619174  0.89600738  0.11035698  1
  Zr  Zr52  1  0.40137273  0.19240901  0.76307087  1
  Zr  Zr53  1  0.88980776  0.88618773  0.11419925  1
  Zr  Zr54  1  0.01067818  0.39135550  0.50705305  1
  Zr  Zr55  1  0.50665903  0.49617272  0.37520631  1
  Zr  Zr56  1  0.70112839  0.50353829  0.87277442  1
  Zr  Zr57  1  0.80597308  0.81740931  0.75470610  1
  Zr  Zr58  1  0.59565141  0.61067084  -0.00458072  1
  Zr  Zr59  1  0.31073068  0.70489852  0.13314702  1
  Zr  Zr60  1  0.18828056  0.80847392  0.73697396  1
  Zr  Zr61  1  0.88469732  0.30207119  0.87414167  1
  Zr  Zr62  1  0.81277627  0.62147561  -0.00469412  1
  Zr  Zr63  1  -0.00171561  -0.02235394  0.73807474  1
  Zr  Zr64  1  0.28921907  0.30338526  0.63783716  1
  Zr  Zr65  1  0.09057952  0.69488987  0.12233882  1
  Zr  Zr66  1  0.48688508  0.09966435  0.37036423  1
  Zr  Zr67  1  0.38702726  0.18980929  0.23557507  1
  Zr  Zr68  1  0.20248585  0.38682791  0.24658271  1
  Zr  Zr69  1  0.71319295  0.70103647  0.62088003  1
  Zr  Zr70  1  0.20867404  0.41289313  0.49951072  1
  Zr  Zr71  1  0.69560310  0.12758852  0.86979236  1
  Zr  Zr72  1  0.59935591  0.20219058  0.25020626  1
  Zr  Zr73  1  0.18221139  0.19214386  0.25082181  1
  Zr  Zr74  1  0.09772288  0.49644108  0.35940568  1
  Zr  Zr75  1  0.80694349  0.39842043  0.25390731  1
  Zr  Zr76  1  0.49670582  0.87359735  0.13203754  1
  Zr  Zr77  1  -0.00706813  0.79673954  0.25618264  1
  Zr  Zr78  1  0.51264747  0.49464023  0.63953621  1
  Zr  Zr79  1  0.80587793  0.40772087  0.74158944  1
  Ta  Ta80  1  0.09714583  0.30120644  0.88739778  1
  Ta  Ta81  1  0.40468015  0.39662686  0.76378539  1
  Ta  Ta82  1  0.78143332  0.21723347  0.01013478  1
  Ta  Ta83  1  0.50748541  0.70372942  0.39128522  1
  Ta  Ta84  1  -0.00418851  0.77851027  0.75225363  1
  Ta  Ta85  1  0.88624098  0.09211648  0.60421831  1
  Ta  Ta86  1  0.28777000  0.08802050  0.38369456  1
  Ta  Ta87  1  0.80656000  0.40416834  0.00489541  1
  Ta  Ta88  1  0.61361148  0.80132223  0.26570118  1
  Ta  Ta89  1  0.41079167  0.62131362  0.25686523  1
  Ta  Ta90  1  0.08211132  0.10802177  0.38805311  1
  Ta  Ta91  1  0.31165269  0.50957700  0.64131501  1
  Ta  Ta92  1  0.80643919  0.19228787  0.25975797  1
  Ta  Ta93  1  0.60953298  0.37925315  0.75667857  1
  Ta  Ta94  1  0.69898010  0.90734073  0.61058681  1
  Ta  Ta95  1  0.50051260  0.29638855  0.11213369  1
  Ta  Ta96  1  0.69891232  0.30443850  0.61580815  1
  Ta  Ta97  1  0.90639353  0.28962699  0.62161878  1
  Ta  Ta98  1  0.69230361  0.10697515  0.61718777  1
  Ta  Ta99  1  0.70130717  0.10632507  0.13470778  1
  Ta  Ta100  1  0.89593598  0.09866642  0.39018433  1
  Ta  Ta101  1  0.60216696  0.20543025  0.49453652  1
  Ta  Ta102  1  0.40048649  0.19764937  -0.00201474  1
  Ta  Ta103  1  0.90979701  0.90770552  0.88758028  1
  Ta  Ta104  1  0.18736851  -0.00161927  0.50282403  1
  Ta  Ta105  1  0.20667436  0.60858905  0.49202794  1
  Ta  Ta106  1  0.61289860  0.38672131  0.00313140  1
  Ta  Ta107  1  0.90813458  0.52060666  0.62603038  1
  Ta  Ta108  1  0.29868815  0.70957023  0.86791274  1
  Ta  Ta109  1  0.39705621  0.60152740  0.50163246  1
  Ta  Ta110  1  0.70442484  0.72110596  0.12547355  1
  Ta  Ta111  1  0.40585117  0.77434059  -0.00545021  1
  Ta  Ta112  1  0.48502176  0.88886767  0.87659526  1
  Ta  Ta113  1  0.90602587  0.71006139  0.38173298  1
  Ta  Ta114  1  0.29365118  0.69489627  0.62029084  1
  Ta  Ta115  1  0.49724164  0.89672786  0.61214623  1
  Ta  Ta116  1  0.49906374  0.68646832  0.85797076  1
  Ta  Ta117  1  0.78631825  0.20965047  0.73501085  1
  Ta  Ta118  1  0.79719979  0.20555727  0.49576705  1
  Ta  Ta119  1  0.70976682  0.50252312  0.37369699  1
  Ti  Ti120  1  0.20677030  0.39799190  0.75894315  1
  Ti  Ti121  1  0.20065981  0.19561612  -0.00991142  1
  Ti  Ti122  1  0.08384975  0.70552419  0.61842230  1
  Ti  Ti123  1  0.89445278  0.09816989  0.13177880  1
  Ti  Ti124  1  0.50858671  0.29961360  0.37662212  1
  Ti  Ti125  1  0.79440809  -0.00702075  0.48861451  1
  Ti  Ti126  1  0.31276183  0.71824661  0.38027286  1
  Ti  Ti127  1  0.08646402  0.08332881  0.88669709  1
  Ti  Ti128  1  0.59807266  0.79874203  -0.01016027  1
  Ti  Ti129  1  0.20610341  0.80458068  0.26818027  1
  Ti  Ti130  1  0.19622684  0.61831515  0.26118569  1
  Ti  Ti131  1  0.29766432  0.30019782  0.87725357  1
  Ti  Ti132  1  0.20404498  0.39880130  -0.00645151  1
  Ti  Ti133  1  0.29217020  0.09566873  0.10859451  1
  Ti  Ti134  1  0.59527231  0.00077299  0.73866592  1
  Ti  Ti135  1  0.39802067  -0.01924171  -0.00147207  1
  Ti  Ti136  1  0.81049639  0.60311134  0.49219752  1
  Ti  Ti137  1  0.21035252  0.80045650  -0.00383902  1
  Ti  Ti138  1  0.90602775  0.50047716  0.36557308  1
  Ti  Ti139  1  0.50118416  0.09215838  0.62493774  1
  Ti  Ti140  1  0.59450378  -0.00541993  0.26365391  1
  Ti  Ti141  1  0.59970136  0.19190011  0.01075835  1
  Ti  Ti142  1  0.70403236  0.50515598  0.63385710  1
  Ti  Ti143  1  0.30042403  0.29566916  0.11008073  1
  Ti  Ti144  1  0.31496613  0.51515786  0.85947023  1
  Ti  Ti145  1  0.18692218  0.20392997  0.76317751  1
  Ti  Ti146  1  0.79460764  0.80365974  -0.01681400  1
  Ti  Ti147  1  0.38054407  -0.01687897  0.50390529  1
  Ti  Ti148  1  0.08131368  0.89853212  0.38863847  1
  Ti  Ti149  1  0.90357755  0.88391278  0.60506382  1
  Ti  Ti150  1  0.50677808  0.49626020  0.86388612  1
  Ti  Ti151  1  0.70785179  0.30344967  0.38002394  1
  Ti  Ti152  1  0.40059033  -0.01146019  0.74606216  1
  Ti  Ti153  1  0.19623606  0.61730791  0.75383879  1
  Ti  Ti154  1  0.91957021  0.29211439  0.37160544  1
  Ti  Ti155  1  0.38813755  -0.01240850  0.25564375  1
  Ti  Ti156  1  0.60938973  0.39797233  0.49990952  1
  Ti  Ti157  1  0.79418712  0.79823665  0.48808441  1
  Ti  Ti158  1  0.51485536  0.28880082  0.87854071  1
  Ti  Ti159  1  0.69715590  0.10416062  0.37634867  1
  Mo  Mo160  1  -0.00699055  -0.00408486  0.50253723  1
  Mo  Mo161  1  0.01416671  0.60402174  -0.00224612  1
  Mo  Mo162  1  0.90433492  0.70198424  0.61160509  1
  Mo  Mo163  1  0.20535761  -0.00265679  -0.00349603  1
  Mo  Mo164  1  -0.01212089  0.20353329  0.50316891  1
  Mo  Mo165  1  0.40245631  0.79789235  0.26046208  1
  Mo  Mo166  1  0.89362035  0.90131774  0.38923884  1
  Mo  Mo167  1  0.09271971  0.29595504  0.36861055  1
  Mo  Mo168  1  0.91153773  0.71365835  0.87889440  1
  Mo  Mo169  1  0.70354074  0.69867966  0.38519710  1
  Mo  Mo170  1  0.69777145  0.71355274  0.87397397  1
  Mo  Mo171  1  0.60749311  0.59384409  0.75665242  1
  Mo  Mo172  1  0.51183640  0.70073092  0.12793516  1
  Mo  Mo173  1  0.00245490  0.60383670  0.26385112  1
  Mo  Mo174  1  0.70039896  0.29758713  0.12681918  1
  Mo  Mo175  1  -0.00953239  0.78332021  -0.00543667  1
  Mo  Mo176  1  0.09874265  0.69518310  0.88136179  1
  Mo  Mo177  1  0.28965852  0.90299453  0.37889738  1
  Mo  Mo178  1  0.59221048  0.00026550  0.00326101  1
  Mo  Mo179  1  0.29814139  0.90543328  0.62090183  1
  Mo  Mo180  1  0.30824777  0.89189770  0.87819957  1
  Mo  Mo181  1  0.68811401  0.89532958  0.39015281  1
  Mo  Mo182  1  0.89257623  0.09806538  0.87134811  1
  Mo  Mo183  1  0.08897157  0.89899470  0.61399293  1
  Mo  Mo184  1  0.40468324  0.59998777  -0.01380272  1
  Mo  Mo185  1  0.69380321  0.30671875  0.87790202  1
  Mo  Mo186  1  0.60053856  0.19278700  0.74202205  1
  Mo  Mo187  1  0.01024548  0.60433672  0.74500958  1
  Mo  Mo188  1  -0.01023797  0.19725258  0.25101192  1
  Mo  Mo189  1  0.89485839  0.70689666  0.12344205  1
  Mo  Mo190  1  0.60269611  0.80200895  0.50357653  1
  Mo  Mo191  1  0.39659218  0.60109623  0.74940588  1
  Mo  Mo192  1  0.79122975  0.80384250  0.25975014  1
  Mo  Mo193  1  0.10158426  0.30225197  0.64053674  1
  Mo  Mo194  1  0.11015153  0.70482643  0.37272608  1
  Mo  Mo195  1  0.39599004  0.79229070  0.51462418  1
  Mo  Mo196  1  -0.00457133  -0.00547245  -0.00274516  1
  Mo  Mo197  1  -0.00437482  0.79880982  0.49487321  1
  Mo  Mo198  1  0.00538459  0.40013258  -0.00476982  1
  Mo  Mo199  1  0.00348546  0.38943843  0.25523372  1
