# generated using pymatgen
data_HfZrTaTiMo
_symmetry_space_group_name_H-M   'P 1'
_cell_length_a   15.20243738
_cell_length_b   15.20693001
_cell_length_c   16.86100143
_cell_angle_alpha   90.04068955
_cell_angle_beta   90.01057323
_cell_angle_gamma   89.99364148
_symmetry_Int_Tables_number   1
_chemical_formula_structural   HfZrTaTiMo
_chemical_formula_sum   'Hf40 Zr40 Ta40 Ti40 Mo40'
_cell_volume   3897.96572659
_cell_formula_units_Z   40
loop_
 _symmetry_equiv_pos_site_id
 _symmetry_equiv_pos_as_xyz
  1  'x, y, z'
loop_
 _atom_site_type_symbol
 _atom_site_label
 _atom_site_symmetry_multiplicity
 _atom_site_fract_x
 _atom_site_fract_y
 _atom_site_fract_z
 _atom_site_occupancy
  Hf  Hf0  1  0.50804813  0.09894374  0.39520430  1
  Hf  Hf1  1  0.48485261  0.48165008  0.12786488  1
  Hf  Hf2  1  0.81877704  0.20515680  0.49353774  1
  Hf  Hf3  1  0.21295111  0.19615028  0.24766763  1
  Hf  Hf4  1  0.90687824  0.11422539  0.88284054  1
  Hf  Hf5  1  0.89640570  0.50350656  0.13209978  1
  Hf  Hf6  1  0.68070830  0.68981130  0.87038324  1
  Hf  Hf7  1  0.31494635  0.89844791  0.89077694  1
  Hf  Hf8  1  0.21557916  0.22662552  -0.01099328  1
  Hf  Hf9  1  -0.00842210  0.61053433  -0.00864929  1
  Hf  Hf10  1  0.27693885  0.09486866  0.61638033  1
  Hf  Hf11  1  0.49840153  0.28953844  0.86592695  1
  Hf  Hf12  1  0.11320012  0.30090373  0.36690736  1
  Hf  Hf13  1  0.47594472  0.70558986  0.86350441  1
  Hf  Hf14  1  0.92333504  0.28875859  0.62660940  1
  Hf  Hf15  1  0.42442518  0.20696450  0.26253190  1
  Hf  Hf16  1  0.18586862  0.79012392  0.00302238  1
  Hf  Hf17  1  0.92447604  0.09225717  0.37515454  1
  Hf  Hf18  1  0.39349659  0.38476134  -0.01092520  1
  Hf  Hf19  1  0.80621554  0.39206440  0.74347760  1
  Hf  Hf20  1  0.79631508  0.40309078  0.50685275  1
  Hf  Hf21  1  0.71384183  0.09795679  0.11469203  1
  Hf  Hf22  1  0.49717209  0.88873995  0.37312781  1
  Hf  Hf23  1  0.11104110  0.92344043  0.63249398  1
  Hf  Hf24  1  0.29612543  0.50516350  0.61679942  1
  Hf  Hf25  1  0.09946339  0.71593975  0.36307641  1
  Hf  Hf26  1  0.08956014  0.89803635  0.13303354  1
  Hf  Hf27  1  0.30819683  0.10553257  0.11513845  1
  Hf  Hf28  1  0.32725752  0.30616516  0.13560980  1
  Hf  Hf29  1  0.68967086  0.68660979  0.36994165  1
  Hf  Hf30  1  0.70593420  0.88841536  0.38251199  1
  Hf  Hf31  1  0.07464814  0.91531614  0.35590237  1
  Hf  Hf32  1  0.49201287  0.09264834  0.61670693  1
  Hf  Hf33  1  0.61279083  0.39554729  0.73992088  1
  Hf  Hf34  1  0.40733344  0.40731512  0.50648786  1
  Hf  Hf35  1  0.39242160  0.00428337  0.25610133  1
  Hf  Hf36  1  0.90798729  0.90434188  0.63257062  1
  Hf  Hf37  1  0.90125999  0.50914159  0.62888708  1
  Hf  Hf38  1  0.71471480  0.10136364  0.61183497  1
  Hf  Hf39  1  0.29334353  0.10357372  0.38462526  1
  Zr  Zr40  1  0.70975444  0.30113625  0.12910431  1
  Zr  Zr41  1  0.29546700  0.90044483  0.12621188  1
  Zr  Zr42  1  0.60294529  -0.00980608  0.75043272  1
  Zr  Zr43  1  -0.00623319  0.60580622  0.48189635  1
  Zr  Zr44  1  0.18441617  0.60729725  0.74663807  1
  Zr  Zr45  1  0.01734224  0.02586211  0.76248110  1
  Zr  Zr46  1  0.50198429  0.50235652  0.86343688  1
  Zr  Zr47  1  0.52580353  0.30196468  0.39189037  1
  Zr  Zr48  1  0.79635743  0.79979279  0.77401104  1
  Zr  Zr49  1  0.22021187  0.81229988  0.74656129  1
  Zr  Zr50  1  0.27382702  0.49040825  0.13748888  1
  Zr  Zr51  1  0.29583326  0.69684397  0.36851200  1
  Zr  Zr52  1  0.00978240  0.40576671  0.00402495  1
  Zr  Zr53  1  0.58828533  0.79959932  -0.00368799  1
  Zr  Zr54  1  0.60646507  0.00457240  0.25889813  1
  Zr  Zr55  1  0.11745016  0.31884108  0.13766407  1
  Zr  Zr56  1  0.80487454  0.00287329  0.76224139  1
  Zr  Zr57  1  0.70653835  0.87920644  0.62063227  1
  Zr  Zr58  1  0.29853621  0.49741612  0.87245773  1
  Zr  Zr59  1  0.58266266  0.59434540  0.00895834  1
  Zr  Zr60  1  0.59021363  0.60565668  0.23355166  1
  Zr  Zr61  1  0.50253401  0.50785663  0.63556876  1
  Zr  Zr62  1  0.89280738  0.89933989  0.11232036  1
  Zr  Zr63  1  0.78642671  0.60531649  0.49770193  1
  Zr  Zr64  1  0.01437460  0.20245799  0.01378907  1
  Zr  Zr65  1  0.50123077  0.89579292  0.13047153  1
  Zr  Zr66  1  -0.00200905  0.39688299  0.48707552  1
  Zr  Zr67  1  0.48549242  0.88206110  0.63105424  1
  Zr  Zr68  1  0.11216802  0.90875864  0.87497961  1
  Zr  Zr69  1  0.60189428  -0.01304149  0.50456950  1
  Zr  Zr70  1  0.28093078  0.69396228  0.14420875  1
  Zr  Zr71  1  0.89101436  0.70828585  0.62641131  1
  Zr  Zr72  1  0.79593008  0.78989747  0.24518683  1
  Zr  Zr73  1  0.20007001  0.38988993  0.74259583  1
  Zr  Zr74  1  0.00623002  0.79361210  0.76849296  1
  Zr  Zr75  1  0.51058196  0.10556592  0.12050272  1
  Zr  Zr76  1  0.30515939  0.70761555  0.61371692  1
  Zr  Zr77  1  0.60856003  0.19251809  0.74725571  1
  Zr  Zr78  1  0.69976675  0.90197238  0.11824435  1
  Zr  Zr79  1  0.29060987  0.49741263  0.37558574  1
  Ta  Ta80  1  0.17263735  0.01105184  0.48779407  1
  Ta  Ta81  1  0.80859007  0.00199894  0.25784736  1
  Ta  Ta82  1  0.50209936  0.50038179  0.37266009  1
  Ta  Ta83  1  0.71105813  0.10558724  0.38738469  1
  Ta  Ta84  1  0.19364637  0.01490076  0.00410620  1
  Ta  Ta85  1  0.79870984  0.79620001  -0.01910330  1
  Ta  Ta86  1  0.19529078  0.81716000  0.49911203  1
  Ta  Ta87  1  0.60056249  0.20069642  -0.00902843  1
  Ta  Ta88  1  0.60882847  0.40182509  0.25303266  1
  Ta  Ta89  1  0.81194762  0.19234234  0.25498837  1
  Ta  Ta90  1  0.49508754  0.69137595  0.37465864  1
  Ta  Ta91  1  0.01342265  0.42144389  0.25834628  1
  Ta  Ta92  1  0.60523325  0.39217446  -0.00539023  1
  Ta  Ta93  1  0.38348411  -0.00737974  0.74885456  1
  Ta  Ta94  1  0.00214525  0.00039600  -0.00428889  1
  Ta  Ta95  1  -0.02163051  0.61089344  0.26440576  1
  Ta  Ta96  1  0.79313366  0.59798131  -0.00427034  1
  Ta  Ta97  1  0.39936046  0.20284797  0.50420422  1
  Ta  Ta98  1  0.00903528  0.40268324  0.75012410  1
  Ta  Ta99  1  0.09579920  0.49738163  0.87276212  1
  Ta  Ta100  1  0.38434164  0.19181675  0.74385759  1
  Ta  Ta101  1  0.39671193  0.79563671  0.49129063  1
  Ta  Ta102  1  0.71390546  0.29563109  0.87807376  1
  Ta  Ta103  1  0.39980590  0.38687162  0.73857997  1
  Ta  Ta104  1  0.28200016  0.89462625  0.36417202  1
  Ta  Ta105  1  0.70320664  0.10083460  0.88580034  1
  Ta  Ta106  1  0.69946981  0.69786637  0.11754254  1
  Ta  Ta107  1  0.18358686  0.19414559  0.76190322  1
  Ta  Ta108  1  0.70253366  0.49076943  0.87788579  1
  Ta  Ta109  1  0.40730360  0.78956753  0.24786882  1
  Ta  Ta110  1  0.08142522  0.69405143  0.14221464  1
  Ta  Ta111  1  0.80876305  0.20914294  0.00228781  1
  Ta  Ta112  1  0.09363959  0.50369566  0.61788018  1
  Ta  Ta113  1  0.18453831  0.59085455  0.00130389  1
  Ta  Ta114  1  0.09158909  0.70797881  0.61511174  1
  Ta  Ta115  1  0.59511926  0.77263984  0.50456310  1
  Ta  Ta116  1  0.80576128  0.40114284  -0.00301281  1
  Ta  Ta117  1  -0.00468345  0.82174080  0.49863639  1
  Ta  Ta118  1  0.59126650  0.58402907  0.50192000  1
  Ta  Ta119  1  0.50444271  0.28945586  0.62090773  1
  Ti  Ti120  1  0.62048235  0.19893527  0.25624930  1
  Ti  Ti121  1  0.49924392  0.69592133  0.63815823  1
  Ti  Ti122  1  0.89513425  0.50003114  0.87110605  1
  Ti  Ti123  1  0.30416508  0.10307435  0.88094228  1
  Ti  Ti124  1  0.39567995  0.78538886  0.01498205  1
  Ti  Ti125  1  0.19291137  0.60711942  0.49934243  1
  Ti  Ti126  1  0.89079337  0.72722188  0.37986629  1
  Ti  Ti127  1  0.37818861  -0.01542660  0.49699839  1
  Ti  Ti128  1  0.51686963  0.29472566  0.12393319  1
  Ti  Ti129  1  0.71644713  0.30676467  0.37044221  1
  Ti  Ti130  1  0.31426427  0.30716459  0.37665371  1
  Ti  Ti131  1  0.38336992  0.59920334  0.00968205  1
  Ti  Ti132  1  0.49502459  0.09353756  0.87155480  1
  Ti  Ti133  1  0.01083546  0.19013960  0.23989671  1
  Ti  Ti134  1  0.90728445  0.09810165  0.12299838  1
  Ti  Ti135  1  0.87984711  0.49508700  0.36580421  1
  Ti  Ti136  1  0.80895988  0.19846840  0.74793579  1
  Ti  Ti137  1  -0.00720143  0.79798570  -0.01834918  1
  Ti  Ti138  1  0.91157330  0.30837510  0.87338261  1
  Ti  Ti139  1  0.68686576  0.68306461  0.64009288  1
  Ti  Ti140  1  0.78519309  0.58393326  0.24962717  1
  Ti  Ti141  1  0.90260328  0.30416621  0.14056178  1
  Ti  Ti142  1  0.69966108  0.49318578  0.11790578  1
  Ti  Ti143  1  0.61338688  0.39565297  0.51732057  1
  Ti  Ti144  1  0.29536026  0.29230360  0.61822198  1
  Ti  Ti145  1  0.28621582  0.69795661  0.88111261  1
  Ti  Ti146  1  0.89240990  0.70217242  0.12047985  1
  Ti  Ti147  1  0.18570543  0.00855218  0.24416034  1
  Ti  Ti148  1  0.91949383  0.09668767  0.62145223  1
  Ti  Ti149  1  -0.00650803  0.60313079  0.75953119  1
  Ti  Ti150  1  0.90800043  0.30005254  0.35647705  1
  Ti  Ti151  1  0.60346793  -0.00080079  -0.01270180  1
  Ti  Ti152  1  0.39481300  0.58887872  0.24769296  1
  Ti  Ti153  1  0.50410534  0.89756507  0.86304382  1
  Ti  Ti154  1  0.79218167  0.59241780  0.75601077  1
  Ti  Ti155  1  0.82235802  -0.01535347  0.49250885  1
  Ti  Ti156  1  0.41127960  0.00377735  -0.00214244  1
  Ti  Ti157  1  0.38499093  0.60447743  0.74844387  1
  Ti  Ti158  1  0.19399933  0.39604891  0.50379713  1
  Ti  Ti159  1  0.03247243  0.18941220  0.49597540  1
  Mo  Mo160  1  0.29775269  0.90720267  0.61147805  1
  Mo  Mo161  1  -0.00017364  0.21850100  0.75686202  1
  Mo  Mo162  1  0.09394053  0.12375512  0.62542140  1
  Mo  Mo163  1  0.68769435  0.48644973  0.37292120  1
  Mo  Mo164  1  0.08911064  0.51371930  0.13150984  1
  Mo  Mo165  1  0.20490684  0.39914550  0.26168690  1
  Mo  Mo166  1  0.09854322  0.30700865  0.87471310  1
  Mo  Mo167  1  0.00096273  0.00318034  0.50620937  1
  Mo  Mo168  1  -0.01496506  0.79930682  0.24441963  1
  Mo  Mo169  1  0.59418420  0.79384245  0.75154486  1
  Mo  Mo170  1  0.21658026  0.01931015  0.75821335  1
  Mo  Mo171  1  0.70408504  0.50329299  0.63077119  1
  Mo  Mo172  1  0.10521038  0.10150930  0.12041396  1
  Mo  Mo173  1  0.20114854  0.41006082  -0.00760643  1
  Mo  Mo174  1  0.19558493  0.80326707  0.24745981  1
  Mo  Mo175  1  0.89516903  0.90002105  0.37205946  1
  Mo  Mo176  1  0.30540263  0.29333649  0.86003150  1
  Mo  Mo177  1  0.10134712  0.69393556  0.87634887  1
  Mo  Mo178  1  0.11008129  0.10945057  0.88671034  1
  Mo  Mo179  1  0.41084870  0.60941386  0.49731981  1
  Mo  Mo180  1  0.59367090  0.79429196  0.24769066  1
  Mo  Mo181  1  0.09530753  0.50712365  0.38229635  1
  Mo  Mo182  1  -0.01091108  0.01175671  0.23391216  1
  Mo  Mo183  1  0.39696438  0.80010929  0.75234030  1
  Mo  Mo184  1  0.89102357  0.68939598  0.87647695  1
  Mo  Mo185  1  0.80350281  0.00460084  -0.01211072  1
  Mo  Mo186  1  0.80581210  0.39794967  0.25406490  1
  Mo  Mo187  1  0.41247029  0.19171893  -0.00921580  1
  Mo  Mo188  1  0.10313132  0.10607738  0.36504575  1
  Mo  Mo189  1  0.70847152  0.29193207  0.62217793  1
  Mo  Mo190  1  0.10998269  0.30046622  0.61819083  1
  Mo  Mo191  1  0.79222917  0.79893437  0.50409664  1
  Mo  Mo192  1  0.69259831  0.90479893  0.88478521  1
  Mo  Mo193  1  0.89957355  0.90643041  0.89037937  1
  Mo  Mo194  1  0.48477735  0.69347391  0.12577284  1
  Mo  Mo195  1  0.60174071  0.59747808  0.75236889  1
  Mo  Mo196  1  0.16726597  0.58485085  0.25805935  1
  Mo  Mo197  1  0.20946222  0.21215083  0.49337430  1
  Mo  Mo198  1  0.61447521  0.20474690  0.50815533  1
  Mo  Mo199  1  0.41553143  0.40011703  0.26273733  1
