# generated using pymatgen
data_HfZrTaTiMo
_symmetry_space_group_name_H-M   'P 1'
_cell_length_a   15.20829617
_cell_length_b   15.20176254
_cell_length_c   16.84059077
_cell_angle_alpha   89.99442618
_cell_angle_beta   89.98879968
_cell_angle_gamma   90.02303584
_symmetry_Int_Tables_number   1
_chemical_formula_structural   HfZrTaTiMo
_chemical_formula_sum   'Hf40 Zr40 Ta40 Ti40 Mo40'
_cell_volume   3893.42472886
_cell_formula_units_Z   40
loop_
 _symmetry_equiv_pos_site_id
 _symmetry_equiv_pos_as_xyz
  1  'x, y, z'
loop_
 _atom_site_type_symbol
 _atom_site_label
 _atom_site_symmetry_multiplicity
 _atom_site_fract_x
 _atom_site_fract_y
 _atom_site_fract_z
 _atom_site_occupancy
  Hf  Hf0  1  0.20474904  0.00423191  0.75398477  1
  Hf  Hf1  1  0.48494929  0.50584727  0.35216631  1
  Hf  Hf2  1  0.10507342  0.90967646  0.10769932  1
  Hf  Hf3  1  0.39415336  0.41624037  0.49795611  1
  Hf  Hf4  1  0.80456545  0.38491258  0.26035256  1
  Hf  Hf5  1  0.19998014  0.00434733  0.24872188  1
  Hf  Hf6  1  0.12003921  0.89924509  0.61207483  1
  Hf  Hf7  1  0.68011383  0.89391018  0.37437442  1
  Hf  Hf8  1  0.38718985  0.80953274  0.75831677  1
  Hf  Hf9  1  0.89994645  0.89447171  0.62817406  1
  Hf  Hf10  1  0.89347406  0.69311177  0.63279180  1
  Hf  Hf11  1  0.80607198  0.39276293  0.47672869  1
  Hf  Hf12  1  0.82100274  0.58840672  0.26105283  1
  Hf  Hf13  1  0.79204010  -0.00486407  0.75224395  1
  Hf  Hf14  1  0.87542986  0.69749288  0.85757178  1
  Hf  Hf15  1  0.29445061  0.10552202  0.38895122  1
  Hf  Hf16  1  0.49942025  0.10379837  0.11043063  1
  Hf  Hf17  1  0.09202194  0.10937874  0.37669329  1
  Hf  Hf18  1  0.20170663  0.80198258  0.24250676  1
  Hf  Hf19  1  0.60069608  0.22171175  0.75404825  1
  Hf  Hf20  1  0.91146858  0.69307595  0.38437456  1
  Hf  Hf21  1  0.77906659  0.56764018  0.74797118  1
  Hf  Hf22  1  0.60033039  0.39688067  0.47638118  1
  Hf  Hf23  1  0.69176157  0.67766630  0.62841274  1
  Hf  Hf24  1  0.50016575  0.90310077  0.12520965  1
  Hf  Hf25  1  0.00757244  0.37070628  0.75418700  1
  Hf  Hf26  1  0.69779438  0.10490850  0.88962064  1
  Hf  Hf27  1  0.21244941  0.58925574  0.50710194  1
  Hf  Hf28  1  -0.00362225  0.00448924  0.24816132  1
  Hf  Hf29  1  0.59210583  0.00125379  0.74927492  1
  Hf  Hf30  1  0.19168179  0.20430006  0.01853271  1
  Hf  Hf31  1  0.29603488  0.08652619  0.11268190  1
  Hf  Hf32  1  0.60825181  0.59362522  0.48035577  1
  Hf  Hf33  1  0.89871948  0.48613805  0.11216254  1
  Hf  Hf34  1  0.69184166  0.69689759  0.12906098  1
  Hf  Hf35  1  0.69327369  0.09874890  0.10697914  1
  Hf  Hf36  1  0.58723634  0.79102943  -0.01186515  1
  Hf  Hf37  1  0.00437361  0.00398068  0.74899805  1
  Hf  Hf38  1  -0.00144059  0.59825294  -0.02241901  1
  Hf  Hf39  1  0.12273363  0.48282559  0.63878691  1
  Zr  Zr40  1  0.78704553  0.00658642  0.25354729  1
  Zr  Zr41  1  0.90343886  0.09608655  0.89439395  1
  Zr  Zr42  1  0.79454560  0.00133978  0.49664970  1
  Zr  Zr43  1  0.59088955  0.79599129  0.51113069  1
  Zr  Zr44  1  0.89710131  0.89347561  0.87076401  1
  Zr  Zr45  1  0.48365387  0.70456881  0.13534023  1
  Zr  Zr46  1  0.28573596  0.90016407  0.39004992  1
  Zr  Zr47  1  0.21208357  0.60525001  0.76504609  1
  Zr  Zr48  1  0.20753377  0.41055967  0.22602921  1
  Zr  Zr49  1  0.50574110  0.71461496  0.35911231  1
  Zr  Zr50  1  0.59429304  -0.00040767  0.51508760  1
  Zr  Zr51  1  0.90328989  0.89768863  0.37624421  1
  Zr  Zr52  1  0.00612871  0.78099975  0.23850629  1
  Zr  Zr53  1  0.90615260  0.29660439  0.90021460  1
  Zr  Zr54  1  0.11331453  0.48292505  0.87669264  1
  Zr  Zr55  1  0.08777766  0.11044303  0.61916459  1
  Zr  Zr56  1  0.33335318  0.49980482  0.88957633  1
  Zr  Zr57  1  0.00131270  0.59064994  0.75819052  1
  Zr  Zr58  1  0.39394207  0.19665620  0.24427904  1
  Zr  Zr59  1  -0.00704002  0.79372341  -0.00389591  1
  Zr  Zr60  1  0.49757851  0.11288612  0.88090569  1
  Zr  Zr61  1  0.81206198  0.20699069  0.75650791  1
  Zr  Zr62  1  0.50898141  0.51611003  0.14284397  1
  Zr  Zr63  1  0.29468160  0.71617725  0.62707232  1
  Zr  Zr64  1  0.38944200  0.21811706  0.74673128  1
  Zr  Zr65  1  0.22043358  0.39948253  0.01765898  1
  Zr  Zr66  1  0.88966667  0.89320994  0.12216736  1
  Zr  Zr67  1  0.71701863  0.30931682  0.61892112  1
  Zr  Zr68  1  0.00448192  0.40518951  0.24331978  1
  Zr  Zr69  1  0.02093997  0.38590831  0.50003317  1
  Zr  Zr70  1  0.79070009  0.79006022  0.25431633  1
  Zr  Zr71  1  0.59342897  0.78822982  0.75284943  1
  Zr  Zr72  1  0.10789896  0.70253755  0.38760078  1
  Zr  Zr73  1  0.60380722  0.41841259  0.01123679  1
  Zr  Zr74  1  0.43032872  0.41628715  0.74779073  1
  Zr  Zr75  1  0.50666839  0.10344492  0.38046155  1
  Zr  Zr76  1  0.29457076  0.11380745  0.88146427  1
  Zr  Zr77  1  0.89117166  0.47766365  0.62533914  1
  Zr  Zr78  1  0.29206819  0.31688756  0.36718844  1
  Zr  Zr79  1  0.40294434  0.21570547  0.50695736  1
  Ta  Ta80  1  0.09574662  0.10141762  0.88692652  1
  Ta  Ta81  1  0.49741612  0.11259445  0.62926740  1
  Ta  Ta82  1  0.60948182  0.19802499  0.24527059  1
  Ta  Ta83  1  0.41048844  0.60900795  0.49781532  1
  Ta  Ta84  1  0.39574354  0.80373823  0.50436859  1
  Ta  Ta85  1  0.30455669  0.69493651  0.37697338  1
  Ta  Ta86  1  0.51409328  0.32100735  0.62073389  1
  Ta  Ta87  1  0.19377648  0.60964667  0.24172455  1
  Ta  Ta88  1  0.70871614  0.50144652  0.13698725  1
  Ta  Ta89  1  -0.00026456  0.79617164  0.50988825  1
  Ta  Ta90  1  0.60873031  0.39377011  0.25471268  1
  Ta  Ta91  1  0.50778786  0.30297308  0.12539535  1
  Ta  Ta92  1  0.00552444  0.59041555  0.51316096  1
  Ta  Ta93  1  0.39869563  -0.00752085  -0.00740929  1
  Ta  Ta94  1  0.79382800  0.78871475  0.50029386  1
  Ta  Ta95  1  0.20828685  0.61860387  -0.01124271  1
  Ta  Ta96  1  -0.00439899  0.00232538  0.49805299  1
  Ta  Ta97  1  0.50120780  0.32604579  0.88928406  1
  Ta  Ta98  1  0.28927244  0.10633934  0.61821159  1
  Ta  Ta99  1  0.80108162  0.58912432  0.49048273  1
  Ta  Ta100  1  0.79378901  -0.01876880  -0.00187381  1
  Ta  Ta101  1  0.80420573  0.19266947  0.24285474  1
  Ta  Ta102  1  0.18982410  0.22372282  0.50455096  1
  Ta  Ta103  1  0.38860428  0.80886504  0.24988631  1
  Ta  Ta104  1  0.70898720  0.30031161  0.11719310  1
  Ta  Ta105  1  0.39376692  0.22697881  0.00275374  1
  Ta  Ta106  1  0.18545486  0.21278940  0.74873408  1
  Ta  Ta107  1  -0.00434456  0.20120576  0.22879166  1
  Ta  Ta108  1  0.69824163  0.10450197  0.63014336  1
  Ta  Ta109  1  0.09771932  0.69868668  0.62542017  1
  Ta  Ta110  1  0.32492941  0.51049608  0.63405856  1
  Ta  Ta111  1  0.09911301  0.52643952  0.11261222  1
  Ta  Ta112  1  0.78563551  0.59159796  -0.00580945  1
  Ta  Ta113  1  0.39420186  0.00066691  0.51636558  1
  Ta  Ta114  1  0.78395313  0.78391388  -0.00136986  1
  Ta  Ta115  1  0.48403551  0.90856420  0.37377859  1
  Ta  Ta116  1  0.18748691  0.80672005  0.76532538  1
  Ta  Ta117  1  0.90193634  0.67946441  0.11805889  1
  Ta  Ta118  1  0.11801077  0.49916948  0.37511343  1
  Ta  Ta119  1  0.30491729  0.88888048  0.10886313  1
  Ti  Ti120  1  0.01561388  0.38986256  0.01114091  1
  Ti  Ti121  1  0.70499092  0.30211496  0.89266301  1
  Ti  Ti122  1  0.59095797  0.00216278  0.25082227  1
  Ti  Ti123  1  0.19536742  0.79796800  -0.01320996  1
  Ti  Ti124  1  0.67561725  0.67496903  0.86731621  1
  Ti  Ti125  1  0.38719218  0.78542934  -0.01301619  1
  Ti  Ti126  1  0.69011680  0.89618196  0.12487342  1
  Ti  Ti127  1  0.60662582  0.19819189  0.50414592  1
  Ti  Ti128  1  0.00199866  0.19660588  0.02660714  1
  Ti  Ti129  1  0.28747983  0.32039983  0.62745402  1
  Ti  Ti130  1  -0.01071674  0.19569927  0.49586740  1
  Ti  Ti131  1  0.91500141  0.28178413  0.62580410  1
  Ti  Ti132  1  0.89098867  0.09822778  0.62552419  1
  Ti  Ti133  1  0.92479563  0.49606403  0.37966142  1
  Ti  Ti134  1  0.91151761  0.27851478  0.36924748  1
  Ti  Ti135  1  0.62419739  0.60575325  0.26926384  1
  Ti  Ti136  1  0.69889664  0.27636026  0.37141853  1
  Ti  Ti137  1  0.10254388  0.30182513  0.36236599  1
  Ti  Ti138  1  0.29368247  0.90625545  0.88460957  1
  Ti  Ti139  1  0.39351459  -0.00204722  0.24770242  1
  Ti  Ti140  1  0.18778147  0.20429367  0.22865473  1
  Ti  Ti141  1  0.09402089  0.90897209  0.88672196  1
  Ti  Ti142  1  0.49225721  0.68783597  0.62706143  1
  Ti  Ti143  1  0.11250388  0.28952757  0.88399741  1
  Ti  Ti144  1  0.41441907  0.61276029  0.76018315  1
  Ti  Ti145  1  0.88880564  0.48246871  0.87971561  1
  Ti  Ti146  1  0.00452548  0.79751848  0.75047276  1
  Ti  Ti147  1  0.49592155  0.29819490  0.36031484  1
  Ti  Ti148  1  0.59765313  -0.01152619  -0.01064253  1
  Ti  Ti149  1  0.31413292  0.52868923  0.11204494  1
  Ti  Ti150  1  0.69372690  0.48497088  0.87720591  1
  Ti  Ti151  1  0.80081686  0.18849108  0.49112791  1
  Ti  Ti152  1  0.49320051  0.90126458  0.87252624  1
  Ti  Ti153  1  0.39667815  0.40406710  0.23306311  1
  Ti  Ti154  1  0.09858397  0.90218665  0.39075267  1
  Ti  Ti155  1  0.70232855  0.89020614  0.63139924  1
  Ti  Ti156  1  0.39583161  0.00950086  0.74385734  1
  Ti  Ti157  1  0.48771911  0.89841199  0.63291848  1
  Ti  Ti158  1  0.70121537  0.88186067  0.86945147  1
  Ti  Ti159  1  0.89304532  0.09317203  0.11139365  1
  Mo  Mo160  1  0.09276949  0.09763278  0.12452501  1
  Mo  Mo161  1  0.28764462  0.70567335  0.11496580  1
  Mo  Mo162  1  0.89842677  0.10760743  0.37204654  1
  Mo  Mo163  1  0.62363724  0.40679363  0.75208108  1
  Mo  Mo164  1  0.59190209  0.21214458  -0.00339481  1
  Mo  Mo165  1  -0.00174422  0.00395799  0.00423872  1
  Mo  Mo166  1  0.09393401  0.70939900  0.86797359  1
  Mo  Mo167  1  0.68980520  0.48365930  0.61341156  1
  Mo  Mo168  1  0.41426653  0.60892079  -0.00254455  1
  Mo  Mo169  1  0.29886133  0.30890907  0.87500512  1
  Mo  Mo170  1  0.20041399  -0.00508919  -0.01007403  1
  Mo  Mo171  1  0.19499009  0.01490360  0.49952425  1
  Mo  Mo172  1  0.19991977  0.79819905  0.50161629  1
  Mo  Mo173  1  0.10260531  0.29657410  0.62665955  1
  Mo  Mo174  1  0.80151877  0.40425667  0.00154781  1
  Mo  Mo175  1  0.00575341  0.19088289  0.75983196  1
  Mo  Mo176  1  0.51623610  0.50966097  0.61509899  1
  Mo  Mo177  1  0.29823156  0.51325523  0.36672443  1
  Mo  Mo178  1  0.41018162  0.40754222  0.01860550  1
  Mo  Mo179  1  0.29766080  0.70777923  0.87308791  1
  Mo  Mo180  1  0.78955608  0.78989875  0.74607217  1
  Mo  Mo181  1  0.10133996  0.70021791  0.11316049  1
  Mo  Mo182  1  0.69681483  0.10402014  0.37226883  1
  Mo  Mo183  1  0.71251546  0.70039233  0.37873570  1
  Mo  Mo184  1  0.70845835  0.49282454  0.36205610  1
  Mo  Mo185  1  0.30330087  0.91199774  0.62491865  1
  Mo  Mo186  1  0.48964627  0.69251541  0.87738539  1
  Mo  Mo187  1  0.79858558  0.38653905  0.76079626  1
  Mo  Mo188  1  0.52175211  0.51565961  0.88213047  1
  Mo  Mo189  1  0.31127729  0.29692045  0.13409316  1
  Mo  Mo190  1  0.89487520  0.29134940  0.11463716  1
  Mo  Mo191  1  0.37400684  0.60852593  0.24976505  1
  Mo  Mo192  1  0.58514447  0.58023477  0.74669523  1
  Mo  Mo193  1  0.79673227  0.19740625  0.01091178  1
  Mo  Mo194  1  0.20861321  0.40407898  0.50030259  1
  Mo  Mo195  1  0.09573820  0.30967879  0.12742701  1
  Mo  Mo196  1  0.22458473  0.38959504  0.75901451  1
  Mo  Mo197  1  0.01173878  0.59552902  0.24616632  1
  Mo  Mo198  1  0.60931090  0.61050449  0.00424661  1
  Mo  Mo199  1  0.59516514  0.81142917  0.25115606  1
