# generated using pymatgen
data_HfZrTaTiMo
_symmetry_space_group_name_H-M   'P 1'
_cell_length_a   15.22129775
_cell_length_b   15.20935936
_cell_length_c   16.86700870
_cell_angle_alpha   90.01838760
_cell_angle_beta   89.99281882
_cell_angle_gamma   89.96632514
_symmetry_Int_Tables_number   1
_chemical_formula_structural   HfZrTaTiMo
_chemical_formula_sum   'Hf40 Zr40 Ta40 Ti40 Mo40'
_cell_volume   3904.81596893
_cell_formula_units_Z   40
loop_
 _symmetry_equiv_pos_site_id
 _symmetry_equiv_pos_as_xyz
  1  'x, y, z'
loop_
 _atom_site_type_symbol
 _atom_site_label
 _atom_site_symmetry_multiplicity
 _atom_site_fract_x
 _atom_site_fract_y
 _atom_site_fract_z
 _atom_site_occupancy
  Hf  Hf0  1  0.10243501  0.48607967  0.61915597  1
  Hf  Hf1  1  0.90166037  0.28800401  0.13347199  1
  Hf  Hf2  1  0.09029451  0.89613711  0.87234180  1
  Hf  Hf3  1  0.09814019  0.69143408  0.36303726  1
  Hf  Hf4  1  0.11850788  0.27622994  0.14051445  1
  Hf  Hf5  1  0.70106383  0.49885317  0.87006111  1
  Hf  Hf6  1  0.70726267  0.91894011  0.37731932  1
  Hf  Hf7  1  0.79917135  0.39574524  0.74795444  1
  Hf  Hf8  1  0.41159915  0.40945609  0.26208077  1
  Hf  Hf9  1  0.38639853  0.81123747  0.48566933  1
  Hf  Hf10  1  0.41585091  0.40085167  0.49040922  1
  Hf  Hf11  1  0.20393509  0.17912257  0.48473567  1
  Hf  Hf12  1  0.20100063  0.20271640  0.75109922  1
  Hf  Hf13  1  0.70057863  0.90566507  0.13184918  1
  Hf  Hf14  1  0.39872844  0.79903403  0.25889854  1
  Hf  Hf15  1  0.49860134  0.89808085  0.12102881  1
  Hf  Hf16  1  0.50442639  0.90803994  0.37726097  1
  Hf  Hf17  1  0.10824266  0.09863866  0.87364080  1
  Hf  Hf18  1  0.59170495  0.77771626  -0.00284813  1
  Hf  Hf19  1  0.48901767  0.91042548  0.62023479  1
  Hf  Hf20  1  0.60070505  0.01637935  0.51191441  1
  Hf  Hf21  1  0.60856677  0.00462926  0.00418283  1
  Hf  Hf22  1  0.79709235  0.80609525  0.00447156  1
  Hf  Hf23  1  0.80384577  0.39292338  -0.00359153  1
  Hf  Hf24  1  0.49807095  0.70790136  0.61224069  1
  Hf  Hf25  1  0.30682494  0.70170434  0.87480044  1
  Hf  Hf26  1  0.29775311  0.49912248  0.61251245  1
  Hf  Hf27  1  0.28681615  0.71195609  0.62517537  1
  Hf  Hf28  1  0.18992075  0.78755187  0.00684909  1
  Hf  Hf29  1  0.69588519  0.69571954  0.13845853  1
  Hf  Hf30  1  0.79232686  0.60383310  0.00682841  1
  Hf  Hf31  1  0.68578288  0.48150409  0.37779828  1
  Hf  Hf32  1  0.89566365  0.90612384  0.14152974  1
  Hf  Hf33  1  0.01364142  0.58887771  0.23257740  1
  Hf  Hf34  1  0.89950390  0.49872701  0.62135944  1
  Hf  Hf35  1  0.78677892  0.38661401  0.25607988  1
  Hf  Hf36  1  0.71166480  0.89532082  0.86721570  1
  Hf  Hf37  1  0.90887821  0.29444788  0.86890181  1
  Hf  Hf38  1  0.90620571  0.29770944  0.61493564  1
  Hf  Hf39  1  0.40925477  0.60609687  0.74193447  1
  Zr  Zr40  1  0.91214465  0.50442008  0.87513297  1
  Zr  Zr41  1  0.01974381  0.39811476  0.01547651  1
  Zr  Zr42  1  0.00637430  0.39706328  0.24804940  1
  Zr  Zr43  1  0.59863780  0.40672268  0.00187275  1
  Zr  Zr44  1  0.49648927  0.89858191  0.88084440  1
  Zr  Zr45  1  0.50552578  0.69508375  0.38245222  1
  Zr  Zr46  1  -0.00958883  0.79661544  0.00361658  1
  Zr  Zr47  1  0.39602492  0.20621992  0.23885475  1
  Zr  Zr48  1  0.29022071  0.91559030  0.88526408  1
  Zr  Zr49  1  0.29305616  0.31328769  0.88099033  1
  Zr  Zr50  1  0.00341672  -0.00708125  0.48607692  1
  Zr  Zr51  1  0.01331659  0.59633853  0.02269394  1
  Zr  Zr52  1  0.29278934  0.90042492  0.13037889  1
  Zr  Zr53  1  0.39825418  0.01163700  0.24247386  1
  Zr  Zr54  1  0.89790664  0.30058193  0.38448622  1
  Zr  Zr55  1  0.61980138  0.20438790  0.24294182  1
  Zr  Zr56  1  0.20614224  0.59088028  0.75180477  1
  Zr  Zr57  1  0.09627416  0.68658317  0.87085672  1
  Zr  Zr58  1  0.18938356  0.03766348  0.24484940  1
  Zr  Zr59  1  0.09094967  0.88971159  0.14571250  1
  Zr  Zr60  1  0.28598386  0.90387389  0.62323593  1
  Zr  Zr61  1  0.70675450  0.10366804  0.86691646  1
  Zr  Zr62  1  0.60341255  0.79367987  0.74250452  1
  Zr  Zr63  1  0.49425287  0.10619511  0.88158870  1
  Zr  Zr64  1  0.51026901  0.11407342  0.37203599  1
  Zr  Zr65  1  -0.00382222  0.59164257  0.74481707  1
  Zr  Zr66  1  0.28594204  0.68490932  0.13602211  1
  Zr  Zr67  1  0.80038461  0.61077880  0.50257272  1
  Zr  Zr68  1  0.39670408  0.60184011  0.49631629  1
  Zr  Zr69  1  0.29571287  0.30557429  0.61454415  1
  Zr  Zr70  1  -0.00404642  0.79491733  0.49191569  1
  Zr  Zr71  1  0.42518956  0.19826771  0.50895020  1
  Zr  Zr72  1  0.69950823  0.70079661  0.37350393  1
  Zr  Zr73  1  0.49922172  0.51775752  0.87222134  1
  Zr  Zr74  1  0.60525179  0.20668492  0.73988748  1
  Zr  Zr75  1  0.30171694  0.09289684  0.62263388  1
  Zr  Zr76  1  0.88387851  0.71619377  0.86173536  1
  Zr  Zr77  1  0.50443055  0.31057432  0.87552517  1
  Zr  Zr78  1  0.00518626  0.19084303  0.00071868  1
  Zr  Zr79  1  0.58858596  0.58135706  0.25115241  1
  Ta  Ta80  1  0.00312472  0.19429971  0.49086149  1
  Ta  Ta81  1  0.70416340  0.27378342  0.39991419  1
  Ta  Ta82  1  0.89349306  0.71445326  0.63071337  1
  Ta  Ta83  1  0.90162578  0.70022332  0.35785672  1
  Ta  Ta84  1  0.09685533  0.89623455  0.63003245  1
  Ta  Ta85  1  0.79829633  0.19307978  -0.00355383  1
  Ta  Ta86  1  0.00244859  0.19678584  0.74342661  1
  Ta  Ta87  1  0.10048842  0.09136300  0.62109980  1
  Ta  Ta88  1  0.10128477  0.29123785  0.61274150  1
  Ta  Ta89  1  0.39830324  0.01064421  0.75646239  1
  Ta  Ta90  1  0.78727349  0.61007265  0.73517791  1
  Ta  Ta91  1  0.39166812  0.80975693  0.75350950  1
  Ta  Ta92  1  0.21458577  0.57040462  -0.00429906  1
  Ta  Ta93  1  0.60117137  0.00694165  0.24186719  1
  Ta  Ta94  1  -0.00613675  -0.00345776  0.00397458  1
  Ta  Ta95  1  0.30755049  0.29553193  0.37963217  1
  Ta  Ta96  1  -0.00119839  0.00517367  0.74429618  1
  Ta  Ta97  1  0.09495778  0.70550312  0.62904893  1
  Ta  Ta98  1  0.60520540  0.59559771  0.72683389  1
  Ta  Ta99  1  0.90057306  0.90369701  0.62591945  1
  Ta  Ta100  1  0.70488181  0.29257362  0.12029382  1
  Ta  Ta101  1  0.11607156  0.46745436  0.86684563  1
  Ta  Ta102  1  0.28620293  0.70000807  0.36932872  1
  Ta  Ta103  1  0.41098485  0.60988530  -0.00065326  1
  Ta  Ta104  1  0.18601900  0.01388213  0.01852509  1
  Ta  Ta105  1  0.40196249  0.20512395  0.74545007  1
  Ta  Ta106  1  0.89904365  0.70346605  0.14353471  1
  Ta  Ta107  1  0.90324596  0.50681141  0.37673926  1
  Ta  Ta108  1  0.59917764  0.00115039  0.73903538  1
  Ta  Ta109  1  0.10933912  0.29955241  0.37406434  1
  Ta  Ta110  1  0.09792686  0.89566863  0.35343906  1
  Ta  Ta111  1  0.87278453  0.09791615  0.38873891  1
  Ta  Ta112  1  0.49194944  0.69488698  0.13264200  1
  Ta  Ta113  1  0.69956756  0.30545735  0.61112575  1
  Ta  Ta114  1  0.00258333  0.18396397  0.26640582  1
  Ta  Ta115  1  0.60352591  0.58085897  0.51517939  1
  Ta  Ta116  1  0.80287937  0.59022576  0.25218913  1
  Ta  Ta117  1  0.80935023  0.19413795  0.73851667  1
  Ta  Ta118  1  0.38441584  0.02215086  0.01375227  1
  Ta  Ta119  1  0.30363520  0.32290726  0.11819697  1
  Ti  Ti120  1  0.38273486  0.00831946  0.48518306  1
  Ti  Ti121  1  0.39369749  0.80214685  0.00362045  1
  Ti  Ti122  1  0.19941171  -0.00496494  0.75247271  1
  Ti  Ti123  1  0.80812419  0.00378310  -0.00094661  1
  Ti  Ti124  1  0.28500398  0.91038354  0.36322718  1
  Ti  Ti125  1  0.60897128  0.20586909  0.00027658  1
  Ti  Ti126  1  -0.00608424  0.80744861  0.74930219  1
  Ti  Ti127  1  0.10253372  0.49717116  0.38180131  1
  Ti  Ti128  1  0.60089674  0.40134646  0.74503083  1
  Ti  Ti129  1  0.39061387  0.40295927  0.74738752  1
  Ti  Ti130  1  0.89449195  0.10008936  0.13008095  1
  Ti  Ti131  1  0.90278744  0.08865177  0.86965796  1
  Ti  Ti132  1  0.48999788  0.50325153  0.11765627  1
  Ti  Ti133  1  0.69251436  0.49156322  0.12920326  1
  Ti  Ti134  1  0.50423563  0.48328365  0.62654256  1
  Ti  Ti135  1  0.20697102  0.19825949  -0.00166360  1
  Ti  Ti136  1  0.18837092  0.60629998  0.50055471  1
  Ti  Ti137  1  0.68375453  0.68954321  0.87016257  1
  Ti  Ti138  1  -0.00321967  0.60256644  0.50137729  1
  Ti  Ti139  1  0.79503950  0.40662187  0.50061471  1
  Ti  Ti140  1  0.50803371  0.11072301  0.11762766  1
  Ti  Ti141  1  0.39040434  0.59512037  0.26243120  1
  Ti  Ti142  1  0.80649043  -0.00647175  0.74429743  1
  Ti  Ti143  1  -0.01792213  0.00262254  0.26793396  1
  Ti  Ti144  1  0.71060189  0.09845995  0.62569775  1
  Ti  Ti145  1  0.39964099  0.21218874  0.00813108  1
  Ti  Ti146  1  0.71104535  0.89489657  0.62338790  1
  Ti  Ti147  1  0.18792856  0.80937765  0.48873894  1
  Ti  Ti148  1  0.90394769  0.09501074  0.61464372  1
  Ti  Ti149  1  0.78860074  0.02588190  0.25166049  1
  Ti  Ti150  1  0.88558422  0.49584109  0.12877108  1
  Ti  Ti151  1  0.50376234  0.31195045  0.12031871  1
  Ti  Ti152  1  0.28932069  0.49879133  0.38705333  1
  Ti  Ti153  1  0.61304378  0.80052373  0.50495146  1
  Ti  Ti154  1  0.52600978  0.31290016  0.37407524  1
  Ti  Ti155  1  0.00664161  0.40088578  0.49111919  1
  Ti  Ti156  1  0.80783126  0.81141711  0.49249161  1
  Ti  Ti157  1  0.59806331  0.80510238  0.25272754  1
  Ti  Ti158  1  0.21192684  0.40641576  0.25607358  1
  Ti  Ti159  1  0.79923921  0.80665892  0.25948137  1
  Mo  Mo160  1  0.19787622  0.39655549  0.48508308  1
  Mo  Mo161  1  0.60054108  0.39338405  0.50670543  1
  Mo  Mo162  1  0.80227257  0.18849593  0.51963158  1
  Mo  Mo163  1  0.28856106  0.12662074  0.11547338  1
  Mo  Mo164  1  0.81024225  0.19414555  0.25439412  1
  Mo  Mo165  1  0.20524014  0.58235069  0.26023781  1
  Mo  Mo166  1  0.60324933  0.20314038  0.52040658  1
  Mo  Mo167  1  0.20017372  0.39101595  0.00499863  1
  Mo  Mo168  1  0.19928458  0.39298644  0.74291229  1
  Mo  Mo169  1  0.30431331  0.10367407  0.88260546  1
  Mo  Mo170  1  0.59663922  0.39248718  0.23650913  1
  Mo  Mo171  1  0.31556434  0.50067984  0.12891849  1
  Mo  Mo172  1  0.50015487  0.70395827  0.86589166  1
  Mo  Mo173  1  0.49815307  0.30699987  0.63924669  1
  Mo  Mo174  1  0.19002808  0.80370430  0.74946975  1
  Mo  Mo175  1  0.70185314  0.70696917  0.61118183  1
  Mo  Mo176  1  0.69716083  0.10204710  0.38364635  1
  Mo  Mo177  1  0.01385535  0.38042810  0.74369804  1
  Mo  Mo178  1  0.09625555  0.29364067  0.87076542  1
  Mo  Mo179  1  0.10302774  0.69068935  0.13199249  1
  Mo  Mo180  1  0.19674900  -0.01619973  0.48388972  1
  Mo  Mo181  1  0.49910265  0.49743678  0.37989961  1
  Mo  Mo182  1  0.70100331  0.49634313  0.62638121  1
  Mo  Mo183  1  0.59963894  0.60251000  0.01034867  1
  Mo  Mo184  1  0.08988521  0.10020421  0.37650509  1
  Mo  Mo185  1  0.80093233  -0.00777160  0.51157159  1
  Mo  Mo186  1  -0.00777784  0.79560098  0.25392946  1
  Mo  Mo187  1  0.89403109  0.89878602  0.36198940  1
  Mo  Mo188  1  0.80115654  0.80288444  0.74353237  1
  Mo  Mo189  1  0.70908927  0.29558662  0.87370796  1
  Mo  Mo190  1  0.08063607  0.09777627  0.12813289  1
  Mo  Mo191  1  0.70842795  0.10332445  0.11633871  1
  Mo  Mo192  1  0.20526471  0.21547480  0.26479855  1
  Mo  Mo193  1  0.30565345  0.49965720  0.87361820  1
  Mo  Mo194  1  0.19875034  0.79488478  0.25586218  1
  Mo  Mo195  1  0.90107730  0.91576480  0.87009814  1
  Mo  Mo196  1  0.38919790  0.41907776  0.00170381  1
  Mo  Mo197  1  0.50078516  0.09845437  0.63880057  1
  Mo  Mo198  1  0.30271616  0.10022588  0.37559683  1
  Mo  Mo199  1  0.14172831  0.48871083  0.12978930  1
