# generated using pymatgen
data_HfZrTaTiMo
_symmetry_space_group_name_H-M   'P 1'
_cell_length_a   15.21600404
_cell_length_b   15.20937277
_cell_length_c   16.86090526
_cell_angle_alpha   89.96371801
_cell_angle_beta   90.05507653
_cell_angle_gamma   89.94862285
_symmetry_Int_Tables_number   1
_chemical_formula_structural   HfZrTaTiMo
_chemical_formula_sum   'Hf40 Zr40 Ta40 Ti40 Mo40'
_cell_volume   3902.04564078
_cell_formula_units_Z   40
loop_
 _symmetry_equiv_pos_site_id
 _symmetry_equiv_pos_as_xyz
  1  'x, y, z'
loop_
 _atom_site_type_symbol
 _atom_site_label
 _atom_site_symmetry_multiplicity
 _atom_site_fract_x
 _atom_site_fract_y
 _atom_site_fract_z
 _atom_site_occupancy
  Hf  Hf0  1  0.69105697  0.10041239  0.86810206  1
  Hf  Hf1  1  0.00174264  0.20406555  0.76256587  1
  Hf  Hf2  1  0.59780954  0.02419611  0.23393954  1
  Hf  Hf3  1  0.80929310  0.60647190  0.72711221  1
  Hf  Hf4  1  0.30920204  0.70039220  0.38270124  1
  Hf  Hf5  1  0.51164870  0.69240610  0.38078727  1
  Hf  Hf6  1  0.91319900  0.70873861  0.36751084  1
  Hf  Hf7  1  0.90198989  0.50642230  0.87317884  1
  Hf  Hf8  1  0.10471494  0.08625978  0.62171399  1
  Hf  Hf9  1  0.90558155  0.50148637  0.13386318  1
  Hf  Hf10  1  0.39758714  0.59834187  0.75881820  1
  Hf  Hf11  1  0.61291419  0.60367024  0.74903071  1
  Hf  Hf12  1  0.28986932  0.10660588  0.88585065  1
  Hf  Hf13  1  0.38456669  0.00349921  0.50091070  1
  Hf  Hf14  1  0.48985351  0.89865275  0.63313041  1
  Hf  Hf15  1  0.29074069  0.29795325  0.35415440  1
  Hf  Hf16  1  0.28206629  0.89104612  0.88011514  1
  Hf  Hf17  1  0.89468239  0.28864957  0.11843238  1
  Hf  Hf18  1  -0.02493125  0.01036561  0.25016300  1
  Hf  Hf19  1  0.10910384  0.70664248  0.36195262  1
  Hf  Hf20  1  0.01531190  0.40713521  0.74006412  1
  Hf  Hf21  1  0.80749411  0.60893673  0.00193872  1
  Hf  Hf22  1  0.68729017  0.50517047  0.37189500  1
  Hf  Hf23  1  0.80710160  0.40993418  0.73206667  1
  Hf  Hf24  1  0.43392609  0.58716997  0.24995398  1
  Hf  Hf25  1  0.68950991  0.50793683  0.12918153  1
  Hf  Hf26  1  0.39221472  0.00260740  0.76443690  1
  Hf  Hf27  1  0.80839077  0.18470993  0.25660632  1
  Hf  Hf28  1  0.80151541  0.20007991  0.74228136  1
  Hf  Hf29  1  0.70759086  0.08962443  0.38204614  1
  Hf  Hf30  1  0.39418535  0.79674280  0.76256667  1
  Hf  Hf31  1  0.88902665  0.91370821  0.62952761  1
  Hf  Hf32  1  0.81276443  0.60688990  0.51707062  1
  Hf  Hf33  1  0.10774865  0.50088256  0.36229903  1
  Hf  Hf34  1  0.39988631  0.00120141  -0.00000891  1
  Hf  Hf35  1  0.30085544  0.70100808  0.61931987  1
  Hf  Hf36  1  0.28293820  0.88063063  0.12545045  1
  Hf  Hf37  1  0.60415136  0.59626028  -0.01767588  1
  Hf  Hf38  1  0.70965096  0.70637563  0.36896378  1
  Hf  Hf39  1  0.20750966  0.41556428  0.00006670  1
  Zr  Zr40  1  0.12041193  0.51118590  0.87258412  1
  Zr  Zr41  1  0.90773059  0.70673974  0.14075871  1
  Zr  Zr42  1  0.79380497  0.81420158  0.50203590  1
  Zr  Zr43  1  0.28093228  0.90299889  0.63134749  1
  Zr  Zr44  1  0.49633812  0.89277005  0.12159869  1
  Zr  Zr45  1  0.91124665  0.10042903  0.62134136  1
  Zr  Zr46  1  0.31913124  0.49485864  0.37346899  1
  Zr  Zr47  1  0.70678200  0.30948249  0.86201004  1
  Zr  Zr48  1  0.20832251  0.19055190  0.50089750  1
  Zr  Zr49  1  0.50756274  0.10688119  0.37916673  1
  Zr  Zr50  1  0.69270043  0.29505723  0.37661007  1
  Zr  Zr51  1  0.60391813  0.20555256  0.00523464  1
  Zr  Zr52  1  0.28975203  0.09520174  0.12267073  1
  Zr  Zr53  1  0.79741956  0.40447055  0.51430144  1
  Zr  Zr54  1  0.29618177  0.09260136  0.35967407  1
  Zr  Zr55  1  0.59786725  -0.00454651  0.50998129  1
  Zr  Zr56  1  0.87646158  0.08826280  0.10860656  1
  Zr  Zr57  1  0.20517540  0.39981138  0.50285326  1
  Zr  Zr58  1  0.60076765  0.80601405  0.24359607  1
  Zr  Zr59  1  0.08368361  0.10589102  0.11018769  1
  Zr  Zr60  1  0.60806839  0.59826852  0.52067255  1
  Zr  Zr61  1  0.41165760  0.40011739  -0.01643448  1
  Zr  Zr62  1  0.79805104  0.39674249  -0.00166569  1
  Zr  Zr63  1  0.50408258  0.31493122  0.12823081  1
  Zr  Zr64  1  0.39605716  0.78572888  -0.00585401  1
  Zr  Zr65  1  0.41935287  0.18649035  0.23727465  1
  Zr  Zr66  1  0.90260141  0.49874857  0.36967766  1
  Zr  Zr67  1  0.11265733  0.70657387  0.14252067  1
  Zr  Zr68  1  0.79254274  0.79924692  0.74655309  1
  Zr  Zr69  1  0.09089554  0.09166657  0.38182721  1
  Zr  Zr70  1  0.40899682  0.21157210  0.50791885  1
  Zr  Zr71  1  0.80190670  0.19787127  0.50716628  1
  Zr  Zr72  1  0.49431302  0.31917111  0.36748114  1
  Zr  Zr73  1  0.00904295  0.61064408  0.73189371  1
  Zr  Zr74  1  0.28845952  0.29859854  0.12986074  1
  Zr  Zr75  1  0.09569807  0.09162478  0.88516970  1
  Zr  Zr76  1  -0.00204667  0.37628868  0.25083902  1
  Zr  Zr77  1  0.59389625  0.39065722  0.52295698  1
  Zr  Zr78  1  0.11167195  0.49995731  0.14098707  1
  Zr  Zr79  1  0.29779233  0.30259741  0.86633234  1
  Ta  Ta80  1  0.50913602  0.90194095  0.88001841  1
  Ta  Ta81  1  0.50465155  0.70739920  0.63094104  1
  Ta  Ta82  1  0.28058326  0.68155970  0.87895194  1
  Ta  Ta83  1  0.00184596  0.40241552  0.50460917  1
  Ta  Ta84  1  -0.00111496  0.80426967  0.75560731  1
  Ta  Ta85  1  0.39972648  0.80222480  0.50000456  1
  Ta  Ta86  1  0.58607600  0.42064400  0.24755768  1
  Ta  Ta87  1  0.60200233  -0.00637939  0.75039866  1
  Ta  Ta88  1  0.08746117  0.29529983  0.38222689  1
  Ta  Ta89  1  0.78561122  0.38687302  0.24760156  1
  Ta  Ta90  1  0.01854453  0.60527398  0.50842059  1
  Ta  Ta91  1  0.89378677  0.90031778  0.87434881  1
  Ta  Ta92  1  0.28197628  0.89489543  0.37121503  1
  Ta  Ta93  1  0.01617894  0.60528762  0.00301154  1
  Ta  Ta94  1  0.50769461  0.28834742  0.85410416  1
  Ta  Ta95  1  0.10416952  0.29278262  0.62133692  1
  Ta  Ta96  1  0.60408518  0.40604304  -0.01093711  1
  Ta  Ta97  1  0.18561679  -0.01460586  0.00566650  1
  Ta  Ta98  1  0.08316284  0.88763024  0.62747683  1
  Ta  Ta99  1  0.59995465  0.00381108  0.00860274  1
  Ta  Ta100  1  0.49691606  0.10389410  0.64160174  1
  Ta  Ta101  1  0.39244937  -0.01807433  0.24657397  1
  Ta  Ta102  1  0.69703661  0.89782896  0.87481533  1
  Ta  Ta103  1  0.71541064  0.91393575  0.12186164  1
  Ta  Ta104  1  0.51130838  0.68345013  0.11538377  1
  Ta  Ta105  1  0.00131364  0.40708813  -0.00357932  1
  Ta  Ta106  1  0.31872403  0.49713841  0.13157121  1
  Ta  Ta107  1  0.10293715  0.30314232  0.88346809  1
  Ta  Ta108  1  0.61285048  0.80149176  0.00132253  1
  Ta  Ta109  1  0.18376036  0.80927179  0.49788172  1
  Ta  Ta110  1  -0.00008214  -0.01626723  0.49433018  1
  Ta  Ta111  1  -0.01784091  0.20939709  -0.01864618  1
  Ta  Ta112  1  0.48707304  0.89792657  0.37202095  1
  Ta  Ta113  1  0.49411910  0.49827049  0.64033229  1
  Ta  Ta114  1  0.50631409  0.70464487  0.87534184  1
  Ta  Ta115  1  0.29947130  0.10222150  0.63884889  1
  Ta  Ta116  1  0.16846377  0.20012747  0.24699916  1
  Ta  Ta117  1  0.17737069  -0.01695612  0.24192650  1
  Ta  Ta118  1  0.30372424  0.29774096  0.64160667  1
  Ta  Ta119  1  0.30004332  0.49553528  0.62912215  1
  Ti  Ti120  1  0.91214231  0.30143088  0.61984960  1
  Ti  Ti121  1  0.09517606  0.29784203  0.10848411  1
  Ti  Ti122  1  0.80502629  0.80676420  0.00270105  1
  Ti  Ti123  1  0.78814847  -0.00087766  -0.01025623  1
  Ti  Ti124  1  0.70527448  0.71015540  0.12955663  1
  Ti  Ti125  1  0.70872154  0.70290373  0.87459593  1
  Ti  Ti126  1  0.01532438  0.82621360  0.24872983  1
  Ti  Ti127  1  0.40445948  0.40232361  0.51466156  1
  Ti  Ti128  1  0.20543284  0.60040661  0.50320513  1
  Ti  Ti129  1  -0.00888605  -0.00183307  0.75964485  1
  Ti  Ti130  1  0.08866863  0.89030341  0.87796402  1
  Ti  Ti131  1  0.39802333  0.58717047  -0.01504746  1
  Ti  Ti132  1  0.22346894  0.60208833  0.25113895  1
  Ti  Ti133  1  0.92220376  0.72324781  0.61454068  1
  Ti  Ti134  1  0.49898006  0.10391437  0.87016450  1
  Ti  Ti135  1  0.40245714  0.19982558  0.00455847  1
  Ti  Ti136  1  0.60830460  0.39477752  0.73317248  1
  Ti  Ti137  1  0.40947416  0.59491837  0.50953300  1
  Ti  Ti138  1  -0.00464555  0.79949396  0.00496765  1
  Ti  Ti139  1  0.59388845  0.80069766  0.50181013  1
  Ti  Ti140  1  0.80104578  0.59966199  0.24915217  1
  Ti  Ti141  1  0.39756552  0.39835909  0.75185050  1
  Ti  Ti142  1  0.51405446  0.48950299  0.85735716  1
  Ti  Ti143  1  0.88777308  0.91616004  0.37980937  1
  Ti  Ti144  1  0.18379095  0.78534706  0.00104159  1
  Ti  Ti145  1  0.90503701  0.70596074  0.87753799  1
  Ti  Ti146  1  0.88779284  0.10006616  0.87903476  1
  Ti  Ti147  1  0.31209928  0.68458965  0.12019237  1
  Ti  Ti148  1  0.18501579  0.78632928  0.75120579  1
  Ti  Ti149  1  0.19668491  0.20096526  0.75006914  1
  Ti  Ti150  1  0.39610728  0.78868098  0.24890393  1
  Ti  Ti151  1  -0.01282452  -0.01453376  -0.00078170  1
  Ti  Ti152  1  0.68701129  0.89202964  0.63514055  1
  Ti  Ti153  1  0.18408043  -0.00810643  0.75740505  1
  Ti  Ti154  1  0.09343569  0.70121688  0.87830627  1
  Ti  Ti155  1  0.19877265  0.59122268  0.73607599  1
  Ti  Ti156  1  0.70585413  0.08351318  0.63490578  1
  Ti  Ti157  1  0.68785697  0.90334007  0.37196064  1
  Ti  Ti158  1  0.60320401  0.20015852  0.52949784  1
  Ti  Ti159  1  0.80903739  0.82310720  0.24839616  1
  Mo  Mo160  1  0.70247625  0.28950622  0.63540127  1
  Mo  Mo161  1  0.70304741  0.30404124  0.13091963  1
  Mo  Mo162  1  -0.00014963  0.60118036  0.25560374  1
  Mo  Mo163  1  -0.00475123  0.19720670  0.24971478  1
  Mo  Mo164  1  0.50398970  0.49898935  0.38753176  1
  Mo  Mo165  1  0.19977651  0.39519883  0.24584092  1
  Mo  Mo166  1  0.00271152  0.20700488  0.50200085  1
  Mo  Mo167  1  0.08968292  0.89622874  0.37223784  1
  Mo  Mo168  1  0.89949741  0.09915055  0.39068402  1
  Mo  Mo169  1  0.70243569  0.50751419  0.86933024  1
  Mo  Mo170  1  0.79685756  0.19761069  -0.01302469  1
  Mo  Mo171  1  0.91389925  0.50375537  0.61327058  1
  Mo  Mo172  1  0.61189370  0.60868341  0.24622573  1
  Mo  Mo173  1  0.69578789  0.71205699  0.62375590  1
  Mo  Mo174  1  0.49574897  0.29762107  0.64923092  1
  Mo  Mo175  1  0.62150870  0.22167708  0.23952582  1
  Mo  Mo176  1  0.59315762  0.80049859  0.75990949  1
  Mo  Mo177  1  0.30411544  0.50053920  0.86302958  1
  Mo  Mo178  1  0.70105795  0.50149831  0.62783359  1
  Mo  Mo179  1  0.79389525  -0.00293009  0.50245669  1
  Mo  Mo180  1  -0.00298949  0.79855946  0.49474464  1
  Mo  Mo181  1  0.49661464  0.10079487  0.11844192  1
  Mo  Mo182  1  0.11185625  0.70747261  0.62011540  1
  Mo  Mo183  1  0.79947027  -0.00131862  0.76218278  1
  Mo  Mo184  1  0.21319166  0.60696736  0.00839011  1
  Mo  Mo185  1  0.08863421  0.89996076  0.11812155  1
  Mo  Mo186  1  0.19731249  -0.00957333  0.50303336  1
  Mo  Mo187  1  0.89807102  0.89654560  0.11847981  1
  Mo  Mo188  1  0.90927847  0.30843598  0.87124265  1
  Mo  Mo189  1  0.18986485  0.20476847  -0.00199589  1
  Mo  Mo190  1  0.21309784  0.80170002  0.25156060  1
  Mo  Mo191  1  0.20091877  0.39723714  0.74002240  1
  Mo  Mo192  1  0.90555311  0.28971581  0.38358511  1
  Mo  Mo193  1  0.39787147  0.40159312  0.24455960  1
  Mo  Mo194  1  0.50088731  0.50817167  0.10975449  1
  Mo  Mo195  1  0.69830307  0.10909902  0.11691567  1
  Mo  Mo196  1  0.59959889  0.19435400  0.73917578  1
  Mo  Mo197  1  0.78795699  -0.00917268  0.25242712  1
  Mo  Mo198  1  0.11082055  0.49934987  0.61494611  1
  Mo  Mo199  1  0.39585641  0.19637063  0.75341790  1
