# generated using pymatgen
data_HfZrTaTiMo
_symmetry_space_group_name_H-M   'P 1'
_cell_length_a   15.19715647
_cell_length_b   15.20521665
_cell_length_c   16.85073357
_cell_angle_alpha   89.99529750
_cell_angle_beta   89.99752313
_cell_angle_gamma   89.99858366
_symmetry_Int_Tables_number   1
_chemical_formula_structural   HfZrTaTiMo
_chemical_formula_sum   'Hf40 Zr40 Ta40 Ti40 Mo40'
_cell_volume   3893.80104742
_cell_formula_units_Z   40
loop_
 _symmetry_equiv_pos_site_id
 _symmetry_equiv_pos_as_xyz
  1  'x, y, z'
loop_
 _atom_site_type_symbol
 _atom_site_label
 _atom_site_symmetry_multiplicity
 _atom_site_fract_x
 _atom_site_fract_y
 _atom_site_fract_z
 _atom_site_occupancy
  Hf  Hf0  1  0.71023133  0.50714471  0.37692887  1
  Hf  Hf1  1  0.09505519  0.70442981  0.39504930  1
  Hf  Hf2  1  0.70522959  0.10679573  0.60268429  1
  Hf  Hf3  1  0.81239204  0.19863324  0.47721711  1
  Hf  Hf4  1  0.77924904  0.79166664  0.49917624  1
  Hf  Hf5  1  0.69967501  0.31108743  0.38281026  1
  Hf  Hf6  1  0.87677091  0.68297755  0.62558673  1
  Hf  Hf7  1  0.49842788  0.50478812  0.87083185  1
  Hf  Hf8  1  0.80490566  -0.01259177  0.48141130  1
  Hf  Hf9  1  0.11429786  0.08502430  0.13382062  1
  Hf  Hf10  1  0.20246356  0.20393984  0.76055641  1
  Hf  Hf11  1  0.41639623  -0.00573166  0.75085148  1
  Hf  Hf12  1  0.29237431  0.48269529  0.37496606  1
  Hf  Hf13  1  0.90364931  0.09243630  0.61822041  1
  Hf  Hf14  1  0.60511235  0.62348058  0.49574396  1
  Hf  Hf15  1  0.58941915  0.80050701  0.25541020  1
  Hf  Hf16  1  0.19525203  0.61268209  0.25278922  1
  Hf  Hf17  1  0.89304428  0.09598961  0.88226148  1
  Hf  Hf18  1  0.19107323  0.79963610  -0.00147616  1
  Hf  Hf19  1  0.00072685  0.20501082  0.75496867  1
  Hf  Hf20  1  0.29295312  0.68760939  0.86147060  1
  Hf  Hf21  1  0.59758491  0.79812311  0.00281540  1
  Hf  Hf22  1  0.88117805  0.29880764  0.88399234  1
  Hf  Hf23  1  0.70821567  0.69342805  0.86844887  1
  Hf  Hf24  1  0.52650004  0.09392193  0.87470252  1
  Hf  Hf25  1  0.08988246  0.89177727  0.86575824  1
  Hf  Hf26  1  0.08741947  0.51917243  0.13091375  1
  Hf  Hf27  1  -0.01729942  0.80629296  0.52037143  1
  Hf  Hf28  1  0.21121094  0.20115530  0.49581716  1
  Hf  Hf29  1  0.49643865  0.49944064  0.11777484  1
  Hf  Hf30  1  0.61692389  0.20584942  0.74907038  1
  Hf  Hf31  1  0.61262878  0.00048335  0.01225800  1
  Hf  Hf32  1  0.70550140  0.09899359  0.15147826  1
  Hf  Hf33  1  0.20035334  -0.00598434  0.51389999  1
  Hf  Hf34  1  0.91257431  0.50336759  0.86274508  1
  Hf  Hf35  1  0.90697023  0.29192302  0.61369920  1
  Hf  Hf36  1  0.90829716  0.09597787  0.14084482  1
  Hf  Hf37  1  0.31773992  0.12090698  0.11925622  1
  Hf  Hf38  1  0.89869593  0.89388849  0.88332602  1
  Hf  Hf39  1  0.39004608  0.38835380  0.23983546  1
  Zr  Zr40  1  0.01117756  0.60129208  0.72886513  1
  Zr  Zr41  1  0.79714013  0.39257179  0.73554210  1
  Zr  Zr42  1  0.39080190  0.60154401  -0.00599166  1
  Zr  Zr43  1  0.29321718  0.90917865  0.12430375  1
  Zr  Zr44  1  0.80498907  0.79493378  0.00708782  1
  Zr  Zr45  1  0.70046982  0.92234218  0.87874025  1
  Zr  Zr46  1  0.49346469  0.50311533  0.37547053  1
  Zr  Zr47  1  0.59460432  0.82811194  0.75734837  1
  Zr  Zr48  1  0.51284163  0.71138902  0.63045171  1
  Zr  Zr49  1  0.11348802  0.08298047  0.36637273  1
  Zr  Zr50  1  0.49997428  0.90582814  0.13503802  1
  Zr  Zr51  1  0.79956242  0.58008127  0.00314684  1
  Zr  Zr52  1  0.29484453  0.89887885  0.86467757  1
  Zr  Zr53  1  0.20180179  0.59027652  0.51018317  1
  Zr  Zr54  1  0.51450477  0.10126524  0.61612914  1
  Zr  Zr55  1  0.30745728  0.68261851  0.63366067  1
  Zr  Zr56  1  0.40646495  0.20102988  0.75917531  1
  Zr  Zr57  1  -0.01409318  0.40546361  0.01460969  1
  Zr  Zr58  1  0.70097893  0.47964703  0.86866036  1
  Zr  Zr59  1  0.18751356  0.39576126  0.23747339  1
  Zr  Zr60  1  0.82392828  0.79338462  0.25577855  1
  Zr  Zr61  1  0.59236268  0.41505681  0.51884531  1
  Zr  Zr62  1  0.17703017  0.78825630  0.73140372  1
  Zr  Zr63  1  0.69988332  0.69065715  0.13244145  1
  Zr  Zr64  1  0.21782982  0.20448800  -0.01948636  1
  Zr  Zr65  1  0.08374077  0.49658300  0.37493890  1
  Zr  Zr66  1  0.59433728  0.39207462  0.24300095  1
  Zr  Zr67  1  0.41797225  0.19837164  0.26201148  1
  Zr  Zr68  1  0.59513541  0.59859920  0.25010859  1
  Zr  Zr69  1  0.39601111  0.78965626  0.49426704  1
  Zr  Zr70  1  0.28727683  0.89986779  0.38184927  1
  Zr  Zr71  1  0.22338924  0.20515709  0.26167670  1
  Zr  Zr72  1  0.40162906  0.00754626  -0.01135685  1
  Zr  Zr73  1  0.80362610  0.81327075  0.73571954  1
  Zr  Zr74  1  0.38712140  0.40400520  0.75361140  1
  Zr  Zr75  1  -0.01036229  -0.00743054  0.74460423  1
  Zr  Zr76  1  0.01132598  0.21118442  0.25703161  1
  Zr  Zr77  1  0.18586941  0.81633568  0.24907027  1
  Zr  Zr78  1  0.19003532  0.40596017  0.00440739  1
  Zr  Zr79  1  0.38574970  0.38987607  -0.00955221  1
  Ta  Ta80  1  0.19583439  0.39131084  0.51689340  1
  Ta  Ta81  1  0.60673655  0.39700838  0.00771527  1
  Ta  Ta82  1  0.09132398  0.68835569  0.86989253  1
  Ta  Ta83  1  0.39130871  0.79028274  0.25771564  1
  Ta  Ta84  1  0.01257547  0.20006644  0.48618944  1
  Ta  Ta85  1  0.10250304  0.11153436  0.62347186  1
  Ta  Ta86  1  0.80945403  0.21413172  0.26430901  1
  Ta  Ta87  1  0.70925851  0.52772987  0.62980020  1
  Ta  Ta88  1  0.71485515  0.90767938  0.14820930  1
  Ta  Ta89  1  0.49337543  0.30276573  0.39278103  1
  Ta  Ta90  1  0.59014777  0.82195586  0.48273383  1
  Ta  Ta91  1  0.49498142  0.28219613  0.10639340  1
  Ta  Ta92  1  0.30476629  0.89537249  0.62810601  1
  Ta  Ta93  1  0.91050298  0.31843694  0.37854795  1
  Ta  Ta94  1  0.48396545  0.70135222  0.12396555  1
  Ta  Ta95  1  0.39962381  0.79788613  0.75201288  1
  Ta  Ta96  1  0.39912334  0.80061327  -0.00750264  1
  Ta  Ta97  1  0.50069298  0.70448586  0.86934295  1
  Ta  Ta98  1  0.41125986  -0.00646715  0.50501606  1
  Ta  Ta99  1  0.30604847  0.09589128  0.62564306  1
  Ta  Ta100  1  -0.00262751  0.61189407  -0.00398759  1
  Ta  Ta101  1  0.20061425  0.00585094  0.74145949  1
  Ta  Ta102  1  0.18908749  0.60072269  -0.00157233  1
  Ta  Ta103  1  0.08982626  0.31519988  0.87735529  1
  Ta  Ta104  1  0.51490396  0.30262160  0.88340753  1
  Ta  Ta105  1  0.39562320  0.00317264  0.25593855  1
  Ta  Ta106  1  0.70091557  0.28971925  0.13165336  1
  Ta  Ta107  1  0.89691210  0.68772413  0.38855581  1
  Ta  Ta108  1  0.80677585  0.00842349  0.01651173  1
  Ta  Ta109  1  0.19680715  0.00540034  -0.01153859  1
  Ta  Ta110  1  0.92047427  0.88992460  0.12381321  1
  Ta  Ta111  1  0.38968962  0.39820931  0.51851439  1
  Ta  Ta112  1  0.29538029  0.50934249  0.12732329  1
  Ta  Ta113  1  0.80147767  0.40714213  0.23640231  1
  Ta  Ta114  1  0.59283151  0.39707675  0.73234422  1
  Ta  Ta115  1  0.00067049  0.19712008  0.00407760  1
  Ta  Ta116  1  -0.01563268  0.61024898  0.25361635  1
  Ta  Ta117  1  0.67860458  0.91170473  0.61530444  1
  Ta  Ta118  1  0.70041317  0.90921710  0.35425732  1
  Ta  Ta119  1  0.08410930  0.71966897  0.12355401  1
  Ti  Ti120  1  0.40485907  0.59049474  0.49929661  1
  Ti  Ti121  1  0.62386203  0.19858286  -0.00118359  1
  Ti  Ti122  1  0.00749654  -0.00667865  0.00398847  1
  Ti  Ti123  1  0.80951147  0.41701347  0.51105981  1
  Ti  Ti124  1  0.00662418  0.39770271  0.51037612  1
  Ti  Ti125  1  0.00782525  -0.03065336  0.25333116  1
  Ti  Ti126  1  0.30011038  0.29254760  0.63036438  1
  Ti  Ti127  1  0.20313269  0.57618946  0.74134621  1
  Ti  Ti128  1  0.90407701  0.69069578  0.12584532  1
  Ti  Ti129  1  0.51215885  0.10132332  0.12827522  1
  Ti  Ti130  1  0.18965907  0.39632091  0.74364009  1
  Ti  Ti131  1  0.49366111  0.90908623  0.36614861  1
  Ti  Ti132  1  0.69486713  0.29983388  0.60640049  1
  Ti  Ti133  1  0.29361523  0.70122693  0.12358977  1
  Ti  Ti134  1  0.80260410  0.19838131  0.74684789  1
  Ti  Ti135  1  0.77995831  0.01089873  0.74344135  1
  Ti  Ti136  1  0.10492723  0.28692949  0.11946282  1
  Ti  Ti137  1  0.40715523  0.20379223  0.50629339  1
  Ti  Ti138  1  -0.01076625  0.58580572  0.51632989  1
  Ti  Ti139  1  -0.00214761  0.00454229  0.49764578  1
  Ti  Ti140  1  0.51214515  0.10009918  0.38883641  1
  Ti  Ti141  1  0.79412901  0.38462012  0.02207250  1
  Ti  Ti142  1  0.60291239  0.60254474  0.74836866  1
  Ti  Ti143  1  0.70078032  0.70145360  0.36325854  1
  Ti  Ti144  1  0.48828653  0.51183768  0.63694678  1
  Ti  Ti145  1  0.60131991  0.20393923  0.26098082  1
  Ti  Ti146  1  0.90944046  0.08770804  0.35958160  1
  Ti  Ti147  1  0.08874249  0.90547202  0.62523877  1
  Ti  Ti148  1  -0.01481955  0.40073328  0.23497587  1
  Ti  Ti149  1  0.29953543  0.69260229  0.38025285  1
  Ti  Ti150  1  0.11057223  0.30935515  0.37799956  1
  Ti  Ti151  1  0.08836932  0.89310039  0.38928144  1
  Ti  Ti152  1  0.89652071  0.50103374  0.37451041  1
  Ti  Ti153  1  0.90753177  0.70346777  0.85809911  1
  Ti  Ti154  1  0.09897291  0.09737894  0.87552833  1
  Ti  Ti155  1  0.00716422  0.39949673  0.73593678  1
  Ti  Ti156  1  0.39490614  0.60354688  0.25122687  1
  Ti  Ti157  1  0.69899643  0.10002977  0.36522971  1
  Ti  Ti158  1  0.59979957  0.59811678  0.00030260  1
  Ti  Ti159  1  0.31739101  0.09616565  0.38576905  1
  Mo  Mo160  1  0.40545047  0.60100986  0.75790540  1
  Mo  Mo161  1  0.68825558  0.70897502  0.62813492  1
  Mo  Mo162  1  0.30543438  0.30330319  0.12040032  1
  Mo  Mo163  1  0.29745787  0.30477447  0.86647762  1
  Mo  Mo164  1  0.80442192  0.59370479  0.24982961  1
  Mo  Mo165  1  0.10121657  0.50138727  0.87016722  1
  Mo  Mo166  1  0.60891623  0.01127828  0.74471264  1
  Mo  Mo167  1  0.30590976  0.30268478  0.39056853  1
  Mo  Mo168  1  0.81253050  0.00000333  0.26130219  1
  Mo  Mo169  1  0.48907803  0.70477070  0.37244836  1
  Mo  Mo170  1  0.19195389  0.79961663  0.51855041  1
  Mo  Mo171  1  0.60409276  -0.00091116  0.47931343  1
  Mo  Mo172  1  0.89844171  0.29091596  0.12918710  1
  Mo  Mo173  1  0.71838786  0.11472980  0.88058880  1
  Mo  Mo174  1  0.00525074  0.79028103  0.25856083  1
  Mo  Mo175  1  0.41753382  0.19964663  -0.01611611  1
  Mo  Mo176  1  0.69711291  0.29241668  0.87989342  1
  Mo  Mo177  1  0.80717676  0.19778574  0.01680248  1
  Mo  Mo178  1  0.49980495  0.89333742  0.88199434  1
  Mo  Mo179  1  0.09531595  0.90668748  0.11802367  1
  Mo  Mo180  1  0.89283185  0.50561308  0.13033396  1
  Mo  Mo181  1  0.09943327  0.48901760  0.62169455  1
  Mo  Mo182  1  0.60223084  0.20558459  0.48664470  1
  Mo  Mo183  1  0.88406655  0.90784426  0.62152223  1
  Mo  Mo184  1  0.30209976  0.48990979  0.62810900  1
  Mo  Mo185  1  0.59261355  0.01080888  0.26182851  1
  Mo  Mo186  1  0.09597164  0.69772884  0.60453487  1
  Mo  Mo187  1  0.69446836  0.49088414  0.12104681  1
  Mo  Mo188  1  0.91001804  0.89313128  0.37781166  1
  Mo  Mo189  1  0.79817464  0.59780716  0.49496964  1
  Mo  Mo190  1  -0.00377124  0.79817025  0.73081285  1
  Mo  Mo191  1  -0.00139406  0.79325105  -0.00523703  1
  Mo  Mo192  1  0.50243128  0.30377669  0.61821270  1
  Mo  Mo193  1  0.10181903  0.29141220  0.62379606  1
  Mo  Mo194  1  0.79480557  0.59921271  0.75717361  1
  Mo  Mo195  1  0.29695949  0.09511071  0.86664223  1
  Mo  Mo196  1  0.27554546  0.49775105  0.87067076  1
  Mo  Mo197  1  0.89768414  0.49015497  0.62518871  1
  Mo  Mo198  1  0.20991216  0.00515047  0.25397561  1
  Mo  Mo199  1  0.49461920  0.90627225  0.61679713  1
