# generated using pymatgen
data_HfZrTaTiMo
_symmetry_space_group_name_H-M   'P 1'
_cell_length_a   15.21916006
_cell_length_b   15.21908979
_cell_length_c   16.84553048
_cell_angle_alpha   90.01727973
_cell_angle_beta   89.98449515
_cell_angle_gamma   89.88396878
_symmetry_Int_Tables_number   1
_chemical_formula_structural   HfZrTaTiMo
_chemical_formula_sum   'Hf40 Zr40 Ta40 Ti40 Mo40'
_cell_volume   3901.78315578
_cell_formula_units_Z   40
loop_
 _symmetry_equiv_pos_site_id
 _symmetry_equiv_pos_as_xyz
  1  'x, y, z'
loop_
 _atom_site_type_symbol
 _atom_site_label
 _atom_site_symmetry_multiplicity
 _atom_site_fract_x
 _atom_site_fract_y
 _atom_site_fract_z
 _atom_site_occupancy
  Hf  Hf0  1  0.20833111  0.58664530  0.24159126  1
  Hf  Hf1  1  0.79390445  0.60996993  -0.00076386  1
  Hf  Hf2  1  0.38816045  0.40364311  -0.00200635  1
  Hf  Hf3  1  0.31310929  0.89977868  0.37197182  1
  Hf  Hf4  1  0.30612439  0.90535929  0.89328635  1
  Hf  Hf5  1  0.00016942  0.39814583  -0.00140359  1
  Hf  Hf6  1  0.42411938  0.79207098  0.00160430  1
  Hf  Hf7  1  0.30396735  0.10141410  0.38011036  1
  Hf  Hf8  1  0.29622566  0.70467413  0.37541400  1
  Hf  Hf9  1  0.01292399  0.60394873  0.23513629  1
  Hf  Hf10  1  0.17571084  0.41544287  0.51137831  1
  Hf  Hf11  1  0.31166704  0.68932681  0.11253433  1
  Hf  Hf12  1  0.68718933  0.29597805  0.37028315  1
  Hf  Hf13  1  0.90408072  0.29352220  0.87127891  1
  Hf  Hf14  1  0.19865799  0.02965442  0.00058461  1
  Hf  Hf15  1  0.69010304  0.50251156  0.12435996  1
  Hf  Hf16  1  0.39505206  0.19491286  0.23959987  1
  Hf  Hf17  1  0.88909911  0.09463409  0.36964714  1
  Hf  Hf18  1  0.28740449  0.30111499  0.36794380  1
  Hf  Hf19  1  0.48834333  0.10305896  0.62641409  1
  Hf  Hf20  1  0.50591943  0.70621765  0.37308505  1
  Hf  Hf21  1  0.10378476  0.88176648  0.37481271  1
  Hf  Hf22  1  0.40776447  0.38541184  0.74318477  1
  Hf  Hf23  1  0.70145402  0.90253038  0.36076778  1
  Hf  Hf24  1  0.79600706  0.18558018  0.74554655  1
  Hf  Hf25  1  0.09478530  0.11306666  0.36513057  1
  Hf  Hf26  1  0.30029451  0.49938899  0.38540625  1
  Hf  Hf27  1  0.11426729  0.71172774  0.88598921  1
  Hf  Hf28  1  0.89450077  0.29309692  0.12131861  1
  Hf  Hf29  1  0.70341044  0.50257790  0.37938559  1
  Hf  Hf30  1  0.10735941  0.71202137  0.10050650  1
  Hf  Hf31  1  0.29346580  0.89262035  0.10836168  1
  Hf  Hf32  1  0.90396303  0.08445121  0.62718524  1
  Hf  Hf33  1  0.50269722  0.49398588  0.37967262  1
  Hf  Hf34  1  0.80363462  0.39856546  0.74107700  1
  Hf  Hf35  1  0.91133686  0.48807745  0.39235083  1
  Hf  Hf36  1  0.19749564  -0.00645764  0.49992038  1
  Hf  Hf37  1  0.41299251  0.59696067  0.24354518  1
  Hf  Hf38  1  0.69750723  0.30116072  0.87278385  1
  Hf  Hf39  1  0.69398136  0.51199805  0.86344300  1
  Zr  Zr40  1  0.68665086  0.09804402  0.37050031  1
  Zr  Zr41  1  0.70221278  0.50287494  0.62993683  1
  Zr  Zr42  1  0.40913707  0.60158572  0.51376953  1
  Zr  Zr43  1  0.18456573  0.21146421  0.50937140  1
  Zr  Zr44  1  0.59954395  0.39574184  0.50626650  1
  Zr  Zr45  1  0.28012504  0.29955726  0.13383812  1
  Zr  Zr46  1  -0.01111171  0.01592294  -0.00267592  1
  Zr  Zr47  1  0.60239425  0.81129614  0.50789290  1
  Zr  Zr48  1  0.71146161  0.70629113  0.37923367  1
  Zr  Zr49  1  0.50008554  0.10413557  0.37135604  1
  Zr  Zr50  1  0.39829798  0.37548639  0.51433383  1
  Zr  Zr51  1  -0.00652829  -0.01200623  0.24807811  1
  Zr  Zr52  1  0.50551263  0.90818223  0.36988831  1
  Zr  Zr53  1  0.21775834  0.81384438  0.76413288  1
  Zr  Zr54  1  0.60212332  0.19300628  -0.00026241  1
  Zr  Zr55  1  -0.00118252  0.81410943  0.76557857  1
  Zr  Zr56  1  0.79101346  -0.01868339  0.01737854  1
  Zr  Zr57  1  0.09783479  0.48908512  0.85719319  1
  Zr  Zr58  1  0.91996981  0.69595477  0.38443113  1
  Zr  Zr59  1  -0.00335419  0.59858869  -0.00324171  1
  Zr  Zr60  1  0.78712214  -0.00969665  0.50313545  1
  Zr  Zr61  1  0.51350519  0.89327807  0.87610033  1
  Zr  Zr62  1  0.79327263  0.39349061  0.24911084  1
  Zr  Zr63  1  0.21723025  0.58410249  -0.00954122  1
  Zr  Zr64  1  0.29106197  0.50050638  0.63484086  1
  Zr  Zr65  1  -0.02378197  0.81094715  -0.00792990  1
  Zr  Zr66  1  0.90124198  0.88937212  0.62390936  1
  Zr  Zr67  1  0.70432154  0.08130342  0.87347960  1
  Zr  Zr68  1  -0.00722289  0.60632698  0.75537247  1
  Zr  Zr69  1  0.59515343  0.41500954  -0.00213839  1
  Zr  Zr70  1  0.49573571  0.30738508  0.12001479  1
  Zr  Zr71  1  0.20855319  0.00390350  0.24061262  1
  Zr  Zr72  1  0.78391431  0.19996771  0.50987218  1
  Zr  Zr73  1  0.11086312  0.71194497  0.64011872  1
  Zr  Zr74  1  0.49049445  0.09341720  0.87962879  1
  Zr  Zr75  1  0.19908926  0.79383058  0.24104884  1
  Zr  Zr76  1  -0.00453909  0.40872446  0.24482980  1
  Zr  Zr77  1  0.91562973  0.28921355  0.61743264  1
  Zr  Zr78  1  0.19560812  0.02249810  0.75853718  1
  Zr  Zr79  1  0.81510532  0.60242543  0.24467486  1
  Ta  Ta80  1  0.80625952  0.59893309  0.50944647  1
  Ta  Ta81  1  0.58547169  0.40307049  0.24482134  1
  Ta  Ta82  1  0.30524764  0.48809514  0.85889412  1
  Ta  Ta83  1  0.60106525  -0.00259357  0.74380835  1
  Ta  Ta84  1  0.49505147  0.89806177  0.62941389  1
  Ta  Ta85  1  0.70750447  0.70898459  0.61958746  1
  Ta  Ta86  1  0.88925877  0.49688300  0.87221360  1
  Ta  Ta87  1  0.19777307  0.62184510  0.50558354  1
  Ta  Ta88  1  0.29847314  0.89737491  0.62422527  1
  Ta  Ta89  1  0.19443183  0.38254940  -0.00936492  1
  Ta  Ta90  1  0.01765730  0.58914496  0.51356025  1
  Ta  Ta91  1  -0.00209711  0.79343612  0.23770700  1
  Ta  Ta92  1  0.58644788  0.20599540  0.75362418  1
  Ta  Ta93  1  0.59071327  0.61489415  0.74233141  1
  Ta  Ta94  1  0.49433647  0.50823937  0.85992043  1
  Ta  Ta95  1  0.90077906  0.28858895  0.38528791  1
  Ta  Ta96  1  0.40876830  -0.00423466  0.22444888  1
  Ta  Ta97  1  0.02191331  0.79453890  0.50526682  1
  Ta  Ta98  1  0.21325106  0.60659720  0.75964034  1
  Ta  Ta99  1  0.39418564  -0.01439167  0.74781229  1
  Ta  Ta100  1  0.81148312  0.18642602  -0.00010079  1
  Ta  Ta101  1  0.09993328  0.11741049  0.13807881  1
  Ta  Ta102  1  0.91845991  0.49307394  0.62267670  1
  Ta  Ta103  1  0.40839145  0.00752957  0.02185509  1
  Ta  Ta104  1  0.89966687  0.10091609  0.13647612  1
  Ta  Ta105  1  0.38630749  0.18148832  0.75470791  1
  Ta  Ta106  1  0.49175616  0.30070016  0.87718972  1
  Ta  Ta107  1  0.60388377  0.80066804  0.74347147  1
  Ta  Ta108  1  0.89829558  0.88880775  0.38384045  1
  Ta  Ta109  1  0.09835749  0.91701830  0.62924548  1
  Ta  Ta110  1  0.79183501  0.80025266  0.75266670  1
  Ta  Ta111  1  0.70687662  0.71133072  0.12870599  1
  Ta  Ta112  1  0.08698131  0.31115543  0.36853050  1
  Ta  Ta113  1  0.10556140  0.29153123  0.85662984  1
  Ta  Ta114  1  0.29358226  0.28509651  0.86762401  1
  Ta  Ta115  1  0.90101447  0.69736210  0.61896299  1
  Ta  Ta116  1  0.81084446  0.81122384  0.23980373  1
  Ta  Ta117  1  0.00186438  0.00099908  0.49265198  1
  Ta  Ta118  1  0.01524722  0.20082592  -0.00438643  1
  Ta  Ta119  1  0.09258931  0.29915419  0.13630025  1
  Ti  Ti120  1  0.41324703  0.80310889  0.23663372  1
  Ti  Ti121  1  0.31148066  0.70549596  0.63161658  1
  Ti  Ti122  1  0.79721196  0.60866441  0.74412592  1
  Ti  Ti123  1  0.59720905  0.61715659  -0.00671242  1
  Ti  Ti124  1  0.88010385  0.70404067  0.87249381  1
  Ti  Ti125  1  0.38839799  0.41003483  0.24243449  1
  Ti  Ti126  1  0.39484175  0.80006819  0.50755034  1
  Ti  Ti127  1  0.69603055  0.29052847  0.12457301  1
  Ti  Ti128  1  0.11963656  0.48874912  0.11868734  1
  Ti  Ti129  1  0.32641474  0.68958948  0.87871329  1
  Ti  Ti130  1  0.00638254  0.18454155  0.75651933  1
  Ti  Ti131  1  0.62656718  0.80297328  -0.00164551  1
  Ti  Ti132  1  0.60946162  0.00083175  0.22714746  1
  Ti  Ti133  1  0.87669480  0.92043414  0.86376187  1
  Ti  Ti134  1  0.41947348  0.58865817  0.00254194  1
  Ti  Ti135  1  0.60660318  0.60322534  0.25056005  1
  Ti  Ti136  1  0.41458426  0.78283959  0.75242497  1
  Ti  Ti137  1  0.57671429  0.20165514  0.50594505  1
  Ti  Ti138  1  0.09645247  0.91865811  0.88237232  1
  Ti  Ti139  1  0.50484562  0.49725619  0.63837779  1
  Ti  Ti140  1  0.29587545  0.28455103  0.63452046  1
  Ti  Ti141  1  0.78817836  0.18939687  0.24377591  1
  Ti  Ti142  1  0.79618497  0.39762116  -0.00143878  1
  Ti  Ti143  1  0.59870474  -0.01060150  0.01825523  1
  Ti  Ti144  1  0.51098293  0.10620262  0.12651855  1
  Ti  Ti145  1  0.10392979  0.51128261  0.37459223  1
  Ti  Ti146  1  0.68529665  0.09645147  0.62654782  1
  Ti  Ti147  1  0.52140240  0.70272154  0.12903798  1
  Ti  Ti148  1  0.09372666  0.90740466  0.11224290  1
  Ti  Ti149  1  0.80249203  0.39718178  0.51001239  1
  Ti  Ti150  1  0.60264954  0.60366140  0.51083502  1
  Ti  Ti151  1  0.67899393  0.29821669  0.63591580  1
  Ti  Ti152  1  0.09670813  0.31910138  0.64972826  1
  Ti  Ti153  1  0.40712402  -0.00134243  0.50553820  1
  Ti  Ti154  1  0.89653713  0.50118035  0.11533079  1
  Ti  Ti155  1  0.09238701  0.10956803  0.62252084  1
  Ti  Ti156  1  0.48941672  0.29641302  0.36613752  1
  Ti  Ti157  1  0.29429771  0.09390515  0.61823029  1
  Ti  Ti158  1  0.38019844  0.19428771  0.00375259  1
  Ti  Ti159  1  0.69992212  0.90469960  0.62832257  1
  Mo  Mo160  1  0.18715245  0.20438165  0.25727926  1
  Mo  Mo161  1  0.79132152  -0.00687073  0.74105156  1
  Mo  Mo162  1  -0.00547758  0.39774279  0.75450661  1
  Mo  Mo163  1  0.89943408  0.69946339  0.12306564  1
  Mo  Mo164  1  0.20687763  0.80151305  0.50778385  1
  Mo  Mo165  1  0.30407417  0.10429497  0.87897910  1
  Mo  Mo166  1  0.60237399  0.79562276  0.24503202  1
  Mo  Mo167  1  0.90267852  0.89396846  0.12696833  1
  Mo  Mo168  1  0.30589379  0.49277787  0.11960633  1
  Mo  Mo169  1  0.10190219  0.69163489  0.37692763  1
  Mo  Mo170  1  0.90055786  0.10044463  0.87000772  1
  Mo  Mo171  1  0.40175839  0.60243400  0.74534256  1
  Mo  Mo172  1  -0.01557559  0.20600744  0.25222972  1
  Mo  Mo173  1  0.19555142  0.20992042  -0.00029237  1
  Mo  Mo174  1  0.19319810  0.40767359  0.25548179  1
  Mo  Mo175  1  0.30347190  0.10365689  0.12691560  1
  Mo  Mo176  1  -0.00602720  0.00555443  0.76044814  1
  Mo  Mo177  1  0.70369494  0.10705193  0.12506521  1
  Mo  Mo178  1  0.49843664  0.29146301  0.63470204  1
  Mo  Mo179  1  0.59952581  0.21044725  0.23984499  1
  Mo  Mo180  1  0.69522561  0.70567404  0.86767974  1
  Mo  Mo181  1  0.00410054  0.39332088  0.50052562  1
  Mo  Mo182  1  0.70055206  0.89318641  0.86892804  1
  Mo  Mo183  1  0.09872169  0.11292580  0.87303030  1
  Mo  Mo184  1  0.50779040  0.89319451  0.12327772  1
  Mo  Mo185  1  0.50289214  0.70354129  0.62357748  1
  Mo  Mo186  1  0.20497469  0.39527318  0.74925629  1
  Mo  Mo187  1  0.09922539  0.50855012  0.64394585  1
  Mo  Mo188  1  0.59767438  0.39871128  0.75559019  1
  Mo  Mo189  1  0.20464390  0.80951128  -0.01214828  1
  Mo  Mo190  1  0.20007268  0.20010622  0.73599118  1
  Mo  Mo191  1  0.79657939  0.79616388  -0.00084742  1
  Mo  Mo192  1  0.59511023  0.00495188  0.51600088  1
  Mo  Mo193  1  0.79929591  -0.00114826  0.23894724  1
  Mo  Mo194  1  -0.00223372  0.19308447  0.49703743  1
  Mo  Mo195  1  0.81007291  0.79439132  0.50168224  1
  Mo  Mo196  1  0.69678289  0.89552069  0.13608938  1
  Mo  Mo197  1  0.51154606  0.69131679  0.87549351  1
  Mo  Mo198  1  0.39043746  0.19725831  0.50345483  1
  Mo  Mo199  1  0.49909250  0.51289992  0.12733721  1
