# generated using pymatgen
data_HfZrTaTiMo
_symmetry_space_group_name_H-M   'P 1'
_cell_length_a   15.17582668
_cell_length_b   15.20016148
_cell_length_c   16.82838963
_cell_angle_alpha   89.98691840
_cell_angle_beta   89.96355965
_cell_angle_gamma   90.03917262
_symmetry_Int_Tables_number   1
_chemical_formula_structural   HfZrTaTiMo
_chemical_formula_sum   'Hf40 Zr40 Ta40 Ti40 Mo40'
_cell_volume   3881.88725551
_cell_formula_units_Z   40
loop_
 _symmetry_equiv_pos_site_id
 _symmetry_equiv_pos_as_xyz
  1  'x, y, z'
loop_
 _atom_site_type_symbol
 _atom_site_label
 _atom_site_symmetry_multiplicity
 _atom_site_fract_x
 _atom_site_fract_y
 _atom_site_fract_z
 _atom_site_occupancy
  Hf  Hf0  1  0.79599136  0.20243541  0.25243694  1
  Hf  Hf1  1  0.40874958  0.60544943  0.49103245  1
  Hf  Hf2  1  0.20712323  0.60648425  0.00057503  1
  Hf  Hf3  1  0.40062056  0.59676625  0.00350496  1
  Hf  Hf4  1  0.31164037  0.10409762  0.61090886  1
  Hf  Hf5  1  0.71580320  0.10739124  0.88291927  1
  Hf  Hf6  1  0.92717536  0.08617717  0.87492521  1
  Hf  Hf7  1  0.71327394  0.50955087  0.62998223  1
  Hf  Hf8  1  0.48339725  0.90081397  0.13876016  1
  Hf  Hf9  1  0.81196708  0.60626685  0.00105554  1
  Hf  Hf10  1  0.39844862  0.38294358  0.49736820  1
  Hf  Hf11  1  0.39237365  0.20427974  -0.00726717  1
  Hf  Hf12  1  0.60314237  0.39955696  0.49823292  1
  Hf  Hf13  1  0.17616391  0.00329209  0.73030227  1
  Hf  Hf14  1  0.90191838  0.29310198  0.63085821  1
  Hf  Hf15  1  0.39880023  -0.01231050  -0.00772007  1
  Hf  Hf16  1  0.11121246  0.09782313  0.14065100  1
  Hf  Hf17  1  0.48524411  0.49132519  0.14137178  1
  Hf  Hf18  1  0.90338506  0.49174004  0.37754483  1
  Hf  Hf19  1  0.80314944  0.60332830  0.49578183  1
  Hf  Hf20  1  0.39068471  0.79148677  0.00344614  1
  Hf  Hf21  1  0.90786052  0.49270919  0.87734209  1
  Hf  Hf22  1  0.10398122  0.50494382  0.12058189  1
  Hf  Hf23  1  0.29487161  0.30702999  0.85907222  1
  Hf  Hf24  1  0.59894673  0.59980656  0.00467040  1
  Hf  Hf25  1  0.60059909  -0.01435283  0.76107082  1
  Hf  Hf26  1  0.90202083  0.09206397  0.37638337  1
  Hf  Hf27  1  0.50468605  0.10139905  0.11989290  1
  Hf  Hf28  1  0.59251718  0.00211025  0.25632790  1
  Hf  Hf29  1  0.19522273  0.81839430  0.24540913  1
  Hf  Hf30  1  0.00695893  -0.00991014  0.50627189  1
  Hf  Hf31  1  0.70397465  0.71358998  0.88316167  1
  Hf  Hf32  1  0.50424371  0.50863313  0.86211576  1
  Hf  Hf33  1  0.31312808  0.29666605  0.13577839  1
  Hf  Hf34  1  0.08714620  0.70761758  0.11400992  1
  Hf  Hf35  1  0.51249819  0.29243512  0.12541020  1
  Hf  Hf36  1  0.21078386  0.39557007  0.00339421  1
  Hf  Hf37  1  0.92242672  0.49304406  0.62518376  1
  Hf  Hf38  1  0.50734355  0.50826230  0.62286601  1
  Hf  Hf39  1  0.18620242  0.20240942  0.73283799  1
  Zr  Zr40  1  0.58636375  0.80615722  0.50598447  1
  Zr  Zr41  1  0.09396768  0.32446224  0.62780990  1
  Zr  Zr42  1  0.19880149  0.61208897  0.25272272  1
  Zr  Zr43  1  0.69908792  0.30043193  0.62908485  1
  Zr  Zr44  1  0.69718034  0.09974881  0.61830755  1
  Zr  Zr45  1  0.30211113  0.49706787  0.37851343  1
  Zr  Zr46  1  -0.00654256  0.39830240  0.24407267  1
  Zr  Zr47  1  0.29781281  0.69795157  0.62262108  1
  Zr  Zr48  1  0.40525282  -0.00021831  0.75130901  1
  Zr  Zr49  1  0.27808243  0.50134939  0.62810331  1
  Zr  Zr50  1  0.80534485  -0.00568710  0.75293793  1
  Zr  Zr51  1  0.17610407  0.80052110  0.49843599  1
  Zr  Zr52  1  0.79535850  -0.01247046  0.50257652  1
  Zr  Zr53  1  0.70542965  0.49614589  0.37578305  1
  Zr  Zr54  1  0.09146803  0.29583276  0.86953199  1
  Zr  Zr55  1  -0.02255538  0.80165564  -0.00676629  1
  Zr  Zr56  1  0.20418677  0.21278786  0.49721174  1
  Zr  Zr57  1  0.77801106  0.79604511  0.74304718  1
  Zr  Zr58  1  0.02656612  0.58776417  0.75830998  1
  Zr  Zr59  1  0.10267184  0.28788067  0.12932749  1
  Zr  Zr60  1  0.79950573  -0.00226330  0.23960461  1
  Zr  Zr61  1  0.41096077  0.19325397  0.74669422  1
  Zr  Zr62  1  0.90257846  0.69381388  0.62837145  1
  Zr  Zr63  1  -0.00473209  0.39466867  0.00538147  1
  Zr  Zr64  1  0.28073223  0.10448918  0.87357785  1
  Zr  Zr65  1  0.81309413  -0.00447783  0.00991124  1
  Zr  Zr66  1  0.40852956  0.39971628  0.73655127  1
  Zr  Zr67  1  0.29936452  0.89729723  0.62167300  1
  Zr  Zr68  1  0.59933860  0.40497517  0.00107220  1
  Zr  Zr69  1  -0.00084236  0.60828517  0.25700042  1
  Zr  Zr70  1  0.60515229  0.60047290  0.25288478  1
  Zr  Zr71  1  0.80574276  0.60063958  0.24342545  1
  Zr  Zr72  1  0.50919899  0.30128205  0.87627609  1
  Zr  Zr73  1  0.08523018  0.91813141  0.87964834  1
  Zr  Zr74  1  0.28949736  0.50685016  0.85495516  1
  Zr  Zr75  1  0.59079037  0.80772394  0.00915348  1
  Zr  Zr76  1  0.29389262  0.89791607  0.86484060  1
  Zr  Zr77  1  0.20987619  0.40426073  0.25159116  1
  Zr  Zr78  1  0.68945260  0.88197029  0.36938206  1
  Zr  Zr79  1  0.30456486  0.08841486  0.13020628  1
  Ta  Ta80  1  0.00130598  0.19596711  0.26073409  1
  Ta  Ta81  1  -0.01189735  0.80354724  0.76437395  1
  Ta  Ta82  1  0.29820484  0.70487573  0.86341193  1
  Ta  Ta83  1  0.19995680  0.81163836  0.00494527  1
  Ta  Ta84  1  0.69593635  0.70269377  0.12305835  1
  Ta  Ta85  1  0.60817348  0.38799160  0.25556368  1
  Ta  Ta86  1  0.60370151  0.19268868  0.75500219  1
  Ta  Ta87  1  0.79721082  0.39451337  0.23905538  1
  Ta  Ta88  1  0.89838665  0.88972141  0.37303602  1
  Ta  Ta89  1  0.21847064  0.19580454  0.26984160  1
  Ta  Ta90  1  0.70809273  0.30694400  0.86653553  1
  Ta  Ta91  1  0.89317047  0.28484787  0.87507488  1
  Ta  Ta92  1  0.01074913  0.61321160  0.48796899  1
  Ta  Ta93  1  0.70337654  0.50313792  0.86721277  1
  Ta  Ta94  1  0.90289115  0.89257179  0.62541164  1
  Ta  Ta95  1  0.29999075  0.30603184  0.63044638  1
  Ta  Ta96  1  0.91451380  0.10193398  0.12574059  1
  Ta  Ta97  1  0.10749005  0.09383356  0.37223456  1
  Ta  Ta98  1  0.00187949  0.19992844  0.49331045  1
  Ta  Ta99  1  0.79565262  0.79913792  0.23381605  1
  Ta  Ta100  1  0.60752581  0.62203696  0.74438756  1
  Ta  Ta101  1  0.91004082  0.09861329  0.62577993  1
  Ta  Ta102  1  0.80409707  0.20015516  0.49696686  1
  Ta  Ta103  1  0.39573896  0.59942696  0.25922668  1
  Ta  Ta104  1  0.41415847  0.80121159  0.74396238  1
  Ta  Ta105  1  0.59558207  0.20017293  0.26160337  1
  Ta  Ta106  1  0.79179493  0.39092990  0.00361322  1
  Ta  Ta107  1  0.49812426  0.70826899  0.86918276  1
  Ta  Ta108  1  0.39670428  0.80252490  0.48917950  1
  Ta  Ta109  1  0.18523118  0.79460212  0.74804457  1
  Ta  Ta110  1  -0.01109160  0.80389743  0.24228264  1
  Ta  Ta111  1  0.69352491  0.10099613  0.38713590  1
  Ta  Ta112  1  0.51051484  0.09552319  0.88727473  1
  Ta  Ta113  1  0.60568114  0.61335526  0.49282047  1
  Ta  Ta114  1  0.08967525  0.89920638  0.37151753  1
  Ta  Ta115  1  0.19523715  0.00333570  0.50556422  1
  Ta  Ta116  1  0.09978734  0.30088146  0.37166727  1
  Ta  Ta117  1  0.60929994  -0.00415088  0.00065076  1
  Ta  Ta118  1  0.29803979  0.71142219  0.37331206  1
  Ta  Ta119  1  0.50906213  0.71377373  0.36199758  1
  Ti  Ti120  1  0.19591384  0.60592547  0.48669502  1
  Ti  Ti121  1  0.50366493  0.28021009  0.61762469  1
  Ti  Ti122  1  0.09433081  0.70022196  0.62750311  1
  Ti  Ti123  1  0.62153062  0.20636522  -0.00200379  1
  Ti  Ti124  1  0.50537998  0.49618129  0.37189506  1
  Ti  Ti125  1  0.09967838  0.50295650  0.37497302  1
  Ti  Ti126  1  0.89375643  0.71028920  0.37546670  1
  Ti  Ti127  1  0.79181634  0.79210532  0.50611239  1
  Ti  Ti128  1  0.19198337  0.01156172  0.00078574  1
  Ti  Ti129  1  0.60786802  0.40177736  0.74627339  1
  Ti  Ti130  1  0.89183582  0.28974564  0.12000681  1
  Ti  Ti131  1  0.70493484  0.11384832  0.11902825  1
  Ti  Ti132  1  0.80861588  0.40163289  0.75398023  1
  Ti  Ti133  1  0.00661517  0.40025674  0.49245707  1
  Ti  Ti134  1  0.70043689  0.49210834  0.12634476  1
  Ti  Ti135  1  0.90208637  0.50544271  0.11641855  1
  Ti  Ti136  1  0.30127297  0.70279287  0.13431853  1
  Ti  Ti137  1  0.30832983  0.10271031  0.38871783  1
  Ti  Ti138  1  0.89873918  0.29817240  0.37648585  1
  Ti  Ti139  1  0.09963035  0.69733982  0.88286838  1
  Ti  Ti140  1  0.19614337  0.40615742  0.49225273  1
  Ti  Ti141  1  0.49568358  0.69840237  0.14240454  1
  Ti  Ti142  1  0.40006907  0.40665540  -0.00070751  1
  Ti  Ti143  1  0.00992509  0.18514310  0.00235130  1
  Ti  Ti144  1  0.49836217  0.10451830  0.38859322  1
  Ti  Ti145  1  0.80816318  0.60230604  0.75893121  1
  Ti  Ti146  1  0.51191656  0.08774716  0.60792657  1
  Ti  Ti147  1  0.00430230  -0.00674255  0.25051014  1
  Ti  Ti148  1  0.09677638  0.91037748  0.11998862  1
  Ti  Ti149  1  0.70229603  0.29520267  0.38213738  1
  Ti  Ti150  1  0.80812856  0.39384149  0.50385844  1
  Ti  Ti151  1  0.68319308  0.89895723  0.62083278  1
  Ti  Ti152  1  0.39403912  0.80382574  0.25899823  1
  Ti  Ti153  1  0.41204847  -0.01105281  0.49347269  1
  Ti  Ti154  1  0.80517825  0.19641804  0.75001280  1
  Ti  Ti155  1  0.29062579  0.90979166  0.38214484  1
  Ti  Ti156  1  0.40505031  0.61083137  0.74088354  1
  Ti  Ti157  1  0.38489613  0.00356745  0.26388736  1
  Ti  Ti158  1  0.41145387  0.37447595  0.27167405  1
  Ti  Ti159  1  0.78999277  0.81095598  0.01983220  1
  Mo  Mo160  1  0.40708961  0.19507729  0.50586172  1
  Mo  Mo161  1  0.08551697  0.88813393  0.63072167  1
  Mo  Mo162  1  0.59423009  -0.00154178  0.49010661  1
  Mo  Mo163  1  0.59589875  0.79978545  0.23850161  1
  Mo  Mo164  1  0.59053872  0.80159268  0.74414959  1
  Mo  Mo165  1  0.19952697  0.00202995  0.26475265  1
  Mo  Mo166  1  -0.00341591  0.39020974  0.75929722  1
  Mo  Mo167  1  0.81319008  0.20499453  0.00313418  1
  Mo  Mo168  1  0.50950521  0.29326517  0.37888452  1
  Mo  Mo169  1  0.00549195  0.59868916  -0.01051118  1
  Mo  Mo170  1  0.89409399  0.69920142  0.12461745  1
  Mo  Mo171  1  0.19980697  0.61345952  0.75280179  1
  Mo  Mo172  1  0.69917193  0.90271750  0.88354209  1
  Mo  Mo173  1  0.28756393  0.89761928  0.12416458  1
  Mo  Mo174  1  0.48065886  0.90145027  0.36314864  1
  Mo  Mo175  1  0.30612485  0.28933801  0.37402614  1
  Mo  Mo176  1  0.87946113  0.88745255  0.87578285  1
  Mo  Mo177  1  0.60040434  0.20037326  0.49129735  1
  Mo  Mo178  1  -0.01909687  0.79623917  0.49644988  1
  Mo  Mo179  1  -0.00300498  -0.00720741  0.73733631  1
  Mo  Mo180  1  0.00678850  0.00044798  0.01304670  1
  Mo  Mo181  1  0.41205911  0.18754497  0.26023157  1
  Mo  Mo182  1  0.90590576  0.89976273  0.13309410  1
  Mo  Mo183  1  0.09978864  0.51702160  0.60668202  1
  Mo  Mo184  1  0.69339980  0.69482107  0.62104584  1
  Mo  Mo185  1  0.30935884  0.50240931  0.13203209  1
  Mo  Mo186  1  0.49854593  0.70306262  0.62247614  1
  Mo  Mo187  1  0.70327223  0.29683834  0.12831357  1
  Mo  Mo188  1  0.09404924  0.10546302  0.61101735  1
  Mo  Mo189  1  0.19895810  0.20085329  0.00175694  1
  Mo  Mo190  1  0.70421663  0.70559563  0.37331384  1
  Mo  Mo191  1  0.90048863  0.69948996  0.86840269  1
  Mo  Mo192  1  0.09169670  0.71150855  0.37162147  1
  Mo  Mo193  1  0.49468739  0.90667934  0.62012366  1
  Mo  Mo194  1  0.10530159  0.49927078  0.88755773  1
  Mo  Mo195  1  0.50465942  0.89449661  0.87957176  1
  Mo  Mo196  1  0.69180239  0.90808544  0.13278815  1
  Mo  Mo197  1  0.10285667  0.10319940  0.87610684  1
  Mo  Mo198  1  -0.00386604  0.18583980  0.74624242  1
  Mo  Mo199  1  0.17831637  0.41484173  0.74805168  1
