# generated using pymatgen
data_HfZrTaTiMo
_symmetry_space_group_name_H-M   'P 1'
_cell_length_a   15.20924416
_cell_length_b   15.22313968
_cell_length_c   16.84122056
_cell_angle_alpha   89.99809833
_cell_angle_beta   89.94989126
_cell_angle_gamma   89.84885214
_symmetry_Int_Tables_number   1
_chemical_formula_structural   HfZrTaTiMo
_chemical_formula_sum   'Hf40 Zr40 Ta40 Ti40 Mo40'
_cell_volume   3899.27396523
_cell_formula_units_Z   40
loop_
 _symmetry_equiv_pos_site_id
 _symmetry_equiv_pos_as_xyz
  1  'x, y, z'
loop_
 _atom_site_type_symbol
 _atom_site_label
 _atom_site_symmetry_multiplicity
 _atom_site_fract_x
 _atom_site_fract_y
 _atom_site_fract_z
 _atom_site_occupancy
  Hf  Hf0  1  0.80512913  0.20647754  0.77772061  1
  Hf  Hf1  1  0.40932521  0.80090471  -0.00929639  1
  Hf  Hf2  1  0.59736268  0.58716578  0.50804740  1
  Hf  Hf3  1  0.70448520  0.69842020  0.62480173  1
  Hf  Hf4  1  0.20977498  0.79799787  0.74373860  1
  Hf  Hf5  1  0.11440410  0.31579059  0.36068936  1
  Hf  Hf6  1  0.00754760  0.20753871  0.48118158  1
  Hf  Hf7  1  0.60979073  0.18384852  0.49768991  1
  Hf  Hf8  1  0.29185753  0.49488711  0.11255262  1
  Hf  Hf9  1  0.00337822  0.00073124  0.47938692  1
  Hf  Hf10  1  0.31279580  0.69420639  0.12443124  1
  Hf  Hf11  1  0.78667654  0.40450155  0.76279311  1
  Hf  Hf12  1  0.19798274  -0.00667058  0.00337317  1
  Hf  Hf13  1  0.69600482  0.91655484  0.11755507  1
  Hf  Hf14  1  0.08334670  0.28437112  0.86900040  1
  Hf  Hf15  1  0.79896914  0.40359737  -0.01521665  1
  Hf  Hf16  1  0.59428913  -0.00323665  -0.02009424  1
  Hf  Hf17  1  0.59507979  0.20423615  0.76923048  1
  Hf  Hf18  1  0.89701880  0.71732708  0.86447858  1
  Hf  Hf19  1  0.68877836  0.49515542  0.11936378  1
  Hf  Hf20  1  0.58869978  0.59005616  0.25725118  1
  Hf  Hf21  1  0.50947946  0.09708837  0.13148278  1
  Hf  Hf22  1  0.58353130  0.20534871  -0.01394857  1
  Hf  Hf23  1  0.10091298  0.69121426  0.37419113  1
  Hf  Hf24  1  0.19741858  0.80476354  0.48997976  1
  Hf  Hf25  1  -0.00252729  0.60059492  0.25355010  1
  Hf  Hf26  1  0.59268598  0.38555611  0.49676725  1
  Hf  Hf27  1  0.80220836  0.80774095  0.25111178  1
  Hf  Hf28  1  0.89524852  0.49906340  0.63819260  1
  Hf  Hf29  1  0.47719333  0.48904407  0.38349152  1
  Hf  Hf30  1  0.60435013  0.79727624  0.25073470  1
  Hf  Hf31  1  0.10575262  0.48477946  0.86442897  1
  Hf  Hf32  1  0.69374136  0.92408039  0.38097951  1
  Hf  Hf33  1  0.00424165  0.00748888  0.27285839  1
  Hf  Hf34  1  0.30503529  0.10475802  0.61766252  1
  Hf  Hf35  1  0.49681296  0.89012100  0.12367241  1
  Hf  Hf36  1  0.89437810  0.50245767  0.12478218  1
  Hf  Hf37  1  0.21607488  0.00997768  0.46876462  1
  Hf  Hf38  1  -0.00287141  0.60097207  0.50556359  1
  Hf  Hf39  1  0.10644109  0.10518182  0.60442376  1
  Zr  Zr40  1  0.67995686  0.69966229  0.11595677  1
  Zr  Zr41  1  0.89683146  0.70853304  0.62860756  1
  Zr  Zr42  1  0.49918573  0.69367950  0.39262982  1
  Zr  Zr43  1  0.50114929  0.89598765  0.37954043  1
  Zr  Zr44  1  0.49869358  0.10247179  0.63718572  1
  Zr  Zr45  1  0.00559789  0.80844881  0.25326496  1
  Zr  Zr46  1  0.00749912  0.39172114  0.00472381  1
  Zr  Zr47  1  0.21438184  0.59142615  0.74772423  1
  Zr  Zr48  1  0.38632508  0.00041797  0.25926371  1
  Zr  Zr49  1  0.59866994  0.58198738  0.75687264  1
  Zr  Zr50  1  0.89521552  0.70570860  0.12141035  1
  Zr  Zr51  1  0.10120865  0.69700014  0.86458267  1
  Zr  Zr52  1  0.41420552  0.38354399  0.00811595  1
  Zr  Zr53  1  0.91292726  0.92206012  0.11770433  1
  Zr  Zr54  1  0.69631144  0.29008440  0.11720624  1
  Zr  Zr55  1  0.18891651  0.18218435  0.75635777  1
  Zr  Zr56  1  0.79046284  0.60185775  0.25955758  1
  Zr  Zr57  1  0.10495842  0.90813771  0.86851050  1
  Zr  Zr58  1  0.80669394  0.00802257  0.76405773  1
  Zr  Zr59  1  0.21166224  0.78937540  -0.00557720  1
  Zr  Zr60  1  0.00566001  0.60300689  -0.00150820  1
  Zr  Zr61  1  0.70384349  0.09738389  0.63760004  1
  Zr  Zr62  1  -0.00668805  0.19938270  0.25840851  1
  Zr  Zr63  1  0.48785198  0.31142065  0.63244154  1
  Zr  Zr64  1  0.90005183  0.29580850  0.62942445  1
  Zr  Zr65  1  0.00718496  0.02572582  0.74308206  1
  Zr  Zr66  1  0.79205441  0.01964753  0.24715895  1
  Zr  Zr67  1  0.19427195  0.58450458  0.50689990  1
  Zr  Zr68  1  0.70395757  0.70593779  0.39340219  1
  Zr  Zr69  1  0.30951817  0.48276292  0.88576315  1
  Zr  Zr70  1  0.49864275  0.28096767  0.35868441  1
  Zr  Zr71  1  0.30750898  0.69262131  0.61539105  1
  Zr  Zr72  1  0.31285516  0.90590841  0.61991599  1
  Zr  Zr73  1  0.40233793  0.78657783  0.25202379  1
  Zr  Zr74  1  0.49672008  0.70058544  0.62891034  1
  Zr  Zr75  1  0.00265756  0.40913226  0.49656053  1
  Zr  Zr76  1  0.39653902  0.39978859  0.23642654  1
  Zr  Zr77  1  0.79223283  0.60849523  -0.02009298  1
  Zr  Zr78  1  0.01590219  0.81007319  0.01319036  1
  Zr  Zr79  1  0.91149239  0.91135043  0.88257374  1
  Ta  Ta80  1  0.79209771  0.39467056  0.50165511  1
  Ta  Ta81  1  0.20737932  0.80314671  0.26352639  1
  Ta  Ta82  1  0.10513427  0.48642485  0.64164980  1
  Ta  Ta83  1  -0.00076289  0.80582434  0.49908277  1
  Ta  Ta84  1  0.00007422  0.81478391  0.73540818  1
  Ta  Ta85  1  0.70302221  0.89346411  0.86328187  1
  Ta  Ta86  1  0.79203592  0.81235355  -0.00373665  1
  Ta  Ta87  1  0.78720604  0.21115087  0.25174050  1
  Ta  Ta88  1  0.58834518  0.59379420  -0.02199707  1
  Ta  Ta89  1  0.32125366  0.48192568  0.62290377  1
  Ta  Ta90  1  0.51017876  0.90664304  0.64121633  1
  Ta  Ta91  1  0.79735779  0.01391161  -0.01263173  1
  Ta  Ta92  1  0.79652683  0.20904309  -0.01899759  1
  Ta  Ta93  1  -0.00225142  0.40560743  0.25044138  1
  Ta  Ta94  1  0.52047406  0.08974821  0.35932296  1
  Ta  Ta95  1  0.38135122  0.21705635  0.76816711  1
  Ta  Ta96  1  0.89063513  0.11800214  0.11246245  1
  Ta  Ta97  1  0.79357321  0.60863663  0.76281801  1
  Ta  Ta98  1  0.89660437  0.30461164  0.12862825  1
  Ta  Ta99  1  0.31223114  0.89782605  0.86448264  1
  Ta  Ta100  1  0.21257798  0.18570535  0.25383252  1
  Ta  Ta101  1  0.21932949  0.37995832  0.74884113  1
  Ta  Ta102  1  0.27942804  0.48619428  0.37153464  1
  Ta  Ta103  1  0.20242248  0.38740737  0.50550699  1
  Ta  Ta104  1  0.70302056  0.90114710  0.63942597  1
  Ta  Ta105  1  0.89898840  0.91353096  0.61766824  1
  Ta  Ta106  1  0.10142999  0.90429069  0.61786490  1
  Ta  Ta107  1  0.10433808  0.49601196  0.12852994  1
  Ta  Ta108  1  0.09941112  0.29685508  0.63161006  1
  Ta  Ta109  1  0.30566395  0.68421444  0.38292995  1
  Ta  Ta110  1  0.91154880  0.49970984  0.86024302  1
  Ta  Ta111  1  0.11664280  0.69632878  0.13501600  1
  Ta  Ta112  1  0.88507822  0.30877558  0.37503186  1
  Ta  Ta113  1  0.92852872  0.11956886  0.89419408  1
  Ta  Ta114  1  0.29063089  0.89998176  0.13016637  1
  Ta  Ta115  1  0.20495956  -0.00348479  0.74595788  1
  Ta  Ta116  1  0.69749228  0.29677070  0.63219437  1
  Ta  Ta117  1  0.18737012  0.19942335  0.00369221  1
  Ta  Ta118  1  0.09844573  0.09102036  0.13222015  1
  Ta  Ta119  1  0.29852548  0.09676613  0.12312354  1
  Ti  Ti120  1  0.80089417  0.81231747  0.50556432  1
  Ti  Ti121  1  0.19748065  -0.00528752  0.26988837  1
  Ti  Ti122  1  0.89134794  0.89895114  0.38292051  1
  Ti  Ti123  1  0.39525878  0.59431260  0.25065544  1
  Ti  Ti124  1  0.78700396  0.01217994  0.50483044  1
  Ti  Ti125  1  0.90012131  0.50163041  0.37642874  1
  Ti  Ti126  1  0.60861418  0.79444774  0.75218339  1
  Ti  Ti127  1  0.09840792  0.70247605  0.62548010  1
  Ti  Ti128  1  0.79940402  0.40274909  0.25439548  1
  Ti  Ti129  1  0.60172240  0.81587696  0.51392270  1
  Ti  Ti130  1  0.40070329  0.80490478  0.49824981  1
  Ti  Ti131  1  0.20018597  0.59512678  -0.00632994  1
  Ti  Ti132  1  0.50103369  0.89821055  0.85312054  1
  Ti  Ti133  1  0.42006484  0.00735800  0.49182182  1
  Ti  Ti134  1  0.39604995  -0.00204670  -0.00251372  1
  Ti  Ti135  1  0.48527004  0.09685947  0.86896220  1
  Ti  Ti136  1  0.60137113  0.79133813  -0.01771611  1
  Ti  Ti137  1  0.28914204  0.09449155  0.88021348  1
  Ti  Ti138  1  0.69130064  0.48727256  0.62708165  1
  Ti  Ti139  1  0.87388583  0.11111916  0.38674086  1
  Ti  Ti140  1  0.40013894  0.20253329  0.49225896  1
  Ti  Ti141  1  0.20285224  0.59086700  0.25232997  1
  Ti  Ti142  1  0.49705477  0.51556280  0.11785458  1
  Ti  Ti143  1  0.29481365  0.29219715  0.62020549  1
  Ti  Ti144  1  0.89533742  0.70341386  0.38572823  1
  Ti  Ti145  1  0.49290415  0.70300908  0.85924574  1
  Ti  Ti146  1  0.40265335  0.60554006  -0.01420730  1
  Ti  Ti147  1  0.39562697  0.00634604  0.75365387  1
  Ti  Ti148  1  0.38671822  0.19179103  -0.00808664  1
  Ti  Ti149  1  0.79989421  0.58867299  0.50145234  1
  Ti  Ti150  1  0.29274129  0.28902996  0.12615749  1
  Ti  Ti151  1  0.40392173  0.58844937  0.75734266  1
  Ti  Ti152  1  0.00277858  0.60465385  0.74435530  1
  Ti  Ti153  1  0.90032296  0.10844593  0.61308309  1
  Ti  Ti154  1  0.61169346  0.38593739  0.25870096  1
  Ti  Ti155  1  0.50423209  0.29403062  0.13964551  1
  Ti  Ti156  1  0.70236725  0.48810149  0.38011992  1
  Ti  Ti157  1  0.30594489  0.29631920  0.36766709  1
  Ti  Ti158  1  0.66937791  0.32644910  0.88190354  1
  Ti  Ti159  1  0.10374342  0.29704920  0.13706212  1
  Mo  Mo160  1  0.80310291  0.80592084  0.74365665  1
  Mo  Mo161  1  0.11663896  0.90478235  0.14044028  1
  Mo  Mo162  1  0.32522258  0.11314598  0.37587183  1
  Mo  Mo163  1  0.70328655  0.30111649  0.37348476  1
  Mo  Mo164  1  0.69656734  0.10239006  0.88330344  1
  Mo  Mo165  1  0.09927324  0.49934632  0.36722034  1
  Mo  Mo166  1  0.00428251  0.39892235  0.74669057  1
  Mo  Mo167  1  0.59653784  -0.00064112  0.76810800  1
  Mo  Mo168  1  0.30590291  0.88979117  0.37875514  1
  Mo  Mo169  1  0.59426311  0.40460855  0.00680765  1
  Mo  Mo170  1  0.11336779  0.11266430  0.37343718  1
  Mo  Mo171  1  0.70339353  0.10344550  0.10496100  1
  Mo  Mo172  1  0.60235702  -0.00067185  0.24292261  1
  Mo  Mo173  1  0.09726265  0.89741360  0.37605159  1
  Mo  Mo174  1  0.19676132  0.38685294  0.00975885  1
  Mo  Mo175  1  0.69991490  0.11106165  0.37755306  1
  Mo  Mo176  1  0.49538400  0.49999415  0.62033191  1
  Mo  Mo177  1  0.59453350  0.39639277  0.74566744  1
  Mo  Mo178  1  0.00746319  0.01458961  0.01126955  1
  Mo  Mo179  1  0.69232791  0.71057194  0.87088952  1
  Mo  Mo180  1  0.40554991  0.79875385  0.75381407  1
  Mo  Mo181  1  0.00099584  0.20471013  0.01949007  1
  Mo  Mo182  1  0.48095318  0.30536834  0.87183977  1
  Mo  Mo183  1  0.19812132  0.39641675  0.23722062  1
  Mo  Mo184  1  0.39774101  0.19625156  0.23937241  1
  Mo  Mo185  1  0.59961010  -0.00677852  0.51090911  1
  Mo  Mo186  1  0.10245307  0.09403889  0.88508300  1
  Mo  Mo187  1  0.80012214  0.20736586  0.50259699  1
  Mo  Mo188  1  0.38450959  0.38807430  0.49421833  1
  Mo  Mo189  1  0.40085907  0.40363139  0.75679063  1
  Mo  Mo190  1  0.50384384  0.68770794  0.11200280  1
  Mo  Mo191  1  0.30983649  0.69755663  0.87030557  1
  Mo  Mo192  1  0.39252820  0.58963292  0.49845545  1
  Mo  Mo193  1  0.70017400  0.50421785  0.87681049  1
  Mo  Mo194  1  0.21346276  0.21240481  0.49107545  1
  Mo  Mo195  1  0.50657061  0.48634059  0.87881244  1
  Mo  Mo196  1  0.61119175  0.18806329  0.24472014  1
  Mo  Mo197  1  -0.00690678  0.19832830  0.74325307  1
  Mo  Mo198  1  0.28709951  0.29057369  0.88805324  1
  Mo  Mo199  1  0.90250776  0.30939412  0.87529426  1
