# generated using pymatgen
data_HfZrTaTiMo
_symmetry_space_group_name_H-M   'P 1'
_cell_length_a   15.21990299
_cell_length_b   15.20800969
_cell_length_c   16.83287766
_cell_angle_alpha   90.09312479
_cell_angle_beta   89.95665667
_cell_angle_gamma   90.03336037
_symmetry_Int_Tables_number   1
_chemical_formula_structural   HfZrTaTiMo
_chemical_formula_sum   'Hf40 Zr40 Ta40 Ti40 Mo40'
_cell_volume   3896.20554992
_cell_formula_units_Z   40
loop_
 _symmetry_equiv_pos_site_id
 _symmetry_equiv_pos_as_xyz
  1  'x, y, z'
loop_
 _atom_site_type_symbol
 _atom_site_label
 _atom_site_symmetry_multiplicity
 _atom_site_fract_x
 _atom_site_fract_y
 _atom_site_fract_z
 _atom_site_occupancy
  Hf  Hf0  1  0.79961066  0.21557713  0.24362105  1
  Hf  Hf1  1  0.09144051  0.88179091  0.11918735  1
  Hf  Hf2  1  0.41455721  0.19614056  0.75653127  1
  Hf  Hf3  1  0.89355431  0.90598305  0.39056929  1
  Hf  Hf4  1  0.20256800  0.60432454  0.50855554  1
  Hf  Hf5  1  0.00010536  0.19774530  0.00173687  1
  Hf  Hf6  1  0.10427407  0.30433048  0.86503496  1
  Hf  Hf7  1  0.59285586  0.20421996  -0.00245588  1
  Hf  Hf8  1  0.90158342  0.50078083  0.36819116  1
  Hf  Hf9  1  0.48117270  0.91358899  0.38674861  1
  Hf  Hf10  1  0.29417686  0.49912620  0.36600292  1
  Hf  Hf11  1  0.00338848  0.80596966  0.74400280  1
  Hf  Hf12  1  0.40688488  0.59648906  0.49399895  1
  Hf  Hf13  1  0.51242463  0.09336720  0.61533936  1
  Hf  Hf14  1  0.89528146  0.30087502  0.86438369  1
  Hf  Hf15  1  0.01402220  0.60524111  0.24326951  1
  Hf  Hf16  1  0.89483828  0.70124179  0.38752383  1
  Hf  Hf17  1  0.81549778  0.21086331  0.50431453  1
  Hf  Hf18  1  0.10084817  0.48223314  0.12952631  1
  Hf  Hf19  1  0.47790744  0.89835313  0.62587508  1
  Hf  Hf20  1  0.20274700  -0.01784316  0.24495318  1
  Hf  Hf21  1  0.38451616  -0.00116362  0.76698743  1
  Hf  Hf22  1  0.70176377  0.31641208  0.38052881  1
  Hf  Hf23  1  0.37642600  0.79104953  0.49798188  1
  Hf  Hf24  1  0.19926598  0.39373624  0.51698276  1
  Hf  Hf25  1  0.57870536  -0.00175407  0.25046621  1
  Hf  Hf26  1  0.70148455  0.09865045  0.37128783  1
  Hf  Hf27  1  0.09366731  0.50572576  0.63809996  1
  Hf  Hf28  1  0.79756117  0.21389807  0.00977550  1
  Hf  Hf29  1  0.40587693  0.59602707  0.76343353  1
  Hf  Hf30  1  0.70032571  0.69297971  0.88142818  1
  Hf  Hf31  1  0.90011385  0.69090639  0.61810550  1
  Hf  Hf32  1  -0.01031449  -0.01675186  -0.00587937  1
  Hf  Hf33  1  0.10442883  0.70460431  0.87181173  1
  Hf  Hf34  1  0.00039555  0.80671805  0.25749849  1
  Hf  Hf35  1  0.20325861  0.58295923  -0.00215296  1
  Hf  Hf36  1  0.09901180  0.49091754  0.37459643  1
  Hf  Hf37  1  0.09962416  0.50264752  0.85607480  1
  Hf  Hf38  1  0.41028801  0.17209413  0.28133508  1
  Hf  Hf39  1  0.00709706  0.19379153  0.74277112  1
  Zr  Zr40  1  0.90834242  0.10704011  0.37494009  1
  Zr  Zr41  1  0.58894175  0.80705221  0.76212405  1
  Zr  Zr42  1  0.47906455  0.29598420  0.12249102  1
  Zr  Zr43  1  0.30692980  0.48834168  0.13610426  1
  Zr  Zr44  1  0.71532143  0.90892819  0.87229751  1
  Zr  Zr45  1  0.70750221  0.11187637  0.86974987  1
  Zr  Zr46  1  0.21318637  0.18800940  0.73524983  1
  Zr  Zr47  1  0.39234070  0.81306965  0.24929317  1
  Zr  Zr48  1  0.70848898  0.30291921  0.62511459  1
  Zr  Zr49  1  0.21230010  0.19697816  0.25788264  1
  Zr  Zr50  1  0.69245846  0.70817768  0.63129467  1
  Zr  Zr51  1  0.69720831  0.09541156  0.13108684  1
  Zr  Zr52  1  0.50722885  0.71357033  0.09741127  1
  Zr  Zr53  1  0.29315484  0.69167037  0.64287173  1
  Zr  Zr54  1  0.79203186  0.79144844  0.24539307  1
  Zr  Zr55  1  0.60413313  0.42003807  0.51363776  1
  Zr  Zr56  1  0.10343844  0.09616930  0.12285520  1
  Zr  Zr57  1  0.60094192  -0.00249844  -0.01006822  1
  Zr  Zr58  1  0.40367176  0.37499675  0.26318019  1
  Zr  Zr59  1  0.81465857  0.59017031  0.00956732  1
  Zr  Zr60  1  0.80277060  0.80259498  0.74915145  1
  Zr  Zr61  1  0.70868739  0.51521179  0.36359884  1
  Zr  Zr62  1  0.11616392  0.70355663  0.38044120  1
  Zr  Zr63  1  0.51351613  0.49840215  0.36563092  1
  Zr  Zr64  1  0.89324461  0.90037033  0.61128824  1
  Zr  Zr65  1  -0.00369588  0.41041111  -0.00748510  1
  Zr  Zr66  1  0.69146239  0.89786605  0.37899383  1
  Zr  Zr67  1  0.30749345  0.69823546  0.10449560  1
  Zr  Zr68  1  0.80803606  0.80905454  0.00267490  1
  Zr  Zr69  1  0.27132136  0.88238406  0.37720903  1
  Zr  Zr70  1  0.39282892  0.40213264  -0.00855491  1
  Zr  Zr71  1  0.90104118  0.32918997  0.13117347  1
  Zr  Zr72  1  0.60150525  0.41395398  0.73894645  1
  Zr  Zr73  1  0.41132529  0.61454559  0.25463975  1
  Zr  Zr74  1  0.31066951  0.10628253  0.12187511  1
  Zr  Zr75  1  0.40554924  0.40149557  0.74033937  1
  Zr  Zr76  1  0.10692633  0.08857417  0.87117015  1
  Zr  Zr77  1  0.39653326  0.00534619  -0.02818541  1
  Zr  Zr78  1  0.10774387  0.09200038  0.38261346  1
  Zr  Zr79  1  0.59306738  0.21129549  0.25686304  1
  Ta  Ta80  1  0.39738200  0.20036680  -0.02202700  1
  Ta  Ta81  1  0.19717249  0.81286868  0.74659790  1
  Ta  Ta82  1  0.68411683  0.88712306  0.12420173  1
  Ta  Ta83  1  0.01206220  0.21205153  0.24421895  1
  Ta  Ta84  1  0.61532263  0.60991155  0.22666467  1
  Ta  Ta85  1  0.58272553  0.79951134  0.50076659  1
  Ta  Ta86  1  0.90282471  0.10075624  0.13371808  1
  Ta  Ta87  1  0.49887984  0.70111394  0.89680145  1
  Ta  Ta88  1  0.39247522  0.80079760  0.77247402  1
  Ta  Ta89  1  0.81215846  0.41139604  0.50675839  1
  Ta  Ta90  1  0.59893908  0.61338760  0.50427666  1
  Ta  Ta91  1  0.90501613  0.70172140  0.87611645  1
  Ta  Ta92  1  0.80190707  0.19984274  0.74251803  1
  Ta  Ta93  1  0.70322658  0.49445375  0.88067899  1
  Ta  Ta94  1  0.89531971  0.50245470  0.85830208  1
  Ta  Ta95  1  0.20584692  0.21143112  -0.00304097  1
  Ta  Ta96  1  0.90965158  0.31056718  0.36894339  1
  Ta  Ta97  1  -0.00380952  0.00158794  0.25024742  1
  Ta  Ta98  1  0.79140170  0.59660566  0.50627354  1
  Ta  Ta99  1  0.40025844  0.39997506  0.50529210  1
  Ta  Ta100  1  0.58727591  0.79409067  0.24989134  1
  Ta  Ta101  1  0.09756441  0.29344581  0.38628196  1
  Ta  Ta102  1  0.91278081  0.31027281  0.63886114  1
  Ta  Ta103  1  0.29961406  0.90016706  0.10682823  1
  Ta  Ta104  1  0.67920723  0.91866912  0.62267301  1
  Ta  Ta105  1  0.61034424  0.40447210  0.23312767  1
  Ta  Ta106  1  0.49265837  0.09360324  0.12100812  1
  Ta  Ta107  1  0.50191447  0.29602822  0.61085957  1
  Ta  Ta108  1  0.90029860  0.10345671  0.62610910  1
  Ta  Ta109  1  0.20585436  0.39853936  0.72997267  1
  Ta  Ta110  1  0.50722010  0.50431822  0.11785918  1
  Ta  Ta111  1  0.78572816  0.01465493  0.51117393  1
  Ta  Ta112  1  0.92013410  0.71009131  0.11993588  1
  Ta  Ta113  1  -0.00269624  0.39523768  0.50873642  1
  Ta  Ta114  1  0.70128584  0.31115070  0.86800787  1
  Ta  Ta115  1  0.49282958  0.69868510  0.63178334  1
  Ta  Ta116  1  0.20522370  0.18722622  0.51063078  1
  Ta  Ta117  1  0.40339985  0.19483492  0.49215688  1
  Ta  Ta118  1  0.48734219  0.90418058  0.11140778  1
  Ta  Ta119  1  0.29648364  0.30190033  0.86538226  1
  Ti  Ti120  1  0.80197335  0.00424602  0.73676567  1
  Ti  Ti121  1  0.78063690  0.79957364  0.50405324  1
  Ti  Ti122  1  0.29355945  0.49531476  0.86806018  1
  Ti  Ti123  1  0.61009413  0.19415101  0.49787299  1
  Ti  Ti124  1  0.27200455  0.90131940  0.87852346  1
  Ti  Ti125  1  -0.00402703  0.59018350  0.50581571  1
  Ti  Ti126  1  0.29790712  0.69681596  0.87929170  1
  Ti  Ti127  1  0.30933589  0.28948271  0.61943585  1
  Ti  Ti128  1  0.60438196  0.20462345  0.74627493  1
  Ti  Ti129  1  0.29518270  0.29341693  0.39073240  1
  Ti  Ti130  1  0.01445654  0.79516817  0.51203249  1
  Ti  Ti131  1  0.31061274  0.08201731  0.61878411  1
  Ti  Ti132  1  0.50879155  0.30917725  0.87326608  1
  Ti  Ti133  1  0.19876531  0.76905134  0.23404072  1
  Ti  Ti134  1  0.59644772  0.60078725  0.75247453  1
  Ti  Ti135  1  -0.00586970  0.60830333  0.74817579  1
  Ti  Ti136  1  0.72052110  0.48577400  0.12297461  1
  Ti  Ti137  1  0.18917914  0.79950352  -0.00292059  1
  Ti  Ti138  1  0.68881390  0.70078396  0.37614212  1
  Ti  Ti139  1  0.79871957  -0.00392773  0.24781100  1
  Ti  Ti140  1  0.20053963  -0.02047967  0.51595267  1
  Ti  Ti141  1  0.51060403  0.50552372  0.89179293  1
  Ti  Ti142  1  0.01192192  0.20463387  0.51568585  1
  Ti  Ti143  1  0.61382609  0.39754747  0.01030080  1
  Ti  Ti144  1  0.10460990  0.08671950  0.62538855  1
  Ti  Ti145  1  0.80932646  0.59968555  0.22806674  1
  Ti  Ti146  1  0.08729752  0.90243394  0.38741532  1
  Ti  Ti147  1  0.88930758  0.49527592  0.64033232  1
  Ti  Ti148  1  0.00716951  0.60788573  0.00312866  1
  Ti  Ti149  1  0.89311983  0.90654791  0.13016608  1
  Ti  Ti150  1  0.79024988  0.59494307  0.75045738  1
  Ti  Ti151  1  0.61322713  0.59575457  0.01185772  1
  Ti  Ti152  1  0.80267724  0.00907692  0.00768904  1
  Ti  Ti153  1  -0.00073599  0.00650841  0.50851056  1
  Ti  Ti154  1  0.59110380  0.01089721  0.76039057  1
  Ti  Ti155  1  0.30696448  0.07243746  0.39098764  1
  Ti  Ti156  1  0.89696587  0.08687543  0.86746459  1
  Ti  Ti157  1  0.19022286  0.38190264  0.25233339  1
  Ti  Ti158  1  0.19603124  0.00408293  -0.00076965  1
  Ti  Ti159  1  0.00271069  -0.00757297  0.74709238  1
  Mo  Mo160  1  0.10747325  0.69234775  0.11665217  1
  Mo  Mo161  1  0.38963024  0.80793728  -0.02316372  1
  Mo  Mo162  1  0.20681982  0.59585376  0.24594655  1
  Mo  Mo163  1  0.79948703  0.40573565  0.74930126  1
  Mo  Mo164  1  -0.00052567  0.40171864  0.74783260  1
  Mo  Mo165  1  0.29554990  0.69074959  0.37179381  1
  Mo  Mo166  1  0.10864833  0.29493093  0.12119241  1
  Mo  Mo167  1  0.39262907  -0.00541414  0.24429302  1
  Mo  Mo168  1  0.29157012  0.10804444  0.87677824  1
  Mo  Mo169  1  0.90852943  0.51165793  0.12889154  1
  Mo  Mo170  1  0.90523018  0.90967728  0.86434404  1
  Mo  Mo171  1  0.28066236  0.30389887  0.11753638  1
  Mo  Mo172  1  0.60395266  0.80434800  -0.00827879  1
  Mo  Mo173  1  0.50305043  0.29912422  0.40240775  1
  Mo  Mo174  1  0.59815455  -0.00080788  0.50146781  1
  Mo  Mo175  1  0.50736315  0.09502428  0.39710684  1
  Mo  Mo176  1  0.29382011  0.89825638  0.63491381  1
  Mo  Mo177  1  0.09770050  0.90073079  0.62001016  1
  Mo  Mo178  1  0.20313124  0.60218797  0.75562134  1
  Mo  Mo179  1  0.70285102  0.10260585  0.63199337  1
  Mo  Mo180  1  0.70535499  0.51609263  0.62693604  1
  Mo  Mo181  1  0.69141732  0.30702827  0.12374736  1
  Mo  Mo182  1  0.49935769  0.89676417  0.87247220  1
  Mo  Mo183  1  0.50692366  0.11080915  0.86455876  1
  Mo  Mo184  1  0.70538421  0.70057303  0.11931878  1
  Mo  Mo185  1  0.38848389  -0.00143451  0.50717012  1
  Mo  Mo186  1  0.79984587  0.40774831  0.25092508  1
  Mo  Mo187  1  0.18827964  0.79683658  0.52055725  1
  Mo  Mo188  1  0.10399940  0.29343865  0.62190071  1
  Mo  Mo189  1  0.51074816  0.70752305  0.37345982  1
  Mo  Mo190  1  0.00602389  0.39425486  0.25616159  1
  Mo  Mo191  1  0.19806349  0.39333433  -0.00883701  1
  Mo  Mo192  1  0.30583963  0.49510370  0.62745768  1
  Mo  Mo193  1  0.79726600  0.40214753  -0.00832415  1
  Mo  Mo194  1  0.40312545  0.59338332  -0.01555750  1
  Mo  Mo195  1  0.19156652  -0.00787665  0.74252009  1
  Mo  Mo196  1  0.09658909  0.89663107  0.87816870  1
  Mo  Mo197  1  0.09322526  0.69798635  0.62941349  1
  Mo  Mo198  1  -0.00193251  0.79131453  -0.00567735  1
  Mo  Mo199  1  0.49797277  0.51423624  0.62326813  1
