# generated using pymatgen
data_HfZrTaTiMo
_symmetry_space_group_name_H-M   'P 1'
_cell_length_a   15.20257556
_cell_length_b   15.21121474
_cell_length_c   16.82995639
_cell_angle_alpha   89.99886736
_cell_angle_beta   90.08999616
_cell_angle_gamma   89.86744176
_symmetry_Int_Tables_number   1
_chemical_formula_structural   HfZrTaTiMo
_chemical_formula_sum   'Hf40 Zr40 Ta40 Ti40 Mo40'
_cell_volume   3891.90616261
_cell_formula_units_Z   40
loop_
 _symmetry_equiv_pos_site_id
 _symmetry_equiv_pos_as_xyz
  1  'x, y, z'
loop_
 _atom_site_type_symbol
 _atom_site_label
 _atom_site_symmetry_multiplicity
 _atom_site_fract_x
 _atom_site_fract_y
 _atom_site_fract_z
 _atom_site_occupancy
  Hf  Hf0  1  0.70287359  0.09590647  0.12040824  1
  Hf  Hf1  1  0.29977617  0.50846227  0.13211997  1
  Hf  Hf2  1  0.69531857  0.48476761  0.37887072  1
  Hf  Hf3  1  0.61011177  0.37032629  0.74485226  1
  Hf  Hf4  1  0.40495214  0.39703792  0.74481901  1
  Hf  Hf5  1  0.10765030  0.90016059  0.86059771  1
  Hf  Hf6  1  0.20372781  0.01173748  0.73762950  1
  Hf  Hf7  1  0.88298218  0.30736920  0.87705891  1
  Hf  Hf8  1  0.79762512  0.60124005  0.50769793  1
  Hf  Hf9  1  0.89997700  0.09740186  0.12089138  1
  Hf  Hf10  1  0.51255164  0.88408921  0.64348214  1
  Hf  Hf11  1  0.50234388  0.09893370  0.12479065  1
  Hf  Hf12  1  0.30099859  0.10914129  0.87309334  1
  Hf  Hf13  1  0.08151582  0.69822432  0.86846081  1
  Hf  Hf14  1  0.60387194  0.78637201  -0.00752389  1
  Hf  Hf15  1  0.49142859  0.89626386  0.12102679  1
  Hf  Hf16  1  0.59173633  0.59853609  0.50669198  1
  Hf  Hf17  1  0.20568095  0.20692479  0.00861136  1
  Hf  Hf18  1  0.01689041  -0.00934734  0.24965904  1
  Hf  Hf19  1  0.50878432  0.30137016  0.39186934  1
  Hf  Hf20  1  0.69285432  0.70741660  0.63529413  1
  Hf  Hf21  1  0.60913557  0.38710108  0.24244989  1
  Hf  Hf22  1  0.20779255  -0.00429260  -0.00599349  1
  Hf  Hf23  1  0.20717201  0.60659329  0.49246388  1
  Hf  Hf24  1  -0.02326155  0.60465109  0.73330910  1
  Hf  Hf25  1  0.10502962  0.10119137  0.38961218  1
  Hf  Hf26  1  0.31158515  0.51304006  0.36475590  1
  Hf  Hf27  1  0.09219960  0.72351881  0.37664423  1
  Hf  Hf28  1  0.09168299  0.73027771  0.13001991  1
  Hf  Hf29  1  0.80077057  0.42158633  0.73038123  1
  Hf  Hf30  1  0.69840871  0.13368197  0.87416569  1
  Hf  Hf31  1  0.29864479  0.71332781  0.11354640  1
  Hf  Hf32  1  0.29600744  0.30274483  0.87097860  1
  Hf  Hf33  1  0.58665950  0.59361184  0.24116888  1
  Hf  Hf34  1  0.20076650  0.40841864  0.49983310  1
  Hf  Hf35  1  0.59867108  -0.00234171  -0.01593455  1
  Hf  Hf36  1  0.09839051  0.11177152  0.86767932  1
  Hf  Hf37  1  0.79856269  0.00014437  0.50175436  1
  Hf  Hf38  1  0.70723509  0.89591610  0.12161179  1
  Hf  Hf39  1  0.60928291  0.57773688  0.74249391  1
  Zr  Zr40  1  0.30453209  0.69520188  0.64500016  1
  Zr  Zr41  1  0.91677195  0.89196001  0.12029311  1
  Zr  Zr42  1  0.60068264  -0.01576908  0.49921476  1
  Zr  Zr43  1  0.89850461  0.10519930  0.86716562  1
  Zr  Zr44  1  0.89832885  0.52048335  0.87715411  1
  Zr  Zr45  1  0.90265911  0.30563745  0.12858656  1
  Zr  Zr46  1  0.40624370  0.20332235  0.25128303  1
  Zr  Zr47  1  0.70290604  0.48739940  0.88253089  1
  Zr  Zr48  1  0.71969130  0.90467316  0.64376300  1
  Zr  Zr49  1  0.30746612  0.29325438  0.38894624  1
  Zr  Zr50  1  0.60048375  0.00275700  0.77080591  1
  Zr  Zr51  1  0.49721837  0.28955551  0.60514082  1
  Zr  Zr52  1  0.70754857  0.28553730  0.60607841  1
  Zr  Zr53  1  0.39844150  -0.01005239  0.49704458  1
  Zr  Zr54  1  0.78859382  0.58836502  0.22671016  1
  Zr  Zr55  1  0.39328582  0.39348199  -0.00218401  1
  Zr  Zr56  1  0.28814513  0.70505031  0.85618403  1
  Zr  Zr57  1  0.10851803  0.91259854  0.39347881  1
  Zr  Zr58  1  0.10260274  0.30446485  0.12340235  1
  Zr  Zr59  1  0.87791341  0.10751715  0.64156834  1
  Zr  Zr60  1  0.09187419  0.30509789  0.38231570  1
  Zr  Zr61  1  0.00143853  0.40401556  0.74247578  1
  Zr  Zr62  1  0.90123920  0.87857812  0.37966778  1
  Zr  Zr63  1  0.49830915  0.48945785  0.87517629  1
  Zr  Zr64  1  0.89466226  0.49061594  0.36372173  1
  Zr  Zr65  1  0.70964328  0.69974439  0.37304298  1
  Zr  Zr66  1  0.10123711  0.70772950  0.62238777  1
  Zr  Zr67  1  0.20718023  0.63155379  0.25781004  1
  Zr  Zr68  1  0.20836021  0.18261687  0.24587028  1
  Zr  Zr69  1  0.79142823  0.60373660  0.01999648  1
  Zr  Zr70  1  0.39566810  0.60510221  -0.01000102  1
  Zr  Zr71  1  0.39271334  0.78798915  0.25479433  1
  Zr  Zr72  1  0.30931298  0.89243826  0.63744845  1
  Zr  Zr73  1  0.79413880  0.20406828  0.25891758  1
  Zr  Zr74  1  0.60557135  0.79497221  0.24447150  1
  Zr  Zr75  1  0.19660093  0.39740412  0.74408106  1
  Zr  Zr76  1  0.20666688  0.39296130  0.25351998  1
  Zr  Zr77  1  0.08897875  0.51045481  0.14115018  1
  Zr  Zr78  1  0.00214851  0.20039022  0.25591366  1
  Zr  Zr79  1  -0.00220053  0.60419144  0.49423151  1
  Ta  Ta80  1  0.70106942  0.09322927  0.37319255  1
  Ta  Ta81  1  0.90908106  0.89740698  0.87632037  1
  Ta  Ta82  1  0.89138965  0.72527341  0.61277798  1
  Ta  Ta83  1  0.09223012  0.30631522  0.88347905  1
  Ta  Ta84  1  0.09567082  0.50589968  0.36128131  1
  Ta  Ta85  1  0.40468313  -0.00361424  0.76809397  1
  Ta  Ta86  1  0.09667816  0.11163178  0.62696787  1
  Ta  Ta87  1  0.40043288  0.60455846  0.50474644  1
  Ta  Ta88  1  0.50026244  0.49797686  0.37874788  1
  Ta  Ta89  1  -0.00606485  -0.00243529  0.73743861  1
  Ta  Ta90  1  0.71107627  0.68952593  0.86451814  1
  Ta  Ta91  1  0.59719986  0.38193421  0.00849935  1
  Ta  Ta92  1  0.50452281  0.69595073  0.85559063  1
  Ta  Ta93  1  0.00817658  -0.00304118  -0.00259557  1
  Ta  Ta94  1  -0.00524279  0.40362781  0.50639315  1
  Ta  Ta95  1  0.60044029  0.19262260  0.25999312  1
  Ta  Ta96  1  0.90195925  0.09333149  0.37951610  1
  Ta  Ta97  1  0.59738317  0.79335057  0.49712712  1
  Ta  Ta98  1  0.40149618  0.19223005  0.74640950  1
  Ta  Ta99  1  0.49198154  0.09135720  0.62660009  1
  Ta  Ta100  1  -0.01646563  0.62211024  0.25362700  1
  Ta  Ta101  1  0.19438946  0.41272419  -0.00150136  1
  Ta  Ta102  1  -0.00157274  0.41682775  -0.00021930  1
  Ta  Ta103  1  0.59914061  -0.00059941  0.25681548  1
  Ta  Ta104  1  0.81255005  0.79382979  -0.00552538  1
  Ta  Ta105  1  -0.01269458  0.19985243  0.50443576  1
  Ta  Ta106  1  0.10333382  0.09023182  0.11922650  1
  Ta  Ta107  1  0.79763176  0.39966823  0.01874303  1
  Ta  Ta108  1  0.29905295  0.28628014  0.61947292  1
  Ta  Ta109  1  0.40241057  -0.00220670  -0.01559978  1
  Ta  Ta110  1  0.09980149  0.29793201  0.61377844  1
  Ta  Ta111  1  0.51197807  0.27752675  0.87551879  1
  Ta  Ta112  1  0.39642428  0.81093396  -0.02193796  1
  Ta  Ta113  1  0.39497340  -0.00319770  0.25569249  1
  Ta  Ta114  1  0.49296561  0.69595125  0.64702143  1
  Ta  Ta115  1  -0.00433939  0.00258606  0.52042661  1
  Ta  Ta116  1  -0.00914408  0.61784547  0.01034898  1
  Ta  Ta117  1  0.60274360  0.17841018  0.49437006  1
  Ta  Ta118  1  0.18603755  0.60173170  -0.00179951  1
  Ta  Ta119  1  0.49731521  0.49124701  0.11870359  1
  Ti  Ti120  1  0.29056501  0.50614317  0.86804754  1
  Ti  Ti121  1  0.00264134  0.21100708  0.74622835  1
  Ti  Ti122  1  0.20476968  0.00542932  0.52327749  1
  Ti  Ti123  1  0.09841461  0.50135684  0.61953197  1
  Ti  Ti124  1  -0.00495224  0.20276192  -0.00059535  1
  Ti  Ti125  1  0.81737290  0.78297143  0.23858383  1
  Ti  Ti126  1  0.81357102  0.79844144  0.76051945  1
  Ti  Ti127  1  0.69625597  0.28707849  0.11970082  1
  Ti  Ti128  1  -0.00222756  0.80507756  0.74216868  1
  Ti  Ti129  1  0.49977363  0.49696409  0.62285690  1
  Ti  Ti130  1  0.80297131  0.40142918  0.50957130  1
  Ti  Ti131  1  0.19445402  0.80394845  -0.00817068  1
  Ti  Ti132  1  0.49712426  0.09385976  0.37653001  1
  Ti  Ti133  1  0.18731363  0.59257723  0.74556130  1
  Ti  Ti134  1  0.89216867  0.30091865  0.37937412  1
  Ti  Ti135  1  0.70537593  0.29338486  0.39122951  1
  Ti  Ti136  1  0.90181355  0.30002817  0.62259657  1
  Ti  Ti137  1  0.80556263  0.00207075  -0.01109141  1
  Ti  Ti138  1  0.29718060  0.89479159  0.37374811  1
  Ti  Ti139  1  0.41356664  0.19867486  0.00410610  1
  Ti  Ti140  1  0.80148285  -0.00687255  0.25521980  1
  Ti  Ti141  1  0.48871845  0.69217630  0.37363953  1
  Ti  Ti142  1  0.41383364  0.40404661  0.24811140  1
  Ti  Ti143  1  0.68784191  0.10360106  0.64298157  1
  Ti  Ti144  1  0.30054817  0.08927451  0.38151984  1
  Ti  Ti145  1  0.70137426  0.89494789  0.37047041  1
  Ti  Ti146  1  0.50017619  0.89190250  0.37145036  1
  Ti  Ti147  1  0.09582946  0.89852851  0.62328367  1
  Ti  Ti148  1  0.30436900  0.50092940  0.62826567  1
  Ti  Ti149  1  0.09839341  0.50222600  0.87607757  1
  Ti  Ti150  1  0.29178505  0.90392211  0.12751646  1
  Ti  Ti151  1  0.71209901  0.89351207  0.87221820  1
  Ti  Ti152  1  0.31450875  0.30320543  0.12519044  1
  Ti  Ti153  1  0.30656728  0.09140022  0.12037713  1
  Ti  Ti154  1  0.59870599  0.59123201  0.00539755  1
  Ti  Ti155  1  0.20719562  0.19292641  0.50701754  1
  Ti  Ti156  1  0.40004432  0.40950898  0.50408181  1
  Ti  Ti157  1  0.49432085  0.69349422  0.11795976  1
  Ti  Ti158  1  0.40648214  0.78965126  0.49940984  1
  Ti  Ti159  1  0.21090735  0.80650302  0.50599926  1
  Mo  Mo160  1  0.30616649  0.10421763  0.62909339  1
  Mo  Mo161  1  0.39911572  0.18516132  0.49880529  1
  Mo  Mo162  1  0.59027996  0.19758290  0.74205536  1
  Mo  Mo163  1  0.80412625  0.00070276  0.77107550  1
  Mo  Mo164  1  0.50472533  0.89171650  0.87436419  1
  Mo  Mo165  1  0.20107703  0.82821319  0.25395610  1
  Mo  Mo166  1  0.40076677  0.58879220  0.74937405  1
  Mo  Mo167  1  0.00492146  0.80515076  -0.00942078  1
  Mo  Mo168  1  0.90008138  0.50539748  0.61357340  1
  Mo  Mo169  1  0.79185762  0.21959677  0.74636650  1
  Mo  Mo170  1  0.70169929  0.30773243  0.88300947  1
  Mo  Mo171  1  0.49500643  0.10313728  0.88007458  1
  Mo  Mo172  1  0.80319652  0.20263283  0.00713893  1
  Mo  Mo173  1  0.40573839  0.80303565  0.76910696  1
  Mo  Mo174  1  0.59906770  0.19968969  0.00677517  1
  Mo  Mo175  1  0.80283789  0.19332088  0.48699787  1
  Mo  Mo176  1  0.90489071  0.49875003  0.13112382  1
  Mo  Mo177  1  0.69281193  0.49347650  0.61008197  1
  Mo  Mo178  1  0.11315759  0.90850882  0.11768819  1
  Mo  Mo179  1  0.00377758  0.80314244  0.25310792  1
  Mo  Mo180  1  0.78712205  0.80535143  0.50103345  1
  Mo  Mo181  1  0.61136410  0.79265998  0.76784745  1
  Mo  Mo182  1  0.79869233  0.61095811  0.73485333  1
  Mo  Mo183  1  0.29850163  0.90195318  0.86560590  1
  Mo  Mo184  1  0.21311241  0.00069371  0.24953575  1
  Mo  Mo185  1  0.89518789  0.70973520  0.87303724  1
  Mo  Mo186  1  0.30467839  0.71445377  0.38696800  1
  Mo  Mo187  1  0.79733301  0.39211900  0.23521087  1
  Mo  Mo188  1  0.18900025  0.80481998  0.74567652  1
  Mo  Mo189  1  0.68910228  0.48785935  0.11568869  1
  Mo  Mo190  1  0.19220911  0.20900925  0.74194870  1
  Mo  Mo191  1  0.90208573  0.90318880  0.63128937  1
  Mo  Mo192  1  -0.00382361  0.81149478  0.51029168  1
  Mo  Mo193  1  0.40793488  0.59687529  0.24595375  1
  Mo  Mo194  1  -0.00737341  0.40727538  0.25739054  1
  Mo  Mo195  1  0.89924442  0.70431947  0.12291206  1
  Mo  Mo196  1  0.60072258  0.40139700  0.50077018  1
  Mo  Mo197  1  0.50241752  0.29478695  0.12718583  1
  Mo  Mo198  1  0.68794269  0.70522662  0.11915690  1
  Mo  Mo199  1  0.89549026  0.69924736  0.37613740  1
