# generated using pymatgen
data_HfZrTaTiMo
_symmetry_space_group_name_H-M   'P 1'
_cell_length_a   15.19599481
_cell_length_b   15.20481840
_cell_length_c   16.79120577
_cell_angle_alpha   89.98820205
_cell_angle_beta   90.04056124
_cell_angle_gamma   89.95789111
_symmetry_Int_Tables_number   1
_chemical_formula_structural   HfZrTaTiMo
_chemical_formula_sum   'Hf40 Zr40 Ta40 Ti40 Mo40'
_cell_volume   3879.64530751
_cell_formula_units_Z   40
loop_
 _symmetry_equiv_pos_site_id
 _symmetry_equiv_pos_as_xyz
  1  'x, y, z'
loop_
 _atom_site_type_symbol
 _atom_site_label
 _atom_site_symmetry_multiplicity
 _atom_site_fract_x
 _atom_site_fract_y
 _atom_site_fract_z
 _atom_site_occupancy
  Hf  Hf0  1  0.90049455  0.69874717  0.36288274  1
  Hf  Hf1  1  0.00260721  0.60951284  0.73687447  1
  Hf  Hf2  1  0.78541471  0.39670036  -0.01453158  1
  Hf  Hf3  1  0.50554357  0.69359155  0.11244494  1
  Hf  Hf4  1  0.10610408  0.10906511  0.38711662  1
  Hf  Hf5  1  0.89985529  0.90421392  0.62923436  1
  Hf  Hf6  1  0.50139685  0.89769296  0.10484705  1
  Hf  Hf7  1  0.00670287  0.00282537  0.24927661  1
  Hf  Hf8  1  0.39658017  0.80111612  0.51779008  1
  Hf  Hf9  1  0.59424512  0.01750270  0.76719182  1
  Hf  Hf10  1  0.50214855  0.70247012  0.64474179  1
  Hf  Hf11  1  0.10462277  0.49493615  0.38702666  1
  Hf  Hf12  1  0.88528491  0.30836684  0.63681071  1
  Hf  Hf13  1  0.68458364  0.09730374  0.62128123  1
  Hf  Hf14  1  0.29938623  0.70469525  0.11659212  1
  Hf  Hf15  1  0.10455845  0.09428774  0.62370602  1
  Hf  Hf16  1  0.79496899  0.59449569  0.24398885  1
  Hf  Hf17  1  0.60222976  0.59578224  0.50759229  1
  Hf  Hf18  1  0.39782250  0.79343025  -0.02654833  1
  Hf  Hf19  1  0.70256246  0.48290451  0.37251782  1
  Hf  Hf20  1  0.68551620  0.48993628  0.85404481  1
  Hf  Hf21  1  0.10760817  0.31587359  0.87082897  1
  Hf  Hf22  1  0.39315270  0.80995425  0.76556173  1
  Hf  Hf23  1  0.00488609  0.00022394  0.75206753  1
  Hf  Hf24  1  0.31430669  0.30707195  0.12568811  1
  Hf  Hf25  1  0.00999359  0.39323453  0.24307380  1
  Hf  Hf26  1  0.30320821  0.10358927  0.37641431  1
  Hf  Hf27  1  0.30795855  0.89563550  0.37341802  1
  Hf  Hf28  1  0.20216139  0.01414982  0.24566998  1
  Hf  Hf29  1  0.00062648  0.41704193  0.73987459  1
  Hf  Hf30  1  0.79635226  -0.00151660  0.49778570  1
  Hf  Hf31  1  0.90352342  0.49169094  0.11662080  1
  Hf  Hf32  1  0.70963971  0.09541644  0.11488376  1
  Hf  Hf33  1  0.09883820  0.90574559  0.10703934  1
  Hf  Hf34  1  0.60528304  0.81145950  0.76285381  1
  Hf  Hf35  1  0.89801862  0.90520517  0.12783755  1
  Hf  Hf36  1  -0.00012714  0.20050317  0.75509397  1
  Hf  Hf37  1  0.41076140  0.19102159  0.75397648  1
  Hf  Hf38  1  0.90607893  0.49159945  0.36973979  1
  Hf  Hf39  1  0.68940570  0.30005119  0.11905165  1
  Zr  Zr40  1  0.09337605  0.29425148  0.62137805  1
  Zr  Zr41  1  0.60052235  0.18996695  0.25077612  1
  Zr  Zr42  1  0.70742057  0.69532329  0.63589196  1
  Zr  Zr43  1  0.29499292  0.10298736  0.11181789  1
  Zr  Zr44  1  0.60010287  -0.00952410  0.24340986  1
  Zr  Zr45  1  0.20074341  0.60088927  0.25227985  1
  Zr  Zr46  1  0.18854010  0.79093051  -0.02597739  1
  Zr  Zr47  1  0.39134746  0.59175310  -0.01557042  1
  Zr  Zr48  1  0.90207543  0.89550203  0.36031065  1
  Zr  Zr49  1  0.59574093  0.59327828  0.24933315  1
  Zr  Zr50  1  0.78813095  0.21530857  0.49204956  1
  Zr  Zr51  1  0.49792581  0.09812187  0.38545736  1
  Zr  Zr52  1  0.39878002  0.40356810  0.52427579  1
  Zr  Zr53  1  0.00701035  0.80060428  0.50862023  1
  Zr  Zr54  1  0.28707664  0.30449860  0.37569980  1
  Zr  Zr55  1  0.10459841  0.70207347  0.38159886  1
  Zr  Zr56  1  0.50850897  0.89933315  0.37897147  1
  Zr  Zr57  1  0.81150619  0.79362308  0.76255010  1
  Zr  Zr58  1  0.79913321  0.79608177  0.50012976  1
  Zr  Zr59  1  0.30736386  0.50308355  0.38059841  1
  Zr  Zr60  1  0.48916330  0.69902557  0.38156733  1
  Zr  Zr61  1  0.40305455  0.40065540  -0.01653341  1
  Zr  Zr62  1  0.40406704  0.59779797  0.24872619  1
  Zr  Zr63  1  0.70157089  0.88702687  0.11322842  1
  Zr  Zr64  1  -0.01105333  0.19918649  0.25932263  1
  Zr  Zr65  1  0.10246719  0.51870489  0.87690055  1
  Zr  Zr66  1  0.80144435  0.19259805  -0.01418184  1
  Zr  Zr67  1  0.90733169  0.28363638  0.11196487  1
  Zr  Zr68  1  0.30177451  0.90299222  0.10911713  1
  Zr  Zr69  1  0.79674670  0.59828231  -0.00474112  1
  Zr  Zr70  1  0.00225539  0.00342660  0.50082669  1
  Zr  Zr71  1  0.69232178  0.29306255  0.64964121  1
  Zr  Zr72  1  0.60032135  0.38625926  0.51419427  1
  Zr  Zr73  1  0.01536347  0.80625920  0.75199915  1
  Zr  Zr74  1  0.19685204  0.80747901  0.25036115  1
  Zr  Zr75  1  0.40239309  0.20204464  0.52273122  1
  Zr  Zr76  1  0.58583848  0.38880342  0.25116516  1
  Zr  Zr77  1  0.50077930  0.11097753  0.10339116  1
  Zr  Zr78  1  0.89838737  0.71007721  0.13024831  1
  Zr  Zr79  1  0.19796287  0.21473277  -0.00481218  1
  Ta  Ta80  1  0.40021622  -0.00272412  0.51565629  1
  Ta  Ta81  1  0.08133957  0.11705208  0.11086740  1
  Ta  Ta82  1  0.80508268  0.59154351  0.49886775  1
  Ta  Ta83  1  0.92015075  0.69264533  0.88403485  1
  Ta  Ta84  1  0.69793305  0.70132421  0.37654985  1
  Ta  Ta85  1  0.70477445  0.90252164  0.88616047  1
  Ta  Ta86  1  0.40338862  0.21142294  -0.02508429  1
  Ta  Ta87  1  0.19670733  0.40597969  0.52052598  1
  Ta  Ta88  1  0.20948147  0.60617089  0.51406550  1
  Ta  Ta89  1  0.09761309  0.70378257  0.12295218  1
  Ta  Ta90  1  0.29398947  0.10017837  0.87467892  1
  Ta  Ta91  1  0.20930824  0.80246891  0.50958075  1
  Ta  Ta92  1  0.40034302  0.20814214  0.24793101  1
  Ta  Ta93  1  0.79677196  -0.00041701  0.75858590  1
  Ta  Ta94  1  0.89027350  0.10803648  0.63132053  1
  Ta  Ta95  1  0.59521995  0.57929216  -0.00631295  1
  Ta  Ta96  1  0.69283735  0.09583710  0.38393017  1
  Ta  Ta97  1  0.90952401  0.90090284  0.88470191  1
  Ta  Ta98  1  0.80621064  0.79460700  -0.01235787  1
  Ta  Ta99  1  0.39014287  0.39882194  0.74095188  1
  Ta  Ta100  1  0.39767742  0.60301198  0.51521678  1
  Ta  Ta101  1  0.90244675  0.09620794  0.87219421  1
  Ta  Ta102  1  0.60579715  0.78862466  0.24638643  1
  Ta  Ta103  1  0.49321138  0.29926198  0.38064917  1
  Ta  Ta104  1  0.40360806  0.00384736  0.24106778  1
  Ta  Ta105  1  0.21091928  -0.00843797  0.50897474  1
  Ta  Ta106  1  0.18622765  0.21390235  0.23942675  1
  Ta  Ta107  1  0.69618011  0.90294355  0.63155115  1
  Ta  Ta108  1  0.71325380  0.49561398  0.64106832  1
  Ta  Ta109  1  0.30097490  0.50313367  0.12605775  1
  Ta  Ta110  1  0.20205728  -0.01093480  0.76007761  1
  Ta  Ta111  1  0.50298284  0.91541587  0.63299546  1
  Ta  Ta112  1  0.51355838  0.31304981  0.85511115  1
  Ta  Ta113  1  0.69316810  0.49357475  0.12226680  1
  Ta  Ta114  1  0.60205689  0.80722109  0.50970735  1
  Ta  Ta115  1  0.90495149  0.30529263  0.87293980  1
  Ta  Ta116  1  0.79983444  0.01616687  0.25380418  1
  Ta  Ta117  1  0.50954629  0.68661895  0.86227148  1
  Ta  Ta118  1  0.19482931  0.41721831  0.00964332  1
  Ta  Ta119  1  0.00848091  0.59866197  0.24112035  1
  Ti  Ti120  1  0.30158663  0.70010635  0.64416081  1
  Ti  Ti121  1  0.89399496  0.10666734  0.37934182  1
  Ti  Ti122  1  0.49689236  0.49234611  0.38330924  1
  Ti  Ti123  1  0.70440197  0.68874892  0.86979649  1
  Ti  Ti124  1  0.49368670  0.50415509  0.84970955  1
  Ti  Ti125  1  0.10542723  0.90279241  0.37775586  1
  Ti  Ti126  1  0.49608162  0.47666085  0.12065765  1
  Ti  Ti127  1  0.69891799  0.69385961  0.11691225  1
  Ti  Ti128  1  0.40683650  0.80312899  0.24530042  1
  Ti  Ti129  1  0.10997597  0.70672774  0.62334392  1
  Ti  Ti130  1  0.79500267  0.21542969  0.26353860  1
  Ti  Ti131  1  -0.00415315  0.01141147  -0.00191561  1
  Ti  Ti132  1  0.80083358  0.40373147  0.50192378  1
  Ti  Ti133  1  -0.01061965  0.40305662  0.50941665  1
  Ti  Ti134  1  0.20156177  0.40407634  0.23851270  1
  Ti  Ti135  1  -0.01538600  0.20708985  0.49913529  1
  Ti  Ti136  1  0.90879199  0.49728198  0.88501668  1
  Ti  Ti137  1  0.19793527  0.58428504  0.73123067  1
  Ti  Ti138  1  0.89846447  0.69497314  0.62148372  1
  Ti  Ti139  1  0.28917556  0.48243925  0.85783453  1
  Ti  Ti140  1  0.60138533  0.21065244  -0.02431926  1
  Ti  Ti141  1  0.09861847  0.09946153  0.88310409  1
  Ti  Ti142  1  0.20433190  0.20003906  0.50903828  1
  Ti  Ti143  1  0.00183888  0.59408582  0.51270239  1
  Ti  Ti144  1  0.09013947  0.30407630  0.38957072  1
  Ti  Ti145  1  0.60649657  0.78529383  -0.01563091  1
  Ti  Ti146  1  0.39414892  0.00617528  -0.01651395  1
  Ti  Ti147  1  0.81526280  0.58787725  0.75679265  1
  Ti  Ti148  1  0.39819896  -0.00140928  0.76171441  1
  Ti  Ti149  1  0.50576534  0.90908789  0.88858526  1
  Ti  Ti150  1  0.29126610  0.29587131  0.63923359  1
  Ti  Ti151  1  0.20387603  0.19814408  0.75774614  1
  Ti  Ti152  1  0.28827194  0.67576810  0.85898951  1
  Ti  Ti153  1  0.19887281  0.80356855  0.76221099  1
  Ti  Ti154  1  0.80314991  -0.00276768  -0.00578716  1
  Ti  Ti155  1  0.01802752  0.60344243  0.00813241  1
  Ti  Ti156  1  0.70202878  0.89533163  0.37019680  1
  Ti  Ti157  1  0.30327947  0.08649823  0.63772248  1
  Ti  Ti158  1  0.79146949  0.19077747  0.76775533  1
  Ti  Ti159  1  0.50124229  0.50597493  0.64481009  1
  Mo  Mo160  1  0.19387204  0.00679549  -0.01455444  1
  Mo  Mo161  1  0.59230797  0.19891885  0.49956093  1
  Mo  Mo162  1  0.10081037  0.69626370  0.86666463  1
  Mo  Mo163  1  0.89894563  0.09204945  0.12515756  1
  Mo  Mo164  1  0.39727634  0.39638796  0.25097559  1
  Mo  Mo165  1  0.80783768  0.40087597  0.76513938  1
  Mo  Mo166  1  0.20573081  0.59928662  0.00156173  1
  Mo  Mo167  1  0.00210722  0.39938990  -0.00119834  1
  Mo  Mo168  1  0.49858037  0.29424924  0.64475087  1
  Mo  Mo169  1  -0.00518545  0.79846833  -0.00431445  1
  Mo  Mo170  1  0.10308871  0.50610168  0.12070189  1
  Mo  Mo171  1  0.70352397  0.09326266  0.88351562  1
  Mo  Mo172  1  0.09762731  0.50684203  0.61190250  1
  Mo  Mo173  1  0.29856527  0.90016604  0.63813096  1
  Mo  Mo174  1  0.59362043  0.39924945  -0.00589218  1
  Mo  Mo175  1  0.60063799  -0.00805202  0.50383044  1
  Mo  Mo176  1  0.19699988  0.39714741  0.73340608  1
  Mo  Mo177  1  0.00717500  0.79700931  0.24794223  1
  Mo  Mo178  1  0.10362544  0.30648636  0.11946157  1
  Mo  Mo179  1  0.89509447  0.31133286  0.37781786  1
  Mo  Mo180  1  0.60518432  0.60320770  0.74537111  1
  Mo  Mo181  1  0.80045550  0.38941377  0.24689558  1
  Mo  Mo182  1  0.59167564  0.40070660  0.73458129  1
  Mo  Mo183  1  0.49947038  0.09683632  0.62640467  1
  Mo  Mo184  1  0.29855379  0.90735180  0.87765730  1
  Mo  Mo185  1  0.69153318  0.29397640  0.37630124  1
  Mo  Mo186  1  0.49826443  0.29423035  0.11437217  1
  Mo  Mo187  1  0.29934864  0.30451113  0.85948801  1
  Mo  Mo188  1  0.30144761  0.50661403  0.63100044  1
  Mo  Mo189  1  0.39259901  0.59958450  0.75565248  1
  Mo  Mo190  1  0.60403079  0.00263183  -0.01213920  1
  Mo  Mo191  1  0.60159122  0.19629564  0.76749238  1
  Mo  Mo192  1  0.00035218  0.20160305  -0.01548810  1
  Mo  Mo193  1  0.78620454  0.80297671  0.25281898  1
  Mo  Mo194  1  0.09694500  0.91168126  0.88694781  1
  Mo  Mo195  1  0.49705447  0.10212996  0.89050095  1
  Mo  Mo196  1  0.11824887  0.89916647  0.62723593  1
  Mo  Mo197  1  0.89218113  0.50665929  0.61968312  1
  Mo  Mo198  1  0.30364324  0.70282658  0.38841074  1
  Mo  Mo199  1  0.70058115  0.29825323  0.85851808  1
