# generated using pymatgen
data_Ba51Fe51Bi26
_symmetry_space_group_name_H-M   'P 1'
_cell_length_a   16.34450211
_cell_length_b   16.57740139
_cell_length_c   15.81350762
_cell_angle_alpha   88.15744137
_cell_angle_beta   93.27974898
_cell_angle_gamma   89.69226056
_symmetry_Int_Tables_number   1
_chemical_formula_structural   Ba51Fe51Bi26
_chemical_formula_sum   'Ba51 Fe51 Bi26'
_cell_volume   4275.31874541
_cell_formula_units_Z   1
loop_
 _symmetry_equiv_pos_site_id
 _symmetry_equiv_pos_as_xyz
  1  'x, y, z'
loop_
 _atom_site_type_symbol
 _atom_site_label
 _atom_site_symmetry_multiplicity
 _atom_site_fract_x
 _atom_site_fract_y
 _atom_site_fract_z
 _atom_site_occupancy
  Ba  Ba0  1  0.26336217  0.42699984  0.59018269  1
  Ba  Ba1  1  0.69305063  0.82336372  -0.01784683  1
  Ba  Ba2  1  0.50648635  0.50986607  0.54878114  1
  Ba  Ba3  1  0.04254663  -0.16282492  0.57872000  1
  Ba  Ba4  1  0.24419694  0.50763586  0.84602852  1
  Ba  Ba5  1  0.30623077  0.76302514  0.80165755  1
  Ba  Ba6  1  0.27526445  0.72566922  0.25601757  1
  Ba  Ba7  1  0.09705842  0.55940949  0.46396664  1
  Ba  Ba8  1  0.13868545  0.05688696  0.48025763  1
  Ba  Ba9  1  0.74573656  0.53777366  0.54879221  1
  Ba  Ba10  1  0.49367454  0.25570383  0.49064970  1
  Ba  Ba11  1  0.01256233  0.51600783  0.69051092  1
  Ba  Ba12  1  0.72325120  0.06241544  -0.08834069  1
  Ba  Ba13  1  0.04053658  0.75211866  0.81765778  1
  Ba  Ba14  1  0.49085462  0.33316904  0.77185084  1
  Ba  Ba15  1  0.76285965  0.30471526  0.69649208  1
  Ba  Ba16  1  0.47230986  -0.04536275  -0.04402603  1
  Ba  Ba17  1  -0.04597213  0.35937778  -0.11225730  1
  Ba  Ba18  1  0.25333896  0.45836759  0.28043410  1
  Ba  Ba19  1  0.01201443  0.78909860  0.36294694  1
  Ba  Ba20  1  0.00470593  0.00172726  0.73010547  1
  Ba  Ba21  1  0.40754525  -0.03217489  0.36207057  1
  Ba  Ba22  1  0.78129919  0.61500896  0.07017308  1
  Ba  Ba23  1  0.18358915  -0.06106120  0.16849879  1
  Ba  Ba24  1  0.77028458  0.80988148  0.26654510  1
  Ba  Ba25  1  -0.02238859  0.44949138  0.14687982  1
  Ba  Ba26  1  0.74789009  0.24651009  0.19155111  1
  Ba  Ba27  1  0.46213825  0.70012632  0.02195767  1
  Ba  Ba28  1  0.02047742  0.23575803  0.66129422  1
  Ba  Ba29  1  0.41996072  -0.04038254  0.68174144  1
  Ba  Ba30  1  -0.08214958  0.18177250  0.04693250  1
  Ba  Ba31  1  0.47742794  0.56735818  0.30664105  1
  Ba  Ba32  1  0.77598635  0.02942788  0.66706388  1
  Ba  Ba33  1  0.67921688  0.37062891  0.38052041  1
  Ba  Ba34  1  0.88080054  0.55071206  0.34007242  1
  Ba  Ba35  1  0.19998569  0.18575791  0.22492777  1
  Ba  Ba36  1  0.57104762  0.78120570  0.40906557  1
  Ba  Ba37  1  0.81224326  0.64824367  0.79752640  1
  Ba  Ba38  1  0.55151602  0.47088695  0.12136027  1
  Ba  Ba39  1  0.16296237  0.65751856  0.03593234  1
  Ba  Ba40  1  0.58740324  0.56475280  0.83908651  1
  Ba  Ba41  1  0.59509265  0.02402194  0.18856142  1
  Ba  Ba42  1  0.20321323  0.38320950  0.04696040  1
  Ba  Ba43  1  0.31071303  0.19676690  -0.03361630  1
  Ba  Ba44  1  -0.02554157  -0.02750499  -0.02475517  1
  Ba  Ba45  1  0.54755492  0.22998614  0.02308681  1
  Ba  Ba46  1  0.40503794  0.72832554  0.59270924  1
  Ba  Ba47  1  -0.05871883  0.04358399  0.29393561  1
  Ba  Ba48  1  0.73958854  -0.01361092  0.43451151  1
  Ba  Ba49  1  0.21700440  -0.00427536  -0.09995292  1
  Ba  Ba50  1  0.28527291  0.16994276  0.67517312  1
  Fe  Fe51  1  0.44487173  0.16291489  0.29618370  1
  Fe  Fe52  1  0.71189657  0.80928135  0.71707264  1
  Fe  Fe53  1  0.06343710  0.34320511  0.50809492  1
  Fe  Fe54  1  0.10252264  0.23275532  -0.01338187  1
  Fe  Fe55  1  0.41214185  0.88853996  0.15240014  1
  Fe  Fe56  1  0.01614487  0.79882791  1.04005487  1
  Fe  Fe57  1  0.52443483  0.26077879  0.23449340  1
  Fe  Fe58  1  0.09912554  0.25176214  0.38301528  1
  Fe  Fe59  1  0.60826882  0.89984937  0.65230567  1
  Fe  Fe60  1  0.05825311  0.76855200  0.17088858  1
  Fe  Fe61  1  0.78400219  0.72159124  0.61099504  1
  Fe  Fe62  1  0.75355749  0.71680733  0.45911419  1
  Fe  Fe63  1  0.63273830  0.16647812  0.63776268  1
  Fe  Fe64  1  0.83812378  0.23758043  0.51937835  1
  Fe  Fe65  1  0.87289008  0.80032147  0.08183737  1
  Fe  Fe66  1  0.36245933  0.28051377  0.30274237  1
  Fe  Fe67  1  0.93022881  0.72027695  0.19321693  1
  Fe  Fe68  1  0.25126835  0.29701083  0.40376566  1
  Fe  Fe69  1  0.69140717  0.40186397  1.03103201  1
  Fe  Fe70  1  0.62072587  0.18218230  0.78012550  1
  Fe  Fe71  1  0.75856290  0.44248571  0.15312971  1
  Fe  Fe72  1  0.91013870  0.73749320  0.96500876  1
  Fe  Fe73  1  0.21516988  0.72915183  0.49010732  1
  Fe  Fe74  1  0.39670659  0.23122507  0.16679919  1
  Fe  Fe75  1  0.65001094  0.91468193  0.78898350  1
  Fe  Fe76  1  0.46624573  0.36257953  0.28250215  1
  Fe  Fe77  1  0.83938196  0.81788301  0.50012227  1
  Fe  Fe78  1  0.50310444  0.14762699  0.67527529  1
  Fe  Fe79  1  0.69026328  0.62268329  0.35691909  1
  Fe  Fe80  1  0.17582211  0.25521036  0.50837463  1
  Fe  Fe81  1  0.70574672  0.83238202  0.56176502  1
  Fe  Fe82  1  0.81149720  0.17770137  0.39843816  1
  Fe  Fe83  1  0.69959103  0.53507669  0.25502933  1
  Fe  Fe84  1  0.59478825  1.03908557  0.72948877  1
  Fe  Fe85  1  0.14221348  0.38018471  0.40785251  1
  Fe  Fe86  1  0.84457453  0.83714944  0.64994620  1
  Fe  Fe87  1  0.46186455  0.78644566  0.23021640  1
  Fe  Fe88  1  0.78824889  0.45656618  0.96337520  1
  Fe  Fe89  1  0.11863431  0.10832312  0.02431201  1
  Fe  Fe90  1  0.55056823  0.84204527  0.15562762  1
  Fe  Fe91  1  0.97489099  0.66682278  1.08136427  1
  Fe  Fe92  1  0.86701774  0.30930712  0.37502513  1
  Fe  Fe93  1  0.07573016  0.15162250  0.88228933  1
  Fe  Fe94  1  0.70966725  0.17902177  0.51226346  1
  Fe  Fe95  1  -0.03705783  0.86829694  0.16489578  1
  Fe  Fe96  1  0.23786532  0.83229560  0.56607903  1
  Fe  Fe97  1  0.82834213  0.36389142  0.05499640  1
  Fe  Fe98  1  0.39113462  0.36316288  1.15336510  1
  Fe  Fe99  1  0.97008137  0.23288536  0.44520872  1
  Fe  Fe100  1  0.50616850  0.12337929  0.81200034  1
  Fe  Fe101  1  -0.00278378  0.37062911  0.37138646  1
  Bi  Bi102  1  -0.02706142  0.24918169  0.25421120  1
  Bi  Bi103  1  0.72865050  0.28562960  -0.08212975  1
  Bi  Bi104  1  0.61496312  0.68249672  0.19413118  1
  Bi  Bi105  1  0.62510363  0.16234764  0.35020034  1
  Bi  Bi106  1  -0.08038198  0.66499651  0.53497057  1
  Bi  Bi107  1  0.53512938  0.79521426  0.80984341  1
  Bi  Bi108  1  -0.09796583  0.39698746  0.52657374  1
  Bi  Bi109  1  0.07626586  0.61532623  0.24224290  1
  Bi  Bi110  1  0.83964674  0.86797028  0.82641673  1
  Bi  Bi111  1  0.56405744  0.04051364  0.54500647  1
  Bi  Bi112  1  0.21018715  0.87640860  0.39380176  1
  Bi  Bi113  1  0.38061154  0.06310976  0.14636185  1
  Bi  Bi114  1  0.32133796  0.14982208  0.43034019  1
  Bi  Bi115  1  0.92416931  0.08332745  0.51804028  1
  Bi  Bi116  1  -0.02806101  0.57222741  0.93824662  1
  Bi  Bi117  1  0.81615392  -0.03176528  0.11746765  1
  Bi  Bi118  1  0.16222064  0.30021402  0.82579746  1
  Bi  Bi119  1  0.29802606  0.83214453  0.02463127  1
  Bi  Bi120  1  0.31497940  0.59527270  0.44328387  1
  Bi  Bi121  1  0.20551402  0.95245966  0.68252451  1
  Bi  Bi122  1  0.40480948  0.54670778  0.72647669  1
  Bi  Bi123  1  0.40816488  0.39111730  0.96789141  1
  Bi  Bi124  1  0.90414349  0.15360749  0.82550636  1
  Bi  Bi125  1  0.62132629  0.68848898  0.62557342  1
  Bi  Bi126  1  0.34217926  0.54304117  0.10794946  1
  Bi  Bi127  1  0.17393359  0.66775165  0.65236020  1
