# generated using pymatgen
data_Ba51Fe51Bi26
_symmetry_space_group_name_H-M   'P 1'
_cell_length_a   16.85904348
_cell_length_b   16.29480844
_cell_length_c   16.09294032
_cell_angle_alpha   88.28800091
_cell_angle_beta   89.99531116
_cell_angle_gamma   89.99645380
_symmetry_Int_Tables_number   1
_chemical_formula_structural   Ba51Fe51Bi26
_chemical_formula_sum   'Ba51 Fe51 Bi26'
_cell_volume   4418.99680090
_cell_formula_units_Z   1
loop_
 _symmetry_equiv_pos_site_id
 _symmetry_equiv_pos_as_xyz
  1  'x, y, z'
loop_
 _atom_site_type_symbol
 _atom_site_label
 _atom_site_symmetry_multiplicity
 _atom_site_fract_x
 _atom_site_fract_y
 _atom_site_fract_z
 _atom_site_occupancy
  Ba  Ba0  1  0.80980958  0.08447764  -0.11887685  1
  Ba  Ba1  1  0.03813639  0.00987866  0.18584764  1
  Ba  Ba2  1  0.26395697  0.60142468  0.57877062  1
  Ba  Ba3  1  0.10536534  0.40074844  0.56613685  1
  Ba  Ba4  1  0.58742292  0.21521545  0.29149797  1
  Ba  Ba5  1  0.78724553  0.06451184  0.18485742  1
  Ba  Ba6  1  0.00394168  0.25879529  0.24136547  1
  Ba  Ba7  1  0.84461564  0.66719288  0.69704677  1
  Ba  Ba8  1  0.02693168  -0.10019341  0.46371858  1
  Ba  Ba9  1  0.37365465  0.52815403  0.80959885  1
  Ba  Ba10  1  0.71319050  0.35078159  0.45879703  1
  Ba  Ba11  1  0.92017298  0.46561466  0.41328963  1
  Ba  Ba12  1  0.41491049  0.56161086  0.06976123  1
  Ba  Ba13  1  0.36236001  0.78045537  0.18175431  1
  Ba  Ba14  1  0.18182096  0.75295936  0.31820888  1
  Ba  Ba15  1  0.77901030  0.20748858  0.65216837  1
  Ba  Ba16  1  0.51906146  0.80197879  0.36879650  1
  Ba  Ba17  1  0.32373666  0.23394215  0.82333530  1
  Ba  Ba18  1  0.01586336  0.55423150  0.20576144  1
  Ba  Ba19  1  0.66799219  -0.11996784  0.69560281  1
  Ba  Ba20  1  0.33449060  0.45282162  0.33751558  1
  Ba  Ba21  1  0.40991862  0.03544356  0.19769892  1
  Ba  Ba22  1  0.31200533  0.31064811  0.56810661  1
  Ba  Ba23  1  0.12190068  0.49536902  0.00067945  1
  Ba  Ba24  1  0.65703511  0.45343690  0.76017143  1
  Ba  Ba25  1  0.89981085  0.43323376  0.68879053  1
  Ba  Ba26  1  0.60650229  0.58405413  0.28509780  1
  Ba  Ba27  1  0.53994701  0.32579459  0.00750916  1
  Ba  Ba28  1  0.61303530  0.03083544  0.03784870  1
  Ba  Ba29  1  0.74046160  0.77885864  -0.04364461  1
  Ba  Ba30  1  0.22905303  0.72176690  -0.05460535  1
  Ba  Ba31  1  0.77751641  0.05239821  0.45221344  1
  Ba  Ba32  1  0.24041698  0.06691202  0.49094591  1
  Ba  Ba33  1  0.65376650  0.54298715  0.01069956  1
  Ba  Ba34  1  0.15947362  0.40746214  0.79629247  1
  Ba  Ba35  1  0.73261780  0.80760771  0.19751721  1
  Ba  Ba36  1  0.49776003  0.01413661  0.48245634  1
  Ba  Ba37  1  0.02520102  0.02974904  0.69173442  1
  Ba  Ba38  1  0.27165100  -0.00747248  0.92320286  1
  Ba  Ba39  1  0.21077802  0.82113799  0.71195188  1
  Ba  Ba40  1  -0.12746853  0.51445951  -0.08103292  1
  Ba  Ba41  1  -0.00014219  0.23962993  0.84950304  1
  Ba  Ba42  1  -0.08453889  0.84606240  0.82299895  1
  Ba  Ba43  1  0.58247368  0.19919983  -0.19143798  1
  Ba  Ba44  1  0.02016316  0.65943921  0.52332555  1
  Ba  Ba45  1  0.78603573  0.44221489  0.19922028  1
  Ba  Ba46  1  0.52462385  0.64058490  0.62727090  1
  Ba  Ba47  1  0.46339329  -0.01148394  0.78249468  1
  Ba  Ba48  1  0.78496294  0.73931759  0.44722949  1
  Ba  Ba49  1  -0.00152603  0.78083807  0.08696628  1
  Ba  Ba50  1  0.36441979  0.26699338  0.17728294  1
  Fe  Fe51  1  0.16445833  0.60911190  0.77387383  1
  Fe  Fe52  1  0.57791114  0.82943836  0.03462615  1
  Fe  Fe53  1  0.69689249  0.27190456  0.12235202  1
  Fe  Fe54  1  0.37653684  0.73122734  0.76851483  1
  Fe  Fe55  1  0.49145609  0.78878487  0.75661117  1
  Fe  Fe56  1  -0.00334713  0.24951010  0.62974278  1
  Fe  Fe57  1  0.44797984  0.75046023  1.00152321  1
  Fe  Fe58  1  0.05524450  0.70328977  0.72100924  1
  Fe  Fe59  1  0.58426114  0.53312273  0.48024422  1
  Fe  Fe60  1  0.13292301  0.36249429  0.37074663  1
  Fe  Fe61  1  0.16079555  0.43510881  0.23796785  1
  Fe  Fe62  1  0.74577412  0.36447378  0.02259953  1
  Fe  Fe63  1  1.05957455  0.55570398  0.69172935  1
  Fe  Fe64  1  0.72570282  0.20681192  0.00793614  1
  Fe  Fe65  1  0.59920352  0.28067451  0.62009461  1
  Fe  Fe66  1  0.06869813  0.26470272  1.04217027  1
  Fe  Fe67  1  0.19306277  0.29461033  0.25371472  1
  Fe  Fe68  1  0.17791574  0.33814961  0.10968601  1
  Fe  Fe69  1  0.23331251  0.96388409  0.24045802  1
  Fe  Fe70  1  0.84894179  0.28332421  0.96766110  1
  Fe  Fe71  1  0.93797842  0.16021021  0.54224095  1
  Fe  Fe72  1  1.01471139  0.28136078  0.45112042  1
  Fe  Fe73  1  0.16663525  0.19250119  0.12946415  1
  Fe  Fe74  1  0.73520095  0.30325373  0.90154683  1
  Fe  Fe75  1  1.04040154  0.58510814  0.81711692  1
  Fe  Fe76  1  0.53879557  0.85751548  0.16226350  1
  Fe  Fe77  1  0.39227322  0.81570228  0.87268317  1
  Fe  Fe78  1  0.58457071  0.19366480  0.49803611  1
  Fe  Fe79  1  0.26199480  0.43906441  0.14848485  1
  Fe  Fe80  1  0.26034472  0.27177266  0.37817001  1
  Fe  Fe81  1  0.18895515  0.26928461  0.98026846  1
  Fe  Fe82  1  0.84238243  0.63124419  0.27314348  1
  Fe  Fe83  1  0.07840084  0.18455457  0.53593183  1
  Fe  Fe84  1  0.54718293  0.72063729  0.11767694  1
  Fe  Fe85  1  0.00782345  0.80974961  0.65015672  1
  Fe  Fe86  1  0.59407025  0.12902976  0.61784685  1
  Fe  Fe87  1  0.82641163  0.26169726  0.11009885  1
  Fe  Fe88  1  0.47814568  0.19381020  0.60673704  1
  Fe  Fe89  1  0.58214638  0.42573385  0.57580889  1
  Fe  Fe90  1  0.56670384  0.70035534  0.96983525  1
  Fe  Fe91  1  0.13958602  0.22205169  0.40221304  1
  Fe  Fe92  1  0.27137672  0.16528284  1.03671813  1
  Fe  Fe93  1  0.88344953  0.23234227  0.43587377  1
  Fe  Fe94  1  0.46908152  0.68229275  0.86831779  1
  Fe  Fe95  1  0.53947869  0.82260648  0.88763109  1
  Fe  Fe96  1  0.22559413  1.05107539  0.12667698  1
  Fe  Fe97  1  0.50154444  0.31775052  0.51218220  1
  Fe  Fe98  1  0.45380658  0.46666572  0.53879731  1
  Fe  Fe99  1  0.99392929  1.00494245  0.95695496  1
  Fe  Fe100  1  0.51885199  0.43587371  0.42131280  1
  Fe  Fe101  1  0.91050889  0.30930180  0.54336934  1
  Bi  Bi102  1  0.47128348  0.36502322  0.69951498  1
  Bi  Bi103  1  0.63278452  0.67717059  0.80798178  1
  Bi  Bi104  1  0.79449791  0.24534285  0.28963823  1
  Bi  Bi105  1  0.21622160  0.12611871  0.28194732  1
  Bi  Bi106  1  -0.06816743  0.15317864  0.04398816  1
  Bi  Bi107  1  0.15409265  0.20836952  0.68851043  1
  Bi  Bi108  1  0.44041755  -0.08586258  0.01165277  1
  Bi  Bi109  1  -0.03517856  0.73077812  0.32015399  1
  Bi  Bi110  1  -0.05417986  0.38001268  0.06469772  1
  Bi  Bi111  1  0.31080819  0.38980196  -0.01431069  1
  Bi  Bi112  1  0.41485573  0.20453331  0.41644603  1
  Bi  Bi113  1  0.01030023  0.10446849  0.40251288  1
  Bi  Bi114  1  0.22450584  0.60380015  0.15813956  1
  Bi  Bi115  1  0.60212758  -0.01870816  0.27247189  1
  Bi  Bi116  1  0.43516088  0.14338046  -0.01864706  1
  Bi  Bi117  1  0.86019666  0.93222077  0.03038610  1
  Bi  Bi118  1  0.11984736  0.11198071  0.98043822  1
  Bi  Bi119  1  0.44017208  0.60845126  0.42819371  1
  Bi  Bi120  1  0.19010002  0.87733841  0.10615536  1
  Bi  Bi121  1  0.73148360  0.53971686  0.56173618  1
  Bi  Bi122  1  0.87118485  0.90868687  0.31970974  1
  Bi  Bi123  1  0.82794540  0.63536891  0.10253373  1
  Bi  Bi124  1  0.09571248  0.89441867  0.88455385  1
  Bi  Bi125  1  0.14155252  0.53394414  0.39327632  1
  Bi  Bi126  1  0.33470424  0.90758788  0.36723681  1
  Bi  Bi127  1  0.86299800  0.87591621  0.60569940  1
