# generated using pymatgen
data_Ba51Fe51Bi26
_symmetry_space_group_name_H-M   'P 1'
_cell_length_a   16.96089592
_cell_length_b   16.28340935
_cell_length_c   15.77093930
_cell_angle_alpha   89.57990264
_cell_angle_beta   91.37075179
_cell_angle_gamma   88.76925592
_symmetry_Int_Tables_number   1
_chemical_formula_structural   Ba51Fe51Bi26
_chemical_formula_sum   'Ba51 Fe51 Bi26'
_cell_volume   4353.25199378
_cell_formula_units_Z   1
loop_
 _symmetry_equiv_pos_site_id
 _symmetry_equiv_pos_as_xyz
  1  'x, y, z'
loop_
 _atom_site_type_symbol
 _atom_site_label
 _atom_site_symmetry_multiplicity
 _atom_site_fract_x
 _atom_site_fract_y
 _atom_site_fract_z
 _atom_site_occupancy
  Ba  Ba0  1  0.50159882  0.50637689  0.49243310  1
  Ba  Ba1  1  -0.13621401  0.10469491  0.22498057  1
  Ba  Ba2  1  0.50561320  0.27590469  0.57351404  1
  Ba  Ba3  1  0.24535786  0.23577008  0.66263886  1
  Ba  Ba4  1  0.35638779  0.71585999  -0.01418187  1
  Ba  Ba5  1  0.55245074  0.80494815  0.78307839  1
  Ba  Ba6  1  0.19816555  0.31480222  -0.07318359  1
  Ba  Ba7  1  0.26544243  0.77481119  0.71088410  1
  Ba  Ba8  1  0.27679856  0.04428264  -0.00401407  1
  Ba  Ba9  1  0.49621030  -0.06021359  0.07093315  1
  Ba  Ba10  1  -0.02757215  0.34593021  0.21948885  1
  Ba  Ba11  1  0.77772706  0.49367920  0.62266755  1
  Ba  Ba12  1  0.70933194  0.73271369  0.01419274  1
  Ba  Ba13  1  0.57125764  0.20087903  0.91810236  1
  Ba  Ba14  1  -0.06903465  0.04007772  0.48925462  1
  Ba  Ba15  1  0.55012371  0.43450604  0.27542152  1
  Ba  Ba16  1  -0.07283080  0.36595669  0.47767266  1
  Ba  Ba17  1  0.15639448  0.04419291  0.49920354  1
  Ba  Ba18  1  0.19217491  0.26742346  0.38040407  1
  Ba  Ba19  1  0.27837947  0.52389288  0.38429327  1
  Ba  Ba20  1  0.74873427  0.18462008  0.57153095  1
  Ba  Ba21  1  0.66421797  0.65993102  0.43648677  1
  Ba  Ba22  1  0.46295946  0.72797080  0.29363454  1
  Ba  Ba23  1  0.46216978  0.15041876  0.25890393  1
  Ba  Ba24  1  0.04780230  -0.01319136  -0.08883064  1
  Ba  Ba25  1  0.08342852  0.70144528  -0.06242154  1
  Ba  Ba26  1  -0.01490393  0.29284868  -0.02252369  1
  Ba  Ba27  1  0.00296444  0.35057929  0.72277128  1
  Ba  Ba28  1  0.79325148  0.50426043  0.27140829  1
  Ba  Ba29  1  0.25245972  0.81482109  0.41859526  1
  Ba  Ba30  1  0.55260128  0.05158988  0.49612008  1
  Ba  Ba31  1  0.00101156  -0.07283675  0.13892350  1
  Ba  Ba32  1  0.01592834  0.74884865  0.49161513  1
  Ba  Ba33  1  0.75243717  -0.04434013  0.05438097  1
  Ba  Ba34  1  0.67263064  0.48591602  0.83682036  1
  Ba  Ba35  1  0.81800779  0.80293657  0.30588933  1
  Ba  Ba36  1  0.23680478  0.03116237  0.25203093  1
  Ba  Ba37  1  0.82727796  -0.01335473  0.79209780  1
  Ba  Ba38  1  0.42312495  0.45996781  -0.07045952  1
  Ba  Ba39  1  0.22338344  0.01623033  0.74635531  1
  Ba  Ba40  1  -0.09977495  0.59353473  0.05485587  1
  Ba  Ba41  1  0.63086319  0.48232914  0.07177628  1
  Ba  Ba42  1  0.75445557  -0.13058869  0.56725472  1
  Ba  Ba43  1  0.29296131  0.39284962  0.16563474  1
  Ba  Ba44  1  0.46270147  0.04714448  0.73852882  1
  Ba  Ba45  1  0.79944488  0.24604165  0.82771394  1
  Ba  Ba46  1  0.83691660  0.69329292  0.77272795  1
  Ba  Ba47  1  0.69172487  0.22649246  0.31319577  1
  Ba  Ba48  1  0.23820252  0.50193290  0.74831137  1
  Ba  Ba49  1  0.47942064  0.83457273  0.53571612  1
  Ba  Ba50  1  0.20604566  0.67187015  0.18114442  1
  Fe  Fe51  1  0.61931927  -0.01692260  0.26812831  1
  Fe  Fe52  1  0.09556313  0.59844904  0.35025109  1
  Fe  Fe53  1  0.39852931  0.62220094  0.72531842  1
  Fe  Fe54  1  0.35203136  0.14515090  0.43916402  1
  Fe  Fe55  1  0.64193637  0.98295876  0.68269753  1
  Fe  Fe56  1  0.95206355  0.57424338  0.59496580  1
  Fe  Fe57  1  0.35120304  1.00753029  0.44399742  1
  Fe  Fe58  1  0.07939306  0.55325102  0.09421427  1
  Fe  Fe59  1  0.09626203  0.17763630  0.80966904  1
  Fe  Fe60  1  1.04600341  0.03351105  0.31973264  1
  Fe  Fe61  1  0.73886903  0.17444813  1.03172301  1
  Fe  Fe62  1  0.09465938  0.44860032  0.37916910  1
  Fe  Fe63  1  0.07404166  0.53900893  0.64698571  1
  Fe  Fe64  1  1.01352820  0.58132570  0.22217352  1
  Fe  Fe65  1  0.59878855  0.60711598  0.65962015  1
  Fe  Fe66  1  1.04801604  0.54533534  0.48826402  1
  Fe  Fe67  1  0.66968516  0.26843909  0.11094192  1
  Fe  Fe68  1  0.63691264  0.64019413  0.20927898  1
  Fe  Fe69  1  0.98156545  0.51511162  0.34504042  1
  Fe  Fe70  1  0.65357952  0.10275891  0.72725194  1
  Fe  Fe71  1  0.95254931  0.54502835  0.73014051  1
  Fe  Fe72  1  0.61951552  0.88682985  0.36461839  1
  Fe  Fe73  1  0.42700479  0.15612084  1.03645837  1
  Fe  Fe74  1  0.72953158  0.32379705  0.99436206  1
  Fe  Fe75  1  0.02249596  0.17230840  0.36703411  1
  Fe  Fe76  1  0.10181839  0.42573824  0.08979526  1
  Fe  Fe77  1  0.08948025  0.87906252  0.62121872  1
  Fe  Fe78  1  0.05508031  0.48330151  0.95725359  1
  Fe  Fe79  1  1.10722772  0.48428402  0.23681363  1
  Fe  Fe80  1  0.93093170  0.16584638  0.67116115  1
  Fe  Fe81  1  0.33111495  0.20094118  0.11479801  1
  Fe  Fe82  1  0.09826760  0.89565401  0.33088816  1
  Fe  Fe83  1  0.05406533  0.52378890  0.81902813  1
  Fe  Fe84  1  0.06069832  0.16484948  0.67452648  1
  Fe  Fe85  1  0.82645627  0.40146608  1.03908265  1
  Fe  Fe86  1  0.96281981  0.85193416  0.66197029  1
  Fe  Fe87  1  0.08924743  0.85580339  0.75584102  1
  Fe  Fe88  1  0.76665214  0.35256714  0.15207719  1
  Fe  Fe89  1  0.97133133  0.14866155  0.80452986  1
  Fe  Fe90  1  0.54587034  0.66401574  0.11733717  1
  Fe  Fe91  1  0.96917467  0.83158871  0.80003149  1
  Fe  Fe92  1  0.35811775  0.09829735  0.56833703  1
  Fe  Fe93  1  0.47837910  0.65404377  0.62122901  1
  Fe  Fe94  1  0.83106575  0.25368547  0.08265034  1
  Fe  Fe95  1  0.36719757  0.27717163  0.00889953  1
  Fe  Fe96  1  0.33281971  0.96718892  0.57382771  1
  Fe  Fe97  1  0.97688833  0.90792005  0.34448195  1
  Fe  Fe98  1  0.35322258  0.68035781  0.55749020  1
  Fe  Fe99  1  0.52611460  0.61360751  0.76883646  1
  Fe  Fe100  1  0.06109353  0.15345197  0.24429383  1
  Fe  Fe101  1  0.35284675  0.55824732  0.60437822  1
  Bi  Bi102  1  0.01335021  0.01031336  0.69051869  1
  Bi  Bi103  1  -0.11096233  0.47065790  0.87149602  1
  Bi  Bi104  1  -0.13063885  0.60096143  0.44717115  1
  Bi  Bi105  1  0.49914485  0.30740847  0.10229139  1
  Bi  Bi106  1  0.73835679  0.01210303  0.39626830  1
  Bi  Bi107  1  0.88614730  0.10684892  -0.01199729  1
  Bi  Bi108  1  0.19579204  0.63005449  0.55365146  1
  Bi  Bi109  1  0.02543066  0.74933425  0.26871632  1
  Bi  Bi110  1  0.54615418  0.63853451  -0.06233205  1
  Bi  Bi111  1  0.48808776  0.46598997  0.70913564  1
  Bi  Bi112  1  0.46048591  -0.05625748  0.32980093  1
  Bi  Bi113  1  0.21303452  0.52478121  -0.01077524  1
  Bi  Bi114  1  0.04389525  0.69340002  0.71873666  1
  Bi  Bi115  1  0.36219594  0.19583265  0.85883509  1
  Bi  Bi116  1  0.32547537  0.85254121  0.17191541  1
  Bi  Bi117  1  0.12743987  0.40222031  0.55075480  1
  Bi  Bi118  1  0.41873149  0.56462488  0.15553391  1
  Bi  Bi119  1  0.63231384  0.99275828  0.86496616  1
  Bi  Bi120  1  0.37435600  0.89671904  0.86350406  1
  Bi  Bi121  1  0.17882518  0.86220411  0.04869961  1
  Bi  Bi122  1  0.32774729  0.39641059  0.55943915  1
  Bi  Bi123  1  0.39602148  0.31789831  0.37829373  1
  Bi  Bi124  1  0.68668634  0.39207523  0.45618855  1
  Bi  Bi125  1  0.63196874  0.10242502  0.13978041  1
  Bi  Bi126  1  0.89743554  0.81457591  -0.04299578  1
  Bi  Bi127  1  0.63447857  0.81189270  0.20245218  1
