# generated using pymatgen
data_Ba51Fe51Bi26
_symmetry_space_group_name_H-M   'P 1'
_cell_length_a   16.14191559
_cell_length_b   16.31000178
_cell_length_c   17.03803592
_cell_angle_alpha   91.59902437
_cell_angle_beta   89.56299709
_cell_angle_gamma   89.24469057
_symmetry_Int_Tables_number   1
_chemical_formula_structural   Ba51Fe51Bi26
_chemical_formula_sum   'Ba51 Fe51 Bi26'
_cell_volume   4483.40351248
_cell_formula_units_Z   1
loop_
 _symmetry_equiv_pos_site_id
 _symmetry_equiv_pos_as_xyz
  1  'x, y, z'
loop_
 _atom_site_type_symbol
 _atom_site_label
 _atom_site_symmetry_multiplicity
 _atom_site_fract_x
 _atom_site_fract_y
 _atom_site_fract_z
 _atom_site_occupancy
  Ba  Ba0  1  0.29644543  0.24226471  0.53951471  1
  Ba  Ba1  1  0.25676056  0.31125797  0.75197145  1
  Ba  Ba2  1  -0.10689938  0.25728609  0.01617740  1
  Ba  Ba3  1  0.03393128  0.05881914  0.74145823  1
  Ba  Ba4  1  0.75225461  -0.02984069  0.32156048  1
  Ba  Ba5  1  0.61476857  0.46025245  0.28333423  1
  Ba  Ba6  1  0.79055977  0.51591427  0.02434989  1
  Ba  Ba7  1  0.75556843  -0.02704898  0.79710886  1
  Ba  Ba8  1  0.49158440  0.46693526  0.02067869  1
  Ba  Ba9  1  -0.02908705  -0.00756243  0.02828579  1
  Ba  Ba10  1  0.18048803  0.60197594  0.37814564  1
  Ba  Ba11  1  0.72826988  0.03503165  0.55632609  1
  Ba  Ba12  1  0.64034600  0.20773093  0.17523038  1
  Ba  Ba13  1  0.51055943  0.06367624  -0.05065474  1
  Ba  Ba14  1  0.43096373  0.24297483  0.32258871  1
  Ba  Ba15  1  0.49695447  0.78628978  0.79968296  1
  Ba  Ba16  1  0.01096375  0.03353633  0.28382497  1
  Ba  Ba17  1  0.34574835  0.01303336  0.74580877  1
  Ba  Ba18  1  -0.03234995  0.72726333  0.04584317  1
  Ba  Ba19  1  0.14068068  0.57645918  0.69727066  1
  Ba  Ba20  1  0.23045916  0.42071592  0.01585042  1
  Ba  Ba21  1  0.01658496  0.80455209  0.79607909  1
  Ba  Ba22  1  0.77821312  0.77610699  0.51354361  1
  Ba  Ba23  1  -0.03049633  0.25971206  0.25118117  1
  Ba  Ba24  1  0.46073485  -0.02437622  0.28663547  1
  Ba  Ba25  1  0.51601319  0.78590254  0.03719611  1
  Ba  Ba26  1  0.62589280  0.27993369  -0.08832473  1
  Ba  Ba27  1  0.06517429  0.34390827  0.44561192  1
  Ba  Ba28  1  0.10945331  -0.00705476  0.50847239  1
  Ba  Ba29  1  0.27127909  0.71759382  0.02177453  1
  Ba  Ba30  1  0.09534345  0.80497999  0.25832835  1
  Ba  Ba31  1  0.25797610  -0.04105815  0.11871365  1
  Ba  Ba32  1  0.04042233  0.76054356  0.53555328  1
  Ba  Ba33  1  0.74097071  0.71328867  0.24524661  1
  Ba  Ba34  1  0.47847723  0.06430499  0.52447865  1
  Ba  Ba35  1  0.30849953  -0.09758714  0.49954983  1
  Ba  Ba36  1  0.34297328  0.49514349  0.21608509  1
  Ba  Ba37  1  0.36857129  0.54107139  0.78998232  1
  Ba  Ba38  1  -0.13974010  0.58973589  0.67585933  1
  Ba  Ba39  1  0.00820741  0.47093247  -0.14330318  1
  Ba  Ba40  1  0.22174320  0.24091588  0.23600882  1
  Ba  Ba41  1  -0.04719793  0.36312967  0.65195941  1
  Ba  Ba42  1  0.26229482  0.14199721  -0.03243360  1
  Ba  Ba43  1  0.44883665  0.51190816  0.45834748  1
  Ba  Ba44  1  0.63105869  0.49182105  0.77614418  1
  Ba  Ba45  1  -0.04148583  0.54537672  0.28077920  1
  Ba  Ba46  1  0.78925152  0.26124266  0.40637038  1
  Ba  Ba47  1  0.77306295  0.21458857  0.71139354  1
  Ba  Ba48  1  0.52462399  0.79523093  0.55489286  1
  Ba  Ba49  1  0.58084461  0.29647212  0.52060778  1
  Ba  Ba50  1  0.72761546  -0.05812982  0.06649981  1
  Fe  Fe51  1  0.42206682  0.67753190  0.19021838  1
  Fe  Fe52  1  0.24525834  0.72149677  0.61180293  1
  Fe  Fe53  1  0.36132662  0.29398416  0.09757914  1
  Fe  Fe54  1  0.57552505  0.27753839  0.72306907  1
  Fe  Fe55  1  0.38090464  0.80674873  0.21387831  1
  Fe  Fe56  1  0.68032508  0.82334248  0.89404834  1
  Fe  Fe57  1  0.48510441  0.25209282  0.05478738  1
  Fe  Fe58  1  0.10029585  0.56431293  1.00539375  1
  Fe  Fe59  1  0.32259901  0.79431429  0.68926194  1
  Fe  Fe60  1  0.77221586  0.76807328  0.77741167  1
  Fe  Fe61  1  0.27933368  0.10570149  0.40260964  1
  Fe  Fe62  1  0.46815120  0.32883385  0.78607223  1
  Fe  Fe63  1  0.28595976  0.80176795  0.32597345  1
  Fe  Fe64  1  0.47135344  0.33280549  0.16013945  1
  Fe  Fe65  1  0.02700364  0.42558938  1.02414118  1
  Fe  Fe66  1  0.76837655  0.57227166  0.38435666  1
  Fe  Fe67  1  0.56539572  0.14103938  0.77845280  1
  Fe  Fe68  1  0.27658854  0.71527637  0.22005719  1
  Fe  Fe69  1  0.36625237  0.66966565  0.31479567  1
  Fe  Fe70  1  0.29585331  0.43587817  0.58492731  1
  Fe  Fe71  1  0.09710302  0.65776612  0.89858058  1
  Fe  Fe72  1  0.61570712  0.54135988  0.57351293  1
  Fe  Fe73  1  0.57999099  0.14934102  0.65557362  1
  Fe  Fe74  1  0.45320114  0.21936768  0.67625778  1
  Fe  Fe75  1  0.07392845  0.32425156  0.09916939  1
  Fe  Fe76  1  0.39043027  0.67805000  0.64321141  1
  Fe  Fe77  1  -0.08154190  0.19770746  0.54437458  1
  Fe  Fe78  1  0.95058834  0.41090745  0.13100170  1
  Fe  Fe79  1  0.15421703  0.14433633  0.39965718  1
  Fe  Fe80  1  1.01153313  0.14597051  0.45370820  1
  Fe  Fe81  1  0.30587825  0.57983722  0.58594811  1
  Fe  Fe82  1  0.93798569  0.07057280  0.57319193  1
  Fe  Fe83  1  0.69707836  0.46902962  0.45777044  1
  Fe  Fe84  1  0.88341048  0.09370442  0.43968590  1
  Fe  Fe85  1  0.19468844  0.48787729  0.52786927  1
  Fe  Fe86  1  1.00018747  0.54017344  0.09481356  1
  Fe  Fe87  1  0.57871493  0.78890570  0.34930325  1
  Fe  Fe88  1  0.43296300  0.78701061  0.34719180  1
  Fe  Fe89  1  0.81585632  0.80684109  0.90334242  1
  Fe  Fe90  1  0.71036411  0.68994117  0.86454032  1
  Fe  Fe91  1  0.91688385  0.97252719  0.47866388  1
  Fe  Fe92  1  0.81613498  0.44790294  0.36238075  1
  Fe  Fe93  1  0.44176681  0.19637256  0.80469155  1
  Fe  Fe94  1  0.19356381  0.57072660  0.89155294  1
  Fe  Fe95  1  0.74792276  0.57750544  0.52796887  1
  Fe  Fe96  1  0.87783337  0.59268988  0.45548468  1
  Fe  Fe97  1  0.09536994  0.44580958  0.15905732  1
  Fe  Fe98  1  0.53274901  0.77451122  0.22810201  1
  Fe  Fe99  1  0.51358397  0.65784983  0.29956284  1
  Fe  Fe100  1  0.50037849  0.58760935  0.63735537  1
  Fe  Fe101  1  0.85006787  0.46374662  0.48937213  1
  Bi  Bi102  1  0.56206442  -0.01815804  0.70383485  1
  Bi  Bi103  1  0.14845286  0.61118042  0.16210353  1
  Bi  Bi104  1  0.39168008  0.30500054  -0.07493544  1
  Bi  Bi105  1  0.61978635  0.64355459  0.42634317  1
  Bi  Bi106  1  0.65722043  0.67987123  0.67913053  1
  Bi  Bi107  1  0.02238451  0.54026798  0.52315505  1
  Bi  Bi108  1  0.45063066  0.40375205  0.64780605  1
  Bi  Bi109  1  0.73225635  0.73134466  0.02765680  1
  Bi  Bi110  1  0.34238668  0.70050695  0.47503354  1
  Bi  Bi111  1  0.22373272  -0.02420122  0.31972343  1
  Bi  Bi112  1  0.73989422  0.41020383  0.60514686  1
  Bi  Bi113  1  0.24234316  0.71954786  0.81559365  1
  Bi  Bi114  1  0.79879792  0.38356697  0.20363672  1
  Bi  Bi115  1  0.57449915  0.61030758  0.14864110  1
  Bi  Bi116  1  0.08825501  0.19688599  0.59896645  1
  Bi  Bi117  1  0.35966017  0.91551378  0.93710287  1
  Bi  Bi118  1  0.09044162  0.15171874  0.09757967  1
  Bi  Bi119  1  0.81265088  0.38156002  0.84389529  1
  Bi  Bi120  1  0.27341353  0.39810746  0.40164796  1
  Bi  Bi121  1  0.83350081  0.10385631  0.16808995  1
  Bi  Bi122  1  0.89553261  0.87157163  0.18979304  1
  Bi  Bi123  1  0.90317438  0.91463218  0.63680036  1
  Bi  Bi124  1  0.61120200  0.12824313  0.37439661  1
  Bi  Bi125  1  0.40592910  0.12945751  0.14040215  1
  Bi  Bi126  1  0.88297100  0.65244620  0.86815763  1
  Bi  Bi127  1  0.17454110  0.88164181  0.67083504  1
