# generated using pymatgen
data_Ba51Fe51Bi26
_symmetry_space_group_name_H-M   'P 1'
_cell_length_a   15.75942278
_cell_length_b   16.72996461
_cell_length_c   16.77398918
_cell_angle_alpha   90.33335770
_cell_angle_beta   89.00075172
_cell_angle_gamma   91.63343394
_symmetry_Int_Tables_number   1
_chemical_formula_structural   Ba51Fe51Bi26
_chemical_formula_sum   'Ba51 Fe51 Bi26'
_cell_volume   4420.00713896
_cell_formula_units_Z   1
loop_
 _symmetry_equiv_pos_site_id
 _symmetry_equiv_pos_as_xyz
  1  'x, y, z'
loop_
 _atom_site_type_symbol
 _atom_site_label
 _atom_site_symmetry_multiplicity
 _atom_site_fract_x
 _atom_site_fract_y
 _atom_site_fract_z
 _atom_site_occupancy
  Ba  Ba0  1  0.83125266  0.49431746  0.72069106  1
  Ba  Ba1  1  0.56157734  0.77333495  0.51326822  1
  Ba  Ba2  1  -0.01685539  0.20543608  -0.06556926  1
  Ba  Ba3  1  0.28230148  0.43065860  0.04075652  1
  Ba  Ba4  1  0.82451772  0.19912967  0.72444825  1
  Ba  Ba5  1  0.15294454  0.35224309  0.83686443  1
  Ba  Ba6  1  0.00268754  0.43554947  0.22092343  1
  Ba  Ba7  1  0.16232269  0.01710019  0.57886404  1
  Ba  Ba8  1  0.46053859  0.04842069  0.29910794  1
  Ba  Ba9  1  -0.00695416  0.00303673  0.77493191  1
  Ba  Ba10  1  0.39966678  0.70356249  0.00492924  1
  Ba  Ba11  1  0.81515138  0.37094118  -0.03908222  1
  Ba  Ba12  1  0.54266579  0.01638355  0.51291548  1
  Ba  Ba13  1  0.33422593  0.84672905  0.60804365  1
  Ba  Ba14  1  0.61534921  0.27174852  0.82603658  1
  Ba  Ba15  1  0.48611642  0.48284829  0.67195534  1
  Ba  Ba16  1  0.25812492  -0.09595100  0.22698381  1
  Ba  Ba17  1  0.45016445  0.05416867  0.73543286  1
  Ba  Ba18  1  0.20675091  0.72058127  0.35206814  1
  Ba  Ba19  1  0.31361608  0.46817701  0.29111254  1
  Ba  Ba20  1  0.55402388  0.06074748  0.02906835  1
  Ba  Ba21  1  0.47449122  0.31701134  0.48735955  1
  Ba  Ba22  1  0.15897801  0.26337296  0.55566064  1
  Ba  Ba23  1  0.90314835  0.75499345  0.45746426  1
  Ba  Ba24  1  -0.01633152  0.80534006  0.01322532  1
  Ba  Ba25  1  0.32079387  -0.00788205  -0.04481461  1
  Ba  Ba26  1  0.60478742  0.54983078  0.46730737  1
  Ba  Ba27  1  0.27878468  0.18637002  0.35096393  1
  Ba  Ba28  1  -0.06924588  0.00597810  0.50857185  1
  Ba  Ba29  1  -0.08502235  0.57943015  0.04413841  1
  Ba  Ba30  1  0.52134723  0.84148312  0.18470731  1
  Ba  Ba31  1  -0.11307114  0.75631046  0.22790203  1
  Ba  Ba32  1  0.87777013  0.48944786  0.46069586  1
  Ba  Ba33  1  0.13731601  0.24228194  0.15248811  1
  Ba  Ba34  1  0.80131647  0.77632683  0.69378415  1
  Ba  Ba35  1  0.66876536  0.19430955  0.26607812  1
  Ba  Ba36  1  -0.03424207  0.21038769  0.36911086  1
  Ba  Ba37  1  0.10020964  0.01549214  0.03392730  1
  Ba  Ba38  1  0.75156473  -0.05651791  0.16386883  1
  Ba  Ba39  1  0.67255097  0.44997900  0.18895633  1
  Ba  Ba40  1  0.43056683  0.26864481  0.10449984  1
  Ba  Ba41  1  0.15167284  0.60859539  -0.01715274  1
  Ba  Ba42  1  0.47351675  0.65043711  0.29416150  1
  Ba  Ba43  1  0.66724621  0.57758588  -0.06117169  1
  Ba  Ba44  1  0.34395081  0.26611391  0.73677637  1
  Ba  Ba45  1  0.10993229  0.48133047  0.63305825  1
  Ba  Ba46  1  0.75537902  0.22149372  0.49936267  1
  Ba  Ba47  1  0.27913399  0.65596432  0.76121949  1
  Ba  Ba48  1  -0.01071877  0.00011488  0.24655740  1
  Ba  Ba49  1  0.55886455  0.83989487  0.81120736  1
  Ba  Ba50  1  0.78960825  -0.08916820  -0.07683571  1
  Fe  Fe51  1  0.41331961  0.63312705  0.57153609  1
  Fe  Fe52  1  0.73644528  0.03796601  0.44228405  1
  Fe  Fe53  1  0.70190802  0.76174116  0.15412210  1
  Fe  Fe54  1  -0.04273522  0.15702289  0.12628344  1
  Fe  Fe55  1  0.86613927  0.07755703  1.05394694  1
  Fe  Fe56  1  0.67226281  0.65379554  0.22975215  1
  Fe  Fe57  1  0.78303530  0.73844580  0.02768787  1
  Fe  Fe58  1  0.43804541  0.35595868  -0.08467915  1
  Fe  Fe59  1  0.80464688  0.05440956  0.32529214  1
  Fe  Fe60  1  0.82893183  0.22290007  0.07809636  1
  Fe  Fe61  1  0.45692731  0.50801913  0.94917153  1
  Fe  Fe62  1  0.98734382  0.81800742  0.81479973  1
  Fe  Fe63  1  0.74514150  0.04826997  0.59004502  1
  Fe  Fe64  1  0.32873475  0.00690879  0.44425706  1
  Fe  Fe65  1  0.35103924  0.62333260  0.45277581  1
  Fe  Fe66  1  0.52546851  0.44878977  0.85406656  1
  Fe  Fe67  1  0.30944789  0.52757628  0.57584314  1
  Fe  Fe68  1  0.19728957  0.76518612  0.10090207  1
  Fe  Fe69  1  0.96698042  0.34832481  0.75541117  1
  Fe  Fe70  1  1.02069385  0.70714303  0.75059691  1
  Fe  Fe71  1  0.84090036  0.12155039  0.19798405  1
  Fe  Fe72  1  0.73712724  0.63679444  0.10552576  1
  Fe  Fe73  1  0.24439987  0.90409235  0.43135904  1
  Fe  Fe74  1  0.79583377  0.92175594  0.36453045  1
  Fe  Fe75  1  0.07612569  0.60664289  0.47952383  1
  Fe  Fe76  1  0.24786043  0.82509575  0.85526796  1
  Fe  Fe77  1  0.19003534  0.01312011  0.38426567  1
  Fe  Fe78  1  0.27111178  0.42081189  0.47784860  1
  Fe  Fe79  1  0.77161213  0.99419361  0.71400650  1
  Fe  Fe80  1  0.09959801  0.50068584  0.40748976  1
  Fe  Fe81  1  0.18788622  0.12775284  0.80891853  1
  Fe  Fe82  1  0.10990643  0.74581476  0.86593016  1
  Fe  Fe83  1  0.54899770  0.40399231  -0.00555598  1
  Fe  Fe84  1  0.09359321  0.68575256  0.17283764  1
  Fe  Fe85  1  0.76178388  0.14456664  0.96626301  1
  Fe  Fe86  1  0.47946521  0.69011548  0.67418884  1
  Fe  Fe87  1  0.65087249  0.08910959  0.67848192  1
  Fe  Fe88  1  -0.10423582  0.25581955  0.19012309  1
  Fe  Fe89  1  0.39751292  0.50331664  0.47456085  1
  Fe  Fe90  1  0.66754433  0.97059491  0.34458421  1
  Fe  Fe91  1  0.64267361  0.74785212  1.03538702  1
  Fe  Fe92  1  0.64733752  0.95299980  0.67141585  1
  Fe  Fe93  1  0.58839817  0.65163477  0.12281169  1
  Fe  Fe94  1  0.09189514  0.81571243  0.16423364  1
  Fe  Fe95  1  0.67878702  0.37774444  0.41912921  1
  Fe  Fe96  1  0.18997454  0.81977746  0.97715343  1
  Fe  Fe97  1  0.22570254  0.54414759  0.45716391  1
  Fe  Fe98  1  -0.02567765  0.42997276  0.85275049  1
  Fe  Fe99  1  0.11319631  0.88959231  0.87836091  1
  Fe  Fe100  1  0.13628280  0.82005018  0.75051762  1
  Fe  Fe101  1  0.73662129  0.11948787  0.09376496  1
  Bi  Bi102  1  0.67947754  0.79268758  0.32352482  1
  Bi  Bi103  1  0.65063045  0.26112226  0.05203260  1
  Bi  Bi104  1  0.14264097  0.34885922  0.36466925  1
  Bi  Bi105  1  0.86790370  0.69491032  -0.12841016  1
  Bi  Bi106  1  0.22102792  0.67119242  0.56141842  1
  Bi  Bi107  1  0.74047625  -0.10515119  0.53182819  1
  Bi  Bi108  1  0.48036942  0.51346875  0.11368817  1
  Bi  Bi109  1  0.23168821  -0.02741418  0.76801331  1
  Bi  Bi110  1  0.01108717  0.84227546  0.63977652  1
  Bi  Bi111  1  0.05827683  0.19562316  0.72770834  1
  Bi  Bi112  1  0.04179360  0.40920948  0.01110951  1
  Bi  Bi113  1  0.07559428  0.88541082  0.39123107  1
  Bi  Bi114  1  0.66149141  0.05451150  0.83967021  1
  Bi  Bi115  1  0.96115281  0.62946074  0.61181144  1
  Bi  Bi116  1  0.49857813  0.63329682  0.82539287  1
  Bi  Bi117  1  0.81164304  0.34916090  0.31570857  1
  Bi  Bi118  1  0.42950447  0.18574823  0.90755042  1
  Bi  Bi119  1  0.30723460  0.09301311  0.14981020  1
  Bi  Bi120  1  0.27072277  0.63494036  0.16741266  1
  Bi  Bi121  1  0.33594094  0.46664495  0.83632051  1
  Bi  Bi122  1  1.01264592  0.61651661  0.31970166  1
  Bi  Bi123  1  0.21695694  0.19408333  0.95677012  1
  Bi  Bi124  1  0.35704760  0.13850182  0.54879150  1
  Bi  Bi125  1  0.94073351  0.33323864  0.58858923  1
  Bi  Bi126  1  0.40880532  0.86000906  0.38884860  1
  Bi  Bi127  1  0.66913504  0.38953167  0.58718962  1
