# generated using pymatgen
data_Ba51Fe51Bi26
_symmetry_space_group_name_H-M   'P 1'
_cell_length_a   16.57318164
_cell_length_b   16.34466709
_cell_length_c   16.06435924
_cell_angle_alpha   90.09772992
_cell_angle_beta   90.30420249
_cell_angle_gamma   92.42543663
_symmetry_Int_Tables_number   1
_chemical_formula_structural   Ba51Fe51Bi26
_chemical_formula_sum   'Ba51 Fe51 Bi26'
_cell_volume   4347.59623719
_cell_formula_units_Z   1
loop_
 _symmetry_equiv_pos_site_id
 _symmetry_equiv_pos_as_xyz
  1  'x, y, z'
loop_
 _atom_site_type_symbol
 _atom_site_label
 _atom_site_symmetry_multiplicity
 _atom_site_fract_x
 _atom_site_fract_y
 _atom_site_fract_z
 _atom_site_occupancy
  Ba  Ba0  1  -0.05226869  0.24781571  0.61194399  1
  Ba  Ba1  1  0.72620453  0.75062490  0.83852856  1
  Ba  Ba2  1  0.33975038  -0.02723819  0.46000699  1
  Ba  Ba3  1  0.28482374  0.29358819  -0.06601850  1
  Ba  Ba4  1  0.40192342  0.53902510  0.56187219  1
  Ba  Ba5  1  0.62528503  0.43248076  0.60312905  1
  Ba  Ba6  1  0.08382767  0.29663748  0.06826976  1
  Ba  Ba7  1  0.20614195  -0.03500825  0.67513078  1
  Ba  Ba8  1  0.13778984  0.52999419  0.69370186  1
  Ba  Ba9  1  0.26641851  0.25854239  0.23847347  1
  Ba  Ba10  1  -0.06792480  0.50297206  0.31162273  1
  Ba  Ba11  1  -0.05634666  0.53955383  0.82697696  1
  Ba  Ba12  1  0.83355243  0.94960491  0.28501111  1
  Ba  Ba13  1  0.18761883  0.26437304  0.71340532  1
  Ba  Ba14  1  0.49306304  0.47941461  0.27158254  1
  Ba  Ba15  1  -0.00409920  0.56790032  0.07861048  1
  Ba  Ba16  1  0.73024801  0.76442815  0.13740848  1
  Ba  Ba17  1  0.13430890  0.04520385  -0.04258351  1
  Ba  Ba18  1  0.52926347  0.26515250  0.37147130  1
  Ba  Ba19  1  0.12871380  0.41264442  0.46197599  1
  Ba  Ba20  1  0.38715418  0.01582069  0.07844130  1
  Ba  Ba21  1  -0.03731318  0.62199208  0.51428497  1
  Ba  Ba22  1  0.56479897  -0.11164975  0.77706398  1
  Ba  Ba23  1  0.75374951  0.29751018  0.45307558  1
  Ba  Ba24  1  0.69826417  0.68448297  0.56677379  1
  Ba  Ba25  1  -0.01338513  0.88110592  0.11088270  1
  Ba  Ba26  1  0.73623709  0.04162540  0.50305436  1
  Ba  Ba27  1  0.27634676  0.54732254  -0.05824560  1
  Ba  Ba28  1  0.34190607  0.22007161  0.51735444  1
  Ba  Ba29  1  0.07129427  0.12260078  0.41620103  1
  Ba  Ba30  1  0.52459714  0.20949198  0.13726045  1
  Ba  Ba31  1  -0.05376586  0.77963097  0.74114430  1
  Ba  Ba32  1  0.73059157  0.55677748  -0.00949669  1
  Ba  Ba33  1  0.23398657  -0.07450074  0.25624435  1
  Ba  Ba34  1  0.50984528  0.34816107  -0.05972665  1
  Ba  Ba35  1  0.54636744  0.20950626  0.69098886  1
  Ba  Ba36  1  0.22826311  0.76432939  0.05242720  1
  Ba  Ba37  1  0.48492869  0.63485477  0.07302885  1
  Ba  Ba38  1  0.56947704  -0.02647805  0.26975629  1
  Ba  Ba39  1  0.75128712  0.21354915  0.05591249  1
  Ba  Ba40  1  0.22330659  0.51099180  0.23642000  1
  Ba  Ba41  1  -0.09065100  0.85087746  0.48071057  1
  Ba  Ba42  1  -0.04286454  0.24661457  0.86187545  1
  Ba  Ba43  1  0.55714926  0.70250257  0.31738571  1
  Ba  Ba44  1  0.73044541  0.34757555  0.82851523  1
  Ba  Ba45  1  0.31065240  0.75686308  0.75051958  1
  Ba  Ba46  1  0.20261613  0.72512922  0.49276907  1
  Ba  Ba47  1  0.39347397  0.06397600  0.83194496  1
  Ba  Ba48  1  0.73452365  0.07659509  0.75657460  1
  Ba  Ba49  1  0.52544763  0.86210271  0.52636146  1
  Ba  Ba50  1  0.88482704  -0.04598168  -0.10016281  1
  Fe  Fe51  1  0.36650407  0.67085777  0.24056436  1
  Fe  Fe52  1  0.89557183  0.42637838  0.51703983  1
  Fe  Fe53  1  0.53721335  -0.13527230  0.06486946  1
  Fe  Fe54  1  0.05966602  0.09258723  0.64399427  1
  Fe  Fe55  1  0.80159314  0.56525594  0.18558410  1
  Fe  Fe56  1  0.54682152  0.78040150  0.94375371  1
  Fe  Fe57  1  0.13168210  0.68036354  0.85641506  1
  Fe  Fe58  1  0.06397425  0.10342165  0.78014836  1
  Fe  Fe59  1  0.36750527  0.77531361  0.34899896  1
  Fe  Fe60  1  0.05268664  0.67981499  0.33643416  1
  Fe  Fe61  1  0.87957693  0.15613983  0.32903707  1
  Fe  Fe62  1  0.56650246  0.56518198  0.73221735  1
  Fe  Fe63  1  0.04731037  0.82592898  0.31761146  1
  Fe  Fe64  1  0.39452960  0.06871293  0.62828048  1
  Fe  Fe65  1  0.66910157  0.55624074  0.18828261  1
  Fe  Fe66  1  0.67569959  0.00170921  0.93879719  1
  Fe  Fe67  1  0.02554067  0.96304759  0.60584672  1
  Fe  Fe68  1  0.82811580  0.51418785  0.60634299  1
  Fe  Fe69  1  0.85093584  0.13072319  0.19526498  1
  Fe  Fe70  1  0.02460565  0.34997032  0.24794591  1
  Fe  Fe71  1  0.51387248  0.02121093  0.65357076  1
  Fe  Fe72  1  0.65809083  0.87556442  -0.01291819  1
  Fe  Fe73  1  0.42416542  0.35762200  0.65411854  1
  Fe  Fe74  1  0.60220891  0.00861842  0.05944469  1
  Fe  Fe75  1  0.48708287  0.43864210  0.76408041  1
  Fe  Fe76  1  0.83825615  0.39670063  0.66430681  1
  Fe  Fe77  1  0.48361017  0.53800744  0.89083038  1
  Fe  Fe78  1  -0.07585864  0.35484300  0.15832824  1
  Fe  Fe79  1  -0.15930253  0.28273546  0.25307386  1
  Fe  Fe80  1  0.97363896  1.07164584  0.23714466  1
  Fe  Fe81  1  0.79580015  0.41722944  0.16540462  1
  Fe  Fe82  1  0.74837601  0.61118590  0.30173862  1
  Fe  Fe83  1  0.93051798  0.05171118  0.58144899  1
  Fe  Fe84  1  0.60416172  0.50171889  0.84185643  1
  Fe  Fe85  1  0.70527551  0.32553330  0.24760296  1
  Fe  Fe86  1  0.56311915  0.65374045  0.85061168  1
  Fe  Fe87  1  1.04270417  0.96236465  0.29559229  1
  Fe  Fe88  1  0.89969428  0.96393166  0.68205518  1
  Fe  Fe89  1  1.02771490  0.97442082  0.75235302  1
  Fe  Fe90  1  0.40094512  0.30563867  0.76950170  1
  Fe  Fe91  1  0.53253934  -0.05067009  0.95209040  1
  Fe  Fe92  1  0.12331401  0.71995212  0.73343096  1
  Fe  Fe93  1  0.35751040  0.64418545  0.37042435  1
  Fe  Fe94  1  0.43932094  0.68874297  0.88169659  1
  Fe  Fe95  1  0.40278600  0.94187629  0.66680373  1
  Fe  Fe96  1  -0.02707859  0.21869321  0.21990890  1
  Fe  Fe97  1  0.05951163  0.71949968  0.21184130  1
  Fe  Fe98  1  0.71715310  0.46153875  0.28427550  1
  Fe  Fe99  1  0.43183994  0.58512321  0.77410053  1
  Fe  Fe100  1  -0.03814241  0.44885346  0.63366748  1
  Fe  Fe101  1  0.93738339  0.08823016  0.73059759  1
  Bi  Bi102  1  0.12811352  0.09028397  0.18393437  1
  Bi  Bi103  1  0.52494705  0.09115410  0.50066043  1
  Bi  Bi104  1  -0.04518712  0.30071731  0.39655781  1
  Bi  Bi105  1  -0.10326050  0.71887778  0.27501913  1
  Bi  Bi106  1  0.62861148  0.40401770  0.11892630  1
  Bi  Bi107  1  0.39341934  -0.15214328  -0.06769872  1
  Bi  Bi108  1  0.31775245  0.44829481  0.75377709  1
  Bi  Bi109  1  0.57916323  0.13419987  -0.08232374  1
  Bi  Bi110  1  0.50731838  0.70624340  0.67939122  1
  Bi  Bi111  1  0.74231255  0.55099175  0.74903910  1
  Bi  Bi112  1  0.76530075  -0.01779835  0.08496837  1
  Bi  Bi113  1  0.21092152  0.71595752  0.27893066  1
  Bi  Bi114  1  0.70526711  0.15569486  0.28513333  1
  Bi  Bi115  1  0.11017370  0.40801408  0.87861987  1
  Bi  Bi116  1  0.69481118  0.84259203  0.40093977  1
  Bi  Bi117  1  0.36524885  0.41216143  0.09924957  1
  Bi  Bi118  1  0.89164143  0.72415022  0.96938632  1
  Bi  Bi119  1  0.39451548  0.10249807  0.28844210  1
  Bi  Bi120  1  0.76166744  0.51881561  0.44693734  1
  Bi  Bi121  1  0.87409138  0.39608618  -0.00047544  1
  Bi  Bi122  1  0.75577898  0.87943553  0.66064507  1
  Bi  Bi123  1  0.42140687  0.82558034  0.18651721  1
  Bi  Bi124  1  0.12249490  0.85300841  0.85527348  1
  Bi  Bi125  1  0.95281981  0.11295167  0.05858199  1
  Bi  Bi126  1  0.33478995  0.39923489  0.39752111  1
  Bi  Bi127  1  0.11868079  0.91776370  0.45577496  1
