# generated using pymatgen
data_Ba51Fe51Bi26
_symmetry_space_group_name_H-M   'P 1'
_cell_length_a   16.47174522
_cell_length_b   16.27191698
_cell_length_c   16.43300486
_cell_angle_alpha   91.31358642
_cell_angle_beta   89.87009358
_cell_angle_gamma   91.23965442
_symmetry_Int_Tables_number   1
_chemical_formula_structural   Ba51Fe51Bi26
_chemical_formula_sum   'Ba51 Fe51 Bi26'
_cell_volume   4402.29186231
_cell_formula_units_Z   1
loop_
 _symmetry_equiv_pos_site_id
 _symmetry_equiv_pos_as_xyz
  1  'x, y, z'
loop_
 _atom_site_type_symbol
 _atom_site_label
 _atom_site_symmetry_multiplicity
 _atom_site_fract_x
 _atom_site_fract_y
 _atom_site_fract_z
 _atom_site_occupancy
  Ba  Ba0  1  0.06821664  0.32741945  -0.00344908  1
  Ba  Ba1  1  0.80350628  0.23438899  0.26297501  1
  Ba  Ba2  1  0.03995351  0.66584031  0.48628762  1
  Ba  Ba3  1  0.53022034  0.17772795  0.57416397  1
  Ba  Ba4  1  0.76042429  -0.04738535  0.51965477  1
  Ba  Ba5  1  0.62493163  0.54893314  0.85572092  1
  Ba  Ba6  1  0.02577484  0.21107862  0.47020686  1
  Ba  Ba7  1  0.23005867  0.49235004  0.29325062  1
  Ba  Ba8  1  0.74469653  0.38798385  -0.02944179  1
  Ba  Ba9  1  0.36498180  0.39350395  0.51019168  1
  Ba  Ba10  1  0.31554500  0.86005324  0.24727111  1
  Ba  Ba11  1  0.80722423  0.73405231  -0.10913973  1
  Ba  Ba12  1  -0.06379200  0.48646582  0.30850756  1
  Ba  Ba13  1  0.49304087  0.50568245  0.30121485  1
  Ba  Ba14  1  0.81436274  -0.03106516  0.14121591  1
  Ba  Ba15  1  0.23189663  -0.01739931  0.76780304  1
  Ba  Ba16  1  0.25635990  0.14993572  0.57830744  1
  Ba  Ba17  1  0.65633749  -0.07161466  -0.02283350  1
  Ba  Ba18  1  0.24033725  0.09828115  0.24349495  1
  Ba  Ba19  1  0.32059853  0.34237212  -0.07478114  1
  Ba  Ba20  1  0.60208863  0.10423260  0.32262113  1
  Ba  Ba21  1  0.03441113  0.02399033  0.00099649  1
  Ba  Ba22  1  0.55350585  0.74232553  0.26104603  1
  Ba  Ba23  1  0.23522002  0.69148354  0.69641721  1
  Ba  Ba24  1  0.27046099  -0.11064755  0.51092926  1
  Ba  Ba25  1  0.50861977  0.18094416  0.81407173  1
  Ba  Ba26  1  -0.05340231  0.56884759  0.00017702  1
  Ba  Ba27  1  0.23395003  0.61646158  -0.04415265  1
  Ba  Ba28  1  0.47434878  0.75607152  0.67355537  1
  Ba  Ba29  1  0.77204994  0.23683279  0.53026598  1
  Ba  Ba30  1  0.55624211  0.52885252  0.61434772  1
  Ba  Ba31  1  0.53147294  -0.10415337  0.48091603  1
  Ba  Ba32  1  0.23108818  0.44987958  0.72829165  1
  Ba  Ba33  1  0.06114148  0.27698031  0.24038289  1
  Ba  Ba34  1  0.45231210  0.07331848  0.09792659  1
  Ba  Ba35  1  -0.03078036  0.04141340  0.71543667  1
  Ba  Ba36  1  -0.06899165  0.28739349  0.77578211  1
  Ba  Ba37  1  0.45334796  0.53509649  0.02636441  1
  Ba  Ba38  1  -0.02006206  0.48197789  0.63321319  1
  Ba  Ba39  1  0.25629816  0.11103958  -0.03127108  1
  Ba  Ba40  1  0.45727771  0.79979757  0.05449515  1
  Ba  Ba41  1  0.72174305  0.51338858  0.21417583  1
  Ba  Ba42  1  0.46577850  -0.06202408  0.84452164  1
  Ba  Ba43  1  0.79377381  0.15937490  -0.04636971  1
  Ba  Ba44  1  0.11289317  0.69256145  0.18505530  1
  Ba  Ba45  1  -0.01381757  -0.07546780  0.46960055  1
  Ba  Ba46  1  0.71087168  -0.11859793  0.73823262  1
  Ba  Ba47  1  0.56037974  0.30765252  0.15554677  1
  Ba  Ba48  1  0.04101472  0.80925094  -0.14128518  1
  Ba  Ba49  1  0.81441531  0.73926002  0.22803006  1
  Ba  Ba50  1  0.03540547  -0.06070726  0.22832419  1
  Fe  Fe51  1  0.59198907  0.75789082  0.83809143  1
  Fe  Fe52  1  0.13344711  0.28817398  0.81491090  1
  Fe  Fe53  1  0.52022386  0.35083504  0.67164233  1
  Fe  Fe54  1  0.39731142  0.23157873  0.24310519  1
  Fe  Fe55  1  0.60998709  0.36300126  0.77959818  1
  Fe  Fe56  1  0.00805774  0.70143127  0.68298934  1
  Fe  Fe57  1  0.76036156  0.42059965  0.40393222  1
  Fe  Fe58  1  0.47778833  0.71010734  0.87925161  1
  Fe  Fe59  1  0.64872200  0.34927023  0.63091834  1
  Fe  Fe60  1  0.75278535  0.62046291  0.53997512  1
  Fe  Fe61  1  0.58340090  0.01288268  0.68606871  1
  Fe  Fe62  1  0.39365751  0.75786076  0.41273938  1
  Fe  Fe63  1  0.77738605  0.06793773  0.76779621  1
  Fe  Fe64  1  0.71927726  0.63242074  0.03971611  1
  Fe  Fe65  1  0.73430822  0.40381755  0.72715011  1
  Fe  Fe66  1  0.60163274  0.70962247  0.96738628  1
  Fe  Fe67  1  0.37013922  0.59835225  0.43070330  1
  Fe  Fe68  1  0.25094708  0.69565029  0.40535253  1
  Fe  Fe69  1  0.79615609  0.56871765  0.41227882  1
  Fe  Fe70  1  0.94272357  0.09101940  0.31552511  1
  Fe  Fe71  1  0.25795065  0.29172197  0.22786267  1
  Fe  Fe72  1  0.12540514  0.15465692  0.73301526  1
  Fe  Fe73  1  0.23738412  0.20731433  0.78945234  1
  Fe  Fe74  1  0.68490911  0.75732419  0.07828763  1
  Fe  Fe75  1  0.10283959  0.16537323  0.86290838  1
  Fe  Fe76  1  0.69411848  0.08682101  0.66216746  1
  Fe  Fe77  1  0.86384149  0.66511419  0.64007956  1
  Fe  Fe78  1  0.12616905  0.84938493  0.05990763  1
  Fe  Fe79  1  0.64855675  0.05633344  0.80123492  1
  Fe  Fe80  1  0.21295067  0.24584248  0.10188546  1
  Fe  Fe81  1  0.47059661  0.40642676  0.78680778  1
  Fe  Fe82  1  0.64788766  0.37939681  0.35086855  1
  Fe  Fe83  1  0.31418509  0.92481634  1.01464802  1
  Fe  Fe84  1  0.68853939  0.66476516  0.40856097  1
  Fe  Fe85  1  0.66035069  0.51952558  0.43452765  1
  Fe  Fe86  1  0.19552703  0.90471139  0.95512364  1
  Fe  Fe87  1  0.92270244  0.63698122  0.76160751  1
  Fe  Fe88  1  0.37575900  0.37138297  0.17150127  1
  Fe  Fe89  1  0.36273437  0.34228197  0.30929871  1
  Fe  Fe90  1  0.62787008  0.37960693  0.48782742  1
  Fe  Fe91  1  0.25421915  0.37220004  0.11069446  1
  Fe  Fe92  1  0.33883472  0.69645661  0.51984438  1
  Fe  Fe93  1  0.25365221  0.80249032  0.05660831  1
  Fe  Fe94  1  0.82467307  1.00922847  0.33239326  1
  Fe  Fe95  1  0.66119969  0.73676892  0.53344329  1
  Fe  Fe96  1  0.86873982  0.09840668  0.42309554  1
  Fe  Fe97  1  0.60511258  0.63723204  0.10098419  1
  Fe  Fe98  1  0.21291938  0.95011343  0.10073439  1
  Fe  Fe99  1  0.34714156  0.24536927  0.11061873  1
  Fe  Fe100  1  0.77921841  0.76248835  0.58727978  1
  Fe  Fe101  1  0.35481525  0.66966627  0.31545040  1
  Bi  Bi102  1  0.72043873  0.23362812  0.75493168  1
  Bi  Bi103  1  0.50682720  0.28976572  0.37903319  1
  Bi  Bi104  1  0.52366794  0.66744121  0.46082781  1
  Bi  Bi105  1  0.23087577  0.26303638  0.38981417  1
  Bi  Bi106  1  0.68801285  0.67642713  0.69779292  1
  Bi  Bi107  1  0.22717624  0.55959220  0.51968691  1
  Bi  Bi108  1  0.84274103  0.74046644  0.43792281  1
  Bi  Bi109  1  -0.15436240  0.49598850  0.81951959  1
  Bi  Bi110  1  0.77194196  0.45523360  0.56823831  1
  Bi  Bi111  1  0.40636320  0.56750930  0.80226873  1
  Bi  Bi112  1  0.36760579  0.28784210  0.70338866  1
  Bi  Bi113  1  -0.09374642  0.83666306  0.66596304  1
  Bi  Bi114  1  0.30850191  0.80168068  -0.12014993  1
  Bi  Bi115  1  0.08308463  0.42295232  0.43900877  1
  Bi  Bi116  1  0.41561491  -0.00458250  0.64374235  1
  Bi  Bi117  1  0.10520748  0.29426960  0.64858454  1
  Bi  Bi118  1  0.53732383  0.35633818  0.93864395  1
  Bi  Bi119  1  0.32388503  0.65868546  0.15117289  1
  Bi  Bi120  1  0.13885436  0.81275711  0.36101665  1
  Bi  Bi121  1  0.89488076  0.37566774  0.12214438  1
  Bi  Bi122  1  0.85365348  0.96654806  0.88892878  1
  Bi  Bi123  1  0.66321224  0.12193725  0.11553787  1
  Bi  Bi124  1  0.96048958  0.79984917  0.06880463  1
  Bi  Bi125  1  0.68826989  0.90935332  0.31520788  1
  Bi  Bi126  1  0.07608559  0.59524323  0.80899485  1
  Bi  Bi127  1  0.10455652  0.84843770  0.64285777  1
