# generated using pymatgen
data_Ba51Fe51Bi26
_symmetry_space_group_name_H-M   'P 1'
_cell_length_a   16.31165412
_cell_length_b   16.28238911
_cell_length_c   16.31711024
_cell_angle_alpha   89.92482830
_cell_angle_beta   90.03807564
_cell_angle_gamma   90.38108357
_symmetry_Int_Tables_number   1
_chemical_formula_structural   Ba51Fe51Bi26
_chemical_formula_sum   'Ba51 Fe51 Bi26'
_cell_volume   4333.60483682
_cell_formula_units_Z   1
loop_
 _symmetry_equiv_pos_site_id
 _symmetry_equiv_pos_as_xyz
  1  'x, y, z'
loop_
 _atom_site_type_symbol
 _atom_site_label
 _atom_site_symmetry_multiplicity
 _atom_site_fract_x
 _atom_site_fract_y
 _atom_site_fract_z
 _atom_site_occupancy
  Ba  Ba0  1  0.06413144  0.48739738  0.45886851  1
  Ba  Ba1  1  0.23682727  0.69120999  0.02580100  1
  Ba  Ba2  1  0.75021233  0.77100593  0.51979678  1
  Ba  Ba3  1  0.45476744  0.46864835  -0.00240352  1
  Ba  Ba4  1  0.00143174  0.70950245  0.49928278  1
  Ba  Ba5  1  0.00474405  0.20837702  0.70941348  1
  Ba  Ba6  1  0.38842460  0.34000787  0.58412514  1
  Ba  Ba7  1  0.31554095  0.08194472  0.18668842  1
  Ba  Ba8  1  -0.10488011  -0.04426642  -0.02232513  1
  Ba  Ba9  1  0.16964632  -0.10581807  0.29379778  1
  Ba  Ba10  1  0.30793261  0.85271992  0.73338398  1
  Ba  Ba11  1  0.64671393  0.23053982  0.53163954  1
  Ba  Ba12  1  0.68230255  0.57974130  -0.00142043  1
  Ba  Ba13  1  0.69043291  -0.05788222  0.10005145  1
  Ba  Ba14  1  0.64340583  -0.12683541  0.84865682  1
  Ba  Ba15  1  0.91399412  0.28180307  0.28646646  1
  Ba  Ba16  1  0.35340360  0.74230664  0.31083495  1
  Ba  Ba17  1  0.24793344  0.50497076  0.22013754  1
  Ba  Ba18  1  0.77246102  -0.08923121  0.31623790  1
  Ba  Ba19  1  0.48247532  0.75434618  -0.01089661  1
  Ba  Ba20  1  0.29483267  0.56490498  0.47349479  1
  Ba  Ba21  1  -0.02521753  0.05438554  0.24754297  1
  Ba  Ba22  1  0.02703963  0.40474782  -0.11351875  1
  Ba  Ba23  1  0.33079573  0.07444511  0.55551956  1
  Ba  Ba24  1  0.13958059  0.27457262  0.17997552  1
  Ba  Ba25  1  0.47918841  0.18945370  0.35611656  1
  Ba  Ba26  1  0.79503960  0.71065598  0.76755223  1
  Ba  Ba27  1  -0.11342245  0.28446984  0.52225516  1
  Ba  Ba28  1  0.54790607  0.95740895  0.49450805  1
  Ba  Ba29  1  0.06235544  0.78209712  0.77387375  1
  Ba  Ba30  1  0.45468926  0.01451424  -0.04878221  1
  Ba  Ba31  1  0.24781642  0.08013525  0.80439835  1
  Ba  Ba32  1  0.62235642  0.53585577  0.51889216  1
  Ba  Ba33  1  -0.02602963  0.61038917  -0.01635186  1
  Ba  Ba34  1  0.55832100  0.18546413  0.78784195  1
  Ba  Ba35  1  0.03537702  0.16555792  -0.02831400  1
  Ba  Ba36  1  0.49320057  0.48831171  0.29531972  1
  Ba  Ba37  1  0.30359165  0.27566397  -0.02714514  1
  Ba  Ba38  1  0.54285856  0.21843863  0.11868008  1
  Ba  Ba39  1  0.81829002  0.02718506  0.51239271  1
  Ba  Ba40  1  0.77935120  0.18166133  0.08635439  1
  Ba  Ba41  1  0.62089933  0.44648236  0.76895768  1
  Ba  Ba42  1  0.81741894  0.48701460  0.38393822  1
  Ba  Ba43  1  0.80311676  0.27998817  0.86527134  1
  Ba  Ba44  1  -0.02278085  0.77354280  0.19707853  1
  Ba  Ba45  1  0.51328121  0.75683994  0.63398932  1
  Ba  Ba46  1  0.12716309  0.44581542  0.67661935  1
  Ba  Ba47  1  0.07707218  0.02419822  0.54700840  1
  Ba  Ba48  1  0.35941515  0.58933495  0.73610587  1
  Ba  Ba49  1  0.52427613  -0.10744600  0.24929503  1
  Ba  Ba50  1  0.72786549  0.40631332  0.16229617  1
  Fe  Fe51  1  0.69416449  0.61417346  0.20455836  1
  Fe  Fe52  1  0.05492325  0.57619878  0.18403820  1
  Fe  Fe53  1  0.64242519  0.90654068  0.65549210  1
  Fe  Fe54  1  0.10098090  -0.01437447  0.96406626  1
  Fe  Fe55  1  0.77566822  0.09461923  0.26057531  1
  Fe  Fe56  1  0.94641514  0.45821500  0.20511187  1
  Fe  Fe57  1  0.26538362  0.24741586  0.36854885  1
  Fe  Fe58  1  0.76951302  0.73446090  0.17529420  1
  Fe  Fe59  1  0.64407975  0.74299163  0.12642229  1
  Fe  Fe60  1  0.18288606  0.82415697  0.57956015  1
  Fe  Fe61  1  0.92842992  0.56018352  0.69495881  1
  Fe  Fe62  1  0.36448100  0.83385756  0.48966917  1
  Fe  Fe63  1  0.18938893  0.20542845  0.47625535  1
  Fe  Fe64  1  0.23188324  0.41844747  0.84508986  1
  Fe  Fe65  1  0.17227303  0.55036840  0.86755738  1
  Fe  Fe66  1  0.64137640  0.08470329  0.23846463  1
  Fe  Fe67  1  0.06567033  0.44401229  0.27184493  1
  Fe  Fe68  1  0.21699407  0.75363723  0.46090440  1
  Fe  Fe69  1  0.88234450  0.41347858  0.70525631  1
  Fe  Fe70  1  0.08828159  0.29546671  0.52616981  1
  Fe  Fe71  1  0.77078604  0.16884204  0.37399916  1
  Fe  Fe72  1  0.05706077  0.21867960  0.42076269  1
  Fe  Fe73  1  0.06435798  0.94966715  0.09776089  1
  Fe  Fe74  1  0.75638473  1.02858866  0.78833766  1
  Fe  Fe75  1  0.28676131  0.37709571  0.37169046  1
  Fe  Fe76  1  0.97923343  0.56934647  0.29521467  1
  Fe  Fe77  1  0.89085414  0.02670443  0.69382265  1
  Fe  Fe78  1  0.21935965  0.34606271  0.49132501  1
  Fe  Fe79  1  0.18221397  0.89528834  0.90139600  1
  Fe  Fe80  1  0.83443773  0.57965156  0.57252592  1
  Fe  Fe81  1  0.68182760  0.21272319  0.28080003  1
  Fe  Fe82  1  0.91711284  0.47451572  0.58499031  1
  Fe  Fe83  1  0.78178496  0.43336192  0.58995012  1
  Fe  Fe84  1  0.77313022  0.92414522  0.68687780  1
  Fe  Fe85  1  0.24235312  0.01746072  0.99117655  1
  Fe  Fe86  1  0.66545488  0.03428587  0.67271434  1
  Fe  Fe87  1  0.67030446  0.75588614  0.27845639  1
  Fe  Fe88  1  0.88360264  0.07991651  0.81866983  1
  Fe  Fe89  1  0.66474505  0.63091103  0.33775876  1
  Fe  Fe90  1  0.87823344  0.92668772  0.78835195  1
  Fe  Fe91  1  0.30180134  0.89481658  0.95328578  1
  Fe  Fe92  1  0.78621941  0.52497923  0.68655861  1
  Fe  Fe93  1  0.13497309  0.32844106  0.37130305  1
  Fe  Fe94  1  0.29635450  0.51726552  0.90147398  1
  Fe  Fe95  1  0.56240128  0.67644734  0.22756733  1
  Fe  Fe96  1  0.19227599  -0.09715781  0.06260030  1
  Fe  Fe97  1  0.14458143  0.05331332  0.09466565  1
  Fe  Fe98  1  0.30675249  0.74714376  0.56829592  1
  Fe  Fe99  1  0.66388462  0.08140543  0.37043808  1
  Fe  Fe100  1  0.24828012  0.89891932  0.48978600  1
  Fe  Fe101  1  0.05343198  0.45175798  0.12083252  1
  Bi  Bi102  1  0.04181456  0.00771185  0.80216400  1
  Bi  Bi103  1  0.17463789  0.65818519  0.62902447  1
  Bi  Bi104  1  0.83480001  0.50536277  0.84775359  1
  Bi  Bi105  1  0.20764502  0.23529586  0.64254367  1
  Bi  Bi106  1  0.55250552  0.73352738  0.41231807  1
  Bi  Bi107  1  0.78341745  0.16534517  0.68388408  1
  Bi  Bi108  1  0.05793523  -0.18881941  -0.00767953  1
  Bi  Bi109  1  0.82537871  0.69441409  0.33497645  1
  Bi  Bi110  1  0.19087923  0.45479112  0.01893238  1
  Bi  Bi111  1  0.77610351  0.77020003  0.00445606  1
  Bi  Bi112  1  0.15966228  0.11349391  0.33961133  1
  Bi  Bi113  1  -0.07929373  0.86292921  0.63081647  1
  Bi  Bi114  1  -0.14293508  0.58550943  0.15784138  1
  Bi  Bi115  1  0.35252632  0.87917579  0.11404541  1
  Bi  Bi116  1  0.63051887  0.34500765  0.97031016  1
  Bi  Bi117  1  0.35723864  0.31006460  0.21919699  1
  Bi  Bi118  1  0.49104933  0.97994986  0.71311434  1
  Bi  Bi119  1  0.64428737  0.35301941  0.36013976  1
  Bi  Bi120  1  0.36650416  0.96751164  0.37543891  1
  Bi  Bi121  1  0.39474227  0.38371583  0.80244633  1
  Bi  Bi122  1  0.93087994  0.33986778  0.07172785  1
  Bi  Bi123  1  0.56472133  0.64985775  0.81795938  1
  Bi  Bi124  1  0.96791498  0.90030616  0.39961082  1
  Bi  Bi125  1  0.67328342  0.07669986  0.93328948  1
  Bi  Bi126  1  0.42255847  0.62318526  0.14462885  1
  Bi  Bi127  1  0.13515697  0.65966709  0.32891979  1
