# generated using pymatgen
data_Ba51Fe51Bi26
_symmetry_space_group_name_H-M   'P 1'
_cell_length_a   16.51302904
_cell_length_b   16.40673982
_cell_length_c   16.13162642
_cell_angle_alpha   89.69020280
_cell_angle_beta   93.45537872
_cell_angle_gamma   89.63447389
_symmetry_Int_Tables_number   1
_chemical_formula_structural   Ba51Fe51Bi26
_chemical_formula_sum   'Ba51 Fe51 Bi26'
_cell_volume   4362.35289080
_cell_formula_units_Z   1
loop_
 _symmetry_equiv_pos_site_id
 _symmetry_equiv_pos_as_xyz
  1  'x, y, z'
loop_
 _atom_site_type_symbol
 _atom_site_label
 _atom_site_symmetry_multiplicity
 _atom_site_fract_x
 _atom_site_fract_y
 _atom_site_fract_z
 _atom_site_occupancy
  Ba  Ba0  1  0.97815576  0.86223842  0.80520156  1
  Ba  Ba1  1  0.72584461  0.50687888  0.59756488  1
  Ba  Ba2  1  0.58777474  0.61321103  0.20075825  1
  Ba  Ba3  1  0.57203078  -0.01894664  0.67823103  1
  Ba  Ba4  1  0.74956933  0.71640933  -0.02149239  1
  Ba  Ba5  1  0.18923393  0.29392357  -0.11000096  1
  Ba  Ba6  1  0.22148846  0.00934985  -0.08934975  1
  Ba  Ba7  1  0.52881311  0.65968309  0.48338152  1
  Ba  Ba8  1  0.22657785  0.72002236  0.00237388  1
  Ba  Ba9  1  0.78244469  0.27619447  0.07300842  1
  Ba  Ba10  1  0.22266998  -0.00498641  0.15862556  1
  Ba  Ba11  1  0.66257187  0.02501890  -0.03607102  1
  Ba  Ba12  1  0.42233165  0.41847141  0.09235581  1
  Ba  Ba13  1  0.01391452  0.12318994  0.79647610  1
  Ba  Ba14  1  0.88284826  -0.12055449  0.50377408  1
  Ba  Ba15  1  0.52889327  0.18226417  0.12209671  1
  Ba  Ba16  1  0.48695168  0.17967327  0.44681399  1
  Ba  Ba17  1  -0.06712471  0.44515591  0.48516438  1
  Ba  Ba18  1  -0.03349980  0.13277770  0.28224459  1
  Ba  Ba19  1  0.45534665  0.27379845  -0.11872257  1
  Ba  Ba20  1  0.01659859  0.62508750  0.33239814  1
  Ba  Ba21  1  -0.09564847  0.61315719  0.80497883  1
  Ba  Ba22  1  0.21664852  0.70785943  0.43610616  1
  Ba  Ba23  1  0.29759440  0.63418763  0.77270606  1
  Ba  Ba24  1  0.10440355  0.46530495  0.68507415  1
  Ba  Ba25  1  0.77448570  0.74691904  0.64778432  1
  Ba  Ba26  1  0.42045316  -0.16573141  0.20452492  1
  Ba  Ba27  1  0.57720477  0.40394540  0.38674414  1
  Ba  Ba28  1  0.76558944  0.24759162  0.32430150  1
  Ba  Ba29  1  0.77172371  0.42703424  -0.11245108  1
  Ba  Ba30  1  0.61711227  -0.01013537  0.26139618  1
  Ba  Ba31  1  0.63232718  0.26224457  0.71938616  1
  Ba  Ba32  1  0.34593993  -0.07524640  0.41648031  1
  Ba  Ba33  1  0.01596700  0.80714341  0.07333165  1
  Ba  Ba34  1  0.26703292  0.53674943  0.26734658  1
  Ba  Ba35  1  0.48591731  0.76755155  -0.03920767  1
  Ba  Ba36  1  0.72299557  0.06780603  0.49969374  1
  Ba  Ba37  1  -0.09413891  0.30843274  0.71016767  1
  Ba  Ba38  1  0.06504401  0.40014926  0.08968531  1
  Ba  Ba39  1  0.34848205  0.52680125  0.56555424  1
  Ba  Ba40  1  0.81529553  0.76477948  0.25181949  1
  Ba  Ba41  1  0.34313808  -0.05645844  0.71969721  1
  Ba  Ba42  1  0.53555123  0.74750014  0.71887423  1
  Ba  Ba43  1  -0.06079201  0.08631127  0.02323127  1
  Ba  Ba44  1  0.78023470  0.51592098  0.29439942  1
  Ba  Ba45  1  0.14110547  -0.09241216  0.57354044  1
  Ba  Ba46  1  0.03804678  0.89758610  0.32630065  1
  Ba  Ba47  1  0.09306103  0.27989544  0.43133983  1
  Ba  Ba48  1  0.26287962  0.22232992  0.24177337  1
  Ba  Ba49  1  0.80322473  0.01939238  0.75024069  1
  Ba  Ba50  1  0.27048977  0.14766405  0.53683547  1
  Fe  Fe51  1  0.87375710  0.14108361  0.60261212  1
  Fe  Fe52  1  0.56884100  0.45714243  0.85657053  1
  Fe  Fe53  1  0.60781109  0.40562964  -0.00308952  1
  Fe  Fe54  1  0.37623956  0.92589693  -0.00190346  1
  Fe  Fe55  1  0.26753198  0.36680125  0.46772990  1
  Fe  Fe56  1  0.96352333  0.63989318  0.61243060  1
  Fe  Fe57  1  0.69513208  0.74797066  0.43103868  1
  Fe  Fe58  1  0.40819057  0.58313106  -0.04507346  1
  Fe  Fe59  1  0.54958895  0.83071401  0.40007364  1
  Fe  Fe60  1  0.68358407  0.88357104  0.41901387  1
  Fe  Fe61  1  1.05542866  0.07368721  0.49413763  1
  Fe  Fe62  1  0.34817135  0.12093281  0.81417055  1
  Fe  Fe63  1  0.76659628  0.91083567  0.10905372  1
  Fe  Fe64  1  0.30347813  0.23849768  0.72399351  1
  Fe  Fe65  1  0.21936732  0.12146186  0.73697859  1
  Fe  Fe66  1  0.49884543  -0.03628009  0.04247037  1
  Fe  Fe67  1  1.02452284  0.59778189  0.97283280  1
  Fe  Fe68  1  -0.11606387  0.94522528  0.14838796  1
  Fe  Fe69  1  0.92067673  0.07580075  0.47441721  1
  Fe  Fe70  1  -0.05775771  0.53097540  0.16878214  1
  Fe  Fe71  1  0.26896957  0.33361355  0.60498143  1
  Fe  Fe72  1  0.97278737  0.03531704  0.61344139  1
  Fe  Fe73  1  0.11642620  0.08461421  0.64179689  1
  Fe  Fe74  1  0.63352236  0.78494760  0.30892103  1
  Fe  Fe75  1  0.49196002  0.57999475  0.83114783  1
  Fe  Fe76  1  0.56027997  0.95399403  0.47318313  1
  Fe  Fe77  1  0.41423789  1.07374070  0.95317805  1
  Fe  Fe78  1  0.90328975  0.20963356  0.48704255  1
  Fe  Fe79  1  0.92946402  0.63626353  0.08228853  1
  Fe  Fe80  1  0.46116844  0.96175367  0.89058109  1
  Fe  Fe81  1  0.90694309  0.52077171  1.00849325  1
  Fe  Fe82  1  0.02735792  0.73454596  0.51417592  1
  Fe  Fe83  1  0.07693952  0.69476107  0.86662185  1
  Fe  Fe84  1  0.49848523  0.85707518  0.53803923  1
  Fe  Fe85  1  0.54553367  0.53501280  0.71079159  1
  Fe  Fe86  1  0.41930532  0.46885133  0.88587321  1
  Fe  Fe87  1  1.02171157  0.75747317  0.65345125  1
  Fe  Fe88  1  0.40821676  0.32003693  0.66272490  1
  Fe  Fe89  1  -0.15137966  0.44801600  0.11279408  1
  Fe  Fe90  1  0.46604573  0.43497009  0.74852758  1
  Fe  Fe91  1  0.38949935  0.33241437  0.51819650  1
  Fe  Fe92  1  0.08875398  0.61705781  0.56731882  1
  Fe  Fe93  1  0.08448473  0.65029863  0.73109366  1
  Fe  Fe94  1  0.39739793  0.03474663  0.09319101  1
  Fe  Fe95  1  1.01023772  0.17519837  0.57781794  1
  Fe  Fe96  1  0.70558592  0.47769048  0.06976643  1
  Fe  Fe97  1  0.63530912  0.83683639  0.53857550  1
  Fe  Fe98  1  0.11440225  0.56593364  0.86836521  1
  Fe  Fe99  1  0.48231714  0.07977337  0.82937639  1
  Fe  Fe100  1  0.15138474  0.72066681  0.62564847  1
  Fe  Fe101  1  0.80324510  0.57666445  0.10607074  1
  Bi  Bi102  1  0.12855283  0.25615758  0.66943119  1
  Bi  Bi103  1  0.09208517  0.60583385  0.13544791  1
  Bi  Bi104  1  0.76255040  0.28859199  0.53889962  1
  Bi  Bi105  1  0.14935313  0.49408429  0.45927837  1
  Bi  Bi106  1  -0.14956579  0.65818826  0.46621745  1
  Bi  Bi107  1  0.31774722  0.18138160  0.03609655  1
  Bi  Bi108  1  0.36157966  0.76988343  0.58593696  1
  Bi  Bi109  1  0.30465275  0.41318049  0.75798154  1
  Bi  Bi110  1  0.57992162  0.57102140  -0.01073060  1
  Bi  Bi111  1  0.44617804  0.15127388  0.67441130  1
  Bi  Bi112  1  -0.06441573  0.37292949  0.25956045  1
  Bi  Bi113  1  0.17331352  0.80964030  0.77869590  1
  Bi  Bi114  1  0.25780966  0.50089297  -0.04694368  1
  Bi  Bi115  1  0.37813047  0.36422733  0.34629639  1
  Bi  Bi116  1  0.19665281  0.79167360  0.23401404  1
  Bi  Bi117  1  0.00037558  0.43555573  0.88320255  1
  Bi  Bi118  1  0.77934739  0.08075429  0.16507261  1
  Bi  Bi119  1  0.38987220  0.63372875  0.11761399  1
  Bi  Bi120  1  0.41313106  0.06236184  0.26453936  1
  Bi  Bi121  1  0.62591441  0.37649208  0.17821364  1
  Bi  Bi122  1  0.16215365  0.06565900  0.36310417  1
  Bi  Bi123  1  0.67965185  0.60240740  0.78961664  1
  Bi  Bi124  1  0.80640773  0.19496353  0.86923639  1
  Bi  Bi125  1  0.53112474  0.41244146  0.58965650  1
  Bi  Bi126  1  0.62450420  0.82273470  0.12916877  1
  Bi  Bi127  1  0.84681958  0.90738616  0.96139190  1
