# generated using pymatgen
data_Ba51Fe51Bi26
_symmetry_space_group_name_H-M   'P 1'
_cell_length_a   16.68897282
_cell_length_b   16.30389346
_cell_length_c   16.29705902
_cell_angle_alpha   90.40665771
_cell_angle_beta   89.37105653
_cell_angle_gamma   92.37475163
_symmetry_Int_Tables_number   1
_chemical_formula_structural   Ba51Fe51Bi26
_chemical_formula_sum   'Ba51 Fe51 Bi26'
_cell_volume   4430.17896149
_cell_formula_units_Z   1
loop_
 _symmetry_equiv_pos_site_id
 _symmetry_equiv_pos_as_xyz
  1  'x, y, z'
loop_
 _atom_site_type_symbol
 _atom_site_label
 _atom_site_symmetry_multiplicity
 _atom_site_fract_x
 _atom_site_fract_y
 _atom_site_fract_z
 _atom_site_occupancy
  Ba  Ba0  1  0.50937700  -0.01340256  0.38052623  1
  Ba  Ba1  1  0.70188840  -0.14179866  0.30440701  1
  Ba  Ba2  1  0.74801670  0.66203929  0.86276202  1
  Ba  Ba3  1  0.53784443  0.05790011  0.64109995  1
  Ba  Ba4  1  0.48262437  0.78319226  0.87509188  1
  Ba  Ba5  1  0.08898000  0.51995915  -0.04913549  1
  Ba  Ba6  1  -0.03319006  0.16941146  0.49640144  1
  Ba  Ba7  1  0.18516649  0.29686439  0.22118548  1
  Ba  Ba8  1  -0.03413515  0.08295036  0.74821879  1
  Ba  Ba9  1  0.48429348  0.03548292  -0.09234824  1
  Ba  Ba10  1  -0.08041549  0.55607456  0.77413826  1
  Ba  Ba11  1  0.39293964  0.78223925  0.47408347  1
  Ba  Ba12  1  0.30953649  0.19427365  -0.00785180  1
  Ba  Ba13  1  0.42291930  0.31978332  0.18572803  1
  Ba  Ba14  1  0.55004741  0.52877144  0.72328675  1
  Ba  Ba15  1  0.75600105  0.50351987  0.07262822  1
  Ba  Ba16  1  0.01614582  0.44646755  0.57570432  1
  Ba  Ba17  1  0.78794305  -0.01468163  0.56383925  1
  Ba  Ba18  1  0.29784419  0.54096951  0.60525341  1
  Ba  Ba19  1  0.76177266  0.27266896  0.01599840  1
  Ba  Ba20  1  0.67878820  0.24442009  0.45810108  1
  Ba  Ba21  1  0.38143795  0.17631524  0.38311969  1
  Ba  Ba22  1  0.20197001  0.27661366  0.49870331  1
  Ba  Ba23  1  0.08250713  0.90930988  0.88311565  1
  Ba  Ba24  1  0.46910884  0.06535706  0.14859595  1
  Ba  Ba25  1  0.72370454  0.09043929  0.84094595  1
  Ba  Ba26  1  0.87711922  0.85294175  -0.00260341  1
  Ba  Ba27  1  0.70903548  0.03276186  0.12830467  1
  Ba  Ba28  1  0.09950840  0.61101576  0.17229031  1
  Ba  Ba29  1  0.79628966  0.75767485  0.49207053  1
  Ba  Ba30  1  0.76859892  0.52186844  0.37712005  1
  Ba  Ba31  1  0.88875621  0.72883305  0.21199664  1
  Ba  Ba32  1  0.51162158  0.45887784  -0.02446780  1
  Ba  Ba33  1  0.07821044  -0.06841304  0.29783869  1
  Ba  Ba34  1  0.25705283  0.79802604  0.70115257  1
  Ba  Ba35  1  0.19526626  0.57070631  0.38166428  1
  Ba  Ba36  1  0.50090515  0.74281198  0.20940588  1
  Ba  Ba37  1  0.65985488  0.81203197  0.71753762  1
  Ba  Ba38  1  0.56910826  0.51347209  0.21747583  1
  Ba  Ba39  1  0.30810926  0.57730744  -0.13222396  1
  Ba  Ba40  1  0.45732468  0.29891226  0.63407248  1
  Ba  Ba41  1  0.22000813  0.07725735  0.68911143  1
  Ba  Ba42  1  0.04367247  0.73176199  0.54953266  1
  Ba  Ba43  1  0.00631177  0.26960290  -0.02367713  1
  Ba  Ba44  1  -0.07174305  0.41238209  0.21716244  1
  Ba  Ba45  1  0.76091021  0.40484944  0.62963069  1
  Ba  Ba46  1  0.27895498  0.85357088  0.20955064  1
  Ba  Ba47  1  0.53057613  0.43615957  0.44102068  1
  Ba  Ba48  1  -0.09546385  0.17091607  0.26604150  1
  Ba  Ba49  1  0.21427938  0.32474981  0.79990251  1
  Ba  Ba50  1  0.09263325  0.03698525  0.08445029  1
  Fe  Fe51  1  0.39321562  0.53353752  0.13415240  1
  Fe  Fe52  1  0.04283377  0.75916214  0.75297311  1
  Fe  Fe53  1  0.93089255  0.82933905  0.68861245  1
  Fe  Fe54  1  0.65877475  0.77783957  0.98968935  1
  Fe  Fe55  1  0.25747330  0.56366914  0.06981831  1
  Fe  Fe56  1  0.27503370  0.49031268  0.21122285  1
  Fe  Fe57  1  0.69036061  0.79961807  0.11728987  1
  Fe  Fe58  1  0.62827458  0.61195969  0.47031958  1
  Fe  Fe59  1  0.61864163  0.21558306  0.15147463  1
  Fe  Fe60  1  0.71314303  0.20869280  0.24946862  1
  Fe  Fe61  1  0.24140598  0.07924543  0.49193535  1
  Fe  Fe62  1  -0.01127510  0.34991767  0.79922313  1
  Fe  Fe63  1  0.60504440  0.34606595  0.76220591  1
  Fe  Fe64  1  0.21953850  -0.14116986  0.01230716  1
  Fe  Fe65  1  0.30413014  -0.02669228  0.03988988  1
  Fe  Fe66  1  0.59629260  0.30764567  0.27416765  1
  Fe  Fe67  1  0.23768095  0.71276582  1.05935728  1
  Fe  Fe68  1  0.63302172  0.66099502  1.05801478  1
  Fe  Fe69  1  0.86503218  0.37291619  0.84916447  1
  Fe  Fe70  1  0.58813140  0.16771904  0.28396466  1
  Fe  Fe71  1  0.65022435  0.66150130  0.32785401  1
  Fe  Fe72  1  0.64425899  0.22834095  0.70868514  1
  Fe  Fe73  1  0.69453955  0.67404803  0.19400198  1
  Fe  Fe74  1  0.54584116  0.19156723  0.79184343  1
  Fe  Fe75  1  0.49103931  0.30398674  0.84119902  1
  Fe  Fe76  1  0.63479020  0.26893725  0.86981407  1
  Fe  Fe77  1  0.17739519  -0.06648443  0.51914268  1
  Fe  Fe78  1  0.58480276  0.70212243  0.57076364  1
  Fe  Fe79  1  0.57744772  0.73303219  0.42707745  1
  Fe  Fe80  1  0.11875566  0.04817075  0.45912463  1
  Fe  Fe81  1  1.14837167  0.72661345  0.94231782  1
  Fe  Fe82  1  0.61149668  0.34627903  0.12630888  1
  Fe  Fe83  1  0.76445874  0.69877380  0.06194467  1
  Fe  Fe84  1  0.48576913  0.61738025  0.51758942  1
  Fe  Fe85  1  0.25471145  0.96850074  0.40562442  1
  Fe  Fe86  1  1.02599557  0.70139058  0.87905728  1
  Fe  Fe87  1  0.50919491  0.62000387  0.36932855  1
  Fe  Fe88  1  0.36862365  0.85517264  0.02720763  1
  Fe  Fe89  1  0.30363682  0.44037295  0.08119073  1
  Fe  Fe90  1  0.71454330  0.33965028  0.21235301  1
  Fe  Fe91  1  0.38999340  0.56909226  0.42481091  1
  Fe  Fe92  1  0.91726015  0.76725424  0.80708292  1
  Fe  Fe93  1  0.38726014  0.56304959  0.28624733  1
  Fe  Fe94  1  0.30193597  0.63694504  0.18402176  1
  Fe  Fe95  1  0.28974550  0.76850385  0.93412186  1
  Fe  Fe96  1  0.86909403  -0.00265826  0.37051062  1
  Fe  Fe97  1  0.87773771  0.23849490  0.83241992  1
  Fe  Fe98  1  0.75373785  0.28942561  0.78716833  1
  Fe  Fe99  1  0.19711746  0.09616682  0.35530619  1
  Fe  Fe100  1  0.89563870  0.87281998  0.36011096  1
  Fe  Fe101  1  -0.10229744  0.30026862  0.71161223  1
  Bi  Bi102  1  0.33173486  0.40961347  0.36671258  1
  Bi  Bi103  1  0.55420168  0.89047253  0.05653405  1
  Bi  Bi104  1  0.06223205  0.26424787  0.66863278  1
  Bi  Bi105  1  -0.16981089  0.91182006  0.79431627  1
  Bi  Bi106  1  0.26721275  0.09296939  0.19532668  1
  Bi  Bi107  1  0.36045018  -0.01483442  0.54684602  1
  Bi  Bi108  1  0.39865803  0.67341734  0.03767389  1
  Bi  Bi109  1  -0.02081155  -0.05698214  0.48854755  1
  Bi  Bi110  1  0.53488216  0.23603574  0.00644897  1
  Bi  Bi111  1  -0.08400742  0.63507232  0.00231329  1
  Bi  Bi112  1  0.71800195  0.07052566  0.35172672  1
  Bi  Bi113  1  0.71072604  0.44214404  0.86340336  1
  Bi  Bi114  1  0.30322870  -0.07306506  -0.12721297  1
  Bi  Bi115  1  0.71958982  0.61485597  0.62649017  1
  Bi  Bi116  1  0.12874413  0.61586957  0.75042047  1
  Bi  Bi117  1  0.13198820  0.13182922  0.89028706  1
  Bi  Bi118  1  0.38057072  0.17914984  0.78654044  1
  Bi  Bi119  1  0.08245917  0.80640106  0.09124730  1
  Bi  Bi120  1  0.60732023  0.87236624  0.52233940  1
  Bi  Bi121  1  0.89058306  0.95181358  0.20263813  1
  Bi  Bi122  1  0.08395748  0.90743006  0.66886291  1
  Bi  Bi123  1  0.19592972  0.79756114  0.41035369  1
  Bi  Bi124  1  0.79033977  0.18118583  0.64766822  1
  Bi  Bi125  1  0.87041347  0.34666016  0.42498538  1
  Bi  Bi126  1  0.05835120  0.36699832  0.37430528  1
  Bi  Bi127  1  0.44227076  0.69639281  0.67354017  1
