# generated using pymatgen
data_Ba51Fe51Bi26
_symmetry_space_group_name_H-M   'P 1'
_cell_length_a   16.01905232
_cell_length_b   16.63201962
_cell_length_c   16.57517360
_cell_angle_alpha   90.91236003
_cell_angle_beta   89.82978485
_cell_angle_gamma   90.53899447
_symmetry_Int_Tables_number   1
_chemical_formula_structural   Ba51Fe51Bi26
_chemical_formula_sum   'Ba51 Fe51 Bi26'
_cell_volume   4415.33729477
_cell_formula_units_Z   1
loop_
 _symmetry_equiv_pos_site_id
 _symmetry_equiv_pos_as_xyz
  1  'x, y, z'
loop_
 _atom_site_type_symbol
 _atom_site_label
 _atom_site_symmetry_multiplicity
 _atom_site_fract_x
 _atom_site_fract_y
 _atom_site_fract_z
 _atom_site_occupancy
  Ba  Ba0  1  0.03153292  -0.04694827  0.71459899  1
  Ba  Ba1  1  0.73835351  0.14090716  -0.04552701  1
  Ba  Ba2  1  -0.01145174  0.03990047  0.20063164  1
  Ba  Ba3  1  0.25517950  0.52749183  0.20519989  1
  Ba  Ba4  1  0.76123648  0.22867397  0.21804173  1
  Ba  Ba5  1  0.30681910  0.73562092  0.36969586  1
  Ba  Ba6  1  0.55896946  0.31606783  0.55916798  1
  Ba  Ba7  1  0.04973341  0.78545514  0.26723038  1
  Ba  Ba8  1  0.46460510  0.04998478  0.57103340  1
  Ba  Ba9  1  0.76491798  0.12768866  0.65141078  1
  Ba  Ba10  1  0.23955487  0.75381769  0.08947689  1
  Ba  Ba11  1  0.03078493  0.20915620  0.50893492  1
  Ba  Ba12  1  0.80625579  0.56096283  0.45632216  1
  Ba  Ba13  1  0.73403091  0.55135997  0.21989072  1
  Ba  Ba14  1  0.47788847  0.70753666  -0.04771562  1
  Ba  Ba15  1  0.49557228  0.79520569  0.53193429  1
  Ba  Ba16  1  0.50970104  -0.01908924  -0.00664454  1
  Ba  Ba17  1  0.79814018  0.29159477  0.43925635  1
  Ba  Ba18  1  0.23246984  -0.04327165  0.29969357  1
  Ba  Ba19  1  0.25167253  0.78418304  0.78689138  1
  Ba  Ba20  1  0.29193705  0.26831619  0.49993931  1
  Ba  Ba21  1  0.49074292  0.23431551  0.32559339  1
  Ba  Ba22  1  0.20301090  0.04802768  0.53146999  1
  Ba  Ba23  1  0.28328162  0.04028341  0.07613036  1
  Ba  Ba24  1  0.50099982  0.24942285  0.01771986  1
  Ba  Ba25  1  0.48260797  0.41659817  0.19179320  1
  Ba  Ba26  1  0.70197558  -0.08765135  0.45141780  1
  Ba  Ba27  1  -0.13502790  0.71463265  0.70665132  1
  Ba  Ba28  1  -0.04650074  -0.04102733  0.45007935  1
  Ba  Ba29  1  0.00610353  0.74118834  -0.02976756  1
  Ba  Ba30  1  -0.04995661  0.28590458  -0.03666178  1
  Ba  Ba31  1  0.76671764  -0.08404161  0.84894017  1
  Ba  Ba32  1  0.10386661  0.29699224  0.15486589  1
  Ba  Ba33  1  -0.01248827  0.55776382  0.21982673  1
  Ba  Ba34  1  0.45632136  0.62326909  0.70530182  1
  Ba  Ba35  1  0.17025844  0.55464607  0.72873667  1
  Ba  Ba36  1  0.09718417  0.39478269  0.37173007  1
  Ba  Ba37  1  -0.08072842  0.51540705  -0.09768386  1
  Ba  Ba38  1  0.05462570  0.06575138  -0.04563823  1
  Ba  Ba39  1  0.71137930  0.52097315  0.70934895  1
  Ba  Ba40  1  0.71524205  0.43216667  0.00768748  1
  Ba  Ba41  1  0.51651502  0.00169527  0.29912354  1
  Ba  Ba42  1  0.06129861  0.72064327  0.54322853  1
  Ba  Ba43  1  0.26239589  0.03203314  0.78152977  1
  Ba  Ba44  1  0.54069336  0.73152608  0.23110204  1
  Ba  Ba45  1  0.52320619  -0.10560057  0.75388009  1
  Ba  Ba46  1  0.48623102  0.53748230  0.44373226  1
  Ba  Ba47  1  -0.06127063  0.41059990  0.65253333  1
  Ba  Ba48  1  0.59312588  0.30410400  0.79817370  1
  Ba  Ba49  1  0.29030736  0.27100601  0.72179620  1
  Ba  Ba50  1  0.22132734  0.25508466  -0.05624896  1
  Fe  Fe51  1  0.27073529  0.47613032  0.48336352  1
  Fe  Fe52  1  0.35156667  0.52408448  0.02313394  1
  Fe  Fe53  1  0.76997924  0.75369228  0.53827882  1
  Fe  Fe54  1  0.96020680  0.25456693  0.76115797  1
  Fe  Fe55  1  0.27415488  0.13111177  0.36512240  1
  Fe  Fe56  1  0.14121633  0.17539679  0.34037968  1
  Fe  Fe57  1  0.81764231  0.64541039  0.01412934  1
  Fe  Fe58  1  0.70036652  0.61289904  0.91960641  1
  Fe  Fe59  1  0.76389686  0.74802786  0.29725676  1
  Fe  Fe60  1  0.68625978  0.67437045  0.05016277  1
  Fe  Fe61  1  0.08708163  0.27556920  0.68217691  1
  Fe  Fe62  1  0.77135382  0.02025375  0.11236859  1
  Fe  Fe63  1  0.45507682  0.43403477  0.76984052  1
  Fe  Fe64  1  0.10251701  0.57212632  0.04431468  1
  Fe  Fe65  1  0.66460896  0.68896171  0.59189065  1
  Fe  Fe66  1  0.99423924  0.14631773  0.68272719  1
  Fe  Fe67  1  0.39302247  0.51347889  0.88410272  1
  Fe  Fe68  1  0.25812940  0.25810559  0.29731408  1
  Fe  Fe69  1  0.32403804  0.44879354  0.77271247  1
  Fe  Fe70  1  0.66639586  0.96443177  0.17188829  1
  Fe  Fe71  1  0.19999271  0.14077040  0.22388410  1
  Fe  Fe72  1  0.26073981  0.44152701  0.90200656  1
  Fe  Fe73  1  0.41606499  0.19610788  0.85321456  1
  Fe  Fe74  1  0.48024188  0.15822767  0.73041961  1
  Fe  Fe75  1  0.06893708  0.90216050  0.07695014  1
  Fe  Fe76  1  0.44852956  1.06541800  0.81693834  1
  Fe  Fe77  1  0.04552371  0.45251658  0.06223169  1
  Fe  Fe78  1  0.17373523  0.86377596  0.47519652  1
  Fe  Fe79  1  0.55242449  0.13225071  0.86898640  1
  Fe  Fe80  1  0.07975100  0.18939571  0.80444063  1
  Fe  Fe81  1  0.20540543  0.57688847  0.52624172  1
  Fe  Fe82  1  0.68418063  0.75928955  0.93768157  1
  Fe  Fe83  1  0.39447736  0.35634971  0.87807009  1
  Fe  Fe84  1  0.30696210  0.88161768  0.50310382  1
  Fe  Fe85  1  0.13248068  0.14813258  0.68522182  1
  Fe  Fe86  1  0.79714433  0.88001919  0.14733660  1
  Fe  Fe87  1  0.11586398  0.49003358  0.93536617  1
  Fe  Fe88  1  0.59121242  0.07893572  0.75485240  1
  Fe  Fe89  1  0.90868046  0.41368219  0.10919645  1
  Fe  Fe90  1  0.33518455  0.13853600  0.24912410  1
  Fe  Fe91  1  0.79672409  0.78797053  1.02183085  1
  Fe  Fe92  1  0.80299209  0.70428335  0.89229848  1
  Fe  Fe93  1  0.19633885  0.86828464  0.60691853  1
  Fe  Fe94  1  0.91723733  0.36675633  0.22732117  1
  Fe  Fe95  1  0.85094091  0.85275017  0.27970214  1
  Fe  Fe96  1  0.32959366  0.88894226  0.63323471  1
  Fe  Fe97  1  0.68614682  0.81109275  0.64229679  1
  Fe  Fe98  1  0.47385465  0.44619110  -0.01852220  1
  Fe  Fe99  1  0.20514048  0.46092842  1.03751684  1
  Fe  Fe100  1  0.69777573  0.86211850  0.25395190  1
  Fe  Fe101  1  0.34384740  0.38943008  0.01776486  1
  Bi  Bi102  1  0.23831370  0.61638989  -0.06905172  1
  Bi  Bi103  1  0.90346515  -0.06594520  0.02495916  1
  Bi  Bi104  1  0.63540047  0.83566897  0.07448040  1
  Bi  Bi105  1  0.32237455  0.26216650  0.13785441  1
  Bi  Bi106  1  0.65094529  0.72068761  0.77809654  1
  Bi  Bi107  1  0.28757336  0.71848134  0.58667602  1
  Bi  Bi108  1  0.57105663  0.51283636  0.86357651  1
  Bi  Bi109  1  0.08895282  0.37186726  0.82023418  1
  Bi  Bi110  1  0.55441213  0.56842301  0.08084818  1
  Bi  Bi111  1  0.86645769  0.71963159  0.15895105  1
  Bi  Bi112  1  0.14212616  0.40361021  0.57766246  1
  Bi  Bi113  1  0.89140170  0.75558111  0.41399137  1
  Bi  Bi114  1  0.79152523  0.01264348  0.28541609  1
  Bi  Bi115  1  0.64842316  0.69187583  0.41567346  1
  Bi  Bi116  1  0.33896719  0.40098249  0.34971179  1
  Bi  Bi117  1  0.13709083  0.60468971  0.37537700  1
  Bi  Bi118  1  0.63714162  0.13611575  0.45908794  1
  Bi  Bi119  1  0.64258703  0.40596343  0.35684840  1
  Bi  Bi120  1  0.96551074  0.22625975  0.30877043  1
  Bi  Bi121  1  0.90038209  0.10156098  0.81637467  1
  Bi  Bi122  1  0.80798360  0.34028688  0.81041892  1
  Bi  Bi123  1  0.17383353  0.89620607  0.94476916  1
  Bi  Bi124  1  0.39361095  0.87656630  0.16892173  1
  Bi  Bi125  1  0.60556992  0.11153542  0.13453151  1
  Bi  Bi126  1  0.82858512  0.90797950  0.62914356  1
  Bi  Bi127  1  0.38434758  0.44319533  0.61411644  1
