# generated using pymatgen
data_Ba51Fe51Bi26
_symmetry_space_group_name_H-M   'P 1'
_cell_length_a   16.64722904
_cell_length_b   15.55357760
_cell_length_c   16.91926868
_cell_angle_alpha   85.61507632
_cell_angle_beta   90.97685317
_cell_angle_gamma   87.98369849
_symmetry_Int_Tables_number   1
_chemical_formula_structural   Ba51Fe51Bi26
_chemical_formula_sum   'Ba51 Fe51 Bi26'
_cell_volume   4364.42023736
_cell_formula_units_Z   1
loop_
 _symmetry_equiv_pos_site_id
 _symmetry_equiv_pos_as_xyz
  1  'x, y, z'
loop_
 _atom_site_type_symbol
 _atom_site_label
 _atom_site_symmetry_multiplicity
 _atom_site_fract_x
 _atom_site_fract_y
 _atom_site_fract_z
 _atom_site_occupancy
  Ba  Ba0  1  0.14918158  0.52041009  -0.09402523  1
  Ba  Ba1  1  0.73131244  -0.03215046  0.12583033  1
  Ba  Ba2  1  0.45580985  0.26503704  0.76016985  1
  Ba  Ba3  1  0.19263967  -0.00712891  0.42510764  1
  Ba  Ba4  1  -0.00444759  0.34199463  0.21647744  1
  Ba  Ba5  1  0.13158620  0.48473660  0.35866228  1
  Ba  Ba6  1  0.34227394  0.87728534  -0.02976068  1
  Ba  Ba7  1  -0.04426219  0.43156397  -0.18439495  1
  Ba  Ba8  1  0.43056170  0.85036680  0.38771740  1
  Ba  Ba9  1  0.49521713  0.44770705  0.54212223  1
  Ba  Ba10  1  0.64928678  0.02051166  0.35841410  1
  Ba  Ba11  1  -0.06069473  0.84115462  -0.01287887  1
  Ba  Ba12  1  -0.01265599  -0.00006069  0.53920709  1
  Ba  Ba13  1  0.47974692  0.62556180  0.26737443  1
  Ba  Ba14  1  0.46203244  0.28338273  0.10672771  1
  Ba  Ba15  1  0.49029627  0.04162127  0.54407062  1
  Ba  Ba16  1  0.58447585  0.02870546  -0.07939947  1
  Ba  Ba17  1  0.62899217  0.66240057  0.46663694  1
  Ba  Ba18  1  0.55686988  0.75998104  0.06496629  1
  Ba  Ba19  1  0.75202325  0.36074489  0.53324070  1
  Ba  Ba20  1  0.79756357  0.24238552  0.04907309  1
  Ba  Ba21  1  0.83050971  0.81247166  0.46292643  1
  Ba  Ba22  1  -0.05611017  0.00625703  0.25972595  1
  Ba  Ba23  1  -0.06508470  0.70062380  0.67955365  1
  Ba  Ba24  1  0.60185119  0.39260924  0.30730371  1
  Ba  Ba25  1  0.18196354  0.29692255  0.04552655  1
  Ba  Ba26  1  0.78644067  0.45451352  0.18731006  1
  Ba  Ba27  1  0.05266257  -0.11578508  0.76876687  1
  Ba  Ba28  1  0.19974618  0.73285478  0.13071207  1
  Ba  Ba29  1  0.30235930  0.67563762  0.51450900  1
  Ba  Ba30  1  0.75361048  0.06657471  0.58696116  1
  Ba  Ba31  1  -0.00574398  0.09606585  -0.08070704  1
  Ba  Ba32  1  0.87941418  0.54517253  0.41838614  1
  Ba  Ba33  1  0.70514706  0.74811483  0.69266057  1
  Ba  Ba34  1  0.08821301  0.75257891  0.37919118  1
  Ba  Ba35  1  0.75060732  0.54305919  0.82942758  1
  Ba  Ba36  1  0.36044572  0.54475707  0.74940380  1
  Ba  Ba37  1  0.31579723  0.17192427  -0.09297121  1
  Ba  Ba38  1  0.34207078  0.21648749  0.54280877  1
  Ba  Ba39  1  -0.02228203  0.18575632  0.69883857  1
  Ba  Ba40  1  0.54965185  0.46838233  0.91288140  1
  Ba  Ba41  1  0.48679336  0.02811906  0.18623855  1
  Ba  Ba42  1  0.79913398  0.21798932  0.35192622  1
  Ba  Ba43  1  0.12848591  0.28357209  0.51329165  1
  Ba  Ba44  1  0.51463860  0.85067754  0.75421516  1
  Ba  Ba45  1  0.11293835  0.54926435  0.62337341  1
  Ba  Ba46  1  0.28013189  -0.10625029  0.67632340  1
  Ba  Ba47  1  0.35613437  0.54423888  0.07902082  1
  Ba  Ba48  1  -0.01656816  0.61274356  0.13013432  1
  Ba  Ba49  1  0.20215330  0.21667047  0.27391142  1
  Ba  Ba50  1  0.76685882  0.64052247  0.03147090  1
  Fe  Fe51  1  0.74201749  0.95069751  0.78393019  1
  Fe  Fe52  1  0.23463497  0.94291037  0.11395454  1
  Fe  Fe53  1  0.88790227  0.44513405  0.01199210  1
  Fe  Fe54  1  0.60079963  0.67752287  0.87771395  1
  Fe  Fe55  1  -0.02178080  0.69360822  0.86489681  1
  Fe  Fe56  1  0.87112277  0.98210446  0.77493683  1
  Fe  Fe57  1  0.50485523  0.20922921  0.32141257  1
  Fe  Fe58  1  0.20820209  0.22590685  0.72058219  1
  Fe  Fe59  1  0.25547748  0.36256246  0.66635231  1
  Fe  Fe60  1  0.29145510  0.09871576  0.72931362  1
  Fe  Fe61  1  0.85289550  0.70023278  0.86951912  1
  Fe  Fe62  1  0.75201190  0.24817897  0.70635085  1
  Fe  Fe63  1  0.65304385  0.21677573  0.78731830  1
  Fe  Fe64  1  0.37323486  0.47605593  0.37661826  1
  Fe  Fe65  1  0.77925271  0.83318702  0.27491179  1
  Fe  Fe66  1  0.74657981  0.18209784  0.88564917  1
  Fe  Fe67  1  0.72403818  0.52082503  0.64080487  1
  Fe  Fe68  1  0.68122620  0.62817690  0.23995798  1
  Fe  Fe69  1  0.15634462  0.05942968  0.17716687  1
  Fe  Fe70  1  0.86285273  0.51112897  0.65008191  1
  Fe  Fe71  1  0.75395483  0.69697981  0.32420748  1
  Fe  Fe72  1  0.36350816  0.00301661  0.81377203  1
  Fe  Fe73  1  0.85564647  0.79093200  0.16000130  1
  Fe  Fe74  1  0.83745819  0.25325443  0.81039868  1
  Fe  Fe75  1  0.16643156  0.06437853  0.03000169  1
  Fe  Fe76  1  0.14469207  -0.07007054  1.00039641  1
  Fe  Fe77  1  0.44651719  0.32313619  0.39911847  1
  Fe  Fe78  1  0.41796167  0.39235947  0.26701131  1
  Fe  Fe79  1  0.72375661  0.33271884  0.83686855  1
  Fe  Fe80  1  0.29476944  0.45047459  0.25830659  1
  Fe  Fe81  1  0.77383650  0.10606989  0.77472088  1
  Fe  Fe82  1  0.38169432  0.25757626  0.29403042  1
  Fe  Fe83  1  0.43234642  1.06478455  0.72417145  1
  Fe  Fe84  1  0.92175459  0.23448980  0.51043313  1
  Fe  Fe85  1  0.27900684  0.97887378  0.24168878  1
  Fe  Fe86  1  0.82553017  0.64820844  0.22545060  1
  Fe  Fe87  1  0.72599963  0.75317909  0.17577379  1
  Fe  Fe88  1  -0.06536958  0.57959818  -0.05527594  1
  Fe  Fe89  1  0.30633100  0.35178247  0.37759135  1
  Fe  Fe90  1  0.12509853  0.35507261  0.70189727  1
  Fe  Fe91  1  0.79678759  0.38938773  0.71595252  1
  Fe  Fe92  1  0.15027482  0.92195445  0.23139883  1
  Fe  Fe93  1  0.24126101  0.36058841  0.79435213  1
  Fe  Fe94  1  0.94539350  0.33624798  0.42662075  1
  Fe  Fe95  1  0.07477586  0.96830730  1.10555656  1
  Fe  Fe96  1  0.89312710  0.75155089  0.28682043  1
  Fe  Fe97  1  0.01672221  0.45510046  0.02702070  1
  Fe  Fe98  1  0.79636308  0.61219061  0.57701888  1
  Fe  Fe99  1  0.85470790  0.83775055  0.80925191  1
  Fe  Fe100  1  0.97989682  0.32325245  0.01052936  1
  Fe  Fe101  1  0.54267847  0.63439730  0.77733198  1
  Bi  Bi102  1  0.37945269  0.08120179  0.35799549  1
  Bi  Bi103  1  0.60318114  0.06754869  0.72249696  1
  Bi  Bi104  1  0.01709994  0.82046686  0.18989514  1
  Bi  Bi105  1  0.16070948  0.48305703  0.14232643  1
  Bi  Bi106  1  0.02174797  0.15860843  0.11010481  1
  Bi  Bi107  1  -0.03575268  0.38967877  0.58808676  1
  Bi  Bi108  1  0.10872956  0.27574976  0.85282631  1
  Bi  Bi109  1  0.60066656  0.24956386  -0.05890980  1
  Bi  Bi110  1  0.19722464  0.00473772  -0.14451552  1
  Bi  Bi111  1  0.61092398  0.81304391  0.27616357  1
  Bi  Bi112  1  0.28131102  0.44885017  0.51997289  1
  Bi  Bi113  1  0.62238687  0.39782401  0.71116196  1
  Bi  Bi114  1  0.80215482  0.01659111  0.92955583  1
  Bi  Bi115  1  0.63166062  0.87784221  0.52595447  1
  Bi  Bi116  1  0.43772324  0.67867641  0.90479966  1
  Bi  Bi117  1  0.34535779  0.39719590  0.92306810  1
  Bi  Bi118  1  0.37448355  0.83894054  0.17993104  1
  Bi  Bi119  1  0.70397431  0.81208108  0.89636437  1
  Bi  Bi120  1  0.59150541  0.22862025  0.46753575  1
  Bi  Bi121  1  0.64116119  0.19529539  0.20906311  1
  Bi  Bi122  1  0.28025948  0.62850326  0.31318936  1
  Bi  Bi123  1  0.30541674  0.11233874  0.11177874  1
  Bi  Bi124  1  0.16304803  0.08369412  0.62244382  1
  Bi  Bi125  1  0.48689285  0.67203253  0.62257062  1
  Bi  Bi126  1  0.10926349  0.79840541  0.57811313  1
  Bi  Bi127  1  0.01055835  0.16869121  0.38368447  1
