# generated using pymatgen
data_Ba51Fe51Bi26
_symmetry_space_group_name_H-M   'P 1'
_cell_length_a   16.09028215
_cell_length_b   16.71422586
_cell_length_c   16.43640868
_cell_angle_alpha   89.45735968
_cell_angle_beta   89.16295314
_cell_angle_gamma   89.52115614
_symmetry_Int_Tables_number   1
_chemical_formula_structural   Ba51Fe51Bi26
_chemical_formula_sum   'Ba51 Fe51 Bi26'
_cell_volume   4419.53277645
_cell_formula_units_Z   1
loop_
 _symmetry_equiv_pos_site_id
 _symmetry_equiv_pos_as_xyz
  1  'x, y, z'
loop_
 _atom_site_type_symbol
 _atom_site_label
 _atom_site_symmetry_multiplicity
 _atom_site_fract_x
 _atom_site_fract_y
 _atom_site_fract_z
 _atom_site_occupancy
  Ba  Ba0  1  0.84340346  0.51808748  0.52288334  1
  Ba  Ba1  1  0.39364054  0.26144444  0.75341644  1
  Ba  Ba2  1  0.68474560  0.28832614  0.21602520  1
  Ba  Ba3  1  0.40137835  0.03608887  -0.01761754  1
  Ba  Ba4  1  0.06765852  0.70215679  0.23109017  1
  Ba  Ba5  1  0.31069781  0.78354169  0.23927616  1
  Ba  Ba6  1  0.73047882  0.79595238  0.28878424  1
  Ba  Ba7  1  0.64549469  0.22515664  0.77327720  1
  Ba  Ba8  1  0.24198994  0.46379997  0.06870500  1
  Ba  Ba9  1  0.02072130  0.86461639  0.66817177  1
  Ba  Ba10  1  0.30276957  0.56416692  0.49791215  1
  Ba  Ba11  1  0.05714894  -0.08214440  0.32349514  1
  Ba  Ba12  1  0.27759199  0.78507795  -0.06010217  1
  Ba  Ba13  1  0.81930664  0.71854108  0.68150965  1
  Ba  Ba14  1  0.79866435  -0.07676556  0.47813929  1
  Ba  Ba15  1  0.24693873  0.73585578  0.66377216  1
  Ba  Ba16  1  0.54905947  0.50873979  0.06337338  1
  Ba  Ba17  1  -0.01818736  0.24513273  0.32944407  1
  Ba  Ba18  1  0.74888370  0.60299297  -0.11327498  1
  Ba  Ba19  1  0.14498938  0.22319343  0.74920802  1
  Ba  Ba20  1  0.21858916  0.50351640  0.82872746  1
  Ba  Ba21  1  0.40856991  0.51199183  0.26761370  1
  Ba  Ba22  1  0.50587242  0.73760974  0.73918338  1
  Ba  Ba23  1  0.71408315  0.43358887  0.71931236  1
  Ba  Ba24  1  -0.01727891  0.08214234  0.56962068  1
  Ba  Ba25  1  0.54685993  0.00062023  0.49170034  1
  Ba  Ba26  1  -0.09351637  0.24747747  0.04695308  1
  Ba  Ba27  1  -0.10912992  0.20604481  0.77062504  1
  Ba  Ba28  1  0.13570954  0.10894866  0.00053903  1
  Ba  Ba29  1  -0.08695166  0.68540266  0.06004966  1
  Ba  Ba30  1  0.50459363  0.27845880  -0.01343811  1
  Ba  Ba31  1  0.53114878  0.01253776  0.75017334  1
  Ba  Ba32  1  0.47291335  0.34744677  0.50225248  1
  Ba  Ba33  1  0.23114621  0.22999240  0.51470592  1
  Ba  Ba34  1  0.52562863  -0.06767406  0.16983013  1
  Ba  Ba35  1  0.72566405  0.36568526  -0.04495212  1
  Ba  Ba36  1  0.67397333  0.54936956  0.29007584  1
  Ba  Ba37  1  0.50744676  0.14484873  0.29053924  1
  Ba  Ba38  1  0.24826774  -0.03054700  0.49608672  1
  Ba  Ba39  1  0.08556437  0.46034129  0.49609139  1
  Ba  Ba40  1  -0.01739536  0.46610613  -0.00062052  1
  Ba  Ba41  1  0.81193065  0.05554204  0.19424472  1
  Ba  Ba42  1  0.32228440  0.23908480  0.13334083  1
  Ba  Ba43  1  0.01047802  0.46434954  0.24664743  1
  Ba  Ba44  1  0.04060746  -0.10888049  -0.00625976  1
  Ba  Ba45  1  0.45895058  0.50523477  0.69031738  1
  Ba  Ba46  1  0.53079929  0.74248882  -0.00053877  1
  Ba  Ba47  1  0.05009237  0.68418336  0.83227147  1
  Ba  Ba48  1  0.75199848  0.86860358  0.03297559  1
  Ba  Ba49  1  0.75038364  0.25032847  0.50314034  1
  Ba  Ba50  1  0.77613060  -0.02441850  0.81100166  1
  Fe  Fe51  1  0.74762432  0.14765167  0.93076653  1
  Fe  Fe52  1  0.66570957  0.00969369  0.32129225  1
  Fe  Fe53  1  0.23291106  0.99762867  0.26868743  1
  Fe  Fe54  1  0.49134345  0.82450761  0.36377154  1
  Fe  Fe55  1  0.95027774  0.76777064  0.40993626  1
  Fe  Fe56  1  0.21648053  0.37351941  0.24150981  1
  Fe  Fe57  1  0.83069404  0.41354906  0.16651209  1
  Fe  Fe58  1  0.71978229  1.05694367  0.02580840  1
  Fe  Fe59  1  0.69397123  0.72169011  0.50088812  1
  Fe  Fe60  1  0.54386295  0.55041660  0.86861082  1
  Fe  Fe61  1  0.19890414  0.36958297  0.36813825  1
  Fe  Fe62  1  0.70837399  0.11952256  0.35497538  1
  Fe  Fe63  1  0.18093787  0.11919119  0.21539804  1
  Fe  Fe64  1  0.11120552  0.66507890  0.54080758  1
  Fe  Fe65  1  0.76961535  0.49731874  0.08335055  1
  Fe  Fe66  1  0.42607909  0.79905436  0.49933217  1
  Fe  Fe67  1  0.92963665  0.39956464  0.69338797  1
  Fe  Fe68  1  0.07104937  0.40424206  0.69495949  1
  Fe  Fe69  1  0.29080487  0.12742413  0.31508041  1
  Fe  Fe70  1  0.60660284  0.12652605  0.93170894  1
  Fe  Fe71  1  0.20346755  0.03915487  0.82280609  1
  Fe  Fe72  1  0.60869258  1.00391515  0.97218326  1
  Fe  Fe73  1  0.31712493  0.94271063  0.79724200  1
  Fe  Fe74  1  0.07855480  0.78032463  0.47496963  1
  Fe  Fe75  1  0.33098131  0.08072010  0.80685623  1
  Fe  Fe76  1  0.16178068  0.91329525  0.80858230  1
  Fe  Fe77  1  0.29878914  0.04966064  0.68559068  1
  Fe  Fe78  1  0.66667762  0.41332734  0.42674855  1
  Fe  Fe79  1  0.12783113  0.65872989  0.40696401  1
  Fe  Fe80  1  0.41419188  0.58126291  0.91016094  1
  Fe  Fe81  1  0.63803785  0.46186563  0.54019285  1
  Fe  Fe82  1  0.43995866  0.69899428  0.40359768  1
  Fe  Fe83  1  0.89268044  0.51940379  0.75414534  1
  Fe  Fe84  1  0.00345588  0.35564191  0.82237423  1
  Fe  Fe85  1  0.58519640  0.81780771  0.46428093  1
  Fe  Fe86  1  0.55634651  0.42016375  0.85582700  1
  Fe  Fe87  1  0.68405321  0.19555307  0.04239796  1
  Fe  Fe88  1  0.23184481  0.92126581  0.69078502  1
  Fe  Fe89  1  0.42836731  0.45157182  0.89277814  1
  Fe  Fe90  1  0.97074901  0.71336869  0.55419300  1
  Fe  Fe91  1  0.53505600  0.70353388  0.53384163  1
  Fe  Fe92  1  0.58530450  0.69853901  0.39360449  1
  Fe  Fe93  1  0.19057513  0.24103728  0.29605433  1
  Fe  Fe94  1  0.84148371  0.55127134  0.17723203  1
  Fe  Fe95  1  0.84227347  0.71087713  0.47457977  1
  Fe  Fe96  1  0.01538868  0.48561278  0.80035043  1
  Fe  Fe97  1  0.99214361  0.63877149  0.44201583  1
  Fe  Fe98  1  0.15679108  0.03026558  0.69267960  1
  Fe  Fe99  1  0.59124500  0.10576818  0.07872042  1
  Fe  Fe100  1  0.87948739  0.41298775  0.83580482  1
  Fe  Fe101  1  0.32714053  0.05594840  0.19164783  1
  Bi  Bi102  1  0.88677661  0.05335868  -0.01766023  1
  Bi  Bi103  1  0.02685404  0.03657286  0.80198774  1
  Bi  Bi104  1  0.25066789  0.76403563  0.44768733  1
  Bi  Bi105  1  0.19991935  0.53652198  0.30541179  1
  Bi  Bi106  1  0.35454618  0.29861336  0.33416162  1
  Bi  Bi107  1  0.39030615  -0.02946734  0.33190015  1
  Bi  Bi108  1  -0.00730365  0.28796156  0.57939869  1
  Bi  Bi109  1  0.39308615  -0.10224117  0.63924590  1
  Bi  Bi110  1  0.51935055  0.71422144  0.23661168  1
  Bi  Bi111  1  0.87479716  0.63724847  0.32098460  1
  Bi  Bi112  1  0.52027951  0.54657142  0.45182677  1
  Bi  Bi113  1  0.64976272  0.84385344  0.61802867  1
  Bi  Bi114  1  0.02040897  0.58166749  0.65722101  1
  Bi  Bi115  1  0.25309054  0.39880610  0.64638831  1
  Bi  Bi116  1  0.87641406  0.79693927  0.86937536  1
  Bi  Bi117  1  0.12770013  0.63875272  0.02210508  1
  Bi  Bi118  1  0.64747220  0.60723155  0.62587414  1
  Bi  Bi119  1  0.10543509  0.28386606  0.14232923  1
  Bi  Bi120  1  0.54140913  0.17759637  0.59994758  1
  Bi  Bi121  1  0.70533985  0.65608201  0.09701456  1
  Bi  Bi122  1  0.36337473  0.63197037  0.06775128  1
  Bi  Bi123  1  0.73955623  0.08299241  0.62972106  1
  Bi  Bi124  1  0.23908109  0.94291793  0.10148568  1
  Bi  Bi125  1  0.12468715  0.10270943  0.38434112  1
  Bi  Bi126  1  0.81902440  0.38896086  0.34276956  1
  Bi  Bi127  1  0.91363750  0.86364315  0.18026378  1
