# generated using pymatgen
data_Ba51Fe51Bi26
_symmetry_space_group_name_H-M   'P 1'
_cell_length_a   16.47980363
_cell_length_b   16.46370965
_cell_length_c   16.35279654
_cell_angle_alpha   90.33509483
_cell_angle_beta   90.42042222
_cell_angle_gamma   90.87585681
_symmetry_Int_Tables_number   1
_chemical_formula_structural   Ba51Fe51Bi26
_chemical_formula_sum   'Ba51 Fe51 Bi26'
_cell_volume   4436.10288764
_cell_formula_units_Z   1
loop_
 _symmetry_equiv_pos_site_id
 _symmetry_equiv_pos_as_xyz
  1  'x, y, z'
loop_
 _atom_site_type_symbol
 _atom_site_label
 _atom_site_symmetry_multiplicity
 _atom_site_fract_x
 _atom_site_fract_y
 _atom_site_fract_z
 _atom_site_occupancy
  Ba  Ba0  1  -0.12550014  0.50030611  0.52209602  1
  Ba  Ba1  1  0.61864296  0.49271128  0.39476720  1
  Ba  Ba2  1  0.01575270  0.78219652  0.26316110  1
  Ba  Ba3  1  0.45063617  0.88199661  0.78625655  1
  Ba  Ba4  1  0.03505645  0.24905690  0.18766258  1
  Ba  Ba5  1  0.05697501  0.45586679  0.29526994  1
  Ba  Ba6  1  0.37975689  0.84207982  0.44407928  1
  Ba  Ba7  1  0.03472087  0.04547236  0.60432764  1
  Ba  Ba8  1  0.71719147  0.27630317  0.59420657  1
  Ba  Ba9  1  0.50052943  0.01676676  0.27669616  1
  Ba  Ba10  1  0.35784792  0.44426397  0.26660786  1
  Ba  Ba11  1  -0.01903671  0.31078360  0.79577565  1
  Ba  Ba12  1  0.88265028  0.75466123  0.01651144  1
  Ba  Ba13  1  0.04807982  0.80086018  0.76991955  1
  Ba  Ba14  1  0.10133772  0.03071783  0.85417932  1
  Ba  Ba15  1  0.04072360  0.02613302  0.34394104  1
  Ba  Ba16  1  0.80322766  -0.00447883  0.53699145  1
  Ba  Ba17  1  0.68630387  -0.08973809  0.72691684  1
  Ba  Ba18  1  0.73052320  0.68378899  0.81266987  1
  Ba  Ba19  1  0.28916477  0.02393747  0.09669709  1
  Ba  Ba20  1  0.84625833  0.10115812  0.78869722  1
  Ba  Ba21  1  0.53647608  0.36589499  0.74086790  1
  Ba  Ba22  1  0.15837347  0.53506883  -0.04736322  1
  Ba  Ba23  1  0.44672586  0.74092239  0.20489201  1
  Ba  Ba24  1  0.59601412  0.53351456  0.10712068  1
  Ba  Ba25  1  0.24353774  0.39515601  0.71652514  1
  Ba  Ba26  1  0.21545348  0.64191580  0.20865667  1
  Ba  Ba27  1  0.24596550  0.18445487  0.52357496  1
  Ba  Ba28  1  0.16461129  0.57832093  0.47310554  1
  Ba  Ba29  1  0.16470466  0.24951712  -0.04208379  1
  Ba  Ba30  1  0.26980363  0.71460667  0.70205989  1
  Ba  Ba31  1  0.75553308  -0.01054701  0.30442606  1
  Ba  Ba32  1  0.75577462  -0.05525725  0.06284799  1
  Ba  Ba33  1  -0.00989216  0.74126312  0.54813855  1
  Ba  Ba34  1  0.14736831  0.78106678  -0.01128134  1
  Ba  Ba35  1  0.85014342  0.54028096  0.19552842  1
  Ba  Ba36  1  -0.18047789  0.18278438  0.03636464  1
  Ba  Ba37  1  0.74008853  0.71286167  0.54666027  1
  Ba  Ba38  1  0.47459009  0.68740409  -0.06672544  1
  Ba  Ba39  1  0.51216668  0.01018680  0.00780767  1
  Ba  Ba40  1  0.58786644  0.14043781  0.78831639  1
  Ba  Ba41  1  0.52281676  0.04164602  0.55693711  1
  Ba  Ba42  1  0.41613293  0.54036415  0.56491405  1
  Ba  Ba43  1  0.82227331  0.24124434  0.31628166  1
  Ba  Ba44  1  0.05185872  0.00333222  0.08993822  1
  Ba  Ba45  1  0.60079964  0.28871481  -0.00374088  1
  Ba  Ba46  1  0.69846976  0.74698999  0.27809460  1
  Ba  Ba47  1  0.27842416  0.01094443  0.69104950  1
  Ba  Ba48  1  0.56409198  0.27669450  0.26485095  1
  Ba  Ba49  1  0.81334942  0.47462155  0.78411230  1
  Ba  Ba50  1  0.37831759  0.38440130  -0.01400701  1
  Fe  Fe51  1  0.90459330  0.06559831  0.19949760  1
  Fe  Fe52  1  0.45612477  0.67527181  0.72573517  1
  Fe  Fe53  1  0.53898346  0.38140340  0.54163229  1
  Fe  Fe54  1  0.81856289  0.61894706  0.37740968  1
  Fe  Fe55  1  0.90676125  0.33089980  0.62399389  1
  Fe  Fe56  1  0.27852642  0.23069825  0.11391373  1
  Fe  Fe57  1  0.19541342  0.14873521  0.19934239  1
  Fe  Fe58  1  0.41056911  0.09340624  0.84471220  1
  Fe  Fe59  1  0.56312858  0.65454791  0.60913837  1
  Fe  Fe60  1  0.45431044  0.55101659  0.77739940  1
  Fe  Fe61  1  0.19690561  0.18188330  0.33190062  1
  Fe  Fe62  1  0.89556218  0.19597043  0.62163253  1
  Fe  Fe63  1  0.30767478  1.02300324  0.90311342  1
  Fe  Fe64  1  0.31851555  0.27807749  0.35929658  1
  Fe  Fe65  1  0.92435264  0.16221813  0.49735132  1
  Fe  Fe66  1  0.57363671  0.74395352  0.71264680  1
  Fe  Fe67  1  0.25699839  0.90744772  0.85948100  1
  Fe  Fe68  1  0.85636861  0.83819962  0.79387660  1
  Fe  Fe69  1  0.05266206  0.50101398  0.77060141  1
  Fe  Fe70  1  0.17626317  0.89885253  0.20858068  1
  Fe  Fe71  1  0.33143045  0.89529901  0.23933344  1
  Fe  Fe72  1  0.22937980  0.29330595  0.23300963  1
  Fe  Fe73  1  0.93295159  0.49836805  -0.00482502  1
  Fe  Fe74  1  0.43224742  0.33376332  0.44434059  1
  Fe  Fe75  1  0.28084443  0.15532767  0.83081845  1
  Fe  Fe76  1  0.45379874  0.74929394  0.60730281  1
  Fe  Fe77  1  0.60866806  0.79449974  0.08758299  1
  Fe  Fe78  1  0.82316126  0.40766773  0.00219332  1
  Fe  Fe79  1  0.40581222  0.33850516  0.58391072  1
  Fe  Fe80  1  0.57534308  0.58822004  0.73598998  1
  Fe  Fe81  1  0.99174626  0.59258479  0.69011440  1
  Fe  Fe82  1  0.12342913  0.58031699  0.65880887  1
  Fe  Fe83  1  0.02637185  0.24877913  0.58883286  1
  Fe  Fe84  1  -0.04817649  0.62901564  0.38311908  1
  Fe  Fe85  1  0.56460775  0.27527319  0.45891763  1
  Fe  Fe86  1  0.02316752  0.45784339  0.08689565  1
  Fe  Fe87  1  0.26656086  0.82598207  0.14142100  1
  Fe  Fe88  1  0.48998238  0.23733890  0.56307715  1
  Fe  Fe89  1  0.33048989  0.18062889  0.25104546  1
  Fe  Fe90  1  0.11536151  0.62116418  0.78449060  1
  Fe  Fe91  1  0.90482850  0.94096934  0.19638206  1
  Fe  Fe92  1  0.85930224  0.83820345  0.65986632  1
  Fe  Fe93  1  0.40386736  0.22631081  0.86447669  1
  Fe  Fe94  1  0.23684750  0.82314187  0.29684814  1
  Fe  Fe95  1  0.56785311  0.80862343  0.58248479  1
  Fe  Fe96  1  0.34536543  0.16346448  0.96969955  1
  Fe  Fe97  1  0.86770163  0.73980861  0.38802732  1
  Fe  Fe98  1  0.68633558  0.71195701  0.03187390  1
  Fe  Fe99  1  0.18641014  0.31959999  0.36245158  1
  Fe  Fe100  1  0.91562157  0.29621155  0.49722506  1
  Fe  Fe101  1  -0.08171954  0.93775478  0.72460243  1
  Bi  Bi102  1  0.53895884  0.68937482  0.44262929  1
  Bi  Bi103  1  0.27363173  0.39403451  0.48719502  1
  Bi  Bi104  1  0.25342685  0.01937884  0.31865961  1
  Bi  Bi105  1  0.43275511  0.16837706  0.40852416  1
  Bi  Bi106  1  0.77315825  0.56984087  -0.00774321  1
  Bi  Bi107  1  0.35176156  0.85577563  -0.01368201  1
  Bi  Bi108  1  0.18849472  0.40451475  0.11797259  1
  Bi  Bi109  1  0.65595795  0.50201291  0.60851079  1
  Bi  Bi110  1  -0.03022078  0.32727877  0.00179902  1
  Bi  Bi111  1  0.04619063  0.23659347  0.40618170  1
  Bi  Bi112  1  0.05022393  0.42886207  0.61275411  1
  Bi  Bi113  1  0.43854769  0.19180829  0.11147127  1
  Bi  Bi114  1  0.39644365  0.19469291  0.69445200  1
  Bi  Bi115  1  0.62956727  0.83953107  0.92479486  1
  Bi  Bi116  1  0.66485676  0.14403116  0.42537232  1
  Bi  Bi117  1  0.65552016  0.11176087  0.15381201  1
  Bi  Bi118  1  0.74660846  0.28171494  0.84106726  1
  Bi  Bi119  1  0.35345655  0.63491423  0.37623315  1
  Bi  Bi120  1  0.02902945  0.62412116  0.10855632  1
  Bi  Bi121  1  0.96407141  0.62066101  0.85968907  1
  Bi  Bi122  1  0.14782714  0.19438390  0.72431808  1
  Bi  Bi123  1  0.57644641  0.50590231  0.89007765  1
  Bi  Bi124  1  0.73966838  0.36281526  0.14751566  1
  Bi  Bi125  1  0.91898578  -0.05759418  0.91534498  1
  Bi  Bi126  1  0.37253466  0.57148578  0.08378266  1
  Bi  Bi127  1  0.62438944  0.88970922  0.44383864  1
