# generated using pymatgen
data_Ba51Fe51Bi26
_symmetry_space_group_name_H-M   'P 1'
_cell_length_a   15.95073258
_cell_length_b   16.20244552
_cell_length_c   16.90504846
_cell_angle_alpha   88.32768410
_cell_angle_beta   88.15716950
_cell_angle_gamma   89.51323671
_symmetry_Int_Tables_number   1
_chemical_formula_structural   Ba51Fe51Bi26
_chemical_formula_sum   'Ba51 Fe51 Bi26'
_cell_volume   4364.71115738
_cell_formula_units_Z   1
loop_
 _symmetry_equiv_pos_site_id
 _symmetry_equiv_pos_as_xyz
  1  'x, y, z'
loop_
 _atom_site_type_symbol
 _atom_site_label
 _atom_site_symmetry_multiplicity
 _atom_site_fract_x
 _atom_site_fract_y
 _atom_site_fract_z
 _atom_site_occupancy
  Ba  Ba0  1  0.43024954  -0.12318443  0.55330715  1
  Ba  Ba1  1  0.41750524  0.43931921  0.73259074  1
  Ba  Ba2  1  0.77073922  0.64882010  0.29091504  1
  Ba  Ba3  1  0.43975931  -0.03835280  0.29762909  1
  Ba  Ba4  1  0.15456262  0.17873820  0.75602322  1
  Ba  Ba5  1  0.61961979  0.72798384  0.47803223  1
  Ba  Ba6  1  -0.08061578  0.81405966  0.76088518  1
  Ba  Ba7  1  0.23701442  0.82961622  0.30510401  1
  Ba  Ba8  1  -0.03375663  0.79851555  0.00151378  1
  Ba  Ba9  1  0.18712794  0.07169534  0.42800226  1
  Ba  Ba10  1  0.31974835  0.28177522  0.24700163  1
  Ba  Ba11  1  0.70191390  0.80854980  0.09377733  1
  Ba  Ba12  1  0.30277569  0.56028581  0.32037371  1
  Ba  Ba13  1  0.22584235  0.53953753  0.06240217  1
  Ba  Ba14  1  0.73344021  0.20430730  0.72235370  1
  Ba  Ba15  1  0.54675885  -0.04701583  0.81804160  1
  Ba  Ba16  1  -0.09852734  0.04905226  0.05289742  1
  Ba  Ba17  1  0.20970467  0.76275193  -0.06978358  1
  Ba  Ba18  1  0.47389790  0.19898390  0.74900939  1
  Ba  Ba19  1  0.54915036  0.26752519  0.14369436  1
  Ba  Ba20  1  0.33318258  0.25711396  0.55872684  1
  Ba  Ba21  1  0.51223236  0.21935705  0.40417201  1
  Ba  Ba22  1  0.80270615  0.27109458  0.16994832  1
  Ba  Ba23  1  -0.05100384  0.45838141  0.08498900  1
  Ba  Ba24  1  0.02283930  0.73614819  0.23469724  1
  Ba  Ba25  1  -0.02208036  0.04353672  0.26375169  1
  Ba  Ba26  1  0.00413305  0.26275598  0.33118831  1
  Ba  Ba27  1  0.05344176  0.58118146  0.81922410  1
  Ba  Ba28  1  0.50665603  0.64976603  0.21534088  1
  Ba  Ba29  1  0.48062196  -0.10223205  0.05687069  1
  Ba  Ba30  1  0.22748061  -0.02697873  0.63980274  1
  Ba  Ba31  1  0.74493928  0.30606736  -0.07316520  1
  Ba  Ba32  1  -0.07481283  0.73862239  0.50812721  1
  Ba  Ba33  1  0.69449715  0.42217437  0.41874903  1
  Ba  Ba34  1  0.72144838  0.58278405  0.77053841  1
  Ba  Ba35  1  -0.05792252  0.09791556  0.83877078  1
  Ba  Ba36  1  0.45523106  0.51748947  0.51017612  1
  Ba  Ba37  1  0.05290228  0.34020914  -0.08671634  1
  Ba  Ba38  1  0.81798551  0.38678767  0.60927540  1
  Ba  Ba39  1  0.77147318  -0.01788028  0.70918025  1
  Ba  Ba40  1  0.81068524  0.92030800  0.40606326  1
  Ba  Ba41  1  0.30323120  0.28158189  -0.00820275  1
  Ba  Ba42  1  0.73659366  0.13452639  0.48969717  1
  Ba  Ba43  1  0.08041906  0.48080180  0.32709865  1
  Ba  Ba44  1  0.07917598  0.29087908  0.54977150  1
  Ba  Ba45  1  0.66685896  0.03245877  0.19184877  1
  Ba  Ba46  1  0.26563745  -0.00093004  -0.05139746  1
  Ba  Ba47  1  0.19392181  0.09657839  0.16051235  1
  Ba  Ba48  1  0.53111688  0.48849576  -0.04267202  1
  Ba  Ba49  1  0.46862454  0.70882924  0.85659512  1
  Ba  Ba50  1  0.03338905  0.52728701  0.58537647  1
  Fe  Fe51  1  0.65043341  0.81096244  0.92087405  1
  Fe  Fe52  1  0.60622203  0.85145549  0.63492995  1
  Fe  Fe53  1  0.68384149  0.41873635  0.08223449  1
  Fe  Fe54  1  0.68800063  0.13297778  0.01541123  1
  Fe  Fe55  1  0.20777620  0.80803584  0.74743783  1
  Fe  Fe56  1  0.67020145  0.42431693  0.23209455  1
  Fe  Fe57  1  0.88252340  0.53185131  0.42912135  1
  Fe  Fe58  1  0.26255794  0.73522167  0.47816036  1
  Fe  Fe59  1  0.21918145  0.37589689  0.67041542  1
  Fe  Fe60  1  0.60910437  0.95557736  0.39977460  1
  Fe  Fe61  1  0.36662095  0.69187938  0.56501991  1
  Fe  Fe62  1  0.42149781  0.07970894  0.57080971  1
  Fe  Fe63  1  0.68156946  0.65962187  0.96880287  1
  Fe  Fe64  1  0.91342817  1.01287168  0.57879158  1
  Fe  Fe65  1  0.61576155  0.12558167  0.88513667  1
  Fe  Fe66  1  1.01035819  1.00231881  0.68066366  1
  Fe  Fe67  1  0.34365320  0.38105930  0.40510167  1
  Fe  Fe68  1  0.97118975  0.27267366  0.71700448  1
  Fe  Fe69  1  0.21089937  0.51754579  0.69026789  1
  Fe  Fe70  1  0.64435792  0.93633098  0.52615218  1
  Fe  Fe71  1  -0.00990310  0.03875878  0.46952587  1
  Fe  Fe72  1  0.06144197  0.08445054  0.58142701  1
  Fe  Fe73  1  0.74142355  0.07892769  0.90307953  1
  Fe  Fe74  1  0.33815868  0.61469845  0.68033994  1
  Fe  Fe75  1  0.38879737  0.06244188  0.45478987  1
  Fe  Fe76  1  0.21954034  0.74130346  0.13066059  1
  Fe  Fe77  1  0.92773272  0.41188834  0.44363883  1
  Fe  Fe78  1  0.94143292  0.14354416  0.64965823  1
  Fe  Fe79  1  0.55316338  0.09718819  1.00389267  1
  Fe  Fe80  1  0.20996952  0.40826946  0.79357680  1
  Fe  Fe81  1  0.65118671  -0.01053588  -0.02795679  1
  Fe  Fe82  1  0.93723613  0.15188586  0.51751599  1
  Fe  Fe83  1  0.08329051  0.38584116  0.72078648  1
  Fe  Fe84  1  0.66154483  0.58192657  0.09589945  1
  Fe  Fe85  1  0.02202960  0.21951363  0.10648763  1
  Fe  Fe86  1  0.75347626  0.52290257  0.00100896  1
  Fe  Fe87  1  0.14360692  0.81515615  0.51177536  1
  Fe  Fe88  1  0.04288190  0.92551809  0.56115384  1
  Fe  Fe89  1  0.21939263  0.34257395  0.40248716  1
  Fe  Fe90  1  0.34699748  0.75620945  0.70576224  1
  Fe  Fe91  1  0.75957705  0.49949024  0.15802165  1
  Fe  Fe92  1  0.83053730  0.63137180  0.93416680  1
  Fe  Fe93  1  0.22202552  0.63123541  0.58066468  1
  Fe  Fe94  1  0.21503329  0.66695066  0.72767307  1
  Fe  Fe95  1  0.73269786  0.83221863  0.59561197  1
  Fe  Fe96  1  0.53215366  0.03524252  0.47552682  1
  Fe  Fe97  1  0.24493631  0.77501232  0.61386926  1
  Fe  Fe98  1  0.94120929  0.39498689  0.75196851  1
  Fe  Fe99  1  0.77541064  0.75128860  0.89695176  1
  Fe  Fe100  1  0.29239778  0.84754195  0.11256584  1
  Fe  Fe101  1  0.57736693  0.47747286  0.15522709  1
  Bi  Bi102  1  0.80397771  -0.08047854  -0.08230801  1
  Bi  Bi103  1  0.52447753  0.26021833  -0.06320271  1
  Bi  Bi104  1  0.86558865  0.43889742  0.28521325  1
  Bi  Bi105  1  0.87382853  0.47426398  -0.11673089  1
  Bi  Bi106  1  0.10148059  -0.06525164  0.81553568  1
  Bi  Bi107  1  0.68673232  0.78833664  0.76085035  1
  Bi  Bi108  1  0.50092387  0.42579647  0.31489868  1
  Bi  Bi109  1  0.27967176  0.55978859  0.84912284  1
  Bi  Bi110  1  0.08000901  0.73946628  0.65059143  1
  Bi  Bi111  1  0.04385759  -0.10595721  0.39710212  1
  Bi  Bi112  1  0.12167476  0.66537863  0.42137608  1
  Bi  Bi113  1  0.83872056  0.64282665  0.09402612  1
  Bi  Bi114  1  0.23736503  0.45738818  0.51993515  1
  Bi  Bi115  1  0.41582730  0.72717352  0.39885819  1
  Bi  Bi116  1  0.62863657  0.38923232  0.76075378  1
  Bi  Bi117  1  0.41200589  0.09651739  0.11425247  1
  Bi  Bi118  1  0.86224229  0.88282720  0.19929561  1
  Bi  Bi119  1  0.10360368  0.14508035  0.97846624  1
  Bi  Bi120  1  0.58112038  0.05274073  0.63202660  1
  Bi  Bi121  1  0.50691606  0.67117663  0.65792704  1
  Bi  Bi122  1  0.40634141  0.44616893  0.12893411  1
  Bi  Bi123  1  0.12551192  0.89639770  0.10924720  1
  Bi  Bi124  1  0.12849598  0.34026532  0.15089709  1
  Bi  Bi125  1  0.58215589  0.31466753  0.57945313  1
  Bi  Bi126  1  0.37568632  0.70453243  0.05582601  1
  Bi  Bi127  1  0.62470825  0.83457324  0.28958181  1
