# generated using pymatgen
data_Ba51Fe51Bi26
_symmetry_space_group_name_H-M   'P 1'
_cell_length_a   16.99440429
_cell_length_b   16.05465400
_cell_length_c   16.16374683
_cell_angle_alpha   89.50258733
_cell_angle_beta   88.13542500
_cell_angle_gamma   89.23984744
_symmetry_Int_Tables_number   1
_chemical_formula_structural   Ba51Fe51Bi26
_chemical_formula_sum   'Ba51 Fe51 Bi26'
_cell_volume   4407.23193198
_cell_formula_units_Z   1
loop_
 _symmetry_equiv_pos_site_id
 _symmetry_equiv_pos_as_xyz
  1  'x, y, z'
loop_
 _atom_site_type_symbol
 _atom_site_label
 _atom_site_symmetry_multiplicity
 _atom_site_fract_x
 _atom_site_fract_y
 _atom_site_fract_z
 _atom_site_occupancy
  Ba  Ba0  1  0.00099679  0.78648118  0.85411531  1
  Ba  Ba1  1  0.54268859  0.42922750  0.19536154  1
  Ba  Ba2  1  0.74450725  0.68809910  0.40717271  1
  Ba  Ba3  1  0.77494598  0.04295746  0.52596954  1
  Ba  Ba4  1  0.55247391  0.52079656  0.69217420  1
  Ba  Ba5  1  0.64682230  0.78406399  0.20650594  1
  Ba  Ba6  1  0.28867354  0.01970880  0.75564278  1
  Ba  Ba7  1  -0.02729638  0.26243652  0.22869107  1
  Ba  Ba8  1  0.86463551  0.04427779  0.29906259  1
  Ba  Ba9  1  0.31224077  0.27428057  0.75117159  1
  Ba  Ba10  1  0.20491881  0.77313367  0.68050628  1
  Ba  Ba11  1  0.31199365  0.59933622  0.19165895  1
  Ba  Ba12  1  0.77764581  0.72883650  -0.04333323  1
  Ba  Ba13  1  0.15724366  0.51487922  0.70303648  1
  Ba  Ba14  1  0.78049813  0.62738164  0.69048605  1
  Ba  Ba15  1  0.20407132  -0.02141339  0.30880855  1
  Ba  Ba16  1  0.59725503  0.50043841  0.43139102  1
  Ba  Ba17  1  0.43879769  -0.03917773  0.16243234  1
  Ba  Ba18  1  0.03030968  0.28838595  0.71538460  1
  Ba  Ba19  1  0.45666377  0.56295061  -0.02187156  1
  Ba  Ba20  1  0.16318934  0.43751233  0.28964105  1
  Ba  Ba21  1  0.55510996  0.80979517  -0.02420863  1
  Ba  Ba22  1  0.81031165  0.29493034  0.43809767  1
  Ba  Ba23  1  0.70503244  -0.00165286  0.04788891  1
  Ba  Ba24  1  0.27379301  0.77424954  0.40251692  1
  Ba  Ba25  1  0.19818832  0.43727898  -0.01288807  1
  Ba  Ba26  1  0.06801710  0.68432705  0.08860896  1
  Ba  Ba27  1  0.94977056  -0.06995376  0.65839428  1
  Ba  Ba28  1  0.69308313  0.43653988  -0.05582140  1
  Ba  Ba29  1  0.55435643  0.27839423  0.77109706  1
  Ba  Ba30  1  0.41422818  0.25934600  0.31838137  1
  Ba  Ba31  1  0.38636570  0.62511224  0.54531358  1
  Ba  Ba32  1  0.81416496  0.50613752  0.18361201  1
  Ba  Ba33  1  -0.02103824  0.67079422  0.54707659  1
  Ba  Ba34  1  0.74927937  0.13593633  0.85317687  1
  Ba  Ba35  1  0.41098945  0.31933549  -0.03907370  1
  Ba  Ba36  1  0.53882064  0.02636008  0.76068011  1
  Ba  Ba37  1  -0.03092134  0.49719233  -0.08131619  1
  Ba  Ba38  1  0.43227350  0.36215321  0.55178983  1
  Ba  Ba39  1  0.55844203  -0.00756173  0.52439696  1
  Ba  Ba40  1  0.04692638  0.11093134  0.50353076  1
  Ba  Ba41  1  0.17749600  -0.01034639  0.00793619  1
  Ba  Ba42  1  0.23855087  0.19560167  0.13477434  1
  Ba  Ba43  1  -0.06767857  -0.08880883  0.10345546  1
  Ba  Ba44  1  0.21712506  0.36945362  0.50879840  1
  Ba  Ba45  1  0.63750604  0.15183434  0.26506858  1
  Ba  Ba46  1  0.29497406  0.75572993  -0.04862623  1
  Ba  Ba47  1  0.33204043  0.07724933  0.51406731  1
  Ba  Ba48  1  0.77989833  0.34513488  0.67235734  1
  Ba  Ba49  1  0.47128400  0.77871972  0.75244807  1
  Ba  Ba50  1  0.51690736  0.80358619  0.41122274  1
  Fe  Fe51  1  0.97093553  0.45874511  0.28810691  1
  Fe  Fe52  1  0.37498734  0.59920093  0.74898433  1
  Fe  Fe53  1  0.68293426  0.89699074  0.82552546  1
  Fe  Fe54  1  0.02914031  0.27670780  0.91401247  1
  Fe  Fe55  1  0.92498300  0.84422927  0.32411777  1
  Fe  Fe56  1  0.67573563  0.94294130  0.33761904  1
  Fe  Fe57  1  0.41565137  0.11686365  0.03448986  1
  Fe  Fe58  1  0.04114321  0.80439983  0.24924718  1
  Fe  Fe59  1  0.60355770  0.29658886  0.55701338  1
  Fe  Fe60  1  0.62532332  0.16564218  0.60099283  1
  Fe  Fe61  1  0.46062371  0.63956494  0.30594943  1
  Fe  Fe62  1  0.78936149  0.82842854  0.73969894  1
  Fe  Fe63  1  0.06721384  0.81575189  0.38942696  1
  Fe  Fe64  1  0.43847118  0.13409121  0.88191370  1
  Fe  Fe65  1  0.05019493  0.47758574  0.51349266  1
  Fe  Fe66  1  0.63521607  0.87685944  0.67730526  1
  Fe  Fe67  1  0.73867016  0.83643561  0.60079413  1
  Fe  Fe68  1  0.03632859  0.55933474  0.38931073  1
  Fe  Fe69  1  0.02877660  -0.06209001  0.28938587  1
  Fe  Fe70  1  0.29633095  0.53721147  0.83664947  1
  Fe  Fe71  1  -0.00972855  0.59192283  0.24640428  1
  Fe  Fe72  1  0.52218154  0.18511550  0.47535537  1
  Fe  Fe73  1  0.50527450  0.65670645  0.17671950  1
  Fe  Fe74  1  -0.04717602  0.08092343  0.80559991  1
  Fe  Fe75  1  0.99754100  -0.07019185  0.42524800  1
  Fe  Fe76  1  0.93831691  0.42232556  0.55973520  1
  Fe  Fe77  1  0.52175536  0.04213091  0.96806018  1
  Fe  Fe78  1  0.92506650  0.17524165  0.92326656  1
  Fe  Fe79  1  -0.06493524  0.46064293  0.42269840  1
  Fe  Fe80  1  0.41869544  0.76104915  0.25045862  1
  Fe  Fe81  1  0.70343311  0.87531268  0.45027383  1
  Fe  Fe82  1  0.73943220  0.95479810  0.71121504  1
  Fe  Fe83  1  0.55520389  0.10572031  0.09068596  1
  Fe  Fe84  1  0.93240865  0.28455271  0.02766365  1
  Fe  Fe85  1  0.40062242  0.45326757  0.80684753  1
  Fe  Fe86  1  0.65340472  0.18362315  0.46409146  1
  Fe  Fe87  1  0.78166437  0.86634676  0.31956821  1
  Fe  Fe88  1  0.66658670  0.77136955  0.75582850  1
  Fe  Fe89  1  0.34203000  0.47881628  0.69333842  1
  Fe  Fe90  1  0.89314803  0.57893695  0.35368645  1
  Fe  Fe91  1  0.54623515  0.17782248  0.96218042  1
  Fe  Fe92  1  0.49885441  0.18620880  0.60878869  1
  Fe  Fe93  1  0.02840540  0.15361573  0.02593936  1
  Fe  Fe94  1  0.32295933  1.11758075  0.93506020  1
  Fe  Fe95  1  0.06252568  0.13395323  0.87518406  1
  Fe  Fe96  1  0.48458794  0.21478356  0.11058094  1
  Fe  Fe97  1  0.59488585  0.29655933  0.41757428  1
  Fe  Fe98  1  0.97670103  0.70258798  0.34712743  1
  Fe  Fe99  1  0.06569104  0.29614553  0.04397086  1
  Fe  Fe100  1  0.42646132  0.74868866  0.11687240  1
  Fe  Fe101  1  -0.02754286  1.03299840  0.93845992  1
  Bi  Bi102  1  0.64264348  0.25864956  0.06756698  1
  Bi  Bi103  1  0.02192006  0.45558688  0.12308739  1
  Bi  Bi104  1  0.19151498  0.22194168  -0.07455747  1
  Bi  Bi105  1  -0.04647404  0.50272068  0.70126578  1
  Bi  Bi106  1  0.39015894  -0.04664173  -0.06889472  1
  Bi  Bi107  1  0.13284332  0.66713426  0.29240149  1
  Bi  Bi108  1  0.06305451  0.06926854  0.18128796  1
  Bi  Bi109  1  0.02617496  0.31821752  0.44422953  1
  Bi  Bi110  1  -0.15860848  -0.06687456  0.87140992  1
  Bi  Bi111  1  0.13680505  -0.08672159  0.51730798  1
  Bi  Bi112  1  0.86773988  0.72151301  0.21476707  1
  Bi  Bi113  1  0.28024462  0.82283307  0.16380510  1
  Bi  Bi114  1  0.60960988  0.72123140  0.58807008  1
  Bi  Bi115  1  0.17569640  0.58887382  0.49787700  1
  Bi  Bi116  1  0.86576472  0.12787684  0.08030658  1
  Bi  Bi117  1  0.09377118  0.97342774  0.80906929  1
  Bi  Bi118  1  0.79667081  0.50347128  0.50515930  1
  Bi  Bi119  1  0.88910249  0.14887753  0.66114870  1
  Bi  Bi120  1  0.64209476  0.60066108  0.08841410  1
  Bi  Bi121  1  0.86256843  0.32413840  0.87510121  1
  Bi  Bi122  1  0.62302100  0.63415139  0.85336917  1
  Bi  Bi123  1  0.86335223  0.84705659  0.48112620  1
  Bi  Bi124  1  0.37888625  0.87593091  0.58325415  1
  Bi  Bi125  1  0.14878605  0.63021622  0.88350087  1
  Bi  Bi126  1  0.34046522  0.38429125  0.14968954  1
  Bi  Bi127  1  0.39335222  0.48473703  0.37095274  1
