# generated using pymatgen
data_Ba51Fe51Bi26
_symmetry_space_group_name_H-M   'P 1'
_cell_length_a   15.43719761
_cell_length_b   16.30057152
_cell_length_c   17.17912920
_cell_angle_alpha   90.13999132
_cell_angle_beta   90.35676005
_cell_angle_gamma   90.03331717
_symmetry_Int_Tables_number   1
_chemical_formula_structural   Ba51Fe51Bi26
_chemical_formula_sum   'Ba51 Fe51 Bi26'
_cell_volume   4322.77517209
_cell_formula_units_Z   1
loop_
 _symmetry_equiv_pos_site_id
 _symmetry_equiv_pos_as_xyz
  1  'x, y, z'
loop_
 _atom_site_type_symbol
 _atom_site_label
 _atom_site_symmetry_multiplicity
 _atom_site_fract_x
 _atom_site_fract_y
 _atom_site_fract_z
 _atom_site_occupancy
  Ba  Ba0  1  0.81377254  0.57510022  0.46324260  1
  Ba  Ba1  1  0.08405437  0.20962759  0.00585502  1
  Ba  Ba2  1  0.47730538  0.72745657  -0.05633404  1
  Ba  Ba3  1  0.47646666  0.42383158  0.03948883  1
  Ba  Ba4  1  -0.09814268  0.00380548  0.06757333  1
  Ba  Ba5  1  0.76818084  -0.05527315  0.71489083  1
  Ba  Ba6  1  -0.09528544  0.02565069  0.30454279  1
  Ba  Ba7  1  0.14172540  -0.04411927  -0.04153658  1
  Ba  Ba8  1  0.28827507  0.22864771  -0.18106982  1
  Ba  Ba9  1  0.28516814  0.28999925  0.13411193  1
  Ba  Ba10  1  0.67717836  0.74722632  0.13481940  1
  Ba  Ba11  1  0.11778212  0.29263331  0.30939801  1
  Ba  Ba12  1  0.52238922  0.62405071  0.49906929  1
  Ba  Ba13  1  0.34090404  0.66180237  0.29630936  1
  Ba  Ba14  1  0.67879895  0.28536731  -0.02909020  1
  Ba  Ba15  1  0.52192888  0.05853714  0.75589081  1
  Ba  Ba16  1  0.25346124  0.02634219  0.65936747  1
  Ba  Ba17  1  0.24593267  0.55273223  0.09077289  1
  Ba  Ba18  1  0.30219102  0.80367583  0.09958904  1
  Ba  Ba19  1  0.69164556  -0.03919048  -0.05102284  1
  Ba  Ba20  1  0.02158194  0.38244283  0.50094406  1
  Ba  Ba21  1  0.79190666  0.32353958  0.35666608  1
  Ba  Ba22  1  -0.04246538  0.56718310  0.65236603  1
  Ba  Ba23  1  0.02071646  0.31500062  0.77370620  1
  Ba  Ba24  1  0.02341722  0.45670995  0.02197344  1
  Ba  Ba25  1  0.30298039  0.02708715  0.14023219  1
  Ba  Ba26  1  0.52020819  0.83954643  0.27382272  1
  Ba  Ba27  1  0.50137500  0.62931389  0.74230698  1
  Ba  Ba28  1  0.14880059  0.04989870  0.38764529  1
  Ba  Ba29  1  0.86615981  0.25075815  0.13083808  1
  Ba  Ba30  1  0.18945620  0.56084261  0.79908211  1
  Ba  Ba31  1  0.01055290  0.03369513  0.75862913  1
  Ba  Ba32  1  0.23801691  0.52450285  0.47647482  1
  Ba  Ba33  1  0.73597943  0.21660664  0.76520192  1
  Ba  Ba34  1  0.46564346  0.08462622  0.46237617  1
  Ba  Ba35  1  0.51495617  0.07690240  0.23203871  1
  Ba  Ba36  1  0.26600826  0.25442715  0.52839925  1
  Ba  Ba37  1  0.50373868  0.30801891  0.31734094  1
  Ba  Ba38  1  0.05652905  0.71600780  0.26065411  1
  Ba  Ba39  1  0.24628084  0.79562685  0.46248310  1
  Ba  Ba40  1  -0.07493274  0.82461696  0.42552407  1
  Ba  Ba41  1  0.77380218  0.45490349  0.78859310  1
  Ba  Ba42  1  0.44512820  -0.15477868  0.61493567  1
  Ba  Ba43  1  0.76139952  0.70585147  0.81919271  1
  Ba  Ba44  1  0.76923149  0.51121062  0.02458703  1
  Ba  Ba45  1  0.69257113  -0.08858844  0.47459012  1
  Ba  Ba46  1  0.63654920  0.39141419  0.57224154  1
  Ba  Ba47  1  0.79361420  0.15320763  0.55257613  1
  Ba  Ba48  1  0.48646082  0.12710074  -0.01459878  1
  Ba  Ba49  1  0.39585843  0.41477055  0.70753505  1
  Ba  Ba50  1  0.00770172  0.72952620  0.00079227  1
  Fe  Fe51  1  0.74116535  0.07404685  0.20251534  1
  Fe  Fe52  1  0.15961917  0.13814996  1.20636749  1
  Fe  Fe53  1  0.73795467  0.57832037  0.25931511  1
  Fe  Fe54  1  0.81991429  0.70714785  0.28622370  1
  Fe  Fe55  1  0.47474223  0.26238853  0.56505264  1
  Fe  Fe56  1  0.88217888  0.32501956  0.93607405  1
  Fe  Fe57  1  0.47632696  0.50506443  0.35420345  1
  Fe  Fe58  1  0.22815497  0.88863621  0.79411238  1
  Fe  Fe59  1  0.42592369  0.20325506  0.67428235  1
  Fe  Fe60  1  0.68828882  0.96328801  0.28053522  1
  Fe  Fe61  1  0.56834984  0.61131315  0.28435340  1
  Fe  Fe62  1  0.39384046  0.89720131  0.78514476  1
  Fe  Fe63  1  0.10334252  0.85827203  0.68583703  1
  Fe  Fe64  1  0.84907079  0.47354909  0.20977739  1
  Fe  Fe65  1  0.66912306  0.12254802  0.09773008  1
  Fe  Fe66  1  0.32841080  0.00183173  0.85216725  1
  Fe  Fe67  1  0.77527481  0.91763654  0.18903889  1
  Fe  Fe68  1  0.58817309  0.23334529  0.13246139  1
  Fe  Fe69  1  0.65120346  0.75966018  0.64634456  1
  Fe  Fe70  1  0.04235120  0.54103180  0.34863438  1
  Fe  Fe71  1  0.34805919  0.95221322  0.32147645  1
  Fe  Fe72  1  0.62311606  0.48261085  0.31126282  1
  Fe  Fe73  1  0.56865799  0.36249760  0.81267689  1
  Fe  Fe74  1  0.89736054  0.57768392  0.29689324  1
  Fe  Fe75  1  0.95529516  0.43838496  0.31438503  1
  Fe  Fe76  1  0.14086188  0.71606935  0.61008744  1
  Fe  Fe77  1  -0.00774222  0.40241194  0.19751374  1
  Fe  Fe78  1  1.00829196  0.77666002  0.59780642  1
  Fe  Fe79  1  0.54924535  0.27684694  0.69994690  1
  Fe  Fe80  1  -0.03695205  0.03324193  0.53490218  1
  Fe  Fe81  1  0.33884325  0.76792950  0.78948981  1
  Fe  Fe82  1  0.96387529  0.73470386  0.82176915  1
  Fe  Fe83  1  0.47211874  -0.07016704  0.89692603  1
  Fe  Fe84  1  0.08489781  0.82476410  0.81985108  1
  Fe  Fe85  1  0.02842849  0.12447523  0.17245500  1
  Fe  Fe86  1  0.00255243  0.53698104  0.19997480  1
  Fe  Fe87  1  0.95013611  0.83038428  0.72408448  1
  Fe  Fe88  1  0.61472166  0.53685477  0.17647980  1
  Fe  Fe89  1  0.05757966  0.71209085  0.72545380  1
  Fe  Fe90  1  0.94305112  -0.08355324  0.60837695  1
  Fe  Fe91  1  0.47858956  0.49560167  0.22608155  1
  Fe  Fe92  1  0.20733500  0.75841767  0.73367434  1
  Fe  Fe93  1  0.36747262  -0.03227821  -0.02601984  1
  Fe  Fe94  1  0.11897857  0.47784953  0.25599831  1
  Fe  Fe95  1  0.65941260  0.97705869  0.13720684  1
  Fe  Fe96  1  0.49734722  0.24966431  0.81826084  1
  Fe  Fe97  1  0.68508156  0.20634910  0.21949381  1
  Fe  Fe98  1  0.09800252  1.00920841  0.18120532  1
  Fe  Fe99  1  0.32692675  0.85987917  -0.09769621  1
  Fe  Fe100  1  0.76861293  0.83739294  0.29346374  1
  Fe  Fe101  1  0.56951089  0.17648359  0.60774232  1
  Bi  Bi102  1  0.57979779  0.83978753  0.78285928  1
  Bi  Bi103  1  0.05208183  0.65139578  0.47521490  1
  Bi  Bi104  1  0.67959443  0.37718852  0.17490674  1
  Bi  Bi105  1  0.50573651  -0.08462239  0.06947261  1
  Bi  Bi106  1  0.30482364  0.45048262  0.27131356  1
  Bi  Bi107  1  0.21531480  0.73510997  0.91322932  1
  Bi  Bi108  1  -0.12209184  0.64432888  0.14487945  1
  Bi  Bi109  1  -0.09005533  0.88662489  0.88323280  1
  Bi  Bi110  1  0.82392283  0.77353971  0.60285383  1
  Bi  Bi111  1  0.43264625  0.41277966  0.49185251  1
  Bi  Bi112  1  0.09982363  -0.07707693  0.53918164  1
  Bi  Bi113  1  0.68753887  0.11504548  0.36442424  1
  Bi  Bi114  1  0.67413868  0.71894172  0.37339307  1
  Bi  Bi115  1  0.87747020  0.15914680  0.92198178  1
  Bi  Bi116  1  0.84906382  0.35337954  0.62287768  1
  Bi  Bi117  1  0.06531836  0.16086583  0.60181204  1
  Bi  Bi118  1  0.59143015  0.51391526  0.89167699  1
  Bi  Bi119  1  0.20190000  0.87818047  0.26892102  1
  Bi  Bi120  1  0.31695306  0.16053247  0.30828954  1
  Bi  Bi121  1  0.31576663  0.66637915  0.63047433  1
  Bi  Bi122  1  0.96982700  0.17830461  0.43260780  1
  Bi  Bi123  1  0.17567470  0.40543931  0.65553217  1
  Bi  Bi124  1  0.47055656  0.63912619  0.13187440  1
  Bi  Bi125  1  0.95383629  0.57137525  0.86118478  1
  Bi  Bi126  1  0.69243982  0.59400882  0.64176877  1
  Bi  Bi127  1  0.23045402  0.38552845  0.94777266  1
