# generated using pymatgen
data_Ba51Fe51Bi26
_symmetry_space_group_name_H-M   'P 1'
_cell_length_a   16.60774055
_cell_length_b   16.25016840
_cell_length_c   16.03524687
_cell_angle_alpha   90.71586325
_cell_angle_beta   90.06800715
_cell_angle_gamma   90.09383921
_symmetry_Int_Tables_number   1
_chemical_formula_structural   Ba51Fe51Bi26
_chemical_formula_sum   'Ba51 Fe51 Bi26'
_cell_volume   4327.22293596
_cell_formula_units_Z   1
loop_
 _symmetry_equiv_pos_site_id
 _symmetry_equiv_pos_as_xyz
  1  'x, y, z'
loop_
 _atom_site_type_symbol
 _atom_site_label
 _atom_site_symmetry_multiplicity
 _atom_site_fract_x
 _atom_site_fract_y
 _atom_site_fract_z
 _atom_site_occupancy
  Ba  Ba0  1  -0.01171910  0.21431112  0.32182745  1
  Ba  Ba1  1  0.41013402  0.34460617  0.51440496  1
  Ba  Ba2  1  0.70431754  0.21327034  0.48242274  1
  Ba  Ba3  1  0.24024952  0.03259026  0.01025086  1
  Ba  Ba4  1  0.76438408  0.66945087  0.44163145  1
  Ba  Ba5  1  0.20348546  0.29403508  0.08569247  1
  Ba  Ba6  1  0.63868856  0.20360011  -0.09183746  1
  Ba  Ba7  1  0.73845263  -0.07585189  0.50102566  1
  Ba  Ba8  1  0.49172497  0.40729101  0.76361881  1
  Ba  Ba9  1  0.34302883  0.03692019  0.78199825  1
  Ba  Ba10  1  0.24866802  0.70496160  0.01804409  1
  Ba  Ba11  1  0.76096111  0.39807997  0.79132359  1
  Ba  Ba12  1  0.02571662  0.75566126  0.16132383  1
  Ba  Ba13  1  0.02968396  0.59874208  -0.10980383  1
  Ba  Ba14  1  0.24961034  0.55185005  0.45268132  1
  Ba  Ba15  1  -0.00160918  0.06737173  0.55619652  1
  Ba  Ba16  1  0.49957696  0.29835085  0.09983840  1
  Ba  Ba17  1  0.48393167  0.03440311  0.03445035  1
  Ba  Ba18  1  0.82650991  0.01814879  0.16154646  1
  Ba  Ba19  1  0.82099643  0.55651547  -0.01576111  1
  Ba  Ba20  1  0.81303708  0.15077819  0.72844377  1
  Ba  Ba21  1  0.02413692  0.67738530  0.43958147  1
  Ba  Ba22  1  0.25118557  0.26867519  0.77195474  1
  Ba  Ba23  1  0.21924277  0.31618488  0.36322378  1
  Ba  Ba24  1  0.52304963  0.52493143  0.15933331  1
  Ba  Ba25  1  0.00178798  0.48440625  0.66842705  1
  Ba  Ba26  1  0.59878072  0.57960439  -0.09494157  1
  Ba  Ba27  1  0.77650745  0.75902621  0.15826188  1
  Ba  Ba28  1  0.47241187  -0.16556109  0.83343247  1
  Ba  Ba29  1  0.03135863  0.19805559  0.91665345  1
  Ba  Ba30  1  0.72018304  0.48345728  0.21861352  1
  Ba  Ba31  1  0.50929499  0.74324603  0.05569554  1
  Ba  Ba32  1  0.49357147  0.14674442  0.29692906  1
  Ba  Ba33  1  -0.15346752  0.28563937  0.09655826  1
  Ba  Ba34  1  -0.03095892  0.80496214  0.73299478  1
  Ba  Ba35  1  0.33698676  0.45925631  -0.01739719  1
  Ba  Ba36  1  0.01441804  -0.04496596  -0.02397737  1
  Ba  Ba37  1  0.50522023  0.11635720  0.61713093  1
  Ba  Ba38  1  0.23980589  0.52646830  0.74639537  1
  Ba  Ba39  1  0.22587041  0.79150103  0.78695016  1
  Ba  Ba40  1  0.76327197  0.44803988  0.56063982  1
  Ba  Ba41  1  0.18652177  0.57316251  0.21596530  1
  Ba  Ba42  1  0.24419756  0.08575662  0.24470830  1
  Ba  Ba43  1  0.45963752  0.77367551  0.45116655  1
  Ba  Ba44  1  0.16374713  0.85298646  0.54791097  1
  Ba  Ba45  1  0.00482483  0.42952417  0.43479666  1
  Ba  Ba46  1  0.25751783  0.79934059  0.33672978  1
  Ba  Ba47  1  0.54611714  0.89683495  0.24652165  1
  Ba  Ba48  1  0.03890964  -0.03140045  0.31780665  1
  Ba  Ba49  1  0.55802379  0.67900411  0.66670333  1
  Ba  Ba50  1  0.53995525  0.54044400  0.43107471  1
  Fe  Fe51  1  0.96316146  0.30417112  0.74844717  1
  Fe  Fe52  1  0.12791583  0.12359924  0.70816887  1
  Fe  Fe53  1  0.67761897  0.73612857  0.81669392  1
  Fe  Fe54  1  0.18554803  0.20200180  0.58454501  1
  Fe  Fe55  1  0.35725253  -0.07422474  1.21257949  1
  Fe  Fe56  1  0.69674630  0.11255066  0.30224004  1
  Fe  Fe57  1  0.79365949  0.83793819  0.82593475  1
  Fe  Fe58  1  0.34306621  0.47500399  0.19493672  1
  Fe  Fe59  1  0.13657163  0.97060471  0.72003474  1
  Fe  Fe60  1  0.89310201  0.63600835  0.29573897  1
  Fe  Fe61  1  0.59407162  0.35365598  0.59416463  1
  Fe  Fe62  1  0.37053619  0.59397393  0.29520584  1
  Fe  Fe63  1  0.02771384  0.55739467  0.09691360  1
  Fe  Fe64  1  0.16048742  0.13162101  0.45451329  1
  Fe  Fe65  1  0.14192120  0.50097046  1.02219465  1
  Fe  Fe66  1  0.39092894  0.45352899  0.33126883  1
  Fe  Fe67  1  0.23395886  1.00884328  0.43028841  1
  Fe  Fe68  1  0.36233958  0.62385582  0.16118764  1
  Fe  Fe69  1  0.89602864  0.49018973  0.28234949  1
  Fe  Fe70  1  0.12232438  0.41187807  0.91861672  1
  Fe  Fe71  1  0.35898887  0.77196617  0.17660747  1
  Fe  Fe72  1  0.03488212  0.41965557  0.04161974  1
  Fe  Fe73  1  0.89700075  0.60049655  0.16234207  1
  Fe  Fe74  1  0.72833303  -0.00935532  0.83700221  1
  Fe  Fe75  1  0.07821914  0.24786070  0.51774719  1
  Fe  Fe76  1  0.81151447  0.68820617  0.83939791  1
  Fe  Fe77  1  0.35614933  -0.03086929  0.49688688  1
  Fe  Fe78  1  0.37753117  0.35226844  0.24583969  1
  Fe  Fe79  1  0.24936789  0.87356777  0.14405883  1
  Fe  Fe80  1  0.67404696  0.86741556  0.74142268  1
  Fe  Fe81  1  0.65520541  -0.12293720  0.88923531  1
  Fe  Fe82  1  0.06989637  0.25678866  0.67040100  1
  Fe  Fe83  1  0.79392138  0.19694548  0.27209902  1
  Fe  Fe84  1  0.16776907  0.66465085  0.61437544  1
  Fe  Fe85  1  0.86354361  0.96307563  0.84360758  1
  Fe  Fe86  1  1.07851377  0.35697703  0.79094530  1
  Fe  Fe87  1  0.73185141  0.77057391  -0.04780287  1
  Fe  Fe88  1  0.35515479  0.87684268  1.07006626  1
  Fe  Fe89  1  0.36605174  0.97301430  0.35829401  1
  Fe  Fe90  1  0.92716113  0.46710710  0.14118220  1
  Fe  Fe91  1  0.00511718  0.56169570  0.24971273  1
  Fe  Fe92  1  0.72559660  0.60185295  0.75456316  1
  Fe  Fe93  1  0.80561630  -0.06263722  0.71129124  1
  Fe  Fe94  1  0.67875758  0.26290916  0.27291280  1
  Fe  Fe95  1  0.15048961  1.04755873  0.82561502  1
  Fe  Fe96  1  0.79154702  0.91421275  -0.04126998  1
  Fe  Fe97  1  0.29220492  0.69070634  0.59952055  1
  Fe  Fe98  1  0.67978928  0.00113056  0.69609738  1
  Fe  Fe99  1  0.44651057  0.70020609  0.25435580  1
  Fe  Fe100  1  0.85097469  0.59886275  0.73634294  1
  Fe  Fe101  1  0.63863146  0.27832197  0.68535289  1
  Bi  Bi102  1  0.81566125  0.35083352  0.35091864  1
  Bi  Bi103  1  0.23036557  0.04430515  0.60193413  1
  Bi  Bi104  1  0.90299955  0.77031379  -0.03846889  1
  Bi  Bi105  1  0.52208053  -0.01280147  0.44095990  1
  Bi  Bi106  1  0.54059125  0.35865957  0.31527454  1
  Bi  Bi107  1  0.56417115  0.02591030  0.81974550  1
  Bi  Bi108  1  -0.08453897  0.28407055  0.58236191  1
  Bi  Bi109  1  0.17928383  0.37639360  0.58160988  1
  Bi  Bi110  1  -0.05496885  0.39574563  -0.10585349  1
  Bi  Bi111  1  -0.00947566  0.03174689  0.76693097  1
  Bi  Bi112  1  0.83106819  0.09520510  -0.05126369  1
  Bi  Bi113  1  0.05873038  0.39628697  0.21571632  1
  Bi  Bi114  1  0.77478172  0.74550762  0.65986278  1
  Bi  Bi115  1  0.66543856  0.40178013  0.00239343  1
  Bi  Bi116  1  0.05856210  0.10942530  0.13235675  1
  Bi  Bi117  1  0.36276256  0.84819512  0.63425054  1
  Bi  Bi118  1  0.40059973  0.55513671  0.60122411  1
  Bi  Bi119  1  0.89183489  0.80740737  0.33880609  1
  Bi  Bi120  1  0.33390608  0.14742739  0.44446303  1
  Bi  Bi121  1  0.65460612  0.90191062  0.05879367  1
  Bi  Bi122  1  0.84369312  0.07139802  0.38282705  1
  Bi  Bi123  1  0.65611173  0.15447418  0.13875748  1
  Bi  Bi124  1  0.39583375  0.63289940  0.86301127  1
  Bi  Bi125  1  0.61150227  0.68849826  0.28321244  1
  Bi  Bi126  1  0.37608701  0.21446981  0.93964501  1
  Bi  Bi127  1  0.56108163  0.89820725  0.62552342  1
