# generated using pymatgen
data_Ba51Fe51Bi26
_symmetry_space_group_name_H-M   'P 1'
_cell_length_a   16.71841925
_cell_length_b   16.16065058
_cell_length_c   16.30592055
_cell_angle_alpha   89.41658981
_cell_angle_beta   89.92084466
_cell_angle_gamma   89.56296121
_symmetry_Int_Tables_number   1
_chemical_formula_structural   Ba51Fe51Bi26
_chemical_formula_sum   'Ba51 Fe51 Bi26'
_cell_volume   4405.18199941
_cell_formula_units_Z   1
loop_
 _symmetry_equiv_pos_site_id
 _symmetry_equiv_pos_as_xyz
  1  'x, y, z'
loop_
 _atom_site_type_symbol
 _atom_site_label
 _atom_site_symmetry_multiplicity
 _atom_site_fract_x
 _atom_site_fract_y
 _atom_site_fract_z
 _atom_site_occupancy
  Ba  Ba0  1  0.46487966  0.79425390  0.76700074  1
  Ba  Ba1  1  0.23578046  0.20021873  0.52319746  1
  Ba  Ba2  1  0.30911091  0.22353613  0.83003897  1
  Ba  Ba3  1  -0.01378389  0.19029418  0.52191545  1
  Ba  Ba4  1  0.47077926  0.22360813  0.56146118  1
  Ba  Ba5  1  0.01124950  0.08414953  0.14387398  1
  Ba  Ba6  1  0.55686293  0.22685799  0.14579827  1
  Ba  Ba7  1  -0.07670688  0.46416496  0.71028962  1
  Ba  Ba8  1  -0.02557185  0.70950204  0.76558538  1
  Ba  Ba9  1  0.78871414  0.08619262  0.78270037  1
  Ba  Ba10  1  0.17614176  0.67580518  0.04227778  1
  Ba  Ba11  1  0.19777505  0.03340009  0.72000165  1
  Ba  Ba12  1  0.25641315  0.04219123  -0.00144893  1
  Ba  Ba13  1  0.75295662  0.67121545  0.01404458  1
  Ba  Ba14  1  0.77049138  0.83086132  0.66595903  1
  Ba  Ba15  1  0.54012037  0.51344295  0.25432471  1
  Ba  Ba16  1  0.22383965  0.73819276  0.64865928  1
  Ba  Ba17  1  -0.04634348  0.47324615  0.41806491  1
  Ba  Ba18  1  0.48538293  0.08127851  0.77865654  1
  Ba  Ba19  1  0.31511817  0.53293766  0.20772755  1
  Ba  Ba20  1  0.03968613  0.26240091  0.29101336  1
  Ba  Ba21  1  0.52587332  -0.06547146  0.56183149  1
  Ba  Ba22  1  0.62817432  0.25279917  0.39595094  1
  Ba  Ba23  1  0.02346876  -0.00170502  -0.09130495  1
  Ba  Ba24  1  0.32393321  0.27404170  0.30982344  1
  Ba  Ba25  1  0.75188567  0.05357659  0.49726762  1
  Ba  Ba26  1  0.09693031  0.30767287  0.71622676  1
  Ba  Ba27  1  0.28538041  0.43731796  0.65273215  1
  Ba  Ba28  1  0.70415123  0.59271331  0.79023755  1
  Ba  Ba29  1  0.15270970  0.51249222  0.85291743  1
  Ba  Ba30  1  0.28318458  0.33773103  0.04167285  1
  Ba  Ba31  1  -0.01829683  0.70733903  0.48766469  1
  Ba  Ba32  1  -0.07941650  0.83656871  0.05734311  1
  Ba  Ba33  1  0.75310603  0.44281367  0.20563007  1
  Ba  Ba34  1  0.07610922  0.44486826  0.08532900  1
  Ba  Ba35  1  0.23593814  0.83746624  0.87760735  1
  Ba  Ba36  1  0.02760086  -0.04778808  0.43477768  1
  Ba  Ba37  1  0.47196967  0.73586976  0.41131058  1
  Ba  Ba38  1  0.53009014  0.77729139  0.16122814  1
  Ba  Ba39  1  0.58219032  0.31717834  0.77948953  1
  Ba  Ba40  1  0.50060848  -0.04105583  -0.00858727  1
  Ba  Ba41  1  0.49365926  0.55196122  0.73066869  1
  Ba  Ba42  1  0.77190414  0.16187806  0.19584163  1
  Ba  Ba43  1  0.76542006  -0.08817115  0.25420455  1
  Ba  Ba44  1  0.21952229  0.54309996  0.44691069  1
  Ba  Ba45  1  0.27805431  -0.05291902  0.47827196  1
  Ba  Ba46  1  0.18771658  0.76721821  0.26289339  1
  Ba  Ba47  1  0.75726756  0.35209660  0.58239407  1
  Ba  Ba48  1  0.33374492  -0.01973144  0.23538785  1
  Ba  Ba49  1  0.80445279  0.26533556  -0.04448498  1
  Ba  Ba50  1  0.71693990  0.70173684  0.43608452  1
  Fe  Fe51  1  0.12280793  0.17995160  -0.01181273  1
  Fe  Fe52  1  0.45076346  0.60372529  0.07397348  1
  Fe  Fe53  1  0.01269018  0.67649087  0.16308212  1
  Fe  Fe54  1  0.07088246  0.87978184  0.72849807  1
  Fe  Fe55  1  0.55585401  0.45156994  0.92195345  1
  Fe  Fe56  1  0.44356594  0.19325784  0.97686478  1
  Fe  Fe57  1  0.12679558  0.16099095  0.85430760  1
  Fe  Fe58  1  0.36490258  0.05268411  0.62437981  1
  Fe  Fe59  1  0.84512579  0.59444925  0.29932218  1
  Fe  Fe60  1  0.45004789  0.45488960  0.03794877  1
  Fe  Fe61  1  0.12083596  0.95136025  0.24620025  1
  Fe  Fe62  1  0.16405627  0.40683973  0.32002460  1
  Fe  Fe63  1  0.58754509  0.40925713  0.05343632  1
  Fe  Fe64  1  1.01962672  0.26339563  0.01289893  1
  Fe  Fe65  1  0.04371463  -0.00459369  0.62660379  1
  Fe  Fe66  1  0.58086234  0.42251213  0.56435059  1
  Fe  Fe67  1  0.53827793  0.55807389  0.49858807  1
  Fe  Fe68  1  0.87954878  0.48337398  1.06007315  1
  Fe  Fe69  1  0.85656836  0.73025718  0.29292515  1
  Fe  Fe70  1  0.33613881  0.54635581  0.98915969  1
  Fe  Fe71  1  0.62938329  0.05749520  0.34119692  1
  Fe  Fe72  1  0.45100806  0.45585674  0.56412095  1
  Fe  Fe73  1  1.00419744  0.20887729  0.88558525  1
  Fe  Fe74  1  0.57744262  0.55105069  0.03269208  1
  Fe  Fe75  1  0.41637712  0.51848276  0.42522267  1
  Fe  Fe76  1  0.93441238  0.54419931  0.18765428  1
  Fe  Fe77  1  0.12917501  0.29809320  0.91435789  1
  Fe  Fe78  1  0.67339956  0.05161304  0.06129361  1
  Fe  Fe79  1  -0.04998285  0.61435164  1.04595115  1
  Fe  Fe80  1  0.63987382  1.05008705  0.66365561  1
  Fe  Fe81  1  0.60769383  0.92653675  0.37806649  1
  Fe  Fe82  1  0.49366511  0.32067677  0.97013805  1
  Fe  Fe83  1  0.89340113  0.53247859  0.93511933  1
  Fe  Fe84  1  0.52345884  0.41361555  0.43515784  1
  Fe  Fe85  1  0.64482266  0.17191107  0.62985619  1
  Fe  Fe86  1  0.91152221  -0.00708159  0.61707765  1
  Fe  Fe87  1  0.46211670  0.56637406  0.92719245  1
  Fe  Fe88  1  0.68874878  0.00911260  0.93773070  1
  Fe  Fe89  1  0.35481303  0.93387635  0.66995537  1
  Fe  Fe90  1  0.39696664  0.38676570  0.45923785  1
  Fe  Fe91  1  0.48704200  0.92600748  0.33738181  1
  Fe  Fe92  1  0.51057024  0.05081413  0.38944553  1
  Fe  Fe93  1  -0.02576826  0.65529517  0.29241044  1
  Fe  Fe94  1  0.94987072  0.94214710  0.73686097  1
  Fe  Fe95  1  0.38364404  0.68710469  0.98504974  1
  Fe  Fe96  1  0.96409974  0.85631029  0.62204508  1
  Fe  Fe97  1  0.14127339  0.34822018  0.43735102  1
  Fe  Fe98  1  0.65178269  0.54400876  0.58052525  1
  Fe  Fe99  1  0.87106964  0.67156809  0.16590665  1
  Fe  Fe100  1  0.09731641  0.40867632  0.54297923  1
  Fe  Fe101  1  0.09334132  0.86881053  0.59845981  1
  Bi  Bi102  1  -0.01439510  0.83258365  0.26514328  1
  Bi  Bi103  1  0.70930651  0.67076568  0.22701160  1
  Bi  Bi104  1  0.56138522  0.00362053  0.20218474  1
  Bi  Bi105  1  0.10790674  0.56089303  0.26127265  1
  Bi  Bi106  1  0.83890842  0.04916499  0.01043264  1
  Bi  Bi107  1  0.38840815  0.41696162  -0.13354847  1
  Bi  Bi108  1  0.55155811  0.70447029  -0.05252794  1
  Bi  Bi109  1  -0.00734399  0.12131813  0.73274972  1
  Bi  Bi110  1  0.37949220  0.61849688  0.56237777  1
  Bi  Bi111  1  0.67913333  0.47762550  0.42135805  1
  Bi  Bi112  1  -0.01993251  0.38770685  -0.10419048  1
  Bi  Bi113  1  0.72522349  0.46423311  -0.02853699  1
  Bi  Bi114  1  0.60624705  0.16552546  -0.06129465  1
  Bi  Bi115  1  0.63218218  0.93247293  0.79132198  1
  Bi  Bi116  1  0.89717553  0.09204333  0.34439371  1
  Bi  Bi117  1  0.83823027  0.28028487  0.39029951  1
  Bi  Bi118  1  0.31533036  0.64352552  0.83487644  1
  Bi  Bi119  1  0.70012990  0.88017611  0.05204816  1
  Bi  Bi120  1  0.59104865  0.70836419  0.60783505  1
  Bi  Bi121  1  0.09536551  0.55933182  0.63211413  1
  Bi  Bi122  1  0.81725898  0.60609886  0.60272825  1
  Bi  Bi123  1  0.33600466  0.82549205  0.07496269  1
  Bi  Bi124  1  0.12604126  0.89876059  0.08440088  1
  Bi  Bi125  1  0.17195666  0.08877843  0.33883280  1
  Bi  Bi126  1  0.36674221  0.16149947  0.12247884  1
  Bi  Bi127  1  0.91211939  0.31987222  0.13035730  1
