# generated using pymatgen
data_Ba51Fe51Bi26
_symmetry_space_group_name_H-M   'P 1'
_cell_length_a   16.20961775
_cell_length_b   15.96351668
_cell_length_c   16.83565568
_cell_angle_alpha   90.26725646
_cell_angle_beta   90.06960549
_cell_angle_gamma   92.30001971
_symmetry_Int_Tables_number   1
_chemical_formula_structural   Ba51Fe51Bi26
_chemical_formula_sum   'Ba51 Fe51 Bi26'
_cell_volume   4352.87514124
_cell_formula_units_Z   1
loop_
 _symmetry_equiv_pos_site_id
 _symmetry_equiv_pos_as_xyz
  1  'x, y, z'
loop_
 _atom_site_type_symbol
 _atom_site_label
 _atom_site_symmetry_multiplicity
 _atom_site_fract_x
 _atom_site_fract_y
 _atom_site_fract_z
 _atom_site_occupancy
  Ba  Ba0  1  0.43098582  0.48815363  0.76250037  1
  Ba  Ba1  1  0.56809991  0.28326407  0.63544856  1
  Ba  Ba2  1  -0.01287590  0.27534159  0.70381995  1
  Ba  Ba3  1  0.07927965  0.52960660  0.09548477  1
  Ba  Ba4  1  0.84997211  0.50748455  0.41361467  1
  Ba  Ba5  1  0.80961897  0.03106709  0.32280059  1
  Ba  Ba6  1  0.80913476  0.74995174  0.72499716  1
  Ba  Ba7  1  0.55423162  0.23280464  0.27799165  1
  Ba  Ba8  1  -0.04614284  0.05490545  -0.06430584  1
  Ba  Ba9  1  0.30051401  0.55928903  0.26406415  1
  Ba  Ba10  1  0.56773191  0.51220666  -0.03229587  1
  Ba  Ba11  1  -0.19864349  0.07989561  0.73583870  1
  Ba  Ba12  1  0.13285810  0.29077446  0.49352775  1
  Ba  Ba13  1  0.06968605  0.85015118  0.52557843  1
  Ba  Ba14  1  0.76633724  0.17628315  0.12905045  1
  Ba  Ba15  1  0.68158865  0.75479537  -0.06141963  1
  Ba  Ba16  1  -0.04633463  0.81873959  -0.10432942  1
  Ba  Ba17  1  0.57379726  0.69140532  0.70884035  1
  Ba  Ba18  1  0.74191802  0.32326557  -0.07490469  1
  Ba  Ba19  1  0.08312664  0.49864370  0.35515353  1
  Ba  Ba20  1  0.13856003  0.44190486  -0.13999231  1
  Ba  Ba21  1  0.00390890  0.06982754  0.53554506  1
  Ba  Ba22  1  0.38257979  0.27429174  0.48721378  1
  Ba  Ba23  1  0.45711922  0.21976203  0.03703401  1
  Ba  Ba24  1  0.46370293  0.89401529  0.49399746  1
  Ba  Ba25  1  0.53051714  0.50900813  0.19843631  1
  Ba  Ba26  1  0.03105814  0.27705934  0.05071767  1
  Ba  Ba27  1  0.44399490  -0.09561618  0.75087330  1
  Ba  Ba28  1  0.25591212  0.17236937  0.25177483  1
  Ba  Ba29  1  -0.01865004  0.24313403  0.29809319  1
  Ba  Ba30  1  0.57682393  0.10870543  0.82824089  1
  Ba  Ba31  1  0.26570864  0.05180032  0.51827163  1
  Ba  Ba32  1  0.72186337  0.69398697  0.34357694  1
  Ba  Ba33  1  0.29227843  0.69055266  0.77525506  1
  Ba  Ba34  1  0.06594765  -0.07888861  0.28707590  1
  Ba  Ba35  1  0.18735822  -0.13321365  -0.04566851  1
  Ba  Ba36  1  0.44686757  -0.08609338  -0.00831348  1
  Ba  Ba37  1  0.53692457  0.79236116  0.17404685  1
  Ba  Ba38  1  0.81307833  0.46703080  0.14309102  1
  Ba  Ba39  1  0.20587575  0.10239415  0.01445781  1
  Ba  Ba40  1  0.59512529  0.45719727  0.41689541  1
  Ba  Ba41  1  0.29062095  -0.09806736  0.19847058  1
  Ba  Ba42  1  0.75719862  -0.09839277  0.11829535  1
  Ba  Ba43  1  0.41358422  0.59251938  0.53293607  1
  Ba  Ba44  1  0.72481331  0.49555159  0.62017207  1
  Ba  Ba45  1  0.30841829  0.24822319  0.75254040  1
  Ba  Ba46  1  0.07831882  0.73412716  0.70499785  1
  Ba  Ba47  1  0.72299667  0.86121586  0.53941495  1
  Ba  Ba48  1  -0.06551001  0.70899022  0.22853743  1
  Ba  Ba49  1  -0.08261319  0.51532848  0.76629602  1
  Ba  Ba50  1  0.29604188  0.66650496  0.03809392  1
  Fe  Fe51  1  0.62346513  1.08857142  0.54430979  1
  Fe  Fe52  1  0.95140699  0.84851420  0.07916120  1
  Fe  Fe53  1  0.28135037  0.03648954  0.71056048  1
  Fe  Fe54  1  0.90772714  0.32289493  0.45872916  1
  Fe  Fe55  1  0.66571466  0.18270250  0.44105785  1
  Fe  Fe56  1  0.84008815  0.34505981  0.57692719  1
  Fe  Fe57  1  0.73960189  0.05332458  0.96010413  1
  Fe  Fe58  1  0.23225767  0.92343569  0.77691062  1
  Fe  Fe59  1  0.71279968  0.66324158  0.53427989  1
  Fe  Fe60  1  0.10482937  0.53791450  0.65573320  1
  Fe  Fe61  1  0.15606999  0.11950084  0.69540635  1
  Fe  Fe62  1  0.04123512  0.07124337  0.75293926  1
  Fe  Fe63  1  0.08283704  0.83531583  0.11865111  1
  Fe  Fe64  1  0.28237849  0.44888643  0.44423560  1
  Fe  Fe65  1  0.46982345  0.03200021  0.20342782  1
  Fe  Fe66  1  0.59748927  0.02290811  0.24637170  1
  Fe  Fe67  1  0.82313844  0.59824726  0.97425065  1
  Fe  Fe68  1  0.64366452  0.41346861  0.78424980  1
  Fe  Fe69  1  0.13875054  0.97446090  0.67730846  1
  Fe  Fe70  1  0.03054487  0.71952355  0.05067817  1
  Fe  Fe71  1  0.39957316  0.80543020  0.33181277  1
  Fe  Fe72  1  0.59331446  0.67846927  0.49340899  1
  Fe  Fe73  1  0.81701508  0.20448363  0.43038136  1
  Fe  Fe74  1  0.48073428  0.93595105  0.30333185  1
  Fe  Fe75  1  0.87942343  0.21552117  0.55013718  1
  Fe  Fe76  1  0.23787639  0.50070855  0.70384969  1
  Fe  Fe77  1  0.64382034  0.95763621  0.93971426  1
  Fe  Fe78  1  0.06319685  -0.03670398  0.07188720  1
  Fe  Fe79  1  0.15493712  0.70370606  0.38859670  1
  Fe  Fe80  1  0.16091979  0.48502558  0.53451395  1
  Fe  Fe81  1  0.22930848  0.72753918  0.51661767  1
  Fe  Fe82  1  0.08743355  0.94452829  0.80065758  1
  Fe  Fe83  1  0.77762499  0.94426196  0.89464983  1
  Fe  Fe84  1  0.10031644  0.63067667  0.52300760  1
  Fe  Fe85  1  0.95411937  -0.02396727  0.13830952  1
  Fe  Fe86  1  0.28085065  0.44700097  0.58882504  1
  Fe  Fe87  1  0.52058058  0.13435270  0.47731153  1
  Fe  Fe88  1  0.74798022  0.32216471  0.47451456  1
  Fe  Fe89  1  0.95649271  0.61918963  -0.03461882  1
  Fe  Fe90  1  0.22915833  0.60308796  0.60463114  1
  Fe  Fe91  1  0.40082782  0.41897774  0.35983118  1
  Fe  Fe92  1  1.01116833  0.69301464  0.42765871  1
  Fe  Fe93  1  0.73499774  0.21533180  0.56911444  1
  Fe  Fe94  1  0.23459959  0.58968781  0.45373002  1
  Fe  Fe95  1  0.87597695  0.71169793  0.04679796  1
  Fe  Fe96  1  0.36166547  0.35284384  0.25513969  1
  Fe  Fe97  1  0.31681580  0.71304500  0.39735615  1
  Fe  Fe98  1  0.18044017  0.05445019  0.82017976  1
  Fe  Fe99  1  0.26307392  0.35506303  0.34446704  1
  Fe  Fe100  1  0.14874688  0.40567412  0.65734717  1
  Fe  Fe101  1  0.58614154  0.04930578  0.38684230  1
  Bi  Bi102  1  -0.00986898  0.44477949  0.56298398  1
  Bi  Bi103  1  0.45144981  0.09296442  0.62717224  1
  Bi  Bi104  1  0.66079161  -0.09820107  0.77241441  1
  Bi  Bi105  1  0.11567553  0.65712562  -0.09079109  1
  Bi  Bi106  1  0.79088012  0.06262093  0.52571858  1
  Bi  Bi107  1  0.26863357  0.85669647  0.62954762  1
  Bi  Bi108  1  0.15227558  0.71063044  0.20484813  1
  Bi  Bi109  1  0.49259524  0.66176326  0.35152360  1
  Bi  Bi110  1  0.77119651  0.31189290  0.31072673  1
  Bi  Bi111  1  0.41012214  0.08152153  0.35747889  1
  Bi  Bi112  1  0.35028017  0.05941813  0.86973189  1
  Bi  Bi113  1  0.76679152  0.30651565  0.72214432  1
  Bi  Bi114  1  0.71407570  0.56770138  -0.17600977  1
  Bi  Bi115  1  0.90084663  0.83357777  0.39844041  1
  Bi  Bi116  1  0.59154680  0.05086207  1.08087852  1
  Bi  Bi117  1  0.88853396  0.67478645  0.54904241  1
  Bi  Bi118  1  0.16512965  0.35914298  0.20956324  1
  Bi  Bi119  1  0.10999186  0.20837036  0.85724753  1
  Bi  Bi120  1  0.24866652  0.86724086  0.39854030  1
  Bi  Bi121  1  0.62718321  0.34580605  0.10339498  1
  Bi  Bi122  1  0.64021064  0.89065354  0.34103229  1
  Bi  Bi123  1  0.95248104  0.92574820  0.69768292  1
  Bi  Bi124  1  0.72165360  0.66251986  0.12394526  1
  Bi  Bi125  1  0.46436447  0.70321411  0.90207575  1
  Bi  Bi126  1  0.51705712  0.31743991  0.85083369  1
  Bi  Bi127  1  0.92782433  0.44373132  0.96270366  1
