# generated using pymatgen
data_Ba51Fe51Bi26
_symmetry_space_group_name_H-M   'P 1'
_cell_length_a   17.30063256
_cell_length_b   16.00699289
_cell_length_c   15.59565938
_cell_angle_alpha   92.03015135
_cell_angle_beta   88.16627887
_cell_angle_gamma   93.57798715
_symmetry_Int_Tables_number   1
_chemical_formula_structural   Ba51Fe51Bi26
_chemical_formula_sum   'Ba51 Fe51 Bi26'
_cell_volume   4305.87745816
_cell_formula_units_Z   1
loop_
 _symmetry_equiv_pos_site_id
 _symmetry_equiv_pos_as_xyz
  1  'x, y, z'
loop_
 _atom_site_type_symbol
 _atom_site_label
 _atom_site_symmetry_multiplicity
 _atom_site_fract_x
 _atom_site_fract_y
 _atom_site_fract_z
 _atom_site_occupancy
  Ba  Ba0  1  0.32132623  0.49183311  0.72125491  1
  Ba  Ba1  1  0.27219125  0.51972673  0.28062376  1
  Ba  Ba2  1  -0.09012093  0.21778277  0.29278609  1
  Ba  Ba3  1  0.23039911  0.23031198  0.70635011  1
  Ba  Ba4  1  0.81603785  0.47655243  0.04239996  1
  Ba  Ba5  1  0.79460885  0.72816211  0.07727887  1
  Ba  Ba6  1  0.52635878  0.10207256  -0.03081056  1
  Ba  Ba7  1  0.70824424  -0.05753187  0.00980204  1
  Ba  Ba8  1  0.49608273  0.00053892  0.50120383  1
  Ba  Ba9  1  0.81693851  0.57685285  0.29983986  1
  Ba  Ba10  1  -0.07924340  -0.01562616  0.18546591  1
  Ba  Ba11  1  0.61671182  0.21982853  0.71272703  1
  Ba  Ba12  1  0.75015761  -0.16314456  0.44547472  1
  Ba  Ba13  1  0.10875120  0.33489019  0.26005520  1
  Ba  Ba14  1  -0.01447453  0.29130426  0.01744776  1
  Ba  Ba15  1  0.31266572  0.29646252  0.46574324  1
  Ba  Ba16  1  -0.10760974  0.01282479  0.82133693  1
  Ba  Ba17  1  0.11879068  0.59090219  0.64513608  1
  Ba  Ba18  1  0.20104785  0.62383746  -0.02579438  1
  Ba  Ba19  1  0.47530313  0.57805366  0.46790527  1
  Ba  Ba20  1  0.72165725  0.49032645  0.50844729  1
  Ba  Ba21  1  0.07750815  0.78477866  0.12695636  1
  Ba  Ba22  1  0.25834412  -0.04754254  0.72168859  1
  Ba  Ba23  1  -0.06470076  0.47868856  0.82709384  1
  Ba  Ba24  1  0.21976369  0.02453733  0.45051002  1
  Ba  Ba25  1  0.47850835  0.14763122  0.25829583  1
  Ba  Ba26  1  0.70450554  0.69971215  0.65018262  1
  Ba  Ba27  1  0.06297950  0.80556928  0.79579287  1
  Ba  Ba28  1  0.58278830  0.26947294  0.46385337  1
  Ba  Ba29  1  0.47832018  0.54892879  0.17745334  1
  Ba  Ba30  1  0.58341534  0.47998321  0.72955270  1
  Ba  Ba31  1  0.48412383  -0.04080926  0.75133937  1
  Ba  Ba32  1  0.07310332  0.22139335  0.47510291  1
  Ba  Ba33  1  0.32079678  0.28901324  0.16732158  1
  Ba  Ba34  1  -0.01953569  0.00096061  0.52386077  1
  Ba  Ba35  1  0.83607716  0.19825084  0.72305266  1
  Ba  Ba36  1  -0.01438882  0.73742303  0.46700241  1
  Ba  Ba37  1  0.48110491  0.76125556  0.00214370  1
  Ba  Ba38  1  0.29115427  0.84612813  0.27127505  1
  Ba  Ba39  1  0.76344304  0.09841122  0.45531014  1
  Ba  Ba40  1  0.02183828  0.33363104  0.67412966  1
  Ba  Ba41  1  0.20281294  0.25011807  -0.04633879  1
  Ba  Ba42  1  0.09229789  0.02855408  -0.03569728  1
  Ba  Ba43  1  0.64764393  0.40947703  0.25373610  1
  Ba  Ba44  1  0.45686664  0.71697227  0.74039907  1
  Ba  Ba45  1  0.60082874  0.49192559  -0.02077573  1
  Ba  Ba46  1  -0.00006563  0.48446591  0.42549829  1
  Ba  Ba47  1  0.55214518  0.82002918  0.28835868  1
  Ba  Ba48  1  0.44438502  0.31007776  -0.13600947  1
  Ba  Ba49  1  0.84773962  0.72312694  -0.17625010  1
  Ba  Ba50  1  0.31096133  -0.02055284  0.03262983  1
  Fe  Fe51  1  0.76203465  0.11971341  0.18931130  1
  Fe  Fe52  1  0.02619582  0.51520353  0.07173978  1
  Fe  Fe53  1  0.64405346  0.21768139  0.18484110  1
  Fe  Fe54  1  0.95392509  0.60836941  0.14455462  1
  Fe  Fe55  1  0.08117591  0.55203024  0.19779268  1
  Fe  Fe56  1  0.03758646  0.17364020  0.81774805  1
  Fe  Fe57  1  0.69323843  0.15675698  1.05325950  1
  Fe  Fe58  1  0.28529479  0.83636279  0.48541594  1
  Fe  Fe59  1  0.66220816  0.03082020  0.62679185  1
  Fe  Fe60  1  0.62813450  1.06085150  0.16463560  1
  Fe  Fe61  1  1.00040394  0.63285872  0.27236107  1
  Fe  Fe62  1  0.28636273  0.43595765  0.94308139  1
  Fe  Fe63  1  0.73803548  0.55696015  0.84902825  1
  Fe  Fe64  1  0.33501032  0.82861907  0.88398800  1
  Fe  Fe65  1  0.82436080  0.14598912  0.04433390  1
  Fe  Fe66  1  0.77420931  0.51505495  0.72393781  1
  Fe  Fe67  1  0.65343109  0.25755540  0.93736876  1
  Fe  Fe68  1  0.88058994  0.25874386  0.51997311  1
  Fe  Fe69  1  0.65820768  0.61200798  0.15813249  1
  Fe  Fe70  1  0.68243945  0.31083934  0.06543337  1
  Fe  Fe71  1  0.16449958  0.15748044  0.28614518  1
  Fe  Fe72  1  0.42050501  0.14617536  0.69553312  1
  Fe  Fe73  1  0.30699563  0.69455569  0.40490669  1
  Fe  Fe74  1  0.63514504  0.85054488  0.79710302  1
  Fe  Fe75  1  0.05645273  0.14914171  0.17654877  1
  Fe  Fe76  1  0.40148979  0.41307148  0.02689424  1
  Fe  Fe77  1  0.65562284  1.11553896  0.29666671  1
  Fe  Fe78  1  0.38983133  0.83636915  0.58323875  1
  Fe  Fe79  1  0.64368475  0.89581426  0.64787385  1
  Fe  Fe80  1  0.34199056  0.69151632  0.54953743  1
  Fe  Fe81  1  0.17960082  0.39677674  0.57687462  1
  Fe  Fe82  1  0.74604935  0.15528443  0.91291917  1
  Fe  Fe83  1  0.73251368  0.24250281  0.29840577  1
  Fe  Fe84  1  0.75555421  0.28618695  0.55827455  1
  Fe  Fe85  1  0.05598728  0.08329686  0.30653822  1
  Fe  Fe86  1  0.20302759  0.70947842  0.49218262  1
  Fe  Fe87  1  0.74786257  0.89071944  0.74165525  1
  Fe  Fe88  1  0.40700859  0.79046463  0.44785617  1
  Fe  Fe89  1  0.21688468  0.83934337  0.91066758  1
  Fe  Fe90  1  0.17729248  0.14128814  0.13853564  1
  Fe  Fe91  1  0.04661791  0.11829928  0.69550137  1
  Fe  Fe92  1  0.78299046  0.38188938  0.66750089  1
  Fe  Fe93  1  0.87015232  0.38836321  0.55721829  1
  Fe  Fe94  1  0.77383839  -0.02118701  0.63134841  1
  Fe  Fe95  1  0.13261050  1.01979983  0.19824233  1
  Fe  Fe96  1  0.32079824  0.50251779  0.06544497  1
  Fe  Fe97  1  0.79404870  0.27159632  0.97973042  1
  Fe  Fe98  1  0.16305586  0.41258726  0.44835937  1
  Fe  Fe99  1  0.79471431  0.31935405  0.42565816  1
  Fe  Fe100  1  0.26150061  0.77424494  0.61773431  1
  Fe  Fe101  1  0.78608448  0.26469994  0.14348706  1
  Bi  Bi102  1  0.64289475  0.69573252  0.87599855  1
  Bi  Bi103  1  0.16867731  0.43465482  0.08220991  1
  Bi  Bi104  1  0.72088868  -0.04206444  0.25764099  1
  Bi  Bi105  1  -0.05721353  0.43454166  0.20574183  1
  Bi  Bi106  1  0.73807719  0.37766268  0.84100776  1
  Bi  Bi107  1  0.67877987  0.03454830  0.80446065  1
  Bi  Bi108  1  0.27366375  0.52979245  0.50664378  1
  Bi  Bi109  1  0.29019386  0.06843674  0.23983651  1
  Bi  Bi110  1  0.14779641  0.67482657  0.32727859  1
  Bi  Bi111  1  0.54536644  0.79508441  0.53809106  1
  Bi  Bi112  1  0.24967232  0.71443693  0.78112220  1
  Bi  Bi113  1  0.52258737  0.30723461  0.08031722  1
  Bi  Bi114  1  0.13147608  0.85193567  0.57442110  1
  Bi  Bi115  1  0.93126582  0.87769901  -0.01962702  1
  Bi  Bi116  1  0.07718591  0.91444657  0.32631712  1
  Bi  Bi117  1  0.45101222  0.38621285  0.32942112  1
  Bi  Bi118  1  0.90644540  0.76772302  0.26150232  1
  Bi  Bi119  1  0.87722701  0.84947278  0.64194623  1
  Bi  Bi120  1  0.34190944  0.11338977  0.85122595  1
  Bi  Bi121  1  0.41684866  0.55645573  0.91774063  1
  Bi  Bi122  1  0.15070646  0.42720479  0.83592241  1
  Bi  Bi123  1  -0.01723264  0.64439328  0.97094613  1
  Bi  Bi124  1  0.49688006  0.94998467  0.12860442  1
  Bi  Bi125  1  0.44075681  0.30790457  0.63883185  1
  Bi  Bi126  1  0.63108674  0.63082778  0.32952851  1
  Bi  Bi127  1  0.90114994  0.55615908  0.61841641  1
