# generated using pymatgen
data_Ba51Fe51Bi26
_symmetry_space_group_name_H-M   'P 1'
_cell_length_a   16.28423770
_cell_length_b   16.59063361
_cell_length_c   15.87598611
_cell_angle_alpha   89.03582028
_cell_angle_beta   91.82703087
_cell_angle_gamma   91.05975348
_symmetry_Int_Tables_number   1
_chemical_formula_structural   Ba51Fe51Bi26
_chemical_formula_sum   'Ba51 Fe51 Bi26'
_cell_volume   4285.66920745
_cell_formula_units_Z   1
loop_
 _symmetry_equiv_pos_site_id
 _symmetry_equiv_pos_as_xyz
  1  'x, y, z'
loop_
 _atom_site_type_symbol
 _atom_site_label
 _atom_site_symmetry_multiplicity
 _atom_site_fract_x
 _atom_site_fract_y
 _atom_site_fract_z
 _atom_site_occupancy
  Ba  Ba0  1  0.84932564  0.08379891  0.72003597  1
  Ba  Ba1  1  0.33367680  0.00185337  0.84365759  1
  Ba  Ba2  1  0.53130886  0.00660380  0.10543388  1
  Ba  Ba3  1  0.04126184  0.23990398  0.74112814  1
  Ba  Ba4  1  0.67894188  0.56467325  0.39726155  1
  Ba  Ba5  1  0.24479731  0.38432086  0.17023665  1
  Ba  Ba6  1  0.00717663  0.68955683  0.23964322  1
  Ba  Ba7  1  0.05433372  -0.01254241  0.23090951  1
  Ba  Ba8  1  0.49089725  0.51611044  0.50930699  1
  Ba  Ba9  1  0.77837213  0.33399497  0.76704442  1
  Ba  Ba10  1  0.19612570  0.55262633  0.32046431  1
  Ba  Ba11  1  0.70128097  0.21379124  -0.01965722  1
  Ba  Ba12  1  -0.16364947  0.44888796  0.54287759  1
  Ba  Ba13  1  0.58503963  0.26858523  0.47565112  1
  Ba  Ba14  1  0.11039376  0.00365061  0.67421179  1
  Ba  Ba15  1  0.23690295  0.54731952  -0.05128129  1
  Ba  Ba16  1  0.68546335  0.24687497  0.25667656  1
  Ba  Ba17  1  0.73593182  0.51661557  -0.07091451  1
  Ba  Ba18  1  0.88719441  0.70569305  0.51282792  1
  Ba  Ba19  1  -0.02812708  0.49766577  0.74319011  1
  Ba  Ba20  1  0.89276482  -0.00825237  0.39281960  1
  Ba  Ba21  1  0.49498412  0.79888557  0.49733426  1
  Ba  Ba22  1  0.23722879  0.50529988  0.55637835  1
  Ba  Ba23  1  0.76901222  0.47381032  0.17397625  1
  Ba  Ba24  1  0.56306179  0.73841454  0.72703721  1
  Ba  Ba25  1  0.24761740  0.81213457  0.30879244  1
  Ba  Ba26  1  -0.00979091  0.38173937  0.26408255  1
  Ba  Ba27  1  0.41812914  0.14403417  0.63059685  1
  Ba  Ba28  1  0.52946294  0.72639244  0.26539385  1
  Ba  Ba29  1  0.29536655  0.39341505  0.76849057  1
  Ba  Ba30  1  0.62950019  -0.00722993  0.56081323  1
  Ba  Ba31  1  0.44680297  0.26832841  0.17336708  1
  Ba  Ba32  1  -0.03217454  0.83466917  -0.00256259  1
  Ba  Ba33  1  0.44700034  0.78028746  0.04040247  1
  Ba  Ba34  1  0.19050510  0.73721273  0.07059841  1
  Ba  Ba35  1  0.08809811  0.07611403  -0.02109619  1
  Ba  Ba36  1  0.64666189  -0.05399179  0.31511942  1
  Ba  Ba37  1  0.54192537  0.37920483  0.70784309  1
  Ba  Ba38  1  -0.08052812  0.18970777  0.13693281  1
  Ba  Ba39  1  0.54949202  0.54639783  0.12022636  1
  Ba  Ba40  1  0.30658737  0.75416954  0.81901585  1
  Ba  Ba41  1  0.29168982  0.06679861  0.27201599  1
  Ba  Ba42  1  0.41959657  0.22581415  -0.08018247  1
  Ba  Ba43  1  0.60513954  -0.00117421  0.81598143  1
  Ba  Ba44  1  0.02997004  0.77977571  0.70911619  1
  Ba  Ba45  1  0.79201791  0.72519638  0.79901960  1
  Ba  Ba46  1  0.78297855  0.76074916  0.24637058  1
  Ba  Ba47  1  0.20410254  0.27427811  0.40721745  1
  Ba  Ba48  1  0.27666392  0.73402030  0.58371560  1
  Ba  Ba49  1  0.51084641  0.55486455  -0.12107899  1
  Ba  Ba50  1  0.30018101  -0.02813230  0.50495141  1
  Fe  Fe51  1  0.87224645  0.36712568  0.03525611  1
  Fe  Fe52  1  0.05400711  0.64530082  0.88227010  1
  Fe  Fe53  1  0.34873392  0.64581813  0.21113104  1
  Fe  Fe54  1  0.66960591  0.74704904  0.44644156  1
  Fe  Fe55  1  0.84593946  0.08044630  0.94422169  1
  Fe  Fe56  1  0.19008293  0.15774660  0.58171907  1
  Fe  Fe57  1  0.70294442  0.80461793  0.58922631  1
  Fe  Fe58  1  1.01863609  0.82652609  0.40147471  1
  Fe  Fe59  1  0.01276567  0.18502311  0.37677399  1
  Fe  Fe60  1  0.02209060  0.53293515  0.45942252  1
  Fe  Fe61  1  0.20205177  0.93914028  0.10240680  1
  Fe  Fe62  1  0.75062291  0.84940675  0.46765017  1
  Fe  Fe63  1  -0.03438406  0.29689376  0.44527430  1
  Fe  Fe64  1  0.11961799  0.91420937  0.41222901  1
  Fe  Fe65  1  0.04157194  0.50820536  0.95280278  1
  Fe  Fe66  1  0.45166573  -0.04431198  0.36863125  1
  Fe  Fe67  1  0.59536729  0.37128518  0.90346523  1
  Fe  Fe68  1  0.01784662  0.38086660  0.03961098  1
  Fe  Fe69  1  0.27909559  0.90376600  1.00490512  1
  Fe  Fe70  1  0.20138502  0.22709730  0.91403781  1
  Fe  Fe71  1  0.19696410  0.28372913  0.60646803  1
  Fe  Fe72  1  0.24007138  0.21275131  0.06543532  1
  Fe  Fe73  1  0.65458527  0.87751547  0.97054349  1
  Fe  Fe74  1  0.86835369  0.00139272  0.05147282  1
  Fe  Fe75  1  0.78945597  0.21942766  0.57529485  1
  Fe  Fe76  1  0.82043875  0.27787617  0.44957007  1
  Fe  Fe77  1  0.40995115  0.53074383  0.27221527  1
  Fe  Fe78  1  0.25509268  0.32896360  0.98265048  1
  Fe  Fe79  1  0.62286024  0.73848676  0.95224523  1
  Fe  Fe80  1  0.76050566  0.90576282  0.08772756  1
  Fe  Fe81  1  0.05649733  0.57614137  0.58330417  1
  Fe  Fe82  1  0.33378138  0.91030120  0.14362872  1
  Fe  Fe83  1  0.92988309  0.50410000  0.05185629  1
  Fe  Fe84  1  0.63928878  0.81532785  0.09657510  1
  Fe  Fe85  1  0.88029422  0.20104235  0.35435987  1
  Fe  Fe86  1  0.01287300  0.63592116  0.01429934  1
  Fe  Fe87  1  0.43292956  0.89897233  0.25271779  1
  Fe  Fe88  1  0.92041574  0.42167298  0.92018558  1
  Fe  Fe89  1  0.92145242  0.58228724  0.91557315  1
  Fe  Fe90  1  0.67816728  0.67600106  0.56711460  1
  Fe  Fe91  1  0.76217860  0.78817810  1.00261538  1
  Fe  Fe92  1  0.91435540  0.15873900  0.50172427  1
  Fe  Fe93  1  0.57356712  0.37141429  0.03081110  1
  Fe  Fe94  1  0.91677633  0.27517646  0.58465405  1
  Fe  Fe95  1  0.35552410  0.54686652  0.13160768  1
  Fe  Fe96  1  0.67868691  0.68939905  0.06511232  1
  Fe  Fe97  1  0.72375723  0.01247285  0.99373965  1
  Fe  Fe98  1  0.12093363  0.83591367  0.52607358  1
  Fe  Fe99  1  0.11734182  0.27416519  1.03425314  1
  Fe  Fe100  1  0.05690310  0.21267957  0.53480957  1
  Fe  Fe101  1  1.01132270  0.90818553  0.52369909  1
  Bi  Bi102  1  0.40380762  0.41818607  0.01173684  1
  Bi  Bi103  1  0.85447053  -0.10207356  0.60702179  1
  Bi  Bi104  1  0.09302573  0.52813066  0.12475908  1
  Bi  Bi105  1  0.32085581  0.06745239  0.05369173  1
  Bi  Bi106  1  -0.08790755  0.24149289  -0.07814100  1
  Bi  Bi107  1  0.10235864  0.68524653  0.45517815  1
  Bi  Bi108  1  0.11334740  0.07153436  0.45029826  1
  Bi  Bi109  1  0.15355534  0.61009631  0.73648617  1
  Bi  Bi110  1  0.05423669  0.39106280  0.56316072  1
  Bi  Bi111  1  0.24500762  0.17552736  0.75336691  1
  Bi  Bi112  1  0.84964880  0.65502490  0.06563489  1
  Bi  Bi113  1  0.80575603  -0.07593538  -0.11962291  1
  Bi  Bi114  1  0.74259928  0.12630069  0.43487270  1
  Bi  Bi115  1  0.88622596  0.55286493  0.34880549  1
  Bi  Bi116  1  0.50515605  0.10753869  0.32208604  1
  Bi  Bi117  1  0.74862302  0.06177804  0.16033570  1
  Bi  Bi118  1  0.43856791  0.91260667  0.67658381  1
  Bi  Bi119  1  0.68899493  0.54900354  0.69257347  1
  Bi  Bi120  1  0.11336167  0.37776572  0.88728727  1
  Bi  Bi121  1  0.15042745  0.88548955  0.88462125  1
  Bi  Bi122  1  0.37092349  0.65118937  0.39300371  1
  Bi  Bi123  1  0.54419142  0.42101646  0.30465874  1
  Bi  Bi124  1  0.36464531  0.33510825  0.56108875  1
  Bi  Bi125  1  0.64965624  0.17884080  0.68416864  1
  Bi  Bi126  1  0.40379112  0.59223547  0.69262583  1
  Bi  Bi127  1  0.12602955  0.19884344  0.20103691  1
