# generated using pymatgen
data_Ba51Fe51Bi26
_symmetry_space_group_name_H-M   'P 1'
_cell_length_a   16.10814723
_cell_length_b   16.52937487
_cell_length_c   16.60452355
_cell_angle_alpha   91.46059017
_cell_angle_beta   89.14052350
_cell_angle_gamma   90.05193265
_symmetry_Int_Tables_number   1
_chemical_formula_structural   Ba51Fe51Bi26
_chemical_formula_sum   'Ba51 Fe51 Bi26'
_cell_volume   4419.14636759
_cell_formula_units_Z   1
loop_
 _symmetry_equiv_pos_site_id
 _symmetry_equiv_pos_as_xyz
  1  'x, y, z'
loop_
 _atom_site_type_symbol
 _atom_site_label
 _atom_site_symmetry_multiplicity
 _atom_site_fract_x
 _atom_site_fract_y
 _atom_site_fract_z
 _atom_site_occupancy
  Ba  Ba0  1  0.02379791  0.50778425  0.52839003  1
  Ba  Ba1  1  0.24537144  0.01245042  0.56484687  1
  Ba  Ba2  1  -0.02828205  0.06941458  0.29461643  1
  Ba  Ba3  1  0.47850302  0.87021047  0.74896288  1
  Ba  Ba4  1  0.32534065  -0.01515573  -0.03042274  1
  Ba  Ba5  1  0.32498007  0.30092961  -0.00462656  1
  Ba  Ba6  1  0.48612995  0.06350660  0.37188894  1
  Ba  Ba7  1  0.53246386  0.62481582  0.71337777  1
  Ba  Ba8  1  0.69502366  0.73060943  -0.07454243  1
  Ba  Ba9  1  0.73768718  -0.01693059  0.30064224  1
  Ba  Ba10  1  -0.08770512  -0.04205708  0.50330454  1
  Ba  Ba11  1  0.24375853  0.48046101  0.20247500  1
  Ba  Ba12  1  0.66371360  -0.03818947  0.54803688  1
  Ba  Ba13  1  -0.07026363  0.75520185  0.02072052  1
  Ba  Ba14  1  0.40094312  0.73795903  -0.04648651  1
  Ba  Ba15  1  -0.03459537  0.72236981  0.44538055  1
  Ba  Ba16  1  0.79452886  0.00290555  0.76827171  1
  Ba  Ba17  1  0.25938578  0.50856535  0.70304035  1
  Ba  Ba18  1  0.41055933  0.74982581  0.24400662  1
  Ba  Ba19  1  0.41789819  0.35701311  0.46744904  1
  Ba  Ba20  1  0.15492072  0.15107859  0.84468056  1
  Ba  Ba21  1  -0.02603356  0.38355369  0.75984529  1
  Ba  Ba22  1  0.50961437  0.49021807  0.21113092  1
  Ba  Ba23  1  -0.05264597  0.29049495  0.39491303  1
  Ba  Ba24  1  -0.00556775  0.65570784  0.73569007  1
  Ba  Ba25  1  0.02925705  -0.01645564  0.69637454  1
  Ba  Ba26  1  0.52898652  0.59384029  0.45899928  1
  Ba  Ba27  1  -0.04148506  0.26217717  -0.01630953  1
  Ba  Ba28  1  0.35868230  0.26165617  0.75149258  1
  Ba  Ba29  1  0.60257962  0.48965664  -0.05311707  1
  Ba  Ba30  1  0.69213921  0.77063078  0.18925610  1
  Ba  Ba31  1  0.16347807  0.28797405  0.57247923  1
  Ba  Ba32  1  0.73772444  0.74871655  0.42939385  1
  Ba  Ba33  1  0.49285308  0.18090311  0.13805429  1
  Ba  Ba34  1  0.79839993  0.49008165  0.46767497  1
  Ba  Ba35  1  0.54951321  0.11811529  0.73986285  1
  Ba  Ba36  1  0.11083426  0.25570340  0.19020655  1
  Ba  Ba37  1  0.16676072  0.80238454  0.02981060  1
  Ba  Ba38  1  0.61759300  -0.03779101  -0.02973254  1
  Ba  Ba39  1  0.73682912  0.26773270  0.71881189  1
  Ba  Ba40  1  0.26306917  0.56302668  0.43591402  1
  Ba  Ba41  1  0.82417421  0.51531821  0.11313177  1
  Ba  Ba42  1  0.21200671  -0.00710603  0.31188695  1
  Ba  Ba43  1  0.18096911  0.78742985  0.53043705  1
  Ba  Ba44  1  0.75422937  0.20996283  0.21580525  1
  Ba  Ba45  1  0.70584623  0.23714177  0.47570684  1
  Ba  Ba46  1  0.13650495  0.72251712  0.26870743  1
  Ba  Ba47  1  0.74473188  0.50249065  0.71542702  1
  Ba  Ba48  1  0.04942132  0.00862083  0.07249909  1
  Ba  Ba49  1  0.70042016  0.20117499  -0.03231871  1
  Ba  Ba50  1  0.24268947  0.54459104  -0.06431602  1
  Fe  Fe51  1  0.26904737  0.30827029  0.33735361  1
  Fe  Fe52  1  0.81268257  0.80100719  0.63942572  1
  Fe  Fe53  1  0.67041138  0.78998388  0.64634173  1
  Fe  Fe54  1  0.41534077  0.17981197  0.57883208  1
  Fe  Fe55  1  0.89585221  0.27444786  0.58575108  1
  Fe  Fe56  1  0.14638917  0.83625182  0.74132894  1
  Fe  Fe57  1  0.70847898  0.66584376  0.60418676  1
  Fe  Fe58  1  0.16356351  0.21738613  0.37462274  1
  Fe  Fe59  1  0.85681821  0.13284491  0.63231679  1
  Fe  Fe60  1  0.45709084  0.42967435  0.64646816  1
  Fe  Fe61  1  0.23679236  0.82643429  0.84387927  1
  Fe  Fe62  1  0.38270541  0.75737583  0.46177527  1
  Fe  Fe63  1  0.31182142  0.26648534  0.19203521  1
  Fe  Fe64  1  0.38266214  0.60116548  0.08911632  1
  Fe  Fe65  1  0.54292363  0.16317788  0.55334109  1
  Fe  Fe66  1  0.42103185  0.88311171  0.45338148  1
  Fe  Fe67  1  0.71281348  0.82578936  0.76175194  1
  Fe  Fe68  1  0.01972926  0.87458694  0.22418900  1
  Fe  Fe69  1  0.90860794  0.87746805  0.32302239  1
  Fe  Fe70  1  0.27036139  0.17181268  0.28320390  1
  Fe  Fe71  1  0.72713280  0.02894118  0.11334276  1
  Fe  Fe72  1  0.85662883  0.03315815  0.13750124  1
  Fe  Fe73  1  0.56931804  0.38109115  0.71848767  1
  Fe  Fe74  1  0.06623373  0.80503086  0.85385527  1
  Fe  Fe75  1  0.68876998  0.39811421  0.27389657  1
  Fe  Fe76  1  0.05139878  0.54707227  0.33508973  1
  Fe  Fe77  1  0.98166436  0.91379187  0.90368295  1
  Fe  Fe78  1  0.62633168  0.42565764  0.38455179  1
  Fe  Fe79  1  0.26656462  0.65353566  0.10863978  1
  Fe  Fe80  1  1.00111420  0.03915837  0.88226111  1
  Fe  Fe81  1  0.03837306  0.88339016  0.35319238  1
  Fe  Fe82  1  0.88226500  0.90092129  0.18260330  1
  Fe  Fe83  1  0.98787465  0.59301603  0.22133352  1
  Fe  Fe84  1  0.12199743  -0.06383672  0.86819363  1
  Fe  Fe85  1  0.89485371  0.58569060  0.32168205  1
  Fe  Fe86  1  -0.01220698  0.18398904  0.62196726  1
  Fe  Fe87  1  0.51505349  0.28719953  0.62452890  1
  Fe  Fe88  1  0.45977644  0.43599768  0.77747060  1
  Fe  Fe89  1  0.37722257  0.84738324  0.57869741  1
  Fe  Fe90  1  0.31236248  0.71097137  0.78299288  1
  Fe  Fe91  1  0.94799326  0.46177918  0.30313515  1
  Fe  Fe92  1  0.78482451  0.91276512  0.08118823  1
  Fe  Fe93  1  0.17008384  0.70476703  0.84454213  1
  Fe  Fe94  1  0.89152694  0.15063488  0.50867060  1
  Fe  Fe95  1  0.76628766  0.69860197  0.73353073  1
  Fe  Fe96  1  0.28977022  0.82269033  0.69654573  1
  Fe  Fe97  1  0.19531539  0.70681872  0.71356318  1
  Fe  Fe98  1  0.39749589  0.22533182  0.31070003  1
  Fe  Fe99  1  0.39040075  0.34664933  0.26180297  1
  Fe  Fe100  1  0.84047113  0.66700625  0.60149805  1
  Fe  Fe101  1  0.03904219  0.46824280  0.19200310  1
  Bi  Bi102  1  0.26176369  -0.02275796  0.76861635  1
  Bi  Bi103  1  0.13005713  0.39786235  0.37464293  1
  Bi  Bi104  1  -0.09858738  0.73543161  0.23760471  1
  Bi  Bi105  1  0.84947046  0.02391087  -0.02820525  1
  Bi  Bi106  1  0.09422247  0.60769358  0.08973059  1
  Bi  Bi107  1  0.53758983  0.78056094  0.55272954  1
  Bi  Bi108  1  0.45732613  0.00954703  0.57897882  1
  Bi  Bi109  1  0.26234427  0.11490413  0.12408381  1
  Bi  Bi110  1  -0.06039695  0.16878030  0.78405138  1
  Bi  Bi111  1  0.55994705  0.28248677  0.31875340  1
  Bi  Bi112  1  0.88067147  0.81626024  0.80845228  1
  Bi  Bi113  1  0.34547742  0.67356511  0.60938556  1
  Bi  Bi114  1  0.69690978  0.56721499  0.30417718  1
  Bi  Bi115  1  0.11438933  0.40534124  0.04320845  1
  Bi  Bi116  1  0.64776048  0.35777031  0.11383466  1
  Bi  Bi117  1  0.80229110  0.39072834  0.89688150  1
  Bi  Bi118  1  0.06735081  0.11463481  0.47995731  1
  Bi  Bi119  1  0.56212326  0.85866424  0.35164320  1
  Bi  Bi120  1  0.53890758  0.30739242  0.85993721  1
  Bi  Bi121  1  0.84575953  0.58055561  0.88679611  1
  Bi  Bi122  1  0.61433839  0.41857521  0.55876419  1
  Bi  Bi123  1  0.54365698  0.65890074  0.08262869  1
  Bi  Bi124  1  0.91825182  0.34358857  0.18738483  1
  Bi  Bi125  1  0.17567992  0.35914128  0.83094816  1
  Bi  Bi126  1  0.47410351  0.12722845  0.93405303  1
  Bi  Bi127  1  0.30979267  0.17029142  0.44575688  1
