# generated using pymatgen
data_Ba51Fe51Bi26
_symmetry_space_group_name_H-M   'P 1'
_cell_length_a   16.54452170
_cell_length_b   16.93633003
_cell_length_c   15.96173643
_cell_angle_alpha   90.70204662
_cell_angle_beta   91.73838480
_cell_angle_gamma   88.93757757
_symmetry_Int_Tables_number   1
_chemical_formula_structural   Ba51Fe51Bi26
_chemical_formula_sum   'Ba51 Fe51 Bi26'
_cell_volume   4469.40131263
_cell_formula_units_Z   1
loop_
 _symmetry_equiv_pos_site_id
 _symmetry_equiv_pos_as_xyz
  1  'x, y, z'
loop_
 _atom_site_type_symbol
 _atom_site_label
 _atom_site_symmetry_multiplicity
 _atom_site_fract_x
 _atom_site_fract_y
 _atom_site_fract_z
 _atom_site_occupancy
  Ba  Ba0  1  -0.09639337  0.52268307  0.44650603  1
  Ba  Ba1  1  0.54669515  0.51008418  -0.00239313  1
  Ba  Ba2  1  -0.03149483  0.40070492  0.68727379  1
  Ba  Ba3  1  0.12770442  0.78574505  0.71924685  1
  Ba  Ba4  1  0.01736747  0.78067001  0.23230819  1
  Ba  Ba5  1  0.48484226  0.22670702  0.29348300  1
  Ba  Ba6  1  0.34595024  -0.03504669  0.08805491  1
  Ba  Ba7  1  0.06114220  0.02939554  0.81798529  1
  Ba  Ba8  1  0.00142961  0.25761947  0.47690202  1
  Ba  Ba9  1  -0.06415263  0.70891942  0.02635711  1
  Ba  Ba10  1  0.39411277  0.31110553  0.00254025  1
  Ba  Ba11  1  0.16596868  0.50479382  0.43441958  1
  Ba  Ba12  1  0.01417773  0.47193820  0.21626298  1
  Ba  Ba13  1  0.27042026  -0.04280215  0.33720286  1
  Ba  Ba14  1  0.59621364  -0.04448393  -0.02083203  1
  Ba  Ba15  1  0.73085714  0.17463480  0.81945192  1
  Ba  Ba16  1  -0.12566196  0.25328278  0.07683448  1
  Ba  Ba17  1  0.49019702  0.27529691  0.53523331  1
  Ba  Ba18  1  0.88365603  -0.03537751  0.01804962  1
  Ba  Ba19  1  0.23331677  0.48610496  -0.05649436  1
  Ba  Ba20  1  0.50102609  0.68190721  0.54254171  1
  Ba  Ba21  1  0.76200771  0.92872192  0.77425014  1
  Ba  Ba22  1  0.00184376  0.77854111  0.47705786  1
  Ba  Ba23  1  0.05805858  0.21359914  0.22827778  1
  Ba  Ba24  1  0.73689351  0.45004270  0.81592683  1
  Ba  Ba25  1  0.76218786  0.73471786  0.54848727  1
  Ba  Ba26  1  0.27408109  0.29419571  0.45088945  1
  Ba  Ba27  1  0.22792647  0.16746224  -0.04074944  1
  Ba  Ba28  1  -0.09620717  0.68799536  0.77063305  1
  Ba  Ba29  1  0.65328799  0.29731197  0.14071544  1
  Ba  Ba30  1  0.30680130  -0.05105953  0.57652138  1
  Ba  Ba31  1  0.55186951  -0.03562172  0.57046600  1
  Ba  Ba32  1  0.51518543  0.50242128  0.37923259  1
  Ba  Ba33  1  0.72518609  0.05752717  0.23884862  1
  Ba  Ba34  1  0.47320755  0.18488274  0.77196802  1
  Ba  Ba35  1  0.49029873  0.45937787  0.73818889  1
  Ba  Ba36  1  0.34111568  -0.06953549  0.82888490  1
  Ba  Ba37  1  0.51092456  -0.01065038  0.28071040  1
  Ba  Ba38  1  0.25185230  0.54913617  0.70005922  1
  Ba  Ba39  1  0.27544160  0.17475087  0.22165413  1
  Ba  Ba40  1  0.71320815  0.77315590  0.17969152  1
  Ba  Ba41  1  0.61918122  0.68737670  0.79716330  1
  Ba  Ba42  1  0.80414340  0.01890349  0.50149043  1
  Ba  Ba43  1  0.24019069  0.72523008  0.48669315  1
  Ba  Ba44  1  0.01053094  -0.00037189  0.33346306  1
  Ba  Ba45  1  0.73258620  0.30505518  0.45569480  1
  Ba  Ba46  1  0.22310173  0.76196582  0.01688820  1
  Ba  Ba47  1  0.48394002  0.75161843  0.01240104  1
  Ba  Ba48  1  -0.02860925  0.46770812  -0.03143829  1
  Ba  Ba49  1  0.30523110  0.55632477  0.20631197  1
  Ba  Ba50  1  0.22539526  0.16856077  0.66054019  1
  Fe  Fe51  1  0.63186000  0.47845217  0.21400263  1
  Fe  Fe52  1  0.55059772  0.17742198  0.99481990  1
  Fe  Fe53  1  0.33443802  0.11999183  0.42545749  1
  Fe  Fe54  1  0.07796656  0.95479352  0.63017437  1
  Fe  Fe55  1  0.43272623  0.80824024  0.67575101  1
  Fe  Fe56  1  1.04421719  -0.00773198  0.14235629  1
  Fe  Fe57  1  0.67475520  0.16054043  0.60375979  1
  Fe  Fe58  1  0.81379531  0.59081693  0.09850508  1
  Fe  Fe59  1  0.46120319  0.68836295  0.32846227  1
  Fe  Fe60  1  0.13497585  0.96692687  1.01189073  1
  Fe  Fe61  1  0.40468897  0.62820743  0.85449343  1
  Fe  Fe62  1  0.38763352  0.72308569  0.20223047  1
  Fe  Fe63  1  0.47797296  0.82906185  0.38166430  1
  Fe  Fe64  1  0.61942427  0.45221656  0.58383676  1
  Fe  Fe65  1  0.78639799  0.59956437  0.95322478  1
  Fe  Fe66  1  0.44924664  0.09225629  0.98175074  1
  Fe  Fe67  1  0.43581836  0.76511146  0.80839714  1
  Fe  Fe68  1  0.93534006  0.17240625  0.75824604  1
  Fe  Fe69  1  0.55545395  0.09885891  0.10772308  1
  Fe  Fe70  1  0.01898069  0.17783112  0.65722121  1
  Fe  Fe71  1  0.34249315  0.35394244  0.81257842  1
  Fe  Fe72  1  0.39589283  0.84609684  0.24098898  1
  Fe  Fe73  1  0.21769102  0.34394784  0.77794870  1
  Fe  Fe74  1  0.79031353  0.49256477  0.20725392  1
  Fe  Fe75  1  0.16472230  0.04055278  0.13161591  1
  Fe  Fe76  1  0.66180140  0.56428466  0.64187147  1
  Fe  Fe77  1  0.95338591  1.05620015  0.64948186  1
  Fe  Fe78  1  0.43517554  0.15079730  0.10232460  1
  Fe  Fe79  1  0.70700613  0.58711047  0.29588720  1
  Fe  Fe80  1  0.36212539  0.77337138  0.35369466  1
  Fe  Fe81  1  0.30965309  0.35932018  0.17762154  1
  Fe  Fe82  1  0.79458643  0.56012811  0.64169399  1
  Fe  Fe83  1  0.71980630  0.45171635  0.32092046  1
  Fe  Fe84  1  0.41337507  0.66375644  0.71945302  1
  Fe  Fe85  1  0.31711043  0.75655289  0.69042347  1
  Fe  Fe86  1  0.21119271  0.36892674  0.26493420  1
  Fe  Fe87  1  1.06184944  0.87761610  0.07500034  1
  Fe  Fe88  1  0.34841798  0.38816782  0.30419934  1
  Fe  Fe89  1  0.68957282  0.65220358  1.01776107  1
  Fe  Fe90  1  0.32379327  0.34441154  0.67918816  1
  Fe  Fe91  1  0.12553047  0.95193136  0.50069378  1
  Fe  Fe92  1  0.13629558  0.63720468  0.26868718  1
  Fe  Fe93  1  0.68548809  0.58266787  0.14382567  1
  Fe  Fe94  1  0.51734586  0.78650649  0.24314351  1
  Fe  Fe95  1  0.45678872  0.08193359  0.44718422  1
  Fe  Fe96  1  0.16717088  0.90992388  0.16003153  1
  Fe  Fe97  1  0.31167155  0.71721690  0.82814397  1
  Fe  Fe98  1  0.38936055  0.11801349  0.55625525  1
  Fe  Fe99  1  0.75126043  0.44179169  0.61167954  1
  Fe  Fe100  1  0.98572124  0.97133481  0.53120320  1
  Fe  Fe101  1  0.07542590  0.07920207  0.56710614  1
  Bi  Bi102  1  0.08174886  0.24933876  0.80768365  1
  Bi  Bi103  1  0.71310521  0.11646916  0.03298692  1
  Bi  Bi104  1  0.16403667  0.11621596  0.42715481  1
  Bi  Bi105  1  0.03565075  0.11236179  0.02859021  1
  Bi  Bi106  1  0.70056801  0.54342815  0.47290974  1
  Bi  Bi107  1  0.47214540  0.40811818  0.18367223  1
  Bi  Bi108  1  0.74943066  0.78867087  -0.05536117  1
  Bi  Bi109  1  0.64692460  0.31210732  0.67030735  1
  Bi  Bi110  1  -0.07698689  -0.12477845  0.65373868  1
  Bi  Bi111  1  0.75955120  0.45092934  0.03856677  1
  Bi  Bi112  1  0.52911741  0.62490692  0.18583942  1
  Bi  Bi113  1  0.86670264  0.63714220  0.25895097  1
  Bi  Bi114  1  0.22860484  0.77104048  0.24716574  1
  Bi  Bi115  1  0.87486033  0.16347041  0.32758906  1
  Bi  Bi116  1  0.05791210  0.61437878  0.59794605  1
  Bi  Bi117  1  0.89316347  0.30029073  0.86044266  1
  Bi  Bi118  1  0.16374055  0.34338280  0.08785708  1
  Bi  Bi119  1  0.84353090  0.19197995  0.61521736  1
  Bi  Bi120  1  0.85940157  0.35681193  0.28826260  1
  Bi  Bi121  1  1.03805495  0.84488624  0.90824490  1
  Bi  Bi122  1  0.58201069  0.31712704  0.90728204  1
  Bi  Bi123  1  0.62245539  0.11985943  0.43862013  1
  Bi  Bi124  1  0.16564596  0.37431384  0.60990186  1
  Bi  Bi125  1  0.11340299  0.60457279  0.09809589  1
  Bi  Bi126  1  0.62216167  0.73469509  0.37417610  1
  Bi  Bi127  1  0.54530651  0.88924320  0.77553978  1
