# generated using pymatgen
data_Ba51Fe51Bi26
_symmetry_space_group_name_H-M   'P 1'
_cell_length_a   16.53586958
_cell_length_b   16.26844809
_cell_length_c   16.39136820
_cell_angle_alpha   91.56066816
_cell_angle_beta   88.08290608
_cell_angle_gamma   89.66023202
_symmetry_Int_Tables_number   1
_chemical_formula_structural   Ba51Fe51Bi26
_chemical_formula_sum   'Ba51 Fe51 Bi26'
_cell_volume   4405.28392081
_cell_formula_units_Z   1
loop_
 _symmetry_equiv_pos_site_id
 _symmetry_equiv_pos_as_xyz
  1  'x, y, z'
loop_
 _atom_site_type_symbol
 _atom_site_label
 _atom_site_symmetry_multiplicity
 _atom_site_fract_x
 _atom_site_fract_y
 _atom_site_fract_z
 _atom_site_occupancy
  Ba  Ba0  1  0.53287936  0.17463886  0.27735941  1
  Ba  Ba1  1  0.70334579  0.25736037  0.43798430  1
  Ba  Ba2  1  0.78366563  0.03848705  0.21331562  1
  Ba  Ba3  1  0.62369304  0.29232345  0.01825532  1
  Ba  Ba4  1  -0.02905034  0.71291320  0.32246019  1
  Ba  Ba5  1  0.79698400  0.76788491  -0.00326344  1
  Ba  Ba6  1  0.36661580  -0.02850074  0.18249860  1
  Ba  Ba7  1  0.80592007  0.52648140  0.77382325  1
  Ba  Ba8  1  0.07086738  0.52878398  0.74261246  1
  Ba  Ba9  1  0.78456665  0.78522992  0.50015544  1
  Ba  Ba10  1  0.19403365  0.22948723  0.69795411  1
  Ba  Ba11  1  -0.03605835  0.26579027  0.19282905  1
  Ba  Ba12  1  0.75234608  0.77278575  0.73906881  1
  Ba  Ba13  1  -0.03672362  0.01322036  -0.00568006  1
  Ba  Ba14  1  0.04253287  0.73664750  -0.01072697  1
  Ba  Ba15  1  0.28338641  0.77016620  0.37211118  1
  Ba  Ba16  1  0.46821317  -0.09086528  0.72209311  1
  Ba  Ba17  1  0.55022673  0.81881232  0.50562947  1
  Ba  Ba18  1  0.74620210  0.51356501  0.01525407  1
  Ba  Ba19  1  0.27214244  0.21657340  0.20697511  1
  Ba  Ba20  1  0.03189443  0.48447951  0.29777896  1
  Ba  Ba21  1  0.53742695  0.46333284  0.39459397  1
  Ba  Ba22  1  0.28512249  0.81545216  0.86026452  1
  Ba  Ba23  1  0.28491949  0.70469586  0.10605367  1
  Ba  Ba24  1  0.30239534  0.16217134  0.45591967  1
  Ba  Ba25  1  0.76503407  0.48404521  0.24657304  1
  Ba  Ba26  1  0.76635075  0.78465262  0.23633512  1
  Ba  Ba27  1  0.80690998  0.52946145  0.49886830  1
  Ba  Ba28  1  0.33074714  0.46002395  0.01213621  1
  Ba  Ba29  1  0.21600263  0.43487086  0.49734396  1
  Ba  Ba30  1  0.77359856  0.02735928  0.51704669  1
  Ba  Ba31  1  0.09193529  -0.05559391  0.72438927  1
  Ba  Ba32  1  0.53261818  0.66940965  0.71437362  1
  Ba  Ba33  1  0.00635181  0.46781858  0.00334281  1
  Ba  Ba34  1  0.83718393  0.03342660  0.75244899  1
  Ba  Ba35  1  0.55022092  0.70820741  -0.03184104  1
  Ba  Ba36  1  0.32810177  0.49721416  0.75015985  1
  Ba  Ba37  1  0.09679353  0.05513999  0.18295455  1
  Ba  Ba38  1  0.42115274  0.18190485  -0.01481511  1
  Ba  Ba39  1  0.52033832  0.05755671  0.54671100  1
  Ba  Ba40  1  0.48000107  -0.05218035  -0.04189434  1
  Ba  Ba41  1  0.03578816  0.88435846  0.48909455  1
  Ba  Ba42  1  0.53058921  0.77302980  0.24939704  1
  Ba  Ba43  1  0.27444508  0.45640892  0.24844666  1
  Ba  Ba44  1  0.26475312  0.70787049  0.60234919  1
  Ba  Ba45  1  0.56404199  0.43067275  0.65056008  1
  Ba  Ba46  1  0.68305557  0.23875916  0.77957789  1
  Ba  Ba47  1  0.44802848  0.19035203  0.73283828  1
  Ba  Ba48  1  -0.06681862  0.29293540  0.76635338  1
  Ba  Ba49  1  -0.01900313  0.13137203  0.40193708  1
  Ba  Ba50  1  0.70927086  0.03478609  -0.03883930  1
  Fe  Fe51  1  0.82715708  0.33483175  0.06988307  1
  Fe  Fe52  1  0.01748445  0.36579573  0.46802181  1
  Fe  Fe53  1  0.07762460  0.24711435  0.53183927  1
  Fe  Fe54  1  0.22266148  0.91507490  0.52963099  1
  Fe  Fe55  1  0.94363056  0.79124914  0.65500845  1
  Fe  Fe56  1  0.06811308  0.88738221  0.28945251  1
  Fe  Fe57  1  0.57335199  0.05530496  0.81451161  1
  Fe  Fe58  1  0.08315350  0.67676513  0.49358255  1
  Fe  Fe59  1  0.16257934  1.03234405  0.93152792  1
  Fe  Fe60  1  0.53155292  0.48426526  0.18675745  1
  Fe  Fe61  1  0.30845516  0.02231648  0.59941710  1
  Fe  Fe62  1  0.64843769  0.94387405  0.79416775  1
  Fe  Fe63  1  0.03678281  0.35948805  0.60142753  1
  Fe  Fe64  1  0.60567457  0.37551551  0.20698844  1
  Fe  Fe65  1  0.65782108  0.92875151  0.65923950  1
  Fe  Fe66  1  0.48280905  0.65273146  0.42802680  1
  Fe  Fe67  1  0.27929086  0.90220425  0.65530186  1
  Fe  Fe68  1  0.64521519  0.05678452  0.69992625  1
  Fe  Fe69  1  0.95366242  0.70462598  0.75667527  1
  Fe  Fe70  1  0.91682151  0.28769252  0.54216014  1
  Fe  Fe71  1  0.80637374  0.20216084  0.04450441  1
  Fe  Fe72  1  0.48374780  0.37846322  0.85834817  1
  Fe  Fe73  1  0.60800252  -0.03701204  0.25872858  1
  Fe  Fe74  1  0.66156802  0.91208785  0.36847953  1
  Fe  Fe75  1  0.49898553  0.51213454  0.83896583  1
  Fe  Fe76  1  0.82010005  0.20793424  0.59483785  1
  Fe  Fe77  1  0.19790671  0.87036551  0.21557838  1
  Fe  Fe78  1  0.24092116  0.10058705  0.04333153  1
  Fe  Fe79  1  0.11858875  0.16531280  -0.00165222  1
  Fe  Fe80  1  0.11869962  0.76475605  0.21120656  1
  Fe  Fe81  1  0.23008864  0.24429242  0.99986031  1
  Fe  Fe82  1  0.29820648  1.02437541  0.94430762  1
  Fe  Fe83  1  0.63252164  0.03912726  0.37679459  1
  Fe  Fe84  1  0.36850766  0.87951768  0.55290623  1
  Fe  Fe85  1  0.93401528  0.92329377  0.31643702  1
  Fe  Fe86  1  0.58016143  0.61689074  0.52642297  1
  Fe  Fe87  1  0.62413016  0.55523994  0.84750718  1
  Fe  Fe88  1  0.05299169  0.69470787  0.62640413  1
  Fe  Fe89  1  0.82033169  0.18859151  0.91163938  1
  Fe  Fe90  1  0.61904987  0.42138180  0.85290317  1
  Fe  Fe91  1  0.47318731  0.60031412  0.11706442  1
  Fe  Fe92  1  0.59771842  0.59799709  0.14482990  1
  Fe  Fe93  1  0.33173472  -0.03401841  0.46218943  1
  Fe  Fe94  1  0.07647211  0.86322172  0.13607342  1
  Fe  Fe95  1  0.95498718  0.70013553  0.52431594  1
  Fe  Fe96  1  0.95391920  0.87881851  0.19463608  1
  Fe  Fe97  1  0.80334002  0.32220622  0.93769211  1
  Fe  Fe98  1  0.90913955  0.64201978  0.63922992  1
  Fe  Fe99  1  0.44914597  0.60678204  0.54675501  1
  Fe  Fe100  1  0.48543568  0.26773927  0.49065623  1
  Fe  Fe101  1  0.23430575  0.15137191  0.89058763  1
  Bi  Bi102  1  0.41577144  0.60250595  0.27495259  1
  Bi  Bi103  1  -0.04188138  0.24944355  -0.01881705  1
  Bi  Bi104  1  0.29834289  0.03027124  0.77652738  1
  Bi  Bi105  1  0.31528648  0.30983124  -0.13999327  1
  Bi  Bi106  1  0.54111268  0.49466761  -0.00246500  1
  Bi  Bi107  1  0.47202550  -0.03742788  0.36296515  1
  Bi  Bi108  1  0.21200964  -0.08923169  0.04438971  1
  Bi  Bi109  1  0.12825895  0.28557473  0.36165295  1
  Bi  Bi110  1  0.11635141  0.73540265  0.77235993  1
  Bi  Bi111  1  0.73219077  0.25714863  0.19901970  1
  Bi  Bi112  1  0.20384862  -0.02241987  0.35147529  1
  Bi  Bi113  1  -0.03641359  0.13288542  0.61413891  1
  Bi  Bi114  1  0.01678115  0.52847855  0.53380678  1
  Bi  Bi115  1  0.37562255  0.33768286  0.59768345  1
  Bi  Bi116  1  0.38935206  0.32464389  0.37109202  1
  Bi  Bi117  1  0.91735596  0.85533943  0.83960296  1
  Bi  Bi118  1  0.88140766  0.35068332  0.38039022  1
  Bi  Bi119  1  0.14553414  0.06928861  0.55202072  1
  Bi  Bi120  1  0.19949875  0.60163973  0.91242717  1
  Bi  Bi121  1  0.77417998  0.36451901  0.63052088  1
  Bi  Bi122  1  0.66027260  0.64987010  0.37888768  1
  Bi  Bi123  1  0.06360030  0.12918147  0.83870333  1
  Bi  Bi124  1  0.14782293  0.35440102  0.10457258  1
  Bi  Bi125  1  0.63142642  0.89015748  0.09844537  1
  Bi  Bi126  1  0.89848520  0.62036509  0.13398407  1
  Bi  Bi127  1  0.45015423  0.33441069  0.15540120  1
