# generated using pymatgen
data_Ba51Fe51Bi26
_symmetry_space_group_name_H-M   'P 1'
_cell_length_a   16.44333490
_cell_length_b   16.33077379
_cell_length_c   16.29829208
_cell_angle_alpha   92.00642922
_cell_angle_beta   90.00691420
_cell_angle_gamma   91.05532525
_symmetry_Int_Tables_number   1
_chemical_formula_structural   Ba51Fe51Bi26
_chemical_formula_sum   'Ba51 Fe51 Bi26'
_cell_volume   4373.19271503
_cell_formula_units_Z   1
loop_
 _symmetry_equiv_pos_site_id
 _symmetry_equiv_pos_as_xyz
  1  'x, y, z'
loop_
 _atom_site_type_symbol
 _atom_site_label
 _atom_site_symmetry_multiplicity
 _atom_site_fract_x
 _atom_site_fract_y
 _atom_site_fract_z
 _atom_site_occupancy
  Ba  Ba0  1  0.41571977  0.16238536  -0.05004781  1
  Ba  Ba1  1  0.74988930  0.45330907  0.21472371  1
  Ba  Ba2  1  0.84734619  0.25790460  0.24608253  1
  Ba  Ba3  1  0.79753476  0.31453540  -0.19616883  1
  Ba  Ba4  1  0.73884858  0.20949951  0.51053803  1
  Ba  Ba5  1  0.03236925  0.28114710  0.67443470  1
  Ba  Ba6  1  -0.00975951  0.23588717  -0.02818998  1
  Ba  Ba7  1  0.64004600  0.16012163  0.13637316  1
  Ba  Ba8  1  0.58345363  0.77453291  0.79883521  1
  Ba  Ba9  1  0.54929249  -0.08308770  -0.00062198  1
  Ba  Ba10  1  0.65149862  0.10721938  0.83173000  1
  Ba  Ba11  1  0.53860758  0.75360542  0.40431629  1
  Ba  Ba12  1  0.83355142  0.68768377  0.02958197  1
  Ba  Ba13  1  0.57427077  0.33295990  0.66112803  1
  Ba  Ba14  1  0.16556296  0.54675945  0.78748224  1
  Ba  Ba15  1  0.24764851  -0.01079895  0.80170069  1
  Ba  Ba16  1  0.23299423  0.47343641  0.21949957  1
  Ba  Ba17  1  0.34175417  0.27359016  0.54671552  1
  Ba  Ba18  1  0.18530486  0.01886183  0.57062409  1
  Ba  Ba19  1  0.05357862  0.74594041  0.02792279  1
  Ba  Ba20  1  0.51421780  0.35757121  0.20278849  1
  Ba  Ba21  1  0.47179417  0.57472286  0.10464849  1
  Ba  Ba22  1  0.69628876  0.49228483  -0.08045650  1
  Ba  Ba23  1  0.07183421  0.34195838  0.40879199  1
  Ba  Ba24  1  0.69784304  0.66875305  0.22912786  1
  Ba  Ba25  1  0.69143849  -0.04099673  0.63831310  1
  Ba  Ba26  1  -0.03376033  0.48376433  -0.03881879  1
  Ba  Ba27  1  0.77960137  -0.00768340  0.00809827  1
  Ba  Ba28  1  0.47872102  0.46456287  0.42621392  1
  Ba  Ba29  1  -0.03758545  0.71148832  0.75981111  1
  Ba  Ba30  1  0.80008548  0.74049388  0.44820346  1
  Ba  Ba31  1  0.05986097  0.79164570  0.51592853  1
  Ba  Ba32  1  -0.05402081  0.05786946  0.54102243  1
  Ba  Ba33  1  0.34229949  0.72561463  0.76658612  1
  Ba  Ba34  1  0.57955002  0.02095337  0.32623758  1
  Ba  Ba35  1  0.08863414  0.22619458  0.18775622  1
  Ba  Ba36  1  0.29241768  -0.08263147  0.02636066  1
  Ba  Ba37  1  0.44128525  -0.05291015  0.57196284  1
  Ba  Ba38  1  0.47192626  0.53716308  0.86215608  1
  Ba  Ba39  1  0.10948312  -0.01498038  0.17917611  1
  Ba  Ba40  1  0.24197531  0.70402376  0.16201258  1
  Ba  Ba41  1  0.60375319  0.58888266  0.60265567  1
  Ba  Ba42  1  0.31406283  0.21474004  0.16659910  1
  Ba  Ba43  1  0.44710712  0.81769038  0.18992711  1
  Ba  Ba44  1  0.33292769  0.35117731  0.80680686  1
  Ba  Ba45  1  0.01656137  -0.01463417  -0.08840245  1
  Ba  Ba46  1  -0.02909307  0.78720536  0.26354981  1
  Ba  Ba47  1  0.28016390  0.60800387  0.51309626  1
  Ba  Ba48  1  0.86259598  0.00786931  0.30168390  1
  Ba  Ba49  1  0.33696222  0.06911923  0.36145680  1
  Ba  Ba50  1  -0.00736898  0.53448840  0.53253146  1
  Fe  Fe51  1  0.38176200  0.11087585  0.69081657  1
  Fe  Fe52  1  0.24780537  0.88822404  0.42900082  1
  Fe  Fe53  1  0.50506671  0.24817776  0.36241416  1
  Fe  Fe54  1  0.63146977  0.23741217  0.33215852  1
  Fe  Fe55  1  0.11660490  0.15874068  0.45734698  1
  Fe  Fe56  1  0.79087129  0.84230581  0.18861078  1
  Fe  Fe57  1  0.30994853  0.56281424  0.97396368  1
  Fe  Fe58  1  0.90901847  0.57498678  0.22436954  1
  Fe  Fe59  1  -0.03284339  0.61876839  0.34906536  1
  Fe  Fe60  1  0.15414424  0.71537849  0.68035218  1
  Fe  Fe61  1  0.92790221  0.46730969  0.31309724  1
  Fe  Fe62  1  0.81830180  0.58386543  0.63851788  1
  Fe  Fe63  1  0.22349276  0.27773935  -0.00207276  1
  Fe  Fe64  1  0.34745563  0.79776814  0.46041190  1
  Fe  Fe65  1  0.73481615  0.48890682  0.70088667  1
  Fe  Fe66  1  0.38503447  0.88108101  0.36731099  1
  Fe  Fe67  1  0.67971230  0.42118971  0.50972406  1
  Fe  Fe68  1  0.77780858  0.54344358  0.50660656  1
  Fe  Fe69  1  0.63043931  0.84517335  0.21265874  1
  Fe  Fe70  1  0.72340738  0.86169039  0.30648332  1
  Fe  Fe71  1  0.58089689  0.30625535  0.46189667  1
  Fe  Fe72  1  0.77775831  0.75012242  0.82895891  1
  Fe  Fe73  1  0.08080961  0.08444415  0.72672593  1
  Fe  Fe74  1  0.52251668  0.11425465  0.66758343  1
  Fe  Fe75  1  0.17038542  0.82506116  0.33146555  1
  Fe  Fe76  1  0.29576927  0.75241331  0.34407593  1
  Fe  Fe77  1  0.86030226  0.85944923  0.88489603  1
  Fe  Fe78  1  0.05231355  0.51772347  0.30520080  1
  Fe  Fe79  1  1.01893453  0.13508304  0.36589377  1
  Fe  Fe80  1  0.80198306  0.18715209  0.02002189  1
  Fe  Fe81  1  0.69540114  0.82257657  0.08831453  1
  Fe  Fe82  1  0.69416374  0.51779719  0.39698125  1
  Fe  Fe83  1  0.72157976  0.81640436  0.94089400  1
  Fe  Fe84  1  0.15200318  0.12057783  0.33664517  1
  Fe  Fe85  1  0.22098453  0.20382834  0.88101550  1
  Fe  Fe86  1  0.24677899  0.67183138  0.94691272  1
  Fe  Fe87  1  0.84231471  0.86516317  0.74499143  1
  Fe  Fe88  1  0.10500704  0.16156671  0.83119410  1
  Fe  Fe89  1  0.76952679  0.61165614  0.77356580  1
  Fe  Fe90  1  0.46485368  0.19207104  0.75999684  1
  Fe  Fe91  1  0.15980760  0.38601512  0.03914241  1
  Fe  Fe92  1  0.04232155  0.60015569  0.19962219  1
  Fe  Fe93  1  0.65614166  0.37079863  0.36661907  1
  Fe  Fe94  1  0.70688381  0.94875385  0.18245195  1
  Fe  Fe95  1  0.84564314  -0.00897549  0.79612400  1
  Fe  Fe96  1  0.73067901  0.90293240  0.83226786  1
  Fe  Fe97  1  0.27902139  0.88343639  0.27733689  1
  Fe  Fe98  1  0.79806861  0.43112656  0.59944248  1
  Fe  Fe99  1  0.83459599  0.56375943  0.36496778  1
  Fe  Fe100  1  0.70078482  0.24600618  -0.03034800  1
  Fe  Fe101  1  0.13273146  0.83925395  0.70528428  1
  Bi  Bi102  1  0.22767172  0.18064040  0.71004390  1
  Bi  Bi103  1  0.83635985  0.39149217  0.42909232  1
  Bi  Bi104  1  -0.00338283  -0.06780232  0.70027504  1
  Bi  Bi105  1  0.18258806  0.10558717  0.00980932  1
  Bi  Bi106  1  -0.08863258  0.48810024  0.74029390  1
  Bi  Bi107  1  0.47085550  -0.00666260  0.78632213  1
  Bi  Bi108  1  0.62345298  0.68862763  -0.00073400  1
  Bi  Bi109  1  0.15045230  0.55820717  0.02992874  1
  Bi  Bi110  1  0.51996693  0.14686830  0.49905455  1
  Bi  Bi111  1  0.75362891  0.74405864  0.65750205  1
  Bi  Bi112  1  0.26254576  0.82356119  0.60127083  1
  Bi  Bi113  1  0.13565269  0.65733236  0.35489581  1
  Bi  Bi114  1  0.00507373  0.41864483  0.17251741  1
  Bi  Bi115  1  0.56888774  0.30896516  0.87650565  1
  Bi  Bi116  1  0.44398380  0.04803251  0.14950599  1
  Bi  Bi117  1  0.40175219  0.48657277  0.64841364  1
  Bi  Bi118  1  0.92089504  0.10030507  0.11539470  1
  Bi  Bi119  1  0.39623913  0.61781616  0.30236499  1
  Bi  Bi120  1  0.12769033  0.34978308  0.86856047  1
  Bi  Bi121  1  0.35134256  0.39596136  1.03785942  1
  Bi  Bi122  1  0.82485409  0.12753357  0.70049635  1
  Bi  Bi123  1  0.81077715  0.35578877  0.03600203  1
  Bi  Bi124  1  0.40073845  0.73504912  0.97868414  1
  Bi  Bi125  1  0.18290469  0.42493043  0.59463127  1
  Bi  Bi126  1  0.07823247  0.96500045  0.38618537  1
  Bi  Bi127  1  0.16121425  0.79116299  0.86077453  1
