# generated using pymatgen
data_Ba51Fe51Bi26
_symmetry_space_group_name_H-M   'P 1'
_cell_length_a   16.72082200
_cell_length_b   16.31282382
_cell_length_c   16.19053666
_cell_angle_alpha   90.82949081
_cell_angle_beta   88.79169362
_cell_angle_gamma   90.41359812
_symmetry_Int_Tables_number   1
_chemical_formula_structural   Ba51Fe51Bi26
_chemical_formula_sum   'Ba51 Fe51 Bi26'
_cell_volume   4414.64242170
_cell_formula_units_Z   1
loop_
 _symmetry_equiv_pos_site_id
 _symmetry_equiv_pos_as_xyz
  1  'x, y, z'
loop_
 _atom_site_type_symbol
 _atom_site_label
 _atom_site_symmetry_multiplicity
 _atom_site_fract_x
 _atom_site_fract_y
 _atom_site_fract_z
 _atom_site_occupancy
  Ba  Ba0  1  0.50735322  0.46644046  0.25627960  1
  Ba  Ba1  1  0.58700254  0.71000722  0.30838372  1
  Ba  Ba2  1  0.53527609  -0.02565124  -0.01603912  1
  Ba  Ba3  1  0.00104440  0.50773624  0.50443610  1
  Ba  Ba4  1  0.30808041  0.08643240  -0.03283271  1
  Ba  Ba5  1  0.26940360  0.41482927  0.73390343  1
  Ba  Ba6  1  0.22373522  0.03111681  0.71722602  1
  Ba  Ba7  1  0.70490507  0.00224398  0.30974273  1
  Ba  Ba8  1  0.48998803  0.07066816  0.73598027  1
  Ba  Ba9  1  0.31243912  0.83406726  0.02172860  1
  Ba  Ba10  1  0.06280153  0.84749884  0.70060428  1
  Ba  Ba11  1  0.24649496  0.81281215  0.55368766  1
  Ba  Ba12  1  0.78482547  0.26612145  0.23126939  1
  Ba  Ba13  1  0.50431850  0.48466848  -0.03973202  1
  Ba  Ba14  1  0.24694369  0.29364541  0.22971758  1
  Ba  Ba15  1  0.05347862  0.27629006  0.73025405  1
  Ba  Ba16  1  0.20587531  0.70385483  0.81591346  1
  Ba  Ba17  1  0.18352608  0.29740405  0.01484592  1
  Ba  Ba18  1  0.76484675  0.23670320  0.51256526  1
  Ba  Ba19  1  0.47071727  0.74105598  0.80128407  1
  Ba  Ba20  1  -0.09137550  -0.02231412  0.17016176  1
  Ba  Ba21  1  0.08377676  -0.08486070  -0.04131265  1
  Ba  Ba22  1  0.26058460  0.54107743  -0.02969520  1
  Ba  Ba23  1  0.71488070  0.69462928  -0.08828959  1
  Ba  Ba24  1  0.70212598  -0.06465588  0.75929259  1
  Ba  Ba25  1  0.49868114  0.70428097  0.09057406  1
  Ba  Ba26  1  0.21226863  0.20280648  0.48556849  1
  Ba  Ba27  1  -0.01689573  0.24886346  0.48808836  1
  Ba  Ba28  1  0.77278651  0.52246775  0.33267292  1
  Ba  Ba29  1  0.45459508  0.73064779  0.51123358  1
  Ba  Ba30  1  -0.06458186  0.05100201  0.79009141  1
  Ba  Ba31  1  0.20193814  0.53169508  0.24519814  1
  Ba  Ba32  1  0.18215993  -0.10243237  0.22081295  1
  Ba  Ba33  1  0.65330838  0.42288694  0.59782830  1
  Ba  Ba34  1  -0.05117179  0.29643913  -0.03998679  1
  Ba  Ba35  1  -0.01232555  0.55876537  0.06006889  1
  Ba  Ba36  1  0.85080702  0.01760558  0.54101553  1
  Ba  Ba37  1  0.77451156  -0.04352045  -0.01485973  1
  Ba  Ba38  1  0.75064480  0.42187514  0.01587806  1
  Ba  Ba39  1  0.45650666  -0.01221697  0.23244014  1
  Ba  Ba40  1  0.30164940  0.52813079  0.48313711  1
  Ba  Ba41  1  0.70866532  0.19371895  -0.10066278  1
  Ba  Ba42  1  0.03600128  0.19675227  0.21886920  1
  Ba  Ba43  1  0.47583700  0.23726890  0.08019132  1
  Ba  Ba44  1  0.50584414  0.31422413  0.74839007  1
  Ba  Ba45  1  0.80437572  0.73396625  0.17823396  1
  Ba  Ba46  1  0.72745989  0.78460388  0.50645192  1
  Ba  Ba47  1  0.54660838  0.21656655  0.33584710  1
  Ba  Ba48  1  0.06158313  -0.01485420  0.41050622  1
  Ba  Ba49  1  0.46220887  0.01328881  0.49803600  1
  Ba  Ba50  1  0.80290918  0.58317013  0.66773580  1
  Fe  Fe51  1  0.51426989  0.59362629  0.62341864  1
  Fe  Fe52  1  0.65823596  0.05278589  0.12224296  1
  Fe  Fe53  1  0.31147110  0.82664209  0.34773985  1
  Fe  Fe54  1  0.68541189  0.22290719  0.70125028  1
  Fe  Fe55  1  0.64610122  0.07987672  0.48557195  1
  Fe  Fe56  1  0.04528480  0.64677600  0.37626522  1
  Fe  Fe57  1  0.85799408  0.39458747  0.80733252  1
  Fe  Fe58  1  0.36611498  0.15089467  0.22980833  1
  Fe  Fe59  1  0.92460533  0.69479997  0.46214272  1
  Fe  Fe60  1  0.50015807  0.51708111  0.74018767  1
  Fe  Fe61  1  0.66271160  0.09310500  0.63220147  1
  Fe  Fe62  1  0.40006761  0.80548561  0.22007906  1
  Fe  Fe63  1  0.88939939  0.83268090  0.83512826  1
  Fe  Fe64  1  0.74224421  0.33885721  0.75526294  1
  Fe  Fe65  1  0.91912158  0.39622706  0.17244454  1
  Fe  Fe66  1  0.97394283  0.47486191  0.77800557  1
  Fe  Fe67  1  0.99167758  0.81829640  0.23984090  1
  Fe  Fe68  1  0.06755337  0.72137028  0.50694974  1
  Fe  Fe69  1  0.40905896  0.22335678  0.49758629  1
  Fe  Fe70  1  0.61165348  0.71499187  0.66185393  1
  Fe  Fe71  1  0.06985059  0.71410182  0.97618670  1
  Fe  Fe72  1  0.24342319  0.10342881  0.29853097  1
  Fe  Fe73  1  0.25766512  0.21311645  0.81665984  1
  Fe  Fe74  1  0.77368271  0.12745826  0.70812980  1
  Fe  Fe75  1  0.48727028  0.36104287  0.50572473  1
  Fe  Fe76  1  0.63608072  0.62111647  0.56804510  1
  Fe  Fe77  1  0.83662411  0.24691292  0.73865025  1
  Fe  Fe78  1  0.89508935  0.71575593  0.76519337  1
  Fe  Fe79  1  0.35929153  0.14878234  0.36955917  1
  Fe  Fe80  1  0.96220788  0.81658653  0.51616878  1
  Fe  Fe81  1  0.28964980  0.73315472  0.22775684  1
  Fe  Fe82  1  0.37617851  0.69240395  0.32074124  1
  Fe  Fe83  1  0.65317793  0.97230470  0.55582982  1
  Fe  Fe84  1  0.36966400  0.34317441  0.56623843  1
  Fe  Fe85  1  -0.00273389  0.61867644  0.73874013  1
  Fe  Fe86  1  0.65947738  0.18147195  0.10146752  1
  Fe  Fe87  1  0.31069253  0.90433304  0.83442972  1
  Fe  Fe88  1  0.44919174  0.46306052  0.61112548  1
  Fe  Fe89  1  0.96406211  0.69724502  0.61458669  1
  Fe  Fe90  1  0.04158620  0.59506571  0.87064997  1
  Fe  Fe91  1  0.26441759  0.09915606  0.16574601  1
  Fe  Fe92  1  0.93194200  0.70208763  0.31407969  1
  Fe  Fe93  1  1.06940263  0.70256604  0.24257067  1
  Fe  Fe94  1  0.43889421  0.83009757  0.34867054  1
  Fe  Fe95  1  0.77564910  0.12669873  0.08880430  1
  Fe  Fe96  1  0.94742264  0.37806159  0.30519846  1
  Fe  Fe97  1  0.03090751  0.76879455  0.11356629  1
  Fe  Fe98  1  0.61203385  0.59533588  0.72335816  1
  Fe  Fe99  1  -0.00226828  0.73116074  0.85918612  1
  Fe  Fe100  1  0.03604015  0.79081410  0.38027981  1
  Fe  Fe101  1  0.04521193  0.39292279  0.19693515  1
  Bi  Bi102  1  0.86144094  0.84036838  0.66097449  1
  Bi  Bi103  1  -0.12574780  0.86066911  0.36506056  1
  Bi  Bi104  1  0.12946609  0.62952233  0.62973866  1
  Bi  Bi105  1  -0.12654909  0.56339778  0.87596942  1
  Bi  Bi106  1  0.88058268  0.38075549  0.63707809  1
  Bi  Bi107  1  -0.09060213  0.79241183  0.00111705  1
  Bi  Bi108  1  0.56148847  0.21059595  0.56153579  1
  Bi  Bi109  1  0.28016534  -0.01542741  0.40842072  1
  Bi  Bi110  1  0.53671153  0.53348069  0.45829280  1
  Bi  Bi111  1  0.33367514  0.20304204  0.66152625  1
  Bi  Bi112  1  -0.02853725  0.54244119  0.27031240  1
  Bi  Bi113  1  0.66297070  0.47119865  0.82233147  1
  Bi  Bi114  1  0.19832916  0.70680080  0.37488088  1
  Bi  Bi115  1  0.11849636  0.13467585  0.88417948  1
  Bi  Bi116  1  0.54360600  0.87233991  0.64338267  1
  Bi  Bi117  1  0.36255142  0.42896983  0.11149727  1
  Bi  Bi118  1  0.37266992  0.33936910  0.38528552  1
  Bi  Bi119  1  0.10017051  0.43740802  0.87970439  1
  Bi  Bi120  1  0.65823428  0.57484701  0.13512946  1
  Bi  Bi121  1  0.10470505  0.36847214  0.36490800  1
  Bi  Bi122  1  0.64088473  0.87544393  0.14035594  1
  Bi  Bi123  1  0.36319392  0.30760215  0.90814432  1
  Bi  Bi124  1  0.05122596  0.07926742  0.60855932  1
  Bi  Bi125  1  0.88511611  0.11741745  0.34744960  1
  Bi  Bi126  1  0.35831158  0.60601002  0.68186534  1
  Bi  Bi127  1  0.17915374  0.69299805  0.10144204  1
