# generated using pymatgen
data_Ba51Fe51Bi26
_symmetry_space_group_name_H-M   'P 1'
_cell_length_a   17.04694361
_cell_length_b   15.92771324
_cell_length_c   16.12622792
_cell_angle_alpha   88.27823594
_cell_angle_beta   89.75187425
_cell_angle_gamma   91.69000726
_symmetry_Int_Tables_number   1
_chemical_formula_structural   Ba51Fe51Bi26
_chemical_formula_sum   'Ba51 Fe51 Bi26'
_cell_volume   4374.63431359
_cell_formula_units_Z   1
loop_
 _symmetry_equiv_pos_site_id
 _symmetry_equiv_pos_as_xyz
  1  'x, y, z'
loop_
 _atom_site_type_symbol
 _atom_site_label
 _atom_site_symmetry_multiplicity
 _atom_site_fract_x
 _atom_site_fract_y
 _atom_site_fract_z
 _atom_site_occupancy
  Ba  Ba0  1  0.25895401  0.72765559  0.27871887  1
  Ba  Ba1  1  0.04028325  0.74839787  0.58416706  1
  Ba  Ba2  1  0.00844452  0.76905389  0.00522971  1
  Ba  Ba3  1  0.69411107  -0.07743826  0.29599736  1
  Ba  Ba4  1  -0.06889526  0.45125516  0.19399154  1
  Ba  Ba5  1  -0.00334269  0.25065056  0.32887395  1
  Ba  Ba6  1  0.32338792  0.23259876  0.73811273  1
  Ba  Ba7  1  0.52436678  0.02922061  0.02584749  1
  Ba  Ba8  1  0.70641848  0.53956320  0.41862332  1
  Ba  Ba9  1  0.63281705  0.82331309  -0.12166891  1
  Ba  Ba10  1  0.33737241  0.73493017  0.81968947  1
  Ba  Ba11  1  0.28563952  0.30307927  0.01011546  1
  Ba  Ba12  1  0.04661274  0.13928224  0.12329992  1
  Ba  Ba13  1  0.15447362  0.54393911  0.05314340  1
  Ba  Ba14  1  0.74200268  0.08011212  0.06703840  1
  Ba  Ba15  1  0.14615765  0.01635481  -0.04678028  1
  Ba  Ba16  1  0.31211511  0.66275862  0.51701553  1
  Ba  Ba17  1  0.46142440  0.01344745  0.77976340  1
  Ba  Ba18  1  0.82063655  0.20557842  0.87063904  1
  Ba  Ba19  1  0.77927599  0.05983976  0.48937249  1
  Ba  Ba20  1  0.75519759  0.66242032  0.11441616  1
  Ba  Ba21  1  0.70189978  0.77632959  0.50163321  1
  Ba  Ba22  1  -0.10401634  -0.09898594  0.16419674  1
  Ba  Ba23  1  0.69004679  0.39749905  0.19182856  1
  Ba  Ba24  1  0.21733049  0.00145623  0.70705053  1
  Ba  Ba25  1  0.51568996  0.00291702  0.47827976  1
  Ba  Ba26  1  0.61294275  0.17218977  0.66547934  1
  Ba  Ba27  1  -0.02635546  0.04387032  0.74534170  1
  Ba  Ba28  1  -0.05724875  0.55710968  0.40046703  1
  Ba  Ba29  1  0.71289750  0.57492394  0.75632730  1
  Ba  Ba30  1  0.04159479  0.81790166  0.34570041  1
  Ba  Ba31  1  -0.02306598  0.60267249  0.78632660  1
  Ba  Ba32  1  0.28713823  0.06651848  0.17446240  1
  Ba  Ba33  1  0.05049646  0.04257843  0.48927474  1
  Ba  Ba34  1  0.24541281  0.46170996  0.78854237  1
  Ba  Ba35  1  0.46329600  -0.08720452  0.23262299  1
  Ba  Ba36  1  0.00370524  0.33761364  -0.03464457  1
  Ba  Ba37  1  0.48695354  0.70821135  0.09618348  1
  Ba  Ba38  1  0.28911590  -0.02971740  0.44400492  1
  Ba  Ba39  1  0.48987025  0.50763541  0.80887654  1
  Ba  Ba40  1  0.24405757  0.78024501  0.04381689  1
  Ba  Ba41  1  0.77896643  0.38871778  0.60197361  1
  Ba  Ba42  1  0.12910053  0.47353442  0.53969058  1
  Ba  Ba43  1  0.22611157  0.21453930  0.51017269  1
  Ba  Ba44  1  0.29009543  0.32113828  0.27055890  1
  Ba  Ba45  1  0.49151889  0.42627141  0.07941435  1
  Ba  Ba46  1  -0.02000010  0.27801000  0.57877318  1
  Ba  Ba47  1  0.50151817  0.76783009  0.62880739  1
  Ba  Ba48  1  0.46287516  0.27216743  0.48716422  1
  Ba  Ba49  1  0.69835518  0.19208537  0.30148857  1
  Ba  Ba50  1  0.82008969  0.81951086  0.70428873  1
  Fe  Fe51  1  0.52091720  0.31077489  0.76309401  1
  Fe  Fe52  1  0.88721747  0.08658645  0.26467818  1
  Fe  Fe53  1  0.80166782  0.87851280  -0.01654171  1
  Fe  Fe54  1  0.50182620  0.22815697  0.00702144  1
  Fe  Fe55  1  0.41619945  0.82409250  0.43486317  1
  Fe  Fe56  1  0.56931303  0.53691318  0.62114271  1
  Fe  Fe57  1  0.54661506  0.44742009  0.51633714  1
  Fe  Fe58  1  0.42431966  0.58492364  0.32276497  1
  Fe  Fe59  1  0.88999388  0.87895941  0.88464313  1
  Fe  Fe60  1  0.87698286  0.73673405  0.44902113  1
  Fe  Fe61  1  0.14075637  0.11775304  0.32431114  1
  Fe  Fe62  1  0.77650982  0.55093619  0.94183939  1
  Fe  Fe63  1  1.09235987  0.34859423  0.73449318  1
  Fe  Fe64  1  0.02166811  0.03309362  0.28928324  1
  Fe  Fe65  1  0.45370006  0.73090517  0.33594160  1
  Fe  Fe66  1  0.14826786  0.98797771  0.31233796  1
  Fe  Fe67  1  0.38115062  0.10205608  0.59062720  1
  Fe  Fe68  1  0.76289689  0.01770738  0.73698456  1
  Fe  Fe69  1  0.51515250  0.12516043  0.20430011  1
  Fe  Fe70  1  0.80169357  0.46199525  0.04405620  1
  Fe  Fe71  1  0.58306882  0.22252225  0.12941759  1
  Fe  Fe72  1  0.12016210  0.15553178  0.81374970  1
  Fe  Fe73  1  0.13310838  0.22060782  0.69152672  1
  Fe  Fe74  1  0.64854983  0.27373840  0.00201129  1
  Fe  Fe75  1  0.85111670  0.83648435  0.36460041  1
  Fe  Fe76  1  0.89854116  -0.01824948  0.35218024  1
  Fe  Fe77  1  0.11990010  0.48886393  0.28272050  1
  Fe  Fe78  1  0.78349914  0.32664928  0.02081378  1
  Fe  Fe79  1  0.17355376  0.79750950  0.73902250  1
  Fe  Fe80  1  0.59719693  0.39925677  0.65282331  1
  Fe  Fe81  1  0.44040682  0.52681128  0.58553744  1
  Fe  Fe82  1  0.43269539  0.45604559  0.27408703  1
  Fe  Fe83  1  0.30952104  0.93077110  0.89325338  1
  Fe  Fe84  1  0.82061635  0.42345868  0.89898710  1
  Fe  Fe85  1  0.02145426  0.24187028  0.79193880  1
  Fe  Fe86  1  0.53680280  0.81284204  0.40730670  1
  Fe  Fe87  1  0.46875178  0.39662944  0.64773328  1
  Fe  Fe88  1  0.45729632  0.23128304  0.87158952  1
  Fe  Fe89  1  0.34938214  0.94974440  0.02320080  1
  Fe  Fe90  1  0.18731651  0.85348119  0.85916695  1
  Fe  Fe91  1  0.55501124  0.34615516  0.91080523  1
  Fe  Fe92  1  0.53129781  0.46019696  0.36555409  1
  Fe  Fe93  1  0.58881311  0.21145293  0.87431969  1
  Fe  Fe94  1  0.43759029  0.20581857  0.13796410  1
  Fe  Fe95  1  0.14473627  0.71263406  0.84502059  1
  Fe  Fe96  1  0.80019752  0.97843185  0.86433080  1
  Fe  Fe97  1  0.16103627  0.28237153  0.83502096  1
  Fe  Fe98  1  0.41565958  0.47982162  0.44281134  1
  Fe  Fe99  1  0.12677829  0.59303687  0.36255771  1
  Fe  Fe100  1  0.68233579  0.42299043  0.95998238  1
  Fe  Fe101  1  0.41674554  0.86433626  0.95491557  1
  Bi  Bi102  1  0.85983749  0.23687060  0.15382419  1
  Bi  Bi103  1  0.34824442  0.10806946  -0.06037964  1
  Bi  Bi104  1  0.52476130  0.63048550  0.47030709  1
  Bi  Bi105  1  0.02822724  0.84006274  0.79292569  1
  Bi  Bi106  1  0.81657830  0.72167605  -0.09612045  1
  Bi  Bi107  1  0.67765519  0.35400787  -0.20264569  1
  Bi  Bi108  1  0.65501508  0.05515353  0.85901063  1
  Bi  Bi109  1  0.31813581  0.40656859  0.58493174  1
  Bi  Bi110  1  0.57373649  0.57342344  0.24000208  1
  Bi  Bi111  1  -0.06856679  0.38737256  0.76188992  1
  Bi  Bi112  1  0.26685015  0.51248104  0.36688803  1
  Bi  Bi113  1  -0.06209121  0.54650632  -0.00510852  1
  Bi  Bi114  1  0.50745016  0.29562293  0.27214997  1
  Bi  Bi115  1  0.90235189  0.89516388  0.51654504  1
  Bi  Bi116  1  0.17954781  0.63417968  0.68996203  1
  Bi  Bi117  1  0.11305851  0.92180818  0.15879339  1
  Bi  Bi118  1  0.33842945  0.55066418  0.16210505  1
  Bi  Bi119  1  0.66456870  0.86340716  0.09408388  1
  Bi  Bi120  1  0.06104588  0.64631207  0.21474502  1
  Bi  Bi121  1  0.92850049  0.01989980  0.97349881  1
  Bi  Bi122  1  0.64089018  0.93885914  0.64380097  1
  Bi  Bi123  1  0.11669974  0.35443950  0.16148941  1
  Bi  Bi124  1  0.61742955  0.58543139  -0.03508601  1
  Bi  Bi125  1  0.82699434  0.35753565  0.39016794  1
  Bi  Bi126  1  0.82047752  0.16389510  0.66041887  1
  Bi  Bi127  1  0.84397624  0.62246073  0.58194318  1
