# generated using pymatgen
data_Ba51Fe51Bi26
_symmetry_space_group_name_H-M   'P 1'
_cell_length_a   16.41447754
_cell_length_b   16.50560556
_cell_length_c   16.24268522
_cell_angle_alpha   93.87768088
_cell_angle_beta   91.93575554
_cell_angle_gamma   90.20808603
_symmetry_Int_Tables_number   1
_chemical_formula_structural   Ba51Fe51Bi26
_chemical_formula_sum   'Ba51 Fe51 Bi26'
_cell_volume   4387.98798596
_cell_formula_units_Z   1
loop_
 _symmetry_equiv_pos_site_id
 _symmetry_equiv_pos_as_xyz
  1  'x, y, z'
loop_
 _atom_site_type_symbol
 _atom_site_label
 _atom_site_symmetry_multiplicity
 _atom_site_fract_x
 _atom_site_fract_y
 _atom_site_fract_z
 _atom_site_occupancy
  Ba  Ba0  1  0.76157752  0.19365928  0.33527064  1
  Ba  Ba1  1  0.55972098  0.41556947  0.06582487  1
  Ba  Ba2  1  -0.01527930  0.27343817  0.33255955  1
  Ba  Ba3  1  0.30570459  0.24233863  0.27832537  1
  Ba  Ba4  1  0.23467609  -0.01409377  -0.02926466  1
  Ba  Ba5  1  0.59067247  -0.12202672  0.64866511  1
  Ba  Ba6  1  0.81685153  0.53105209  0.15107477  1
  Ba  Ba7  1  0.58903102  -0.03155454  0.24042576  1
  Ba  Ba8  1  0.13148465  -0.07116956  0.39088242  1
  Ba  Ba9  1  0.52125025  0.46239824  0.52062429  1
  Ba  Ba10  1  0.46881420  0.74847822  0.79168259  1
  Ba  Ba11  1  0.25763065  0.52785858  0.52178204  1
  Ba  Ba12  1  0.02158143  0.24166961  0.72585161  1
  Ba  Ba13  1  0.69415398  0.18081951  0.00783739  1
  Ba  Ba14  1  0.53993644  0.25330022  0.22655771  1
  Ba  Ba15  1  0.18684470  0.82057762  0.17571981  1
  Ba  Ba16  1  0.32949784  -0.08836302  0.59750175  1
  Ba  Ba17  1  0.48438730  0.89905519  0.00815510  1
  Ba  Ba18  1  0.69159618  0.42432666  0.36111023  1
  Ba  Ba19  1  0.44744502  0.74564699  0.26678697  1
  Ba  Ba20  1  0.84017872  0.56057543  0.58593243  1
  Ba  Ba21  1  0.85878636  -0.14297859  -0.08843091  1
  Ba  Ba22  1  0.12800244  0.76754565  0.54289712  1
  Ba  Ba23  1  0.75974922  0.77889821  0.25125858  1
  Ba  Ba24  1  -0.06108277  0.25201479  0.09417562  1
  Ba  Ba25  1  0.42470965  0.69687218  0.52772103  1
  Ba  Ba26  1  0.06066501  0.71961436  0.76193955  1
  Ba  Ba27  1  0.33918102  0.31294751  0.85817981  1
  Ba  Ba28  1  0.80837139  0.78046584  0.67435811  1
  Ba  Ba29  1  0.00693051  0.49943384  0.35275647  1
  Ba  Ba30  1  0.73109164  0.26857176  0.62860840  1
  Ba  Ba31  1  0.27825614  0.70227436  -0.08831857  1
  Ba  Ba32  1  0.50396684  0.12514044  0.69217298  1
  Ba  Ba33  1  0.36889382  0.25295717  0.52487762  1
  Ba  Ba34  1  0.64878753  0.69083826  0.44667947  1
  Ba  Ba35  1  -0.01220961  0.66229569  0.03306265  1
  Ba  Ba36  1  0.64825396  0.05191269  0.49011468  1
  Ba  Ba37  1  -0.10299251  -0.01924111  0.54123541  1
  Ba  Ba38  1  0.24064612  0.46136439  0.04336380  1
  Ba  Ba39  1  0.45959044  0.12994002  -0.05838880  1
  Ba  Ba40  1  0.12699948  0.19590148  0.51637769  1
  Ba  Ba41  1  0.52370649  0.65628397  0.05019029  1
  Ba  Ba42  1  0.74734015  0.40140937  0.85710253  1
  Ba  Ba43  1  0.17108857  0.20510114  0.05350723  1
  Ba  Ba44  1  0.47836146  0.48216450  0.76939018  1
  Ba  Ba45  1  0.35776954  -0.03086146  0.36296319  1
  Ba  Ba46  1  0.00885185  0.02472447  0.80953016  1
  Ba  Ba47  1  0.83234873  -0.01970324  0.11559240  1
  Ba  Ba48  1  0.21061749  0.55281236  0.26204622  1
  Ba  Ba49  1  -0.02279616  0.41803927  -0.08414053  1
  Ba  Ba50  1  0.69023214  0.66061202  -0.12978891  1
  Fe  Fe51  1  1.03023469  0.65905582  0.23056246  1
  Fe  Fe52  1  0.38691231  0.42303857  0.20682970  1
  Fe  Fe53  1  0.50928679  0.56297368  0.35915776  1
  Fe  Fe54  1  1.07441388  0.40404427  0.51178021  1
  Fe  Fe55  1  0.15967185  0.53750233  0.71433253  1
  Fe  Fe56  1  0.03912415  0.98280116  0.19529130  1
  Fe  Fe57  1  0.92991849  0.08786414  0.24748318  1
  Fe  Fe58  1  0.23030795  1.00356439  0.75933413  1
  Fe  Fe59  1  0.92626902  0.69692592  0.30464977  1
  Fe  Fe60  1  0.42888125  0.09385051  0.24942840  1
  Fe  Fe61  1  0.15807498  0.88044750  0.72375660  1
  Fe  Fe62  1  0.30233168  0.56082671  0.72682426  1
  Fe  Fe63  1  0.69863267  0.05032938  0.70881346  1
  Fe  Fe64  1  0.46969318  1.06426172  0.12046820  1
  Fe  Fe65  1  0.12811458  0.35789768  0.21550746  1
  Fe  Fe66  1  0.32776339  0.11074685  0.77199030  1
  Fe  Fe67  1  0.63678268  0.06695829  -0.15883715  1
  Fe  Fe68  1  0.84596541  0.74892457  0.43394426  1
  Fe  Fe69  1  0.05467971  0.11589802  0.18526209  1
  Fe  Fe70  1  0.42825874  0.55093506  0.22286024  1
  Fe  Fe71  1  0.71077073  0.17846762  0.80045506  1
  Fe  Fe72  1  0.36622375  0.98592470  0.15275906  1
  Fe  Fe73  1  0.06546000  0.08385759  0.31747789  1
  Fe  Fe74  1  0.68341603  0.97114531  -0.05660708  1
  Fe  Fe75  1  0.21737993  0.14988318  0.83627472  1
  Fe  Fe76  1  0.51722580  0.45279090  0.27173442  1
  Fe  Fe77  1  0.48809894  0.13217824  0.36992285  1
  Fe  Fe78  1  -0.04101571  0.95754083  0.31117214  1
  Fe  Fe79  1  0.71226431  0.93172430  0.79472292  1
  Fe  Fe80  1  0.96551721  0.82143535  0.37950022  1
  Fe  Fe81  1  0.07636620  0.72557615  0.34298868  1
  Fe  Fe82  1  1.01815946  0.51872685  0.74632686  1
  Fe  Fe83  1  0.26170558  0.86104320  0.79869496  1
  Fe  Fe84  1  0.78275306  0.05342653  0.85831500  1
  Fe  Fe85  1  0.64404453  0.84986382  0.88273211  1
  Fe  Fe86  1  0.25783330  0.21389591  0.70292215  1
  Fe  Fe87  1  0.96228212  0.35482451  0.55086310  1
  Fe  Fe88  1  0.81824614  -0.01301539  0.72585669  1
  Fe  Fe89  1  0.40022172  0.45037887  0.34807309  1
  Fe  Fe90  1  0.97657642  0.67544235  0.44004030  1
  Fe  Fe91  1  0.35181496  0.12494814  0.11651991  1
  Fe  Fe92  1  0.56898351  0.94901136  0.83747191  1
  Fe  Fe93  1  0.94381796  0.08249329  0.38564048  1
  Fe  Fe94  1  0.27348301  0.09350760  0.63584234  1
  Fe  Fe95  1  0.37861211  0.58445962  0.35535367  1
  Fe  Fe96  1  0.16128148  0.11714607  0.71458327  1
  Fe  Fe97  1  0.13600816  0.42501017  0.79297174  1
  Fe  Fe98  1  0.26126153  0.49194229  0.82436406  1
  Fe  Fe99  1  0.82530922  0.12047440  0.73435745  1
  Fe  Fe100  1  0.06983551  0.41563665  0.65378085  1
  Fe  Fe101  1  0.93956955  0.79040792  0.51774317  1
  Bi  Bi102  1  0.21166584  0.04542084  0.20786791  1
  Bi  Bi103  1  -0.20390518  -0.01199806  0.33550579  1
  Bi  Bi104  1  0.25204723  0.38011032  0.67241073  1
  Bi  Bi105  1  -0.10562928  0.40225629  0.70226910  1
  Bi  Bi106  1  0.82014720  0.59160952  0.36908185  1
  Bi  Bi107  1  0.86574547  0.21537433  0.88003940  1
  Bi  Bi108  1  0.03206312  0.46543865  0.13388874  1
  Bi  Bi109  1  -0.09734085  0.19435937  0.51690593  1
  Bi  Bi110  1  0.27406747  0.72147018  0.69223743  1
  Bi  Bi111  1  -0.02639815  0.82013110  0.19670850  1
  Bi  Bi112  1  0.11599721  -0.00810685  0.60640485  1
  Bi  Bi113  1  0.05205247  0.56767152  0.57380426  1
  Bi  Bi114  1  0.61253820  0.58934007  0.22776946  1
  Bi  Bi115  1  0.37451553  0.29473297  1.07925455  1
  Bi  Bi116  1  0.40176176  0.95843331  0.80697853  1
  Bi  Bi117  1  0.57223939  0.28437390  0.84181243  1
  Bi  Bi118  1  0.75018204  0.32980684  0.16999815  1
  Bi  Bi119  1  0.68212732  0.81896844  0.04590866  1
  Bi  Bi120  1  0.53076193  0.87014470  0.43611428  1
  Bi  Bi121  1  1.02003888  1.03745659  0.03049352  1
  Bi  Bi122  1  0.60820650  0.64363969  0.65645546  1
  Bi  Bi123  1  0.26189683  0.74170469  0.37524641  1
  Bi  Bi124  1  0.12443383  0.56572269  0.89586971  1
  Bi  Bi125  1  0.57688308  0.25547524  0.45656643  1
  Bi  Bi126  1  0.88527361  0.61806488  0.82097892  1
  Bi  Bi127  1  0.17793143  0.36849634  0.38279671  1
