# generated using pymatgen
data_Ba51Fe51Bi26
_symmetry_space_group_name_H-M   'P 1'
_cell_length_a   16.62682063
_cell_length_b   16.20421183
_cell_length_c   16.37317083
_cell_angle_alpha   87.99986633
_cell_angle_beta   88.70417677
_cell_angle_gamma   90.57074381
_symmetry_Int_Tables_number   1
_chemical_formula_structural   Ba51Fe51Bi26
_chemical_formula_sum   'Ba51 Fe51 Bi26'
_cell_volume   4407.26351837
_cell_formula_units_Z   1
loop_
 _symmetry_equiv_pos_site_id
 _symmetry_equiv_pos_as_xyz
  1  'x, y, z'
loop_
 _atom_site_type_symbol
 _atom_site_label
 _atom_site_symmetry_multiplicity
 _atom_site_fract_x
 _atom_site_fract_y
 _atom_site_fract_z
 _atom_site_occupancy
  Ba  Ba0  1  0.78218855  0.52122539  0.91766472  1
  Ba  Ba1  1  0.19900174  -0.02065501  0.64382459  1
  Ba  Ba2  1  0.21100656  0.50146857  0.74462980  1
  Ba  Ba3  1  0.14545479  0.69412324  0.03466732  1
  Ba  Ba4  1  0.24918879  -0.05842207  0.35856018  1
  Ba  Ba5  1  -0.03215542  -0.08504257  0.75470090  1
  Ba  Ba6  1  0.74648954  0.68653103  0.28519440  1
  Ba  Ba7  1  0.78520187  0.09290229  0.31879418  1
  Ba  Ba8  1  0.51465005  0.52746499  -0.05241090  1
  Ba  Ba9  1  0.50948666  0.77019868  0.43400627  1
  Ba  Ba10  1  0.30314144  0.72351788  0.62286960  1
  Ba  Ba11  1  -0.08898067  0.27255938  0.52450057  1
  Ba  Ba12  1  0.53141981  0.82301872  0.66697677  1
  Ba  Ba13  1  -0.05623820  0.52283649  0.51132865  1
  Ba  Ba14  1  0.72870995  0.62771821  0.70453842  1
  Ba  Ba15  1  0.52216359  0.29828065  0.31673681  1
  Ba  Ba16  1  0.65486237  0.48771355  0.16867678  1
  Ba  Ba17  1  -0.02797386  0.50978757  0.76264583  1
  Ba  Ba18  1  -0.00654003  0.57913785  0.28240189  1
  Ba  Ba19  1  0.40791063  0.00471551  -0.03996744  1
  Ba  Ba20  1  0.10877968  0.73505703  0.47577153  1
  Ba  Ba21  1  0.78374256  -0.06909745  -0.08080000  1
  Ba  Ba22  1  0.08645051  0.33205246  0.26080158  1
  Ba  Ba23  1  0.78256617  0.78432961  0.52528776  1
  Ba  Ba24  1  0.32720192  0.68335555  0.86354203  1
  Ba  Ba25  1  0.10905760  -0.03057654  0.14099901  1
  Ba  Ba26  1  0.63833360  0.27297205  0.54287096  1
  Ba  Ba27  1  0.30474928  0.41650205  -0.02972742  1
  Ba  Ba28  1  0.31531693  0.20913647  0.18231586  1
  Ba  Ba29  1  0.78447637  0.03519316  0.60667037  1
  Ba  Ba30  1  0.53994303  0.22505605  0.05740101  1
  Ba  Ba31  1  0.02925984  0.46706150  0.02163166  1
  Ba  Ba32  1  0.30374899  0.48814034  0.50409719  1
  Ba  Ba33  1  -0.06551989  0.86335023  0.33234339  1
  Ba  Ba34  1  0.58293247  0.44622399  0.71569747  1
  Ba  Ba35  1  0.14665790  0.20755177  0.48556029  1
  Ba  Ba36  1  0.48598856  0.79540177  0.02442671  1
  Ba  Ba37  1  -0.00379675  0.08962303  -0.03228477  1
  Ba  Ba38  1  0.66472390  -0.02580244  0.12171310  1
  Ba  Ba39  1  0.22902311  0.16045141  -0.07595458  1
  Ba  Ba40  1  0.48794054  0.22570881  0.81393325  1
  Ba  Ba41  1  0.79172295  0.16282878  0.02425491  1
  Ba  Ba42  1  0.47725125  0.58107875  0.28056791  1
  Ba  Ba43  1  0.02405236  0.25414903  0.75556573  1
  Ba  Ba44  1  0.72798865  0.24989288  0.79823780  1
  Ba  Ba45  1  0.39911750  0.13794883  0.49220841  1
  Ba  Ba46  1  0.29198498  0.28392654  0.68339013  1
  Ba  Ba47  1  -0.08901089  0.78415873  0.08831926  1
  Ba  Ba48  1  0.82226676  0.34960760  0.28369955  1
  Ba  Ba49  1  0.31943710  0.77279156  0.20523954  1
  Ba  Ba50  1  0.26691626  0.48420128  0.23337984  1
  Fe  Fe51  1  0.39493913  0.44893494  0.78746241  1
  Fe  Fe52  1  0.61728084  0.68009454  0.11327109  1
  Fe  Fe53  1  0.08319528  0.79137542  0.66155603  1
  Fe  Fe54  1  -0.01845417  1.04271687  0.30202591  1
  Fe  Fe55  1  0.11900946  0.65910165  0.82846718  1
  Fe  Fe56  1  0.34611941  1.05875508  0.77756877  1
  Fe  Fe57  1  1.05833197  1.03296571  0.42237438  1
  Fe  Fe58  1  0.43940036  0.07454087  0.29486561  1
  Fe  Fe59  1  0.76156082  0.66801869  0.06370714  1
  Fe  Fe60  1  0.98633523  0.14379505  0.20456213  1
  Fe  Fe61  1  0.70837069  0.30779659  0.12946090  1
  Fe  Fe62  1  0.67449750  0.19361601  0.19604531  1
  Fe  Fe63  1  0.77790849  0.42813093  0.48105017  1
  Fe  Fe64  1  0.11384348  0.43678596  0.54110123  1
  Fe  Fe65  1  0.41596105  -0.01200379  0.66568536  1
  Fe  Fe66  1  0.56674449  0.97305251  0.29394872  1
  Fe  Fe67  1  0.81993190  0.38578923  0.06581151  1
  Fe  Fe68  1  0.15654726  0.30128515  0.04654455  1
  Fe  Fe69  1  0.04392922  0.27316899  0.97695619  1
  Fe  Fe70  1  0.77233459  0.51681477  0.37631816  1
  Fe  Fe71  1  0.98550417  0.16497281  0.35956036  1
  Fe  Fe72  1  0.63508073  0.57920651  0.41303433  1
  Fe  Fe73  1  0.60585570  0.61690209  0.54656492  1
  Fe  Fe74  1  0.59919090  0.92758306  0.82114307  1
  Fe  Fe75  1  0.77670962  0.72082314  0.91251895  1
  Fe  Fe76  1  0.13851264  0.33375356  0.90433666  1
  Fe  Fe77  1  0.86453301  0.73678335  0.80536931  1
  Fe  Fe78  1  0.13349593  0.53825228  0.42293521  1
  Fe  Fe79  1  0.71627560  0.34651961  0.99774935  1
  Fe  Fe80  1  0.10834667  0.65986326  0.68559911  1
  Fe  Fe81  1  0.40596659  0.46454017  0.65733420  1
  Fe  Fe82  1  0.44353233  0.92202830  0.25550571  1
  Fe  Fe83  1  0.48963269  1.00588600  0.78455787  1
  Fe  Fe84  1  0.42121134  0.57562436  0.73766648  1
  Fe  Fe85  1  1.01246758  0.72832887  0.78105460  1
  Fe  Fe86  1  0.70469927  0.78241844  0.12355949  1
  Fe  Fe87  1  0.16240350  0.77827748  0.77008252  1
  Fe  Fe88  1  0.66831021  0.48356772  0.54291494  1
  Fe  Fe89  1  0.17621382  0.62849110  0.32363894  1
  Fe  Fe90  1  0.65824723  0.44397797  0.39936884  1
  Fe  Fe91  1  0.46689059  0.97504992  0.38961570  1
  Fe  Fe92  1  0.74916023  0.58602335  0.49161765  1
  Fe  Fe93  1  0.48298723  0.02819599  0.17000278  1
  Fe  Fe94  1  0.57154491  0.11243185  0.23995669  1
  Fe  Fe95  1  0.14939050  0.40243937  0.42342555  1
  Fe  Fe96  1  0.65582480  0.64791771  0.98568446  1
  Fe  Fe97  1  0.67693334  0.78348459  -0.00444300  1
  Fe  Fe98  1  0.08751518  0.19481101  0.10462993  1
  Fe  Fe99  1  0.41782598  0.12020989  0.68287329  1
  Fe  Fe100  1  0.48404882  0.59251742  0.61425138  1
  Fe  Fe101  1  -0.06593884  0.06078656  0.45348365  1
  Bi  Bi102  1  0.74567795  -0.15131594  0.73219956  1
  Bi  Bi103  1  -0.05698322  0.28057340  0.11776386  1
  Bi  Bi104  1  0.60114823  0.73506034  -0.14597518  1
  Bi  Bi105  1  -0.01387714  -0.09421061  0.53384115  1
  Bi  Bi106  1  -0.03982149  0.65774983  0.92481188  1
  Bi  Bi107  1  0.51216312  0.46358148  0.49291400  1
  Bi  Bi108  1  0.32273675  -0.00853191  0.15530997  1
  Bi  Bi109  1  0.34063031  -0.11517385  0.78494950  1
  Bi  Bi110  1  0.58997565  0.09729149  0.40885211  1
  Bi  Bi111  1  -0.10648883  0.00048019  0.15374446  1
  Bi  Bi112  1  0.79472224  0.41366272  0.65092075  1
  Bi  Bi113  1  0.85617917  0.54178737  0.13348439  1
  Bi  Bi114  1  0.56074087  0.79757144  0.22598002  1
  Bi  Bi115  1  0.87086232  0.10203528  0.79628573  1
  Bi  Bi116  1  0.29658568  0.31562644  0.37567453  1
  Bi  Bi117  1  0.57442582  0.07565872  0.65251053  1
  Bi  Bi118  1  0.13769027  0.12318403  0.28318381  1
  Bi  Bi119  1  0.10386043  0.76736015  0.24075634  1
  Bi  Bi120  1  0.93912423  0.69239879  0.63935061  1
  Bi  Bi121  1  0.89227799  0.33539442  0.91248642  1
  Bi  Bi122  1  0.31224444  0.67687810  0.39992200  1
  Bi  Bi123  1  1.00766992  0.09316989  0.60414205  1
  Bi  Bi124  1  0.61004455  0.07042143  0.91357373  1
  Bi  Bi125  1  0.34993864  0.61267585  0.06848437  1
  Bi  Bi126  1  0.37631348  0.91391788  0.52342100  1
  Bi  Bi127  1  0.44970798  0.40499502  0.13553796  1
