# generated using pymatgen
data_Ba51Fe51Bi26
_symmetry_space_group_name_H-M   'P 1'
_cell_length_a   16.13812407
_cell_length_b   16.35964173
_cell_length_c   16.81633247
_cell_angle_alpha   89.16046812
_cell_angle_beta   90.53809044
_cell_angle_gamma   84.37043943
_symmetry_Int_Tables_number   1
_chemical_formula_structural   Ba51Fe51Bi26
_chemical_formula_sum   'Ba51 Fe51 Bi26'
_cell_volume   4417.59685282
_cell_formula_units_Z   1
loop_
 _symmetry_equiv_pos_site_id
 _symmetry_equiv_pos_as_xyz
  1  'x, y, z'
loop_
 _atom_site_type_symbol
 _atom_site_label
 _atom_site_symmetry_multiplicity
 _atom_site_fract_x
 _atom_site_fract_y
 _atom_site_fract_z
 _atom_site_occupancy
  Ba  Ba0  1  0.38487991  0.01396173  0.12052485  1
  Ba  Ba1  1  0.23035544  0.52886814  0.16101878  1
  Ba  Ba2  1  0.29544943  0.19077940  0.75569505  1
  Ba  Ba3  1  0.60832812  0.56728305  0.05820123  1
  Ba  Ba4  1  0.56234365  0.17412931  0.73780438  1
  Ba  Ba5  1  0.80786089  0.29085208  0.70084716  1
  Ba  Ba6  1  0.12061322  -0.10319917  0.56536759  1
  Ba  Ba7  1  0.54867186  0.03422164  0.32101501  1
  Ba  Ba8  1  0.32384630  0.63987873  0.42898164  1
  Ba  Ba9  1  0.41337474  0.22402932  -0.01539931  1
  Ba  Ba10  1  0.80123342  0.28740058  0.42691306  1
  Ba  Ba11  1  0.76297032  0.76813856  0.10517706  1
  Ba  Ba12  1  0.23010643  0.27346604  0.49547875  1
  Ba  Ba13  1  0.76114543  0.66627875  0.53074848  1
  Ba  Ba14  1  0.03398009  0.76594232  0.01955238  1
  Ba  Ba15  1  -0.11064023  0.42534649  0.24997151  1
  Ba  Ba16  1  0.37342770  0.40851208  0.62290416  1
  Ba  Ba17  1  0.28214511  0.49965429  0.90412313  1
  Ba  Ba18  1  0.05332006  0.54375292  0.78379627  1
  Ba  Ba19  1  0.42864495  0.30290913  0.24057470  1
  Ba  Ba20  1  0.25321293  0.80532195  0.22628260  1
  Ba  Ba21  1  0.60161912  0.42266296  0.71851645  1
  Ba  Ba22  1  -0.09096429  -0.00161805  0.03455426  1
  Ba  Ba23  1  0.83468845  -0.00844871  0.76020967  1
  Ba  Ba24  1  0.13488657  0.46315319  0.37468476  1
  Ba  Ba25  1  0.01537824  0.10796033  0.44736320  1
  Ba  Ba26  1  0.76564928  0.51043273  0.86377757  1
  Ba  Ba27  1  0.02147729  -0.11556191  0.29489687  1
  Ba  Ba28  1  0.34570638  0.03308726  0.56345776  1
  Ba  Ba29  1  0.71530575  0.06809803  0.53700649  1
  Ba  Ba30  1  -0.08577328  0.23982161  0.04744578  1
  Ba  Ba31  1  0.54215481  -0.13114954  0.53894500  1
  Ba  Ba32  1  0.12111368  0.35910878  0.00195946  1
  Ba  Ba33  1  0.62687645  0.30067438  -0.04851727  1
  Ba  Ba34  1  0.23992505  0.66489902  0.65862813  1
  Ba  Ba35  1  0.00405718  0.64830451  0.51803466  1
  Ba  Ba36  1  0.68283783  0.76627147  0.78960418  1
  Ba  Ba37  1  0.52637581  0.64212302  0.64378896  1
  Ba  Ba38  1  0.64192539  0.02485749  -0.04844230  1
  Ba  Ba39  1  0.56079510  0.46754169  0.47617161  1
  Ba  Ba40  1  0.00763786  0.16523384  0.80685889  1
  Ba  Ba41  1  0.77049575  0.08116506  0.24221883  1
  Ba  Ba42  1  -0.00783369  0.79614685  0.76473253  1
  Ba  Ba43  1  0.17974980  0.11490509  0.26816213  1
  Ba  Ba44  1  0.18802245  0.09627297  -0.03600445  1
  Ba  Ba45  1  0.53828059  0.80000641  0.01695512  1
  Ba  Ba46  1  -0.07457293  0.54453319  0.04969646  1
  Ba  Ba47  1  0.02442097  0.34107666  0.62647700  1
  Ba  Ba48  1  0.74347873  0.79794977  0.33516160  1
  Ba  Ba49  1  0.24708910  0.85842723  -0.01169935  1
  Ba  Ba50  1  0.48641042  0.55900874  0.24656778  1
  Fe  Fe51  1  0.51937037  0.47485781  0.90316447  1
  Fe  Fe52  1  0.98119009  0.06005870  0.64240623  1
  Fe  Fe53  1  0.61738298  0.34296255  0.15012909  1
  Fe  Fe54  1  0.58711139  0.23326556  0.38951620  1
  Fe  Fe55  1  0.48169569  0.76997956  0.80843976  1
  Fe  Fe56  1  -0.02090946  0.57766153  0.32425274  1
  Fe  Fe57  1  0.53516971  0.83430303  0.34026177  1
  Fe  Fe58  1  0.93947606  0.74429565  0.19205524  1
  Fe  Fe59  1  0.52565203  0.62767712  0.85447842  1
  Fe  Fe60  1  0.93842118  0.71190586  0.32564398  1
  Fe  Fe61  1  0.52923583  0.14478296  0.48748784  1
  Fe  Fe62  1  0.43755681  0.74658809  0.31936865  1
  Fe  Fe63  1  0.43581090  0.21453234  0.55874055  1
  Fe  Fe64  1  0.76035253  0.46581167  0.53667407  1
  Fe  Fe65  1  0.17822349  0.88034961  0.78376001  1
  Fe  Fe66  1  0.18914397  0.01358452  0.74245263  1
  Fe  Fe67  1  0.75082648  0.51055953  0.40017292  1
  Fe  Fe68  1  0.70290435  0.22868040  0.11644299  1
  Fe  Fe69  1  0.46858074  0.28676562  0.45426151  1
  Fe  Fe70  1  0.02478628  0.63234183  0.20728203  1
  Fe  Fe71  1  0.42149976  0.00998748  -0.07863857  1
  Fe  Fe72  1  0.18569308  0.32764476  0.24587030  1
  Fe  Fe73  1  0.37674566  0.66095734  0.79890813  1
  Fe  Fe74  1  0.39166097  0.72415570  0.91613403  1
  Fe  Fe75  1  0.74507730  0.52165484  0.66004909  1
  Fe  Fe76  1  0.63369059  0.23558199  0.25582929  1
  Fe  Fe77  1  0.39162566  0.77757122  0.69392559  1
  Fe  Fe78  1  0.87988724  0.68221206  0.88161531  1
  Fe  Fe79  1  0.44451986  0.52684800  0.80093549  1
  Fe  Fe80  1  0.31338595  0.97052164  0.81575145  1
  Fe  Fe81  1  0.28541560  0.89544238  0.68834908  1
  Fe  Fe82  1  1.05788479  0.98293180  0.72223272  1
  Fe  Fe83  1  0.75921871  0.29027621  0.21373977  1
  Fe  Fe84  1  0.43684243  0.58717633  -0.05338208  1
  Fe  Fe85  1  0.43406477  0.90275195  0.73526152  1
  Fe  Fe86  1  0.45499902  0.77555027  0.18714730  1
  Fe  Fe87  1  0.06980188  0.30163485  0.19301616  1
  Fe  Fe88  1  0.31772494  0.80956770  0.80610509  1
  Fe  Fe89  1  0.45009858  0.02837610  -0.20026594  1
  Fe  Fe90  1  0.38416842  0.86951336  0.38567720  1
  Fe  Fe91  1  0.12393476  0.33801880  0.80875956  1
  Fe  Fe92  1  0.07131708  0.28596067  0.32352865  1
  Fe  Fe93  1  0.87024780  0.49076513  0.62696630  1
  Fe  Fe94  1  0.43286517  0.89039087  0.26046033  1
  Fe  Fe95  1  0.57923992  0.72984480  0.24733645  1
  Fe  Fe96  1  0.53103644  -0.08613494  0.84500213  1
  Fe  Fe97  1  0.57122085  0.85990333  0.20302380  1
  Fe  Fe98  1  0.84080148  0.60370189  0.36099411  1
  Fe  Fe99  1  0.19658041  0.39326179  0.72467140  1
  Fe  Fe100  1  0.41018902  -0.12194898  0.88992126  1
  Fe  Fe101  1  0.87311887  0.63419410  0.22116438  1
  Bi  Bi102  1  0.71062744  0.60152544  0.24797908  1
  Bi  Bi103  1  0.37404721  0.67371217  0.08030349  1
  Bi  Bi104  1  0.60958390  -0.03087253  0.71112410  1
  Bi  Bi105  1  0.33792565  -0.18673349  0.54093514  1
  Bi  Bi106  1  0.91843584  0.46882311  0.45971632  1
  Bi  Bi107  1  0.61878831  0.27111275  0.55915489  1
  Bi  Bi108  1  0.05490159  -0.04283020  0.88349406  1
  Bi  Bi109  1  0.12303952  0.67708905  0.33449935  1
  Bi  Bi110  1  0.56487414  0.14050944  0.13141261  1
  Bi  Bi111  1  0.19447223  0.70929119  0.85460123  1
  Bi  Bi112  1  0.56219213  0.68126483  0.42285798  1
  Bi  Bi113  1  0.43478883  0.35153196  -0.18198056  1
  Bi  Bi114  1  -0.05997897  0.20297810  0.26125092  1
  Bi  Bi115  1  0.16610121  0.48695296  0.58154185  1
  Bi  Bi116  1  0.82805580  0.84130529  0.92066282  1
  Bi  Bi117  1  0.95578150  0.37567278  0.85855522  1
  Bi  Bi118  1  0.13241131  0.12617335  0.62316337  1
  Bi  Bi119  1  0.76358119  0.39907664  0.07334060  1
  Bi  Bi120  1  0.85875658  0.63795821  0.72272364  1
  Bi  Bi121  1  0.11648162  0.96648417  0.12459159  1
  Bi  Bi122  1  0.25386037  0.23469832  0.12135670  1
  Bi  Bi123  1  0.45033834  0.43306542  0.05788806  1
  Bi  Bi124  1  0.79167629  0.15815921  0.88117257  1
  Bi  Bi125  1  0.38390506  0.16069667  0.39422672  1
  Bi  Bi126  1  0.21809368  0.94360912  0.39230794  1
  Bi  Bi127  1  0.64823725  0.39499744  0.30524949  1
