# generated using pymatgen
data_Ba51Fe51Bi26
_symmetry_space_group_name_H-M   'P 1'
_cell_length_a   16.25170956
_cell_length_b   16.61808849
_cell_length_c   16.24951555
_cell_angle_alpha   88.34895695
_cell_angle_beta   91.17747302
_cell_angle_gamma   89.73651781
_symmetry_Int_Tables_number   1
_chemical_formula_structural   Ba51Fe51Bi26
_chemical_formula_sum   'Ba51 Fe51 Bi26'
_cell_volume   4385.73742290
_cell_formula_units_Z   1
loop_
 _symmetry_equiv_pos_site_id
 _symmetry_equiv_pos_as_xyz
  1  'x, y, z'
loop_
 _atom_site_type_symbol
 _atom_site_label
 _atom_site_symmetry_multiplicity
 _atom_site_fract_x
 _atom_site_fract_y
 _atom_site_fract_z
 _atom_site_occupancy
  Ba  Ba0  1  0.51549184  0.36045726  0.49267122  1
  Ba  Ba1  1  -0.08667611  0.39856796  0.52548375  1
  Ba  Ba2  1  0.05198260  0.56087818  0.64844683  1
  Ba  Ba3  1  0.70533491  0.47446634  0.61190812  1
  Ba  Ba4  1  -0.13282140  0.80226704  0.75068240  1
  Ba  Ba5  1  0.01119274  0.15113562  0.68759924  1
  Ba  Ba6  1  0.49967645  -0.11797242  0.51108092  1
  Ba  Ba7  1  0.43007651  0.02316880  0.76865148  1
  Ba  Ba8  1  0.57490353  0.64906881  0.44165259  1
  Ba  Ba9  1  0.00206183  0.63219511  0.33367441  1
  Ba  Ba10  1  0.42730978  0.47421954  0.00421268  1
  Ba  Ba11  1  0.69608760  0.55080965  0.86113685  1
  Ba  Ba12  1  0.21364531  -0.06808428  0.09200418  1
  Ba  Ba13  1  0.73032826  0.81291853  0.54002304  1
  Ba  Ba14  1  0.88609841  0.15183461  0.22373174  1
  Ba  Ba15  1  0.01096189  -0.05185941  0.30367230  1
  Ba  Ba16  1  0.20154343  0.73154218  0.72835486  1
  Ba  Ba17  1  0.44489874  0.75613085  0.77371486  1
  Ba  Ba18  1  0.66309088  0.84671760  0.87029525  1
  Ba  Ba19  1  -0.00798886  0.58956197  0.07470414  1
  Ba  Ba20  1  0.17760969  0.41847487  0.82909110  1
  Ba  Ba21  1  0.04250780  0.82326696  -0.04526054  1
  Ba  Ba22  1  0.28652355  0.25898578  0.65693758  1
  Ba  Ba23  1  -0.01547985  0.36573421  0.00133685  1
  Ba  Ba24  1  0.29955257  -0.04604863  0.36755043  1
  Ba  Ba25  1  0.39558853  0.43581064  0.27917663  1
  Ba  Ba26  1  0.74954805  0.22480395  0.40841711  1
  Ba  Ba27  1  0.48331436  0.64267433  0.18618555  1
  Ba  Ba28  1  0.81776033  0.00490952  -0.01333503  1
  Ba  Ba29  1  0.82141523  0.46021925  0.30119035  1
  Ba  Ba30  1  0.52478443  0.16317722  0.00226469  1
  Ba  Ba31  1  0.79444871  0.04768635  0.67468933  1
  Ba  Ba32  1  0.19724693  0.45142471  0.49619041  1
  Ba  Ba33  1  0.10512686  0.22409827  0.44601491  1
  Ba  Ba34  1  0.63987000  0.27244468  0.78777629  1
  Ba  Ba35  1  0.17942193  0.00501784  0.79720286  1
  Ba  Ba36  1  0.57516557  0.13186825  0.60405317  1
  Ba  Ba37  1  0.48441950  0.16862942  0.32032894  1
  Ba  Ba38  1  0.68499207  0.52313367  0.10461059  1
  Ba  Ba39  1  0.28230796  0.19110251  -0.03337972  1
  Ba  Ba40  1  0.19972958  0.40547493  0.10558616  1
  Ba  Ba41  1  0.57494381  -0.04524675  0.22573745  1
  Ba  Ba42  1  0.11135159  -0.03239683  0.54747086  1
  Ba  Ba43  1  -0.10421216  0.32235332  0.78697162  1
  Ba  Ba44  1  -0.03986953  0.75680187  0.54055320  1
  Ba  Ba45  1  0.77053143  0.73667318  0.29330189  1
  Ba  Ba46  1  0.46768153  0.86061549  0.03923772  1
  Ba  Ba47  1  0.25147631  0.17215076  0.24415981  1
  Ba  Ba48  1  0.76777577  0.24776242  0.02120843  1
  Ba  Ba49  1  0.49310253  0.56347362  0.66525682  1
  Ba  Ba50  1  0.26554631  0.66882297  -0.00525188  1
  Fe  Fe51  1  0.02707161  0.46383667  0.22148450  1
  Fe  Fe52  1  0.80584139  0.69832256  0.11228861  1
  Fe  Fe53  1  0.96319033  0.31646629  0.33404850  1
  Fe  Fe54  1  0.15589209  0.80239755  0.24659811  1
  Fe  Fe55  1  0.56562020  0.32108400  0.12792615  1
  Fe  Fe56  1  0.30306666  0.64829906  0.57854092  1
  Fe  Fe57  1  0.48880145  0.35980449  0.69286220  1
  Fe  Fe58  1  0.62829017  0.03084822  0.42899248  1
  Fe  Fe59  1  0.06638751  0.20708248  0.90415086  1
  Fe  Fe60  1  0.36969219  0.36529266  0.85062387  1
  Fe  Fe61  1  0.96122530  0.35457400  0.20348229  1
  Fe  Fe62  1  0.88751048  0.94336741  0.50122168  1
  Fe  Fe63  1  0.18636315  0.67125147  0.29814751  1
  Fe  Fe64  1  0.92433931  0.62481944  0.78318446  1
  Fe  Fe65  1  0.86851216  0.51112422  0.74107497  1
  Fe  Fe66  1  0.02676637  0.42982593  0.35423255  1
  Fe  Fe67  1  0.02997141  0.59991994  0.87660078  1
  Fe  Fe68  1  0.26752650  0.78068628  0.51397719  1
  Fe  Fe69  1  0.70883497  0.92258148  0.37325421  1
  Fe  Fe70  1  0.70705767  0.05945812  0.32448959  1
  Fe  Fe71  1  0.23341602  0.65106470  0.44378114  1
  Fe  Fe72  1  0.83092822  0.61967392  0.66189813  1
  Fe  Fe73  1  0.10106605  0.34502304  0.27601419  1
  Fe  Fe74  1  0.43724251  0.27585863  0.78714847  1
  Fe  Fe75  1  0.75688979  1.00785758  0.48013183  1
  Fe  Fe76  1  0.37569246  0.71408361  0.45703705  1
  Fe  Fe77  1  0.94740333  0.14208895  0.88501034  1
  Fe  Fe78  1  0.04863840  1.05920590  0.93448607  1
  Fe  Fe79  1  0.27852703  0.07492223  0.59889747  1
  Fe  Fe80  1  0.62210135  0.33966480  0.24471606  1
  Fe  Fe81  1  0.38819600  0.03098708  0.53946673  1
  Fe  Fe82  1  0.72102269  0.84156173  0.09869825  1
  Fe  Fe83  1  0.49578284  0.41308099  0.81890539  1
  Fe  Fe84  1  0.39188433  0.16094043  0.52808032  1
  Fe  Fe85  1  0.29366137  0.53474261  0.65388406  1
  Fe  Fe86  1  0.29211494  0.75193420  0.20827837  1
  Fe  Fe87  1  0.65169403  0.73014310  0.12219315  1
  Fe  Fe88  1  0.83801223  0.02054258  0.36874262  1
  Fe  Fe89  1  0.33704844  0.64620418  0.32534960  1
  Fe  Fe90  1  0.10483500  0.13967735  0.02606859  1
  Fe  Fe91  1  0.89360409  0.52602490  0.89326365  1
  Fe  Fe92  1  0.84620925  0.80660652  0.04651163  1
  Fe  Fe93  1  0.71629834  0.72323184  1.00650891  1
  Fe  Fe94  1  0.14917519  0.71392368  0.15058322  1
  Fe  Fe95  1  0.84377883  0.88480135  0.39302363  1
  Fe  Fe96  1  -0.00624527  0.48629013  0.82141917  1
  Fe  Fe97  1  0.26077710  0.61925041  0.19289500  1
  Fe  Fe98  1  0.27942928  0.11882928  0.46608340  1
  Fe  Fe99  1  0.96742565  0.16387573  0.02013938  1
  Fe  Fe100  1  0.27471275  0.77107111  0.35511994  1
  Fe  Fe101  1  0.36776142  0.42220714  0.71889559  1
  Bi  Bi102  1  0.33843587  0.56091430  0.81788094  1
  Bi  Bi103  1  -0.01458942  0.77766418  0.16443324  1
  Bi  Bi104  1  0.92884594  0.10255989  0.48548137  1
  Bi  Bi105  1  0.01229181  0.01139975  0.09103643  1
  Bi  Bi106  1  0.31943461  0.28235439  0.42614372  1
  Bi  Bi107  1  0.85865038  0.68708408  -0.06912939  1
  Bi  Bi108  1  0.60564291  0.37617815  -0.03346899  1
  Bi  Bi109  1  0.06930689  0.23567475  0.15326771  1
  Bi  Bi110  1  0.44203135  0.79699274  0.31501763  1
  Bi  Bi111  1  0.79416812  -0.05602746  0.22061725  1
  Bi  Bi112  1  0.38641153  0.54437822  0.47249291  1
  Bi  Bi113  1  0.17793261  0.50334681  0.28851833  1
  Bi  Bi114  1  0.31078907  -0.09862427  0.62720084  1
  Bi  Bi115  1  0.82432130  0.60371660  0.48293043  1
  Bi  Bi116  1  0.60757599  0.48907497  0.31332927  1
  Bi  Bi117  1  0.39447453  0.29081159  0.12607863  1
  Bi  Bi118  1  0.76594834  0.26100671  0.61838315  1
  Bi  Bi119  1  0.64392745  0.06578418  0.83814139  1
  Bi  Bi120  1  0.29661888  0.85624464  0.89736190  1
  Bi  Bi121  1  0.95738992  0.98227145  0.81378181  1
  Bi  Bi122  1  0.08281690  0.34295104  0.64802324  1
  Bi  Bi123  1  0.66041214  0.18049160  0.19773699  1
  Bi  Bi124  1  0.38934844  0.04349181  0.14184560  1
  Bi  Bi125  1  0.12311478  0.79856969  0.41740085  1
  Bi  Bi126  1  0.67134123  0.68968346  0.69934541  1
  Bi  Bi127  1  0.55093409  0.67367220  0.97676214  1
