# generated using pymatgen
data_Ba51Fe51Bi26
_symmetry_space_group_name_H-M   'P 1'
_cell_length_a   16.42191512
_cell_length_b   16.37918035
_cell_length_c   16.56174008
_cell_angle_alpha   88.69748818
_cell_angle_beta   89.32911779
_cell_angle_gamma   92.56258410
_symmetry_Int_Tables_number   1
_chemical_formula_structural   Ba51Fe51Bi26
_chemical_formula_sum   'Ba51 Fe51 Bi26'
_cell_volume   4448.76973704
_cell_formula_units_Z   1
loop_
 _symmetry_equiv_pos_site_id
 _symmetry_equiv_pos_as_xyz
  1  'x, y, z'
loop_
 _atom_site_type_symbol
 _atom_site_label
 _atom_site_symmetry_multiplicity
 _atom_site_fract_x
 _atom_site_fract_y
 _atom_site_fract_z
 _atom_site_occupancy
  Ba  Ba0  1  0.41694202  0.71654278  0.48560094  1
  Ba  Ba1  1  0.77838558  0.51296353  -0.07345125  1
  Ba  Ba2  1  0.48560215  0.18884015  0.46145949  1
  Ba  Ba3  1  -0.01925563  0.57895456  0.51380932  1
  Ba  Ba4  1  0.52922588  -0.04170127  0.51746027  1
  Ba  Ba5  1  0.73928265  0.50123354  0.62360576  1
  Ba  Ba6  1  0.68107132  0.05247537  -0.01416319  1
  Ba  Ba7  1  0.22078470  0.17932309  0.52467303  1
  Ba  Ba8  1  0.76180414  -0.11925757  0.47835599  1
  Ba  Ba9  1  0.25290715  0.26205754  0.77378210  1
  Ba  Ba10  1  0.53427806  0.24216680  0.70772809  1
  Ba  Ba11  1  0.40046360  0.01171469  0.00116813  1
  Ba  Ba12  1  0.03013345  0.80638408  0.05686136  1
  Ba  Ba13  1  0.54736902  0.80925922  -0.01645710  1
  Ba  Ba14  1  0.50001473  0.65732458  0.18654517  1
  Ba  Ba15  1  0.45503548  -0.00910002  0.29755067  1
  Ba  Ba16  1  0.03338047  0.79590063  0.44190470  1
  Ba  Ba17  1  0.56496725  0.76102643  0.70599293  1
  Ba  Ba18  1  0.81022920  0.78039081  -0.06520546  1
  Ba  Ba19  1  0.50373152  -0.00755439  0.75738592  1
  Ba  Ba20  1  0.17076475  0.34936641  0.09571717  1
  Ba  Ba21  1  0.51551080  0.23432786  0.17607150  1
  Ba  Ba22  1  0.76671051  0.06222076  0.23068914  1
  Ba  Ba23  1  0.77292956  0.02976780  0.67408011  1
  Ba  Ba24  1  -0.04846040  -0.03446551  0.82840650  1
  Ba  Ba25  1  -0.00188783  0.30575095  0.84031045  1
  Ba  Ba26  1  0.76280624  0.48721958  0.18227577  1
  Ba  Ba27  1  0.02031330  -0.00459153  0.57287159  1
  Ba  Ba28  1  0.55421827  0.41333487  0.34371268  1
  Ba  Ba29  1  0.65393727  0.64756831  0.43276806  1
  Ba  Ba30  1  -0.03028528  0.17944631  0.04856731  1
  Ba  Ba31  1  0.82815070  0.38927159  0.42686486  1
  Ba  Ba32  1  0.75292979  0.80723870  0.19072610  1
  Ba  Ba33  1  0.11936027  0.78908751  0.67542759  1
  Ba  Ba34  1  0.29215483  0.29710433  0.29013463  1
  Ba  Ba35  1  0.26766116  0.75244267  0.00531842  1
  Ba  Ba36  1  0.24499760  0.00170424  0.19519064  1
  Ba  Ba37  1  0.24024633  -0.00693662  0.77016835  1
  Ba  Ba38  1  0.04496867  0.54408747  -0.04106206  1
  Ba  Ba39  1  0.78152851  0.27191040  0.70171932  1
  Ba  Ba40  1  0.02272910  0.04873624  0.33627837  1
  Ba  Ba41  1  -0.03045692  0.29530339  0.26944481  1
  Ba  Ba42  1  0.24684352  0.71164288  0.29857982  1
  Ba  Ba43  1  0.19174609  0.43240682  0.57918809  1
  Ba  Ba44  1  0.31647531  0.66771788  0.71989221  1
  Ba  Ba45  1  0.53254078  0.55146222  -0.07574378  1
  Ba  Ba46  1  -0.01217361  0.24067709  0.53490830  1
  Ba  Ba47  1  -0.00976630  0.59125821  0.23900951  1
  Ba  Ba48  1  0.28864695  0.51748309  -0.03771763  1
  Ba  Ba49  1  0.44531389  0.30410240  -0.04614683  1
  Ba  Ba50  1  -0.05785811  0.60787994  0.74771132  1
  Fe  Fe51  1  0.14472546  0.60556420  0.80529367  1
  Fe  Fe52  1  0.10939978  0.10412323  0.90354041  1
  Fe  Fe53  1  0.20272963  0.48930894  0.78001565  1
  Fe  Fe54  1  0.55937000  0.88139105  0.17787722  1
  Fe  Fe55  1  0.78443282  0.29809357  0.89783420  1
  Fe  Fe56  1  0.68954222  0.24688419  0.09370502  1
  Fe  Fe57  1  0.82586860  0.17310212  0.38159701  1
  Fe  Fe58  1  0.52236107  0.44128535  0.70227898  1
  Fe  Fe59  1  0.18979537  0.91498185  0.38428396  1
  Fe  Fe60  1  0.88185691  0.86876372  0.62942057  1
  Fe  Fe61  1  0.22870138  0.13315702  0.95523791  1
  Fe  Fe62  1  0.78035110  0.35625271  0.02871581  1
  Fe  Fe63  1  0.13790900  0.38250628  0.38898394  1
  Fe  Fe64  1  0.40586860  0.51050023  0.61544927  1
  Fe  Fe65  1  0.94073078  0.92150024  0.20733982  1
  Fe  Fe66  1  0.25995319  0.03190494  0.40031920  1
  Fe  Fe67  1  0.47983372  0.57473240  0.72299721  1
  Fe  Fe68  1  0.40704952  0.37563949  0.63600272  1
  Fe  Fe69  1  0.78657646  0.21120833  0.51644319  1
  Fe  Fe70  1  0.23133012  0.81796017  0.49250853  1
  Fe  Fe71  1  0.20515391  0.94952678  0.52280336  1
  Fe  Fe72  1  0.14256299  0.46527325  0.26795094  1
  Fe  Fe73  1  0.14348204  0.09526504  0.05744310  1
  Fe  Fe74  1  0.25184306  0.47425656  0.37978067  1
  Fe  Fe75  1  0.94165550  0.78222917  0.25171091  1
  Fe  Fe76  1  0.66123790  0.28244745  0.95531707  1
  Fe  Fe77  1  0.79989875  0.72955916  0.62168487  1
  Fe  Fe78  1  0.60734184  0.55034118  0.74560358  1
  Fe  Fe79  1  0.04272758  1.01105823  0.99728461  1
  Fe  Fe80  1  0.83130818  0.08896748  0.48949995  1
  Fe  Fe81  1  0.78900166  0.20877948  1.00108125  1
  Fe  Fe82  1  0.27368984  0.49940724  0.24314853  1
  Fe  Fe83  1  0.46962603  0.52095748  0.49369264  1
  Fe  Fe84  1  0.67348242  0.13460520  0.54407727  1
  Fe  Fe85  1  0.13883276  0.54423334  0.39085303  1
  Fe  Fe86  1  0.69065006  0.20542671  0.40920813  1
  Fe  Fe87  1  0.55202407  0.56386426  0.60347047  1
  Fe  Fe88  1  0.76626079  0.82551745  0.71441838  1
  Fe  Fe89  1  0.32508035  0.89867864  0.42525698  1
  Fe  Fe90  1  0.13650625  0.58586349  0.67488880  1
  Fe  Fe91  1  0.07735201  0.47793420  0.74440972  1
  Fe  Fe92  1  0.70860354  0.07258976  0.43010579  1
  Fe  Fe93  1  0.52284034  0.41789568  0.55987529  1
  Fe  Fe94  1  0.82165838  0.27265240  0.12740157  1
  Fe  Fe95  1  0.89151311  0.78928778  0.73899288  1
  Fe  Fe96  1  0.04184760  0.99721048  0.13236275  1
  Fe  Fe97  1  0.93394752  0.75347032  0.60544064  1
  Fe  Fe98  1  0.03348827  0.45258312  0.37578064  1
  Fe  Fe99  1  0.33486327  0.00773874  0.50989559  1
  Fe  Fe100  1  0.89127836  0.88829699  0.33082545  1
  Fe  Fe101  1  0.85731899  0.75654878  0.35145465  1
  Bi  Bi102  1  0.33951397  -0.13089029  0.61277494  1
  Bi  Bi103  1  0.72684110  0.28038002  0.26421045  1
  Bi  Bi104  1  0.37050000  0.37045965  0.47654989  1
  Bi  Bi105  1  0.39904301  0.55994904  0.34693606  1
  Bi  Bi106  1  0.36898821  0.44674599  0.78451608  1
  Bi  Bi107  1  -0.11883219  -0.03476649  0.05537006  1
  Bi  Bi108  1  0.61297008  0.39886273  0.06386026  1
  Bi  Bi109  1  0.09413525  0.86135953  0.24737982  1
  Bi  Bi110  1  0.65114270  0.31566262  0.53132400  1
  Bi  Bi111  1  0.19460135  0.64952808  0.51946805  1
  Bi  Bi112  1  0.19181142  -0.04855139  -0.02076823  1
  Bi  Bi113  1  0.64099806  0.39108597  0.81627998  1
  Bi  Bi114  1  0.73719199  0.66132534  0.77242030  1
  Bi  Bi115  1  0.08131813  0.13551714  0.72787948  1
  Bi  Bi116  1  0.93953034  0.40158817  0.08466288  1
  Bi  Bi117  1  0.39570631  0.84570058  0.15074950  1
  Bi  Bi118  1  0.68214658  0.90806990  0.83176017  1
  Bi  Bi119  1  0.58801900  0.82941304  0.33633275  1
  Bi  Bi120  1  0.17313957  0.58358518  0.13052059  1
  Bi  Bi121  1  0.94963026  0.41174307  0.64884412  1
  Bi  Bi122  1  0.30915267  0.18423574  0.09428563  1
  Bi  Bi123  1  0.67694036  0.65440594  0.05837482  1
  Bi  Bi124  1  0.84216389  0.14457864  0.85906651  1
  Bi  Bi125  1  0.39055691  0.43026380  0.13734803  1
  Bi  Bi126  1  0.38836065  0.83370589  0.84669648  1
  Bi  Bi127  1  0.38001872  0.11124544  0.63762445  1
