# generated using pymatgen
data_Ba51Fe51Bi26
_symmetry_space_group_name_H-M   'P 1'
_cell_length_a   16.39752354
_cell_length_b   16.42661151
_cell_length_c   16.73880526
_cell_angle_alpha   87.73975411
_cell_angle_beta   91.18835119
_cell_angle_gamma   89.92310770
_symmetry_Int_Tables_number   1
_chemical_formula_structural   Ba51Fe51Bi26
_chemical_formula_sum   'Ba51 Fe51 Bi26'
_cell_volume   4504.20616164
_cell_formula_units_Z   1
loop_
 _symmetry_equiv_pos_site_id
 _symmetry_equiv_pos_as_xyz
  1  'x, y, z'
loop_
 _atom_site_type_symbol
 _atom_site_label
 _atom_site_symmetry_multiplicity
 _atom_site_fract_x
 _atom_site_fract_y
 _atom_site_fract_z
 _atom_site_occupancy
  Ba  Ba0  1  0.53254792  0.25080721  0.68535087  1
  Ba  Ba1  1  -0.01166101  0.63780541  0.23784742  1
  Ba  Ba2  1  0.36343320  0.11061544  0.55407939  1
  Ba  Ba3  1  0.50871459  0.62909156  0.50208928  1
  Ba  Ba4  1  0.50129755  -0.09065158  0.23697210  1
  Ba  Ba5  1  0.03689145  0.78679408  0.79964443  1
  Ba  Ba6  1  0.04510254  0.03045180  0.71727652  1
  Ba  Ba7  1  0.76780944  0.59365485  0.53149295  1
  Ba  Ba8  1  0.52487029  0.42708118  0.03801061  1
  Ba  Ba9  1  0.01909861  -0.04109002  0.43395580  1
  Ba  Ba10  1  0.27117249  0.45631803  0.86631028  1
  Ba  Ba11  1  0.77052165  0.25882672  0.50229290  1
  Ba  Ba12  1  0.01066228  0.53186448  0.68645977  1
  Ba  Ba13  1  -0.07634840  0.02882162  0.15459042  1
  Ba  Ba14  1  0.05535421  0.84653224  0.03663784  1
  Ba  Ba15  1  0.03881422  0.23441889  -0.03633640  1
  Ba  Ba16  1  0.51693364  0.44928142  0.81527750  1
  Ba  Ba17  1  0.35524141  0.57403110  0.11211576  1
  Ba  Ba18  1  0.53173676  0.73555838  0.06012869  1
  Ba  Ba19  1  0.67774966  0.03617379  0.03572079  1
  Ba  Ba20  1  0.18629412  0.50350170  0.31337737  1
  Ba  Ba21  1  0.28798405  0.39628556  0.56231687  1
  Ba  Ba22  1  0.72765481  0.53620808  0.09820746  1
  Ba  Ba23  1  0.71719198  0.27185459  0.22662819  1
  Ba  Ba24  1  -0.01624099  0.29109160  0.63956328  1
  Ba  Ba25  1  0.81217968  0.78733760  0.14491524  1
  Ba  Ba26  1  0.40636812  0.84890981  0.45844197  1
  Ba  Ba27  1  0.85912079  0.09296008  0.87329303  1
  Ba  Ba28  1  0.82448703  0.48449345  0.33081508  1
  Ba  Ba29  1  0.24737385  0.69651697  0.63122098  1
  Ba  Ba30  1  0.64337564  0.02933209  0.43128642  1
  Ba  Ba31  1  0.64345151  0.67225087  0.30426808  1
  Ba  Ba32  1  0.29412580  0.05504628  0.34355633  1
  Ba  Ba33  1  0.32596765  -0.02125463  -0.02719825  1
  Ba  Ba34  1  -0.04762361  0.25504067  0.25540734  1
  Ba  Ba35  1  0.74127305  0.56596545  0.76319330  1
  Ba  Ba36  1  0.48468685  0.70676949  0.77142022  1
  Ba  Ba37  1  0.41812137  0.47584477  0.34659314  1
  Ba  Ba38  1  0.01429335  0.71684922  0.49072603  1
  Ba  Ba39  1  0.75546244  0.33050416  0.73610722  1
  Ba  Ba40  1  0.59819916  -0.00793792  0.72220472  1
  Ba  Ba41  1  0.45875852  0.18398702  -0.06074203  1
  Ba  Ba42  1  0.76682533  0.80570888  0.83776099  1
  Ba  Ba43  1  0.51656225  0.26788975  0.42203310  1
  Ba  Ba44  1  0.22700110  0.21325207  0.73844204  1
  Ba  Ba45  1  0.05677047  0.47177859  0.08145021  1
  Ba  Ba46  1  0.25382382  0.71299100  -0.07320983  1
  Ba  Ba47  1  0.20205208  0.21639715  0.16006942  1
  Ba  Ba48  1  -0.10662339  0.44316998  -0.07706422  1
  Ba  Ba49  1  0.80823719  0.87872706  0.54185792  1
  Ba  Ba50  1  0.10354850  0.20631048  0.45919633  1
  Fe  Fe51  1  0.41689633  0.24809826  0.11862386  1
  Fe  Fe52  1  0.81929452  1.02293048  0.69675406  1
  Fe  Fe53  1  0.75938722  0.27955040  0.92216076  1
  Fe  Fe54  1  0.34723834  0.36105518  0.18819707  1
  Fe  Fe55  1  0.15194251  0.90179709  0.61784136  1
  Fe  Fe56  1  0.57935757  0.51595816  0.64962542  1
  Fe  Fe57  1  0.50793624  0.43443625  0.56915393  1
  Fe  Fe58  1  0.84722342  0.15667889  0.68544038  1
  Fe  Fe59  1  0.06650613  0.39793957  0.48717628  1
  Fe  Fe60  1  0.72657860  0.85789059  0.33643895  1
  Fe  Fe61  1  0.69874991  0.42380817  0.91187327  1
  Fe  Fe62  1  0.99764431  0.51818793  0.42285779  1
  Fe  Fe63  1  0.61261770  0.47464628  0.25559316  1
  Fe  Fe64  1  0.89815299  0.60513960  0.03645302  1
  Fe  Fe65  1  0.37853015  0.23496970  0.25381706  1
  Fe  Fe66  1  0.65140953  0.23519650  0.02245669  1
  Fe  Fe67  1  0.93299795  0.35232113  0.43810783  1
  Fe  Fe68  1  0.91809753  0.63874904  0.87557109  1
  Fe  Fe69  1  0.55212014  0.19684389  0.11815729  1
  Fe  Fe70  1  0.24474432  0.01508960  0.67443387  1
  Fe  Fe71  1  0.45388491  0.60372798  0.93424409  1
  Fe  Fe72  1  0.24208900  0.42136648  0.12459022  1
  Fe  Fe73  1  0.80242411  0.64558782  0.94807563  1
  Fe  Fe74  1  0.23999088  1.02779286  0.80824480  1
  Fe  Fe75  1  0.89736068  0.74071213  0.97345681  1
  Fe  Fe76  1  0.53343447  0.55860266  0.19711682  1
  Fe  Fe77  1  0.49102412  0.16557109  0.23754822  1
  Fe  Fe78  1  0.13287894  -0.03733344  0.19498981  1
  Fe  Fe79  1  0.25677665  0.69197314  0.23562098  1
  Fe  Fe80  1  0.74611721  -0.03997706  0.24959203  1
  Fe  Fe81  1  0.30272745  0.82328460  0.28070696  1
  Fe  Fe82  1  0.01179047  0.66146102  -0.00675657  1
  Fe  Fe83  1  0.72170159  0.35472182  0.02555059  1
  Fe  Fe84  1  0.75170779  1.07782594  0.59409451  1
  Fe  Fe85  1  0.71624116  0.14199684  0.69986519  1
  Fe  Fe86  1  0.27481659  0.71019651  0.37350603  1
  Fe  Fe87  1  0.85533572  0.90035091  0.32535546  1
  Fe  Fe88  1  0.26821719  0.93642954  0.18634353  1
  Fe  Fe89  1  0.15240541  0.74941893  0.32226227  1
  Fe  Fe90  1  0.02147952  0.40436296  0.35714171  1
  Fe  Fe91  1  0.20286662  0.36157342  1.02033695  1
  Fe  Fe92  1  0.18002369  0.89202117  0.30877536  1
  Fe  Fe93  1  0.64009264  0.41610693  0.59328175  1
  Fe  Fe94  1  0.14133318  0.96336810  0.89253516  1
  Fe  Fe95  1  0.93724569  0.45394624  0.52166353  1
  Fe  Fe96  1  0.28638518  0.90611476  0.60173115  1
  Fe  Fe97  1  0.17846514  0.81182533  0.18869360  1
  Fe  Fe98  1  0.18945569  0.00992327  0.54225572  1
  Fe  Fe99  1  0.15708475  0.09488580  0.88992011  1
  Fe  Fe100  1  0.62502859  0.31312919  0.90466310  1
  Fe  Fe101  1  0.33507783  0.34808977  1.04131919  1
  Bi  Bi102  1  0.42743208  0.69038932  0.29141189  1
  Bi  Bi103  1  0.01214099  -0.15213885  0.25226499  1
  Bi  Bi104  1  0.12142634  0.04429848  0.04330061  1
  Bi  Bi105  1  0.91843789  0.09697199  0.55371027  1
  Bi  Bi106  1  0.51692297  0.33988617  0.22354833  1
  Bi  Bi107  1  0.23801032  -0.13690219  0.76912288  1
  Bi  Bi108  1  0.15098395  0.65890495  0.10883685  1
  Bi  Bi109  1  0.63053638  0.08072554  0.22613072  1
  Bi  Bi110  1  0.19733788  0.83983788  0.46988915  1
  Bi  Bi111  1  0.83532943  0.21162987  0.05905262  1
  Bi  Bi112  1  0.13814794  0.54399041  0.51956809  1
  Bi  Bi113  1  0.25308036  0.22915731  -0.05663106  1
  Bi  Bi114  1  0.37855449  0.08275054  0.14822152  1
  Bi  Bi115  1  0.61599273  0.81568005  0.45488911  1
  Bi  Bi116  1  0.39669683  0.07543777  0.76000073  1
  Bi  Bi117  1  0.83343954  0.07423832  0.34109231  1
  Bi  Bi118  1  0.63366274  0.45551741  0.42697950  1
  Bi  Bi119  1  0.88030682  0.70701287  0.68396012  1
  Bi  Bi120  1  0.65275369  0.15530424  0.85303157  1
  Bi  Bi121  1  0.08820153  0.09069052  0.28580380  1
  Bi  Bi122  1  0.33432243  0.80381158  0.10848939  1
  Bi  Bi123  1  0.40210032  0.54020149  0.66360216  1
  Bi  Bi124  1  0.62246401  0.61477131  0.92187615  1
  Bi  Bi125  1  0.29530258  0.28556480  0.38309139  1
  Bi  Bi126  1  0.08410674  0.57106231  0.87810793  1
  Bi  Bi127  1  0.83877564  0.72669406  0.36713619  1
