# generated using pymatgen
data_Ba51Fe51Bi26
_symmetry_space_group_name_H-M   'P 1'
_cell_length_a   16.46271475
_cell_length_b   16.45927739
_cell_length_c   16.43606887
_cell_angle_alpha   88.69685768
_cell_angle_beta   91.61852896
_cell_angle_gamma   88.79251188
_symmetry_Int_Tables_number   1
_chemical_formula_structural   Ba51Fe51Bi26
_chemical_formula_sum   'Ba51 Fe51 Bi26'
_cell_volume   4449.61023675
_cell_formula_units_Z   1
loop_
 _symmetry_equiv_pos_site_id
 _symmetry_equiv_pos_as_xyz
  1  'x, y, z'
loop_
 _atom_site_type_symbol
 _atom_site_label
 _atom_site_symmetry_multiplicity
 _atom_site_fract_x
 _atom_site_fract_y
 _atom_site_fract_z
 _atom_site_occupancy
  Ba  Ba0  1  0.54661442  0.76910825  0.52180369  1
  Ba  Ba1  1  0.50335263  0.51346816  0.31757578  1
  Ba  Ba2  1  -0.08820950  0.32427985  0.56506845  1
  Ba  Ba3  1  -0.00360793  0.70516559  0.75817851  1
  Ba  Ba4  1  0.55738063  0.68896482  0.75694367  1
  Ba  Ba5  1  0.61875950  0.00058277  0.01272109  1
  Ba  Ba6  1  0.19032806  0.08901324  0.85670329  1
  Ba  Ba7  1  0.23134446  0.20047634  0.05837345  1
  Ba  Ba8  1  0.10698496  0.44057670  0.71012898  1
  Ba  Ba9  1  0.50538358  0.10160293  0.34499962  1
  Ba  Ba10  1  0.20455531  0.74112993  -0.02390010  1
  Ba  Ba11  1  0.67107794  0.24408307  0.21280325  1
  Ba  Ba12  1  -0.02928237  0.52199342  0.42221924  1
  Ba  Ba13  1  0.44294748  -0.04495297  0.81291698  1
  Ba  Ba14  1  0.77179832  -0.04463550  0.48398509  1
  Ba  Ba15  1  0.03327856  0.78022335  0.16868706  1
  Ba  Ba16  1  0.47867031  0.48461234  0.70408158  1
  Ba  Ba17  1  0.53495798  0.69034300  0.06281983  1
  Ba  Ba18  1  0.82727930  0.84183799  -0.04394822  1
  Ba  Ba19  1  0.69720253  0.17005960  0.75235896  1
  Ba  Ba20  1  0.01080613  0.05286174  0.48248716  1
  Ba  Ba21  1  0.78449770  0.48418164  0.77332625  1
  Ba  Ba22  1  0.83360121  0.03845315  0.11947508  1
  Ba  Ba23  1  -0.02986252  0.54331098  0.15326010  1
  Ba  Ba24  1  0.73231968  0.21724838  0.45313110  1
  Ba  Ba25  1  0.25185026  0.53311567  0.47737859  1
  Ba  Ba26  1  -0.04353065  0.74627120  0.49267213  1
  Ba  Ba27  1  0.18589013  0.82318399  0.43752858  1
  Ba  Ba28  1  0.26945001  0.59109509  0.77791889  1
  Ba  Ba29  1  -0.01374788  0.19092471  0.02586288  1
  Ba  Ba30  1  0.41339993  0.28771891  0.22505251  1
  Ba  Ba31  1  0.05947565  0.04551831  0.22508632  1
  Ba  Ba32  1  0.25432377  0.49419815  0.20339722  1
  Ba  Ba33  1  -0.08774825  0.28924327  0.27162782  1
  Ba  Ba34  1  0.60483732  0.49522756  -0.05227096  1
  Ba  Ba35  1  0.23853857  0.24810949  0.58382061  1
  Ba  Ba36  1  0.73063458  0.48941249  0.20602011  1
  Ba  Ba37  1  0.15660944  0.26922005  0.35081740  1
  Ba  Ba38  1  0.43023465  0.01675472  0.56219090  1
  Ba  Ba39  1  0.31070339  0.74004741  0.24664880  1
  Ba  Ba40  1  0.46633940  0.31319044  0.00610970  1
  Ba  Ba41  1  0.29090564  0.79699278  0.65391002  1
  Ba  Ba42  1  0.79945404  0.74496914  0.23934231  1
  Ba  Ba43  1  0.24549054  0.43269195  -0.02853209  1
  Ba  Ba44  1  0.49947362  0.31117138  0.54609906  1
  Ba  Ba45  1  -0.04195948  -0.04412168  0.73582047  1
  Ba  Ba46  1  -0.06033757  0.20451599  0.79086140  1
  Ba  Ba47  1  0.00899749  0.42921299  -0.04967402  1
  Ba  Ba48  1  0.71012622  -0.09322225  0.73229496  1
  Ba  Ba49  1  0.39089908  -0.10270170  0.05107396  1
  Ba  Ba50  1  0.58882922  0.87928367  0.28556061  1
  Fe  Fe51  1  0.52390515  0.15555007  0.86936159  1
  Fe  Fe52  1  0.66923404  0.52987074  0.60166610  1
  Fe  Fe53  1  0.27097559  0.29040012  0.80135446  1
  Fe  Fe54  1  0.30101275  0.39424319  0.72528371  1
  Fe  Fe55  1  0.66733159  0.59963911  0.48159046  1
  Fe  Fe56  1  0.12932687  0.92645263  0.63220366  1
  Fe  Fe57  1  0.10932038  0.03350232  0.03320930  1
  Fe  Fe58  1  0.38119004  0.38457295  0.83901570  1
  Fe  Fe59  1  0.09091082  0.45498252  0.28845442  1
  Fe  Fe60  1  0.85651376  0.35495845  0.09168035  1
  Fe  Fe61  1  0.19587875  0.02335487  0.36142035  1
  Fe  Fe62  1  0.37089056  0.59957339  -0.01270620  1
  Fe  Fe63  1  0.79283943  0.20564583  0.94607412  1
  Fe  Fe64  1  0.50425387  1.01860706  0.16958765  1
  Fe  Fe65  1  0.84832431  0.07415099  0.32239676  1
  Fe  Fe66  1  0.71529612  0.07778060  0.31074414  1
  Fe  Fe67  1  0.38084379  0.68067727  0.46255425  1
  Fe  Fe68  1  0.49590627  0.17990663  0.74042595  1
  Fe  Fe69  1  0.14046011  0.92884846  0.95762029  1
  Fe  Fe70  1  0.82996283  0.63782712  0.92641212  1
  Fe  Fe71  1  1.02728123  0.86596138  0.92396725  1
  Fe  Fe72  1  0.00117702  0.01043862  0.92939611  1
  Fe  Fe73  1  0.72058148  0.34303875  0.03503481  1
  Fe  Fe74  1  0.80598586  0.23560961  0.07827515  1
  Fe  Fe75  1  0.41281813  0.51248818  0.90518789  1
  Fe  Fe76  1  1.01672562  0.93896182  0.04816101  1
  Fe  Fe77  1  0.84618273  0.33066703  0.95081911  1
  Fe  Fe78  1  0.39581319  0.64912370  0.58652237  1
  Fe  Fe79  1  0.79053597  0.48265525  0.53757834  1
  Fe  Fe80  1  0.80321392  0.62155800  0.54578491  1
  Fe  Fe81  1  0.77134668  0.55742156  0.40492268  1
  Fe  Fe82  1  0.24561682  0.98958737  0.69250346  1
  Fe  Fe83  1  0.77850449  0.42273662  0.40435307  1
  Fe  Fe84  1  0.66250062  0.45581658  0.46494945  1
  Fe  Fe85  1  0.38510298  0.98260851  0.24588132  1
  Fe  Fe86  1  0.84710834  0.67319502  0.05685037  1
  Fe  Fe87  1  0.12780379  0.05108998  0.66949455  1
  Fe  Fe88  1  0.71231811  0.31577763  0.89820677  1
  Fe  Fe89  1  0.70207422  0.68697208  0.92335475  1
  Fe  Fe90  1  0.11449480  0.57717531  0.02378847  1
  Fe  Fe91  1  0.25673431  0.93673717  0.27815900  1
  Fe  Fe92  1  0.39448954  0.09407920  0.14454456  1
  Fe  Fe93  1  0.79120365  0.75828683  0.60866232  1
  Fe  Fe94  1  0.39549241  0.22528697  0.85038096  1
  Fe  Fe95  1  0.40239031  0.29240390  0.72098583  1
  Fe  Fe96  1  0.76873295  0.96298594  0.28554412  1
  Fe  Fe97  1  0.32588807  0.02006164  0.38070234  1
  Fe  Fe98  1  0.69442784  0.67050418  0.62044930  1
  Fe  Fe99  1  0.51793725  0.14169257  0.11784242  1
  Fe  Fe100  1  0.72675706  0.63042179  0.04670792  1
  Fe  Fe101  1  0.10595355  0.58393580  0.89722295  1
  Bi  Bi102  1  0.50951086  0.55263657  0.51369397  1
  Bi  Bi103  1  0.81495167  0.49303317  0.00433792  1
  Bi  Bi104  1  0.27458647  0.12597722  0.25472998  1
  Bi  Bi105  1  0.55720817  0.31926709  0.81232879  1
  Bi  Bi106  1  0.78017559  0.70544427  0.77263294  1
  Bi  Bi107  1  0.15345872  -0.12410185  0.79701682  1
  Bi  Bi108  1  0.22224129  0.02826991  0.52372129  1
  Bi  Bi109  1  -0.00871982  0.68826720  -0.02742966  1
  Bi  Bi110  1  0.40424086  0.09864971  -0.02426444  1
  Bi  Bi111  1  0.64275869  0.19813232  0.00662948  1
  Bi  Bi112  1  -0.16892704  0.04893754  -0.10660308  1
  Bi  Bi113  1  0.93254553  0.53819624  0.62692232  1
  Bi  Bi114  1  0.73915931  0.74651254  0.43943445  1
  Bi  Bi115  1  0.84975762  0.10953618  0.61384020  1
  Bi  Bi116  1  0.39998039  0.86946398  0.39030675  1
  Bi  Bi117  1  0.34259339  0.36167934  0.40175525  1
  Bi  Bi118  1  0.34194282  0.12713082  0.72040762  1
  Bi  Bi119  1  0.44404220  0.49857632  0.10537629  1
  Bi  Bi120  1  0.12072605  0.62429168  0.30946579  1
  Bi  Bi121  1  0.39302106  0.73095552  0.88349752  1
  Bi  Bi122  1  0.92936591  0.90769775  0.32711794  1
  Bi  Bi123  1  0.09137761  0.35214457  0.15488046  1
  Bi  Bi124  1  0.19294153  0.90854051  0.12258181  1
  Bi  Bi125  1  0.69853979  0.35959584  0.61200034  1
  Bi  Bi126  1  0.12657258  0.64763609  0.59923900  1
  Bi  Bi127  1  0.60306123  0.82769368  0.90897946  1
