# generated using pymatgen
data_Ba51Fe51Bi26
_symmetry_space_group_name_H-M   'P 1'
_cell_length_a   16.53513896
_cell_length_b   16.47536568
_cell_length_c   16.23306954
_cell_angle_alpha   88.09071296
_cell_angle_beta   88.81333687
_cell_angle_gamma   91.25605758
_symmetry_Int_Tables_number   1
_chemical_formula_structural   Ba51Fe51Bi26
_chemical_formula_sum   'Ba51 Fe51 Bi26'
_cell_volume   4417.71830699
_cell_formula_units_Z   1
loop_
 _symmetry_equiv_pos_site_id
 _symmetry_equiv_pos_as_xyz
  1  'x, y, z'
loop_
 _atom_site_type_symbol
 _atom_site_label
 _atom_site_symmetry_multiplicity
 _atom_site_fract_x
 _atom_site_fract_y
 _atom_site_fract_z
 _atom_site_occupancy
  Ba  Ba0  1  0.28565351  0.24392507  0.77725558  1
  Ba  Ba1  1  0.46267731  0.79396211  0.23722648  1
  Ba  Ba2  1  0.26738553  0.24612312  0.53718581  1
  Ba  Ba3  1  0.28275509  0.51064286  0.82382226  1
  Ba  Ba4  1  0.17973366  0.76200083  0.76651445  1
  Ba  Ba5  1  -0.02449940  0.65772997  0.48668932  1
  Ba  Ba6  1  0.46343080  0.02729006  0.23991076  1
  Ba  Ba7  1  0.85270784  0.51637583  0.19789808  1
  Ba  Ba8  1  0.29529548  0.21905274  0.02398290  1
  Ba  Ba9  1  0.46535998  0.72178526  0.48750539  1
  Ba  Ba10  1  0.53747864  0.07557319  0.01222281  1
  Ba  Ba11  1  0.28799458  0.49280244  0.06477163  1
  Ba  Ba12  1  0.70845517  0.69809141  0.82388266  1
  Ba  Ba13  1  0.03152728  0.27891975  0.78821908  1
  Ba  Ba14  1  0.00397525  0.52762748  0.77236730  1
  Ba  Ba15  1  0.52663839  0.38950639  -0.00782035  1
  Ba  Ba16  1  0.41405842  -0.01110973  0.50492357  1
  Ba  Ba17  1  0.73287675  0.72918312  0.08097143  1
  Ba  Ba18  1  0.72534390  0.77893256  0.32179384  1
  Ba  Ba19  1  0.06107377  -0.06237506  0.87862308  1
  Ba  Ba20  1  -0.03637508  0.04126759  0.06019180  1
  Ba  Ba21  1  0.44697619  0.81651037  0.72670094  1
  Ba  Ba22  1  0.40308480  0.45207554  0.59105032  1
  Ba  Ba23  1  0.55065099  0.21774658  0.50813245  1
  Ba  Ba24  1  0.19539305  0.78203602  0.54031631  1
  Ba  Ba25  1  0.82655589  0.25102531  0.20191670  1
  Ba  Ba26  1  0.22195049  0.73194804  0.21882034  1
  Ba  Ba27  1  0.72196784  0.02244692  0.24340677  1
  Ba  Ba28  1  -0.03159270  0.74998160  0.25838045  1
  Ba  Ba29  1  0.75759422  0.50766965  -0.02422444  1
  Ba  Ba30  1  -0.05624233  0.02491680  0.38195538  1
  Ba  Ba31  1  -0.06883271  0.76321559  0.71733702  1
  Ba  Ba32  1  0.04570360  0.55651130  0.02791085  1
  Ba  Ba33  1  0.75634396  -0.03495151  -0.06637375  1
  Ba  Ba34  1  0.01263283  0.39485996  0.53646440  1
  Ba  Ba35  1  0.72848675  0.38658011  0.45381893  1
  Ba  Ba36  1  0.20192175  0.53384932  0.47191197  1
  Ba  Ba37  1  0.72235271  0.26801670  -0.13846910  1
  Ba  Ba38  1  0.70147339  -0.02306855  0.54576843  1
  Ba  Ba39  1  0.58719299  0.53765823  0.29835932  1
  Ba  Ba40  1  -0.05954858  0.00044454  0.66965855  1
  Ba  Ba41  1  0.47839023  0.30427778  0.24902893  1
  Ba  Ba42  1  0.77303316  0.54364996  0.63554914  1
  Ba  Ba43  1  0.17596729  0.02677677  0.47394479  1
  Ba  Ba44  1  0.20459843  -0.00369534  0.23277902  1
  Ba  Ba45  1  0.52246826  0.56132840  0.77554540  1
  Ba  Ba46  1  0.27443729  0.75147221  -0.02464863  1
  Ba  Ba47  1  0.25051187  0.31570548  0.26689760  1
  Ba  Ba48  1  0.51980386  0.77221491  -0.02344356  1
  Ba  Ba49  1  0.45225473  0.06570079  0.74657528  1
  Ba  Ba50  1  0.04841918  0.20618751  0.21029747  1
  Fe  Fe51  1  0.52413321  0.64284513  0.13558508  1
  Fe  Fe52  1  0.45575169  0.58250794  0.99031594  1
  Fe  Fe53  1  0.07953352  0.54527844  0.22880594  1
  Fe  Fe54  1  0.02045184  0.41304831  0.19813287  1
  Fe  Fe55  1  0.57945342  0.58236954  1.02904359  1
  Fe  Fe56  1  0.65199325  0.63968048  0.48469773  1
  Fe  Fe57  1  0.48629018  0.34538997  0.75413105  1
  Fe  Fe58  1  0.28705984  0.92203027  0.65233150  1
  Fe  Fe59  1  0.85785200  0.78270521  0.91282834  1
  Fe  Fe60  1  0.61246208  0.16681112  0.29714606  1
  Fe  Fe61  1  0.63260158  0.80557030  0.64954594  1
  Fe  Fe62  1  -0.05149809  0.21471318  0.61537033  1
  Fe  Fe63  1  0.25222562  1.01803646  0.91951004  1
  Fe  Fe64  1  0.20754145  0.92153548  0.03688916  1
  Fe  Fe65  1  0.82583542  0.17764259  0.68937240  1
  Fe  Fe66  1  0.92423953  0.83444553  0.01219349  1
  Fe  Fe67  1  0.33392066  0.90468367  0.08726426  1
  Fe  Fe68  1  0.00328658  0.74345054  0.92043831  1
  Fe  Fe69  1  0.92847415  0.22449016  0.45061357  1
  Fe  Fe70  1  0.47375348  0.51499209  0.12686703  1
  Fe  Fe71  1  0.89852111  0.65460415  0.91773628  1
  Fe  Fe72  1  0.17295270  0.58185235  0.65970986  1
  Fe  Fe73  1  0.20270453  0.06040892  0.78527682  1
  Fe  Fe74  1  0.01436698  0.24909995  0.99709727  1
  Fe  Fe75  1  0.18580009  0.05031721  0.04720239  1
  Fe  Fe76  1  0.76628657  0.70422236  0.51070312  1
  Fe  Fe77  1  0.70800481  0.27203569  0.65566095  1
  Fe  Fe78  1  0.27732763  0.94390200  0.78902526  1
  Fe  Fe79  1  0.75975686  0.77031564  0.62431366  1
  Fe  Fe80  1  0.16230773  0.95783470  0.68694143  1
  Fe  Fe81  1  0.00096375  0.51651982  0.33162775  1
  Fe  Fe82  1  0.86401689  0.12303062  0.54059139  1
  Fe  Fe83  1  0.66243100  0.28658984  0.29866133  1
  Fe  Fe84  1  0.12703443  0.85093902  0.36268323  1
  Fe  Fe85  1  0.91830083  0.70163255  0.04367605  1
  Fe  Fe86  1  0.39399056  0.47740553  0.23528800  1
  Fe  Fe87  1  0.01449204  0.14412970  0.52215655  1
  Fe  Fe88  1  0.39830145  0.64879992  0.09418411  1
  Fe  Fe89  1  0.09268599  0.41923533  0.32172974  1
  Fe  Fe90  1  0.27639088  0.05523771  0.66542268  1
  Fe  Fe91  1  1.03408950  0.85930496  0.45051676  1
  Fe  Fe92  1  0.64986831  0.78732310  0.50989755  1
  Fe  Fe93  1  0.32383342  0.02831417  0.04783630  1
  Fe  Fe94  1  0.82903913  0.26416863  0.55368285  1
  Fe  Fe95  1  0.73129095  0.16595236  0.57562123  1
  Fe  Fe96  1  0.95961894  0.34265138  0.08275769  1
  Fe  Fe97  1  0.63500845  0.21610125  0.16852633  1
  Fe  Fe98  1  0.88355522  0.23232462  -0.00741831  1
  Fe  Fe99  1  0.57247165  0.25389150  0.72064913  1
  Fe  Fe100  1  0.63850765  0.67627833  0.61701844  1
  Fe  Fe101  1  0.40028865  0.60618585  0.22777070  1
  Bi  Bi102  1  -0.07341083  0.36382791  0.34294892  1
  Bi  Bi103  1  0.09949898  0.24263398  0.41095130  1
  Bi  Bi104  1  0.74206441  0.14225782  0.04988344  1
  Bi  Bi105  1  0.85664968  0.35584072  0.69003516  1
  Bi  Bi106  1  0.12938796  0.35301038  0.07225201  1
  Bi  Bi107  1  0.24085584  0.52652187  0.26865426  1
  Bi  Bi108  1  0.11777525  0.13070647  0.65691883  1
  Bi  Bi109  1  0.39552968  -0.06885453  -0.08236052  1
  Bi  Bi110  1  0.07764860  0.80417769  0.07055247  1
  Bi  Bi111  1  0.75382241  0.16550325  0.40550843  1
  Bi  Bi112  1  0.75402310  -0.11300419  0.73881206  1
  Bi  Bi113  1  0.87024850  0.84251196  0.49465091  1
  Bi  Bi114  1  0.47452364  0.22731187  0.87559426  1
  Bi  Bi115  1  0.35679117  0.15086624  0.36990361  1
  Bi  Bi116  1  0.18841884  0.41277536  0.66343266  1
  Bi  Bi117  1  0.89688746  0.12274705  0.86061444  1
  Bi  Bi118  1  0.60197450  0.40702586  0.63958790  1
  Bi  Bi119  1  0.57271145  0.89902061  0.39504695  1
  Bi  Bi120  1  0.79260002  0.58747042  0.39468576  1
  Bi  Bi121  1  0.61501097  0.89984901  0.11637961  1
  Bi  Bi122  1  0.66807855  0.39160795  0.15918574  1
  Bi  Bi123  1  0.91893081  0.39193760  0.92948265  1
  Bi  Bi124  1  0.12656618  0.14127450  0.92059973  1
  Bi  Bi125  1  0.30158991  0.86442024  0.36946505  1
  Bi  Bi126  1  0.66249053  0.11074237  0.72257821  1
  Bi  Bi127  1  0.33226597  0.64458399  0.65350183  1
