# generated using pymatgen
data_Ba51Fe51Bi26
_symmetry_space_group_name_H-M   'P 1'
_cell_length_a   16.34352943
_cell_length_b   16.25067904
_cell_length_c   16.32724166
_cell_angle_alpha   89.59796909
_cell_angle_beta   89.17243890
_cell_angle_gamma   89.80294905
_symmetry_Int_Tables_number   1
_chemical_formula_structural   Ba51Fe51Bi26
_chemical_formula_sum   'Ba51 Fe51 Bi26'
_cell_volume   4335.82523969
_cell_formula_units_Z   1
loop_
 _symmetry_equiv_pos_site_id
 _symmetry_equiv_pos_as_xyz
  1  'x, y, z'
loop_
 _atom_site_type_symbol
 _atom_site_label
 _atom_site_symmetry_multiplicity
 _atom_site_fract_x
 _atom_site_fract_y
 _atom_site_fract_z
 _atom_site_occupancy
  Ba  Ba0  1  0.43561301  0.14512937  0.02163317  1
  Ba  Ba1  1  0.68744278  0.82286847  0.61567782  1
  Ba  Ba2  1  -0.01083887  0.57872007  0.44723461  1
  Ba  Ba3  1  0.51691244  0.46673405  0.49381626  1
  Ba  Ba4  1  -0.07865852  0.20546743  0.80803113  1
  Ba  Ba5  1  0.26155294  0.57529465  0.50593400  1
  Ba  Ba6  1  0.75563032  0.51456060  -0.01793981  1
  Ba  Ba7  1  -0.01595315  0.27315304  0.31044366  1
  Ba  Ba8  1  0.50609762  0.25244615  0.61031034  1
  Ba  Ba9  1  0.49452883  -0.12284068  -0.03577749  1
  Ba  Ba10  1  0.41525769  0.31592344  0.82345272  1
  Ba  Ba11  1  0.32135293  0.46875005  0.24964832  1
  Ba  Ba12  1  0.49196475  0.71415872  0.78308675  1
  Ba  Ba13  1  0.77242285  0.00786867  0.46305325  1
  Ba  Ba14  1  0.74330630  0.66558946  -0.20855404  1
  Ba  Ba15  1  0.22850094  0.24971267  0.30876174  1
  Ba  Ba16  1  0.88248685  0.48749526  0.19229470  1
  Ba  Ba17  1  0.36335744  0.12550202  0.48224418  1
  Ba  Ba18  1  0.43986185  -0.01467773  0.72920962  1
  Ba  Ba19  1  0.00980857  0.30877926  0.55080771  1
  Ba  Ba20  1  0.03352118  0.02809132  0.31253918  1
  Ba  Ba21  1  0.11688084  0.07028388  0.69593243  1
  Ba  Ba22  1  0.20831479  -0.02903224  -0.01612340  1
  Ba  Ba23  1  0.69022068  0.01475654  0.10580484  1
  Ba  Ba24  1  0.53000836  0.75615626  0.24143236  1
  Ba  Ba25  1  0.80133383  0.49838745  0.63208750  1
  Ba  Ba26  1  0.52827485  -0.01931454  0.35183229  1
  Ba  Ba27  1  0.26098154  0.82949617  0.79947808  1
  Ba  Ba28  1  0.24125140  0.91655147  0.50403583  1
  Ba  Ba29  1  0.21531177  0.47249711  -0.01413255  1
  Ba  Ba30  1  0.17085161  0.32477931  0.75982456  1
  Ba  Ba31  1  0.67626359  0.32251995  0.83598886  1
  Ba  Ba32  1  -0.14761480  -0.09415264  0.79381664  1
  Ba  Ba33  1  0.73567367  0.61935339  0.41016839  1
  Ba  Ba34  1  0.85631422  -0.11579880  0.22499043  1
  Ba  Ba35  1  -0.02341245  0.74654307  -0.02054522  1
  Ba  Ba36  1  0.27359308  -0.06490448  0.20823706  1
  Ba  Ba37  1  0.56012431  0.65217960  0.00575782  1
  Ba  Ba38  1  0.05282485  0.27805580  0.04036066  1
  Ba  Ba39  1  0.50144864  0.41710354  0.06220880  1
  Ba  Ba40  1  0.67957102  0.06828110  0.73761319  1
  Ba  Ba41  1  0.63378436  0.44720787  0.27520085  1
  Ba  Ba42  1  0.26443470  0.57752204  0.74977961  1
  Ba  Ba43  1  -0.01685903  -0.09319226  0.55179197  1
  Ba  Ba44  1  0.08378107  0.62468041  0.15347599  1
  Ba  Ba45  1  0.76510796  0.25713682  0.06820657  1
  Ba  Ba46  1  0.75335340  0.26029002  0.55816535  1
  Ba  Ba47  1  0.01705087  0.67977579  0.73936999  1
  Ba  Ba48  1  0.27414659  0.71455180  0.29641432  1
  Ba  Ba49  1  0.74177678  0.20698892  0.32147148  1
  Ba  Ba50  1  -0.03562157  0.01513418  0.01698126  1
  Fe  Fe51  1  0.05822869  0.74531146  0.29963875  1
  Fe  Fe52  1  0.87994258  0.38181918  -0.07490915  1
  Fe  Fe53  1  0.77787148  0.70542401  -0.01012019  1
  Fe  Fe54  1  0.95699542  0.12608147  0.48583704  1
  Fe  Fe55  1  0.47019896  0.49742994  0.71110734  1
  Fe  Fe56  1  0.55749413  0.85477475  0.48822366  1
  Fe  Fe57  1  0.69510771  0.79056418  0.08376838  1
  Fe  Fe58  1  0.82436273  0.72342450  0.11286849  1
  Fe  Fe59  1  0.26480266  0.15731675  0.87326135  1
  Fe  Fe60  1  0.45611448  0.60887379  0.61692584  1
  Fe  Fe61  1  0.79514192  0.84884063  0.01112714  1
  Fe  Fe62  1  0.37162392  0.75290228  0.10893320  1
  Fe  Fe63  1  0.25889385  0.27483591  0.93776033  1
  Fe  Fe64  1  0.44944830  0.30702328  0.35715450  1
  Fe  Fe65  1  0.50491583  0.75490479  0.58279930  1
  Fe  Fe66  1  0.10973589  0.85445313  0.68448110  1
  Fe  Fe67  1  0.57593716  0.24585580  0.13673306  1
  Fe  Fe68  1  0.85555080  0.38704957  0.79337719  1
  Fe  Fe69  1  0.58807602  0.51044021  0.80647145  1
  Fe  Fe70  1  0.56070493  0.72930149  0.43471880  1
  Fe  Fe71  1  0.44338133  0.26503350  0.21206240  1
  Fe  Fe72  1  0.70437264  -0.06778685  0.92323840  1
  Fe  Fe73  1  0.97163393  0.41653095  0.72753651  1
  Fe  Fe74  1  0.85213177  0.78216708  0.42801068  1
  Fe  Fe75  1  0.24155920  0.25988052  0.57613395  1
  Fe  Fe76  1  0.90467113  0.50788799  0.83616628  1
  Fe  Fe77  1  0.00000236  0.37821741  0.86599134  1
  Fe  Fe78  1  0.16834771  0.75623348  0.62549330  1
  Fe  Fe79  1  0.97426860  0.81656787  0.38040482  1
  Fe  Fe80  1  0.58691951  0.64578179  0.54767110  1
  Fe  Fe81  1  0.26721349  0.64562915  0.08667799  1
  Fe  Fe82  1  0.59710546  0.44411262  0.69185648  1
  Fe  Fe83  1  0.36091804  0.65027837  0.97714112  1
  Fe  Fe84  1  0.53756388  0.13468215  0.20144930  1
  Fe  Fe85  1  0.20006272  0.38086069  0.54597928  1
  Fe  Fe86  1  0.57400939  0.27220190  0.26839411  1
  Fe  Fe87  1  0.22192051  0.77664855  0.08500640  1
  Fe  Fe88  1  0.31657575  0.77775561  0.98613812  1
  Fe  Fe89  1  0.59448763  0.58474136  0.67175211  1
  Fe  Fe90  1  0.39510483  0.61966837  0.11571555  1
  Fe  Fe91  1  0.67665636  0.79587275  0.93043259  1
  Fe  Fe92  1  0.57276607  0.29168564  0.41588491  1
  Fe  Fe93  1  0.04711096  0.49538543  0.81187380  1
  Fe  Fe94  1  0.42242802  0.80082279  0.44916618  1
  Fe  Fe95  1  0.23475994  0.17339958  1.01833597  1
  Fe  Fe96  1  0.58334383  0.16375715  0.44425026  1
  Fe  Fe97  1  0.11472137  0.85685563  0.33306137  1
  Fe  Fe98  1  0.49960165  0.17922233  0.33882081  1
  Fe  Fe99  1  0.64116427  0.87238091  0.82251272  1
  Fe  Fe100  1  0.44589180  0.89270156  0.55372188  1
  Fe  Fe101  1  0.44623734  0.66339887  0.47865584  1
  Bi  Bi102  1  0.69212454  0.82965749  0.37802317  1
  Bi  Bi103  1  0.56611970  0.02940653  0.55881464  1
  Bi  Bi104  1  0.34151088  0.75197544  0.61276332  1
  Bi  Bi105  1  0.69647994  0.62727384  0.16777485  1
  Bi  Bi106  1  -0.01694576  0.50843821  -0.01194705  1
  Bi  Bi107  1  0.18162568  0.68467157  -0.06164519  1
  Bi  Bi108  1  0.42888202  0.52155699  0.88379897  1
  Bi  Bi109  1  0.34709194  0.40427885  0.62639285  1
  Bi  Bi110  1  0.31655614  0.31045664  0.09587108  1
  Bi  Bi111  1  0.09135676  0.49645728  0.63714931  1
  Bi  Bi112  1  0.12212590  0.74489753  0.46092304  1
  Bi  Bi113  1  0.08017281  0.85032938  0.15744968  1
  Bi  Bi114  1  0.37694700  0.11299588  0.25324772  1
  Bi  Bi115  1  0.77460176  0.09468576  0.92044897  1
  Bi  Bi116  1  0.82282012  0.40557507  0.40515549  1
  Bi  Bi117  1  0.86476378  0.70920302  0.58538268  1
  Bi  Bi118  1  0.87772489  0.11391359  0.18663813  1
  Bi  Bi119  1  0.12763987  0.12722969  0.48427217  1
  Bi  Bi120  1  0.11044133  0.41417908  0.19581742  1
  Bi  Bi121  1  0.14202694  0.42788968  0.39384410  1
  Bi  Bi122  1  0.90241560  0.68575290  0.27920990  1
  Bi  Bi123  1  0.05874709  0.90638652  0.83824749  1
  Bi  Bi124  1  0.14099412  0.10927338  0.14368627  1
  Bi  Bi125  1  0.88283919  0.09012252  0.63409249  1
  Bi  Bi126  1  0.48448035  -0.02668952  0.14743870  1
  Bi  Bi127  1  0.31503883  0.15831663  0.70192276  1
