# generated using pymatgen
data_Ba51Fe51Bi26
_symmetry_space_group_name_H-M   'P 1'
_cell_length_a   16.30033124
_cell_length_b   16.17422526
_cell_length_c   16.58366950
_cell_angle_alpha   89.62689588
_cell_angle_beta   92.04719671
_cell_angle_gamma   89.25416594
_symmetry_Int_Tables_number   1
_chemical_formula_structural   Ba51Fe51Bi26
_chemical_formula_sum   'Ba51 Fe51 Bi26'
_cell_volume   4368.93806124
_cell_formula_units_Z   1
loop_
 _symmetry_equiv_pos_site_id
 _symmetry_equiv_pos_as_xyz
  1  'x, y, z'
loop_
 _atom_site_type_symbol
 _atom_site_label
 _atom_site_symmetry_multiplicity
 _atom_site_fract_x
 _atom_site_fract_y
 _atom_site_fract_z
 _atom_site_occupancy
  Ba  Ba0  1  0.23857979  0.21192023  0.76062896  1
  Ba  Ba1  1  0.47476599  -0.02593119  0.74233216  1
  Ba  Ba2  1  0.76262513  0.60735368  -0.03512479  1
  Ba  Ba3  1  0.57206526  0.38376184  -0.02508338  1
  Ba  Ba4  1  -0.05046564  0.52506354  0.34794306  1
  Ba  Ba5  1  0.23647003  -0.04745056  0.87341014  1
  Ba  Ba6  1  -0.00185878  0.11209126  0.68681157  1
  Ba  Ba7  1  -0.00488994  0.75660028  0.45726265  1
  Ba  Ba8  1  0.30976249  0.46317758  0.07484911  1
  Ba  Ba9  1  0.17643686  -0.02416333  0.30334013  1
  Ba  Ba10  1  0.66956250  0.21576023  0.32468923  1
  Ba  Ba11  1  0.32743589  0.29008713  0.44705873  1
  Ba  Ba12  1  0.73011355  0.68052867  0.25348622  1
  Ba  Ba13  1  0.01517049  0.45118796  0.06606491  1
  Ba  Ba14  1  0.47941464  0.27242573  0.78745720  1
  Ba  Ba15  1  0.27755205  0.50591261  0.78392496  1
  Ba  Ba16  1  0.61781569  0.73462205  0.72083594  1
  Ba  Ba17  1  0.50841239  0.38178496  0.19889951  1
  Ba  Ba18  1  -0.00128177  -0.06666545  -0.15021628  1
  Ba  Ba19  1  -0.07266165  0.69747856  0.68893623  1
  Ba  Ba20  1  0.46463504  -0.08723582  0.50065367  1
  Ba  Ba21  1  0.33417234  0.04077953  0.06900566  1
  Ba  Ba22  1  0.74527377  0.79247486  0.51893134  1
  Ba  Ba23  1  -0.00132922  0.25938027  0.91517364  1
  Ba  Ba24  1  0.48949688  0.51834029  0.65866458  1
  Ba  Ba25  1  -0.13124575  0.34682313  0.21977919  1
  Ba  Ba26  1  0.51080146  0.17905503  0.56891304  1
  Ba  Ba27  1  0.36798712  0.19569360  0.24944316  1
  Ba  Ba28  1  0.02998717  0.80142329  0.19974351  1
  Ba  Ba29  1  0.19495152  0.22961086  0.06906370  1
  Ba  Ba30  1  0.49987261  0.65066446  -0.06777868  1
  Ba  Ba31  1  -0.12982646  -0.00334916  0.51071251  1
  Ba  Ba32  1  0.21844776  0.72151379  -0.02622439  1
  Ba  Ba33  1  -0.08483936  0.08059849  0.29705863  1
  Ba  Ba34  1  0.74468536  0.28903547  0.82178113  1
  Ba  Ba35  1  0.21346238  -0.06664154  0.55449393  1
  Ba  Ba36  1  0.08928680  0.34375959  0.56840431  1
  Ba  Ba37  1  0.77435344  0.17886419  0.06373525  1
  Ba  Ba38  1  0.26425364  0.52287694  0.49249128  1
  Ba  Ba39  1  -0.01828417  0.71220260  -0.03910661  1
  Ba  Ba40  1  0.40938599  0.68408355  0.16286402  1
  Ba  Ba41  1  0.11213654  0.26142057  0.32083474  1
  Ba  Ba42  1  0.56268384  0.08075737  -0.05256854  1
  Ba  Ba43  1  0.51443148  0.70412210  0.38018345  1
  Ba  Ba44  1  0.66987033  -0.02752101  0.19388324  1
  Ba  Ba45  1  0.30769770  0.75655581  0.73053760  1
  Ba  Ba46  1  0.44574356  -0.05215644  0.25826367  1
  Ba  Ba47  1  0.77534984  0.22119909  0.56231203  1
  Ba  Ba48  1  0.56751729  0.42084672  0.45026388  1
  Ba  Ba49  1  0.78874861  -0.07621852  -0.00749881  1
  Ba  Ba50  1  0.02679967  0.49197947  0.79036680  1
  Fe  Fe51  1  0.11660446  0.75486099  0.66255331  1
  Fe  Fe52  1  0.70705753  0.07669435  0.81847581  1
  Fe  Fe53  1  0.12761523  0.66200234  0.78424413  1
  Fe  Fe54  1  0.34491891  0.30900700  0.93582462  1
  Fe  Fe55  1  0.43482559  0.08916149  0.40812443  1
  Fe  Fe56  1  0.71523424  0.02105374  0.38085722  1
  Fe  Fe57  1  1.00681022  0.92596250  0.03741633  1
  Fe  Fe58  1  0.57342256  0.04449352  0.38448926  1
  Fe  Fe59  1  0.36221785  0.84130155  0.02265724  1
  Fe  Fe60  1  0.13696263  0.62020723  0.65581587  1
  Fe  Fe61  1  0.85582320  0.91064927  0.69106738  1
  Fe  Fe62  1  0.31770127  0.80998592  0.30906624  1
  Fe  Fe63  1  0.81201142  0.52616068  0.77347008  1
  Fe  Fe64  1  0.77189163  0.50946029  0.13858941  1
  Fe  Fe65  1  0.73329426  0.46342244  0.55803361  1
  Fe  Fe66  1  0.71833495  0.92741764  0.67411255  1
  Fe  Fe67  1  0.36714544  0.17863440  0.92880403  1
  Fe  Fe68  1  0.10127639  0.04649687  0.99302509  1
  Fe  Fe69  1  0.27717303  0.40961166  0.28148356  1
  Fe  Fe70  1  0.79560168  0.05673044  0.69755804  1
  Fe  Fe71  1  0.79752110  0.42005520  0.43512938  1
  Fe  Fe72  1  0.40917208  0.82057078  0.90083755  1
  Fe  Fe73  1  0.87899449  0.40911472  0.54908496  1
  Fe  Fe74  1  0.34575988  0.08307817  0.52222472  1
  Fe  Fe75  1  0.11639134  0.79444589  0.78786766  1
  Fe  Fe76  1  0.31875302  0.78372849  0.43911247  1
  Fe  Fe77  1  0.18651893  0.77835931  0.36966041  1
  Fe  Fe78  1  0.88692660  0.50019895  0.65313329  1
  Fe  Fe79  1  0.15079559  0.48840714  0.32274188  1
  Fe  Fe80  1  0.69269142  0.40597177  0.12969496  1
  Fe  Fe81  1  0.80807592  0.96909594  0.80291135  1
  Fe  Fe82  1  0.65009061  0.06194664  0.70119373  1
  Fe  Fe83  1  0.83730931  0.56204196  0.52837851  1
  Fe  Fe84  1  0.96730603  0.07198682  1.01424278  1
  Fe  Fe85  1  0.64190297  0.91163352  0.38102959  1
  Fe  Fe86  1  0.42024558  0.23910696  0.03758439  1
  Fe  Fe87  1  0.48887760  0.87890731  0.03971453  1
  Fe  Fe88  1  0.22515209  0.71518993  0.24370455  1
  Fe  Fe89  1  0.07519172  0.03816569  0.13245677  1
  Fe  Fe90  1  0.77906936  0.41689619  0.68201764  1
  Fe  Fe91  1  0.29732073  0.08860641  0.40151702  1
  Fe  Fe92  1  0.16970892  0.43629443  0.20378543  1
  Fe  Fe93  1  0.74542535  0.55018804  0.42535393  1
  Fe  Fe94  1  0.25621552  0.55925621  0.26085945  1
  Fe  Fe95  1  0.94202074  0.00341082  0.12492303  1
  Fe  Fe96  1  0.67324320  0.94024369  0.79929562  1
  Fe  Fe97  1  0.13975816  0.93281174  0.05724463  1
  Fe  Fe98  1  0.30244490  0.66472237  0.35821558  1
  Fe  Fe99  1  0.14862147  0.63712887  0.33467165  1
  Fe  Fe100  1  0.42805239  0.94539102  0.93354618  1
  Fe  Fe101  1  0.75155454  0.57310182  0.66001585  1
  Bi  Bi102  1  -0.00697520  0.19426539  0.13114534  1
  Bi  Bi103  1  0.25917707  0.85331144  0.15085660  1
  Bi  Bi104  1  0.63864807  0.61059126  0.53435353  1
  Bi  Bi105  1  0.92326560  0.32222100  0.70257029  1
  Bi  Bi106  1  0.86444083  0.10702801  0.87685425  1
  Bi  Bi107  1  0.65478621  0.01449887  0.53845542  1
  Bi  Bi108  1  0.80842488  0.38876456  0.00965737  1
  Bi  Bi109  1  0.40878868  0.51625105  0.32742947  1
  Bi  Bi110  1  0.58083424  0.85251262  -0.09536401  1
  Bi  Bi111  1  0.80608510  0.80235269  0.81956187  1
  Bi  Bi112  1  0.70297608  0.45401153  0.29387811  1
  Bi  Bi113  1  0.01476060  0.54656116  0.55706877  1
  Bi  Bi114  1  0.19437585  0.71663333  0.52573362  1
  Bi  Bi115  1  0.59994927  0.56135866  0.10421039  1
  Bi  Bi116  1  0.18189228  0.37505496  0.91222342  1
  Bi  Bi117  1  0.13993108  0.60718283  0.14452525  1
  Bi  Bi118  1  0.91730382  0.29015137  0.41941000  1
  Bi  Bi119  1  0.90101376  0.61924010  0.14723494  1
  Bi  Bi120  1  0.54569489  0.16117641  0.14234205  1
  Bi  Bi121  1  0.41581355  0.70917776  0.56347314  1
  Bi  Bi122  1  0.01901290  0.89387378  0.63983800  1
  Bi  Bi123  1  0.17667892  0.14577894  0.51554864  1
  Bi  Bi124  1  0.81576400  0.87763248  0.33394465  1
  Bi  Bi125  1  0.64877654  0.51586937  0.80739675  1
  Bi  Bi126  1  0.62558037  0.34697491  0.64515657  1
  Bi  Bi127  1  0.33443437  0.35766995  0.64279046  1
