# generated using pymatgen
data_Ba51Fe51Bi26
_symmetry_space_group_name_H-M   'P 1'
_cell_length_a   16.42206246
_cell_length_b   16.69926989
_cell_length_c   15.66383703
_cell_angle_alpha   91.30969137
_cell_angle_beta   90.52470593
_cell_angle_gamma   90.16351647
_symmetry_Int_Tables_number   1
_chemical_formula_structural   Ba51Fe51Bi26
_chemical_formula_sum   'Ba51 Fe51 Bi26'
_cell_volume   4294.27267922
_cell_formula_units_Z   1
loop_
 _symmetry_equiv_pos_site_id
 _symmetry_equiv_pos_as_xyz
  1  'x, y, z'
loop_
 _atom_site_type_symbol
 _atom_site_label
 _atom_site_symmetry_multiplicity
 _atom_site_fract_x
 _atom_site_fract_y
 _atom_site_fract_z
 _atom_site_occupancy
  Ba  Ba0  1  0.25438292  0.51181901  0.43213411  1
  Ba  Ba1  1  0.51063668  0.26597273  0.17700591  1
  Ba  Ba2  1  0.26067967  0.05016260  -0.02030569  1
  Ba  Ba3  1  0.31334035  -0.06008061  0.39001404  1
  Ba  Ba4  1  0.69424239  0.67040601  0.75967557  1
  Ba  Ba5  1  0.38551459  0.04783136  0.18922366  1
  Ba  Ba6  1  0.43249912  0.83717297  0.03154343  1
  Ba  Ba7  1  0.06072343  0.26124320  0.18107054  1
  Ba  Ba8  1  0.02484579  0.04657871  0.04016115  1
  Ba  Ba9  1  0.22175490  0.23502683  0.85881706  1
  Ba  Ba10  1  0.63234543  0.05193671  0.74851744  1
  Ba  Ba11  1  0.29973619  0.30561606  0.26612083  1
  Ba  Ba12  1  0.54753992  0.10738926  -0.00326419  1
  Ba  Ba13  1  -0.09212313  0.81799739  0.12749550  1
  Ba  Ba14  1  0.63663608  0.40154798  0.75616246  1
  Ba  Ba15  1  0.42554352  0.35755468  -0.11531666  1
  Ba  Ba16  1  0.09230894  0.87741162  0.28722560  1
  Ba  Ba17  1  0.03309111  0.66690517  0.47705071  1
  Ba  Ba18  1  0.01143281  0.10569453  0.38637502  1
  Ba  Ba19  1  0.30103549  0.59004990  -0.14604564  1
  Ba  Ba20  1  -0.03233684  0.47928869  -0.01775739  1
  Ba  Ba21  1  0.75453980  -0.12291839  0.60938144  1
  Ba  Ba22  1  0.80241839  0.25542145  0.06866921  1
  Ba  Ba23  1  0.14131140  0.83411914  -0.04535156  1
  Ba  Ba24  1  0.45912487  0.69638498  0.70773218  1
  Ba  Ba25  1  0.48022904  0.22796888  0.59945719  1
  Ba  Ba26  1  -0.02318663  -0.10432864  0.54747260  1
  Ba  Ba27  1  0.66287720  0.76552034  0.03187008  1
  Ba  Ba28  1  0.69796058  0.40820885  0.48134768  1
  Ba  Ba29  1  0.19869322  0.41520725  0.01692927  1
  Ba  Ba30  1  0.83514816  0.24743612  0.65560665  1
  Ba  Ba31  1  0.31732479  0.05872866  0.65678313  1
  Ba  Ba32  1  -0.11973827  0.51695645  0.71085828  1
  Ba  Ba33  1  0.25024110  0.18776512  0.44911165  1
  Ba  Ba34  1  0.88395107  0.29714558  0.36610002  1
  Ba  Ba35  1  -0.12849510  0.03224288  0.77064153  1
  Ba  Ba36  1  0.63061809  0.46786730  0.20357371  1
  Ba  Ba37  1  0.08346627  0.67677696  0.73529731  1
  Ba  Ba38  1  0.65171511  0.13739175  0.47027734  1
  Ba  Ba39  1  0.70791221  0.50852440  -0.01987610  1
  Ba  Ba40  1  0.27929615  0.71101395  0.17131433  1
  Ba  Ba41  1  0.03126069  0.31663005  0.75860029  1
  Ba  Ba42  1  -0.10506057  0.81969418  0.84744381  1
  Ba  Ba43  1  0.06311019  0.50856923  0.27904379  1
  Ba  Ba44  1  0.44277031  0.67189550  0.41896806  1
  Ba  Ba45  1  0.75347854  0.00403694  0.06606520  1
  Ba  Ba46  1  0.39160370  0.45377335  0.61793738  1
  Ba  Ba47  1  0.39238300  -0.08318153  0.81078918  1
  Ba  Ba48  1  0.67013659  0.79622182  0.32037359  1
  Ba  Ba49  1  0.22375700  0.83900570  0.59755711  1
  Ba  Ba50  1  0.84083743  0.61395774  0.25145034  1
  Fe  Fe51  1  0.35342297  0.53276106  0.04642901  1
  Fe  Fe52  1  0.48519585  0.01741379  0.49744772  1
  Fe  Fe53  1  0.14823641  0.37048779  0.58394321  1
  Fe  Fe54  1  0.48514800  0.51311093  0.00315415  1
  Fe  Fe55  1  0.15644351  0.06473208  0.80335057  1
  Fe  Fe56  1  0.69471024  0.68160988  0.53638811  1
  Fe  Fe57  1  0.73705211  0.21902798  0.86184205  1
  Fe  Fe58  1  0.60655404  0.22500118  0.82761452  1
  Fe  Fe59  1  0.82207284  0.97406432  0.27562434  1
  Fe  Fe60  1  0.21852953  0.92691685  0.13484125  1
  Fe  Fe61  1  0.67882872  -0.00815760  0.30556155  1
  Fe  Fe62  1  0.77559042  0.95740191  0.41945025  1
  Fe  Fe63  1  0.80636216  0.08106896  0.36623784  1
  Fe  Fe64  1  0.13271622  0.15469611  0.67532289  1
  Fe  Fe65  1  0.78188985  0.58452867  0.54052780  1
  Fe  Fe66  1  0.62134944  -0.05611767  0.44555080  1
  Fe  Fe67  1  0.20578045  0.41283171  0.72969819  1
  Fe  Fe68  1  0.05518815  0.46983795  0.65951244  1
  Fe  Fe69  1  1.07509668  0.24115771  0.56496654  1
  Fe  Fe70  1  0.55981095  0.86817575  0.72305777  1
  Fe  Fe71  1  0.73192500  0.11584358  0.24834448  1
  Fe  Fe72  1  0.54941916  0.61239947  0.07201544  1
  Fe  Fe73  1  0.57737205  0.91096497  0.88095457  1
  Fe  Fe74  1  0.17843414  0.51142544  0.63423126  1
  Fe  Fe75  1  0.55319994  0.78225426  0.85694573  1
  Fe  Fe76  1  0.81845723  0.68661179  0.45689606  1
  Fe  Fe77  1  0.49172192  0.86960800  0.30441185  1
  Fe  Fe78  1  0.07721440  1.01363595  0.69610029  1
  Fe  Fe79  1  0.51592296  0.64970018  0.92666162  1
  Fe  Fe80  1  0.52122634  0.49155495  0.40916119  1
  Fe  Fe81  1  0.44115449  0.45427716  0.27542453  1
  Fe  Fe82  1  0.41069594  0.42693545  0.11303219  1
  Fe  Fe83  1  0.06274770  0.88572170  0.75860129  1
  Fe  Fe84  1  0.07081303  0.47550874  0.51383202  1
  Fe  Fe85  1  0.99798757  0.36601588  0.55141615  1
  Fe  Fe86  1  1.00863358  0.12299122  0.62388919  1
  Fe  Fe87  1  0.59540005  0.10275820  0.25763708  1
  Fe  Fe88  1  0.42094664  0.39056535  0.41383444  1
  Fe  Fe89  1  0.53031867  0.99731119  0.34311453  1
  Fe  Fe90  1  0.48920533  0.88264392  0.45133528  1
  Fe  Fe91  1  0.18240194  0.93255787  0.78637441  1
  Fe  Fe92  1  0.02784418  0.13127715  0.79529032  1
  Fe  Fe93  1  0.44995819  0.90350820  0.60005854  1
  Fe  Fe94  1  0.88704022  0.20252405  0.86663127  1
  Fe  Fe95  1  0.57097485  -0.04648594  0.59093740  1
  Fe  Fe96  1  0.42302430  0.64855845  0.03652213  1
  Fe  Fe97  1  0.67471729  0.85719310  0.81234565  1
  Fe  Fe98  1  0.05390282  0.98818203  0.85071243  1
  Fe  Fe99  1  0.44791949  0.55588629  0.16416372  1
  Fe  Fe100  1  0.53537567  0.35888801  0.35938979  1
  Fe  Fe101  1  0.12465819  0.49451672  0.79043722  1
  Bi  Bi102  1  0.45288127  0.14227895  0.37756298  1
  Bi  Bi103  1  -0.09323805  0.49469100  0.46509835  1
  Bi  Bi104  1  0.87882964  0.71003879  0.63240968  1
  Bi  Bi105  1  0.28127937  0.50586037  0.20712934  1
  Bi  Bi106  1  0.57396902  -0.21150930  0.55595784  1
  Bi  Bi107  1  0.61721310  0.31452909  -0.02365722  1
  Bi  Bi108  1  0.02564007  0.24379821  -0.03680684  1
  Bi  Bi109  1  0.49747851  0.71457196  0.20156323  1
  Bi  Bi110  1  0.85419796  0.06929722  0.54212419  1
  Bi  Bi111  1  0.26677853  0.27314090  0.65114695  1
  Bi  Bi112  1  0.67912727  0.26978289  0.29904685  1
  Bi  Bi113  1  0.14056484  0.03090767  0.53470482  1
  Bi  Bi114  1  0.58594976  0.55453421  0.58939186  1
  Bi  Bi115  1  0.21912058  0.73288736  0.38459749  1
  Bi  Bi116  1  0.85048116  0.66069469  0.97217071  1
  Bi  Bi117  1  0.27596888  0.64071730  0.61878556  1
  Bi  Bi118  1  0.44712924  0.14986111  0.80989535  1
  Bi  Bi119  1  0.87941952  0.82426145  0.35756766  1
  Bi  Bi120  1  0.66632658  0.59468059  0.38521854  1
  Bi  Bi121  1  0.10491797  0.33449573  0.40290881  1
  Bi  Bi122  1  0.83072296  0.36269021  0.85221320  1
  Bi  Bi123  1  0.17570727  0.06772055  0.22015430  1
  Bi  Bi124  1  0.33461302  0.24878917  0.05397689  1
  Bi  Bi125  1  0.57296350  0.94518614  0.16484358  1
  Bi  Bi126  1  0.89366099  0.11111185  0.20360404  1
  Bi  Bi127  1  0.88419135  0.42353837  0.17584071  1
