# generated using pymatgen
data_Ba51Fe51Bi26
_symmetry_space_group_name_H-M   'P 1'
_cell_length_a   16.58192602
_cell_length_b   16.24719302
_cell_length_c   16.44088627
_cell_angle_alpha   91.82635495
_cell_angle_beta   88.92606448
_cell_angle_gamma   88.39754066
_symmetry_Int_Tables_number   1
_chemical_formula_structural   Ba51Fe51Bi26
_chemical_formula_sum   'Ba51 Fe51 Bi26'
_cell_volume   4424.49908704
_cell_formula_units_Z   1
loop_
 _symmetry_equiv_pos_site_id
 _symmetry_equiv_pos_as_xyz
  1  'x, y, z'
loop_
 _atom_site_type_symbol
 _atom_site_label
 _atom_site_symmetry_multiplicity
 _atom_site_fract_x
 _atom_site_fract_y
 _atom_site_fract_z
 _atom_site_occupancy
  Ba  Ba0  1  0.50174398  0.05715178  0.55148212  1
  Ba  Ba1  1  -0.04824698  0.28601458  0.19031306  1
  Ba  Ba2  1  0.82408943  0.74060331  -0.00091096  1
  Ba  Ba3  1  0.79483795  0.63769435  0.49572088  1
  Ba  Ba4  1  0.89937190  0.24283908  -0.06223338  1
  Ba  Ba5  1  0.04211033  0.05379424  -0.00807024  1
  Ba  Ba6  1  0.23143629  0.66913840  0.81552179  1
  Ba  Ba7  1  0.21024825  0.35395558  0.43550827  1
  Ba  Ba8  1  0.34134274  0.41287985  -0.16832841  1
  Ba  Ba9  1  -0.03116897  0.78009493  0.54593798  1
  Ba  Ba10  1  0.72577920  0.31415093  0.75623867  1
  Ba  Ba11  1  0.32841383  0.71233884  0.02172806  1
  Ba  Ba12  1  -0.01331489  0.48041646  0.00574723  1
  Ba  Ba13  1  0.69313412  0.74505430  0.24724783  1
  Ba  Ba14  1  -0.16307329  0.29634092  0.48521575  1
  Ba  Ba15  1  0.42808955  0.54719863  0.47748713  1
  Ba  Ba16  1  0.06071349  0.71891140  0.00885953  1
  Ba  Ba17  1  0.39722256  -0.01696577  0.36045454  1
  Ba  Ba18  1  0.74758841  -0.00424464  0.21763675  1
  Ba  Ba19  1  0.29267435  0.43048278  0.15873282  1
  Ba  Ba20  1  0.20132562  0.62896963  0.56527335  1
  Ba  Ba21  1  0.47148014  0.50816201  -0.01063068  1
  Ba  Ba22  1  0.78865173  -0.00206661  0.59919229  1
  Ba  Ba23  1  0.24904995  0.15835465  0.29497280  1
  Ba  Ba24  1  -0.01311174  0.36218071  0.74920871  1
  Ba  Ba25  1  0.47302986  0.82269821  0.18645122  1
  Ba  Ba26  1  0.49970306  0.13669763  0.00331078  1
  Ba  Ba27  1  -0.05093518  0.79292763  0.27516158  1
  Ba  Ba28  1  0.16548949  -0.09252056  0.46387434  1
  Ba  Ba29  1  0.77138390  0.00705635  -0.04193778  1
  Ba  Ba30  1  -0.01226086  0.61269187  0.75497650  1
  Ba  Ba31  1  0.19552596  -0.08887247  0.14490373  1
  Ba  Ba32  1  0.73874493  0.62042241  0.73761659  1
  Ba  Ba33  1  -0.02110047  0.93352933  0.79282914  1
  Ba  Ba34  1  0.60293757  0.69764024  -0.02732610  1
  Ba  Ba35  1  0.36774796  0.81780613  0.64346902  1
  Ba  Ba36  1  0.30290723  0.68824306  0.30170062  1
  Ba  Ba37  1  0.27304692  0.09333914  -0.05953535  1
  Ba  Ba38  1  0.62468828  0.44306828  0.56691694  1
  Ba  Ba39  1  0.32328027  0.22496920  0.67691249  1
  Ba  Ba40  1  0.51109228  0.44657649  0.23934610  1
  Ba  Ba41  1  0.19627024  -0.00361475  0.71341354  1
  Ba  Ba42  1  0.07815630  0.19510645  0.59061441  1
  Ba  Ba43  1  0.78786419  0.47492039  0.31107923  1
  Ba  Ba44  1  0.08446217  0.55583235  0.22442160  1
  Ba  Ba45  1  -0.00778772  0.04830496  0.23771709  1
  Ba  Ba46  1  0.59699093  0.77883917  0.53326310  1
  Ba  Ba47  1  0.73915335  0.47932659  0.07077136  1
  Ba  Ba48  1  0.60387813  0.07864888  0.77331690  1
  Ba  Ba49  1  0.16558467  0.32448850  -0.07628814  1
  Ba  Ba50  1  0.63733969  0.22536635  0.18791369  1
  Fe  Fe51  1  0.44074469  0.48178267  0.66708681  1
  Fe  Fe52  1  -0.09567045  0.10746738  0.44719747  1
  Fe  Fe53  1  0.38026831  0.61594460  0.68588543  1
  Fe  Fe54  1  0.47756048  0.33129519  0.06261264  1
  Fe  Fe55  1  0.57390667  0.97944148  0.28446893  1
  Fe  Fe56  1  0.24878861  0.23836179  0.09051625  1
  Fe  Fe57  1  0.44233203  -0.02455857  0.89801409  1
  Fe  Fe58  1  1.14823372  0.29493870  0.17179756  1
  Fe  Fe59  1  0.48990489  0.10368871  0.24078006  1
  Fe  Fe60  1  -0.05901393  0.95118446  0.43429540  1
  Fe  Fe61  1  0.01016909  0.40276662  0.52992668  1
  Fe  Fe62  1  0.38665896  0.22987505  0.47348782  1
  Fe  Fe63  1  0.42243290  0.57788973  0.80398767  1
  Fe  Fe64  1  0.34759903  -0.13845373  0.84879566  1
  Fe  Fe65  1  0.51377012  0.62263617  0.67921938  1
  Fe  Fe66  1  0.67851364  0.97996733  0.41087480  1
  Fe  Fe67  1  0.94298192  0.88975707  0.99021251  1
  Fe  Fe68  1  0.82779893  1.00719851  0.38544833  1
  Fe  Fe69  1  0.57217233  0.90450122  0.90640269  1
  Fe  Fe70  1  0.02848657  0.05008696  0.43225575  1
  Fe  Fe71  1  0.36442766  0.29499821  0.02185003  1
  Fe  Fe72  1  0.99035097  0.55616268  0.56938627  1
  Fe  Fe73  1  0.46923320  0.22300406  0.34920196  1
  Fe  Fe74  1  0.55943353  0.61923881  0.14974698  1
  Fe  Fe75  1  0.54009008  0.49039067  0.76064917  1
  Fe  Fe76  1  0.07894906  0.51471831  0.46254399  1
  Fe  Fe77  1  0.43726534  0.72557610  0.79835328  1
  Fe  Fe78  1  0.00643194  0.88865410  0.10748341  1
  Fe  Fe79  1  0.45901719  0.81420311  0.92399389  1
  Fe  Fe80  1  0.54836294  0.62268516  0.81000848  1
  Fe  Fe81  1  0.43078312  0.61800210  0.16277991  1
  Fe  Fe82  1  0.52435752  0.25563504  0.49887743  1
  Fe  Fe83  1  0.54598915  0.00958620  0.14764353  1
  Fe  Fe84  1  0.82160657  0.55949853  0.90166222  1
  Fe  Fe85  1  0.58717635  0.89018858  0.38027844  1
  Fe  Fe86  1  0.49101520  -0.06780156  1.02723701  1
  Fe  Fe87  1  0.10450535  0.46274124  0.60714307  1
  Fe  Fe88  1  0.91763933  0.48801698  0.47394506  1
  Fe  Fe89  1  0.47420585  0.88260962  0.79402339  1
  Fe  Fe90  1  0.83071320  0.43470205  0.87621603  1
  Fe  Fe91  1  0.12210996  0.50751301  0.85400647  1
  Fe  Fe92  1  1.09292417  0.23660421  0.06741411  1
  Fe  Fe93  1  0.97798878  0.59490564  0.41897279  1
  Fe  Fe94  1  0.15964235  0.46606570  0.73706200  1
  Fe  Fe95  1  0.15524867  0.14214859  0.12935628  1
  Fe  Fe96  1  0.42748463  0.35587946  0.56427228  1
  Fe  Fe97  1  0.87708636  0.89927196  0.10641455  1
  Fe  Fe98  1  0.49918262  0.64474084  0.27618177  1
  Fe  Fe99  1  0.35542822  0.90934717  0.99047056  1
  Fe  Fe100  1  0.44558048  0.35118331  0.42043629  1
  Fe  Fe101  1  0.74735350  1.10867236  0.44506724  1
  Bi  Bi102  1  0.78788499  -0.15447619  0.42364911  1
  Bi  Bi103  1  0.59573062  0.77804214  0.75789643  1
  Bi  Bi104  1  0.61225510  0.33666006  0.37927385  1
  Bi  Bi105  1  0.51124557  0.32279462  0.70898188  1
  Bi  Bi106  1  0.41172410  0.24911361  0.18795263  1
  Bi  Bi107  1  0.00274740  -0.00451604  0.58596454  1
  Bi  Bi108  1  0.59567974  0.11850864  0.37156829  1
  Bi  Bi109  1  0.39862878  0.02780735  0.74725697  1
  Bi  Bi110  1  0.28364485  0.44000275  0.62158914  1
  Bi  Bi111  1  0.00076201  0.41536617  0.35092048  1
  Bi  Bi112  1  0.66139183  0.49039123  0.87993890  1
  Bi  Bi113  1  0.03753872  0.20756611  0.38445997  1
  Bi  Bi114  1  0.37549237  0.01700623  0.13565784  1
  Bi  Bi115  1  0.12915483  0.79730833  0.67959991  1
  Bi  Bi116  1  0.19580080  0.88096723  0.92899289  1
  Bi  Bi117  1  0.81944677  0.17352335  0.30822866  1
  Bi  Bi118  1  0.66567428  0.19190685  0.58061044  1
  Bi  Bi119  1  0.82934878  0.11175230  0.78762322  1
  Bi  Bi120  1  0.88431805  0.61440976  0.16184961  1
  Bi  Bi121  1  0.20237405  0.53521647  -0.00192062  1
  Bi  Bi122  1  0.10697215  0.69737381  0.38847566  1
  Bi  Bi123  1  0.27509386  0.10518921  0.50482793  1
  Bi  Bi124  1  0.64598182  0.88458814  0.06664318  1
  Bi  Bi125  1  1.07828484  0.16179225  0.81002411  1
  Bi  Bi126  1  0.85142273  0.46811469  0.62660834  1
  Bi  Bi127  1  0.61459820  0.60173509  0.39018440  1
