# generated using pymatgen
data_Ba51Fe51Bi26
_symmetry_space_group_name_H-M   'P 1'
_cell_length_a   16.08478042
_cell_length_b   16.25190554
_cell_length_c   16.69727226
_cell_angle_alpha   88.17314246
_cell_angle_beta   89.84055725
_cell_angle_gamma   88.37837787
_symmetry_Int_Tables_number   1
_chemical_formula_structural   Ba51Fe51Bi26
_chemical_formula_sum   'Ba51 Fe51 Bi26'
_cell_volume   4360.83266210
_cell_formula_units_Z   1
loop_
 _symmetry_equiv_pos_site_id
 _symmetry_equiv_pos_as_xyz
  1  'x, y, z'
loop_
 _atom_site_type_symbol
 _atom_site_label
 _atom_site_symmetry_multiplicity
 _atom_site_fract_x
 _atom_site_fract_y
 _atom_site_fract_z
 _atom_site_occupancy
  Ba  Ba0  1  0.35074672  0.49786247  0.28419317  1
  Ba  Ba1  1  0.78242197  0.22222815  0.55240926  1
  Ba  Ba2  1  0.53663694  0.79662667  0.72863095  1
  Ba  Ba3  1  0.35428662  0.14738139  0.20470549  1
  Ba  Ba4  1  0.19744239  0.74923743  0.32509481  1
  Ba  Ba5  1  0.82666454  0.46287460  0.66763078  1
  Ba  Ba6  1  -0.03347624  0.14289888  0.19408969  1
  Ba  Ba7  1  0.53250847  0.72958744  0.19867032  1
  Ba  Ba8  1  0.16549755  0.32484642  0.80167148  1
  Ba  Ba9  1  0.73143386  -0.03588642  0.76292899  1
  Ba  Ba10  1  0.09574875  -0.05670784  0.03004211  1
  Ba  Ba11  1  0.15743216  0.31073470  0.19521484  1
  Ba  Ba12  1  0.29630539  0.21489953  0.44243703  1
  Ba  Ba13  1  0.41110558  -0.06175673  0.33803764  1
  Ba  Ba14  1  -0.01019555  0.13089153  0.70516057  1
  Ba  Ba15  1  0.79620585  0.73533412  0.70673583  1
  Ba  Ba16  1  0.78985382  -0.05080290  0.03242168  1
  Ba  Ba17  1  0.62196659  0.08839469  0.33732523  1
  Ba  Ba18  1  0.47314201  -0.00822450  0.57607225  1
  Ba  Ba19  1  0.57951449  0.38025121  0.64073990  1
  Ba  Ba20  1  0.13575581  0.56626389  0.50292216  1
  Ba  Ba21  1  0.55867472  0.39959155  0.16435384  1
  Ba  Ba22  1  0.11355301  0.81106684  0.55077174  1
  Ba  Ba23  1  0.27960072  0.14154085  0.69334139  1
  Ba  Ba24  1  0.03489846  0.16344301  -0.06853483  1
  Ba  Ba25  1  0.60813139  0.75158499  0.44996197  1
  Ba  Ba26  1  0.46212276  0.75290045  -0.03652602  1
  Ba  Ba27  1  0.73123177  0.28170325  0.31222560  1
  Ba  Ba28  1  0.28112507  0.50452506  0.68829725  1
  Ba  Ba29  1  0.25275670  0.54598001  -0.00768448  1
  Ba  Ba30  1  0.03800259  0.68686583  0.00310828  1
  Ba  Ba31  1  -0.17152760  0.57775002  0.45866664  1
  Ba  Ba32  1  0.33854240  -0.01098435  -0.02345334  1
  Ba  Ba33  1  0.45145735  0.55712155  0.52579863  1
  Ba  Ba34  1  0.74919317  0.44028354  -0.05473754  1
  Ba  Ba35  1  0.46467898  0.39395172  -0.06716060  1
  Ba  Ba36  1  -0.02180054  0.68606130  0.23852449  1
  Ba  Ba37  1  0.57570222  -0.00493331  0.12098407  1
  Ba  Ba38  1  0.01421323  0.54500112  0.80807424  1
  Ba  Ba39  1  -0.03390268  0.37403439  0.02372400  1
  Ba  Ba40  1  0.05367070  0.03129351  0.49596016  1
  Ba  Ba41  1  0.51589998  0.12001307  0.81025299  1
  Ba  Ba42  1  -0.11121493  0.81236140  0.45927371  1
  Ba  Ba43  1  -0.00530822  0.83396390  0.81627609  1
  Ba  Ba44  1  0.77606522  0.69180968  0.09673030  1
  Ba  Ba45  1  0.75566708  0.21389073  0.83547087  1
  Ba  Ba46  1  -0.04926397  0.44176486  0.29216729  1
  Ba  Ba47  1  0.59379151  0.57291506  0.80654148  1
  Ba  Ba48  1  0.73143885  -0.01111110  0.52420083  1
  Ba  Ba49  1  0.02549496  0.25570741  0.43284709  1
  Ba  Ba50  1  0.01327533  -0.06466713  0.27843792  1
  Fe  Fe51  1  0.15049289  0.54326064  0.27517742  1
  Fe  Fe52  1  0.17777500  0.82736019  0.73571935  1
  Fe  Fe53  1  0.22707707  -0.04951743  0.68226100  1
  Fe  Fe54  1  0.31752986  0.21545518  0.03067279  1
  Fe  Fe55  1  0.29566246  0.84924276  0.46769058  1
  Fe  Fe56  1  0.16879001  0.26739495  0.01174989  1
  Fe  Fe57  1  0.18175882  0.77153052  0.13189852  1
  Fe  Fe58  1  0.34912739  0.22029707  0.89268914  1
  Fe  Fe59  1  0.82972275  0.87667509  0.21651874  1
  Fe  Fe60  1  0.69819668  0.89878295  0.25272421  1
  Fe  Fe61  1  0.49387266  0.17985053  0.47045178  1
  Fe  Fe62  1  0.70184083  0.66273591  0.92758182  1
  Fe  Fe63  1  0.18668981  0.63212250  0.17560276  1
  Fe  Fe64  1  0.74168870  0.15371416  0.15705891  1
  Fe  Fe65  1  0.70291052  0.47470240  0.33680769  1
  Fe  Fe66  1  0.58828061  0.15824595  0.56279581  1
  Fe  Fe67  1  0.82286232  0.62917227  0.87411076  1
  Fe  Fe68  1  0.29983802  0.71239954  0.53046539  1
  Fe  Fe69  1  0.64429454  0.51012673  0.46879571  1
  Fe  Fe70  1  0.31770155  0.78587363  0.76373098  1
  Fe  Fe71  1  0.60147295  0.20309516  0.13353631  1
  Fe  Fe72  1  0.30817193  0.67807208  0.12438523  1
  Fe  Fe73  1  0.31835096  0.41349504  0.48706426  1
  Fe  Fe74  1  0.22873702  0.16467948  0.91473842  1
  Fe  Fe75  1  0.31436754  0.80930199  0.12367350  1
  Fe  Fe76  1  0.57350779  0.40521992  0.40305352  1
  Fe  Fe77  1  0.20394006  0.14065270  0.04856912  1
  Fe  Fe78  1  0.35918937  0.34273885  0.58940402  1
  Fe  Fe79  1  0.27389953  0.32677108  0.95817009  1
  Fe  Fe80  1  0.20570103  0.69549946  0.81662149  1
  Fe  Fe81  1  0.67102707  0.14947502  1.02487860  1
  Fe  Fe82  1  0.45398057  0.33906599  0.47717204  1
  Fe  Fe83  1  0.82874665  0.27827268  0.15063509  1
  Fe  Fe84  1  0.41478745  0.78733490  0.53775205  1
  Fe  Fe85  1  0.21786396  0.94802739  0.37895407  1
  Fe  Fe86  1  0.46436062  0.23349304  0.59058468  1
  Fe  Fe87  1  0.38493595  0.70417537  0.65321544  1
  Fe  Fe88  1  0.71259631  0.29160315  0.08267195  1
  Fe  Fe89  1  0.82542840  0.75423962  0.91376146  1
  Fe  Fe90  1  0.59718435  0.27845064  0.47860160  1
  Fe  Fe91  1  0.24096361  0.69926652  0.66731467  1
  Fe  Fe92  1  0.61126327  0.26674269  0.99124961  1
  Fe  Fe93  1  0.69495197  0.78944601  0.88145175  1
  Fe  Fe94  1  0.78921777  0.94165887  0.33999238  1
  Fe  Fe95  1  0.70532318  0.39055494  0.46913378  1
  Fe  Fe96  1  0.78113301  0.57159959  0.26627010  1
  Fe  Fe97  1  1.09150827  -0.04794600  0.68574717  1
  Fe  Fe98  1  0.10873255  0.69121638  0.72216413  1
  Fe  Fe99  1  0.78790660  1.02569170  0.22934493  1
  Fe  Fe100  1  0.30609311  0.84060616  0.62405630  1
  Fe  Fe101  1  0.66654098  0.55512271  0.20380209  1
  Bi  Bi102  1  0.65932486  0.60178345  0.60683249  1
  Bi  Bi103  1  0.07597697  0.51402574  0.12997075  1
  Bi  Bi104  1  0.15774210  0.00969536  0.82645713  1
  Bi  Bi105  1  0.48190034  0.16428872  0.01425157  1
  Bi  Bi106  1  0.76387005  0.73923022  0.30327400  1
  Bi  Bi107  1  0.23668219  0.77509489  -0.02696473  1
  Bi  Bi108  1  0.49241946  0.27440758  0.32787018  1
  Bi  Bi109  1  0.26775048  0.00411681  0.52546710  1
  Bi  Bi110  1  0.84194397  0.18229660  0.02147460  1
  Bi  Bi111  1  0.78957912  0.44462316  0.15301872  1
  Bi  Bi112  1  0.39773229  0.72374911  0.38413747  1
  Bi  Bi113  1  0.23334691  -0.06776365  0.20475643  1
  Bi  Bi114  1  0.37645816  0.94425486  0.76538909  1
  Bi  Bi115  1  0.15160443  0.11061102  0.31863751  1
  Bi  Bi116  1  0.55434607  0.56201460  0.33143155  1
  Bi  Bi117  1  0.59285224  0.58025328  0.03739156  1
  Bi  Bi118  1  0.17541995  0.40489671  0.38085547  1
  Bi  Bi119  1  0.97307110  0.64620877  0.62141655  1
  Bi  Bi120  1  0.34039889  0.36688490  0.10600086  1
  Bi  Bi121  1  0.58899377  0.92452286  0.91817844  1
  Bi  Bi122  1  0.38119938  0.62944018  0.81318364  1
  Bi  Bi123  1  0.91956518  0.93206261  0.63356901  1
  Bi  Bi124  1  0.89772898  0.02435912  0.86994547  1
  Bi  Bi125  1  0.93537664  0.33813833  0.81343301  1
  Bi  Bi126  1  0.39804147  0.30921594  0.74993790  1
  Bi  Bi127  1  0.86151071  0.09217616  0.38258285  1
