# generated using pymatgen
data_Ba51Fe51Bi26
_symmetry_space_group_name_H-M   'P 1'
_cell_length_a   16.15824697
_cell_length_b   16.74785995
_cell_length_c   16.14885144
_cell_angle_alpha   92.01617419
_cell_angle_beta   90.53037112
_cell_angle_gamma   89.69592674
_symmetry_Int_Tables_number   1
_chemical_formula_structural   Ba51Fe51Bi26
_chemical_formula_sum   'Ba51 Fe51 Bi26'
_cell_volume   4367.19173605
_cell_formula_units_Z   1
loop_
 _symmetry_equiv_pos_site_id
 _symmetry_equiv_pos_as_xyz
  1  'x, y, z'
loop_
 _atom_site_type_symbol
 _atom_site_label
 _atom_site_symmetry_multiplicity
 _atom_site_fract_x
 _atom_site_fract_y
 _atom_site_fract_z
 _atom_site_occupancy
  Ba  Ba0  1  0.64267863  0.70602955  0.42741533  1
  Ba  Ba1  1  0.59610281  0.20270514  0.64896221  1
  Ba  Ba2  1  0.48245077  0.73688527  0.72943646  1
  Ba  Ba3  1  0.72533314  0.22368845  0.42648660  1
  Ba  Ba4  1  0.80893802  0.52513478  -0.05486685  1
  Ba  Ba5  1  0.24733290  0.77813916  0.55056418  1
  Ba  Ba6  1  0.74550232  -0.02605122  0.47111081  1
  Ba  Ba7  1  0.01844201  0.21533840  0.76174943  1
  Ba  Ba8  1  -0.11240915  0.29603552  0.25307706  1
  Ba  Ba9  1  0.78643550  0.71212048  0.64262908  1
  Ba  Ba10  1  0.81949939  0.76227622  0.25453507  1
  Ba  Ba11  1  0.52779025  0.25885420  0.28407735  1
  Ba  Ba12  1  0.34468394  0.03480044  0.57285478  1
  Ba  Ba13  1  -0.01479836  0.70209343  0.47386791  1
  Ba  Ba14  1  0.20179412  0.08124465  0.34494472  1
  Ba  Ba15  1  0.83137066  0.76614892  -0.09410017  1
  Ba  Ba16  1  0.05652589  0.82995197  0.68360857  1
  Ba  Ba17  1  0.27421738  0.30987513  0.26444673  1
  Ba  Ba18  1  0.29483173  0.40554153  0.76735643  1
  Ba  Ba19  1  0.52963697  0.76912239  0.15643530  1
  Ba  Ba20  1  0.40868404  0.58920600  0.50980719  1
  Ba  Ba21  1  -0.00825446  0.61356861  0.07418622  1
  Ba  Ba22  1  0.47522196  0.88298023  0.45073633  1
  Ba  Ba23  1  0.71595162  -0.04749148  0.78322143  1
  Ba  Ba24  1  0.24480379  0.68743784  0.17621259  1
  Ba  Ba25  1  0.04325172  0.46887133  0.82476241  1
  Ba  Ba26  1  0.20600728  0.26635462  0.54164147  1
  Ba  Ba27  1  -0.07108272  0.48547427  0.58442997  1
  Ba  Ba28  1  0.24110268  0.08029812  0.80111643  1
  Ba  Ba29  1  0.49364267  0.24393289  0.89060694  1
  Ba  Ba30  1  -0.13137577  0.02817020  -0.01745869  1
  Ba  Ba31  1  0.62501560  0.47785988  0.12709477  1
  Ba  Ba32  1  0.80718166  0.28109775  0.04913663  1
  Ba  Ba33  1  0.05499057  0.46348260  0.31134017  1
  Ba  Ba34  1  0.69761948  0.44984324  0.72933466  1
  Ba  Ba35  1  0.36058436  0.76447884  -0.04785510  1
  Ba  Ba36  1  0.08735101  0.77956941  -0.06262902  1
  Ba  Ba37  1  0.68527713  -0.08500656  0.07045379  1
  Ba  Ba38  1  -0.04008904  0.19561421  0.50931708  1
  Ba  Ba39  1  0.67520023  0.46628797  0.49011972  1
  Ba  Ba40  1  0.50160812  0.50846080  0.85463236  1
  Ba  Ba41  1  0.39336184  0.50843010  0.23732457  1
  Ba  Ba42  1  0.02808315  -0.06024994  0.46425123  1
  Ba  Ba43  1  0.22662248  0.27621084  0.00087960  1
  Ba  Ba44  1  0.13469209  -0.01637221  0.06571139  1
  Ba  Ba45  1  0.21347745  0.64267972  0.77326400  1
  Ba  Ba46  1  0.78131969  0.22543840  -0.18185794  1
  Ba  Ba47  1  0.44311935  0.05024798  0.00985087  1
  Ba  Ba48  1  -0.05107645  0.05952382  0.22399619  1
  Ba  Ba49  1  0.43596169  0.02680783  0.26281892  1
  Ba  Ba50  1  0.43594308  0.35607842  0.53406350  1
  Fe  Fe51  1  0.11528485  0.20472713  0.16850823  1
  Fe  Fe52  1  0.14313147  0.49317773  0.65383925  1
  Fe  Fe53  1  0.70240878  0.18574458  0.22450067  1
  Fe  Fe54  1  0.36603469  0.44453737  1.00752682  1
  Fe  Fe55  1  0.99717845  0.33703159  0.97780311  1
  Fe  Fe56  1  0.44572650  0.07136005  0.73601063  1
  Fe  Fe57  1  1.00249374  0.84641648  0.27475168  1
  Fe  Fe58  1  0.06711497  0.32614783  0.11982962  1
  Fe  Fe59  1  0.08837587  0.44132633  1.01265620  1
  Fe  Fe60  1  0.59599327  0.59321432  0.64619808  1
  Fe  Fe61  1  0.50515103  0.92269058  0.72212936  1
  Fe  Fe62  1  0.73994857  1.03956421  0.23344284  1
  Fe  Fe63  1  0.22011309  0.58055426  0.56961290  1
  Fe  Fe64  1  0.63175808  0.08297700  0.30146041  1
  Fe  Fe65  1  0.26187579  0.45314774  0.58148407  1
  Fe  Fe66  1  0.10503570  0.55441442  0.49670407  1
  Fe  Fe67  1  0.95905536  0.04395956  0.63234562  1
  Fe  Fe68  1  0.04743805  1.01264239  0.73686399  1
  Fe  Fe69  1  0.60902226  0.20428679  0.10198357  1
  Fe  Fe70  1  0.22503353  0.45517910  0.95054280  1
  Fe  Fe71  1  0.74711914  0.56204006  0.31354547  1
  Fe  Fe72  1  0.89143586  0.58472447  0.31681629  1
  Fe  Fe73  1  0.10189761  0.94831952  0.85341879  1
  Fe  Fe74  1  0.59633241  0.66574155  0.96338795  1
  Fe  Fe75  1  0.54304816  0.03184422  0.81843327  1
  Fe  Fe76  1  0.31444736  0.55720328  0.91632758  1
  Fe  Fe77  1  0.40568090  0.95670089  0.81000650  1
  Fe  Fe78  1  0.23802275  0.89920107  0.37558941  1
  Fe  Fe79  1  0.03489291  0.05921788  0.88172545  1
  Fe  Fe80  1  0.81742268  0.59459654  0.43270988  1
  Fe  Fe81  1  0.96488498  0.41518289  0.08236451  1
  Fe  Fe82  1  0.11902849  0.43306708  0.53346209  1
  Fe  Fe83  1  1.09195793  0.81441497  0.17913188  1
  Fe  Fe84  1  0.22668498  0.86799608  0.23323698  1
  Fe  Fe85  1  0.74990309  0.43220505  0.30813148  1
  Fe  Fe86  1  0.28054085  0.77238652  0.35822994  1
  Fe  Fe87  1  0.11104035  0.92793067  0.28258639  1
  Fe  Fe88  1  1.08171134  0.60954921  0.62648716  1
  Fe  Fe89  1  0.29819586  0.55538036  0.05014952  1
  Fe  Fe90  1  0.35730525  0.84908686  0.28770242  1
  Fe  Fe91  1  0.96411036  0.93062877  0.83447165  1
  Fe  Fe92  1  0.91296491  0.05735038  0.78303413  1
  Fe  Fe93  1  0.17191457  0.57231903  -0.01578748  1
  Fe  Fe94  1  0.23164452  0.47263421  0.45192438  1
  Fe  Fe95  1  0.85727073  0.46773581  0.38220357  1
  Fe  Fe96  1  0.73602238  0.11215423  0.11415475  1
  Fe  Fe97  1  0.90003674  0.94695032  0.69581759  1
  Fe  Fe98  1  0.55085131  0.01654014  0.64716143  1
  Fe  Fe99  1  0.51576690  0.49785295  0.65121394  1
  Fe  Fe100  1  0.60435948  0.08261563  0.15579836  1
  Fe  Fe101  1  0.13484606  0.79706723  0.33711966  1
  Bi  Bi102  1  0.84406532  0.48796551  0.17684478  1
  Bi  Bi103  1  0.01898959  0.17540259  0.02284975  1
  Bi  Bi104  1  0.53472918  -0.12070687  0.89720854  1
  Bi  Bi105  1  0.45897283  0.59972775  0.04706772  1
  Bi  Bi106  1  0.43629192  0.70236523  0.33302922  1
  Bi  Bi107  1  -0.19907178  0.09461166  0.64401949  1
  Bi  Bi108  1  0.25094838  -0.13556224  0.79169513  1
  Bi  Bi109  1  0.19360745  0.46799583  0.13947752  1
  Bi  Bi110  1  0.55447748  0.08988175  0.46149260  1
  Bi  Bi111  1  0.02773552  0.67910282  0.26763705  1
  Bi  Bi112  1  0.65488112  0.10600248  -0.04095334  1
  Bi  Bi113  1  0.94488217  -0.13768222  0.10053482  1
  Bi  Bi114  1  0.21179396  0.62476338  0.38842769  1
  Bi  Bi115  1  0.97054949  0.65324114  0.75675271  1
  Bi  Bi116  1  0.80855369  0.31228401  0.61296230  1
  Bi  Bi117  1  0.65880929  0.37687111  0.92638076  1
  Bi  Bi118  1  0.07594861  0.24652195  0.33120179  1
  Bi  Bi119  1  0.12604017  0.07801463  0.59979864  1
  Bi  Bi120  1  0.37616460  0.21938778  0.69475705  1
  Bi  Bi121  1  0.37551956  0.18645436  0.41905906  1
  Bi  Bi122  1  0.72248821  0.68515006  0.07390150  1
  Bi  Bi123  1  0.45169717  0.32510462  0.09431290  1
  Bi  Bi124  1  0.62273121  0.85674943  0.60768663  1
  Bi  Bi125  1  0.66645639  0.64689238  0.80763990  1
  Bi  Bi126  1  0.64039607  0.90881107  0.28879698  1
  Bi  Bi127  1  0.27227230  0.12769243  0.14356938  1
