# generated using pymatgen
data_Ba51Fe51Bi26
_symmetry_space_group_name_H-M   'P 1'
_cell_length_a   16.41374460
_cell_length_b   16.23169181
_cell_length_c   16.21863044
_cell_angle_alpha   89.81565051
_cell_angle_beta   90.39136198
_cell_angle_gamma   86.92126608
_symmetry_Int_Tables_number   1
_chemical_formula_structural   Ba51Fe51Bi26
_chemical_formula_sum   'Ba51 Fe51 Bi26'
_cell_volume   4314.64855761
_cell_formula_units_Z   1
loop_
 _symmetry_equiv_pos_site_id
 _symmetry_equiv_pos_as_xyz
  1  'x, y, z'
loop_
 _atom_site_type_symbol
 _atom_site_label
 _atom_site_symmetry_multiplicity
 _atom_site_fract_x
 _atom_site_fract_y
 _atom_site_fract_z
 _atom_site_occupancy
  Ba  Ba0  1  0.81572485  0.15990191  0.71723846  1
  Ba  Ba1  1  0.49663360  0.76685507  -0.03373655  1
  Ba  Ba2  1  -0.00309640  0.02607887  0.58425823  1
  Ba  Ba3  1  0.54103668  0.39530254  -0.04819523  1
  Ba  Ba4  1  0.25911504  -0.06370723  0.62932309  1
  Ba  Ba5  1  0.47297350  0.08755486  0.26520810  1
  Ba  Ba6  1  0.13172650  0.49986845  -0.02727423  1
  Ba  Ba7  1  0.36336819  0.73079580  0.16859796  1
  Ba  Ba8  1  -0.04520011  -0.05012918  0.13082904  1
  Ba  Ba9  1  0.11449596  0.00945443  0.87053169  1
  Ba  Ba10  1  0.04123437  0.60795006  0.54331152  1
  Ba  Ba11  1  0.58282256  0.01989282  0.59297488  1
  Ba  Ba12  1  0.27003663  0.29485768  -0.04178937  1
  Ba  Ba13  1  0.22881970  0.41798533  0.42722627  1
  Ba  Ba14  1  0.04618378  0.72570331  0.06515006  1
  Ba  Ba15  1  0.52835035  0.24939556  0.68789182  1
  Ba  Ba16  1  0.30333611  0.43937284  0.18226749  1
  Ba  Ba17  1  0.81454097  0.54155205  0.30640932  1
  Ba  Ba18  1  0.04036281  0.16866706  0.08581312  1
  Ba  Ba19  1  0.49523174  0.42587819  0.47172127  1
  Ba  Ba20  1  0.76511073  0.67026770  0.74735849  1
  Ba  Ba21  1  0.55096781  0.02008161  -0.12513215  1
  Ba  Ba22  1  0.50770856  0.73207834  0.38126958  1
  Ba  Ba23  1  0.34062170  0.72782925  0.75463118  1
  Ba  Ba24  1  0.56588920  0.52121923  0.24309928  1
  Ba  Ba25  1  0.29853755  0.67821782  0.51794356  1
  Ba  Ba26  1  0.26455686  0.17826049  0.18240278  1
  Ba  Ba27  1  0.55492753  0.79909182  0.73944672  1
  Ba  Ba28  1  0.43471432  0.50692125  0.69041967  1
  Ba  Ba29  1  0.61540521  0.25672782  0.22517750  1
  Ba  Ba30  1  0.81931592  0.43597273  0.56023052  1
  Ba  Ba31  1  0.67587367  0.60736494  0.02438579  1
  Ba  Ba32  1  0.02948793  0.06952677  0.33627961  1
  Ba  Ba33  1  0.80547738  0.25112163  0.02114545  1
  Ba  Ba34  1  0.25139693  -0.07014986  0.35654431  1
  Ba  Ba35  1  -0.03213381  0.74239651  0.33392890  1
  Ba  Ba36  1  0.27114326  0.16554252  0.75143687  1
  Ba  Ba37  1  -0.09056796  0.81340224  0.61195178  1
  Ba  Ba38  1  0.73624362  0.80583456  0.29601866  1
  Ba  Ba39  1  0.23055775  0.80730698  -0.04352766  1
  Ba  Ba40  1  -0.09800177  0.49731364  0.04116603  1
  Ba  Ba41  1  0.18136507  0.67581423  0.28651603  1
  Ba  Ba42  1  0.68366046  0.81676202  0.53777097  1
  Ba  Ba43  1  0.33645251  -0.00475084  0.04272472  1
  Ba  Ba44  1  -0.12473392  0.28946277  0.28712156  1
  Ba  Ba45  1  -0.06039670  0.82593341  0.85907213  1
  Ba  Ba46  1  0.19344055  0.43376599  0.72692900  1
  Ba  Ba47  1  0.77852353  0.02011924  -0.05035974  1
  Ba  Ba48  1  0.08098413  0.28145051  0.55517687  1
  Ba  Ba49  1  0.73645273  0.41086081  0.80479528  1
  Ba  Ba50  1  -0.02127907  0.53294048  0.79353318  1
  Fe  Fe51  1  0.47185057  0.12347347  0.04652639  1
  Fe  Fe52  1  0.58250709  0.18825397  0.01983464  1
  Fe  Fe53  1  0.10287232  0.87017437  0.23384595  1
  Fe  Fe54  1  0.82654791  0.84434878  1.04596285  1
  Fe  Fe55  1  0.15183216  -0.01759036  0.16071982  1
  Fe  Fe56  1  0.32601477  0.49071638  -0.02002920  1
  Fe  Fe57  1  0.77183952  0.07611614  0.15331495  1
  Fe  Fe58  1  0.30865548  0.62764799  -0.03032390  1
  Fe  Fe59  1  0.92827935  0.36469039  0.89837974  1
  Fe  Fe60  1  0.34738087  0.45782004  0.85544618  1
  Fe  Fe61  1  0.75676435  0.12515754  0.28637958  1
  Fe  Fe62  1  0.09797203  0.22506286  0.89891511  1
  Fe  Fe63  1  0.60946477  0.59491876  0.64751491  1
  Fe  Fe64  1  0.41341244  0.57466373  0.88698385  1
  Fe  Fe65  1  0.73434628  0.98403404  0.39983829  1
  Fe  Fe66  1  0.33232229  0.10979140  0.41532989  1
  Fe  Fe67  1  0.69765412  0.81722847  0.06987431  1
  Fe  Fe68  1  0.98111350  0.58745498  0.19551421  1
  Fe  Fe69  1  0.52361179  0.67260216  0.57570489  1
  Fe  Fe70  1  0.98595399  0.44259271  0.22218542  1
  Fe  Fe71  1  0.14440483  0.78683383  0.78671922  1
  Fe  Fe72  1  0.65687522  0.09847604  0.38586451  1
  Fe  Fe73  1  0.19929879  0.85448232  0.14702527  1
  Fe  Fe74  1  0.08092323  0.37860246  0.12933567  1
  Fe  Fe75  1  0.72164370  0.82691377  0.92646549  1
  Fe  Fe76  1  0.13531078  0.66439189  0.86073351  1
  Fe  Fe77  1  0.17047124  0.63245765  0.73299015  1
  Fe  Fe78  1  0.10061886  0.52850709  0.16325333  1
  Fe  Fe79  1  0.96496579  0.22872100  0.88938396  1
  Fe  Fe80  1  0.82673972  0.09120191  0.40821223  1
  Fe  Fe81  1  0.67423232  1.01198381  0.25700985  1
  Fe  Fe82  1  0.03628696  0.33172684  0.98536136  1
  Fe  Fe83  1  0.70047807  0.27684317  0.53309177  1
  Fe  Fe84  1  0.75474561  0.93725626  0.14762203  1
  Fe  Fe85  1  0.65009690  0.61288293  0.52332424  1
  Fe  Fe86  1  0.79362233  1.01005403  0.52884318  1
  Fe  Fe87  1  1.04792350  0.71010098  0.73772760  1
  Fe  Fe88  1  0.82318735  0.99611329  0.27675955  1
  Fe  Fe89  1  0.22902310  0.19659607  0.37918232  1
  Fe  Fe90  1  0.04490152  0.55280340  0.31008908  1
  Fe  Fe91  1  0.80769513  0.73153924  0.97492604  1
  Fe  Fe92  1  0.15805170  0.74191357  0.64316944  1
  Fe  Fe93  1  0.95069238  0.32186450  0.77129893  1
  Fe  Fe94  1  0.26060462  0.57694562  0.85030397  1
  Fe  Fe95  1  0.06855578  0.34405264  0.84144016  1
  Fe  Fe96  1  0.73271502  0.22149640  0.40536793  1
  Fe  Fe97  1  0.41779799  0.99292507  0.45993809  1
  Fe  Fe98  1  0.46621979  0.19991219  0.93344894  1
  Fe  Fe99  1  0.11593962  0.43745958  0.26762906  1
  Fe  Fe100  1  0.72011802  0.12887007  0.51992616  1
  Fe  Fe101  1  0.08270816  0.85128572  0.68142590  1
  Bi  Bi102  1  0.74113293  -0.09961646  0.76447773  1
  Bi  Bi103  1  0.04704323  0.17340796  0.74210532  1
  Bi  Bi104  1  0.89408734  -0.07820569  0.41983375  1
  Bi  Bi105  1  0.56282300  0.21099677  0.46575421  1
  Bi  Bi106  1  0.09833660  0.27148809  0.27908807  1
  Bi  Bi107  1  0.57054432  -0.05880826  0.38602316  1
  Bi  Bi108  1  0.61284190  0.03187693  0.09453726  1
  Bi  Bi109  1  0.87436817  0.21418240  0.51370625  1
  Bi  Bi110  1  0.45058286  0.56458334  0.06070166  1
  Bi  Bi111  1  -0.00676195  0.43409782  0.41129028  1
  Bi  Bi112  1  0.11253019  -0.18369556  0.49637103  1
  Bi  Bi113  1  0.43893457  0.27860292  0.09625525  1
  Bi  Bi114  1  0.85180708  0.69738337  0.14208967  1
  Bi  Bi115  1  0.72395611  0.41831855  0.12858793  1
  Bi  Bi116  1  0.37382083  0.27089809  0.34524608  1
  Bi  Bi117  1  0.38858161  0.11439848  0.57727405  1
  Bi  Bi118  1  0.37099293  0.57340052  0.34090369  1
  Bi  Bi119  1  0.69246550  0.38880620  0.39399303  1
  Bi  Bi120  1  0.81980019  0.64909999  0.50133837  1
  Bi  Bi121  1  0.57712023  0.59216168  0.82400645  1
  Bi  Bi122  1  0.57823714  0.74410690  0.16918931  1
  Bi  Bi123  1  0.33509151  0.32535471  0.60623812  1
  Bi  Bi124  1  0.65579881  0.21156706  0.86632162  1
  Bi  Bi125  1  0.44071227  0.83674882  0.55678609  1
  Bi  Bi126  1  0.17791668  0.09151170  0.49639299  1
  Bi  Bi127  1  0.35059384  0.94104542  0.83448797  1
