# generated using pymatgen
data_Ba51Fe51Bi26
_symmetry_space_group_name_H-M   'P 1'
_cell_length_a   15.76768581
_cell_length_b   16.67956494
_cell_length_c   16.75835266
_cell_angle_alpha   90.48774398
_cell_angle_beta   91.89811541
_cell_angle_gamma   88.51187615
_symmetry_Int_Tables_number   1
_chemical_formula_structural   Ba51Fe51Bi26
_chemical_formula_sum   'Ba51 Fe51 Bi26'
_cell_volume   4403.38240436
_cell_formula_units_Z   1
loop_
 _symmetry_equiv_pos_site_id
 _symmetry_equiv_pos_as_xyz
  1  'x, y, z'
loop_
 _atom_site_type_symbol
 _atom_site_label
 _atom_site_symmetry_multiplicity
 _atom_site_fract_x
 _atom_site_fract_y
 _atom_site_fract_z
 _atom_site_occupancy
  Ba  Ba0  1  0.29001173  0.16969943  0.63386291  1
  Ba  Ba1  1  0.44095077  0.22851330  0.36713828  1
  Ba  Ba2  1  -0.07958732  0.25722336  0.36415616  1
  Ba  Ba3  1  0.31162292  0.21680671  -0.13192020  1
  Ba  Ba4  1  0.45695741  0.48590933  0.45505193  1
  Ba  Ba5  1  0.67573256  0.23968472  0.44650859  1
  Ba  Ba6  1  0.61039006  -0.00332227  0.32328208  1
  Ba  Ba7  1  0.71133793  -0.16919815  0.56211659  1
  Ba  Ba8  1  0.01703376  0.10918189  0.62639724  1
  Ba  Ba9  1  0.20010395  0.79477545  -0.03330778  1
  Ba  Ba10  1  0.55294300  0.23900042  0.16580329  1
  Ba  Ba11  1  0.45519161  0.82559438  0.26153960  1
  Ba  Ba12  1  0.71991623  0.49858843  -0.04442197  1
  Ba  Ba13  1  0.70397198  0.47862168  0.46411237  1
  Ba  Ba14  1  -0.00391955  0.05645789  0.86272114  1
  Ba  Ba15  1  0.11715554  -0.02658183  0.46426890  1
  Ba  Ba16  1  0.50943936  0.69921814  0.01348486  1
  Ba  Ba17  1  -0.10663883  0.75973450  0.22920496  1
  Ba  Ba18  1  0.19141823  -0.03201122  0.23066357  1
  Ba  Ba19  1  0.41032589  0.47693734  0.17793826  1
  Ba  Ba20  1  0.77764476  0.36807981  0.18447269  1
  Ba  Ba21  1  -0.10870462  -0.00661064  0.19983415  1
  Ba  Ba22  1  0.17361066  0.57272468  0.74603935  1
  Ba  Ba23  1  -0.01771272  0.76162017  0.49228808  1
  Ba  Ba24  1  0.75293016  0.77705691  0.00062698  1
  Ba  Ba25  1  0.09060215  0.41024497  0.20844452  1
  Ba  Ba26  1  0.06883801  0.32353191  0.77994965  1
  Ba  Ba27  1  0.23056383  0.70705563  0.19195140  1
  Ba  Ba28  1  0.16279686  0.24084727  0.42633264  1
  Ba  Ba29  1  0.51429889  0.30558374  0.68141021  1
  Ba  Ba30  1  0.27364374  0.21150483  0.16301412  1
  Ba  Ba31  1  0.48720832  0.74924150  0.50740568  1
  Ba  Ba32  1  0.19836596  0.96157199  0.75167926  1
  Ba  Ba33  1  0.84182158  0.02498416  0.44475847  1
  Ba  Ba34  1  0.55676677  0.03366678  0.60470895  1
  Ba  Ba35  1  0.78319853  0.26994181  0.83898652  1
  Ba  Ba36  1  0.28007586  0.45706488  -0.04283995  1
  Ba  Ba37  1  0.63828734  0.61692081  0.24359578  1
  Ba  Ba38  1  0.48104969  0.54196228  0.76401070  1
  Ba  Ba39  1  0.64557551  0.04440604  0.05211518  1
  Ba  Ba40  1  0.22127194  0.03428846  0.01024764  1
  Ba  Ba41  1  0.43491181  0.00363789  0.80816510  1
  Ba  Ba42  1  -0.01595431  0.43296018  -0.00287876  1
  Ba  Ba43  1  0.86296294  0.71962928  0.74437495  1
  Ba  Ba44  1  0.25250277  0.76790685  0.43442195  1
  Ba  Ba45  1  -0.01098123  0.48539465  0.59656691  1
  Ba  Ba46  1  0.20652709  0.51994368  0.44154049  1
  Ba  Ba47  1  -0.01658376  0.67440869  -0.02951962  1
  Ba  Ba48  1  0.75103411  -0.00776115  0.78324092  1
  Ba  Ba49  1  0.75480517  0.48117572  0.69839178  1
  Ba  Ba50  1  -0.10277787  0.54484650  0.34796814  1
  Fe  Fe51  1  0.54898440  0.72974470  0.69645923  1
  Fe  Fe52  1  0.50955602  0.88277521  0.06974816  1
  Fe  Fe53  1  0.31272003  0.95222935  0.40143278  1
  Fe  Fe54  1  0.79372353  0.71426539  0.39207201  1
  Fe  Fe55  1  0.84953320  0.35387152  0.53662968  1
  Fe  Fe56  1  1.04382789  0.87261686  0.65274962  1
  Fe  Fe57  1  0.75556440  0.11975360  0.58963655  1
  Fe  Fe58  1  0.84202415  0.16613556  0.68685995  1
  Fe  Fe59  1  0.31245053  0.79809101  0.63765270  1
  Fe  Fe60  1  1.01047330  0.88752280  0.96514882  1
  Fe  Fe61  1  0.00857449  0.12306415  1.06914486  1
  Fe  Fe62  1  0.75546982  0.28199630  0.61817046  1
  Fe  Fe63  1  0.02820171  0.97893139  1.06060415  1
  Fe  Fe64  1  0.69159417  0.18203860  0.68168296  1
  Fe  Fe65  1  0.94080371  0.85126635  0.06828940  1
  Fe  Fe66  1  0.41902494  0.06504452  0.45353201  1
  Fe  Fe67  1  0.16857204  0.84272603  0.60329883  1
  Fe  Fe68  1  0.40685572  0.01486843  0.32578104  1
  Fe  Fe69  1  0.87979098  0.27410095  0.03830116  1
  Fe  Fe70  1  0.18782269  0.70933756  0.60490318  1
  Fe  Fe71  1  1.07726671  0.74624054  0.67595557  1
  Fe  Fe72  1  0.44647354  0.93355789  0.44373669  1
  Fe  Fe73  1  -0.02930036  0.29074123  0.56128588  1
  Fe  Fe74  1  0.28375819  0.06784208  0.47364732  1
  Fe  Fe75  1  0.65331847  0.77946889  0.34812633  1
  Fe  Fe76  1  0.59653341  0.83673956  0.75363205  1
  Fe  Fe77  1  0.43769320  0.31964485  0.00838438  1
  Fe  Fe78  1  0.76831848  0.84376353  0.36429563  1
  Fe  Fe79  1  0.00359406  0.25705644  0.10968781  1
  Fe  Fe80  1  0.89073902  0.18621336  0.15666856  1
  Fe  Fe81  1  0.89462190  0.29561007  0.66810346  1
  Fe  Fe82  1  0.54726027  0.23833190  0.93181091  1
  Fe  Fe83  1  0.01978113  0.59938540  0.17629983  1
  Fe  Fe84  1  0.07347459  0.85487480  0.10353750  1
  Fe  Fe85  1  0.57848793  0.34943014  -0.00000661  1
  Fe  Fe86  1  0.39258499  0.71423341  0.71788998  1
  Fe  Fe87  1  0.40454846  -0.15216375  0.93454940  1
  Fe  Fe88  1  0.43611084  0.97372287  -0.00123596  1
  Fe  Fe89  1  0.29586873  0.09362246  0.34893936  1
  Fe  Fe90  1  0.34379065  0.82696182  0.79503021  1
  Fe  Fe91  1  0.31661194  0.45893193  0.61789680  1
  Fe  Fe92  1  0.67448171  0.68060704  0.43770469  1
  Fe  Fe93  1  0.97683550  0.21863887  0.96402917  1
  Fe  Fe94  1  0.45422259  0.84565644  0.68993486  1
  Fe  Fe95  1  0.47225611  0.35602503  0.88350594  1
  Fe  Fe96  1  0.86305589  0.13744561  1.02348624  1
  Fe  Fe97  1  0.48580649  0.77274978  0.82674401  1
  Fe  Fe98  1  0.85932937  0.20372662  0.54441113  1
  Fe  Fe99  1  0.21073292  0.38425414  0.61905457  1
  Fe  Fe100  1  0.21624839  0.76582527  0.73861988  1
  Fe  Fe101  1  0.36614813  0.86816417  0.07166606  1
  Bi  Bi102  1  0.33721085  0.67415561  0.86657819  1
  Bi  Bi103  1  0.04038475  0.82921386  0.81478341  1
  Bi  Bi104  1  -0.15014777  -0.02844413  -0.01444129  1
  Bi  Bi105  1  0.66732548  0.83884314  0.18903044  1
  Bi  Bi106  1  0.33905243  -0.05014158  0.57982271  1
  Bi  Bi107  1  0.14069208  0.26638584  -0.00336253  1
  Bi  Bi108  1  0.34344972  0.32811983  0.52332408  1
  Bi  Bi109  1  0.81673062  0.63585825  0.54744073  1
  Bi  Bi110  1  0.43536960  0.14081638  0.01231532  1
  Bi  Bi111  1  0.49669016  0.49253938  -0.01724392  1
  Bi  Bi112  1  0.58367598  -0.10855119  -0.08343774  1
  Bi  Bi113  1  0.33573780  0.61891108  0.59103998  1
  Bi  Bi114  1  0.71061712  0.24448684  0.02497665  1
  Bi  Bi115  1  0.75554968  0.15088719  0.26556099  1
  Bi  Bi116  1  0.59242710  0.14291509  0.80342516  1
  Bi  Bi117  1  0.06213263  0.15456331  0.23379775  1
  Bi  Bi118  1  0.31401339  0.38889869  0.76349808  1
  Bi  Bi119  1  0.28510252  0.37216312  0.30783208  1
  Bi  Bi120  1  0.14458638  0.56524460  0.07184967  1
  Bi  Bi121  1  0.07550642  0.65588612  0.32411272  1
  Bi  Bi122  1  0.39780722  0.63799596  0.32554844  1
  Bi  Bi123  1  0.94147708  0.51781918  0.80729253  1
  Bi  Bi124  1  0.59016334  0.39845682  0.30197049  1
  Bi  Bi125  1  0.40805826  0.00854166  0.16417867  1
  Bi  Bi126  1  0.85159120  0.57136342  0.12799235  1
  Bi  Bi127  1  0.65563775  0.67272506  0.82272117  1
