# generated using pymatgen
data_Ba51Fe51Bi26
_symmetry_space_group_name_H-M   'P 1'
_cell_length_a   16.37734016
_cell_length_b   16.42652502
_cell_length_c   16.48117971
_cell_angle_alpha   90.90212559
_cell_angle_beta   89.41319235
_cell_angle_gamma   88.40251241
_symmetry_Int_Tables_number   1
_chemical_formula_structural   Ba51Fe51Bi26
_chemical_formula_sum   'Ba51 Fe51 Bi26'
_cell_volume   4431.28727613
_cell_formula_units_Z   1
loop_
 _symmetry_equiv_pos_site_id
 _symmetry_equiv_pos_as_xyz
  1  'x, y, z'
loop_
 _atom_site_type_symbol
 _atom_site_label
 _atom_site_symmetry_multiplicity
 _atom_site_fract_x
 _atom_site_fract_y
 _atom_site_fract_z
 _atom_site_occupancy
  Ba  Ba0  1  0.75592262  0.18180108  0.15971381  1
  Ba  Ba1  1  -0.02303285  0.32084793  0.24920936  1
  Ba  Ba2  1  0.76182062  0.55755064  0.01954447  1
  Ba  Ba3  1  0.30498966  0.47041625  0.74261016  1
  Ba  Ba4  1  0.48862564  0.15584781  0.69807081  1
  Ba  Ba5  1  0.22846265  0.24163924  0.32969500  1
  Ba  Ba6  1  0.78047161  0.53786710  0.50932070  1
  Ba  Ba7  1  0.64865808  0.30934235  -0.01755312  1
  Ba  Ba8  1  0.44109749  0.20454617  0.43989831  1
  Ba  Ba9  1  -0.04572444  -0.13107193  0.36916878  1
  Ba  Ba10  1  -0.01653910  0.36223023  0.00963298  1
  Ba  Ba11  1  0.75004727  -0.12528368  0.18214436  1
  Ba  Ba12  1  0.03857514  0.05999720  0.21507699  1
  Ba  Ba13  1  0.17399325  0.57903951  0.54675805  1
  Ba  Ba14  1  0.52099066  0.69243221  0.66051697  1
  Ba  Ba15  1  0.70429201  0.25401751  0.74178641  1
  Ba  Ba16  1  -0.03750234  -0.00889256  0.70008024  1
  Ba  Ba17  1  -0.02210462  -0.07617932  -0.01686392  1
  Ba  Ba18  1  0.14407630  0.30694163  0.56734911  1
  Ba  Ba19  1  0.45571017  0.80686114  0.20540659  1
  Ba  Ba20  1  0.07015435  0.64251633  0.28391598  1
  Ba  Ba21  1  0.26788913  -0.01311112  0.74144617  1
  Ba  Ba22  1  0.46086483  -0.08671381  0.52270983  1
  Ba  Ba23  1  0.49456576  0.02038621  0.06724690  1
  Ba  Ba24  1  0.78400891  0.04132846  0.51013301  1
  Ba  Ba25  1  0.50637741  0.52479395  -0.07279323  1
  Ba  Ba26  1  0.52263880  0.50665438  0.17758814  1
  Ba  Ba27  1  0.18795124  0.75667801  0.07412899  1
  Ba  Ba28  1  -0.09111982  0.31061696  0.49242668  1
  Ba  Ba29  1  0.36756090  0.23394747  0.03778032  1
  Ba  Ba30  1  0.32872388  0.72777595  0.85273579  1
  Ba  Ba31  1  0.28414467  0.23655428  0.77514602  1
  Ba  Ba32  1  0.26193187  0.43880116  -0.00813043  1
  Ba  Ba33  1  0.43373702  0.44349985  0.48371281  1
  Ba  Ba34  1  0.29486614  0.55448544  0.25040663  1
  Ba  Ba35  1  0.79761358  0.77887286  0.52737072  1
  Ba  Ba36  1  0.11485575  0.13629030  -0.06123213  1
  Ba  Ba37  1  0.60283373  0.04542975  0.33647954  1
  Ba  Ba38  1  0.57870539  0.76197452  -0.02407658  1
  Ba  Ba39  1  0.69659849  0.31260350  0.37207568  1
  Ba  Ba40  1  0.51783262  -0.07734947  0.80737371  1
  Ba  Ba41  1  0.56599702  0.65655909  0.38390447  1
  Ba  Ba42  1  0.14794926  -0.00879487  0.52210329  1
  Ba  Ba43  1  -0.03035356  0.53587500  0.80416545  1
  Ba  Ba44  1  0.73609029  0.02084196  0.74634866  1
  Ba  Ba45  1  0.04403423  0.76999481  0.61708318  1
  Ba  Ba46  1  -0.02686538  0.66733486  0.00647288  1
  Ba  Ba47  1  -0.03817251  0.25236211  0.75419910  1
  Ba  Ba48  1  0.75240645  0.01809866  -0.02847844  1
  Ba  Ba49  1  0.60313109  0.46516677  0.69533401  1
  Ba  Ba50  1  0.30424524  -0.01209040  0.34055638  1
  Fe  Fe51  1  0.16751550  0.40390003  0.20089078  1
  Fe  Fe52  1  0.25558326  0.07355582  0.14179616  1
  Fe  Fe53  1  0.53201629  0.21398052  0.14749873  1
  Fe  Fe54  1  0.00391696  0.14147491  0.55309413  1
  Fe  Fe55  1  0.90020160  0.10381089  0.87377564  1
  Fe  Fe56  1  0.38882585  0.82470793  1.01851471  1
  Fe  Fe57  1  0.69304522  0.80203530  0.79661497  1
  Fe  Fe58  1  0.73606849  0.89817114  0.37951247  1
  Fe  Fe59  1  0.54532365  0.22389074  0.27917437  1
  Fe  Fe60  1  0.17569173  0.79833085  0.44464510  1
  Fe  Fe61  1  0.83205044  0.22422305  0.91651625  1
  Fe  Fe62  1  0.62270343  0.84798233  0.37542449  1
  Fe  Fe63  1  0.84067667  0.67453539  0.20010337  1
  Fe  Fe64  1  0.75053125  0.56578450  0.24445704  1
  Fe  Fe65  1  0.16603476  -0.01244561  0.07096764  1
  Fe  Fe66  1  0.97109780  0.05934001  0.45551087  1
  Fe  Fe67  1  0.31355386  0.92817293  0.09073616  1
  Fe  Fe68  1  0.51194575  0.35570111  0.30596597  1
  Fe  Fe69  1  0.29003527  0.35712833  0.17979940  1
  Fe  Fe70  1  0.20731430  0.94090656  0.18349611  1
  Fe  Fe71  1  0.81092820  0.86309017  0.84046285  1
  Fe  Fe72  1  0.73818573  0.45655252  0.83822824  1
  Fe  Fe73  1  0.82546352  0.36496061  0.86486384  1
  Fe  Fe74  1  0.28391953  0.03870043  1.00309651  1
  Fe  Fe75  1  0.03536800  0.16419954  0.41431442  1
  Fe  Fe76  1  0.81936663  0.82216562  0.71007832  1
  Fe  Fe77  1  0.44568748  0.34520530  0.66123754  1
  Fe  Fe78  1  0.37696288  0.73116752  0.35898042  1
  Fe  Fe79  1  0.81017568  0.71249427  0.82743759  1
  Fe  Fe80  1  0.36723320  0.71057987  0.50881295  1
  Fe  Fe81  1  0.24608536  0.68623798  0.40888422  1
  Fe  Fe82  1  0.90951844  0.14666819  -0.00416792  1
  Fe  Fe83  1  0.94606845  0.49245146  0.36690458  1
  Fe  Fe84  1  0.60325727  1.02489534  0.59997903  1
  Fe  Fe85  1  0.11764014  0.76776720  0.86629249  1
  Fe  Fe86  1  0.34843451  0.29725663  0.59598373  1
  Fe  Fe87  1  0.86423597  0.60638279  0.32600445  1
  Fe  Fe88  1  0.73124349  0.70154636  0.69456603  1
  Fe  Fe89  1  0.86862880  0.67874441  0.69265629  1
  Fe  Fe90  1  0.37244447  0.61344076  0.42129422  1
  Fe  Fe91  1  0.09068517  0.89378077  0.80138200  1
  Fe  Fe92  1  0.00086539  0.48803736  0.49561474  1
  Fe  Fe93  1  0.61166517  0.13435792  0.53904835  1
  Fe  Fe94  1  0.42793589  0.30794068  0.21441920  1
  Fe  Fe95  1  0.17970409  0.80678037  0.75112090  1
  Fe  Fe96  1  0.58642768  0.32691775  0.18743114  1
  Fe  Fe97  1  0.82291776  0.46270640  0.30889466  1
  Fe  Fe98  1  0.94426710  0.57604274  0.61174663  1
  Fe  Fe99  1  0.30724436  0.82174609  0.43983454  1
  Fe  Fe100  1  -0.01815428  0.44853075  0.62114705  1
  Fe  Fe101  1  0.36281821  0.92795063  0.94544262  1
  Bi  Bi102  1  0.23811639  0.79487692  0.27570282  1
  Bi  Bi103  1  -0.03872786  0.64915096  0.46084738  1
  Bi  Bi104  1  0.11650166  0.43294154  0.37429704  1
  Bi  Bi105  1  0.40539585  0.13271017  0.22986480  1
  Bi  Bi106  1  0.73673146  0.39877049  0.17149317  1
  Bi  Bi107  1  0.75509435  0.73447543  0.33649189  1
  Bi  Bi108  1  0.82775590  0.42045875  0.69228686  1
  Bi  Bi109  1  0.15965786  0.25044215  0.12443714  1
  Bi  Bi110  1  0.78908887  0.79358525  -0.01557029  1
  Bi  Bi111  1  0.26704516  0.81383653  0.60369899  1
  Bi  Bi112  1  0.19685046  -0.09164769  -0.07505196  1
  Bi  Bi113  1  -0.03814205  0.78650923  0.81162943  1
  Bi  Bi114  1  0.64332915  0.86251142  0.64175288  1
  Bi  Bi115  1  0.11916703  0.53322634  0.10494250  1
  Bi  Bi116  1  0.66595546  0.61964269  0.82571522  1
  Bi  Bi117  1  0.58566231  0.30201034  0.56224623  1
  Bi  Bi118  1  0.38807685  0.65603154  0.05897139  1
  Bi  Bi119  1  0.29738947  0.13158134  0.57330783  1
  Bi  Bi120  1  0.91879730  0.52176134  0.17806096  1
  Bi  Bi121  1  0.64681634  0.67794128  0.16635490  1
  Bi  Bi122  1  0.87037478  0.14581358  0.34174023  1
  Bi  Bi123  1  0.15894862  0.63598976  0.76306757  1
  Bi  Bi124  1  0.96122988  0.80355930  0.17007755  1
  Bi  Bi125  1  0.47505832  0.33888920  0.83353505  1
  Bi  Bi126  1  0.12352148  0.36499653  0.83570341  1
  Bi  Bi127  1  0.39492201  0.08411691  0.88421143  1
