# generated using pymatgen
data_Ba51Fe51Bi26
_symmetry_space_group_name_H-M   'P 1'
_cell_length_a   15.95307492
_cell_length_b   16.61437982
_cell_length_c   16.29415119
_cell_angle_alpha   90.00718033
_cell_angle_beta   88.33147972
_cell_angle_gamma   83.33809745
_symmetry_Int_Tables_number   1
_chemical_formula_structural   Ba51Fe51Bi26
_chemical_formula_sum   'Ba51 Fe51 Bi26'
_cell_volume   4287.76627288
_cell_formula_units_Z   1
loop_
 _symmetry_equiv_pos_site_id
 _symmetry_equiv_pos_as_xyz
  1  'x, y, z'
loop_
 _atom_site_type_symbol
 _atom_site_label
 _atom_site_symmetry_multiplicity
 _atom_site_fract_x
 _atom_site_fract_y
 _atom_site_fract_z
 _atom_site_occupancy
  Ba  Ba0  1  0.48706217  0.56084762  0.44749079  1
  Ba  Ba1  1  0.67049174  0.56834961  0.84845762  1
  Ba  Ba2  1  0.69941552  0.18959345  0.77743134  1
  Ba  Ba3  1  0.76486820  0.28289869  0.39314083  1
  Ba  Ba4  1  0.79890104  -0.23080883  0.60166317  1
  Ba  Ba5  1  -0.09287928  0.52047236  0.67282729  1
  Ba  Ba6  1  0.07360143  0.27877529  0.28617706  1
  Ba  Ba7  1  0.66746445  0.79839543  0.80708567  1
  Ba  Ba8  1  0.18695060  0.05655834  0.72403932  1
  Ba  Ba9  1  0.58697004  -0.11165475  0.44610547  1
  Ba  Ba10  1  0.06372128  0.91823497  0.52934962  1
  Ba  Ba11  1  0.41908110  0.22054715  -0.08414951  1
  Ba  Ba12  1  0.28643328  0.10273654  0.28159503  1
  Ba  Ba13  1  0.03284866  -0.01170231  -0.06717978  1
  Ba  Ba14  1  0.20568448  0.37290281  0.69747504  1
  Ba  Ba15  1  0.53025330  0.24915810  0.20786136  1
  Ba  Ba16  1  0.79298063  0.27838033  0.01406824  1
  Ba  Ba17  1  -0.13036719  0.12239284  0.55708907  1
  Ba  Ba18  1  0.54237161  0.39975441  0.69257700  1
  Ba  Ba19  1  0.42256294  0.65149460  0.69200754  1
  Ba  Ba20  1  0.48979512  0.92609549  -0.00828262  1
  Ba  Ba21  1  0.68544924  0.06944248  0.37600468  1
  Ba  Ba22  1  0.02144376  0.73890017  0.38551984  1
  Ba  Ba23  1  0.69692618  0.49311685  0.06703714  1
  Ba  Ba24  1  0.77383502  0.78823838  0.29640457  1
  Ba  Ba25  1  0.43312517  0.52549713  -0.05158243  1
  Ba  Ba26  1  -0.03316578  0.24016381  0.80652059  1
  Ba  Ba27  1  0.48439475  -0.09665660  0.23083014  1
  Ba  Ba28  1  0.01812774  0.76635851  0.12010577  1
  Ba  Ba29  1  -0.03786004  0.05337968  0.29789283  1
  Ba  Ba30  1  0.75140727  0.55893761  0.28461979  1
  Ba  Ba31  1  0.37370444  0.47809824  0.19987947  1
  Ba  Ba32  1  0.19124201  0.54174641  0.04172535  1
  Ba  Ba33  1  0.24198405  0.68185798  0.49803995  1
  Ba  Ba34  1  0.19645802  0.46952381  0.40146331  1
  Ba  Ba35  1  0.45643893  0.13861207  0.66072124  1
  Ba  Ba36  1  0.01156183  0.32380515  0.52271553  1
  Ba  Ba37  1  0.20006573  0.59624779  0.76191842  1
  Ba  Ba38  1  0.83432928  -0.02532628  0.10313151  1
  Ba  Ba39  1  -0.00491348  0.53581032  0.23941911  1
  Ba  Ba40  1  0.47736383  0.31714533  0.44422932  1
  Ba  Ba41  1  -0.07004758  0.61986042  -0.05593770  1
  Ba  Ba42  1  0.02401100  0.80629847  0.74758810  1
  Ba  Ba43  1  0.31164176  -0.04726858  0.49158402  1
  Ba  Ba44  1  0.40453354  -0.09175332  0.76461408  1
  Ba  Ba45  1  0.51383053  0.65867856  0.20712307  1
  Ba  Ba46  1  0.72600419  0.47486678  0.51466921  1
  Ba  Ba47  1  0.02705366  0.35217809  0.02858983  1
  Ba  Ba48  1  0.18584323  0.98898018  0.11679010  1
  Ba  Ba49  1  0.26916807  0.22272711  0.49675513  1
  Ba  Ba50  1  0.63472109  0.09271880  0.02741335  1
  Fe  Fe51  1  0.22387835  0.79017312  0.04122248  1
  Fe  Fe52  1  0.69533591  0.06525092  0.63671230  1
  Fe  Fe53  1  0.84544049  0.95473399  0.80359219  1
  Fe  Fe54  1  0.92277697  0.46146309  0.40772902  1
  Fe  Fe55  1  0.23012639  0.30632577  0.00390087  1
  Fe  Fe56  1  0.69456333  0.85712425  0.99316863  1
  Fe  Fe57  1  0.72860250  -0.03975057  0.89240014  1
  Fe  Fe58  1  0.29238945  0.38879164  0.89848549  1
  Fe  Fe59  1  0.71723407  -0.05309059  0.57128496  1
  Fe  Fe60  1  0.87337298  0.40321514  0.16355218  1
  Fe  Fe61  1  0.27715824  0.89154534  0.26830928  1
  Fe  Fe62  1  0.59171791  0.70580386  0.38011212  1
  Fe  Fe63  1  0.30573932  0.69548611  0.95959269  1
  Fe  Fe64  1  0.12211039  0.52654183  0.58068232  1
  Fe  Fe65  1  0.20880025  0.80925819  0.34963705  1
  Fe  Fe66  1  0.54801289  0.81850250  0.63011368  1
  Fe  Fe67  1  0.74620036  0.38112083  0.79296993  1
  Fe  Fe68  1  0.68012234  0.67298297  0.47221504  1
  Fe  Fe69  1  0.83464874  0.95990065  0.65239444  1
  Fe  Fe70  1  0.04386727  0.63632745  0.57004747  1
  Fe  Fe71  1  0.73231471  0.71058203  0.99704903  1
  Fe  Fe72  1  0.30579807  0.68346147  0.11938922  1
  Fe  Fe73  1  0.69016372  0.68499832  0.12637587  1
  Fe  Fe74  1  0.82620470  0.65570118  0.11565753  1
  Fe  Fe75  1  0.32047408  0.25309913  0.12273330  1
  Fe  Fe76  1  0.58404296  0.74371034  1.02440599  1
  Fe  Fe77  1  0.27850665  0.15106193  1.03195068  1
  Fe  Fe78  1  0.16997235  0.21769740  0.11877522  1
  Fe  Fe79  1  0.33404550  0.83215372  0.13049452  1
  Fe  Fe80  1  0.59478595  0.05316942  0.54787820  1
  Fe  Fe81  1  0.88674251  0.38692171  0.29748095  1
  Fe  Fe82  1  0.19912664  0.79007030  0.19308031  1
  Fe  Fe83  1  0.32470804  0.74394019  0.25537652  1
  Fe  Fe84  1  0.16879148  -0.03965068  0.35390520  1
  Fe  Fe85  1  0.65518627  0.81868339  0.11930537  1
  Fe  Fe86  1  0.21438684  0.34614009  0.15126275  1
  Fe  Fe87  1  0.80169749  0.78493199  0.08907198  1
  Fe  Fe88  1  0.16325858  0.40541427  0.89577843  1
  Fe  Fe89  1  0.42565831  0.80541191  0.57497871  1
  Fe  Fe90  1  0.89184496  0.27166791  0.19833983  1
  Fe  Fe91  1  0.41753203  0.73958864  0.04857013  1
  Fe  Fe92  1  1.01339482  0.52885457  0.48344231  1
  Fe  Fe93  1  0.14780144  0.16212302  0.98794199  1
  Fe  Fe94  1  0.59247843  -0.04733089  0.65402978  1
  Fe  Fe95  1  0.71558604  -0.03712317  0.73537726  1
  Fe  Fe96  1  0.20208728  0.86328848  0.90598599  1
  Fe  Fe97  1  0.33108443  0.84195631  0.96683132  1
  Fe  Fe98  1  0.54188147  0.72116938  0.52431760  1
  Fe  Fe99  1  0.28130166  0.76737848  0.83927389  1
  Fe  Fe100  1  0.75730843  0.35614699  0.21394525  1
  Fe  Fe101  1  1.10954092  0.88396150  0.27543367  1
  Bi  Bi102  1  0.19675622  0.24008252  -0.14972998  1
  Bi  Bi103  1  0.57010375  0.02880310  0.82130912  1
  Bi  Bi104  1  0.19415717  0.63327238  0.25615879  1
  Bi  Bi105  1  0.31151497  0.30745251  0.29431443  1
  Bi  Bi106  1  0.27035797  0.01614263  -0.07898003  1
  Bi  Bi107  1  0.63662702  0.21572977  0.56329928  1
  Bi  Bi108  1  -0.14714071  -0.07892053  0.45554916  1
  Bi  Bi109  1  0.47428620  0.72700501  0.88637662  1
  Bi  Bi110  1  0.86467814  0.83167423  -0.07045509  1
  Bi  Bi111  1  0.86160673  0.62290229  0.45136977  1
  Bi  Bi112  1  -0.02141545  0.02039785  0.71716324  1
  Bi  Bi113  1  0.12191055  0.72245379  -0.07446092  1
  Bi  Bi114  1  0.41351732  0.77211888  0.39672884  1
  Bi  Bi115  1  0.59536749  0.42927420  0.28479878  1
  Bi  Bi116  1  0.82966897  0.08695208  0.91736754  1
  Bi  Bi117  1  0.42633763  0.09953403  0.11323718  1
  Bi  Bi118  1  0.75526742  0.17447972  0.20128245  1
  Bi  Bi119  1  0.32457841  0.48782478  0.57894586  1
  Bi  Bi120  1  0.64205804  0.63581548  0.64328930  1
  Bi  Bi121  1  0.86523186  0.43768438  0.88757979  1
  Bi  Bi122  1  0.60381011  0.36915899  0.89736750  1
  Bi  Bi123  1  0.01036090  0.15314591  0.10633035  1
  Bi  Bi124  1  0.11044276  0.10735581  0.44351143  1
  Bi  Bi125  1  0.24527267  0.81571543  0.66983228  1
  Bi  Bi126  1  0.82622487  0.32717016  0.64758552  1
  Bi  Bi127  1  0.46172533  0.09028136  0.43105292  1
