# generated using pymatgen
data_Ba51Fe51Bi26
_symmetry_space_group_name_H-M   'P 1'
_cell_length_a   16.28858473
_cell_length_b   16.70869401
_cell_length_c   15.97629112
_cell_angle_alpha   92.14964516
_cell_angle_beta   87.47837310
_cell_angle_gamma   91.98716264
_symmetry_Int_Tables_number   1
_chemical_formula_structural   Ba51Fe51Bi26
_chemical_formula_sum   'Ba51 Fe51 Bi26'
_cell_volume   4338.47991479
_cell_formula_units_Z   1
loop_
 _symmetry_equiv_pos_site_id
 _symmetry_equiv_pos_as_xyz
  1  'x, y, z'
loop_
 _atom_site_type_symbol
 _atom_site_label
 _atom_site_symmetry_multiplicity
 _atom_site_fract_x
 _atom_site_fract_y
 _atom_site_fract_z
 _atom_site_occupancy
  Ba  Ba0  1  0.18202629  -0.08836524  0.05684700  1
  Ba  Ba1  1  0.80943913  0.07901387  0.25225644  1
  Ba  Ba2  1  0.42096341  0.81079343  0.08408026  1
  Ba  Ba3  1  0.67611998  0.12708514  0.04271447  1
  Ba  Ba4  1  -0.00430134  0.50795550  0.03109897  1
  Ba  Ba5  1  0.26693429  0.19503254  0.04633936  1
  Ba  Ba6  1  0.22309290  0.66768499  -0.09148997  1
  Ba  Ba7  1  0.40234721  -0.04083127  0.70196351  1
  Ba  Ba8  1  0.49052065  0.23368040  0.20305035  1
  Ba  Ba9  1  0.01793550  0.18797084  -0.01143916  1
  Ba  Ba10  1  -0.11884278  -0.06494424  -0.12111197  1
  Ba  Ba11  1  0.82331488  0.44141289  0.21644251  1
  Ba  Ba12  1  0.54726009  0.69100209  0.28623080  1
  Ba  Ba13  1  -0.06303683  0.78416647  0.09206331  1
  Ba  Ba14  1  0.20542273  0.69800684  0.38227443  1
  Ba  Ba15  1  0.29891890  0.35742534  0.70264016  1
  Ba  Ba16  1  0.76786045  0.14296923  0.57321373  1
  Ba  Ba17  1  0.27679683  0.34449225  0.30486943  1
  Ba  Ba18  1  0.41676359  0.72341560  0.52685940  1
  Ba  Ba19  1  0.72333585  0.52717081  0.00702770  1
  Ba  Ba20  1  0.25728461  0.55186740  0.17702160  1
  Ba  Ba21  1  0.48329345  0.01453226  0.46718210  1
  Ba  Ba22  1  0.67331539  -0.07806433  0.70169515  1
  Ba  Ba23  1  0.54990133  -0.02541426  0.22797838  1
  Ba  Ba24  1  0.53004851  0.50505436  0.50361229  1
  Ba  Ba25  1  0.82036334  0.27995356  0.38388386  1
  Ba  Ba26  1  0.00681514  0.58880454  0.26173835  1
  Ba  Ba27  1  0.49205976  0.25205601  0.49783087  1
  Ba  Ba28  1  0.74957069  0.84535690  0.26210857  1
  Ba  Ba29  1  0.18835753  0.40627130  -0.08037099  1
  Ba  Ba30  1  0.77180701  0.75889400  0.47509345  1
  Ba  Ba31  1  0.07638642  0.29340440  0.49612852  1
  Ba  Ba32  1  0.18526315  0.00101692  0.81569798  1
  Ba  Ba33  1  0.82108254  0.28947697  -0.03534587  1
  Ba  Ba34  1  0.01908759  0.84955760  0.52230240  1
  Ba  Ba35  1  0.44529892  0.50850903  -0.06154024  1
  Ba  Ba36  1  0.67267284  0.76609004  -0.03136108  1
  Ba  Ba37  1  -0.05112745  0.66342669  0.81737842  1
  Ba  Ba38  1  0.20850098  0.14711650  0.61144618  1
  Ba  Ba39  1  0.26197812  0.52312746  0.54064753  1
  Ba  Ba40  1  0.09101140  0.19178646  0.26747309  1
  Ba  Ba41  1  0.46536308  0.74537759  0.78574648  1
  Ba  Ba42  1  0.53943872  0.47682780  0.16980826  1
  Ba  Ba43  1  0.00586162  0.59903316  0.55918698  1
  Ba  Ba44  1  0.48791731  0.09551363  -0.09588954  1
  Ba  Ba45  1  0.24330543  -0.06965583  0.50033132  1
  Ba  Ba46  1  0.71923238  0.63170617  0.69533738  1
  Ba  Ba47  1  0.77092795  0.51814572  0.44565160  1
  Ba  Ba48  1  0.02212167  -0.02770757  0.27211740  1
  Ba  Ba49  1  -0.04575953  0.04348379  0.67528905  1
  Ba  Ba50  1  0.54194635  0.41714327  0.72974937  1
  Fe  Fe51  1  0.31696706  0.13501777  0.39709094  1
  Fe  Fe52  1  0.09670731  0.30866095  0.73991898  1
  Fe  Fe53  1  0.83151396  0.93371510  0.56173460  1
  Fe  Fe54  1  0.82506122  0.67197910  0.26789634  1
  Fe  Fe55  1  0.58366004  0.84067278  0.52784077  1
  Fe  Fe56  1  0.81050657  0.51256380  0.79650363  1
  Fe  Fe57  1  0.69052223  0.32394320  0.13352066  1
  Fe  Fe58  1  0.69326192  0.24622835  0.23627666  1
  Fe  Fe59  1  0.89358337  0.45207962  0.87327272  1
  Fe  Fe60  1  0.89158244  0.21295404  0.78603172  1
  Fe  Fe61  1  0.94497607  0.29323813  0.18116895  1
  Fe  Fe62  1  -0.04567427  0.43471581  0.39532484  1
  Fe  Fe63  1  0.02978184  0.40504948  0.67737402  1
  Fe  Fe64  1  0.35215281  0.17397886  0.78485545  1
  Fe  Fe65  1  0.83954268  0.61734837  0.14035423  1
  Fe  Fe66  1  0.56936287  0.84906262  0.39965221  1
  Fe  Fe67  1  0.40970901  0.16376563  0.66350417  1
  Fe  Fe68  1  0.53097593  0.90447521  0.89864274  1
  Fe  Fe69  1  0.24703259  0.79717578  0.21878422  1
  Fe  Fe70  1  0.77004679  0.27076003  0.73140773  1
  Fe  Fe71  1  0.64225369  0.23335465  0.82715879  1
  Fe  Fe72  1  1.00869982  0.37341412  0.28695009  1
  Fe  Fe73  1  0.11689685  0.81005095  0.25624007  1
  Fe  Fe74  1  0.91743661  0.49870907  0.70827826  1
  Fe  Fe75  1  -0.01310817  0.32409206  0.83786137  1
  Fe  Fe76  1  0.81608614  0.25055663  0.16195275  1
  Fe  Fe77  1  0.13356135  0.71903455  0.73149975  1
  Fe  Fe78  1  0.72707151  0.68465075  0.14579763  1
  Fe  Fe79  1  0.34031307  1.01021544  0.31714707  1
  Fe  Fe80  1  0.45948313  0.41036896  0.34749955  1
  Fe  Fe81  1  0.58716894  0.93611563  0.01699830  1
  Fe  Fe82  1  0.49735371  0.22630924  0.75600769  1
  Fe  Fe83  1  0.88501227  -0.00716813  0.45746613  1
  Fe  Fe84  1  0.63090394  0.25025082  0.69158156  1
  Fe  Fe85  1  0.14004232  0.84465849  0.68758448  1
  Fe  Fe86  1  0.30832437  0.13847717  0.26287387  1
  Fe  Fe87  1  0.77474510  0.42308371  0.68225363  1
  Fe  Fe88  1  0.88342639  0.36746933  0.75272874  1
  Fe  Fe89  1  0.20678080  0.91804817  0.30757824  1
  Fe  Fe90  1  0.24382924  0.80933392  0.78402119  1
  Fe  Fe91  1  0.31021888  0.91878876  0.20961105  1
  Fe  Fe92  1  0.95969633  0.26772861  0.67498482  1
  Fe  Fe93  1  1.01829949  0.45795527  0.80967273  1
  Fe  Fe94  1  0.71566438  0.59685070  0.24418933  1
  Fe  Fe95  1  0.17427978  0.72078731  0.59431131  1
  Fe  Fe96  1  0.66540887  0.96426454  0.90801361  1
  Fe  Fe97  1  0.20335593  0.06448687  0.36518525  1
  Fe  Fe98  1  0.26718162  0.67649859  0.70117988  1
  Fe  Fe99  1  0.22697956  0.03669176  0.21939315  1
  Fe  Fe100  1  0.03209455  0.19395719  0.77511337  1
  Fe  Fe101  1  0.27203492  0.80178642  0.64572404  1
  Bi  Bi102  1  0.13607249  0.55005034  0.72901987  1
  Bi  Bi103  1  0.13581824  0.70555614  0.11633093  1
  Bi  Bi104  1  0.18751656  0.20775521  0.83561154  1
  Bi  Bi105  1  0.05363747  0.06632027  0.46917356  1
  Bi  Bi106  1  0.07878961  0.82559912  0.86883971  1
  Bi  Bi107  1  0.75795792  0.10628436  0.81960583  1
  Bi  Bi108  1  0.70815163  0.39510646  0.83818070  1
  Bi  Bi109  1  0.59213870  0.31872542  -0.00186813  1
  Bi  Bi110  1  0.70382512  -0.04452551  0.45381824  1
  Bi  Bi111  1  -0.09601408  0.39785843  0.56069033  1
  Bi  Bi112  1  0.56414484  0.09707654  0.65922193  1
  Bi  Bi113  1  -0.04824496  0.78069063  0.32413337  1
  Bi  Bi114  1  0.38114959  0.04294827  0.12491513  1
  Bi  Bi115  1  0.35131816  0.88822340  0.90099982  1
  Bi  Bi116  1  0.38857148  0.84164586  0.33508421  1
  Bi  Bi117  1  0.67819472  0.34965500  0.56157725  1
  Bi  Bi118  1  0.10018386  0.35537449  0.12808464  1
  Bi  Bi119  1  0.39504805  0.56384791  0.70800050  1
  Bi  Bi120  1  0.38818294  0.55723242  0.35267775  1
  Bi  Bi121  1  0.35639111  0.38423600  0.09449405  1
  Bi  Bi122  1  0.62463622  0.37813442  0.33048375  1
  Bi  Bi123  1  0.62635747  0.14514362  0.35427025  1
  Bi  Bi124  1  0.12092156  0.47521087  0.38729550  1
  Bi  Bi125  1  0.75660502  0.93859531  0.06692816  1
  Bi  Bi126  1  0.40209156  0.30598646  0.88275397  1
  Bi  Bi127  1  0.85758905  0.81123326  0.67780427  1
