# generated using pymatgen
data_Ba51Fe51Bi26
_symmetry_space_group_name_H-M   'P 1'
_cell_length_a   16.72226871
_cell_length_b   16.31281689
_cell_length_c   16.22967336
_cell_angle_alpha   87.96738216
_cell_angle_beta   85.97253727
_cell_angle_gamma   90.42163081
_symmetry_Int_Tables_number   1
_chemical_formula_structural   Ba51Fe51Bi26
_chemical_formula_sum   'Ba51 Fe51 Bi26'
_cell_volume   4413.32160997
_cell_formula_units_Z   1
loop_
 _symmetry_equiv_pos_site_id
 _symmetry_equiv_pos_as_xyz
  1  'x, y, z'
loop_
 _atom_site_type_symbol
 _atom_site_label
 _atom_site_symmetry_multiplicity
 _atom_site_fract_x
 _atom_site_fract_y
 _atom_site_fract_z
 _atom_site_occupancy
  Ba  Ba0  1  0.52573865  0.81233990  -0.07417328  1
  Ba  Ba1  1  0.46601023  0.51174284  0.22750757  1
  Ba  Ba2  1  0.92370317  0.28453035  0.35466171  1
  Ba  Ba3  1  0.44211719  0.27485228  0.39293487  1
  Ba  Ba4  1  0.59093725  0.42385162  0.86884234  1
  Ba  Ba5  1  0.21906018  0.56769757  0.18677299  1
  Ba  Ba6  1  0.72616835  0.71982525  0.02018903  1
  Ba  Ba7  1  0.65851012  0.35676375  0.28693988  1
  Ba  Ba8  1  0.35768583  0.82402764  0.15264364  1
  Ba  Ba9  1  0.25816426  0.80742506  0.46407712  1
  Ba  Ba10  1  0.27226400  0.46441030  0.78771978  1
  Ba  Ba11  1  -0.00985056  0.18339440  -0.10664250  1
  Ba  Ba12  1  0.77643474  0.06443200  0.21651007  1
  Ba  Ba13  1  0.13741526  -0.13377919  0.06403718  1
  Ba  Ba14  1  0.78582088  0.50597277  0.66177468  1
  Ba  Ba15  1  0.03475822  0.79278480  0.27680130  1
  Ba  Ba16  1  0.77063314  0.76028951  0.27274285  1
  Ba  Ba17  1  0.27449463  0.09061923  0.39615427  1
  Ba  Ba18  1  0.41879240  0.42742455  0.56900476  1
  Ba  Ba19  1  0.22814877  0.09851611  0.10354723  1
  Ba  Ba20  1  0.47725600  0.69768225  0.46679443  1
  Ba  Ba21  1  0.68272286  0.25081996  0.68175715  1
  Ba  Ba22  1  0.35716702  0.83446503  0.69403464  1
  Ba  Ba23  1  0.25232553  0.32089591  0.19325714  1
  Ba  Ba24  1  0.30388993  0.67436190  -0.05854896  1
  Ba  Ba25  1  0.47149519  0.04396055  0.50728971  1
  Ba  Ba26  1  0.56513296  0.01913659  0.71902895  1
  Ba  Ba27  1  0.51419214  0.63231613  0.73709644  1
  Ba  Ba28  1  0.13605878  0.30490632  0.47608384  1
  Ba  Ba29  1  0.03305851  0.57007935  0.68882585  1
  Ba  Ba30  1  0.81707059  -0.00597018  0.68057356  1
  Ba  Ba31  1  0.38111936  0.42259305  0.00893917  1
  Ba  Ba32  1  0.67370274  0.56667486  0.44724167  1
  Ba  Ba33  1  0.54913212  0.75428060  0.23781833  1
  Ba  Ba34  1  0.57823456  0.05590985  -0.03134301  1
  Ba  Ba35  1  0.04517489  0.05582763  0.66165493  1
  Ba  Ba36  1  0.73344768  0.76570628  0.75245284  1
  Ba  Ba37  1  0.74480337  0.23399529  0.03144897  1
  Ba  Ba38  1  0.72951553  0.02913624  0.46276767  1
  Ba  Ba39  1  0.80968041  -0.05625155  -0.04977875  1
  Ba  Ba40  1  0.01655740  0.25796955  0.12184515  1
  Ba  Ba41  1  -0.08624483  0.27435188  0.70239302  1
  Ba  Ba42  1  0.03986602  0.00210055  0.42745326  1
  Ba  Ba43  1  0.76661593  0.49329420  0.02547430  1
  Ba  Ba44  1  0.84440348  0.76848603  0.52226645  1
  Ba  Ba45  1  -0.00423837  0.44153598  -0.08896432  1
  Ba  Ba46  1  0.39012609  0.20627510  0.87874913  1
  Ba  Ba47  1  -0.03903067  0.55959043  0.16887108  1
  Ba  Ba48  1  0.09148150  0.56642376  0.42371393  1
  Ba  Ba49  1  0.01331594  0.73662569  -0.08756480  1
  Ba  Ba50  1  0.21537902  0.01077211  0.81973312  1
  Fe  Fe51  1  0.80752323  0.32872248  0.54023003  1
  Fe  Fe52  1  0.29556717  0.57827102  0.46632685  1
  Fe  Fe53  1  0.21969515  0.16222943  0.63931343  1
  Fe  Fe54  1  0.62340403  0.73378479  0.59187261  1
  Fe  Fe55  1  0.44860602  0.09269539  0.12439957  1
  Fe  Fe56  1  0.82084642  0.46602619  0.29133992  1
  Fe  Fe57  1  0.49496853  0.65425945  0.04814287  1
  Fe  Fe58  1  0.12800725  0.88281887  0.61098777  1
  Fe  Fe59  1  0.66244524  0.87659426  0.56583314  1
  Fe  Fe60  1  0.21814205  0.31758989  0.65194875  1
  Fe  Fe61  1  0.80476763  0.42136691  0.43720232  1
  Fe  Fe62  1  0.58874458  0.08160739  1.16713457  1
  Fe  Fe63  1  -0.03293077  0.92598099  0.04032561  1
  Fe  Fe64  1  0.53536185  0.85646228  0.54646182  1
  Fe  Fe65  1  0.14291141  0.57742633  0.88637843  1
  Fe  Fe66  1  0.47333431  0.58558340  0.93533842  1
  Fe  Fe67  1  0.39766689  0.22197106  1.08179978  1
  Fe  Fe68  1  0.04352192  0.04149908  0.02409931  1
  Fe  Fe69  1  0.07618956  0.85249927  0.75205871  1
  Fe  Fe70  1  0.18076287  0.47833122  -0.01233617  1
  Fe  Fe71  1  0.67374856  0.37222001  0.50515870  1
  Fe  Fe72  1  0.56544932  0.82427385  0.67509583  1
  Fe  Fe73  1  0.59289887  -0.02382838  0.28679481  1
  Fe  Fe74  1  0.91943546  0.05839614  0.07237458  1
  Fe  Fe75  1  0.59908680  0.89197496  0.40973816  1
  Fe  Fe76  1  0.93994452  0.87516808  0.76058387  1
  Fe  Fe77  1  0.10386243  0.23348096  0.69707214  1
  Fe  Fe78  1  0.08232096  0.37769027  0.66691811  1
  Fe  Fe79  1  0.90896223  -0.07057198  0.16497477  1
  Fe  Fe80  1  0.47792034  0.07361749  0.28459164  1
  Fe  Fe81  1  0.83785764  0.39482983  0.18600660  1
  Fe  Fe82  1  0.52752776  0.20360969  0.21317536  1
  Fe  Fe83  1  0.65421492  0.78340713  0.46439878  1
  Fe  Fe84  1  0.61478938  0.24857768  0.49113675  1
  Fe  Fe85  1  0.53118333  0.21183150  1.07435868  1
  Fe  Fe86  1  0.34001230  1.12509245  0.69015524  1
  Fe  Fe87  1  0.49761598  0.96141586  0.18137106  1
  Fe  Fe88  1  0.38380680  0.17046696  1.22110651  1
  Fe  Fe89  1  0.94747226  0.74995295  0.72317833  1
  Fe  Fe90  1  0.32333399  1.22889280  0.57174874  1
  Fe  Fe91  1  0.57210485  0.54589467  0.03919755  1
  Fe  Fe92  1  0.44665957  0.30405274  0.16985088  1
  Fe  Fe93  1  0.12605332  0.32702320  0.78651961  1
  Fe  Fe94  1  0.74333603  0.25542366  0.44728297  1
  Fe  Fe95  1  0.22266706  0.21401513  0.77726781  1
  Fe  Fe96  1  0.98439128  0.86771321  0.62601042  1
  Fe  Fe97  1  0.59718461  0.62443345  0.92470147  1
  Fe  Fe98  1  0.33498864  0.26723165  0.70087880  1
  Fe  Fe99  1  0.08146626  0.75692029  0.65465403  1
  Fe  Fe100  1  0.36766577  1.01306533  0.22803203  1
  Fe  Fe101  1  0.12610626  0.59377818  0.01671296  1
  Bi  Bi102  1  0.48339907  0.21839067  0.62854471  1
  Bi  Bi103  1  0.18535422  0.30220453  0.94514355  1
  Bi  Bi104  1  0.20354445  0.47859388  0.58433250  1
  Bi  Bi105  1  0.61364072  0.15067016  0.34596973  1
  Bi  Bi106  1  0.05446836  0.77875768  0.49272493  1
  Bi  Bi107  1  0.58301054  0.37632925  0.08507080  1
  Bi  Bi108  1  0.43828108  -0.09468938  0.35015569  1
  Bi  Bi109  1  -0.04999522  0.42147557  0.54023598  1
  Bi  Bi110  1  0.01579742  -0.03424701  -0.12522190  1
  Bi  Bi111  1  0.02960532  0.03236997  0.19220957  1
  Bi  Bi112  1  0.18455040  0.71057702  0.77235962  1
  Bi  Bi113  1  0.25671211  -0.00127544  0.59854111  1
  Bi  Bi114  1  0.65101857  -0.08787876  0.11719773  1
  Bi  Bi115  1  0.87444261  0.92107532  0.33922289  1
  Bi  Bi116  1  0.21376529  0.93236269  0.26519161  1
  Bi  Bi117  1  0.79547970  0.36537502  0.85495778  1
  Bi  Bi118  1  0.33939852  0.62985584  0.62186403  1
  Bi  Bi119  1  0.87436573  0.59337739  0.38287116  1
  Bi  Bi120  1  0.33991312  0.66660762  0.31685820  1
  Bi  Bi121  1  0.75923215  0.12454421  0.84058513  1
  Bi  Bi122  1  0.86618930  0.16362141  0.53532343  1
  Bi  Bi123  1  0.30409758  0.44113896  0.37192219  1
  Bi  Bi124  1  0.91508522  0.77089818  0.10206539  1
  Bi  Bi125  1  0.07963365  0.41409121  0.26706337  1
  Bi  Bi126  1  0.86225036  0.62019210  0.83210232  1
  Bi  Bi127  1  0.11273856  0.18474034  0.29939321  1
