# generated using pymatgen
data_Ba51Fe51Bi26
_symmetry_space_group_name_H-M   'P 1'
_cell_length_a   15.96358571
_cell_length_b   16.04558566
_cell_length_c   16.88454791
_cell_angle_alpha   89.79946511
_cell_angle_beta   90.23807918
_cell_angle_gamma   87.23022046
_symmetry_Int_Tables_number   1
_chemical_formula_structural   Ba51Fe51Bi26
_chemical_formula_sum   'Ba51 Fe51 Bi26'
_cell_volume   4319.77446714
_cell_formula_units_Z   1
loop_
 _symmetry_equiv_pos_site_id
 _symmetry_equiv_pos_as_xyz
  1  'x, y, z'
loop_
 _atom_site_type_symbol
 _atom_site_label
 _atom_site_symmetry_multiplicity
 _atom_site_fract_x
 _atom_site_fract_y
 _atom_site_fract_z
 _atom_site_occupancy
  Ba  Ba0  1  -0.05404513  0.08309860  -0.04027370  1
  Ba  Ba1  1  0.09304813  0.02247628  0.18931158  1
  Ba  Ba2  1  0.00564344  0.50769214  0.74452098  1
  Ba  Ba3  1  0.25228086  0.79243569  0.19470171  1
  Ba  Ba4  1  0.48758503  0.24099857  0.34252295  1
  Ba  Ba5  1  0.74886262  0.51612081  0.87666598  1
  Ba  Ba6  1  0.06013083  0.73260103  0.76209180  1
  Ba  Ba7  1  0.20277504  0.23559534  0.43937938  1
  Ba  Ba8  1  0.72969515  -0.04629758  0.18328469  1
  Ba  Ba9  1  0.24080404  0.72394039  -0.03246270  1
  Ba  Ba10  1  0.80204942  0.46739800  0.55674443  1
  Ba  Ba11  1  0.71879654  0.84612757  0.41250221  1
  Ba  Ba12  1  0.26765772  0.01300225  -0.01218774  1
  Ba  Ba13  1  0.70554141  0.59444708  0.33341852  1
  Ba  Ba14  1  0.62111083  0.30335490  0.83352693  1
  Ba  Ba15  1  0.11728921  0.85809973  0.53179279  1
  Ba  Ba16  1  0.62049434  0.29957888  0.59118876  1
  Ba  Ba17  1  0.36649499  0.02049904  0.41232359  1
  Ba  Ba18  1  0.73528637  0.13970083  0.33983665  1
  Ba  Ba19  1  0.30531474  0.31171169  -0.11728049  1
  Ba  Ba20  1  0.51284691  0.76226374  0.22164521  1
  Ba  Ba21  1  0.75689841  0.71821238  0.05825186  1
  Ba  Ba22  1  -0.03897371  0.70633108  0.40702472  1
  Ba  Ba23  1  0.57989714  0.04235671  0.54200830  1
  Ba  Ba24  1  0.43330477  0.03628709  0.17006265  1
  Ba  Ba25  1  0.48111914  0.41118972  0.05502748  1
  Ba  Ba26  1  0.01971531  0.30775322  0.58520492  1
  Ba  Ba27  1  0.14724519  0.57134329  0.25885372  1
  Ba  Ba28  1  0.02755004  0.28687804  0.85853737  1
  Ba  Ba29  1  0.77524024  0.77400884  -0.17563685  1
  Ba  Ba30  1  0.35657442  0.49551040  0.73033710  1
  Ba  Ba31  1  -0.13859022  0.48096578  0.14528853  1
  Ba  Ba32  1  0.66492304  0.35476769  0.20248720  1
  Ba  Ba33  1  0.28727679  0.75641165  0.68911445  1
  Ba  Ba34  1  -0.00166373  0.83739081  -0.03714957  1
  Ba  Ba35  1  0.87724597  0.15112315  0.71443948  1
  Ba  Ba36  1  -0.03067252  -0.21591836  0.18675145  1
  Ba  Ba37  1  0.32630672  0.58036519  0.51064262  1
  Ba  Ba38  1  -0.03988591  0.43755936  0.38173558  1
  Ba  Ba39  1  0.53536739  0.76884838  0.73638984  1
  Ba  Ba40  1  0.26470383  0.10573776  0.63574513  1
  Ba  Ba41  1  0.86418472  0.70614173  0.61266448  1
  Ba  Ba42  1  0.45403541  0.05790423  0.78302523  1
  Ba  Ba43  1  -0.12534837  0.97948430  0.55087418  1
  Ba  Ba44  1  0.49002691  0.65325464  -0.03490317  1
  Ba  Ba45  1  0.25962304  0.27060552  0.18702243  1
  Ba  Ba46  1  -0.02021034  0.15611193  0.35805102  1
  Ba  Ba47  1  0.45128832  0.52541641  0.29957267  1
  Ba  Ba48  1  0.16091723  0.46582891  0.04297827  1
  Ba  Ba49  1  0.57315154  -0.06723314  -0.04070101  1
  Ba  Ba50  1  0.55319026  0.53553582  0.54702969  1
  Fe  Fe51  1  0.81675391  0.32050372  0.33251912  1
  Fe  Fe52  1  0.22924015  -0.14059967  0.37740569  1
  Fe  Fe53  1  0.80370901  0.90889182  0.00691101  1
  Fe  Fe54  1  0.88777575  0.28586731  0.21271441  1
  Fe  Fe55  1  0.42309492  0.23382063  0.54463298  1
  Fe  Fe56  1  0.92057009  0.65155944  0.91555042  1
  Fe  Fe57  1  0.25340749  0.40417864  0.53575951  1
  Fe  Fe58  1  0.36875530  0.82713471  0.34354202  1
  Fe  Fe59  1  0.08159155  0.05697258  0.75060249  1
  Fe  Fe60  1  0.98150538  0.32145319  0.06609050  1
  Fe  Fe61  1  0.50924573  0.47766038  0.87298428  1
  Fe  Fe62  1  0.78138299  0.98342950  0.74394514  1
  Fe  Fe63  1  0.56769441  0.83652216  0.54532514  1
  Fe  Fe64  1  0.06806620  0.65465366  0.06672933  1
  Fe  Fe65  1  0.41540970  0.38621808  0.58530636  1
  Fe  Fe66  1  0.85699239  0.24879769  1.07249130  1
  Fe  Fe67  1  0.46828239  0.73964830  0.54162741  1
  Fe  Fe68  1  0.73205620  0.16784749  0.09542499  1
  Fe  Fe69  1  0.72953624  0.08056450  0.85815666  1
  Fe  Fe70  1  0.10631831  0.97631615  -0.14028262  1
  Fe  Fe71  1  0.50631195  0.21198952  0.12671328  1
  Fe  Fe72  1  0.14269241  0.63284521  0.45744761  1
  Fe  Fe73  1  0.66081279  0.96598822  0.79291797  1
  Fe  Fe74  1  1.02553915  0.55867408  0.52751936  1
  Fe  Fe75  1  0.61172540  0.23738143  1.03999510  1
  Fe  Fe76  1  0.37806566  0.34614023  0.46994100  1
  Fe  Fe77  1  0.60111062  0.08863182  0.07717083  1
  Fe  Fe78  1  0.15754710  0.51030561  0.59107866  1
  Fe  Fe79  1  0.43254285  0.70936555  0.39543791  1
  Fe  Fe80  1  0.34356500  0.80842943  0.47740667  1
  Fe  Fe81  1  0.61567372  0.16692213  0.18681303  1
  Fe  Fe82  1  0.00130452  0.21511062  0.14596655  1
  Fe  Fe83  1  1.08852853  0.87482982  0.33460015  1
  Fe  Fe84  1  0.74115852  1.04132772  0.00270485  1
  Fe  Fe85  1  0.62499427  0.12883773  0.94562910  1
  Fe  Fe86  1  0.14240116  0.74628594  0.35082551  1
  Fe  Fe87  1  0.56989267  0.71678403  0.44452786  1
  Fe  Fe88  1  0.05509137  0.62140942  0.93912275  1
  Fe  Fe89  1  0.27415994  -0.28808212  0.38441134  1
  Fe  Fe90  1  0.75376785  0.19336186  0.96083472  1
  Fe  Fe91  1  0.11835204  0.92663448  0.71446681  1
  Fe  Fe92  1  1.10309947  0.64608700  0.58580837  1
  Fe  Fe93  1  0.23825218  0.97192939  0.77946400  1
  Fe  Fe94  1  0.79747814  0.95331082  0.88640121  1
  Fe  Fe95  1  0.18839971  0.86224465  -0.16407211  1
  Fe  Fe96  1  0.55889850  0.53271957  0.77458661  1
  Fe  Fe97  1  0.94053562  0.62717695  0.04169506  1
  Fe  Fe98  1  0.48777356  0.85247296  0.42780262  1
  Fe  Fe99  1  0.14003367  0.48309880  0.46030920  1
  Fe  Fe100  1  0.63806976  0.71663851  0.56575864  1
  Fe  Fe101  1  0.31121753  0.29571445  0.60523522  1
  Bi  Bi102  1  0.18410930  0.36574504  0.69495232  1
  Bi  Bi103  1  0.88018377  0.10543224  0.16932033  1
  Bi  Bi104  1  -0.05297846  -0.06847129  0.77311924  1
  Bi  Bi105  1  0.15685612  0.02211015  0.38889370  1
  Bi  Bi106  1  0.20144707  0.13410425  0.83239730  1
  Bi  Bi107  1  0.12977606  0.20418678  0.03547014  1
  Bi  Bi108  1  0.45212146  0.15676670  -0.02012007  1
  Bi  Bi109  1  0.43773610  0.27088653  0.71282497  1
  Bi  Bi110  1  0.41312782  0.91148871  0.59511174  1
  Bi  Bi111  1  0.72834803  0.35498009  1.01241780  1
  Bi  Bi112  1  0.70729393  -0.13115006  0.63790494  1
  Bi  Bi113  1  0.83261228  0.25184982  0.48987260  1
  Bi  Bi114  1  -0.04180942  0.47722995  -0.04284583  1
  Bi  Bi115  1  0.68885064  0.60820777  0.69275618  1
  Bi  Bi116  1  0.19059890  0.55863422  0.84929306  1
  Bi  Bi117  1  0.27163105  0.41957713  0.35850357  1
  Bi  Bi118  1  0.36870823  0.86386534  0.85995872  1
  Bi  Bi119  1  0.62171621  0.57140450  0.13572536  1
  Bi  Bi120  1  0.65719763  0.39396995  0.40053248  1
  Bi  Bi121  1  0.05808901  0.07801890  0.58840057  1
  Bi  Bi122  1  0.91560548  -0.07586099  0.34068671  1
  Bi  Bi123  1  0.65928505  0.11996066  0.71343044  1
  Bi  Bi124  1  0.56680050  -0.00977144  0.33172134  1
  Bi  Bi125  1  0.34762967  0.59723194  0.12107217  1
  Bi  Bi126  1  0.83620719  0.36320050  0.73703213  1
  Bi  Bi127  1  0.05436917  0.36537891  0.21162890  1
