# generated using pymatgen
data_Ba51Fe51Bi26
_symmetry_space_group_name_H-M   'P 1'
_cell_length_a   16.25976467
_cell_length_b   16.41978101
_cell_length_c   16.61067302
_cell_angle_alpha   89.98016848
_cell_angle_beta   90.00334488
_cell_angle_gamma   90.04017840
_symmetry_Int_Tables_number   1
_chemical_formula_structural   Ba51Fe51Bi26
_chemical_formula_sum   'Ba51 Fe51 Bi26'
_cell_volume   4434.74560705
_cell_formula_units_Z   1
loop_
 _symmetry_equiv_pos_site_id
 _symmetry_equiv_pos_as_xyz
  1  'x, y, z'
loop_
 _atom_site_type_symbol
 _atom_site_label
 _atom_site_symmetry_multiplicity
 _atom_site_fract_x
 _atom_site_fract_y
 _atom_site_fract_z
 _atom_site_occupancy
  Ba  Ba0  1  0.29503876  -0.12951978  0.55259642  1
  Ba  Ba1  1  0.77447661  0.58999379  0.17879873  1
  Ba  Ba2  1  0.76514090  0.49968486  0.43311997  1
  Ba  Ba3  1  0.70722198  0.77152914  0.31509626  1
  Ba  Ba4  1  -0.12226985  0.58135361  -0.08814762  1
  Ba  Ba5  1  0.00495024  0.45028725  0.52922218  1
  Ba  Ba6  1  0.07028213  0.24896955  0.41036431  1
  Ba  Ba7  1  0.05976339  0.54859027  0.12182861  1
  Ba  Ba8  1  0.57401842  -0.01930964  0.22906633  1
  Ba  Ba9  1  0.49896680  0.29826259  0.82760398  1
  Ba  Ba10  1  0.26628164  0.13556888  0.79837390  1
  Ba  Ba11  1  0.18561414  0.18890839  0.21584768  1
  Ba  Ba12  1  0.68990208  0.38645424  0.65159864  1
  Ba  Ba13  1  0.52094046  0.52764837  0.14227900  1
  Ba  Ba14  1  0.55013393  -0.06469615  0.60297219  1
  Ba  Ba15  1  0.23168762  0.76462821  0.35603963  1
  Ba  Ba16  1  0.20837035  0.52374922  0.70284920  1
  Ba  Ba17  1  0.03333482  -0.04254603  0.11345492  1
  Ba  Ba18  1  -0.04958043  0.71485215  0.30773436  1
  Ba  Ba19  1  0.22959420  0.38539773  0.06095805  1
  Ba  Ba20  1  0.18439783  0.08756056  0.56966870  1
  Ba  Ba21  1  0.32118051  -0.01751933  0.05982194  1
  Ba  Ba22  1  0.62482607  0.57266881  0.79848159  1
  Ba  Ba23  1  -0.08724809  0.20853165  0.21666117  1
  Ba  Ba24  1  0.51643862  0.12651848  0.03916020  1
  Ba  Ba25  1  0.46844625  0.74228537  -0.02228814  1
  Ba  Ba26  1  -0.14922915  0.33728361  -0.15515078  1
  Ba  Ba27  1  0.02815440  0.83041971  0.52237789  1
  Ba  Ba28  1  0.34619421  -0.10192152  0.78976313  1
  Ba  Ba29  1  0.48774409  0.28684439  0.25823984  1
  Ba  Ba30  1  -0.04376949  0.15907685  0.65300565  1
  Ba  Ba31  1  0.08151993  0.33419849  0.79727053  1
  Ba  Ba32  1  0.79300114  0.20769726  0.46213706  1
  Ba  Ba33  1  0.36878242  0.52058044  -0.07870081  1
  Ba  Ba34  1  0.52447572  0.71196773  0.46688197  1
  Ba  Ba35  1  0.83050601  -0.01063944  0.29962460  1
  Ba  Ba36  1  0.43761252  0.72394053  0.24378566  1
  Ba  Ba37  1  0.79357445  -0.03716402  0.55677936  1
  Ba  Ba38  1  0.79215178  0.03690606  0.00619124  1
  Ba  Ba39  1  0.69806056  0.26646806  -0.00142291  1
  Ba  Ba40  1  0.07656119  0.72867092  -0.08579715  1
  Ba  Ba41  1  0.61924536  0.01745262  0.82362143  1
  Ba  Ba42  1  0.23665545  0.51489829  0.32341469  1
  Ba  Ba43  1  0.04233555  -0.09150995  0.75107714  1
  Ba  Ba44  1  0.81719499  0.69250543  0.58959907  1
  Ba  Ba45  1  0.39791262  0.08364579  0.42624172  1
  Ba  Ba46  1  0.45211302  0.67903005  0.69137284  1
  Ba  Ba47  1  0.73211656  0.36085720  0.24559247  1
  Ba  Ba48  1  0.54640113  0.19583602  0.60122450  1
  Ba  Ba49  1  0.34207233  0.37655299  0.52049327  1
  Ba  Ba50  1  0.00438732  0.10153943  -0.09484553  1
  Fe  Fe51  1  0.58337730  0.44705879  0.96261847  1
  Fe  Fe52  1  0.04177296  0.19816690  0.07429728  1
  Fe  Fe53  1  0.46048271  0.53925099  0.54440028  1
  Fe  Fe54  1  0.59683488  0.90386637  0.40679472  1
  Fe  Fe55  1  0.34805522  0.24148779  0.96583187  1
  Fe  Fe56  1  0.26753500  0.70832125  0.65183100  1
  Fe  Fe57  1  0.75482684  0.87876143  0.11868073  1
  Fe  Fe58  1  0.86334008  0.83290920  0.71616026  1
  Fe  Fe59  1  1.06269387  0.02921515  0.30690599  1
  Fe  Fe60  1  0.00356059  0.38747613  0.98421493  1
  Fe  Fe61  1  0.67982330  0.22130997  0.77377886  1
  Fe  Fe62  1  0.93863469  0.41857434  0.21122111  1
  Fe  Fe63  1  0.05810635  0.37619614  0.25882717  1
  Fe  Fe64  1  0.24432043  0.69190616  1.01337772  1
  Fe  Fe65  1  0.69139874  0.45505337  0.05650283  1
  Fe  Fe66  1  0.77285418  0.86705996  0.85297091  1
  Fe  Fe67  1  0.78750821  0.15097312  0.80997537  1
  Fe  Fe68  1  0.77552747  0.22298898  0.67852998  1
  Fe  Fe69  1  0.69687535  0.85438183  0.98463384  1
  Fe  Fe70  1  0.57649248  0.50755112  0.45026888  1
  Fe  Fe71  1  0.14317019  -0.05131776  0.40991263  1
  Fe  Fe72  1  0.44599606  0.07105714  0.73082694  1
  Fe  Fe73  1  0.74359453  0.73607179  0.90900633  1
  Fe  Fe74  1  0.76158290  0.74228199  0.05471395  1
  Fe  Fe75  1  0.17945793  0.83384851  0.05150886  1
  Fe  Fe76  1  0.21448421  0.98864956  0.27778311  1
  Fe  Fe77  1  0.03583400  0.49468560  0.32927029  1
  Fe  Fe78  1  0.28556355  0.77311830  0.11766288  1
  Fe  Fe79  1  0.85270074  0.79991227  0.14800725  1
  Fe  Fe80  1  0.71967134  0.10654764  0.68139563  1
  Fe  Fe81  1  0.53184132  0.42981958  0.55213236  1
  Fe  Fe82  1  0.34881985  0.21383805  0.09147250  1
  Fe  Fe83  1  0.90744001  0.50953703  0.30527807  1
  Fe  Fe84  1  0.58089495  0.58535277  0.32535224  1
  Fe  Fe85  1  0.21119660  0.88069530  0.19040057  1
  Fe  Fe86  1  0.15901031  0.68540834  0.57790537  1
  Fe  Fe87  1  0.02787766  0.33598949  0.11797392  1
  Fe  Fe88  1  0.27913815  0.80973770  0.96134917  1
  Fe  Fe89  1  0.87796515  0.76323171  0.83005900  1
  Fe  Fe90  1  0.71328855  0.45259247  0.92847452  1
  Fe  Fe91  1  1.09727701  0.89234822  0.28853364  1
  Fe  Fe92  1  0.75456214  0.73254209  0.76763338  1
  Fe  Fe93  1  0.93548557  0.26263074  0.01559538  1
  Fe  Fe94  1  0.08255669  0.27924613  0.98028428  1
  Fe  Fe95  1  0.16886816  0.07301470  0.37943903  1
  Fe  Fe96  1  0.15681928  0.74792859  0.70909602  1
  Fe  Fe97  1  0.45109146  0.52586189  0.39912868  1
  Fe  Fe98  1  0.56415903  0.45780254  0.32362313  1
  Fe  Fe99  1  0.72853077  0.85680971  0.71739663  1
  Fe  Fe100  1  0.93235821  0.38226415  0.34770951  1
  Fe  Fe101  1  0.37532060  0.04538109  0.63177035  1
  Bi  Bi102  1  0.84245470  -0.00167254  0.76820697  1
  Bi  Bi103  1  0.08063244  0.62281201  0.44142645  1
  Bi  Bi104  1  0.89002420  0.83943724  -0.01561749  1
  Bi  Bi105  1  -0.00929319  0.70180290  0.71085879  1
  Bi  Bi106  1  0.61329923  0.33460672  0.43831551  1
  Bi  Bi107  1  0.19950002  0.15923904  0.00800783  1
  Bi  Bi108  1  0.28091537  0.69807911  0.82892375  1
  Bi  Bi109  1  0.66353983  0.60963468  -0.00323169  1
  Bi  Bi110  1  -0.01228564  0.04997113  0.45939912  1
  Bi  Bi111  1  0.46861095  0.33912693  0.04424192  1
  Bi  Bi112  1  0.44592940  0.45773927  0.69529851  1
  Bi  Bi113  1  0.59808889  0.80331603  0.81334654  1
  Bi  Bi114  1  0.10968262  0.75024473  0.17585829  1
  Bi  Bi115  1  0.31908729  0.62433208  0.50939746  1
  Bi  Bi116  1  0.69943112  0.15298896  0.18239544  1
  Bi  Bi117  1  0.85680032  0.41251841  0.06408960  1
  Bi  Bi118  1  0.28755723  0.34154755  0.84614154  1
  Bi  Bi119  1  0.09407633  0.50883065  0.91402573  1
  Bi  Bi120  1  0.30922887  0.59108267  0.12981905  1
  Bi  Bi121  1  0.63230356  0.57935203  0.58805381  1
  Bi  Bi122  1  0.38613174  0.10620039  0.21579061  1
  Bi  Bi123  1  0.16589376  0.93953085  0.91820268  1
  Bi  Bi124  1  0.14943933  0.29735515  0.60257949  1
  Bi  Bi125  1  0.61191687  0.78562229  0.13017805  1
  Bi  Bi126  1  0.63536850  0.05997045  0.43985731  1
  Bi  Bi127  1  0.43340515  0.88194583  0.38597784  1
