# generated using pymatgen
data_Ba51Fe51Bi26
_symmetry_space_group_name_H-M   'P 1'
_cell_length_a   16.49162585
_cell_length_b   16.19502481
_cell_length_c   16.25683078
_cell_angle_alpha   92.03562294
_cell_angle_beta   88.44262686
_cell_angle_gamma   92.60817250
_symmetry_Int_Tables_number   1
_chemical_formula_structural   Ba51Fe51Bi26
_chemical_formula_sum   'Ba51 Fe51 Bi26'
_cell_volume   4333.25548278
_cell_formula_units_Z   1
loop_
 _symmetry_equiv_pos_site_id
 _symmetry_equiv_pos_as_xyz
  1  'x, y, z'
loop_
 _atom_site_type_symbol
 _atom_site_label
 _atom_site_symmetry_multiplicity
 _atom_site_fract_x
 _atom_site_fract_y
 _atom_site_fract_z
 _atom_site_occupancy
  Ba  Ba0  1  0.23011190  0.40646915  0.24845194  1
  Ba  Ba1  1  0.52575324  0.30716838  0.22968826  1
  Ba  Ba2  1  0.74011563  0.30255046  0.83555960  1
  Ba  Ba3  1  0.19461617  0.54097921  0.76439099  1
  Ba  Ba4  1  0.73986752  0.71791952  0.18366505  1
  Ba  Ba5  1  -0.05334562  0.47257212  0.74158235  1
  Ba  Ba6  1  0.54182946  -0.01078229  0.45425744  1
  Ba  Ba7  1  0.26221752  -0.04000005  0.77092207  1
  Ba  Ba8  1  0.77311936  0.10177002  0.67984599  1
  Ba  Ba9  1  0.78813035  0.17580786  0.42438803  1
  Ba  Ba10  1  0.75190539  -0.09592301  0.86523007  1
  Ba  Ba11  1  0.03428182  0.05476925  0.73676667  1
  Ba  Ba12  1  0.56573415  0.69091804  0.75313855  1
  Ba  Ba13  1  0.74487240  -0.05504112  0.29692807  1
  Ba  Ba14  1  -0.05026398  0.25651506  -0.02699650  1
  Ba  Ba15  1  0.90589579  0.50341550  0.49090365  1
  Ba  Ba16  1  0.69040774  0.49189255  0.23832016  1
  Ba  Ba17  1  0.50103572  -0.01552536  0.69736435  1
  Ba  Ba18  1  0.01698477  0.51290952  0.21318762  1
  Ba  Ba19  1  0.04670461  0.79209615  0.70843160  1
  Ba  Ba20  1  0.48146743  0.22466583  0.77334016  1
  Ba  Ba21  1  0.49240809  0.76682562  0.54663623  1
  Ba  Ba22  1  0.29671323  0.08950002  0.53131009  1
  Ba  Ba23  1  0.55097135  0.21170283  0.00743212  1
  Ba  Ba24  1  0.39956175  0.68917527  0.00740787  1
  Ba  Ba25  1  0.41357639  0.25960118  0.41361198  1
  Ba  Ba26  1  0.68108672  0.38807349  0.44652124  1
  Ba  Ba27  1  0.07392261  0.69472904  0.37910654  1
  Ba  Ba28  1  -0.05716490  0.76443487  0.01024797  1
  Ba  Ba29  1  0.71642349  0.72737751  0.45557202  1
  Ba  Ba30  1  0.24749049  -0.06046024  0.04769383  1
  Ba  Ba31  1  0.78234877  0.22144924  0.16633053  1
  Ba  Ba32  1  0.17261137  0.16600396  -0.08417589  1
  Ba  Ba33  1  0.63282133  0.02044171  0.09513488  1
  Ba  Ba34  1  0.27992686  0.17272031  0.15970627  1
  Ba  Ba35  1  0.43284715  0.53811838  0.20164538  1
  Ba  Ba36  1  0.17429261  0.72167490  -0.05231694  1
  Ba  Ba37  1  -0.01183173  0.03442116  0.08620401  1
  Ba  Ba38  1  0.35703281  0.39412239  0.64153986  1
  Ba  Ba39  1  0.61237408  0.45105184  0.71081905  1
  Ba  Ba40  1  0.49184087  -0.08824435  -0.06661835  1
  Ba  Ba41  1  0.35521727  0.37203645  -0.02260252  1
  Ba  Ba42  1  0.11909514  0.42313183  -0.00209927  1
  Ba  Ba43  1  0.15600430  0.42183613  0.48413429  1
  Ba  Ba44  1  0.84767175  0.49985320  0.02378197  1
  Ba  Ba45  1  0.26747794  0.76042238  0.22674739  1
  Ba  Ba46  1  -0.03554285  0.00243264  0.50492710  1
  Ba  Ba47  1  0.16162896  -0.01087737  0.34105858  1
  Ba  Ba48  1  0.48903681  0.74570816  0.31091925  1
  Ba  Ba49  1  0.82053105  0.69428421  0.66193215  1
  Ba  Ba50  1  0.24755622  0.75108254  0.53680901  1
  Fe  Fe51  1  0.34130552  1.00109815  0.22085871  1
  Fe  Fe52  1  0.68185539  0.47324148  0.93579637  1
  Fe  Fe53  1  -0.04835325  0.74404949  0.22966368  1
  Fe  Fe54  1  0.50895162  0.47110113  0.36477484  1
  Fe  Fe55  1  0.07693083  0.25241525  0.16464905  1
  Fe  Fe56  1  0.86733585  0.79100079  0.33147447  1
  Fe  Fe57  1  0.60842583  0.12878880  0.58278097  1
  Fe  Fe58  1  0.56719704  0.58082890  0.42918267  1
  Fe  Fe59  1  0.94783308  0.21936696  0.28451680  1
  Fe  Fe60  1  0.05636438  0.31028285  0.31313085  1
  Fe  Fe61  1  0.63505702  0.52223545  0.05818695  1
  Fe  Fe62  1  0.45997308  0.11018057  0.21572416  1
  Fe  Fe63  1  0.50444699  0.53051449  0.00915907  1
  Fe  Fe64  1  0.11445722  0.24128263  0.72484883  1
  Fe  Fe65  1  0.63167438  0.55770557  0.54202784  1
  Fe  Fe66  1  0.43125621  0.02926454  0.10748263  1
  Fe  Fe67  1  0.50761894  0.44975752  0.50671428  1
  Fe  Fe68  1  0.59069600  0.72833060  0.94537103  1
  Fe  Fe69  1  0.53332993  0.31189818  0.56580403  1
  Fe  Fe70  1  0.53743531  0.41229620  0.07238073  1
  Fe  Fe71  1  0.49004465  0.18162675  0.58031607  1
  Fe  Fe72  1  0.43226868  0.57817395  0.46269382  1
  Fe  Fe73  1  1.02704332  0.18534696  0.40919311  1
  Fe  Fe74  1  0.07347280  0.15911442  0.26583521  1
  Fe  Fe75  1  0.26270445  0.73604557  0.74339720  1
  Fe  Fe76  1  0.51013149  0.57488335  0.57865748  1
  Fe  Fe77  1  -0.01959315  0.87087506  0.32905645  1
  Fe  Fe78  1  0.59156276  0.57806167  0.91186918  1
  Fe  Fe79  1  0.97274345  0.31959900  0.18345541  1
  Fe  Fe80  1  1.07451110  0.34114383  0.82198674  1
  Fe  Fe81  1  0.41701334  0.89774298  0.16335176  1
  Fe  Fe82  1  0.20447357  0.33968064  0.79084890  1
  Fe  Fe83  1  0.10486501  0.36472482  0.67485304  1
  Fe  Fe84  1  0.38626814  0.92226086  0.31544562  1
  Fe  Fe85  1  0.59097819  0.20643931  0.47293761  1
  Fe  Fe86  1  0.50234086  0.97780856  0.24357129  1
  Fe  Fe87  1  0.40716361  0.06619436  0.33272217  1
  Fe  Fe88  1  0.38847401  0.79104352  0.72577269  1
  Fe  Fe89  1  0.64621200  0.25776546  0.61097760  1
  Fe  Fe90  1  0.96095540  0.30548013  0.43739343  1
  Fe  Fe91  1  0.99276364  0.32664499  0.59008587  1
  Fe  Fe92  1  0.70912703  0.63486521  0.97836768  1
  Fe  Fe93  1  0.35493899  0.66861775  0.81391387  1
  Fe  Fe94  1  0.69106304  0.77896792  1.01385165  1
  Fe  Fe95  1  0.34429536  0.80126700  0.85584131  1
  Fe  Fe96  1  0.58789684  0.65499503  0.06154561  1
  Fe  Fe97  1  -0.08561320  0.87580905  0.20793755  1
  Fe  Fe98  1  0.94046895  0.20797071  0.54231648  1
  Fe  Fe99  1  0.38503922  0.45728742  0.41371918  1
  Fe  Fe100  1  0.55582059  0.41949595  0.93128905  1
  Fe  Fe101  1  0.66051644  0.37936697  0.03940452  1
  Bi  Bi102  1  0.43596637  0.52002535  -0.15532866  1
  Bi  Bi103  1  -0.13626151  0.36800890  0.31193608  1
  Bi  Bi104  1  0.81401430  0.32388742  0.60018672  1
  Bi  Bi105  1  0.60387063  0.12936395  0.30607245  1
  Bi  Bi106  1  -0.07777392  0.79064979  0.48815940  1
  Bi  Bi107  1  0.76419884  0.56796673  0.82573015  1
  Bi  Bi108  1  0.10724389  0.20309894  0.56053761  1
  Bi  Bi109  1  -0.05870029  0.04637969  0.29758221  1
  Bi  Bi110  1  0.36346988  0.61973663  0.64601644  1
  Bi  Bi111  1  -0.05350658  0.24993048  0.75099976  1
  Bi  Bi112  1  0.55441269  0.81273918  0.11638821  1
  Bi  Bi113  1  0.08362580  0.84269020  0.16982899  1
  Bi  Bi114  1  0.29248337  0.59832287  0.37294246  1
  Bi  Bi115  1  0.20001112  0.22018221  0.36362385  1
  Bi  Bi116  1  0.07086008  0.60335431  0.59329009  1
  Bi  Bi117  1  0.15173060  0.93688436  0.57692373  1
  Bi  Bi118  1  0.67157014  0.86499722  0.63749884  1
  Bi  Bi119  1  0.27387773  0.19340135  0.72699238  1
  Bi  Bi120  1  0.77774174  0.13018663  0.96181337  1
  Bi  Bi121  1  0.86137977  0.61788917  0.31696303  1
  Bi  Bi122  1  0.62436928  0.08030332  0.84706938  1
  Bi  Bi123  1  0.37153020  0.09725848  0.95748980  1
  Bi  Bi124  1  0.80458454  0.90107769  0.08233928  1
  Bi  Bi125  1  0.23317359  0.57010385  0.10307053  1
  Bi  Bi126  1  0.08652928  0.92071358  0.90558775  1
  Bi  Bi127  1  0.86648521  0.90813278  0.68036750  1
