# generated using pymatgen
data_Ba51Fe51Bi26
_symmetry_space_group_name_H-M   'P 1'
_cell_length_a   16.78422152
_cell_length_b   16.43195011
_cell_length_c   16.24719605
_cell_angle_alpha   90.76820872
_cell_angle_beta   90.57598281
_cell_angle_gamma   88.65664462
_symmetry_Int_Tables_number   1
_chemical_formula_structural   Ba51Fe51Bi26
_chemical_formula_sum   'Ba51 Fe51 Bi26'
_cell_volume   4479.08913472
_cell_formula_units_Z   1
loop_
 _symmetry_equiv_pos_site_id
 _symmetry_equiv_pos_as_xyz
  1  'x, y, z'
loop_
 _atom_site_type_symbol
 _atom_site_label
 _atom_site_symmetry_multiplicity
 _atom_site_fract_x
 _atom_site_fract_y
 _atom_site_fract_z
 _atom_site_occupancy
  Ba  Ba0  1  0.77211714  0.21759513  0.03071355  1
  Ba  Ba1  1  0.75481446  -0.03177000  0.23560369  1
  Ba  Ba2  1  0.22195043  -0.09827870  0.47207750  1
  Ba  Ba3  1  0.80727704  0.53616324  0.75456244  1
  Ba  Ba4  1  0.22825280  0.72731520  0.24415659  1
  Ba  Ba5  1  0.50027307  0.12530184  -0.01151897  1
  Ba  Ba6  1  0.73609288  0.26865302  0.30175903  1
  Ba  Ba7  1  -0.00106800  0.78791352  0.54345121  1
  Ba  Ba8  1  0.49068756  0.66840473  0.44224013  1
  Ba  Ba9  1  0.48515600  0.72878979  0.70649628  1
  Ba  Ba10  1  0.78414734  0.74279052  0.13028643  1
  Ba  Ba11  1  0.78134790  0.47618339  0.17717237  1
  Ba  Ba12  1  0.73613069  0.75300438  0.81624841  1
  Ba  Ba13  1  0.66435810  0.48914066  -0.05735610  1
  Ba  Ba14  1  -0.01008983  -0.00714113  0.73472292  1
  Ba  Ba15  1  0.71851760  0.11392894  0.55043607  1
  Ba  Ba16  1  0.70488699  0.74990788  0.56644336  1
  Ba  Ba17  1  0.29166405  -0.00993666  -0.05165514  1
  Ba  Ba18  1  0.05993207  0.03138705  0.02383630  1
  Ba  Ba19  1  -0.07355326  0.25946998  0.74665649  1
  Ba  Ba20  1  0.51636186  -0.06635245  0.50201065  1
  Ba  Ba21  1  0.28160327  0.49735443  0.48978255  1
  Ba  Ba22  1  0.55051670  0.71879891  -0.05590212  1
  Ba  Ba23  1  -0.05138598  0.56099774  0.02663333  1
  Ba  Ba24  1  0.14543645  0.26561352  0.47226691  1
  Ba  Ba25  1  0.75408703  0.48720118  0.44236189  1
  Ba  Ba26  1  0.02443076  0.49316455  0.80143259  1
  Ba  Ba27  1  0.28146698  0.50007956  0.76236147  1
  Ba  Ba28  1  0.11674724  0.72338896  0.76598550  1
  Ba  Ba29  1  0.13903329  0.27459799  0.22368719  1
  Ba  Ba30  1  0.48040156  0.29789929  0.78796451  1
  Ba  Ba31  1  0.21117884  0.00329882  0.23839582  1
  Ba  Ba32  1  0.43481796  0.47062013  0.02690832  1
  Ba  Ba33  1  0.49577109  0.45924328  0.58087691  1
  Ba  Ba34  1  0.27005879  0.11541902  0.64543554  1
  Ba  Ba35  1  0.45067968  0.20168383  0.47074355  1
  Ba  Ba36  1  0.84282134  0.70990132  0.35949149  1
  Ba  Ba37  1  0.19977036  0.62388133  0.01307737  1
  Ba  Ba38  1  0.02010811  0.80394983  -0.03228049  1
  Ba  Ba39  1  0.29771178  0.87964512  0.71906179  1
  Ba  Ba40  1  0.80021794  -0.06901001  -0.04277685  1
  Ba  Ba41  1  0.49328027  0.73479998  0.18639668  1
  Ba  Ba42  1  0.01577548  0.53999345  0.53272952  1
  Ba  Ba43  1  0.25900631  0.30035735  -0.00502846  1
  Ba  Ba44  1  0.27780502  0.48891202  0.23196486  1
  Ba  Ba45  1  0.51605799  0.21822429  0.22799764  1
  Ba  Ba46  1  0.01033951  0.00319994  0.41790725  1
  Ba  Ba47  1  0.02080146  0.27387091  -0.01558836  1
  Ba  Ba48  1  0.71533673  0.11509844  0.78966495  1
  Ba  Ba49  1  0.54589626  0.48787178  0.25368249  1
  Ba  Ba50  1  0.48159791  -0.02665881  0.23545951  1
  Fe  Fe51  1  -0.00354953  0.16205529  0.17604022  1
  Fe  Fe52  1  0.15870330  0.18570437  0.82930636  1
  Fe  Fe53  1  0.74958132  0.29661252  0.63754590  1
  Fe  Fe54  1  0.43028378  0.04326867  0.78563386  1
  Fe  Fe55  1  0.61534069  0.95966723  0.69036506  1
  Fe  Fe56  1  0.86190726  0.79734820  0.68525025  1
  Fe  Fe57  1  0.34591412  0.76586137  0.01687608  1
  Fe  Fe58  1  0.19495701  0.76199941  0.59459496  1
  Fe  Fe59  1  0.35557533  0.31817977  0.18876623  1
  Fe  Fe60  1  0.62898426  0.86284694  0.06562430  1
  Fe  Fe61  1  0.62204527  0.31135255  0.66181094  1
  Fe  Fe62  1  0.93816765  0.81256040  0.78888338  1
  Fe  Fe63  1  0.93260936  0.58716941  0.22643168  1
  Fe  Fe64  1  0.91771685  0.68916582  0.83690964  1
  Fe  Fe65  1  0.32166855  0.25103155  0.29084737  1
  Fe  Fe66  1  0.66320328  0.64705624  0.24270435  1
  Fe  Fe67  1  0.25421873  0.77834697  0.91601685  1
  Fe  Fe68  1  0.56089184  0.02182564  0.81782123  1
  Fe  Fe69  1  0.93994475  0.86132109  0.14346821  1
  Fe  Fe70  1  0.93248237  0.68526202  0.70185761  1
  Fe  Fe71  1  0.61485096  0.45450016  0.73390574  1
  Fe  Fe72  1  0.30948553  0.70477974  0.80890217  1
  Fe  Fe73  1  0.59548102  0.87785020  0.79034860  1
  Fe  Fe74  1  0.13068428  0.32431513  0.81652941  1
  Fe  Fe75  1  0.62435834  -0.01057195  0.06608078  1
  Fe  Fe76  1  0.06041307  0.79705762  0.32800768  1
  Fe  Fe77  1  0.66181756  0.63694900  0.36782059  1
  Fe  Fe78  1  0.62059637  0.59159348  0.75789055  1
  Fe  Fe79  1  0.70053608  0.42953505  0.62354880  1
  Fe  Fe80  1  -0.05692225  0.20639812  0.45583319  1
  Fe  Fe81  1  0.51093734  0.36941077  0.39555229  1
  Fe  Fe82  1  0.11591378  0.22791445  0.70535737  1
  Fe  Fe83  1  0.30602254  0.72316096  0.52772414  1
  Fe  Fe84  1  0.46929214  0.91566119  0.85643014  1
  Fe  Fe85  1  0.30478693  0.67683340  0.65947215  1
  Fe  Fe86  1  0.48398419  0.94151469  0.70528400  1
  Fe  Fe87  1  0.19459259  0.63265166  0.59843151  1
  Fe  Fe88  1  0.24385780  0.28828244  0.75419407  1
  Fe  Fe89  1  0.07509625  0.55689705  0.22398488  1
  Fe  Fe90  1  0.96185286  0.52107312  0.33849474  1
  Fe  Fe91  1  0.38631820  0.80522792  -0.11603907  1
  Fe  Fe92  1  0.06962370  0.86486208  0.19724297  1
  Fe  Fe93  1  0.39859528  0.36374428  0.33146671  1
  Fe  Fe94  1  0.99648425  0.44531901  0.21991097  1
  Fe  Fe95  1  0.02900622  0.65220924  0.32856650  1
  Fe  Fe96  1  -0.03569969  0.20434029  0.32003558  1
  Fe  Fe97  1  0.87900292  0.14318223  0.21857427  1
  Fe  Fe98  1  0.60312118  -0.07039838  0.93348569  1
  Fe  Fe99  1  0.36724129  0.66022239  0.92064508  1
  Fe  Fe100  1  0.94486856  0.84653975  0.27800270  1
  Fe  Fe101  1  0.64805403  0.56675558  0.63281240  1
  Bi  Bi102  1  0.19869269  0.85141885  0.07291671  1
  Bi  Bi103  1  0.48235488  0.53289977  0.82464044  1
  Bi  Bi104  1  0.32935288  0.16661741  0.84549650  1
  Bi  Bi105  1  0.52699199  0.10809637  0.66094734  1
  Bi  Bi106  1  0.15641826  0.68864786  0.43854183  1
  Bi  Bi107  1  0.70780111  0.32790048  0.80542371  1
  Bi  Bi108  1  -0.02307834  0.00482601  0.21158972  1
  Bi  Bi109  1  0.46468834  -0.10083817  0.03290804  1
  Bi  Bi110  1  0.03091533  0.13745877  0.58833982  1
  Bi  Bi111  1  0.11552820  0.45151331  0.35599651  1
  Bi  Bi112  1  0.01494872  0.71187238  0.16269105  1
  Bi  Bi113  1  0.63867261  0.31382461  0.49294135  1
  Bi  Bi114  1  -0.08752196  0.30529798  0.17221250  1
  Bi  Bi115  1  0.83657613  0.10488786  0.37928091  1
  Bi  Bi116  1  0.64351337  0.80070467  0.33609873  1
  Bi  Bi117  1  0.86090286  0.40232319  0.92664928  1
  Bi  Bi118  1  0.37738219  0.82886206  0.35967480  1
  Bi  Bi119  1  0.61267605  0.35022970  0.09651599  1
  Bi  Bi120  1  0.90352470  0.10303287  0.89880900  1
  Bi  Bi121  1  0.86931058  0.40224295  0.60214247  1
  Bi  Bi122  1  0.60749940  0.08020469  0.36852753  1
  Bi  Bi123  1  0.13299976  0.38833424  0.65132217  1
  Bi  Bi124  1  0.33046310  0.14900057  0.14004901  1
  Bi  Bi125  1  0.92983389  0.36185647  0.38934733  1
  Bi  Bi126  1  0.33577236  0.32175250  0.61473007  1
  Bi  Bi127  1  0.11825438  0.44471797  0.08791945  1
