# generated using pymatgen
data_Ba51Fe51Bi26
_symmetry_space_group_name_H-M   'P 1'
_cell_length_a   16.63475833
_cell_length_b   16.62270403
_cell_length_c   16.17423892
_cell_angle_alpha   91.53217347
_cell_angle_beta   93.05415346
_cell_angle_gamma   88.86364551
_symmetry_Int_Tables_number   1
_chemical_formula_structural   Ba51Fe51Bi26
_chemical_formula_sum   'Ba51 Fe51 Bi26'
_cell_volume   4463.70587573
_cell_formula_units_Z   1
loop_
 _symmetry_equiv_pos_site_id
 _symmetry_equiv_pos_as_xyz
  1  'x, y, z'
loop_
 _atom_site_type_symbol
 _atom_site_label
 _atom_site_symmetry_multiplicity
 _atom_site_fract_x
 _atom_site_fract_y
 _atom_site_fract_z
 _atom_site_occupancy
  Ba  Ba0  1  0.07940836  -0.03949991  0.58356047  1
  Ba  Ba1  1  0.73252357  0.60634633  0.51981013  1
  Ba  Ba2  1  0.76760221  0.25051237  -0.12161797  1
  Ba  Ba3  1  0.47028990  -0.11963034  0.08705316  1
  Ba  Ba4  1  0.51384314  0.25195288  0.22120351  1
  Ba  Ba5  1  0.27722135  0.28994401  0.54560599  1
  Ba  Ba6  1  0.51885562  0.06576475  0.90372804  1
  Ba  Ba7  1  0.29531754  0.10646379  0.75596999  1
  Ba  Ba8  1  0.20149862  0.02192183  0.00053047  1
  Ba  Ba9  1  0.31377222  -0.04655228  0.22828315  1
  Ba  Ba10  1  0.63164758  0.12462806  0.38603224  1
  Ba  Ba11  1  0.77013189  0.30139594  0.13110380  1
  Ba  Ba12  1  0.48618749  -0.16655172  0.75968763  1
  Ba  Ba13  1  -0.03600456  0.53684382  0.00725013  1
  Ba  Ba14  1  0.49427344  0.46137182  0.57643708  1
  Ba  Ba15  1  0.31944718  0.72551457  -0.03483949  1
  Ba  Ba16  1  -0.09950851  0.64401772  0.25899396  1
  Ba  Ba17  1  0.78943357  0.42459673  0.33962989  1
  Ba  Ba18  1  0.14028719  0.27870315  -0.00250764  1
  Ba  Ba19  1  0.53097963  0.47942906  0.17923292  1
  Ba  Ba20  1  0.49887553  -0.02338326  0.52926200  1
  Ba  Ba21  1  -0.04068908  -0.03652873  0.34447174  1
  Ba  Ba22  1  0.06538927  0.55404822  0.68132353  1
  Ba  Ba23  1  0.74079549  0.76287320  0.03036629  1
  Ba  Ba24  1  0.55374805  0.26428492  0.70593475  1
  Ba  Ba25  1  0.15762386  0.46812236  0.18484261  1
  Ba  Ba26  1  0.00115515  0.23528130  0.22972720  1
  Ba  Ba27  1  0.69872491  0.05080497  0.73152827  1
  Ba  Ba28  1  0.13267063  0.31931765  0.74676692  1
  Ba  Ba29  1  0.25505147  0.18103138  0.23998952  1
  Ba  Ba30  1  0.27655431  0.04694772  0.46345715  1
  Ba  Ba31  1  0.37707135  0.40102825  0.35697842  1
  Ba  Ba32  1  0.74073836  -0.04592170  0.25611631  1
  Ba  Ba33  1  0.00513829  0.86584206  0.09913733  1
  Ba  Ba34  1  0.04514646  0.17751354  0.46875159  1
  Ba  Ba35  1  -0.08274747  0.19565111  0.66187492  1
  Ba  Ba36  1  0.65000554  0.67030804  0.26346140  1
  Ba  Ba37  1  0.85261796  0.45603751  0.73230703  1
  Ba  Ba38  1  -0.07059537  -0.00779210  0.78027398  1
  Ba  Ba39  1  -0.06698657  0.75776941  0.86241714  1
  Ba  Ba40  1  -0.02783993  0.75285565  0.50383712  1
  Ba  Ba41  1  -0.04052755  0.10604653  0.00044119  1
  Ba  Ba42  1  0.18777048  0.83269931  0.76863500  1
  Ba  Ba43  1  0.39001302  0.29785414  -0.05442264  1
  Ba  Ba44  1  0.24561496  0.72203808  0.22336710  1
  Ba  Ba45  1  0.76189976  0.83883765  0.61598275  1
  Ba  Ba46  1  0.29312270  0.53058398  0.82046927  1
  Ba  Ba47  1  0.36629588  0.69022891  0.54457748  1
  Ba  Ba48  1  0.68532346  0.66129266  0.77725739  1
  Ba  Ba49  1  0.12406284  0.55225340  0.41974009  1
  Ba  Ba50  1  0.72690098  0.31235694  0.53565067  1
  Fe  Fe51  1  0.77119593  0.02548122  0.94596136  1
  Fe  Fe52  1  0.56463007  0.33175185  0.41365593  1
  Fe  Fe53  1  0.75958770  0.12167667  0.56536336  1
  Fe  Fe54  1  0.82602914  0.95364749  0.07437562  1
  Fe  Fe55  1  0.65903346  0.43872200  -0.00079547  1
  Fe  Fe56  1  0.79640204  0.94941461  0.45559395  1
  Fe  Fe57  1  0.50164943  0.25983220  0.49150726  1
  Fe  Fe58  1  0.65465060  0.89652060  0.43605737  1
  Fe  Fe59  1  0.86779646  0.92972513  0.95398924  1
  Fe  Fe60  1  0.13433448  0.03875114  0.32271560  1
  Fe  Fe61  1  0.11719682  1.04208133  0.79811910  1
  Fe  Fe62  1  0.71284876  0.43994041  0.85094126  1
  Fe  Fe63  1  0.47359097  0.58012044  0.90523272  1
  Fe  Fe64  1  0.60256388  0.45805478  0.75468848  1
  Fe  Fe65  1  0.85017868  0.01375803  0.57947172  1
  Fe  Fe66  1  0.07014479  0.37202648  0.51259039  1
  Fe  Fe67  1  0.45879910  0.07006614  0.27367233  1
  Fe  Fe68  1  0.43854162  0.68185760  0.17551190  1
  Fe  Fe69  1  0.58872876  0.37598230  0.87723133  1
  Fe  Fe70  1  0.24619817  0.43908704  0.00009545  1
  Fe  Fe71  1  0.79273520  0.08552415  0.08936006  1
  Fe  Fe72  1  0.22395771  0.85338272  0.51560480  1
  Fe  Fe73  1  0.13844581  0.47189030  0.91955006  1
  Fe  Fe74  1  0.69965913  1.00651203  0.52737406  1
  Fe  Fe75  1  0.16466016  0.90100549  0.38066802  1
  Fe  Fe76  1  0.18129401  0.56332560  0.00901742  1
  Fe  Fe77  1  0.60326284  0.53089581  0.87891567  1
  Fe  Fe78  1  0.63743868  0.76185949  0.43399170  1
  Fe  Fe79  1  0.54705599  0.70050053  0.10527722  1
  Fe  Fe80  1  0.46674996  0.75295224  0.30003024  1
  Fe  Fe81  1  0.51317425  0.46595002  0.97626783  1
  Fe  Fe82  1  0.97733408  0.37065245  0.60169099  1
  Fe  Fe83  1  0.10227425  0.12534307  0.69482432  1
  Fe  Fe84  1  0.53068981  0.66893289  0.41722054  1
  Fe  Fe85  1  0.68975699  0.13145777  1.00805014  1
  Fe  Fe86  1  0.92459474  0.33093600  0.48103423  1
  Fe  Fe87  1  0.46937475  0.60596513  0.04516568  1
  Fe  Fe88  1  0.51373738  0.81336604  0.42625479  1
  Fe  Fe89  1  0.18418221  0.76736223  0.42110563  1
  Fe  Fe90  1  0.67996793  0.12081341  0.16366898  1
  Fe  Fe91  1  0.47860487  0.44935805  0.82103391  1
  Fe  Fe92  1  0.60913374  0.58527588  0.02054209  1
  Fe  Fe93  1  0.57161614  0.12557966  1.08056999  1
  Fe  Fe94  1  0.05971760  0.15547441  0.82446797  1
  Fe  Fe95  1  0.81837857  0.08396057  0.45552841  1
  Fe  Fe96  1  0.09994859  0.03914999  0.19198553  1
  Fe  Fe97  1  0.99941677  0.38665196  0.38742871  1
  Fe  Fe98  1  0.74014084  0.55338975  0.95004147  1
  Fe  Fe99  1  0.79973030  0.43270593  -0.02774241  1
  Fe  Fe100  1  0.12994912  0.91882755  0.24222924  1
  Fe  Fe101  1  0.55614923  0.04725759  0.19112658  1
  Bi  Bi102  1  0.79307589  0.79089653  0.38900244  1
  Bi  Bi103  1  0.57032136  0.74634921  0.58136689  1
  Bi  Bi104  1  0.34168876  0.84173864  0.40092156  1
  Bi  Bi105  1  0.59140497  0.27263250  0.00793829  1
  Bi  Bi106  1  0.54373995  0.72854931  -0.06010011  1
  Bi  Bi107  1  0.40008642  0.60421827  0.32445908  1
  Bi  Bi108  1  0.53795073  -0.07702285  0.30348067  1
  Bi  Bi109  1  -0.04055110  0.44377063  0.22752274  1
  Bi  Bi110  1  0.32687865  0.55968129  0.09666408  1
  Bi  Bi111  1  0.65310386  -0.03124525  0.05467155  1
  Bi  Bi112  1  0.75678205  0.53025207  0.12163843  1
  Bi  Bi113  1  0.48173165  0.59716935  0.73914292  1
  Bi  Bi114  1  -0.06893580  0.50392173  0.49893357  1
  Bi  Bi115  1  0.11771080  0.64889565  0.87849240  1
  Bi  Bi116  1  0.35124311  0.93001477  0.89128430  1
  Bi  Bi117  1  0.16080414  0.71428436  0.58257171  1
  Bi  Bi118  1  0.74957763  0.87597801  0.83830373  1
  Bi  Bi119  1  0.87648733  0.66117072  0.67957167  1
  Bi  Bi120  1  0.32506113  0.35019670  0.13797191  1
  Bi  Bi121  1  0.05834681  0.77649642  0.29966037  1
  Bi  Bi122  1  0.40572455  0.09740831  0.10031665  1
  Bi  Bi123  1  0.16092888  0.33355700  0.36747085  1
  Bi  Bi124  1  0.32093218  0.92563458  0.63683999  1
  Bi  Bi125  1  0.59454484  0.49330367  0.39373886  1
  Bi  Bi126  1  0.93191371  0.32641156  0.00529793  1
  Bi  Bi127  1  0.36208274  0.34352495  0.73490364  1
