# generated using pymatgen
data_Ba51Fe51Bi26
_symmetry_space_group_name_H-M   'P 1'
_cell_length_a   16.41563660
_cell_length_b   16.50337458
_cell_length_c   16.53864850
_cell_angle_alpha   90.80283901
_cell_angle_beta   88.49359355
_cell_angle_gamma   91.37962613
_symmetry_Int_Tables_number   1
_chemical_formula_structural   Ba51Fe51Bi26
_chemical_formula_sum   'Ba51 Fe51 Bi26'
_cell_volume   4477.29332193
_cell_formula_units_Z   1
loop_
 _symmetry_equiv_pos_site_id
 _symmetry_equiv_pos_as_xyz
  1  'x, y, z'
loop_
 _atom_site_type_symbol
 _atom_site_label
 _atom_site_symmetry_multiplicity
 _atom_site_fract_x
 _atom_site_fract_y
 _atom_site_fract_z
 _atom_site_occupancy
  Ba  Ba0  1  0.26440390  0.78032090  0.25660937  1
  Ba  Ba1  1  0.48369567  0.50021327  0.45566234  1
  Ba  Ba2  1  0.03519761  0.01064463  0.52862648  1
  Ba  Ba3  1  0.55486010  0.77155085  0.23643062  1
  Ba  Ba4  1  -0.08470174  -0.03838095  0.23923205  1
  Ba  Ba5  1  0.27170834  0.11408844  0.51480881  1
  Ba  Ba6  1  0.58188924  0.53097992  0.72218566  1
  Ba  Ba7  1  0.18424203  0.05564621  0.28153846  1
  Ba  Ba8  1  0.29663619  0.45050421  0.27909670  1
  Ba  Ba9  1  0.33915543  0.50268507  0.82407008  1
  Ba  Ba10  1  0.80746383  0.39814268  0.80005013  1
  Ba  Ba11  1  0.14970840  0.02763585  0.00644451  1
  Ba  Ba12  1  0.38377693  0.75217816  0.72513437  1
  Ba  Ba13  1  0.21833365  0.02835630  0.75047998  1
  Ba  Ba14  1  0.77489295  0.81945552  -0.04387280  1
  Ba  Ba15  1  0.43983141  -0.04361622  0.41808852  1
  Ba  Ba16  1  0.22784380  0.27988361  0.09709213  1
  Ba  Ba17  1  0.01231077  0.23165109  0.27468291  1
  Ba  Ba18  1  -0.01655835  -0.11564973  0.78309941  1
  Ba  Ba19  1  0.65511976  0.00567700  0.18850426  1
  Ba  Ba20  1  0.24586505  0.53206401  0.50061682  1
  Ba  Ba21  1  0.41214353  0.17995828  0.27712627  1
  Ba  Ba22  1  0.07194810  0.71764733  0.53215528  1
  Ba  Ba23  1  0.46979522  0.24299570  0.71333112  1
  Ba  Ba24  1  0.31242918  0.63549716  0.06151514  1
  Ba  Ba25  1  0.71875768  0.47950873  0.01422041  1
  Ba  Ba26  1  0.44479869  -0.00130096  0.07098729  1
  Ba  Ba27  1  0.46162423  -0.02804099  0.80926499  1
  Ba  Ba28  1  0.50563740  0.54282242  0.16814895  1
  Ba  Ba29  1  0.67034637  -0.20151109  0.72651078  1
  Ba  Ba30  1  -0.08924003  0.16267946  0.77136534  1
  Ba  Ba31  1  0.43534812  0.22170377  -0.04314725  1
  Ba  Ba32  1  0.74507098  0.26689475  0.41426630  1
  Ba  Ba33  1  0.09901390  0.49113588  0.13705353  1
  Ba  Ba34  1  0.71721531  0.49237728  0.47733627  1
  Ba  Ba35  1  0.65841247  0.14386282  0.80631708  1
  Ba  Ba36  1  0.56349298  0.72611511  0.48411942  1
  Ba  Ba37  1  -0.05267430  0.64530588  -0.03912588  1
  Ba  Ba38  1  -0.03743545  0.50764445  0.40037192  1
  Ba  Ba39  1  0.18427126  0.76448949  0.89107236  1
  Ba  Ba40  1  0.70409159  0.04954357  0.54255562  1
  Ba  Ba41  1  0.31321685  0.75498472  0.49626662  1
  Ba  Ba42  1  0.20246379  0.32883494  0.57076700  1
  Ba  Ba43  1  0.48527209  0.26124555  0.49032112  1
  Ba  Ba44  1  0.85168455  0.05796803  0.02033501  1
  Ba  Ba45  1  -0.05161998  0.27788756  0.54375356  1
  Ba  Ba46  1  -0.12673264  0.33619245  0.12365964  1
  Ba  Ba47  1  0.06003243  0.46718582  0.75356895  1
  Ba  Ba48  1  -0.01227352  0.72136167  0.22967259  1
  Ba  Ba49  1  0.22745813  0.27480180  0.80253317  1
  Ba  Ba50  1  0.80731146  0.78162678  0.47832958  1
  Fe  Fe51  1  0.65251493  0.33415470  0.69612325  1
  Fe  Fe52  1  0.62726057  0.21407459  0.23751782  1
  Fe  Fe53  1  0.04681141  0.31147581  0.03516039  1
  Fe  Fe54  1  0.53309043  0.39178063  1.01925890  1
  Fe  Fe55  1  0.65976653  0.46060074  0.22714899  1
  Fe  Fe56  1  0.12404460  0.37876284  -0.05867290  1
  Fe  Fe57  1  0.12100856  0.22333093  0.95303304  1
  Fe  Fe58  1  0.78178211  0.62276839  0.66052145  1
  Fe  Fe59  1  0.21661500  0.25240815  0.29296440  1
  Fe  Fe60  1  0.03633326  0.29098826  0.87162754  1
  Fe  Fe61  1  0.02364436  0.17416187  0.05945624  1
  Fe  Fe62  1  0.12241965  0.78473478  1.09451689  1
  Fe  Fe63  1  0.85943409  0.61116649  0.54705567  1
  Fe  Fe64  1  0.40024220  0.58482414  0.61732834  1
  Fe  Fe65  1  0.28619838  0.29408196  0.39803700  1
  Fe  Fe66  1  0.15185866  0.21939084  0.40737808  1
  Fe  Fe67  1  1.02104302  0.14231266  0.92358842  1
  Fe  Fe68  1  0.70405817  0.22817670  0.11378055  1
  Fe  Fe69  1  0.32953839  -0.07288518  0.60511114  1
  Fe  Fe70  1  0.80907767  0.60903758  0.29499617  1
  Fe  Fe71  1  0.78001306  0.47005660  0.28118917  1
  Fe  Fe72  1  0.88056296  0.58039769  0.74553851  1
  Fe  Fe73  1  -0.04562005  0.57989906  0.62630941  1
  Fe  Fe74  1  0.71667000  0.32999039  0.23295357  1
  Fe  Fe75  1  0.53779410  0.82032653  0.89021495  1
  Fe  Fe76  1  0.67531458  0.58719625  0.31599935  1
  Fe  Fe77  1  0.14970516  0.34992544  0.38368861  1
  Fe  Fe78  1  0.60472965  0.34228876  0.14207357  1
  Fe  Fe79  1  0.40406372  0.42395200  0.00890760  1
  Fe  Fe80  1  -0.15323920  0.48720676  0.62407582  1
  Fe  Fe81  1  0.55144296  0.20284787  0.11401885  1
  Fe  Fe82  1  0.89931327  0.71335032  0.64364506  1
  Fe  Fe83  1  0.16285077  0.89352928  0.40093566  1
  Fe  Fe84  1  0.62151905  0.28058881  1.00176950  1
  Fe  Fe85  1  0.63592798  0.14014491  1.02118241  1
  Fe  Fe86  1  0.76261672  0.23495251  0.65702413  1
  Fe  Fe87  1  0.22742976  0.92528270  0.52293541  1
  Fe  Fe88  1  0.76258166  0.36142340  0.61210950  1
  Fe  Fe89  1  0.94361844  0.24766549  0.96170887  1
  Fe  Fe90  1  0.72031226  0.58469278  0.18466528  1
  Fe  Fe91  1  0.10709435  0.90291608  0.14358785  1
  Fe  Fe92  1  0.43022588  0.80192871  0.08431773  1
  Fe  Fe93  1  0.59836306  0.70045535  0.91100096  1
  Fe  Fe94  1  0.49827023  0.70223940  0.02113527  1
  Fe  Fe95  1  0.80923500  0.67724414  0.13806926  1
  Fe  Fe96  1  0.65079147  0.25323629  0.59269544  1
  Fe  Fe97  1  0.40918682  0.81630393  0.95513333  1
  Fe  Fe98  1  0.56092748  0.82844690  0.02065883  1
  Fe  Fe99  1  0.10359876  0.87995385  0.27337546  1
  Fe  Fe100  1  0.85286743  0.71752003  0.76796723  1
  Fe  Fe101  1  0.45069927  0.70001874  0.89527242  1
  Bi  Bi102  1  0.76395697  0.76346918  0.27168382  1
  Bi  Bi103  1  0.62811060  -0.02189501  -0.04532371  1
  Bi  Bi104  1  0.89507621  0.54023861  0.16641300  1
  Bi  Bi105  1  0.42810342  0.33468231  0.14158285  1
  Bi  Bi106  1  0.73774912  0.62012495  0.84222060  1
  Bi  Bi107  1  0.56630763  0.35956136  0.31980153  1
  Bi  Bi108  1  0.50228606  0.54852755  -0.05171665  1
  Bi  Bi109  1  0.77615654  0.23817876  -0.04945592  1
  Bi  Bi110  1  0.02353299  0.67885544  0.75583347  1
  Bi  Bi111  1  -0.03904077  0.42780125  -0.05279116  1
  Bi  Bi112  1  0.80303048  0.16187641  0.22847366  1
  Bi  Bi113  1  0.27385713  0.86334662  0.06007321  1
  Bi  Bi114  1  0.65819401  0.68554759  0.06915968  1
  Bi  Bi115  1  0.39074246  0.41886634  0.63309894  1
  Bi  Bi116  1  0.18993088  0.84107915  0.66811294  1
  Bi  Bi117  1  0.65387235  0.90504016  0.38729230  1
  Bi  Bi118  1  0.14576209  0.60860993  0.33449043  1
  Bi  Bi119  1  0.58840370  0.10990925  0.37160406  1
  Bi  Bi120  1  0.16095717  0.54387783  0.93588913  1
  Bi  Bi121  1  0.40084312  0.64184369  0.33444034  1
  Bi  Bi122  1  0.99574401  0.86616709  0.01238363  1
  Bi  Bi123  1  0.88811869  0.10620153  0.41011434  1
  Bi  Bi124  1  0.99597587  0.85326883  0.39831091  1
  Bi  Bi125  1  0.58488636  0.35561768  0.85365771  1
  Bi  Bi126  1  0.49775179  0.89431856  0.61098843  1
  Bi  Bi127  1  0.09654732  0.16810794  0.66033899  1
