# generated using pymatgen
data_Ba51Fe51Bi26
_symmetry_space_group_name_H-M   'P 1'
_cell_length_a   16.28167019
_cell_length_b   16.45268102
_cell_length_c   16.01716343
_cell_angle_alpha   89.76018685
_cell_angle_beta   89.86501475
_cell_angle_gamma   87.64249869
_symmetry_Int_Tables_number   1
_chemical_formula_structural   Ba51Fe51Bi26
_chemical_formula_sum   'Ba51 Fe51 Bi26'
_cell_volume   4286.95239857
_cell_formula_units_Z   1
loop_
 _symmetry_equiv_pos_site_id
 _symmetry_equiv_pos_as_xyz
  1  'x, y, z'
loop_
 _atom_site_type_symbol
 _atom_site_label
 _atom_site_symmetry_multiplicity
 _atom_site_fract_x
 _atom_site_fract_y
 _atom_site_fract_z
 _atom_site_occupancy
  Ba  Ba0  1  0.58100873  0.43734805  0.03521031  1
  Ba  Ba1  1  0.70665785  0.61070205  0.83482581  1
  Ba  Ba2  1  0.07083252  0.41795045  0.76254801  1
  Ba  Ba3  1  -0.09027784  0.55178895  -0.04930849  1
  Ba  Ba4  1  0.47351656  0.60263910  0.21928574  1
  Ba  Ba5  1  0.40023590  0.55294787  -0.08935020  1
  Ba  Ba6  1  0.61301774  0.82992678  0.92354709  1
  Ba  Ba7  1  0.80593939  0.42943594  0.51878574  1
  Ba  Ba8  1  0.21641491  -0.02506300  0.58321540  1
  Ba  Ba9  1  0.00506251  0.27980238  0.13929041  1
  Ba  Ba10  1  0.45335220  0.83373843  0.30608862  1
  Ba  Ba11  1  -0.04950526  0.49657983  0.22959435  1
  Ba  Ba12  1  0.56795070  0.53781233  0.60969439  1
  Ba  Ba13  1  0.23327294  -0.06703667  0.87944542  1
  Ba  Ba14  1  0.68085217  0.08098304  0.55374448  1
  Ba  Ba15  1  0.17596339  0.56743340  0.27772125  1
  Ba  Ba16  1  0.62989328  0.25465865  -0.09762748  1
  Ba  Ba17  1  0.66961792  0.72522845  0.26985764  1
  Ba  Ba18  1  0.11874797  0.18315574  0.32978348  1
  Ba  Ba19  1  0.34076379  0.09853439  0.08968780  1
  Ba  Ba20  1  0.19845479  0.24134898  0.55356082  1
  Ba  Ba21  1  0.42347734  0.35302668  0.49305639  1
  Ba  Ba22  1  0.72533884  0.74024507  0.52559679  1
  Ba  Ba23  1  -0.06844628  0.12725815  0.49786802  1
  Ba  Ba24  1  0.78134091  -0.04169848  0.30961628  1
  Ba  Ba25  1  -0.10793084  0.15830588  0.79408174  1
  Ba  Ba26  1  0.05841304  -0.18494010  -0.01649804  1
  Ba  Ba27  1  0.17385095  0.17701293  0.80092793  1
  Ba  Ba28  1  0.03291399  0.50362457  0.50880356  1
  Ba  Ba29  1  0.54759562  0.05019521  -0.01733994  1
  Ba  Ba30  1  -0.05007409  0.74559072  0.28091085  1
  Ba  Ba31  1  0.47679272  0.35168755  0.26251706  1
  Ba  Ba32  1  0.45616470  0.85108453  0.57337617  1
  Ba  Ba33  1  0.80766406  0.77971241  0.06935135  1
  Ba  Ba34  1  0.16222122  0.48721501  -0.00436103  1
  Ba  Ba35  1  0.79171594  0.38311778  0.76238634  1
  Ba  Ba36  1  0.04377714  0.68368505  0.75714194  1
  Ba  Ba37  1  0.52843176  0.06354799  0.26381204  1
  Ba  Ba38  1  0.25463339  0.35095312  0.19704838  1
  Ba  Ba39  1  0.39151071  0.76580661  0.78903182  1
  Ba  Ba40  1  0.19530797  0.78196893  0.22008768  1
  Ba  Ba41  1  0.73517373  -0.09802191  0.73358371  1
  Ba  Ba42  1  -0.00570071  0.73805596  0.52360598  1
  Ba  Ba43  1  0.05618568  0.01850393  0.14787714  1
  Ba  Ba44  1  0.28081540  0.55246693  0.66546527  1
  Ba  Ba45  1  0.27049378  -0.01549423  0.30249040  1
  Ba  Ba46  1  0.46827398  0.25310477  0.72256581  1
  Ba  Ba47  1  0.43907753  0.08627595  0.49781775  1
  Ba  Ba48  1  -0.01072740  -0.07069570  0.72780408  1
  Ba  Ba49  1  0.72127659  0.46441321  0.22941118  1
  Ba  Ba50  1  0.71686845  0.23373622  0.30706276  1
  Fe  Fe51  1  0.36647764  0.96301530  0.72320369  1
  Fe  Fe52  1  0.07127341  0.37454806  0.35090792  1
  Fe  Fe53  1  0.81791673  0.23189572  0.97698021  1
  Fe  Fe54  1  0.79773421  0.24548168  0.60646676  1
  Fe  Fe55  1  0.17536664  0.20560816  0.10108263  1
  Fe  Fe56  1  0.44967726  0.35492867  0.90947797  1
  Fe  Fe57  1  0.75902908  1.08322744  0.92192245  1
  Fe  Fe58  1  0.35739026  0.51124464  0.36788987  1
  Fe  Fe59  1  0.26263341  0.26058969  0.99503940  1
  Fe  Fe60  1  0.42896079  0.27163047  0.04441876  1
  Fe  Fe61  1  0.84052141  0.35472316  0.08428467  1
  Fe  Fe62  1  0.64965196  0.54703370  0.40251171  1
  Fe  Fe63  1  0.03105477  0.93431606  0.49749162  1
  Fe  Fe64  1  0.81761292  0.05550140  0.13649099  1
  Fe  Fe65  1  0.37288572  0.78540585  0.13063640  1
  Fe  Fe66  1  0.40514774  0.56161196  0.48687196  1
  Fe  Fe67  1  0.85650697  0.96315986  0.91703351  1
  Fe  Fe68  1  0.70354536  0.21918495  0.69090259  1
  Fe  Fe69  1  0.30875011  0.89411612  0.07367913  1
  Fe  Fe70  1  0.28741895  0.80044119  0.43701810  1
  Fe  Fe71  1  0.72125298  0.29186917  0.08543906  1
  Fe  Fe72  1  0.34956407  0.37545798  0.00470122  1
  Fe  Fe73  1  0.61942940  0.41988732  0.41344530  1
  Fe  Fe74  1  0.89655328  0.95593227  0.04742188  1
  Fe  Fe75  1  0.06983172  -0.10985592  0.33440415  1
  Fe  Fe76  1  0.41951041  0.86272403  0.98570084  1
  Fe  Fe77  1  0.14529194  0.84799514  0.44409350  1
  Fe  Fe78  1  0.87681682  0.09488223  0.00725025  1
  Fe  Fe79  1  0.48489939  0.04709283  0.69327004  1
  Fe  Fe80  1  0.48245305  0.96111451  0.79845552  1
  Fe  Fe81  1  0.78119628  0.37472483  0.96827459  1
  Fe  Fe82  1  0.34108535  0.68976495  0.51899125  1
  Fe  Fe83  1  0.51736856  0.79341291  0.10137689  1
  Fe  Fe84  1  0.33787161  0.66261492  0.37587067  1
  Fe  Fe85  1  0.72182102  0.13836632  0.05725548  1
  Fe  Fe86  1  0.12043648  0.27789389  -0.02678360  1
  Fe  Fe87  1  0.38528699  0.23959079  0.91544319  1
  Fe  Fe88  1  0.83288576  0.20207597  0.12082469  1
  Fe  Fe89  1  0.25868892  0.57092610  0.46522125  1
  Fe  Fe90  1  0.94690404  0.89302783  0.40280139  1
  Fe  Fe91  1  0.19785949  0.70313978  0.44138248  1
  Fe  Fe92  1  0.11340696  -0.00164759  0.41208368  1
  Fe  Fe93  1  0.43844643  0.71865351  1.01722572  1
  Fe  Fe94  1  0.50829624  0.50525549  0.39366835  1
  Fe  Fe95  1  0.45101121  0.91474770  0.11630621  1
  Fe  Fe96  1  0.14646404  0.14389544  0.99100315  1
  Fe  Fe97  1  0.99143799  0.00899025  0.35363093  1
  Fe  Fe98  1  0.35164400  0.08836482  0.68165376  1
  Fe  Fe99  1  0.29972896  0.77040110  0.99651900  1
  Fe  Fe100  1  0.75147006  0.98602787  0.02997429  1
  Fe  Fe101  1  0.03355908  0.31712162  0.46217065  1
  Bi  Bi102  1  0.57423793  0.21968132  0.12366430  1
  Bi  Bi103  1  0.20881365  0.76419872  0.60563435  1
  Bi  Bi104  1  0.30103051  0.63053766  0.09548914  1
  Bi  Bi105  1  0.22177644  0.40948274  0.42323004  1
  Bi  Bi106  1  0.37212997  0.08588215  0.85294984  1
  Bi  Bi107  1  0.63454065  0.30180078  0.55101180  1
  Bi  Bi108  1  1.02570738  0.03167979  -0.07323705  1
  Bi  Bi109  1  0.28241885  0.36529135  -0.15932523  1
  Bi  Bi110  1  -0.14175576  -0.07744082  0.54641081  1
  Bi  Bi111  1  0.63002552  0.90882653  0.14102042  1
  Bi  Bi112  1  -0.04592525  0.33482804  -0.07150300  1
  Bi  Bi113  1  0.52265387  0.67240179  0.43749351  1
  Bi  Bi114  1  0.90612616  0.12761968  0.26537742  1
  Bi  Bi115  1  0.59498350  0.74124061  0.70711999  1
  Bi  Bi116  1  0.82094543  0.60046723  0.38000395  1
  Bi  Bi117  1  0.03090919  0.64624652  0.10643977  1
  Bi  Bi118  1  0.63179123  0.08480000  0.77445094  1
  Bi  Bi119  1  0.87106624  0.78904563  0.86404230  1
  Bi  Bi120  1  0.90635616  0.32988144  0.35046326  1
  Bi  Bi121  1  0.21712949  0.67851743  0.87617417  1
  Bi  Bi122  1  0.56127409  0.44144261  0.80851701  1
  Bi  Bi123  1  0.89470666  0.55753134  0.69031016  1
  Bi  Bi124  1  0.61366255  0.65170698  1.05178568  1
  Bi  Bi125  1  0.97122326  0.29399659  0.62516604  1
  Bi  Bi126  1  0.60067260  0.92820922  0.42858753  1
  Bi  Bi127  1  0.34326355  0.19035257  0.33063682  1
