# generated using pymatgen
data_Ba51Fe51Bi26
_symmetry_space_group_name_H-M   'P 1'
_cell_length_a   16.38002175
_cell_length_b   16.05814360
_cell_length_c   16.56281995
_cell_angle_alpha   90.16014595
_cell_angle_beta   90.07060908
_cell_angle_gamma   86.10334969
_symmetry_Int_Tables_number   1
_chemical_formula_structural   Ba51Fe51Bi26
_chemical_formula_sum   'Ba51 Fe51 Bi26'
_cell_volume   4346.47331507
_cell_formula_units_Z   1
loop_
 _symmetry_equiv_pos_site_id
 _symmetry_equiv_pos_as_xyz
  1  'x, y, z'
loop_
 _atom_site_type_symbol
 _atom_site_label
 _atom_site_symmetry_multiplicity
 _atom_site_fract_x
 _atom_site_fract_y
 _atom_site_fract_z
 _atom_site_occupancy
  Ba  Ba0  1  0.12604591  0.47609036  0.52532315  1
  Ba  Ba1  1  0.15413471  0.67381875  0.33596700  1
  Ba  Ba2  1  0.83890577  0.76670757  0.29504820  1
  Ba  Ba3  1  0.72568225  0.68502546  0.74765220  1
  Ba  Ba4  1  0.76912345  0.16267360  0.71313307  1
  Ba  Ba5  1  0.51367826  0.66102669  0.58283160  1
  Ba  Ba6  1  0.19503691  0.51922452  0.11982897  1
  Ba  Ba7  1  0.78639823  0.01933581  0.46409261  1
  Ba  Ba8  1  0.52292191  0.28104194  0.18289013  1
  Ba  Ba9  1  -0.13510586  0.51114478  0.56550578  1
  Ba  Ba10  1  0.06707524  0.51076933  0.83017431  1
  Ba  Ba11  1  0.26068071  0.57815489  0.69588116  1
  Ba  Ba12  1  0.78940889  0.44403712  0.78689473  1
  Ba  Ba13  1  0.84942305  0.20848819  0.24524844  1
  Ba  Ba14  1  0.09061754  0.21830623  0.26336664  1
  Ba  Ba15  1  0.31547419  0.01128633  -0.09843838  1
  Ba  Ba16  1  0.46749900  -0.02139690  0.24798345  1
  Ba  Ba17  1  0.55625980  0.69211275  0.33768265  1
  Ba  Ba18  1  0.59032393  0.29322929  -0.09597848  1
  Ba  Ba19  1  0.74492975  0.71545708  0.02756502  1
  Ba  Ba20  1  0.64014350  0.23543770  0.38419325  1
  Ba  Ba21  1  0.69955219  -0.01546403  0.20485789  1
  Ba  Ba22  1  0.40914139  0.17241861  0.44561214  1
  Ba  Ba23  1  0.77806372  0.40586252  0.06603958  1
  Ba  Ba24  1  0.52675061  0.57485185  0.11473988  1
  Ba  Ba25  1  0.50250265  0.09626072  0.01356914  1
  Ba  Ba26  1  0.08407034  0.80475981  0.82469188  1
  Ba  Ba27  1  0.79187640  0.51663421  0.30596544  1
  Ba  Ba28  1  0.44325484  -0.11419061  0.46837171  1
  Ba  Ba29  1  0.43177220  0.42870611  0.58125201  1
  Ba  Ba30  1  -0.00884166  0.21575992  0.50906700  1
  Ba  Ba31  1  0.32626418  0.42839516  0.87481163  1
  Ba  Ba32  1  0.01386107  0.71601914  0.03027284  1
  Ba  Ba33  1  0.52059069  0.58340446  0.84982793  1
  Ba  Ba34  1  0.12373746  -0.00705976  0.07373239  1
  Ba  Ba35  1  0.39250595  0.05674857  0.68522816  1
  Ba  Ba36  1  0.00181074  0.27165172  0.75507020  1
  Ba  Ba37  1  0.73715244  0.02879744  -0.04692404  1
  Ba  Ba38  1  0.52713505  0.87437853  0.69446529  1
  Ba  Ba39  1  0.64317160  0.46163224  0.48910804  1
  Ba  Ba40  1  0.32839351  0.77536618  0.79396451  1
  Ba  Ba41  1  0.30173663  0.30210397  0.26557188  1
  Ba  Ba42  1  0.27454430  0.24520311  0.02508002  1
  Ba  Ba43  1  0.75072704  -0.08151184  0.70435549  1
  Ba  Ba44  1  0.20797670  0.03376358  0.52034658  1
  Ba  Ba45  1  0.90853085  0.76160309  0.52521997  1
  Ba  Ba46  1  0.21453741  -0.08439550  0.28675536  1
  Ba  Ba47  1  -0.04519804  0.04132690  0.89487023  1
  Ba  Ba48  1  0.34335943  0.75231370  0.06565661  1
  Ba  Ba49  1  0.54185958  0.21940238  0.65041299  1
  Ba  Ba50  1  0.00498198  -0.04129854  0.62740619  1
  Fe  Fe51  1  0.26607477  0.80531777  0.49028727  1
  Fe  Fe52  1  -0.01671948  0.41627368  0.37207513  1
  Fe  Fe53  1  0.47311658  0.90383539  0.04364432  1
  Fe  Fe54  1  0.91965369  0.68036700  0.83495245  1
  Fe  Fe55  1  0.58626530  0.03182390  0.41213102  1
  Fe  Fe56  1  0.44416042  0.39428655  0.36566349  1
  Fe  Fe57  1  0.18562157  0.70710016  0.54109202  1
  Fe  Fe58  1  0.06312068  0.02667078  0.37675718  1
  Fe  Fe59  1  0.98192907  0.22926967  0.95801978  1
  Fe  Fe60  1  0.18344677  0.81577200  0.62722845  1
  Fe  Fe61  1  0.91530563  0.63435043  0.71171080  1
  Fe  Fe62  1  0.31082378  0.87157215  0.61727758  1
  Fe  Fe63  1  0.68065509  0.35650977  0.65280340  1
  Fe  Fe64  1  0.07576290  0.36267228  0.05284607  1
  Fe  Fe65  1  0.31960437  0.28079201  0.70712398  1
  Fe  Fe66  1  0.21399266  0.37963593  0.69897327  1
  Fe  Fe67  1  0.22690893  1.16451948  0.73481645  1
  Fe  Fe68  1  0.98705698  0.14760521  0.10418610  1
  Fe  Fe69  1  0.57056737  0.40113151  0.73773250  1
  Fe  Fe70  1  0.16409001  0.26532920  0.64674582  1
  Fe  Fe71  1  0.73233608  0.26015358  0.54843563  1
  Fe  Fe72  1  0.44270632  0.84772512  0.92360991  1
  Fe  Fe73  1  0.65643719  0.84618493  0.52262826  1
  Fe  Fe74  1  0.91821689  0.76969384  0.72522074  1
  Fe  Fe75  1  0.95884873  0.37654479  0.94451788  1
  Fe  Fe76  1  -0.02290953  0.46776803  0.05127216  1
  Fe  Fe77  1  0.20142198  0.28575932  0.80822963  1
  Fe  Fe78  1  0.32382404  0.73693203  0.59655098  1
  Fe  Fe79  1  0.28341601  0.20235042  0.59894891  1
  Fe  Fe80  1  0.41056523  0.46774112  0.24520594  1
  Fe  Fe81  1  0.89275038  0.97758999  0.27423157  1
  Fe  Fe82  1  0.55107411  0.77667113  0.85200758  1
  Fe  Fe83  1  0.54424479  0.92791976  0.89861239  1
  Fe  Fe84  1  0.61449102  0.89093994  0.01647969  1
  Fe  Fe85  1  0.08735779  0.21438658  0.04329287  1
  Fe  Fe86  1  0.55054964  0.77200393  -0.01451860  1
  Fe  Fe87  1  0.93923610  0.07600644  0.36616825  1
  Fe  Fe88  1  0.63589418  0.90187284  0.40265419  1
  Fe  Fe89  1  0.10036576  0.31653091  0.92284743  1
  Fe  Fe90  1  0.82090263  0.32384256  0.60914839  1
  Fe  Fe91  1  0.97857359  0.92121776  0.36507631  1
  Fe  Fe92  1  0.27249448  0.33716470  0.57579380  1
  Fe  Fe93  1  0.31103152  0.49136386  0.34776438  1
  Fe  Fe94  1  0.01115520  1.03112587  0.23952220  1
  Fe  Fe95  1  0.60346966  -0.01873550  0.53358377  1
  Fe  Fe96  1  0.66037696  0.83535699  0.89030560  1
  Fe  Fe97  1  0.86781773  0.18458488  0.04255898  1
  Fe  Fe98  1  0.62420959  0.49852123  0.68176461  1
  Fe  Fe99  1  0.44140046  0.53368597  0.37966219  1
  Fe  Fe100  1  0.95349393  0.29914967  0.07819722  1
  Fe  Fe101  1  0.35115996  -0.04169176  0.08410413  1
  Bi  Bi102  1  -0.10623911  0.01163459  0.10668337  1
  Bi  Bi103  1  0.31764751  0.60296921  0.48728889  1
  Bi  Bi104  1  -0.03210963  0.40126182  0.20511543  1
  Bi  Bi105  1  0.19741903  0.24964747  0.45883779  1
  Bi  Bi106  1  0.06563464  0.67536579  0.65522294  1
  Bi  Bi107  1  0.02128316  0.84912592  0.21625092  1
  Bi  Bi108  1  0.82445579  0.25588459  -0.10608850  1
  Bi  Bi109  1  0.57040069  0.79999603  0.15343534  1
  Bi  Bi110  1  -0.11843392  0.55406474  -0.06334565  1
  Bi  Bi111  1  0.20058229  -0.03818516  0.72363738  1
  Bi  Bi112  1  0.14104540  0.44765266  0.31574119  1
  Bi  Bi113  1  0.13461305  0.14564598  -0.10972217  1
  Bi  Bi114  1  0.58581957  0.45426015  0.28686549  1
  Bi  Bi115  1  0.21794698  0.63543634  0.92113409  1
  Bi  Bi116  1  0.89386373  0.59508745  0.14365747  1
  Bi  Bi117  1  0.39179523  0.41791477  0.07918289  1
  Bi  Bi118  1  0.29006538  0.09017400  0.17781344  1
  Bi  Bi119  1  0.85162357  0.83651794  0.87853654  1
  Bi  Bi120  1  0.69514844  0.19196654  0.09306936  1
  Bi  Bi121  1  0.82934580  0.33851620  0.43087502  1
  Bi  Bi122  1  0.38699585  0.21280998  0.84354939  1
  Bi  Bi123  1  0.35683405  0.63684155  0.25047778  1
  Bi  Bi124  1  -0.03053410  0.58776671  0.39931508  1
  Bi  Bi125  1  0.71310943  0.67977636  0.49044836  1
  Bi  Bi126  1  0.10081692  0.85386507  0.46477316  1
  Bi  Bi127  1  0.58804238  0.06339243  0.80105645  1
