# generated using pymatgen
data_Ba51Fe51Bi26
_symmetry_space_group_name_H-M   'P 1'
_cell_length_a   16.10713139
_cell_length_b   16.82663912
_cell_length_c   16.16687828
_cell_angle_alpha   87.60329061
_cell_angle_beta   91.52887309
_cell_angle_gamma   87.16002921
_symmetry_Int_Tables_number   1
_chemical_formula_structural   Ba51Fe51Bi26
_chemical_formula_sum   'Ba51 Fe51 Bi26'
_cell_volume   4370.66585634
_cell_formula_units_Z   1
loop_
 _symmetry_equiv_pos_site_id
 _symmetry_equiv_pos_as_xyz
  1  'x, y, z'
loop_
 _atom_site_type_symbol
 _atom_site_label
 _atom_site_symmetry_multiplicity
 _atom_site_fract_x
 _atom_site_fract_y
 _atom_site_fract_z
 _atom_site_occupancy
  Ba  Ba0  1  0.16688567  0.23049370  0.45135023  1
  Ba  Ba1  1  0.48432506  0.48986030  0.75503953  1
  Ba  Ba2  1  0.73149005  0.64565295  0.74956276  1
  Ba  Ba3  1  0.26061303  0.54333823  0.09591971  1
  Ba  Ba4  1  0.25541391  0.24887077  0.71111448  1
  Ba  Ba5  1  0.77417316  0.62433993  0.28719173  1
  Ba  Ba6  1  0.10203522  0.84804763  0.24886095  1
  Ba  Ba7  1  0.01211230  0.59382911  0.40010374  1
  Ba  Ba8  1  0.53589332  0.73854867  0.27007577  1
  Ba  Ba9  1  0.72578718  0.25786184  0.43294828  1
  Ba  Ba10  1  0.22829609  0.79064436  0.67198928  1
  Ba  Ba11  1  0.00358735  -0.00637239  -0.01099885  1
  Ba  Ba12  1  0.51487127  0.83265171  -0.00699928  1
  Ba  Ba13  1  0.03788720  0.40324609  0.56641799  1
  Ba  Ba14  1  0.27113862  0.45289119  0.56458639  1
  Ba  Ba15  1  0.38239970  0.09679123  0.36004536  1
  Ba  Ba16  1  0.74590641  0.01468295  0.58558160  1
  Ba  Ba17  1  -0.05685505  0.15418363  0.74235147  1
  Ba  Ba18  1  0.49989534  0.06290162  -0.02295634  1
  Ba  Ba19  1  -0.10597767  0.00214082  0.34409405  1
  Ba  Ba20  1  0.26742500  -0.03002563  0.05371375  1
  Ba  Ba21  1  0.02452388  -0.11213159  0.73783440  1
  Ba  Ba22  1  0.17099467  0.46474875  0.85318468  1
  Ba  Ba23  1  0.46100040  0.76530087  0.71952487  1
  Ba  Ba24  1  0.50767240  0.02094510  0.72269544  1
  Ba  Ba25  1  0.07000026  0.75247819  0.02495196  1
  Ba  Ba26  1  -0.10050242  0.45834148  -0.09526355  1
  Ba  Ba27  1  0.14526123  0.08249896  0.23865090  1
  Ba  Ba28  1  0.50012396  0.27573163  0.07240023  1
  Ba  Ba29  1  0.30832277  0.33624274  0.23308458  1
  Ba  Ba30  1  0.74127602  0.23580995  -0.03625833  1
  Ba  Ba31  1  -0.02529179  0.59176941  0.69286818  1
  Ba  Ba32  1  0.27110101  0.02019166  0.76856074  1
  Ba  Ba33  1  0.78953783  -0.12467645  0.82695643  1
  Ba  Ba34  1  0.32433738  0.67916561  -0.09117887  1
  Ba  Ba35  1  0.50649668  -0.03579441  0.21035453  1
  Ba  Ba36  1  0.00148280  0.31230477  0.25127607  1
  Ba  Ba37  1  0.59346982  0.66010204  0.52310877  1
  Ba  Ba38  1  0.74762162  0.82065064  0.45647973  1
  Ba  Ba39  1  0.67562840  0.11411280  0.24435533  1
  Ba  Ba40  1  0.35074037  0.53500416  0.35706230  1
  Ba  Ba41  1  0.74571584  0.72923064  0.04341987  1
  Ba  Ba42  1  0.16444076  -0.03460387  0.47589519  1
  Ba  Ba43  1  -0.01118302  0.23822345  0.00508404  1
  Ba  Ba44  1  0.02007972  0.54496142  0.15056747  1
  Ba  Ba45  1  0.63489744  0.46692969  -0.01000467  1
  Ba  Ba46  1  0.29978683  0.75086237  0.43485904  1
  Ba  Ba47  1  0.27213470  0.25861312  -0.04453788  1
  Ba  Ba48  1  0.69814531  0.22598664  0.70530035  1
  Ba  Ba49  1  0.69075452  0.38091802  0.22453100  1
  Ba  Ba50  1  0.52466548  0.37581038  0.49717457  1
  Fe  Fe51  1  0.96764988  0.86648551  0.51968307  1
  Fe  Fe52  1  0.69656290  0.05842851  0.05121725  1
  Fe  Fe53  1  0.81239456  0.48821430  0.64821826  1
  Fe  Fe54  1  0.87295167  0.16015519  0.52625433  1
  Fe  Fe55  1  0.55036303  0.15722714  0.44439336  1
  Fe  Fe56  1  0.55354508  0.65503347  0.08811966  1
  Fe  Fe57  1  0.73094937  0.37106565  0.59840457  1
  Fe  Fe58  1  0.37649345  0.82243514  0.15253966  1
  Fe  Fe59  1  0.40627987  0.69969454  0.09466732  1
  Fe  Fe60  1  0.68263202  0.94955107  0.96562941  1
  Fe  Fe61  1  0.67814742  0.49462467  0.61066691  1
  Fe  Fe62  1  -0.01604570  0.36438222  0.75313321  1
  Fe  Fe63  1  0.48137522  0.04595967  0.52908661  1
  Fe  Fe64  1  0.57919170  0.32645800  0.84402933  1
  Fe  Fe65  1  0.92276561  0.29196977  0.46075459  1
  Fe  Fe66  1  0.57218007  0.14968417  0.57761389  1
  Fe  Fe67  1  0.26348296  0.60143329  0.69356319  1
  Fe  Fe68  1  0.55866111  0.19908119  0.85319905  1
  Fe  Fe69  1  0.35780859  0.87182782  0.86564627  1
  Fe  Fe70  1  0.45749891  0.46254086  0.11496296  1
  Fe  Fe71  1  0.26329967  0.75881120  0.13117904  1
  Fe  Fe72  1  0.86982517  0.27856097  0.59774752  1
  Fe  Fe73  1  0.80918209  0.92518578  1.04017435  1
  Fe  Fe74  1  0.38611013  0.93750852  0.56140293  1
  Fe  Fe75  1  0.84614664  0.41123854  0.53511451  1
  Fe  Fe76  1  0.44263016  0.18889215  0.54745865  1
  Fe  Fe77  1  0.84231937  0.39577404  0.08505802  1
  Fe  Fe78  1  0.46603037  0.57623826  1.03344845  1
  Fe  Fe79  1  0.71867441  0.47205784  0.47787515  1
  Fe  Fe80  1  0.44271183  0.58704394  0.18944383  1
  Fe  Fe81  1  0.18197329  0.23198843  0.13003272  1
  Fe  Fe82  1  -0.02148443  0.16445551  0.42384869  1
  Fe  Fe83  1  0.08771259  0.78684111  0.46969333  1
  Fe  Fe84  1  0.07550364  0.28971253  0.81467822  1
  Fe  Fe85  1  -0.00045544  0.20057207  0.55200079  1
  Fe  Fe86  1  0.78062593  0.97833715  0.15829066  1
  Fe  Fe87  1  0.80302109  0.52328986  0.08824130  1
  Fe  Fe88  1  0.01961413  0.75330734  0.57731994  1
  Fe  Fe89  1  0.84237884  0.07018031  0.08700517  1
  Fe  Fe90  1  0.85976932  0.46313861  0.19789603  1
  Fe  Fe91  1  0.04157228  0.58507175  0.94701294  1
  Fe  Fe92  1  0.49383265  0.44153313  0.24515263  1
  Fe  Fe93  1  0.34347445  0.69976429  0.23109981  1
  Fe  Fe94  1  0.80636469  0.03927833  0.96037824  1
  Fe  Fe95  1  0.51040212  0.90119137  0.53400856  1
  Fe  Fe96  1  0.94971524  0.66329029  0.89323254  1
  Fe  Fe97  1  0.44776485  0.30703102  0.86774686  1
  Fe  Fe98  1  0.57526106  0.54013443  0.16821142  1
  Fe  Fe99  1  0.66253791  0.92946196  0.09585207  1
  Fe  Fe100  1  0.42477104  0.18609620  0.82777135  1
  Fe  Fe101  1  0.84758945  0.36768359  0.70085886  1
  Bi  Bi102  1  0.52257408  0.27135255  0.30646954  1
  Bi  Bi103  1  0.68263311  0.06848316  -0.15661063  1
  Bi  Bi104  1  -0.02211904  0.02920547  0.55804280  1
  Bi  Bi105  1  -0.05672131  0.79242354  0.37266590  1
  Bi  Bi106  1  0.11609969  0.67319258  0.82499959  1
  Bi  Bi107  1  0.39303837  0.44535718  -0.04882030  1
  Bi  Bi108  1  0.58695528  0.53196841  0.34996642  1
  Bi  Bi109  1  0.70598216  0.42437481  0.78286588  1
  Bi  Bi110  1  0.86156558  0.42871683  0.36721978  1
  Bi  Bi111  1  0.47937165  0.27308958  0.69100396  1
  Bi  Bi112  1  0.59823554  -0.00285067  0.41318003  1
  Bi  Bi113  1  0.81193034  0.59966100  0.52166712  1
  Bi  Bi114  1  0.30662584  0.90590896  0.27985383  1
  Bi  Bi115  1  0.72092879  0.84518507  0.23358482  1
  Bi  Bi116  1  0.39667862  0.61246793  0.58633860  1
  Bi  Bi117  1  0.15494423  0.42623840  0.36260848  1
  Bi  Bi118  1  0.17953825  0.65823837  0.25167246  1
  Bi  Bi119  1  0.12335639  0.13600595  0.87050301  1
  Bi  Bi120  1  0.63673098  0.84295452  0.64976581  1
  Bi  Bi121  1  0.30713882  0.09271858  0.56975209  1
  Bi  Bi122  1  0.19013270  0.86926825  0.89009998  1
  Bi  Bi123  1  0.86694162  0.79241474  0.64483301  1
  Bi  Bi124  1  0.56173653  0.65290027  0.90590257  1
  Bi  Bi125  1  0.33575285  0.14437086  0.13875624  1
  Bi  Bi126  1  0.12716181  0.37846640  0.06897432  1
  Bi  Bi127  1  0.14848695  0.63365775  0.56075721  1
