# generated using pymatgen
data_Ba51Fe51Bi26
_symmetry_space_group_name_H-M   'P 1'
_cell_length_a   16.47668431
_cell_length_b   16.39432716
_cell_length_c   16.22336969
_cell_angle_alpha   90.29674400
_cell_angle_beta   88.86404362
_cell_angle_gamma   90.06879818
_symmetry_Int_Tables_number   1
_chemical_formula_structural   Ba51Fe51Bi26
_chemical_formula_sum   'Ba51 Fe51 Bi26'
_cell_volume   4381.40132421
_cell_formula_units_Z   1
loop_
 _symmetry_equiv_pos_site_id
 _symmetry_equiv_pos_as_xyz
  1  'x, y, z'
loop_
 _atom_site_type_symbol
 _atom_site_label
 _atom_site_symmetry_multiplicity
 _atom_site_fract_x
 _atom_site_fract_y
 _atom_site_fract_z
 _atom_site_occupancy
  Ba  Ba0  1  0.06936135  0.13913806  0.71505154  1
  Ba  Ba1  1  0.17463436  0.46140246  0.80030817  1
  Ba  Ba2  1  -0.13441965  0.50799216  0.54428334  1
  Ba  Ba3  1  0.19358049  0.67410237  0.41209586  1
  Ba  Ba4  1  0.10544384  -0.04474678  0.10692759  1
  Ba  Ba5  1  -0.02384006  -0.08980661  0.76756192  1
  Ba  Ba6  1  0.47371747  0.43727854  0.07254541  1
  Ba  Ba7  1  0.45531378  0.12897475  0.43042552  1
  Ba  Ba8  1  0.76510268  0.13825928  0.03446334  1
  Ba  Ba9  1  0.45425618  0.38526853  0.53890583  1
  Ba  Ba10  1  0.21228505  0.18049339  0.20505131  1
  Ba  Ba11  1  0.77028912  0.37176369  0.00730742  1
  Ba  Ba12  1  0.23849087  0.57039532  0.02039506  1
  Ba  Ba13  1  0.74272044  0.76913438  0.20917957  1
  Ba  Ba14  1  0.53036423  0.01272099  -0.02209776  1
  Ba  Ba15  1  0.03795650  0.71831794  0.17876172  1
  Ba  Ba16  1  0.01168489  0.05301032  0.33239450  1
  Ba  Ba17  1  0.88120410  0.71863269  -0.03125666  1
  Ba  Ba18  1  0.42664463  0.56475113  0.81413341  1
  Ba  Ba19  1  0.30663937  0.24775234  0.71526137  1
  Ba  Ba20  1  0.21980818  0.27579735  0.46224332  1
  Ba  Ba21  1  0.44130240  0.61852314  0.49686706  1
  Ba  Ba22  1  0.40981797  0.21314085  0.03201125  1
  Ba  Ba23  1  -0.01175327  0.71654029  0.51876163  1
  Ba  Ba24  1  0.65476261  0.50046305  0.45625997  1
  Ba  Ba25  1  0.32307545  -0.10055859  0.27127553  1
  Ba  Ba26  1  0.29283690  0.46076075  0.25717687  1
  Ba  Ba27  1  0.74383931  0.30266122  0.77556285  1
  Ba  Ba28  1  0.30247079  0.77731942  0.69759345  1
  Ba  Ba29  1  0.79108306  0.17885253  0.28540627  1
  Ba  Ba30  1  -0.03975985  0.38177650  0.73717660  1
  Ba  Ba31  1  0.07164578  0.66916861  0.77182662  1
  Ba  Ba32  1  0.15571706  -0.07593743  0.53634081  1
  Ba  Ba33  1  0.61186098  0.78504408  -0.08563276  1
  Ba  Ba34  1  0.53958926  0.75332462  0.66436304  1
  Ba  Ba35  1  0.00641897  0.47876279  0.28912065  1
  Ba  Ba36  1  0.51417959  0.34502800  0.78483114  1
  Ba  Ba37  1  0.73418343  0.76412044  0.47489067  1
  Ba  Ba38  1  0.67246924  0.58282644  -0.00278859  1
  Ba  Ba39  1  0.60001342  0.06509921  0.65232258  1
  Ba  Ba40  1  0.53661373  -0.11521271  0.42693210  1
  Ba  Ba41  1  0.78087937  0.01663779  0.83405847  1
  Ba  Ba42  1  0.31964758  0.80908764  0.00463098  1
  Ba  Ba43  1  0.68967987  0.45389599  0.22790712  1
  Ba  Ba44  1  0.72960386  0.24237914  0.52977917  1
  Ba  Ba45  1  0.81578958  0.69707807  0.72144569  1
  Ba  Ba46  1  0.63029112  0.01396806  0.21621235  1
  Ba  Ba47  1  0.86840197  -0.03074886  0.53144149  1
  Ba  Ba48  1  0.32273082  0.03682986  0.84185319  1
  Ba  Ba49  1  0.12446776  0.23572136  -0.03620805  1
  Ba  Ba50  1  -0.02540678  0.28763761  0.51597705  1
  Fe  Fe51  1  0.89409892  0.99219034  1.03732909  1
  Fe  Fe52  1  1.04795286  0.60398438  -0.03281833  1
  Fe  Fe53  1  0.42113133  0.91642539  0.58678995  1
  Fe  Fe54  1  0.88776859  0.84977452  0.35764210  1
  Fe  Fe55  1  0.65526411  0.43407753  0.64517824  1
  Fe  Fe56  1  0.56401478  0.52637922  0.67757853  1
  Fe  Fe57  1  -0.00579445  0.51253803  0.87879554  1
  Fe  Fe58  1  0.92019544  0.51501089  0.99496422  1
  Fe  Fe59  1  0.03686123  0.53437378  0.62843720  1
  Fe  Fe60  1  0.08013857  0.50004268  0.50884270  1
  Fe  Fe61  1  0.64491691  0.61228895  0.76978623  1
  Fe  Fe62  1  0.55242560  0.64775362  0.30515282  1
  Fe  Fe63  1  0.42813768  0.31648853  0.34440840  1
  Fe  Fe64  1  0.40673207  0.70783110  0.31871526  1
  Fe  Fe65  1  0.81354308  0.95126957  0.31571691  1
  Fe  Fe66  1  0.17736160  0.56340092  0.61198872  1
  Fe  Fe67  1  0.31319706  0.56062296  0.64086852  1
  Fe  Fe68  1  0.90275859  0.31436071  0.19890503  1
  Fe  Fe69  1  0.96305734  0.40835596  0.09547798  1
  Fe  Fe70  1  0.39967947  0.06390325  0.62375628  1
  Fe  Fe71  1  0.64189412  0.15761605  0.86203672  1
  Fe  Fe72  1  0.02497727  0.27894701  0.15048841  1
  Fe  Fe73  1  -0.08484909  0.86979265  0.09354462  1
  Fe  Fe74  1  0.59081477  0.24729530  0.94715029  1
  Fe  Fe75  1  0.51349164  0.16711688  0.85486759  1
  Fe  Fe76  1  0.52053804  0.77017152  0.26461378  1
  Fe  Fe77  1  0.45920323  0.86668762  0.82565334  1
  Fe  Fe78  1  0.13377490  0.41739419  0.60481938  1
  Fe  Fe79  1  0.44224960  0.61299751  0.21159416  1
  Fe  Fe80  1  -0.01612492  0.91472007  0.96256636  1
  Fe  Fe81  1  0.34149095  -0.01603978  0.50068775  1
  Fe  Fe82  1  0.93192441  0.88848402  0.23513195  1
  Fe  Fe83  1  0.02613236  0.53903315  0.08795092  1
  Fe  Fe84  1  0.30851542  0.97142369  0.65423606  1
  Fe  Fe85  1  0.96723996  0.06471166  0.94703859  1
  Fe  Fe86  1  0.74833024  0.51076297  0.70388114  1
  Fe  Fe87  1  0.42190326  0.74010146  0.16606629  1
  Fe  Fe88  1  0.51948550  0.21378377  0.25413713  1
  Fe  Fe89  1  0.27499877  0.43779241  0.63196958  1
  Fe  Fe90  1  0.51449309  0.34807242  0.23878561  1
  Fe  Fe91  1  0.27585221  0.08900163  0.57213691  1
  Fe  Fe92  1  0.64696577  0.48384189  0.79551582  1
  Fe  Fe93  1  0.67043227  0.59180046  0.62816772  1
  Fe  Fe94  1  0.84779710  0.98083883  0.17831956  1
  Fe  Fe95  1  0.57059320  0.91541308  0.77926671  1
  Fe  Fe96  1  0.95839675  0.37543651  0.94437013  1
  Fe  Fe97  1  0.44522103  0.95049929  0.71737118  1
  Fe  Fe98  1  0.06859374  0.45242108  0.97931335  1
  Fe  Fe99  1  0.56117664  0.67569199  0.15538212  1
  Fe  Fe100  1  0.39092844  0.25697915  0.22977269  1
  Fe  Fe101  1  0.93236285  0.27061167  0.04799628  1
  Bi  Bi102  1  0.26019421  0.48567012  0.47336586  1
  Bi  Bi103  1  0.08997194  0.77401844  -0.03273910  1
  Bi  Bi104  1  -0.08499518  0.21587780  -0.11743755  1
  Bi  Bi105  1  0.53719477  0.84742468  0.11429314  1
  Bi  Bi106  1  0.61304064  0.26588635  0.12034443  1
  Bi  Bi107  1  0.26831856  0.68200600  0.20724942  1
  Bi  Bi108  1  0.34306303  -0.18999390  0.48062184  1
  Bi  Bi109  1  0.82475543  0.51886185  0.85050524  1
  Bi  Bi110  1  0.04020603  0.26671828  0.31687157  1
  Bi  Bi111  1  0.42657323  0.08453876  0.21063898  1
  Bi  Bi112  1  -0.14065612  0.57381687  0.14246626  1
  Bi  Bi113  1  0.48733123  0.49062252  0.32308410  1
  Bi  Bi114  1  -0.03746271  0.12335351  0.12615038  1
  Bi  Bi115  1  0.23594993  0.07178952  0.40143023  1
  Bi  Bi116  1  0.05765684  0.84548329  0.35545577  1
  Bi  Bi117  1  0.30987069  0.01872619  0.06209958  1
  Bi  Bi118  1  0.83352391  0.37474563  0.36924439  1
  Bi  Bi119  1  0.59543472  0.29392913  0.38272310  1
  Bi  Bi120  1  0.69639259  0.02790378  0.42681565  1
  Bi  Bi121  1  0.33385636  0.37708172  0.90688179  1
  Bi  Bi122  1  0.11348226  0.01749755  0.88749351  1
  Bi  Bi123  1  0.13990803  0.39896540  0.12174837  1
  Bi  Bi124  1  0.75024646  0.90972198  0.03747040  1
  Bi  Bi125  1  0.71333169  0.87987201  0.67645559  1
  Bi  Bi126  1  0.46039439  0.64350420  0.01857378  1
  Bi  Bi127  1  0.86248302  0.14268351  0.66450889  1
