# generated using pymatgen
data_Ba51Fe51Bi26
_symmetry_space_group_name_H-M   'P 1'
_cell_length_a   16.75538231
_cell_length_b   16.23282239
_cell_length_c   16.29918717
_cell_angle_alpha   89.33439465
_cell_angle_beta   89.27223237
_cell_angle_gamma   89.90629732
_symmetry_Int_Tables_number   1
_chemical_formula_structural   Ba51Fe51Bi26
_chemical_formula_sum   'Ba51 Fe51 Bi26'
_cell_volume   4432.50774909
_cell_formula_units_Z   1
loop_
 _symmetry_equiv_pos_site_id
 _symmetry_equiv_pos_as_xyz
  1  'x, y, z'
loop_
 _atom_site_type_symbol
 _atom_site_label
 _atom_site_symmetry_multiplicity
 _atom_site_fract_x
 _atom_site_fract_y
 _atom_site_fract_z
 _atom_site_occupancy
  Ba  Ba0  1  0.45834922  0.03814967  0.26004536  1
  Ba  Ba1  1  0.72165768  -0.05361906  0.31012073  1
  Ba  Ba2  1  0.49745730  0.25423576  0.74813601  1
  Ba  Ba3  1  0.02372277  -0.01734978  -0.06175641  1
  Ba  Ba4  1  0.54509635  0.77867535  0.22715564  1
  Ba  Ba5  1  0.17519384  0.29869251  0.48335927  1
  Ba  Ba6  1  0.51357335  0.55646698  0.77385285  1
  Ba  Ba7  1  0.20643517  0.41236749  0.23613802  1
  Ba  Ba8  1  0.42196114  0.56920020  0.25649341  1
  Ba  Ba9  1  -0.06995488  0.00821155  0.20099437  1
  Ba  Ba10  1  0.76661843  0.70844578  0.34720078  1
  Ba  Ba11  1  0.73232315  0.46835509  0.46991557  1
  Ba  Ba12  1  0.69726361  0.48348884  0.22665241  1
  Ba  Ba13  1  -0.04316953  0.40163211  0.23533993  1
  Ba  Ba14  1  0.53963963  0.24283108  0.51341812  1
  Ba  Ba15  1  0.01025604  0.70241691  -0.07558565  1
  Ba  Ba16  1  0.31141530  0.51403072  -0.03130555  1
  Ba  Ba17  1  0.55087492  0.52627779  0.02010600  1
  Ba  Ba18  1  0.46846042  0.28340614  0.29033115  1
  Ba  Ba19  1  0.72511862  0.21869696  0.18417630  1
  Ba  Ba20  1  0.22641184  0.72919325  -0.00200283  1
  Ba  Ba21  1  0.24117953  0.06960633  0.74576019  1
  Ba  Ba22  1  0.75821930  0.80003010  0.59544522  1
  Ba  Ba23  1  0.58273458  0.78859596  -0.01040468  1
  Ba  Ba24  1  -0.05021492  0.20178565  0.51701911  1
  Ba  Ba25  1  0.07576033  0.50082790  0.80466952  1
  Ba  Ba26  1  0.50193059  0.47792027  0.52664046  1
  Ba  Ba27  1  -0.04986976  -0.05222093  0.49949701  1
  Ba  Ba28  1  0.28873620  0.30556460  0.82532407  1
  Ba  Ba29  1  0.64608036  -0.02770957  0.75242740  1
  Ba  Ba30  1  0.40276990  0.01830958  0.50710870  1
  Ba  Ba31  1  0.77806056  0.26966531  -0.03208082  1
  Ba  Ba32  1  -0.04625591  0.16535154  -0.19077592  1
  Ba  Ba33  1  0.71781944  -0.00389972  0.05659590  1
  Ba  Ba34  1  0.23701388  0.81739219  0.63632187  1
  Ba  Ba35  1  0.66385788  0.05229506  0.51102324  1
  Ba  Ba36  1  0.19929701  0.72683365  0.23502410  1
  Ba  Ba37  1  0.26772972  0.63133357  0.44381700  1
  Ba  Ba38  1  0.24628267  -0.02076934  -0.00145655  1
  Ba  Ba39  1  0.04329070  0.33865510  -0.01023446  1
  Ba  Ba40  1  0.26707459  0.21428698  0.09886639  1
  Ba  Ba41  1  0.01560537  0.47269224  0.53167808  1
  Ba  Ba42  1  0.79635734  0.54233717  0.71390655  1
  Ba  Ba43  1  -0.02350935  0.64434655  0.17354416  1
  Ba  Ba44  1  0.17687404  0.06025851  0.49278153  1
  Ba  Ba45  1  0.47244973  0.01966062  0.00304795  1
  Ba  Ba46  1  0.47672257  0.79793177  0.74011546  1
  Ba  Ba47  1  0.20285125  -0.02414113  0.24426659  1
  Ba  Ba48  1  0.28368828  0.47209490  0.63988800  1
  Ba  Ba49  1  0.03627954  0.72578242  0.47499668  1
  Ba  Ba50  1  0.79036447  0.55122575  -0.02775840  1
  Fe  Fe51  1  0.09733702  0.20805676  0.66373832  1
  Fe  Fe52  1  0.76674293  0.85279173  0.92150161  1
  Fe  Fe53  1  0.66626344  0.28370603  0.36228067  1
  Fe  Fe54  1  0.96720348  0.19506321  0.12260265  1
  Fe  Fe55  1  0.10689044  0.23337682  0.30784323  1
  Fe  Fe56  1  0.01140288  0.83167130  0.20929884  1
  Fe  Fe57  1  0.02181084  0.87043229  0.74953392  1
  Fe  Fe58  1  0.55829160  0.32837632  0.07392800  1
  Fe  Fe59  1  0.08068558  0.74874861  0.73807510  1
  Fe  Fe60  1  0.79841172  0.32365184  0.77591112  1
  Fe  Fe61  1  0.81325012  0.23800921  0.67274499  1
  Fe  Fe62  1  0.40746329  0.69936226  0.06705329  1
  Fe  Fe63  1  0.82344138  0.72873968  0.87017447  1
  Fe  Fe64  1  0.58364739  0.29945559  0.93196981  1
  Fe  Fe65  1  0.74368550  0.81448008  0.13723492  1
  Fe  Fe66  1  0.63450858  0.15247172  0.34379418  1
  Fe  Fe67  1  0.10527311  0.28047690  0.78475960  1
  Fe  Fe68  1  0.37125551  0.83016257  0.36391986  1
  Fe  Fe69  1  0.12065360  0.34344981  0.67091885  1
  Fe  Fe70  1  0.69063542  0.33348359  0.67448122  1
  Fe  Fe71  1  0.91595589  0.55959733  0.37057174  1
  Fe  Fe72  1  0.33362969  0.19628729  0.60608329  1
  Fe  Fe73  1  0.76943701  0.73949219  1.01125710  1
  Fe  Fe74  1  0.76393389  0.16264518  0.37486094  1
  Fe  Fe75  1  0.08266278  0.12452853  0.20703255  1
  Fe  Fe76  1  0.68092112  0.67633432  0.11827803  1
  Fe  Fe77  1  0.80219243  0.69110789  0.14676652  1
  Fe  Fe78  1  0.58621419  0.19105765  0.04601583  1
  Fe  Fe79  1  0.39637955  0.81137543  0.97123097  1
  Fe  Fe80  1  0.46741182  0.72716855  0.42777752  1
  Fe  Fe81  1  1.07323748  0.13865377  0.06628167  1
  Fe  Fe82  1  0.35063207  0.21852396  0.46458379  1
  Fe  Fe83  1  0.40280525  0.81431830  0.50736094  1
  Fe  Fe84  1  0.93318643  0.83329292  0.33075795  1
  Fe  Fe85  1  0.41997412  0.68434177  0.93305320  1
  Fe  Fe86  1  0.06151207  0.86103402  0.32670757  1
  Fe  Fe87  1  0.46146013  0.23451851  0.08987801  1
  Fe  Fe88  1  0.45095692  0.34568616  0.97092876  1
  Fe  Fe89  1  0.36697777  0.31469542  0.55851196  1
  Fe  Fe90  1  0.46834385  0.21360631  0.95339454  1
  Fe  Fe91  1  0.79357988  0.84667651  0.77976423  1
  Fe  Fe92  1  0.06238303  0.11687303  0.34809741  1
  Fe  Fe93  1  0.67392535  0.26456554  0.80244792  1
  Fe  Fe94  1  0.07500200  0.25711125  0.16938600  1
  Fe  Fe95  1  0.79683613  0.29578745  0.35491596  1
  Fe  Fe96  1  0.90153921  0.93769552  0.72955408  1
  Fe  Fe97  1  0.76165445  0.15972764  0.78632960  1
  Fe  Fe98  1  0.49030615  0.87460958  0.39590020  1
  Fe  Fe99  1  0.68197603  0.18387516  0.67227496  1
  Fe  Fe100  1  0.90717873  0.85551083  0.85495611  1
  Fe  Fe101  1  0.86246739  0.81521775  0.21423613  1
  Bi  Bi102  1  0.89839374  0.83966585  0.05332603  1
  Bi  Bi103  1  0.67214278  0.72177878  0.80764600  1
  Bi  Bi104  1  0.61772096  0.13087955  -0.10784176  1
  Bi  Bi105  1  0.66610313  0.42584571  0.84424261  1
  Bi  Bi106  1  -0.07735231  0.19969322  0.29553989  1
  Bi  Bi107  1  0.26922066  0.16976521  0.32130173  1
  Bi  Bi108  1  -0.08097384  0.73110254  0.72475274  1
  Bi  Bi109  1  -0.04718992  0.34863811  0.69906288  1
  Bi  Bi110  1  0.55859156  0.87112697  0.54923998  1
  Bi  Bi111  1  0.21023409  0.85144086  0.42070718  1
  Bi  Bi112  1  0.74743084  0.26138431  0.51734943  1
  Bi  Bi113  1  0.82001952  0.01029205  0.87118207  1
  Bi  Bi114  1  0.04990378  0.03015968  0.67117698  1
  Bi  Bi115  1  0.82059747  0.06495141  0.64732025  1
  Bi  Bi116  1  0.36555082  0.85929124  0.13824664  1
  Bi  Bi117  1  0.07961086  0.55570145  0.33914150  1
  Bi  Bi118  1  0.62259561  0.63432288  0.60117704  1
  Bi  Bi119  1  0.39788555  0.39861061  0.12526558  1
  Bi  Bi120  1  0.11554102  0.53715811  0.04773508  1
  Bi  Bi121  1  0.40714674  0.66179188  0.59551044  1
  Bi  Bi122  1  0.16815901  0.85811376  0.83574970  1
  Bi  Bi123  1  0.58441083  0.61279176  0.37685164  1
  Bi  Bi124  1  0.86370973  0.62101326  0.51570664  1
  Bi  Bi125  1  0.15256511  0.16546521  0.91624827  1
  Bi  Bi126  1  0.13563476  0.62394050  0.63806105  1
  Bi  Bi127  1  0.34093659  0.41334456  0.41450049  1
