# generated using pymatgen
data_Ba51Fe51Bi26
_symmetry_space_group_name_H-M   'P 1'
_cell_length_a   16.15523381
_cell_length_b   16.90100408
_cell_length_c   16.14018545
_cell_angle_alpha   90.76483628
_cell_angle_beta   89.12983711
_cell_angle_gamma   89.67102453
_symmetry_Int_Tables_number   1
_chemical_formula_structural   Ba51Fe51Bi26
_chemical_formula_sum   'Ba51 Fe51 Bi26'
_cell_volume   4405.93226074
_cell_formula_units_Z   1
loop_
 _symmetry_equiv_pos_site_id
 _symmetry_equiv_pos_as_xyz
  1  'x, y, z'
loop_
 _atom_site_type_symbol
 _atom_site_label
 _atom_site_symmetry_multiplicity
 _atom_site_fract_x
 _atom_site_fract_y
 _atom_site_fract_z
 _atom_site_occupancy
  Ba  Ba0  1  0.70313501  0.45426808  0.27656122  1
  Ba  Ba1  1  0.47935820  0.29489574  0.26817658  1
  Ba  Ba2  1  0.54766787  0.04457772  0.72026623  1
  Ba  Ba3  1  0.48684538  0.58341696  0.72477930  1
  Ba  Ba4  1  0.00504856  -0.08993622  0.51906897  1
  Ba  Ba5  1  -0.02206909  0.38912070  0.24676446  1
  Ba  Ba6  1  0.01531461  0.77205199  0.26699532  1
  Ba  Ba7  1  0.24583868  0.01763044  0.03642407  1
  Ba  Ba8  1  0.20180885  0.11021347  0.57153503  1
  Ba  Ba9  1  0.02927432  0.28322485  0.45463275  1
  Ba  Ba10  1  0.57859688  0.26919822  -0.09142762  1
  Ba  Ba11  1  0.24241529  0.86219145  0.43712497  1
  Ba  Ba12  1  0.66889834  -0.08335545  0.03591662  1
  Ba  Ba13  1  0.74570825  0.22173519  0.18783968  1
  Ba  Ba14  1  0.57564697  0.02008754  0.26132142  1
  Ba  Ba15  1  0.05774263  0.36964357  0.83142075  1
  Ba  Ba16  1  0.75033105  0.01965481  0.44435464  1
  Ba  Ba17  1  0.51874426  0.75033648  0.48694190  1
  Ba  Ba18  1  0.33729889  0.04709775  0.28959053  1
  Ba  Ba19  1  0.23628368  0.48421913  0.39174266  1
  Ba  Ba20  1  0.29956343  0.25435696  -0.06182413  1
  Ba  Ba21  1  0.76769356  0.12692385  0.73636235  1
  Ba  Ba22  1  0.45971073  0.51692347  -0.00168410  1
  Ba  Ba23  1  0.47714146  0.76341822  0.05128144  1
  Ba  Ba24  1  0.80234515  0.75867568  0.49719573  1
  Ba  Ba25  1  0.69367332  0.49995021  0.55977215  1
  Ba  Ba26  1  0.26389245  -0.01255939  0.77060870  1
  Ba  Ba27  1  0.34675978  0.29599429  0.52573711  1
  Ba  Ba28  1  0.11799296  0.76628984  -0.02780854  1
  Ba  Ba29  1  0.79679184  0.63570633  0.80052597  1
  Ba  Ba30  1  -0.08545771  0.45849512  0.01102962  1
  Ba  Ba31  1  -0.00084343  0.19041824  0.71736125  1
  Ba  Ba32  1  0.22796264  0.51600681  -0.06681449  1
  Ba  Ba33  1  0.08911802  0.67337862  0.49125159  1
  Ba  Ba34  1  -0.04377406  0.07991301  0.31753301  1
  Ba  Ba35  1  -0.01886156  0.48978587  0.61623134  1
  Ba  Ba36  1  0.72227231  -0.12182473  0.81282472  1
  Ba  Ba37  1  0.24126847  0.51071002  0.67907436  1
  Ba  Ba38  1  0.21903060  0.26557609  0.20020906  1
  Ba  Ba39  1  0.46252527  0.82198017  0.76621823  1
  Ba  Ba40  1  0.53060768  0.30432924  0.67857651  1
  Ba  Ba41  1  0.69263606  0.53983720  0.00288038  1
  Ba  Ba42  1  0.51500555  -0.02683412  0.49020821  1
  Ba  Ba43  1  0.14271397  0.55269529  0.15604534  1
  Ba  Ba44  1  0.73834043  0.67919694  0.27420258  1
  Ba  Ba45  1  -0.01295455  -0.02505222  0.78963222  1
  Ba  Ba46  1  0.00392513  0.74779691  0.73615918  1
  Ba  Ba47  1  0.35393019  0.68283205  0.26272623  1
  Ba  Ba48  1  0.77621318  0.26008827  0.53031025  1
  Ba  Ba49  1  -0.02167869  0.18679210  0.03236543  1
  Ba  Ba50  1  -0.02400711  -0.04639001  0.08913253  1
  Fe  Fe51  1  0.72669007  0.92112609  0.61658653  1
  Fe  Fe52  1  0.29722069  0.81161655  0.63138072  1
  Fe  Fe53  1  0.19937760  0.21638332  0.75143627  1
  Fe  Fe54  1  0.41486537  0.08964785  0.86790223  1
  Fe  Fe55  1  0.55869616  0.47557672  0.40837007  1
  Fe  Fe56  1  0.18050440  0.66301213  0.79096371  1
  Fe  Fe57  1  0.27989663  0.31588097  0.73607851  1
  Fe  Fe58  1  0.04680122  0.57556584  0.32511575  1
  Fe  Fe59  1  0.42923040  0.43727692  0.41856947  1
  Fe  Fe60  1  0.41592677  0.87515021  0.34717160  1
  Fe  Fe61  1  0.78410631  0.07303785  0.04696891  1
  Fe  Fe62  1  0.31472889  0.69391358  0.70434057  1
  Fe  Fe63  1  0.80788835  0.45250012  0.70459285  1
  Fe  Fe64  1  0.70028621  0.86563303  0.22791815  1
  Fe  Fe65  1  0.91899674  0.75714571  0.08819007  1
  Fe  Fe66  1  0.92159389  0.58064502  0.37982156  1
  Fe  Fe67  1  0.18659066  0.70979393  0.65365382  1
  Fe  Fe68  1  0.75361526  0.17805316  -0.02431305  1
  Fe  Fe69  1  0.84578927  -0.01694055  0.62776368  1
  Fe  Fe70  1  0.44804616  0.10150267  -0.00335151  1
  Fe  Fe71  1  0.54689938  0.59918254  0.35470887  1
  Fe  Fe72  1  0.60086882  0.15920433  0.41115248  1
  Fe  Fe73  1  0.89579214  0.67060089  0.97052416  1
  Fe  Fe74  1  0.46795673  0.15939289  0.43892571  1
  Fe  Fe75  1  0.51525079  0.56646242  0.50584328  1
  Fe  Fe76  1  0.83648001  0.06182731  0.92091452  1
  Fe  Fe77  1  0.44235830  0.13295110  0.56934200  1
  Fe  Fe78  1  0.82085780  0.87252545  0.31931427  1
  Fe  Fe79  1  0.38787704  0.87239704  0.22088281  1
  Fe  Fe80  1  0.87601941  0.33907663  0.71104010  1
  Fe  Fe81  1  0.69373851  0.07168926  0.91614558  1
  Fe  Fe82  1  0.68918808  0.85294615  0.36046615  1
  Fe  Fe83  1  0.22678719  0.79790152  0.77514365  1
  Fe  Fe84  1  0.46277205  0.50574179  0.29234067  1
  Fe  Fe85  1  0.30176249  0.69098595  0.84323608  1
  Fe  Fe86  1  0.84786383  0.86035630  0.65586304  1
  Fe  Fe87  1  0.74197294  0.32508002  0.74257600  1
  Fe  Fe88  1  0.41420450  0.57650838  0.41287950  1
  Fe  Fe89  1  0.81551652  0.42194659  0.83336107  1
  Fe  Fe90  1  0.02876751  0.49027931  0.41857612  1
  Fe  Fe91  1  0.49746841  0.43977631  0.54780103  1
  Fe  Fe92  1  -0.00638401  0.63999094  0.05396882  1
  Fe  Fe93  1  0.82991722  0.83445562  0.18024658  1
  Fe  Fe94  1  0.55149200  1.03619748  0.91965932  1
  Fe  Fe95  1  0.42850323  0.96749195  0.92069195  1
  Fe  Fe96  1  0.38469106  0.51012071  0.54121072  1
  Fe  Fe97  1  0.11800405  0.96771990  0.31983672  1
  Fe  Fe98  1  0.43157916  0.34867549  0.08231965  1
  Fe  Fe99  1  0.16755680  0.84149234  0.65144853  1
  Fe  Fe100  1  0.13736560  0.03771330  0.21529285  1
  Fe  Fe101  1  0.57685010  0.15797360  0.54525851  1
  Bi  Bi102  1  0.65031529  0.45963462  0.79314093  1
  Bi  Bi103  1  0.79285386  0.00566417  0.20611490  1
  Bi  Bi104  1  0.02678432  0.58981816  -0.12316761  1
  Bi  Bi105  1  0.44876718  -0.03198950  0.09383078  1
  Bi  Bi106  1  0.58068776  0.31983442  0.45807039  1
  Bi  Bi107  1  0.33621959  0.44949138  0.18208695  1
  Bi  Bi108  1  0.36491833  0.16802848  0.72219874  1
  Bi  Bi109  1  0.31401881  0.84048780  0.92398632  1
  Bi  Bi110  1  0.31361435  0.66517837  0.52433104  1
  Bi  Bi111  1  0.75470053  0.73144874  0.05875928  1
  Bi  Bi112  1  -0.07786278  0.58357491  0.20058655  1
  Bi  Bi113  1  0.54825096  0.80326146  0.27289875  1
  Bi  Bi114  1  0.85522899  0.26972464  -0.12256876  1
  Bi  Bi115  1  0.10728016  0.36567801  0.05039035  1
  Bi  Bi116  1  0.14754599  0.32491478  0.62532396  1
  Bi  Bi117  1  0.90305394  0.82766316  0.92536104  1
  Bi  Bi118  1  0.12731567  0.12731918  0.87916219  1
  Bi  Bi119  1  0.93181935  0.10362119  0.53890212  1
  Bi  Bi120  1  0.60631151  0.12671072  0.06371250  1
  Bi  Bi121  1  0.55397981  0.59675249  0.18101983  1
  Bi  Bi122  1  0.15769911  0.13065796  0.36090977  1
  Bi  Bi123  1  0.60113475  0.70259237  0.88189075  1
  Bi  Bi124  1  0.86459019  0.43119071  0.43403511  1
  Bi  Bi125  1  0.38835569  0.41222715  0.81788346  1
  Bi  Bi126  1  0.59790068  0.36921744  0.10050147  1
  Bi  Bi127  1  0.20626162  0.87642975  0.20315476  1
