# generated using pymatgen
data_Ba51Fe51Bi26
_symmetry_space_group_name_H-M   'P 1'
_cell_length_a   16.10970772
_cell_length_b   16.30101489
_cell_length_c   16.51383458
_cell_angle_alpha   91.08278635
_cell_angle_beta   89.25534565
_cell_angle_gamma   89.91628858
_symmetry_Int_Tables_number   1
_chemical_formula_structural   Ba51Fe51Bi26
_chemical_formula_sum   'Ba51 Fe51 Bi26'
_cell_volume   4335.46181478
_cell_formula_units_Z   1
loop_
 _symmetry_equiv_pos_site_id
 _symmetry_equiv_pos_as_xyz
  1  'x, y, z'
loop_
 _atom_site_type_symbol
 _atom_site_label
 _atom_site_symmetry_multiplicity
 _atom_site_fract_x
 _atom_site_fract_y
 _atom_site_fract_z
 _atom_site_occupancy
  Ba  Ba0  1  0.53411822  -0.15609097  0.21737072  1
  Ba  Ba1  1  0.48705685  0.11784480  0.52518616  1
  Ba  Ba2  1  0.36135816  -0.03839527  0.36191056  1
  Ba  Ba3  1  0.71509571  0.27519526  0.57881048  1
  Ba  Ba4  1  0.51284170  -0.15746204  0.51319566  1
  Ba  Ba5  1  0.26794932  0.77571034  0.67837341  1
  Ba  Ba6  1  0.50181583  0.45637940  0.07249213  1
  Ba  Ba7  1  0.59775395  0.54256077  0.57004540  1
  Ba  Ba8  1  0.28425445  0.55007709  0.16752620  1
  Ba  Ba9  1  0.24708288  0.09415796  0.63635464  1
  Ba  Ba10  1  0.16124608  0.74961996  0.08048014  1
  Ba  Ba11  1  0.81970249  0.48515525  0.82571160  1
  Ba  Ba12  1  -0.00486507  0.24844804  0.47278351  1
  Ba  Ba13  1  0.15815993  0.18725998  0.87937739  1
  Ba  Ba14  1  0.82551341  0.28444668  0.08975932  1
  Ba  Ba15  1  0.26927747  0.14352717  0.07960093  1
  Ba  Ba16  1  0.61535904  0.15962960  0.20524280  1
  Ba  Ba17  1  -0.04392153  0.04357185  0.00731234  1
  Ba  Ba18  1  0.34519287  -0.01462158  0.83852468  1
  Ba  Ba19  1  0.01645380  0.50387138  0.16315493  1
  Ba  Ba20  1  -0.08312293  0.73863523  0.47879400  1
  Ba  Ba21  1  0.01596361  0.50125670  0.44174042  1
  Ba  Ba22  1  0.52607220  0.77671982  0.75870378  1
  Ba  Ba23  1  0.04512253  0.90893127  0.62344605  1
  Ba  Ba24  1  -0.00101103  0.60848892  0.72949200  1
  Ba  Ba25  1  0.13982556  0.27590641  0.25618859  1
  Ba  Ba26  1  0.02946027  0.33194602  0.69483394  1
  Ba  Ba27  1  0.25274469  0.54330480  0.42014236  1
  Ba  Ba28  1  0.06694879  0.82110641  -0.14373709  1
  Ba  Ba29  1  0.72746925  0.01584459  0.80875789  1
  Ba  Ba30  1  0.48418265  0.45623082  0.33412479  1
  Ba  Ba31  1  0.32646371  0.39249048  -0.10315182  1
  Ba  Ba32  1  0.66799714  0.66323347  0.35763445  1
  Ba  Ba33  1  -0.10805394  0.11115385  0.64929942  1
  Ba  Ba34  1  -0.13506589  0.76291095  0.00834993  1
  Ba  Ba35  1  0.43307897  0.73623011  0.03262412  1
  Ba  Ba36  1  0.88287808  0.10058748  0.27503352  1
  Ba  Ba37  1  0.44263785  0.55015618  0.76092590  1
  Ba  Ba38  1  0.75643786  -0.08845312  0.35765210  1
  Ba  Ba39  1  0.76406839  0.43911701  0.40676988  1
  Ba  Ba40  1  0.50210080  0.22937830  -0.00262580  1
  Ba  Ba41  1  0.22146190  0.78074314  0.40823290  1
  Ba  Ba42  1  -0.01036288  0.83876087  0.24909903  1
  Ba  Ba43  1  0.80053409  0.79632776  0.73764903  1
  Ba  Ba44  1  0.66161582  0.62907325  -0.00148990  1
  Ba  Ba45  1  0.52774512  -0.02043586  -0.00286426  1
  Ba  Ba46  1  0.71340661  0.25094440  0.81696527  1
  Ba  Ba47  1  0.02678127  0.38689962  -0.05523374  1
  Ba  Ba48  1  0.39179130  0.20524946  0.31122915  1
  Ba  Ba49  1  0.21955656  0.52586497  0.66211197  1
  Ba  Ba50  1  0.13804322  0.05846441  0.40642192  1
  Fe  Fe51  1  0.78691674  0.04664681  0.11503172  1
  Fe  Fe52  1  0.61428761  0.47288023  0.82849994  1
  Fe  Fe53  1  0.30269385  0.86482933  0.18991016  1
  Fe  Fe54  1  0.80880559  0.21188955  0.41931180  1
  Fe  Fe55  1  0.68097005  0.07364735  0.61936080  1
  Fe  Fe56  1  0.37670661  0.19598199  0.80946819  1
  Fe  Fe57  1  0.65816586  1.01585191  0.49532239  1
  Fe  Fe58  1  0.18653361  0.91430055  0.25386604  1
  Fe  Fe59  1  0.53230937  0.38050963  0.87047228  1
  Fe  Fe60  1  0.57402246  0.15880863  0.70073371  1
  Fe  Fe61  1  0.43836181  0.25321414  0.67245255  1
  Fe  Fe62  1  0.67612977  0.54216027  0.20139064  1
  Fe  Fe63  1  -0.01729045  0.02140852  0.80753619  1
  Fe  Fe64  1  0.06218320  1.09959453  0.73659120  1
  Fe  Fe65  1  0.26748647  0.62451539  0.82225619  1
  Fe  Fe66  1  0.12711382  0.99925227  0.79175352  1
  Fe  Fe67  1  0.80010224  0.60288711  0.15744130  1
  Fe  Fe68  1  0.68416123  0.13629528  0.40431759  1
  Fe  Fe69  1  0.16639864  0.52405246  0.85925836  1
  Fe  Fe70  1  0.33835527  0.25643901  0.55963962  1
  Fe  Fe71  1  0.81608822  0.91700063  0.14089274  1
  Fe  Fe72  1  0.78361410  0.08739680  0.49438032  1
  Fe  Fe73  1  0.75218931  0.96019642  1.00916167  1
  Fe  Fe74  1  0.25572657  0.02590958  0.22675462  1
  Fe  Fe75  1  0.67488060  -0.02051016  0.14889543  1
  Fe  Fe76  1  0.73585197  0.25620640  0.32321571  1
  Fe  Fe77  1  0.72999621  0.46827688  1.09963617  1
  Fe  Fe78  1  0.81888619  0.47114739  0.20885900  1
  Fe  Fe79  1  0.16072011  0.65612573  0.90046345  1
  Fe  Fe80  1  0.39431777  0.46560899  0.53010844  1
  Fe  Fe81  1  0.43307436  1.11735357  0.71507200  1
  Fe  Fe82  1  0.18523561  0.34716171  0.43479003  1
  Fe  Fe83  1  0.36316419  -0.02226785  0.14648445  1
  Fe  Fe84  1  0.17024168  0.53805004  -0.00631035  1
  Fe  Fe85  1  0.30893033  0.90622504  0.04308948  1
  Fe  Fe86  1  0.47074783  0.33534683  0.53584037  1
  Fe  Fe87  1  0.19999090  0.94911682  0.11768685  1
  Fe  Fe88  1  0.78433378  0.61728551  0.62091593  1
  Fe  Fe89  1  0.50543952  0.25265340  0.80211185  1
  Fe  Fe90  1  0.84838964  0.51658169  1.05881694  1
  Fe  Fe91  1  0.66688957  0.92386297  0.61157590  1
  Fe  Fe92  1  0.78722302  0.95925700  0.56742288  1
  Fe  Fe93  1  0.34955588  0.33631706  0.14299525  1
  Fe  Fe94  1  0.38137419  0.38802701  0.63792428  1
  Fe  Fe95  1  0.24944990  0.22985188  0.44671896  1
  Fe  Fe96  1  0.25516082  0.37823501  0.55087507  1
  Fe  Fe97  1  0.34520470  0.35107146  0.44829108  1
  Fe  Fe98  1  0.29120424  0.59610452  -0.04918251  1
  Fe  Fe99  1  0.68857308  0.86152327  0.07991051  1
  Fe  Fe100  1  0.51459693  0.11561556  0.82461909  1
  Fe  Fe101  1  0.17751148  0.26220697  0.55731077  1
  Bi  Bi102  1  0.67679477  0.39540059  -0.03767222  1
  Bi  Bi103  1  0.56584818  0.01420281  0.35080098  1
  Bi  Bi104  1  0.58363008  0.27948145  0.41162036  1
  Bi  Bi105  1  0.25193482  0.30078385  0.71252081  1
  Bi  Bi106  1  0.75836064  0.76616703  0.19355037  1
  Bi  Bi107  1  0.53302475  -0.01875901  0.70348723  1
  Bi  Bi108  1  0.90596751  0.32062281  0.29228322  1
  Bi  Bi109  1  0.69848575  0.12500742  -0.00014099  1
  Bi  Bi110  1  0.16586499  -0.01781684  -0.03999169  1
  Bi  Bi111  1  0.08452535  0.05317284  0.20044278  1
  Bi  Bi112  1  0.00688689  0.60154307  -0.04748797  1
  Bi  Bi113  1  0.70926742  0.75894172  0.55231339  1
  Bi  Bi114  1  0.56280227  0.37422619  0.69925574  1
  Bi  Bi115  1  0.11138329  0.65293474  0.28412364  1
  Bi  Bi116  1  0.86504742  0.46559899  0.60555737  1
  Bi  Bi117  1  0.67325071  0.61673732  0.75673981  1
  Bi  Bi118  1  0.65667372  0.37183055  0.21751554  1
  Bi  Bi119  1  0.10765693  0.68582481  0.56326893  1
  Bi  Bi120  1  0.93235575  0.98979435  0.46125821  1
  Bi  Bi121  1  0.93686121  0.19185376  0.84926351  1
  Bi  Bi122  1  0.66891477  0.83291490  0.91556011  1
  Bi  Bi123  1  0.87805723  0.60520711  0.30909137  1
  Bi  Bi124  1  0.28790350  0.77865295  0.89303614  1
  Bi  Bi125  1  0.39792864  0.64095546  0.55850682  1
  Bi  Bi126  1  0.20080752  0.36897951  0.07248232  1
  Bi  Bi127  1  0.51857233  0.62568513  0.19834072  1
