# generated using pymatgen
data_Ba51Fe51Bi26
_symmetry_space_group_name_H-M   'P 1'
_cell_length_a   16.50401928
_cell_length_b   16.14462353
_cell_length_c   16.52127763
_cell_angle_alpha   89.54892122
_cell_angle_beta   89.90065121
_cell_angle_gamma   91.19862080
_symmetry_Int_Tables_number   1
_chemical_formula_structural   Ba51Fe51Bi26
_chemical_formula_sum   'Ba51 Fe51 Bi26'
_cell_volume   4401.00631982
_cell_formula_units_Z   1
loop_
 _symmetry_equiv_pos_site_id
 _symmetry_equiv_pos_as_xyz
  1  'x, y, z'
loop_
 _atom_site_type_symbol
 _atom_site_label
 _atom_site_symmetry_multiplicity
 _atom_site_fract_x
 _atom_site_fract_y
 _atom_site_fract_z
 _atom_site_occupancy
  Ba  Ba0  1  0.51974872  0.24446319  0.51835703  1
  Ba  Ba1  1  0.67323470  0.46695683  -0.05758304  1
  Ba  Ba2  1  0.73305392  0.32037744  0.66353228  1
  Ba  Ba3  1  0.28261207  -0.05802616  0.61560064  1
  Ba  Ba4  1  0.54297427  0.23220424  0.01894613  1
  Ba  Ba5  1  0.78079467  0.18834808  0.44896058  1
  Ba  Ba6  1  0.55565405  -0.03046854  0.53695651  1
  Ba  Ba7  1  0.04919405  0.71029764  0.48691310  1
  Ba  Ba8  1  0.13572398  0.27935044  -0.01070927  1
  Ba  Ba9  1  -0.00473768  -0.02364382  0.54781723  1
  Ba  Ba10  1  0.46355376  0.05181804  0.80069372  1
  Ba  Ba11  1  0.75673090  0.68759671  0.54992289  1
  Ba  Ba12  1  0.03912127  0.18119560  0.19929475  1
  Ba  Ba13  1  0.44653562  0.52957973  0.03770829  1
  Ba  Ba14  1  -0.05897852  0.18612928  0.66220802  1
  Ba  Ba15  1  -0.03244801  0.56339194  0.27551832  1
  Ba  Ba16  1  0.22757344  0.51537696  0.50703022  1
  Ba  Ba17  1  0.03979355  0.26453441  0.44629717  1
  Ba  Ba18  1  0.45352702  0.44156135  0.36533883  1
  Ba  Ba19  1  0.47870678  0.32036570  0.76750679  1
  Ba  Ba20  1  0.54251572  0.18341719  0.27044678  1
  Ba  Ba21  1  0.23358344  0.26320169  0.73542757  1
  Ba  Ba22  1  0.87336360  0.85711035  0.71104398  1
  Ba  Ba23  1  0.37322982  -0.05813178  0.27243316  1
  Ba  Ba24  1  0.28167811  0.25939269  0.47219535  1
  Ba  Ba25  1  0.76445248  -0.08697781  0.40889780  1
  Ba  Ba26  1  -0.00617187  0.05830276  0.01734533  1
  Ba  Ba27  1  0.43723142  0.77526638  -0.08983011  1
  Ba  Ba28  1  0.81584803  0.77123498  -0.06122316  1
  Ba  Ba29  1  0.00980469  0.68873033  0.03769864  1
  Ba  Ba30  1  0.74091928  0.02016233  0.00994076  1
  Ba  Ba31  1  0.17671680  0.03548595  0.38151689  1
  Ba  Ba32  1  0.62322308  -0.04312244  0.21225724  1
  Ba  Ba33  1  0.52576421  0.69331190  0.21337648  1
  Ba  Ba34  1  0.46763836  0.68010610  0.52187259  1
  Ba  Ba35  1  0.26890997  0.55155373  0.22817508  1
  Ba  Ba36  1  0.19994581  0.76883889  -0.12274561  1
  Ba  Ba37  1  0.02095648  0.44581939  0.08765483  1
  Ba  Ba38  1  0.62493388  0.68526643  0.78073928  1
  Ba  Ba39  1  0.02891425  0.65073604  0.77133190  1
  Ba  Ba40  1  0.69539147  0.45549548  0.19413620  1
  Ba  Ba41  1  0.81051308  0.46692833  0.45573731  1
  Ba  Ba42  1  0.38067922  0.02077280  0.04789758  1
  Ba  Ba43  1  0.01289126  0.40683745  0.81984540  1
  Ba  Ba44  1  -0.00150479  0.87809286  0.24808993  1
  Ba  Ba45  1  0.66666558  -0.05279530  0.77326277  1
  Ba  Ba46  1  0.81880596  0.53065303  0.76005113  1
  Ba  Ba47  1  0.24234186  0.79265542  0.11876489  1
  Ba  Ba48  1  0.77203640  0.72449918  0.17916981  1
  Ba  Ba49  1  0.84677028  0.25565620  -0.07359883  1
  Ba  Ba50  1  0.34253586  0.63992312  0.72218091  1
  Fe  Fe51  1  0.52816361  0.83679911  0.07008260  1
  Fe  Fe52  1  1.02062995  0.81990276  0.86430112  1
  Fe  Fe53  1  0.28971926  0.62104358  -0.03581859  1
  Fe  Fe54  1  0.31954097  0.29038130  0.07886215  1
  Fe  Fe55  1  0.14314842  0.04662136  0.75434936  1
  Fe  Fe56  1  0.95808876  -0.06852339  0.87717913  1
  Fe  Fe57  1  0.36931932  0.74678397  0.32076300  1
  Fe  Fe58  1  0.87780849  0.51790365  0.95685815  1
  Fe  Fe59  1  0.66043496  0.84187555  0.06238864  1
  Fe  Fe60  1  0.52287159  0.53214423  0.66087707  1
  Fe  Fe61  1  0.33321659  0.36497146  0.94167362  1
  Fe  Fe62  1  0.22224464  0.12167575  1.03584531  1
  Fe  Fe63  1  0.23541400  0.19496630  0.15618843  1
  Fe  Fe64  1  0.18475264  0.97932996  -0.00762808  1
  Fe  Fe65  1  0.05425220  0.52442739  0.63285104  1
  Fe  Fe66  1  0.19279040  1.09478374  0.89679451  1
  Fe  Fe67  1  0.17761904  0.60779976  0.02396319  1
  Fe  Fe68  1  1.09843842  0.37258323  0.27122219  1
  Fe  Fe69  1  0.93124371  0.55473621  0.60183848  1
  Fe  Fe70  1  0.19172842  0.25217790  0.29005991  1
  Fe  Fe71  1  0.83950880  0.17131293  0.10861992  1
  Fe  Fe72  1  0.10440514  0.96806331  0.87439755  1
  Fe  Fe73  1  0.26989160  0.68501930  0.38744364  1
  Fe  Fe74  1  0.35446666  0.81793040  0.43392006  1
  Fe  Fe75  1  0.61960924  0.47019051  0.73774545  1
  Fe  Fe76  1  0.82768426  0.41465635  1.04839181  1
  Fe  Fe77  1  0.74757271  1.10696110  0.27869194  1
  Fe  Fe78  1  0.07344732  0.39093309  0.62244432  1
  Fe  Fe79  1  0.21919902  0.38440124  0.32114670  1
  Fe  Fe80  1  0.86142599  0.30672702  0.14266287  1
  Fe  Fe81  1  0.94059604  0.41807597  0.62356361  1
  Fe  Fe82  1  0.06361695  0.87893473  -0.02127525  1
  Fe  Fe83  1  0.84521239  0.55181437  0.07525030  1
  Fe  Fe84  1  0.71455836  0.15296207  0.15178680  1
  Fe  Fe85  1  0.31585500  0.31504292  0.23111916  1
  Fe  Fe86  1  0.83203493  1.05147953  0.19519760  1
  Fe  Fe87  1  0.17445473  0.54865128  0.89890735  1
  Fe  Fe88  1  0.57704617  0.42684998  0.59412793  1
  Fe  Fe89  1  0.06812951  0.90065547  0.75602735  1
  Fe  Fe90  1  0.74459617  0.26364339  0.23819225  1
  Fe  Fe91  1  0.56024580  -0.05462735  0.99090099  1
  Fe  Fe92  1  0.19418264  0.34392252  0.16870685  1
  Fe  Fe93  1  0.61899910  0.83651819  0.93894629  1
  Fe  Fe94  1  0.74039236  0.28784374  0.08956789  1
  Fe  Fe95  1  1.00296624  1.01894557  0.76969341  1
  Fe  Fe96  1  0.23429724  0.81558330  0.37122475  1
  Fe  Fe97  1  0.85843676  0.19042401  0.24865496  1
  Fe  Fe98  1  0.22329721  0.41114479  0.87363486  1
  Fe  Fe99  1  0.67242553  0.52300453  0.62706570  1
  Fe  Fe100  1  0.62577113  0.80875966  0.62632583  1
  Fe  Fe101  1  0.32210362  0.50550646  0.87894322  1
  Bi  Bi102  1  0.61490627  0.53975574  0.47132197  1
  Bi  Bi103  1  0.34338722  0.19700430  -0.07837157  1
  Bi  Bi104  1  0.33350273  0.15508894  0.28189323  1
  Bi  Bi105  1  -0.07437832  0.05964991  0.34812217  1
  Bi  Bi106  1  0.48738989  0.52679920  0.83075027  1
  Bi  Bi107  1  0.27704773  -0.03844753  0.84166060  1
  Bi  Bi108  1  0.02222503  0.48357356  0.47480637  1
  Bi  Bi109  1  -0.14989393  0.05279870  0.83105677  1
  Bi  Bi110  1  0.18739929  0.49244138  0.72992630  1
  Bi  Bi111  1  0.17565164  0.00625829  0.15951769  1
  Bi  Bi112  1  0.91676478  0.34941176  0.29118337  1
  Bi  Bi113  1  0.24121371  0.45683792  0.04444337  1
  Bi  Bi114  1  0.25188501  0.73683889  0.54587150  1
  Bi  Bi115  1  0.39063107  0.07205226  0.45203649  1
  Bi  Bi116  1  0.14815388  0.11933032  0.59174894  1
  Bi  Bi117  1  0.52252325  0.82865127  0.37222966  1
  Bi  Bi118  1  0.78433838  0.02979879  0.59773316  1
  Bi  Bi119  1  0.47948484  0.83606500  0.69890097  1
  Bi  Bi120  1  0.13175074  0.70810710  0.28287927  1
  Bi  Bi121  1  0.62404006  0.67559622  1.01618967  1
  Bi  Bi122  1  0.86604880  0.72567503  0.37109478  1
  Bi  Bi123  1  0.65407257  0.33802047  0.36831418  1
  Bi  Bi124  1  0.40335781  0.42293584  0.58823879  1
  Bi  Bi125  1  0.05403746  0.17216648  0.83431362  1
  Bi  Bi126  1  0.61985566  0.13741139  0.67040425  1
  Bi  Bi127  1  0.46379810  0.36263179  0.16465473  1
