# generated using pymatgen
data_Ba51Fe51Bi26
_symmetry_space_group_name_H-M   'P 1'
_cell_length_a   15.79817173
_cell_length_b   16.33162422
_cell_length_c   17.09098234
_cell_angle_alpha   85.32479436
_cell_angle_beta   90.78773796
_cell_angle_gamma   90.61172115
_symmetry_Int_Tables_number   1
_chemical_formula_structural   Ba51Fe51Bi26
_chemical_formula_sum   'Ba51 Fe51 Bi26'
_cell_volume   4394.35163732
_cell_formula_units_Z   1
loop_
 _symmetry_equiv_pos_site_id
 _symmetry_equiv_pos_as_xyz
  1  'x, y, z'
loop_
 _atom_site_type_symbol
 _atom_site_label
 _atom_site_symmetry_multiplicity
 _atom_site_fract_x
 _atom_site_fract_y
 _atom_site_fract_z
 _atom_site_occupancy
  Ba  Ba0  1  0.06474402  0.36242752  0.54482363  1
  Ba  Ba1  1  -0.17444239  0.76495879  0.30121269  1
  Ba  Ba2  1  0.60931142  0.34104852  0.97807825  1
  Ba  Ba3  1  0.28940449  0.82016196  0.22153428  1
  Ba  Ba4  1  0.18621055  0.04621463  0.30776842  1
  Ba  Ba5  1  0.33808429  0.76460108  -0.14250523  1
  Ba  Ba6  1  0.16942952  0.61557287  0.26977084  1
  Ba  Ba7  1  0.60808734  0.20851771  0.34221152  1
  Ba  Ba8  1  0.14958362  -0.05646088  0.73483783  1
  Ba  Ba9  1  0.61747607  0.44594479  0.23633871  1
  Ba  Ba10  1  0.71690257  0.00146140  0.23350166  1
  Ba  Ba11  1  0.70545691  0.69732257  0.55474234  1
  Ba  Ba12  1  0.34305653  0.54097741  0.43259300  1
  Ba  Ba13  1  -0.00102448  0.11214769  0.51893560  1
  Ba  Ba14  1  0.55964617  0.50061876  0.53848834  1
  Ba  Ba15  1  0.74471528  0.15045835  0.72297035  1
  Ba  Ba16  1  -0.05538531  0.79034653  0.75652371  1
  Ba  Ba17  1  0.26616831  0.28516528  0.46965287  1
  Ba  Ba18  1  0.08777961  0.30576322  0.80579939  1
  Ba  Ba19  1  0.13788819  0.58394519  -0.11322575  1
  Ba  Ba20  1  0.23770069  0.78880733  0.50748524  1
  Ba  Ba21  1  0.77169542  0.76020775  -0.08645485  1
  Ba  Ba22  1  -0.08054350  0.40972469  -0.01521874  1
  Ba  Ba23  1  0.20513353  -0.05748572  0.01122122  1
  Ba  Ba24  1  0.49820016  0.24366688  0.55507747  1
  Ba  Ba25  1  -0.02343564  0.74503490  0.52904187  1
  Ba  Ba26  1  0.27315435  0.04375095  0.54270005  1
  Ba  Ba27  1  0.09064946  0.23367513  0.11986785  1
  Ba  Ba28  1  0.32127329  0.14742609  0.79255017  1
  Ba  Ba29  1  0.78319907  0.13963275  0.01450211  1
  Ba  Ba30  1  -0.01502516  -0.00025847  0.09699480  1
  Ba  Ba31  1  0.56663439  0.78725197  0.70659835  1
  Ba  Ba32  1  -0.02692080  0.08048066  0.81973623  1
  Ba  Ba33  1  0.08896336  0.39267268  0.27865045  1
  Ba  Ba34  1  -0.10854704  0.53971432  0.22498753  1
  Ba  Ba35  1  0.52661360  -0.02496299  0.51121097  1
  Ba  Ba36  1  0.79576059  0.47479771  0.73721981  1
  Ba  Ba37  1  0.29308706  0.58472721  0.07204086  1
  Ba  Ba38  1  -0.00918930  0.71367792  0.05358865  1
  Ba  Ba39  1  0.79138636  0.23774363  0.51422501  1
  Ba  Ba40  1  0.52477347  0.75106935  0.35785376  1
  Ba  Ba41  1  0.51842337  0.36588079  0.76423054  1
  Ba  Ba42  1  0.65239558  0.69736310  0.13331292  1
  Ba  Ba43  1  0.52939385  -0.00645046  0.79198185  1
  Ba  Ba44  1  0.56139869  0.57170317  -0.06206953  1
  Ba  Ba45  1  0.41858736  0.05460707  0.18234600  1
  Ba  Ba46  1  0.03614652  0.54768121  0.68191887  1
  Ba  Ba47  1  0.27210185  0.35081349  -0.03084900  1
  Ba  Ba48  1  0.61914660  -0.03810291  0.01550767  1
  Ba  Ba49  1  -0.04432543  -0.04734371  0.35116585  1
  Ba  Ba50  1  0.34987274  0.28837209  0.23076007  1
  Fe  Fe51  1  0.34129032  0.15662118  0.00867557  1
  Fe  Fe52  1  0.93911764  0.26748419  0.25150864  1
  Fe  Fe53  1  0.01612392  0.51498535  0.38992486  1
  Fe  Fe54  1  0.31033153  0.60939699  0.60002672  1
  Fe  Fe55  1  0.85575887  0.16488346  0.34068403  1
  Fe  Fe56  1  0.84920366  0.36258044  0.17059662  1
  Fe  Fe57  1  0.50497822  0.13655049  0.01579921  1
  Fe  Fe58  1  0.90814821  0.41863623  0.42921288  1
  Fe  Fe59  1  0.86693016  0.57017282  0.40348311  1
  Fe  Fe60  1  0.94963972  0.27075688  0.39141065  1
  Fe  Fe61  1  0.74283497  0.30784315  1.11311009  1
  Fe  Fe62  1  0.88846192  -0.00648169  0.66388801  1
  Fe  Fe63  1  0.45908676  0.69843779  0.04018053  1
  Fe  Fe64  1  0.21864794  0.45702749  0.75172563  1
  Fe  Fe65  1  -0.03021098  0.92078920  0.59794474  1
  Fe  Fe66  1  0.36774539  0.48943691  0.68553042  1
  Fe  Fe67  1  0.47775869  0.58460341  0.14491454  1
  Fe  Fe68  1  0.44180924  0.21548329  0.92374251  1
  Fe  Fe69  1  0.70955192  0.89992447  0.52694418  1
  Fe  Fe70  1  0.40488009  0.62199921  0.24956439  1
  Fe  Fe71  1  0.08125368  0.85114798  0.22325963  1
  Fe  Fe72  1  0.89452652  0.12852171  0.20492541  1
  Fe  Fe73  1  0.07975369  0.78444810  0.34882821  1
  Fe  Fe74  1  0.44155359  0.24732541  0.06498067  1
  Fe  Fe75  1  0.83890704  0.94806757  0.93740289  1
  Fe  Fe76  1  0.87602287  0.42939129  0.56213779  1
  Fe  Fe77  1  0.44531236  0.72430750  0.16226278  1
  Fe  Fe78  1  0.00081389  0.65235098  0.37656052  1
  Fe  Fe79  1  0.73884698  0.41142068  0.56890648  1
  Fe  Fe80  1  0.74537827  0.02475979  0.87720588  1
  Fe  Fe81  1  0.34766112  0.37549158  0.61880615  1
  Fe  Fe82  1  0.81515146  0.85775488  0.46857744  1
  Fe  Fe83  1  0.95981509  0.54699384  0.50358852  1
  Fe  Fe84  1  0.78082636  0.21821759  0.22073417  1
  Fe  Fe85  1  0.22508650  0.33531650  0.66791433  1
  Fe  Fe86  1  0.26496378  0.59519397  0.72482819  1
  Fe  Fe87  1  0.76242555  0.45285311  0.44159218  1
  Fe  Fe88  1  0.88888932  0.24391036  1.12318746  1
  Fe  Fe89  1  0.82357339  0.86288056  0.61523868  1
  Fe  Fe90  1  0.41187974  0.48986897  0.24217313  1
  Fe  Fe91  1  0.80894678  0.54397966  0.52786413  1
  Fe  Fe92  1  0.42951523  0.61945536  0.70695227  1
  Fe  Fe93  1  0.86664118  0.96895553  0.51911134  1
  Fe  Fe94  1  0.75592230  0.00659881  0.59703343  1
  Fe  Fe95  1  0.31712671  0.36520080  0.76247286  1
  Fe  Fe96  1  0.23244508  0.47946025  0.61659179  1
  Fe  Fe97  1  -0.00490223  0.14251119  0.30402185  1
  Fe  Fe98  1  0.01278360  0.73720635  0.24823779  1
  Fe  Fe99  1  0.07518782  0.22196205  0.36577972  1
  Fe  Fe100  1  0.43231077  0.83160698  0.04881446  1
  Fe  Fe101  1  0.33637783  0.72542755  0.67178989  1
  Bi  Bi102  1  0.45447594  0.70078476  0.54715201  1
  Bi  Bi103  1  0.52622292  0.87021007  0.18329721  1
  Bi  Bi104  1  0.40471984  0.00515894  -0.03404630  1
  Bi  Bi105  1  0.79717225  0.34471538  0.32630709  1
  Bi  Bi106  1  0.75258834  -0.07367868  0.75577587  1
  Bi  Bi107  1  0.74582431  0.04711312  0.42844250  1
  Bi  Bi108  1  0.69358315  0.59858133  0.37043179  1
  Bi  Bi109  1  0.35881773  0.51796555  0.85111045  1
  Bi  Bi110  1  0.15857176  0.73076794  0.70493560  1
  Bi  Bi111  1  0.13486362  0.58206424  0.48968356  1
  Bi  Bi112  1  0.74457410  0.48350042  0.07386068  1
  Bi  Bi113  1  0.60783017  0.18860750  0.14060292  1
  Bi  Bi114  1  0.44663367  0.42501043  0.09121146  1
  Bi  Bi115  1  0.60173588  0.57310959  0.73040846  1
  Bi  Bi116  1  0.00800489  0.89124618  0.92096129  1
  Bi  Bi117  1  0.46470904  0.38163666  0.37921177  1
  Bi  Bi118  1  0.81061857  0.86512699  0.09203825  1
  Bi  Bi119  1  0.60763633  0.16308852  0.87724686  1
  Bi  Bi120  1  0.54841560  0.78861101  0.92288401  1
  Bi  Bi121  1  0.36084090  0.92566317  0.38061505  1
  Bi  Bi122  1  0.16572312  0.14916120  0.94870724  1
  Bi  Bi123  1  0.39760366  0.13210127  0.38939050  1
  Bi  Bi124  1  0.91777738  0.59723594  0.86381506  1
  Bi  Bi125  1  0.14790092  0.17562020  0.65907005  1
  Bi  Bi126  1  0.36658584  0.89990935  0.67891253  1
  Bi  Bi127  1  0.08868829  0.49589865  0.09109005  1
