# generated using pymatgen
data_Ba51Fe51Bi26
_symmetry_space_group_name_H-M   'P 1'
_cell_length_a   16.66699860
_cell_length_b   16.42631588
_cell_length_c   15.92390047
_cell_angle_alpha   88.67707042
_cell_angle_beta   89.73852175
_cell_angle_gamma   90.85416423
_symmetry_Int_Tables_number   1
_chemical_formula_structural   Ba51Fe51Bi26
_chemical_formula_sum   'Ba51 Fe51 Bi26'
_cell_volume   4357.90491524
_cell_formula_units_Z   1
loop_
 _symmetry_equiv_pos_site_id
 _symmetry_equiv_pos_as_xyz
  1  'x, y, z'
loop_
 _atom_site_type_symbol
 _atom_site_label
 _atom_site_symmetry_multiplicity
 _atom_site_fract_x
 _atom_site_fract_y
 _atom_site_fract_z
 _atom_site_occupancy
  Ba  Ba0  1  0.59046598  0.82598843  0.31765854  1
  Ba  Ba1  1  0.30665202  0.52090610  0.26132103  1
  Ba  Ba2  1  0.27845236  0.34572308  0.05836747  1
  Ba  Ba3  1  -0.02826470  0.11360049  0.26917264  1
  Ba  Ba4  1  -0.07406263  0.79366759  0.25599209  1
  Ba  Ba5  1  0.00079138  0.46992648  0.51261603  1
  Ba  Ba6  1  0.40577340  0.52532299  0.48087058  1
  Ba  Ba7  1  0.24507863  0.75624053  0.17868614  1
  Ba  Ba8  1  -0.06119036  0.04362783  0.84846090  1
  Ba  Ba9  1  0.07430551  0.56761206  0.26458983  1
  Ba  Ba10  1  0.51921409  0.32775147  0.52579418  1
  Ba  Ba11  1  0.06307851  0.70832181  0.50831588  1
  Ba  Ba12  1  -0.01077260  0.54582774  -0.01165970  1
  Ba  Ba13  1  0.13589226  0.10795501  0.71482228  1
  Ba  Ba14  1  0.24681068  -0.13368112  0.78887562  1
  Ba  Ba15  1  0.76596314  -0.01752598  0.69673920  1
  Ba  Ba16  1  0.26491055  0.27518504  0.30159296  1
  Ba  Ba17  1  0.45423109  0.83924471  -0.05844302  1
  Ba  Ba18  1  0.62295699  0.46971500  0.81807512  1
  Ba  Ba19  1  0.78406455  -0.02698454  0.39911356  1
  Ba  Ba20  1  0.83721816  0.42869821  0.25143083  1
  Ba  Ba21  1  0.54968196  0.06372004  -0.05031942  1
  Ba  Ba22  1  -0.04889280  0.81836845  0.70807069  1
  Ba  Ba23  1  0.04615119  0.78892407  -0.03460165  1
  Ba  Ba24  1  0.24688292  0.29211277  0.82555640  1
  Ba  Ba25  1  0.47132851  -0.03190166  0.64677588  1
  Ba  Ba26  1  0.49491302  0.73546116  0.53320369  1
  Ba  Ba27  1  0.76518829  0.61578484  0.02364747  1
  Ba  Ba28  1  0.25158417  -0.07754047  0.51857587  1
  Ba  Ba29  1  0.10948646  -0.02487108  0.13651684  1
  Ba  Ba30  1  0.61349927  0.47416297  0.20116035  1
  Ba  Ba31  1  0.75891901  0.41835413  0.50884276  1
  Ba  Ba32  1  0.56044818  0.06024975  0.26039135  1
  Ba  Ba33  1  0.23202775  0.39664341  0.59322366  1
  Ba  Ba34  1  0.76081395  0.29608877  0.74790077  1
  Ba  Ba35  1  0.01000747  0.50167697  0.74673411  1
  Ba  Ba36  1  0.40301466  0.56690511  -0.11890884  1
  Ba  Ba37  1  0.00542412  -0.02454779  0.50429897  1
  Ba  Ba38  1  0.70332953  0.71337858  0.72466804  1
  Ba  Ba39  1  -0.03067218  0.27618275  0.85339007  1
  Ba  Ba40  1  0.27692299  0.71928098  0.41422102  1
  Ba  Ba41  1  0.51737547  0.69238558  0.12571725  1
  Ba  Ba42  1  0.30888871  0.09602682  -0.02713783  1
  Ba  Ba43  1  0.52223181  0.32035465  0.01790541  1
  Ba  Ba44  1  0.04611520  0.27005530  0.42862319  1
  Ba  Ba45  1  0.01355710  0.32811484  0.09619433  1
  Ba  Ba46  1  0.79156588  -0.01351565  0.08684282  1
  Ba  Ba47  1  0.31909041  0.01754031  0.27319696  1
  Ba  Ba48  1  0.70849415  0.66234100  0.45231923  1
  Ba  Ba49  1  0.68287010  0.15567369  0.51871978  1
  Ba  Ba50  1  0.29193462  0.17442972  0.53794761  1
  Fe  Fe51  1  0.70930900  0.95012153  -0.08798303  1
  Fe  Fe52  1  0.32800587  0.91749658  0.07976701  1
  Fe  Fe53  1  0.67716348  0.82534680  -0.05270097  1
  Fe  Fe54  1  0.82494827  0.49638363  0.82763845  1
  Fe  Fe55  1  0.87691906  0.26622252  0.53623105  1
  Fe  Fe56  1  0.25806790  0.66276593  0.75779508  1
  Fe  Fe57  1  0.10036455  0.15204859  0.97172024  1
  Fe  Fe58  1  0.87577204  0.68736635  0.55557869  1
  Fe  Fe59  1  -0.00274926  0.18714489  0.60340554  1
  Fe  Fe60  1  0.46814960  0.16957237  0.64924367  1
  Fe  Fe61  1  0.18436134  0.55403589  0.47216550  1
  Fe  Fe62  1  0.06416360  0.29640251  0.65010311  1
  Fe  Fe63  1  0.50678135  0.36171219  0.33022364  1
  Fe  Fe64  1  0.70855155  0.25639191  0.24823296  1
  Fe  Fe65  1  0.93684386  0.31338284  0.65122594  1
  Fe  Fe66  1  0.15693633  0.62212714  0.04540700  1
  Fe  Fe67  1  0.67323836  0.65103327  0.25044843  1
  Fe  Fe68  1  0.72517268  0.31687904  0.10153904  1
  Fe  Fe69  1  0.79876262  0.63782185  0.23820752  1
  Fe  Fe70  1  0.20446865  0.59672051  0.61918549  1
  Fe  Fe71  1  0.23405113  0.89208116  0.00037895  1
  Fe  Fe72  1  0.17730912  0.44958545  0.40269514  1
  Fe  Fe73  1  0.82316212  0.22525762  0.15904358  1
  Fe  Fe74  1  0.82155767  0.82043238  0.56232089  1
  Fe  Fe75  1  0.33915529  0.58468467  0.67461613  1
  Fe  Fe76  1  0.54279262  0.28042225  0.71765544  1
  Fe  Fe77  1  0.59306425  0.24707122  0.85122128  1
  Fe  Fe78  1  0.44012558  0.34916577  0.20899130  1
  Fe  Fe79  1  0.17270516  0.48420595  0.95863224  1
  Fe  Fe80  1  0.27705855  0.56241592  0.03823963  1
  Fe  Fe81  1  0.15801895  0.49660097  0.09661191  1
  Fe  Fe82  1  0.58699568  0.22806944  0.35493600  1
  Fe  Fe83  1  0.46372321  0.17909659  0.80937409  1
  Fe  Fe84  1  0.31390850  0.70369697  0.60618790  1
  Fe  Fe85  1  0.18736756  0.61374187  0.90169910  1
  Fe  Fe86  1  0.57159652  0.28016079  0.21471954  1
  Fe  Fe87  1  0.69499941  0.26805817  0.95386887  1
  Fe  Fe88  1  0.87629551  0.17005445  0.65300202  1
  Fe  Fe89  1  0.45570634  0.23404514  0.31367112  1
  Fe  Fe90  1  0.45483628  0.31441381  0.81997647  1
  Fe  Fe91  1  0.44301950  0.94179747  0.43009805  1
  Fe  Fe92  1  0.43603378  0.67233849  0.31958589  1
  Fe  Fe93  1  0.54937619  0.62464849  0.32999410  1
  Fe  Fe94  1  0.81334618  0.22622859  1.01293068  1
  Fe  Fe95  1  0.88846090  0.78081925  0.45655432  1
  Fe  Fe96  1  0.88906101  0.13667515  0.50924131  1
  Fe  Fe97  1  0.19707353  0.73723619  0.64557239  1
  Fe  Fe98  1  0.56243837  0.97350624  0.45423305  1
  Fe  Fe99  1  0.65217045  0.34148511  0.34762539  1
  Fe  Fe100  1  0.39126493  0.27508574  0.69384001  1
  Fe  Fe101  1  0.35422905  0.15000166  0.73377214  1
  Bi  Bi102  1  0.74977931  0.12076118  -0.11037837  1
  Bi  Bi103  1  0.47284699  0.11630096  0.45522105  1
  Bi  Bi104  1  0.43113935  0.43982339  0.69722687  1
  Bi  Bi105  1  0.09835957  0.69388443  0.77667959  1
  Bi  Bi106  1  0.82253198  0.39453872  -0.03294865  1
  Bi  Bi107  1  0.82790936  0.23858408  0.37091561  1
  Bi  Bi108  1  0.41448084  0.18551733  0.15306335  1
  Bi  Bi109  1  -0.05155651  0.13316165  0.04882278  1
  Bi  Bi110  1  0.42706292  0.49269791  0.09441386  1
  Bi  Bi111  1  0.73248510  0.78071217  0.15939238  1
  Bi  Bi112  1  0.41076552  0.74097664  0.73557993  1
  Bi  Bi113  1  0.27603220  0.73232409  -0.02785937  1
  Bi  Bi114  1  0.60744801  0.12453385  0.72462168  1
  Bi  Bi115  1  0.13071199  0.99617722  0.91104075  1
  Bi  Bi116  1  0.16534724  0.17744998  0.12943803  1
  Bi  Bi117  1  0.90027651  0.61224391  0.38189431  1
  Bi  Bi118  1  0.59519586  0.67583871  0.91754113  1
  Bi  Bi119  1  0.84374809  0.85681907  0.90194116  1
  Bi  Bi120  1  0.87920876  0.65026639  0.83561840  1
  Bi  Bi121  1  0.15684630  0.08819861  0.39316823  1
  Bi  Bi122  1  0.60057135  0.89274965  0.80195310  1
  Bi  Bi123  1  0.12571176  0.85834801  0.33825116  1
  Bi  Bi124  1  0.65998180  0.86730546  0.54125728  1
  Bi  Bi125  1  0.66664794  0.16275862  0.10490122  1
  Bi  Bi126  1  0.21850603  0.49722141  0.78390944  1
  Bi  Bi127  1  0.59807658  0.53778426  0.59954294  1
