# generated using pymatgen
data_Ba51Fe51Bi26
_symmetry_space_group_name_H-M   'P 1'
_cell_length_a   16.34487216
_cell_length_b   16.33843449
_cell_length_c   16.47795432
_cell_angle_alpha   86.16101519
_cell_angle_beta   91.12328754
_cell_angle_gamma   89.49571251
_symmetry_Int_Tables_number   1
_chemical_formula_structural   Ba51Fe51Bi26
_chemical_formula_sum   'Ba51 Fe51 Bi26'
_cell_volume   4389.48818942
_cell_formula_units_Z   1
loop_
 _symmetry_equiv_pos_site_id
 _symmetry_equiv_pos_as_xyz
  1  'x, y, z'
loop_
 _atom_site_type_symbol
 _atom_site_label
 _atom_site_symmetry_multiplicity
 _atom_site_fract_x
 _atom_site_fract_y
 _atom_site_fract_z
 _atom_site_occupancy
  Ba  Ba0  1  0.29317226  0.54501827  0.82105721  1
  Ba  Ba1  1  0.76575671  0.83213495  0.85179138  1
  Ba  Ba2  1  -0.03939759  0.26201345  0.54311586  1
  Ba  Ba3  1  0.91338776  0.13827309  0.75432755  1
  Ba  Ba4  1  0.03004664  0.39203382  0.32615690  1
  Ba  Ba5  1  0.87601574  0.04821725  0.24714341  1
  Ba  Ba6  1  0.17666540  0.53473595  0.49834542  1
  Ba  Ba7  1  0.03445014  0.74136542  0.49476935  1
  Ba  Ba8  1  0.70144297  0.79977094  0.22213060  1
  Ba  Ba9  1  0.51160007  0.17377018  0.78039187  1
  Ba  Ba10  1  0.60817776  0.38821970  0.71131236  1
  Ba  Ba11  1  0.72145008  0.26218007  0.55015373  1
  Ba  Ba12  1  0.37989784  -0.06887781  0.06186244  1
  Ba  Ba13  1  0.44526807  0.24468002  0.33890703  1
  Ba  Ba14  1  0.32088226  0.70971546  0.03409825  1
  Ba  Ba15  1  0.53904652  0.61494519  0.35753803  1
  Ba  Ba16  1  0.40122829  0.74906410  0.64994183  1
  Ba  Ba17  1  0.37149372  -0.00031075  0.65265778  1
  Ba  Ba18  1  0.58490856  0.08298823  0.00486297  1
  Ba  Ba19  1  -0.07993536  0.83843631  0.04230722  1
  Ba  Ba20  1  0.21741070  0.51778589  0.20554425  1
  Ba  Ba21  1  -0.03397866  0.62058800  0.13352634  1
  Ba  Ba22  1  0.07200192  0.26035710  0.04735861  1
  Ba  Ba23  1  0.53962773  -0.10142287  0.86073139  1
  Ba  Ba24  1  -0.18386310  0.59852212  0.29669116  1
  Ba  Ba25  1  0.75411359  0.61053953  0.72493601  1
  Ba  Ba26  1  0.82966708  0.08897559  -0.03480719  1
  Ba  Ba27  1  0.03749567  -0.06145635  0.63018983  1
  Ba  Ba28  1  0.44770968  0.52590665  0.02198602  1
  Ba  Ba29  1  0.35703629  0.26895811  0.56909166  1
  Ba  Ba30  1  0.61476010  0.07654564  0.25603604  1
  Ba  Ba31  1  0.73954737  0.29601480  0.10798931  1
  Ba  Ba32  1  0.77402385  0.76152274  0.47399276  1
  Ba  Ba33  1  0.23767170  0.83505592  0.80660890  1
  Ba  Ba34  1  0.01704918  0.49020669  0.69351403  1
  Ba  Ba35  1  0.70158260  0.50833657  0.50818670  1
  Ba  Ba36  1  0.06425927  0.52817771  -0.03814983  1
  Ba  Ba37  1  0.35135072  0.02654830  0.27079194  1
  Ba  Ba38  1  0.62301253  0.39177202  0.27987630  1
  Ba  Ba39  1  0.41756886  0.53456287  0.57922508  1
  Ba  Ba40  1  0.11276422  -0.01621485  0.20563768  1
  Ba  Ba41  1  0.20140984  0.75735248  0.23559185  1
  Ba  Ba42  1  -0.13612985  0.38459880  -0.09136645  1
  Ba  Ba43  1  0.65981488  0.52224833  -0.05346442  1
  Ba  Ba44  1  0.14110250  0.02305832  -0.07637471  1
  Ba  Ba45  1  0.25325817  0.24167957  0.85335553  1
  Ba  Ba46  1  0.13084065  0.14497698  0.43851372  1
  Ba  Ba47  1  0.25334438  0.27899898  0.20965923  1
  Ba  Ba48  1  0.53959428  -0.10662927  0.46134996  1
  Ba  Ba49  1  0.00844366  0.72572925  0.78405067  1
  Ba  Ba50  1  0.75041655  0.01013046  0.60902689  1
  Fe  Fe51  1  0.54913340  0.35389826  0.02449804  1
  Fe  Fe52  1  0.83135038  0.51652082  1.04204741  1
  Fe  Fe53  1  0.53341031  0.24239714  0.12795022  1
  Fe  Fe54  1  0.50000796  0.08656101  0.45248662  1
  Fe  Fe55  1  -0.04882420  0.56364222  0.43088563  1
  Fe  Fe56  1  0.33313109  0.88569138  0.47930377  1
  Fe  Fe57  1  0.47827272  0.23946984  0.98343419  1
  Fe  Fe58  1  0.17662650  0.84438057  0.02186932  1
  Fe  Fe59  1  0.51448298  0.36477491  0.88722082  1
  Fe  Fe60  1  0.33457054  0.84497522  0.34413069  1
  Fe  Fe61  1  0.81983726  0.39660895  0.27520446  1
  Fe  Fe62  1  0.25813530  0.74917246  0.44814596  1
  Fe  Fe63  1  0.39622547  0.35530915  0.94819436  1
  Fe  Fe64  1  0.66777397  0.80091272  0.66907579  1
  Fe  Fe65  1  0.83012118  0.30867737  0.39458582  1
  Fe  Fe66  1  0.32950226  0.25417498  1.03149326  1
  Fe  Fe67  1  0.54192998  0.20455202  0.52403177  1
  Fe  Fe68  1  0.07699050  0.82804686  0.93194492  1
  Fe  Fe69  1  0.20526742  -0.04710238  0.50193461  1
  Fe  Fe70  1  0.87105444  0.43202411  0.56163721  1
  Fe  Fe71  1  0.22112390  -0.17898095  0.55398224  1
  Fe  Fe72  1  0.41986261  0.16824657  0.11586926  1
  Fe  Fe73  1  -0.00875578  0.45851708  0.50875636  1
  Fe  Fe74  1  0.14820984  0.71242041  0.94151321  1
  Fe  Fe75  1  0.76941764  0.49153130  0.15536224  1
  Fe  Fe76  1  0.10216337  0.73701812  0.05936810  1
  Fe  Fe77  1  0.78393168  1.14661906  0.41444177  1
  Fe  Fe78  1  0.56048051  0.08237461  0.57418302  1
  Fe  Fe79  1  0.42760015  0.32895086  0.10360749  1
  Fe  Fe80  1  0.38116038  0.44054734  0.39249236  1
  Fe  Fe81  1  0.39300158  0.75205927  0.43215950  1
  Fe  Fe82  1  0.90328676  0.06694166  0.44982460  1
  Fe  Fe83  1  0.91425778  0.19252906  0.36836636  1
  Fe  Fe84  1  0.58211749  0.73382754  0.75236532  1
  Fe  Fe85  1  -0.11222784  0.27318041  0.25100678  1
  Fe  Fe86  1  0.76383195  0.23903570  0.30395586  1
  Fe  Fe87  1  0.73703097  0.21978434  0.77662689  1
  Fe  Fe88  1  0.60181646  0.70595361  0.89456293  1
  Fe  Fe89  1  0.46990989  0.70885634  0.86742349  1
  Fe  Fe90  1  0.51859772  0.71222858  1.01125754  1
  Fe  Fe91  1  0.66333415  0.73273698  1.03093799  1
  Fe  Fe92  1  0.86438638  0.44629721  0.42249656  1
  Fe  Fe93  1  0.38063111  0.13802141  0.98081881  1
  Fe  Fe94  1  0.88821671  0.56661877  0.54370741  1
  Fe  Fe95  1  0.19645504  0.87538106  0.39890773  1
  Fe  Fe96  1  0.40614005  0.62515931  0.20442485  1
  Fe  Fe97  1  0.40244894  0.74300517  0.27461217  1
  Fe  Fe98  1  0.56090729  0.82859521  0.07189919  1
  Fe  Fe99  1  0.63906186  0.11763161  0.44492321  1
  Fe  Fe100  1  0.77052020  0.63356440  0.07761254  1
  Fe  Fe101  1  0.49738152  0.72361347  0.15686548  1
  Bi  Bi102  1  0.62226864  0.59965793  0.15269636  1
  Bi  Bi103  1  0.18350342  0.68026820  0.65857128  1
  Bi  Bi104  1  0.41907565  0.44761372  0.22743109  1
  Bi  Bi105  1  0.33037848  0.07121790  0.46476665  1
  Bi  Bi106  1  0.52746816  0.38140852  0.48107519  1
  Bi  Bi107  1  0.59326362  0.68722540  0.57400194  1
  Bi  Bi108  1  0.66449151  0.28368054  -0.09024654  1
  Bi  Bi109  1  0.51521626  0.57716447  0.78693921  1
  Bi  Bi110  1  0.24404916  0.40699857  0.00960556  1
  Bi  Bi111  1  0.03931331  -0.04567952  0.41300498  1
  Bi  Bi112  1  0.86704275  0.63747569  -0.07235005  1
  Bi  Bi113  1  0.50446126  0.87614153  0.23790868  1
  Bi  Bi114  1  0.03949379  0.18815598  0.24670751  1
  Bi  Bi115  1  0.84420143  0.80952479  0.65572741  1
  Bi  Bi116  1  0.39763969  0.36682683  0.76036632  1
  Bi  Bi117  1  -0.07113279  0.40532343  0.12858936  1
  Bi  Bi118  1  0.70932521  0.90863116  0.03812931  1
  Bi  Bi119  1  0.06064888  0.61754424  0.32208218  1
  Bi  Bi120  1  0.83589459  0.34762511  0.70769364  1
  Bi  Bi121  1  0.96636267  0.93841852  0.84483784  1
  Bi  Bi122  1  0.32819912  0.61078739  0.36909928  1
  Bi  Bi123  1  0.74815607  0.97669274  0.40417562  1
  Bi  Bi124  1  0.35422292  0.02863616  0.86082448  1
  Bi  Bi125  1  0.69881895  0.05690690  0.80402426  1
  Bi  Bi126  1  0.24632618  0.11147515  0.08304612  1
  Bi  Bi127  1  0.23754704  0.35152560  0.40471564  1
