# generated using pymatgen
data_Ba51Fe51Bi26
_symmetry_space_group_name_H-M   'P 1'
_cell_length_a   16.48358327
_cell_length_b   16.15684249
_cell_length_c   16.53283973
_cell_angle_alpha   88.31774561
_cell_angle_beta   89.91391079
_cell_angle_gamma   91.39507651
_symmetry_Int_Tables_number   1
_chemical_formula_structural   Ba51Fe51Bi26
_chemical_formula_sum   'Ba51 Fe51 Bi26'
_cell_volume   4399.85670618
_cell_formula_units_Z   1
loop_
 _symmetry_equiv_pos_site_id
 _symmetry_equiv_pos_as_xyz
  1  'x, y, z'
loop_
 _atom_site_type_symbol
 _atom_site_label
 _atom_site_symmetry_multiplicity
 _atom_site_fract_x
 _atom_site_fract_y
 _atom_site_fract_z
 _atom_site_occupancy
  Ba  Ba0  1  0.41817428  0.47027319  0.13143572  1
  Ba  Ba1  1  -0.08087147  0.42940794  -0.07219615  1
  Ba  Ba2  1  0.83106739  0.74870586  0.88754170  1
  Ba  Ba3  1  -0.02161209  0.53672259  0.65438206  1
  Ba  Ba4  1  0.25605424  0.06398471  0.28357818  1
  Ba  Ba5  1  0.31086595  0.03347560  0.03717615  1
  Ba  Ba6  1  0.27154061  -0.05226853  0.53541821  1
  Ba  Ba7  1  0.76615685  0.28574747  0.07762909  1
  Ba  Ba8  1  -0.01900142  -0.00897027  -0.04280206  1
  Ba  Ba9  1  -0.04473355  0.15186878  0.16740907  1
  Ba  Ba10  1  -0.07902436  0.31905204  0.46035777  1
  Ba  Ba11  1  0.51765378  0.41728170  0.73650704  1
  Ba  Ba12  1  0.36116521  0.70208648  0.07349060  1
  Ba  Ba13  1  0.25558724  0.33506485  0.29039317  1
  Ba  Ba14  1  0.18243818  0.85742542  -0.08552867  1
  Ba  Ba15  1  0.18014562  0.54609420  -0.03301512  1
  Ba  Ba16  1  0.50507551  0.31567702  0.27703557  1
  Ba  Ba17  1  0.19622220  0.55808663  0.22784855  1
  Ba  Ba18  1  0.78866024  0.50719175  0.34963952  1
  Ba  Ba19  1  0.01193982  0.04878058  0.35747882  1
  Ba  Ba20  1  0.55959621  0.43267379  0.48410225  1
  Ba  Ba21  1  0.47100237  0.28579907  -0.02798531  1
  Ba  Ba22  1  0.75438899  0.03053936  0.45917507  1
  Ba  Ba23  1  -0.04303237  -0.10176964  0.53433652  1
  Ba  Ba24  1  0.74899292  0.08833293  -0.05274769  1
  Ba  Ba25  1  0.73611665  0.74994334  0.50076715  1
  Ba  Ba26  1  0.49627391  0.84516978  0.57248937  1
  Ba  Ba27  1  0.47719747  0.15514169  0.53068262  1
  Ba  Ba28  1  0.75612609  0.71463529  0.20775389  1
  Ba  Ba29  1  0.17329197  0.26650013  -0.01491732  1
  Ba  Ba30  1  0.58101849  -0.08337921  0.82504599  1
  Ba  Ba31  1  0.81783976  -0.02539175  0.71182279  1
  Ba  Ba32  1  0.15404972  0.16446383  0.55974289  1
  Ba  Ba33  1  -0.02649676  0.57546506  0.12731047  1
  Ba  Ba34  1  0.54020458  0.16784913  0.77248753  1
  Ba  Ba35  1  0.27299558  0.48413264  0.74072577  1
  Ba  Ba36  1  0.12230146  0.75582125  0.48888413  1
  Ba  Ba37  1  0.76446773  0.57789572  0.74353000  1
  Ba  Ba38  1  0.11147953  0.73484846  0.72583169  1
  Ba  Ba39  1  -0.00469568  0.19375917  0.75386965  1
  Ba  Ba40  1  0.74134408  0.22479709  0.29919149  1
  Ba  Ba41  1  0.73017601  0.23367742  0.59221180  1
  Ba  Ba42  1  0.53124420  0.76639997  0.30055800  1
  Ba  Ba43  1  0.30461616  0.39988899  0.52145127  1
  Ba  Ba44  1  0.08858368  0.53254768  0.43133381  1
  Ba  Ba45  1  0.29929262  0.75525282  0.35672105  1
  Ba  Ba46  1  0.49682024  0.67745480  0.79443115  1
  Ba  Ba47  1  0.57495513  0.90919874  0.08524896  1
  Ba  Ba48  1  -0.03689973  0.83846306  0.15019170  1
  Ba  Ba49  1  0.65529622  0.46498356  -0.06936548  1
  Ba  Ba50  1  0.48988755  0.08139133  0.22436571  1
  Fe  Fe51  1  0.69782473  0.33721616  0.77523667  1
  Fe  Fe52  1  0.02860046  0.74022226  -0.02845900  1
  Fe  Fe53  1  0.40506978  0.03061534  0.41098366  1
  Fe  Fe54  1  0.20199851  0.85723850  0.18612017  1
  Fe  Fe55  1  0.75938296  0.20490915  0.78208964  1
  Fe  Fe56  1  0.41929768  0.59527758  0.43163400  1
  Fe  Fe57  1  0.39019214  0.59322672  0.28586144  1
  Fe  Fe58  1  0.82314455  0.56204117  0.53740537  1
  Fe  Fe59  1  0.25628886  0.89942965  0.72279921  1
  Fe  Fe60  1  0.80081283  0.43088945  0.56307668  1
  Fe  Fe61  1  0.80611053  0.28355312  0.87501968  1
  Fe  Fe62  1  1.01578880  0.67966960  0.30156895  1
  Fe  Fe63  1  0.36949429  0.26399507  0.80048786  1
  Fe  Fe64  1  0.09340284  0.28899585  0.19107648  1
  Fe  Fe65  1  0.12574166  0.74783120  0.26284439  1
  Fe  Fe66  1  0.10662134  0.33139697  0.40747938  1
  Fe  Fe67  1  0.33412780  0.15913564  0.68844193  1
  Fe  Fe68  1  0.58372034  0.69997087  0.09541774  1
  Fe  Fe69  1  0.36938354  0.84351097  0.77193353  1
  Fe  Fe70  1  0.53740651  0.59836938  1.00772886  1
  Fe  Fe71  1  1.01115509  0.80774082  0.34113953  1
  Fe  Fe72  1  0.52584998  0.74852690  0.98113639  1
  Fe  Fe73  1  0.12293312  0.88703151  0.29223721  1
  Fe  Fe74  1  0.37377338  0.29146631  0.67208850  1
  Fe  Fe75  1  0.04217264  0.26181805  0.31756266  1
  Fe  Fe76  1  0.32469012  0.13069943  0.83168900  1
  Fe  Fe77  1  0.97995275  0.87680944  0.76565938  1
  Fe  Fe78  1  0.69794940  0.53459831  0.56423977  1
  Fe  Fe79  1  0.67098332  0.26444149  0.88908639  1
  Fe  Fe80  1  0.60693415  0.54909311  0.13534091  1
  Fe  Fe81  1  0.73883457  0.91845098  0.18791170  1
  Fe  Fe82  1  0.80456224  0.02636304  0.26526445  1
  Fe  Fe83  1  0.60608816  0.40484017  0.11280891  1
  Fe  Fe84  1  0.08135818  0.41593702  0.14015005  1
  Fe  Fe85  1  0.63562602  0.69794146  0.93891973  1
  Fe  Fe86  1  1.06329556  0.40266656  0.28545144  1
  Fe  Fe87  1  0.68796639  0.63212368  0.04119639  1
  Fe  Fe88  1  0.95575308  0.35103047  0.22217456  1
  Fe  Fe89  1  0.69477621  0.90276289  0.31435544  1
  Fe  Fe90  1  0.24229572  0.04903696  0.73078718  1
  Fe  Fe91  1  0.65732846  0.43101439  0.22468899  1
  Fe  Fe92  1  0.82745753  0.01523346  0.12872092  1
  Fe  Fe93  1  0.29556778  0.55349326  0.39620439  1
  Fe  Fe94  1  0.32401676  0.98133461  0.83037956  1
  Fe  Fe95  1  0.71205155  0.07297065  0.15015172  1
  Fe  Fe96  1  0.40406335  0.47310442  0.34936884  1
  Fe  Fe97  1  0.40718502  0.91811697  0.35922755  1
  Fe  Fe98  1  0.66487899  0.02730827  0.26966938  1
  Fe  Fe99  1  -0.00890341  0.33319226  1.08872083  1
  Fe  Fe100  1  0.30770176  0.76580079  0.67608869  1
  Fe  Fe101  1  0.69766822  0.42182093  0.64951871  1
  Bi  Bi102  1  -0.07618016  0.66872041  0.44141753  1
  Bi  Bi103  1  0.10211512  -0.03953670  0.67970310  1
  Bi  Bi104  1  0.28892959  0.68917128  0.83068161  1
  Bi  Bi105  1  0.41082192  0.00542785  0.68909109  1
  Bi  Bi106  1  0.85559351  0.36355968  0.71787797  1
  Bi  Bi107  1  0.56174614  -0.03121689  0.39679246  1
  Bi  Bi108  1  0.21421872  0.26658855  0.74938180  1
  Bi  Bi109  1  0.77310096  0.50041933  0.11566513  1
  Bi  Bi110  1  0.56074009  0.54726935  0.30263164  1
  Bi  Bi111  1  0.85666689  -0.12148317  0.33677065  1
  Bi  Bi112  1  0.11046867  -0.00253739  0.14772906  1
  Bi  Bi113  1  -0.05572481  0.21776865  -0.03593567  1
  Bi  Bi114  1  0.14353975  0.72159048  0.09159577  1
  Bi  Bi115  1  0.78425261  0.88907083  0.03064256  1
  Bi  Bi116  1  0.89583924  0.75627649  0.68249779  1
  Bi  Bi117  1  0.16939704  0.07557979  0.88006733  1
  Bi  Bi118  1  0.34734557  0.22945762  0.13603440  1
  Bi  Bi119  1  0.29175510  0.63322380  0.55271607  1
  Bi  Bi120  1  0.00049813  0.61436090  0.87237807  1
  Bi  Bi121  1  0.37473865  0.89028416  0.19597194  1
  Bi  Bi122  1  0.40925841  0.86630991  0.93515108  1
  Bi  Bi123  1  0.42243888  0.50109228  0.91771436  1
  Bi  Bi124  1  0.09745581  0.37148367  0.57512306  1
  Bi  Bi125  1  0.62729438  0.03312372  0.63303733  1
  Bi  Bi126  1  0.68082289  0.77881521  0.70478724  1
  Bi  Bi127  1  0.92655157  0.11874342  0.55676468  1
