# generated using pymatgen
data_Ba51Fe51Bi26
_symmetry_space_group_name_H-M   'P 1'
_cell_length_a   15.91365781
_cell_length_b   16.81327338
_cell_length_c   16.48890250
_cell_angle_alpha   92.39577855
_cell_angle_beta   89.37376513
_cell_angle_gamma   86.16087861
_symmetry_Int_Tables_number   1
_chemical_formula_structural   Ba51Fe51Bi26
_chemical_formula_sum   'Ba51 Fe51 Bi26'
_cell_volume   4397.61714741
_cell_formula_units_Z   1
loop_
 _symmetry_equiv_pos_site_id
 _symmetry_equiv_pos_as_xyz
  1  'x, y, z'
loop_
 _atom_site_type_symbol
 _atom_site_label
 _atom_site_symmetry_multiplicity
 _atom_site_fract_x
 _atom_site_fract_y
 _atom_site_fract_z
 _atom_site_occupancy
  Ba  Ba0  1  0.71274270  0.81114600  0.34705592  1
  Ba  Ba1  1  0.35304344  0.43872815  -0.02135399  1
  Ba  Ba2  1  0.45281811  0.03435831  0.03884114  1
  Ba  Ba3  1  0.02043506  0.35234952  0.04772735  1
  Ba  Ba4  1  0.46726566  0.65532926  0.09696730  1
  Ba  Ba5  1  0.54713395  0.25624558  0.53119093  1
  Ba  Ba6  1  0.72715501  0.06169368  -0.06609795  1
  Ba  Ba7  1  0.52527865  0.11008289  0.30556376  1
  Ba  Ba8  1  0.54694838  0.78879834  0.75135949  1
  Ba  Ba9  1  0.22666679  0.22087108  -0.10022914  1
  Ba  Ba10  1  0.67286967  0.05146695  0.66936853  1
  Ba  Ba11  1  0.33747048  -0.08367630  0.78678400  1
  Ba  Ba12  1  0.44456804  0.47090719  0.55851368  1
  Ba  Ba13  1  0.73386885  0.40124605  0.21758122  1
  Ba  Ba14  1  0.75572251  0.19556820  0.31226989  1
  Ba  Ba15  1  0.24550488  0.21989207  0.38428177  1
  Ba  Ba16  1  0.25178029  0.43528213  0.73845838  1
  Ba  Ba17  1  0.71252506  0.51057244  0.43046561  1
  Ba  Ba18  1  0.13573148  -0.08184257  0.62399891  1
  Ba  Ba19  1  0.47132837  0.31328656  0.18266173  1
  Ba  Ba20  1  0.83462100  0.23458810  0.54807034  1
  Ba  Ba21  1  -0.03030395  0.18059503  0.84388752  1
  Ba  Ba22  1  0.24966872  0.19801731  0.14732726  1
  Ba  Ba23  1  0.21666683  0.62751857  0.20691284  1
  Ba  Ba24  1  0.51663825  0.68350781  0.53832655  1
  Ba  Ba25  1  0.23024739  0.45362883  0.37363049  1
  Ba  Ba26  1  0.73344697  0.30789069  -0.00240644  1
  Ba  Ba27  1  0.71310797  0.60094079  0.08218780  1
  Ba  Ba28  1  0.29623045  0.68098637  -0.08870879  1
  Ba  Ba29  1  0.00297690  0.17556628  0.24259921  1
  Ba  Ba30  1  0.41875408  0.14685932  0.73723274  1
  Ba  Ba31  1  -0.03796488  0.78183849  0.26782519  1
  Ba  Ba32  1  -0.04404621  -0.05711980  0.07137009  1
  Ba  Ba33  1  0.45795937  0.80959068  0.35162980  1
  Ba  Ba34  1  0.20847329  0.80252718  0.40753888  1
  Ba  Ba35  1  0.65829821  0.82679686  -0.03209304  1
  Ba  Ba36  1  0.67517408  -0.03317745  0.17418757  1
  Ba  Ba37  1  0.61293858  0.54852968  0.85020064  1
  Ba  Ba38  1  -0.04650258  0.58432190  0.08471571  1
  Ba  Ba39  1  0.78602808  0.78071092  0.57497774  1
  Ba  Ba40  1  0.41650837  0.01934493  0.49860942  1
  Ba  Ba41  1  0.06064079  0.42473132  0.54891629  1
  Ba  Ba42  1  0.74929406  0.33272268  0.77090175  1
  Ba  Ba43  1  0.19459720  -0.08713502  -0.00254947  1
  Ba  Ba44  1  0.23761104  0.67534676  0.63151186  1
  Ba  Ba45  1  -0.03614640  -0.05714134  0.79416386  1
  Ba  Ba46  1  0.84800856  0.54032530  0.71649886  1
  Ba  Ba47  1  0.03915824  0.01059699  0.41830642  1
  Ba  Ba48  1  0.06760786  0.57907203  0.87187987  1
  Ba  Ba49  1  -0.04034885  0.62851294  0.45357165  1
  Ba  Ba50  1  0.18154108  0.16024016  0.62651732  1
  Fe  Fe51  1  0.90452546  0.43310129  0.39168232  1
  Fe  Fe52  1  0.33922488  0.06078377  0.28112689  1
  Fe  Fe53  1  0.39008146  0.48947916  0.20543624  1
  Fe  Fe54  1  0.24856112  1.02142191  0.39632102  1
  Fe  Fe55  1  0.06339751  0.47457617  0.20856196  1
  Fe  Fe56  1  0.93512306  0.35229167  0.71205296  1
  Fe  Fe57  1  0.67733065  0.10080693  0.46928090  1
  Fe  Fe58  1  0.54156232  0.37727982  0.88463320  1
  Fe  Fe59  1  0.29251463  0.93432732  0.29946375  1
  Fe  Fe60  1  0.91187613  0.30773939  0.36981482  1
  Fe  Fe61  1  0.55309510  0.33879794  0.73912008  1
  Fe  Fe62  1  0.01272709  0.26922116  0.64110803  1
  Fe  Fe63  1  0.61513387  -0.00714113  0.43289852  1
  Fe  Fe64  1  0.96985376  0.79587289  0.64822702  1
  Fe  Fe65  1  0.42204379  0.45817406  0.33502681  1
  Fe  Fe66  1  0.45517460  0.44712085  0.78532696  1
  Fe  Fe67  1  0.10106076  0.35455209  0.24597166  1
  Fe  Fe68  1  0.08162564  0.29868861  0.75766759  1
  Fe  Fe69  1  0.89269415  0.17419689  1.06022999  1
  Fe  Fe70  1  -0.08977956  0.75299220  1.00665040  1
  Fe  Fe71  1  0.27961783  -0.01083172  0.16563513  1
  Fe  Fe72  1  0.14573776  0.03988409  0.14945442  1
  Fe  Fe73  1  0.73181075  1.00418710  0.36044835  1
  Fe  Fe74  1  0.04526742  0.34475139  0.36928812  1
  Fe  Fe75  1  0.18708464  0.05706079  0.27828768  1
  Fe  Fe76  1  0.73734259  0.95997682  0.50313339  1
  Fe  Fe77  1  0.01292272  0.78079100  -0.07976754  1
  Fe  Fe78  1  0.94784428  0.38629109  0.25157249  1
  Fe  Fe79  1  0.02881702  0.47623095  0.33728311  1
  Fe  Fe80  1  0.82288539  0.05965684  0.44816014  1
  Fe  Fe81  1  0.43036363  0.31427539  0.83663365  1
  Fe  Fe82  1  -0.04038549  0.84295571  0.50193102  1
  Fe  Fe83  1  0.42854232  0.59579319  0.27722804  1
  Fe  Fe84  1  0.85951851  0.92068214  0.42272207  1
  Fe  Fe85  1  0.10195643  0.37872404  0.86648319  1
  Fe  Fe86  1  0.42324990  0.33419579  0.70190746  1
  Fe  Fe87  1  0.86325415  0.74011542  0.74300166  1
  Fe  Fe88  1  0.51353368  0.55189628  0.37814040  1
  Fe  Fe89  1  0.99108818  0.74196320  0.78901182  1
  Fe  Fe90  1  0.81165979  0.11258611  0.13204073  1
  Fe  Fe91  1  0.55550096  0.42020284  0.34137030  1
  Fe  Fe92  1  0.76225690  0.71625687  0.83055682  1
  Fe  Fe93  1  0.96296099  0.38092172  0.85011049  1
  Fe  Fe94  1  0.49962239  0.85214656  0.13491612  1
  Fe  Fe95  1  0.42363828  0.95066906  0.21701269  1
  Fe  Fe96  1  0.86611557  0.81029765  -0.11701151  1
  Fe  Fe97  1  0.05683048  0.76006310  0.54593766  1
  Fe  Fe98  1  0.60924629  0.78158137  0.17346676  1
  Fe  Fe99  1  0.88807521  0.67063674  0.88537520  1
  Fe  Fe100  1  0.53747597  0.49492339  0.22717911  1
  Fe  Fe101  1  1.04489774  0.42555744  0.73880913  1
  Bi  Bi102  1  0.23469916  0.41242196  0.15693698  1
  Bi  Bi103  1  0.12680042  -0.09181423  0.23358781  1
  Bi  Bi104  1  0.56165784  0.45088968  0.05210529  1
  Bi  Bi105  1  0.06855968  0.13548434  0.03448169  1
  Bi  Bi106  1  0.74851396  0.87730803  0.77606672  1
  Bi  Bi107  1  0.03644931  0.22109542  0.47235452  1
  Bi  Bi108  1  0.60644908  0.64249634  0.27719284  1
  Bi  Bi109  1  0.02215220  0.63381667  0.65629953  1
  Bi  Bi110  1  0.89506225  -0.01494136  0.58713394  1
  Bi  Bi111  1  0.08734528  0.73519362  0.06102281  1
  Bi  Bi112  1  0.58818077  -0.11987556  0.54376663  1
  Bi  Bi113  1  0.32780484  0.81770881  0.17393857  1
  Bi  Bi114  1  -0.12839643  0.55287420  0.27604067  1
  Bi  Bi115  1  0.64001239  0.16954508  0.12438671  1
  Bi  Bi116  1  0.54083283  0.98971907  0.84031866  1
  Bi  Bi117  1  0.87557669  0.00516186  0.26968360  1
  Bi  Bi118  1  0.32295270  0.30068550  0.56782938  1
  Bi  Bi119  1  0.14913897  0.79753208  0.80825451  1
  Bi  Bi120  1  0.42400735  0.60357905  0.73828315  1
  Bi  Bi121  1  0.79193828  0.78347222  0.13419994  1
  Bi  Bi122  1  0.59077123  0.21591735  0.85000790  1
  Bi  Bi123  1  0.43353444  0.82888349  0.97107311  1
  Bi  Bi124  1  0.83944923  0.48875726  0.92217960  1
  Bi  Bi125  1  0.34381249  0.62131874  0.42208552  1
  Bi  Bi126  1  0.35355166  0.84039010  0.57646964  1
  Bi  Bi127  1  0.16084296  0.05061522  0.80023251  1
