# generated using pymatgen
data_Ba51Fe51Bi26
_symmetry_space_group_name_H-M   'P 1'
_cell_length_a   16.80513320
_cell_length_b   15.82791564
_cell_length_c   16.36076285
_cell_angle_alpha   88.18536131
_cell_angle_beta   92.46674852
_cell_angle_gamma   88.41642554
_symmetry_Int_Tables_number   1
_chemical_formula_structural   Ba51Fe51Bi26
_chemical_formula_sum   'Ba51 Fe51 Bi26'
_cell_volume   4343.75748495
_cell_formula_units_Z   1
loop_
 _symmetry_equiv_pos_site_id
 _symmetry_equiv_pos_as_xyz
  1  'x, y, z'
loop_
 _atom_site_type_symbol
 _atom_site_label
 _atom_site_symmetry_multiplicity
 _atom_site_fract_x
 _atom_site_fract_y
 _atom_site_fract_z
 _atom_site_occupancy
  Ba  Ba0  1  0.51356560  0.34344951  0.42964502  1
  Ba  Ba1  1  0.86650576  0.66011802  0.83347551  1
  Ba  Ba2  1  0.03981777  0.80129823  0.22733127  1
  Ba  Ba3  1  0.42208396  0.71203111  0.49803431  1
  Ba  Ba4  1  0.34030081  -0.10011348  0.66787057  1
  Ba  Ba5  1  0.71459932  0.48976936  0.74857791  1
  Ba  Ba6  1  0.87129746  0.21127783  -0.13565488  1
  Ba  Ba7  1  0.49262884  0.44979646  -0.00238163  1
  Ba  Ba8  1  0.31819408  0.71335769  0.25113197  1
  Ba  Ba9  1  0.05430506  0.53666148  0.74469676  1
  Ba  Ba10  1  0.54539944  -0.04498960  0.51864019  1
  Ba  Ba11  1  0.16662901  0.81608927  0.46827217  1
  Ba  Ba12  1  0.55391969  -0.10720237  -0.06723363  1
  Ba  Ba13  1  0.28099109  0.45940289  0.44653983  1
  Ba  Ba14  1  0.25857652  0.06376515  -0.04696498  1
  Ba  Ba15  1  0.00145586  -0.05530209  0.79399886  1
  Ba  Ba16  1  0.23347156  0.35992123  0.67475986  1
  Ba  Ba17  1  0.63023195  0.59295122  0.51142179  1
  Ba  Ba18  1  -0.05281087  0.56781886  0.06632530  1
  Ba  Ba19  1  0.27787718  0.61002063  0.65537310  1
  Ba  Ba20  1  0.52873358  0.08827768  0.76667803  1
  Ba  Ba21  1  0.92083751  0.34202937  0.65608851  1
  Ba  Ba22  1  0.63411636  0.76545811  0.69789028  1
  Ba  Ba23  1  0.69973635  0.56258251  0.08600750  1
  Ba  Ba24  1  0.82817113  0.15580882  0.25868818  1
  Ba  Ba25  1  0.65438961  0.18392185  -0.01661779  1
  Ba  Ba26  1  0.46394187  0.15893598  0.07739904  1
  Ba  Ba27  1  0.00895754  0.74890004  0.61997857  1
  Ba  Ba28  1  0.26678739  0.51025691  -0.09880704  1
  Ba  Ba29  1  0.39988166  0.34878583  0.20638092  1
  Ba  Ba30  1  0.63155921  0.78383213  0.15404701  1
  Ba  Ba31  1  0.05707023  0.09109086  0.08141090  1
  Ba  Ba32  1  0.40064827  -0.07576500  0.17206850  1
  Ba  Ba33  1  0.69371925  0.22221249  0.57409498  1
  Ba  Ba34  1  0.00712282  0.08368325  0.47852160  1
  Ba  Ba35  1  0.28151058  0.12172116  0.53230623  1
  Ba  Ba36  1  0.46533863  0.09725794  0.33885202  1
  Ba  Ba37  1  0.12257952  0.24375244  0.30453595  1
  Ba  Ba38  1  -0.12346776  0.67595594  0.42047348  1
  Ba  Ba39  1  0.86034534  0.86810272  -0.01595876  1
  Ba  Ba40  1  0.71603762  0.82571419  0.37951634  1
  Ba  Ba41  1  0.11902055  0.32747033  -0.02533119  1
  Ba  Ba42  1  -0.26815851  0.38183740  0.32085142  1
  Ba  Ba43  1  -0.18597587  0.34475840  0.05395444  1
  Ba  Ba44  1  0.21124809  0.01307071  0.27386745  1
  Ba  Ba45  1  0.47405496  0.62440255  0.82635185  1
  Ba  Ba46  1  0.33568949  0.82098243  0.91746216  1
  Ba  Ba47  1  0.10326470  0.15998241  0.72383274  1
  Ba  Ba48  1  0.80146890  -0.01667919  0.54694265  1
  Ba  Ba49  1  0.16338911  0.70058150  0.00939382  1
  Ba  Ba50  1  0.14685550  0.47942408  0.20612095  1
  Fe  Fe51  1  0.20172833  0.95589659  0.78078023  1
  Fe  Fe52  1  0.17452916  0.81760796  0.72529658  1
  Fe  Fe53  1  -0.02047749  0.56890749  0.27265516  1
  Fe  Fe54  1  0.10615192  0.56366385  0.52175676  1
  Fe  Fe55  1  0.72319504  -0.02920923  0.22982623  1
  Fe  Fe56  1  0.84301937  0.58365513  0.24520850  1
  Fe  Fe57  1  1.08153903  0.73791153  0.81514364  1
  Fe  Fe58  1  0.39653689  0.27486041  0.74299268  1
  Fe  Fe59  1  0.51054120  0.52746291  0.66755414  1
  Fe  Fe60  1  0.16046898  0.84841448  0.85565800  1
  Fe  Fe61  1  0.09900768  0.42739980  0.42178433  1
  Fe  Fe62  1  0.38854717  0.37340395  0.84268173  1
  Fe  Fe63  1  0.50270112  0.28333895  0.86064430  1
  Fe  Fe64  1  0.53701284  0.67603439  1.00891432  1
  Fe  Fe65  1  0.42315526  0.34007924  0.60064924  1
  Fe  Fe66  1  0.96330626  0.38941159  0.46020375  1
  Fe  Fe67  1  0.85306460  0.96593316  0.16189907  1
  Fe  Fe68  1  0.39993249  0.19663891  -0.12364455  1
  Fe  Fe69  1  0.88757749  0.48853354  0.36890057  1
  Fe  Fe70  1  0.45133305  0.54405845  0.40347604  1
  Fe  Fe71  1  0.71189204  0.01314318  0.87779278  1
  Fe  Fe72  1  0.55415743  0.40717925  0.62229194  1
  Fe  Fe73  1  0.44249583  0.49232513  0.55511044  1
  Fe  Fe74  1  -0.10861794  0.45472891  0.21790621  1
  Fe  Fe75  1  0.72410029  0.87982566  0.83268415  1
  Fe  Fe76  1  0.51814399  0.63875529  0.29391920  1
  Fe  Fe77  1  0.42776642  0.53269071  0.26681436  1
  Fe  Fe78  1  0.57412483  0.98771659  0.14778364  1
  Fe  Fe79  1  0.40786728  0.43865611  0.69880208  1
  Fe  Fe80  1  0.58876835  0.95507523  0.27911442  1
  Fe  Fe81  1  0.86029665  0.90463120  0.28300363  1
  Fe  Fe82  1  -0.00467696  0.41467838  0.31101388  1
  Fe  Fe83  1  0.56311013  0.50951776  0.34510140  1
  Fe  Fe84  1  0.39872344  0.64564023  1.01199784  1
  Fe  Fe85  1  0.68765183  0.96914680  0.72630829  1
  Fe  Fe86  1  0.81358817  -0.00057050  0.79049376  1
  Fe  Fe87  1  0.73076675  0.10991764  0.75915019  1
  Fe  Fe88  1  0.48115751  0.61595851  0.14334137  1
  Fe  Fe89  1  1.07070596  0.43749914  0.55870666  1
  Fe  Fe90  1  0.52145588  0.28248257  0.69301389  1
  Fe  Fe91  1  0.63426802  0.08791152  0.20864203  1
  Fe  Fe92  1  0.52258527  0.40366956  0.77301101  1
  Fe  Fe93  1  0.80066971  0.70010185  0.61460411  1
  Fe  Fe94  1  0.45057211  0.75153681  1.07392551  1
  Fe  Fe95  1  0.95764391  0.52457876  0.54063049  1
  Fe  Fe96  1  0.28537398  0.26909889  0.84974447  1
  Fe  Fe97  1  0.34979816  0.29323212  -0.03194900  1
  Fe  Fe98  1  0.01487410  0.53698368  0.41248870  1
  Fe  Fe99  1  0.20725599  0.70575541  0.80877745  1
  Fe  Fe100  1  0.55777711  0.50026228  0.21065201  1
  Fe  Fe101  1  0.85994743  0.58060937  0.62819935  1
  Bi  Bi102  1  0.50991350  0.81288275  0.33506010  1
  Bi  Bi103  1  0.83125548  -0.15917708  0.71213545  1
  Bi  Bi104  1  0.66142586  0.27599380  0.78535321  1
  Bi  Bi105  1  0.68707757  0.60792166  0.29915978  1
  Bi  Bi106  1  0.13208423  -0.03970213  0.62339898  1
  Bi  Bi107  1  -0.19815647  0.46332376  0.51610836  1
  Bi  Bi108  1  0.67352905  0.71189890  -0.08965709  1
  Bi  Bi109  1  -0.15845965  0.75464851  0.18735135  1
  Bi  Bi110  1  0.11596588  0.27484794  0.51910544  1
  Bi  Bi111  1  -0.00418206  0.01589870  0.26860379  1
  Bi  Bi112  1  -0.00234735  0.33506331  0.15173086  1
  Bi  Bi113  1  0.67389177  0.06397316  0.37965659  1
  Bi  Bi114  1  0.70212813  -0.02029984  0.05750956  1
  Bi  Bi115  1  0.85382522  0.10376039  0.04942900  1
  Bi  Bi116  1  0.20364490  0.89397676  0.09562556  1
  Bi  Bi117  1  0.86425091  0.25130185  0.45491723  1
  Bi  Bi118  1  0.30689693  0.11696106  0.75273906  1
  Bi  Bi119  1  0.88914093  0.11607299  0.68309339  1
  Bi  Bi120  1  0.25672411  0.20881802  0.11655370  1
  Bi  Bi121  1  0.48362787  0.17183819  0.56167267  1
  Bi  Bi122  1  0.34586155  0.92648299  0.43140235  1
  Bi  Bi123  1  0.32189792  0.53959021  0.11526056  1
  Bi  Bi124  1  0.91658413  0.43763549  0.87915292  1
  Bi  Bi125  1  -0.05059768  0.87305303  0.43157531  1
  Bi  Bi126  1  0.61110296  0.33956443  0.14587039  1
  Bi  Bi127  1  0.13788664  0.62846271  0.36087453  1
