# generated using pymatgen
data_Ba51Fe51Bi26
_symmetry_space_group_name_H-M   'P 1'
_cell_length_a   16.02485428
_cell_length_b   16.58853521
_cell_length_c   16.69350500
_cell_angle_alpha   91.10175240
_cell_angle_beta   90.95504914
_cell_angle_gamma   88.41730039
_symmetry_Int_Tables_number   1
_chemical_formula_structural   Ba51Fe51Bi26
_chemical_formula_sum   'Ba51 Fe51 Bi26'
_cell_volume   4434.52421222
_cell_formula_units_Z   1
loop_
 _symmetry_equiv_pos_site_id
 _symmetry_equiv_pos_as_xyz
  1  'x, y, z'
loop_
 _atom_site_type_symbol
 _atom_site_label
 _atom_site_symmetry_multiplicity
 _atom_site_fract_x
 _atom_site_fract_y
 _atom_site_fract_z
 _atom_site_occupancy
  Ba  Ba0  1  0.41772713  0.54450000  0.20469474  1
  Ba  Ba1  1  0.81310881  -0.00179471  0.54374153  1
  Ba  Ba2  1  -0.03488381  0.49407213  0.84061551  1
  Ba  Ba3  1  0.73491632  -0.04255981  -0.03757251  1
  Ba  Ba4  1  0.17248638  0.54212193  0.01224754  1
  Ba  Ba5  1  0.00517295  -0.07529934  0.28366992  1
  Ba  Ba6  1  0.44847074  0.40610290  0.43820527  1
  Ba  Ba7  1  0.81076115  0.75947086  0.77754678  1
  Ba  Ba8  1  0.59689870  0.13157248  0.19951097  1
  Ba  Ba9  1  0.19426394  0.81904736  0.39075622  1
  Ba  Ba10  1  0.44588585  0.42004463  0.00792995  1
  Ba  Ba11  1  0.32924464  0.85304201  0.78409546  1
  Ba  Ba12  1  -0.07573811  0.20217526  -0.07242781  1
  Ba  Ba13  1  0.30342582  0.46179980  0.78871700  1
  Ba  Ba14  1  0.02094764  -0.07048098  0.73047417  1
  Ba  Ba15  1  0.19931878  0.28502527  -0.03769883  1
  Ba  Ba16  1  0.25515900  0.20915884  0.44175931  1
  Ba  Ba17  1  -0.01929528  0.47368458  0.52454654  1
  Ba  Ba18  1  -0.01892216  0.71636471  0.58185200  1
  Ba  Ba19  1  0.71251711  0.74002127  0.23705475  1
  Ba  Ba20  1  0.62204302  0.24359186  -0.00829926  1
  Ba  Ba21  1  0.01272053  0.15196018  0.71634259  1
  Ba  Ba22  1  0.92542645  0.24764996  0.46833029  1
  Ba  Ba23  1  0.12710732  0.52757590  0.26064422  1
  Ba  Ba24  1  0.70054071  0.47722014  0.48264414  1
  Ba  Ba25  1  0.47821539  0.60514848  0.70720496  1
  Ba  Ba26  1  -0.06425081  0.66776970  0.32561293  1
  Ba  Ba27  1  0.25661787  0.24308263  0.71732641  1
  Ba  Ba28  1  0.73177579  0.49035383  0.71614140  1
  Ba  Ba29  1  0.23427345  0.46767351  0.54422697  1
  Ba  Ba30  1  0.78399855  0.00220052  0.25892273  1
  Ba  Ba31  1  0.00614642  0.01405123  0.04836585  1
  Ba  Ba32  1  0.29480710  0.79041864  0.03056150  1
  Ba  Ba33  1  0.44521255  0.76371277  0.26045427  1
  Ba  Ba34  1  0.45400555  0.07832999  0.76321671  1
  Ba  Ba35  1  0.66323551  0.54675580  -0.07201979  1
  Ba  Ba36  1  0.64513611  0.73491872  0.47509310  1
  Ba  Ba37  1  -0.04393617  0.21273414  0.23555244  1
  Ba  Ba38  1  0.79647398  0.71081715  0.02507039  1
  Ba  Ba39  1  0.10826101  0.72349659  0.84043184  1
  Ba  Ba40  1  0.37477532  0.00666022  0.22665531  1
  Ba  Ba41  1  0.59791549  0.85960276  0.70983049  1
  Ba  Ba42  1  0.31026228  0.06161189  -0.03912373  1
  Ba  Ba43  1  -0.06058810  0.44992697  0.10839363  1
  Ba  Ba44  1  0.24432285  0.21576164  0.21589831  1
  Ba  Ba45  1  0.63580556  0.22112153  0.49283568  1
  Ba  Ba46  1  0.72524815  0.30512751  0.28268399  1
  Ba  Ba47  1  0.36112961  0.72137698  0.53852993  1
  Ba  Ba48  1  0.77699203  0.26744310  0.73455201  1
  Ba  Ba49  1  0.51105671  0.01851413  0.54600992  1
  Ba  Ba50  1  0.69601581  0.48290669  0.14918155  1
  Fe  Fe51  1  0.95862628  0.79942160  0.10934198  1
  Fe  Fe52  1  0.55499594  0.41556218  0.27323634  1
  Fe  Fe53  1  0.10593678  0.34788757  0.17071775  1
  Fe  Fe54  1  0.82115037  0.08012370  0.73910758  1
  Fe  Fe55  1  0.27100702  1.01339147  0.47522236  1
  Fe  Fe56  1  0.63008145  0.05436680  0.38555559  1
  Fe  Fe57  1  0.54564086  0.33062856  0.16151759  1
  Fe  Fe58  1  0.58435241  0.18730978  0.67563298  1
  Fe  Fe59  1  0.72834371  0.56446279  0.32166027  1
  Fe  Fe60  1  0.59808663  0.54614959  0.32222609  1
  Fe  Fe61  1  0.45992825  0.28354960  0.72747422  1
  Fe  Fe62  1  0.98497789  0.66240296  0.13204685  1
  Fe  Fe63  1  0.99304438  0.06748281  0.42451565  1
  Fe  Fe64  1  0.29968938  0.06509952  0.59700381  1
  Fe  Fe65  1  0.16390704  0.97092694  0.57841463  1
  Fe  Fe66  1  0.42160659  0.34324626  0.21544092  1
  Fe  Fe67  1  0.16107485  0.11159556  0.56863368  1
  Fe  Fe68  1  0.61975286  0.69259023  0.81344945  1
  Fe  Fe69  1  0.86965140  1.00452294  0.83439937  1
  Fe  Fe70  1  0.06032887  0.26351153  0.08867577  1
  Fe  Fe71  1  0.57704492  0.26074673  0.79468798  1
  Fe  Fe72  1  0.60255322  0.83299614  0.06756841  1
  Fe  Fe73  1  1.02682893  0.05959853  0.55030574  1
  Fe  Fe74  1  0.58487873  0.33223864  0.66026176  1
  Fe  Fe75  1  0.24659027  0.65468925  0.68759578  1
  Fe  Fe76  1  0.67767503  1.07560518  0.67393618  1
  Fe  Fe77  1  0.48711436  0.05591796  0.04095043  1
  Fe  Fe78  1  0.80428079  0.30137870  0.08072454  1
  Fe  Fe79  1  0.74783812  0.97444355  0.75135842  1
  Fe  Fe80  1  0.12220820  0.07376491  0.87462359  1
  Fe  Fe81  1  0.12734005  0.03137258  0.44261670  1
  Fe  Fe82  1  0.65848758  0.92418600  0.38994872  1
  Fe  Fe83  1  0.46426352  0.91208106  0.07660817  1
  Fe  Fe84  1  0.52468204  -0.01962282  0.35741378  1
  Fe  Fe85  1  0.10940677  0.69781326  0.08465921  1
  Fe  Fe86  1  0.97653826  0.34694291  0.69390189  1
  Fe  Fe87  1  0.50179766  0.77118006  0.84620383  1
  Fe  Fe88  1  0.30507735  0.92254827  0.57724386  1
  Fe  Fe89  1  0.51599774  0.28897655  0.30136043  1
  Fe  Fe90  1  0.58687338  -0.02368421  0.07593158  1
  Fe  Fe91  1  0.11131047  0.39566678  0.70917819  1
  Fe  Fe92  1  0.50611361  0.66517445  -0.08385037  1
  Fe  Fe93  1  0.99577988  0.69781397  0.99756865  1
  Fe  Fe94  1  0.07330263  0.82103010  1.03722337  1
  Fe  Fe95  1  0.07734815  0.77248059  0.18760451  1
  Fe  Fe96  1  0.45747246  0.38630222  0.64322596  1
  Fe  Fe97  1  0.05659557  0.32265289  0.79729705  1
  Fe  Fe98  1  0.62461834  0.76982825  0.93312159  1
  Fe  Fe99  1  0.66345388  0.66788948  0.67276860  1
  Fe  Fe100  1  0.77258265  0.64449116  0.60527890  1
  Fe  Fe101  1  0.48596504  0.78712152  0.99579487  1
  Bi  Bi102  1  0.21712944  0.04168960  0.73968018  1
  Bi  Bi103  1  0.26869926  0.40420111  0.13611847  1
  Bi  Bi104  1  -0.06865513  0.84887642  -0.06779781  1
  Bi  Bi105  1  0.56765130  0.66487018  0.08588667  1
  Bi  Bi106  1  0.42300556  0.20850753  0.09672017  1
  Bi  Bi107  1  0.01486861  -0.09443300  0.49370900  1
  Bi  Bi108  1  0.58778724  -0.08783788  0.22307827  1
  Bi  Bi109  1  0.50960681  -0.06895175  -0.08776071  1
  Bi  Bi110  1  0.18481446  0.80266499  0.63534745  1
  Bi  Bi111  1  0.66994030  0.11528289  0.83152151  1
  Bi  Bi112  1  0.46579314  0.14443753  0.36744899  1
  Bi  Bi113  1  0.09970973  0.28866387  0.58092314  1
  Bi  Bi114  1  0.43194449  0.22400994  0.57878592  1
  Bi  Bi115  1  0.10718901  0.56310860  0.69785131  1
  Bi  Bi116  1  0.86624124  0.45919318  0.32340624  1
  Bi  Bi117  1  0.31505652  0.58992830  0.38452424  1
  Bi  Bi118  1  0.80342909  0.13728099  0.09468707  1
  Bi  Bi119  1  0.12441103  0.62778099  0.44759761  1
  Bi  Bi120  1  0.80375378  0.38109086  0.93647307  1
  Bi  Bi121  1  0.09560112  0.33407455  0.34341963  1
  Bi  Bi122  1  0.40534594  0.25403795  0.87883039  1
  Bi  Bi123  1  0.53845256  0.42698730  0.80070909  1
  Bi  Bi124  1  0.23672080  0.69538146  0.19903034  1
  Bi  Bi125  1  0.15567599  0.91752676  0.92218591  1
  Bi  Bi126  1  0.81715129  0.83971983  0.39624169  1
  Bi  Bi127  1  0.39226218  0.89646646  0.42300751  1
