# generated using pymatgen
data_Ba51Fe51Bi26
_symmetry_space_group_name_H-M   'P 1'
_cell_length_a   16.69602603
_cell_length_b   16.40339255
_cell_length_c   15.93217757
_cell_angle_alpha   88.26970342
_cell_angle_beta   88.05183983
_cell_angle_gamma   87.07412517
_symmetry_Int_Tables_number   1
_chemical_formula_structural   Ba51Fe51Bi26
_chemical_formula_sum   'Ba51 Fe51 Bi26'
_cell_volume   4353.39132356
_cell_formula_units_Z   1
loop_
 _symmetry_equiv_pos_site_id
 _symmetry_equiv_pos_as_xyz
  1  'x, y, z'
loop_
 _atom_site_type_symbol
 _atom_site_label
 _atom_site_symmetry_multiplicity
 _atom_site_fract_x
 _atom_site_fract_y
 _atom_site_fract_z
 _atom_site_occupancy
  Ba  Ba0  1  0.56452600  0.52319912  0.04997905  1
  Ba  Ba1  1  0.29086666  0.37279370  0.21460931  1
  Ba  Ba2  1  0.87275123  0.50238177  0.53221913  1
  Ba  Ba3  1  0.22240136  0.75208437  -0.00578712  1
  Ba  Ba4  1  0.61585118  0.16476128  0.26762538  1
  Ba  Ba5  1  0.52777029  0.25295711  0.51966272  1
  Ba  Ba6  1  0.73438945  -0.02833716  0.32497760  1
  Ba  Ba7  1  0.29941682  0.02112417  0.44645938  1
  Ba  Ba8  1  -0.00915886  0.49547659  0.74370574  1
  Ba  Ba9  1  0.48446195  0.25295046  0.06685976  1
  Ba  Ba10  1  0.13682686  0.81581886  0.73429947  1
  Ba  Ba11  1  0.68988590  0.47703615  0.77771268  1
  Ba  Ba12  1  0.53274796  0.70270291  0.50046002  1
  Ba  Ba13  1  0.55369869  -0.04324388  -0.03173537  1
  Ba  Ba14  1  0.83330928  0.26511635  0.49619598  1
  Ba  Ba15  1  0.09755993  -0.11639993  0.46771401  1
  Ba  Ba16  1  0.26837986  0.70759598  0.53450771  1
  Ba  Ba17  1  0.01145338  0.54430525  0.20994069  1
  Ba  Ba18  1  0.09140486  0.14029001  0.53766747  1
  Ba  Ba19  1  -0.06020085  0.71954989  0.41490104  1
  Ba  Ba20  1  0.73298660  0.74748699  0.31275466  1
  Ba  Ba21  1  -0.03310362  0.00581196  -0.10458086  1
  Ba  Ba22  1  0.65838213  0.75010974  0.71616299  1
  Ba  Ba23  1  0.73320830  0.22562408  -0.02775714  1
  Ba  Ba24  1  0.18433953  -0.00332319  0.04752039  1
  Ba  Ba25  1  0.46436201  0.53425052  0.73201417  1
  Ba  Ba26  1  -0.04085671  -0.02568167  0.23590226  1
  Ba  Ba27  1  0.26348881  0.48156492  0.87541451  1
  Ba  Ba28  1  0.22846044  0.03859743  0.74896066  1
  Ba  Ba29  1  0.48248474  0.73461247  0.22647460  1
  Ba  Ba30  1  0.17252896  0.30036576  0.69801322  1
  Ba  Ba31  1  0.24504460  0.68074261  0.26744478  1
  Ba  Ba32  1  0.52532039  -0.00744120  0.48528332  1
  Ba  Ba33  1  0.45100827  -0.01142468  0.20517058  1
  Ba  Ba34  1  0.11033150  0.52341822  0.46689224  1
  Ba  Ba35  1  0.78251458  0.00078102  0.73300824  1
  Ba  Ba36  1  0.40808952  0.76956201  0.79936378  1
  Ba  Ba37  1  0.89096106  0.02950183  0.49937184  1
  Ba  Ba38  1  0.04195637  0.31792677  0.31325778  1
  Ba  Ba39  1  0.25922831  0.25243939  -0.02641315  1
  Ba  Ba40  1  0.26803744  0.30956916  0.46471955  1
  Ba  Ba41  1  0.77804512  0.80407661  -0.04981228  1
  Ba  Ba42  1  0.71209722  0.24207015  0.71041831  1
  Ba  Ba43  1  -0.02107258  0.22246997  0.02207780  1
  Ba  Ba44  1  0.83269749  0.21874976  0.25375701  1
  Ba  Ba45  1  0.41277806  0.29723030  0.75167888  1
  Ba  Ba46  1  0.78765448  0.56403377  0.06033682  1
  Ba  Ba47  1  0.48515795  0.02619681  0.72703735  1
  Ba  Ba48  1  0.55339120  0.40132120  0.31899274  1
  Ba  Ba49  1  -0.06524830  0.76821542  0.12604164  1
  Ba  Ba50  1  0.24187107  0.12979390  0.22318660  1
  Fe  Fe51  1  0.04625053  0.13814935  0.23673704  1
  Fe  Fe52  1  0.80675850  0.06727640  0.12146998  1
  Fe  Fe53  1  0.39963382  0.11803142  0.90162574  1
  Fe  Fe54  1  0.35537438  0.60481458  0.06816704  1
  Fe  Fe55  1  0.36586446  0.07765350  0.02303361  1
  Fe  Fe56  1  0.69720013  0.42107283  0.53595015  1
  Fe  Fe57  1  0.09477217  0.51150795  -0.03007954  1
  Fe  Fe58  1  0.88932422  0.17632312  0.80492026  1
  Fe  Fe59  1  0.98793860  0.13361834  0.35815750  1
  Fe  Fe60  1  0.74096081  0.41684927  0.39102760  1
  Fe  Fe61  1  0.97104484  0.48917017  1.00306519  1
  Fe  Fe62  1  0.02767811  0.13847818  0.73940092  1
  Fe  Fe63  1  0.70350503  0.10395786  0.47450663  1
  Fe  Fe64  1  -0.06052297  0.82815776  0.62843984  1
  Fe  Fe65  1  -0.00021235  0.24938544  0.81320645  1
  Fe  Fe66  1  0.67564433  0.54528808  0.57952827  1
  Fe  Fe67  1  0.80542506  0.54463454  0.33181531  1
  Fe  Fe68  1  0.94415545  0.26788100  0.68389004  1
  Fe  Fe69  1  0.65771929  0.09060414  0.59582966  1
  Fe  Fe70  1  0.09985924  0.05563634  0.34467594  1
  Fe  Fe71  1  0.79210972  0.93543355  0.11803509  1
  Fe  Fe72  1  0.28242726  0.88264063  0.19061081  1
  Fe  Fe73  1  0.82154219  0.85657650  0.48585163  1
  Fe  Fe74  1  0.19066278  0.94736784  0.28742712  1
  Fe  Fe75  1  0.40573077  0.43715880  0.43750525  1
  Fe  Fe76  1  0.55030592  0.35268192  0.87783028  1
  Fe  Fe77  1  0.86915855  0.81137223  0.75938436  1
  Fe  Fe78  1  -0.03543809  0.70610435  0.76796833  1
  Fe  Fe79  1  0.30086431  0.86924646  0.32054738  1
  Fe  Fe80  1  0.91219864  0.13378269  0.67291042  1
  Fe  Fe81  1  0.87456036  0.70493367  0.65233697  1
  Fe  Fe82  1  0.69137062  0.84110905  0.50708263  1
  Fe  Fe83  1  0.40623130  0.57701358  0.94208153  1
  Fe  Fe84  1  0.75907690  0.43463401  0.24161878  1
  Fe  Fe85  1  0.71748794  0.96611951  0.54473192  1
  Fe  Fe86  1  0.39869806  0.55963880  0.54012685  1
  Fe  Fe87  1  0.61752672  0.72427989  0.03245033  1
  Fe  Fe88  1  0.29035133  0.51376212  0.48412012  1
  Fe  Fe89  1  0.40366970  0.58137167  0.39297629  1
  Fe  Fe90  1  0.36725906  0.47142151  0.04814397  1
  Fe  Fe91  1  0.68257185  0.03258851  0.12128697  1
  Fe  Fe92  1  0.58095007  0.75380944  0.90481980  1
  Fe  Fe93  1  0.44924350  0.42898762  0.92473071  1
  Fe  Fe94  1  0.69044386  0.54756562  0.43374896  1
  Fe  Fe95  1  0.87143493  0.42449857  0.31553084  1
  Fe  Fe96  1  0.95977620  0.61423308  0.91145492  1
  Fe  Fe97  1  0.66232467  0.64901058  0.91107896  1
  Fe  Fe98  1  0.30759397  0.50532171  0.34943722  1
  Fe  Fe99  1  0.79654278  0.83961251  0.62018357  1
  Fe  Fe100  1  0.38598746  0.42509228  0.57635375  1
  Fe  Fe101  1  1.03994356  0.63116953  0.01899150  1
  Bi  Bi102  1  0.65412488  0.57334308  0.26044952  1
  Bi  Bi103  1  -0.00490077  0.78964580  -0.08412462  1
  Bi  Bi104  1  0.75500114  0.68490861  0.52852285  1
  Bi  Bi105  1  0.25538277  0.50277299  0.65273573  1
  Bi  Bi106  1  -0.14296742  0.34290723  0.83241122  1
  Bi  Bi107  1  -0.10492459  0.39023091  0.13869393  1
  Bi  Bi108  1  0.41309222  0.53668905  0.21554565  1
  Bi  Bi109  1  0.76279762  0.01602529  -0.04000254  1
  Bi  Bi110  1  0.20239903  0.55567507  0.08990276  1
  Bi  Bi111  1  0.54212037  0.47798930  0.52702414  1
  Bi  Bi112  1  0.00898433  -0.01874961  0.67344038  1
  Bi  Bi113  1  0.44812466  0.72920332  0.01094194  1
  Bi  Bi114  1  -0.18246965  0.63383049  0.81792872  1
  Bi  Bi115  1  0.12070427  0.83680025  0.18569963  1
  Bi  Bi116  1  0.66923246  0.34083953  0.14054039  1
  Bi  Bi117  1  0.36009992  0.87896675  0.61084622  1
  Bi  Bi118  1  0.04228287  0.68581506  0.59776532  1
  Bi  Bi119  1  0.08471907  0.36322416  0.89193010  1
  Bi  Bi120  1  0.55474839  0.17926970  0.86556527  1
  Bi  Bi121  1  0.35039130  0.95541913  0.90540667  1
  Bi  Bi122  1  0.41521244  0.18555430  0.32518449  1
  Bi  Bi123  1  0.64273256  0.86014648  0.14630536  1
  Bi  Bi124  1  0.11165164  0.37567790  0.09466721  1
  Bi  Bi125  1  0.02687481  0.34618425  0.54637684  1
  Bi  Bi126  1  0.34484658  0.15623491  0.60747184  1
  Bi  Bi127  1  0.11427166  0.63355261  0.84737825  1
