# generated using pymatgen
data_Ba51Fe51Bi26
_symmetry_space_group_name_H-M   'P 1'
_cell_length_a   15.99648405
_cell_length_b   16.21533892
_cell_length_c   17.01735538
_cell_angle_alpha   90.23583494
_cell_angle_beta   92.63387264
_cell_angle_gamma   89.96470499
_symmetry_Int_Tables_number   1
_chemical_formula_structural   Ba51Fe51Bi26
_chemical_formula_sum   'Ba51 Fe51 Bi26'
_cell_volume   4409.40384469
_cell_formula_units_Z   1
loop_
 _symmetry_equiv_pos_site_id
 _symmetry_equiv_pos_as_xyz
  1  'x, y, z'
loop_
 _atom_site_type_symbol
 _atom_site_label
 _atom_site_symmetry_multiplicity
 _atom_site_fract_x
 _atom_site_fract_y
 _atom_site_fract_z
 _atom_site_occupancy
  Ba  Ba0  1  0.51561349  0.46179509  0.28515013  1
  Ba  Ba1  1  0.38263394  0.31887913  0.82662788  1
  Ba  Ba2  1  0.01105292  0.55367334  0.44260729  1
  Ba  Ba3  1  -0.02549247  0.49443960  -0.02677592  1
  Ba  Ba4  1  0.64181644  0.20231877  0.36316164  1
  Ba  Ba5  1  -0.06330784  0.40659177  0.65562017  1
  Ba  Ba6  1  0.43375195  0.15143471  0.54124676  1
  Ba  Ba7  1  0.27935381  0.47385298  0.37384402  1
  Ba  Ba8  1  0.60538249  0.71872146  -0.09328505  1
  Ba  Ba9  1  0.36511473  0.65961189  0.70887789  1
  Ba  Ba10  1  0.07611466  0.02178949  0.13096070  1
  Ba  Ba11  1  0.69019273  0.72366955  0.29819366  1
  Ba  Ba12  1  -0.04331904  0.71925267  0.62636811  1
  Ba  Ba13  1  0.28025665  -0.07433906  0.02714470  1
  Ba  Ba14  1  0.07270785  0.26309729  0.03610311  1
  Ba  Ba15  1  0.32298184  0.24143996  0.04745524  1
  Ba  Ba16  1  0.56470290  0.78882920  0.47928162  1
  Ba  Ba17  1  0.04305716  -0.05842531  0.58533233  1
  Ba  Ba18  1  0.23050192  0.66284425  0.06229380  1
  Ba  Ba19  1  0.76475461  0.89893808  0.73162646  1
  Ba  Ba20  1  0.42859628  0.51662757  -0.00921755  1
  Ba  Ba21  1  0.18487806  0.73486463  0.48883810  1
  Ba  Ba22  1  -0.17539919  0.26277392  -0.09807433  1
  Ba  Ba23  1  0.22606388  -0.06378693  0.79269677  1
  Ba  Ba24  1  0.12303830  0.09580104  0.34213739  1
  Ba  Ba25  1  0.51843254  0.03717760  0.15251649  1
  Ba  Ba26  1  0.45285674  0.89575336  0.79465621  1
  Ba  Ba27  1  0.75358565  0.61028296  0.76605460  1
  Ba  Ba28  1  0.53606793  0.12246242  0.77228454  1
  Ba  Ba29  1  0.31202640  -0.07090892  0.32991701  1
  Ba  Ba30  1  -0.03995448  0.27930343  0.41705603  1
  Ba  Ba31  1  -0.06203903  0.84598672  0.36785624  1
  Ba  Ba32  1  0.17927268  0.46151524  0.81437166  1
  Ba  Ba33  1  0.76054117  0.47552883  0.26312049  1
  Ba  Ba34  1  0.57615326  0.24112043  -0.01635272  1
  Ba  Ba35  1  0.19717119  0.11514626  0.56255070  1
  Ba  Ba36  1  0.02668293  0.47109020  0.20317780  1
  Ba  Ba37  1  0.63425578  0.40251683  0.79558594  1
  Ba  Ba38  1  0.77397653  0.28383247  0.13788837  1
  Ba  Ba39  1  0.56654806  0.53758744  0.57195639  1
  Ba  Ba40  1  0.50687490  0.73893280  0.10705811  1
  Ba  Ba41  1  0.67553101  0.24516783  0.58647279  1
  Ba  Ba42  1  0.15266247  0.71356863  0.81152248  1
  Ba  Ba43  1  0.37018904  0.68981166  0.30284889  1
  Ba  Ba44  1  0.29598622  0.40463831  0.58972934  1
  Ba  Ba45  1  0.02811145  0.74904348  0.14578047  1
  Ba  Ba46  1  0.36450203  0.23959748  0.30966021  1
  Ba  Ba47  1  0.82453525  0.04600991  0.25034317  1
  Ba  Ba48  1  0.79088176  0.80776358  0.10079583  1
  Ba  Ba49  1  -0.09159868  0.73910457  -0.08766607  1
  Ba  Ba50  1  -0.01055139  0.11044275  0.77075838  1
  Fe  Fe51  1  0.75396794  1.06390562  0.46996355  1
  Fe  Fe52  1  -0.01955158  0.89992105  0.01694750  1
  Fe  Fe53  1  0.36288347  0.82355209  0.49413751  1
  Fe  Fe54  1  0.19116976  0.12294224  0.75195968  1
  Fe  Fe55  1  0.81490746  0.62139562  0.42051327  1
  Fe  Fe56  1  0.29244071  0.94032644  0.52289918  1
  Fe  Fe57  1  0.83242170  0.61138355  0.11369713  1
  Fe  Fe58  1  0.08247762  0.83446854  0.95699235  1
  Fe  Fe59  1  0.60772587  0.01150805  0.48177685  1
  Fe  Fe60  1  0.36230790  0.54961633  0.16751708  1
  Fe  Fe61  1  0.70628666  0.05020195  0.59817956  1
  Fe  Fe62  1  0.37823209  0.97643271  0.62759777  1
  Fe  Fe63  1  0.28848262  0.21108110  0.71006819  1
  Fe  Fe64  1  0.12170377  0.30576942  0.28224098  1
  Fe  Fe65  1  0.21287921  0.36782553  0.19281490  1
  Fe  Fe66  1  0.34154102  0.41927330  0.16457482  1
  Fe  Fe67  1  0.90989440  0.94055145  0.90595298  1
  Fe  Fe68  1  0.78331708  0.48071324  0.91072972  1
  Fe  Fe69  1  0.19224543  0.23609043  0.83056253  1
  Fe  Fe70  1  0.62839395  0.91461388  -0.11311305  1
  Fe  Fe71  1  0.77618578  0.34300764  0.45131632  1
  Fe  Fe72  1  0.70430033  0.40186128  0.97775099  1
  Fe  Fe73  1  0.84524378  0.07213689  0.59582629  1
  Fe  Fe74  1  0.87181068  0.98984584  0.04643793  1
  Fe  Fe75  1  0.73599897  0.42689738  0.54809264  1
  Fe  Fe76  1  0.17047132  0.22140678  0.19776781  1
  Fe  Fe77  1  0.72742564  0.93655181  0.41684094  1
  Fe  Fe78  1  0.42947644  0.83387343  0.61107100  1
  Fe  Fe79  1  0.23440385  0.51767848  0.19244563  1
  Fe  Fe80  1  -0.01496138  0.05971642  -0.03083985  1
  Fe  Fe81  1  0.78654840  0.48258825  0.06052995  1
  Fe  Fe82  1  0.69375428  0.60498464  0.09304527  1
  Fe  Fe83  1  0.44382893  -0.04990145  0.50212616  1
  Fe  Fe84  1  0.82798646  0.46813572  0.44693159  1
  Fe  Fe85  1  0.83715943  0.95079755  0.53030450  1
  Fe  Fe86  1  0.76064701  0.93751172  0.95176300  1
  Fe  Fe87  1  0.63332011  0.90197358  0.02690150  1
  Fe  Fe88  1  0.70037400  0.05038085  0.87619320  1
  Fe  Fe89  1  0.70248721  0.53843629  0.43746412  1
  Fe  Fe90  1  0.50470261  0.90469167  0.97768693  1
  Fe  Fe91  1  0.59579174  0.02459115  -0.04151375  1
  Fe  Fe92  1  0.78251565  0.60807844  0.97902212  1
  Fe  Fe93  1  0.89873269  0.12697128  0.05385321  1
  Fe  Fe94  1  0.28613383  0.85478343  0.62145099  1
  Fe  Fe95  1  0.65547744  0.53292499  0.96815025  1
  Fe  Fe96  1  0.06599784  -0.04388352  0.91263221  1
  Fe  Fe97  1  0.70188934  0.92248088  0.54593912  1
  Fe  Fe98  1  0.83995432  0.06984392  0.92048223  1
  Fe  Fe99  1  0.30947029  0.13320952  0.83954084  1
  Fe  Fe100  1  0.33790009  0.08250362  0.71613162  1
  Fe  Fe101  1  0.65638336  0.40379322  0.42915189  1
  Bi  Bi102  1  0.78778972  0.78660613  0.49238587  1
  Bi  Bi103  1  0.72516681  0.08493432  0.05750724  1
  Bi  Bi104  1  0.60818145  0.44748596  0.10034090  1
  Bi  Bi105  1  0.80964928  0.57237498  0.57618475  1
  Bi  Bi106  1  0.48953356  0.04151035  0.36643197  1
  Bi  Bi107  1  0.20959701  0.44573797  0.03935738  1
  Bi  Bi108  1  0.93113709  0.06316323  0.44383352  1
  Bi  Bi109  1  0.18859307  0.28575543  0.43366821  1
  Bi  Bi110  1  0.76590523  0.12232236  0.74293357  1
  Bi  Bi111  1  0.42756980  0.06677724  -0.05209377  1
  Bi  Bi112  1  0.00122189  -0.12202173  -0.22164973  1
  Bi  Bi113  1  0.56072940  -0.03357376  0.63013939  1
  Bi  Bi114  1  0.16343016  0.09794339  0.93066284  1
  Bi  Bi115  1  0.57237594  0.73553096  0.69100384  1
  Bi  Bi116  1  0.54033635  0.26062739  0.18299313  1
  Bi  Bi117  1  0.14207414  0.57375076  0.63036523  1
  Bi  Bi118  1  0.49339026  0.35218573  0.46683000  1
  Bi  Bi119  1  0.98020011  0.21083319  0.21293014  1
  Bi  Bi120  1  0.38434234  0.64771147  0.50247704  1
  Bi  Bi121  1  0.15697208  0.63908581  0.28512772  1
  Bi  Bi122  1  0.89047147  0.65143659  0.27054296  1
  Bi  Bi123  1  0.13497284  0.28572882  0.67983064  1
  Bi  Bi124  1  0.02670207  0.31567865  0.84157693  1
  Bi  Bi125  1  0.27886220  0.08336028  0.18388066  1
  Bi  Bi126  1  -0.01949184  0.57865994  0.78414299  1
  Bi  Bi127  1  0.37740057  0.74977884  0.92992909  1
