# generated using pymatgen
data_Ba51Fe51Bi26
_symmetry_space_group_name_H-M   'P 1'
_cell_length_a   15.58716402
_cell_length_b   16.52242966
_cell_length_c   17.18535438
_cell_angle_alpha   85.43451928
_cell_angle_beta   90.98254846
_cell_angle_gamma   94.37851079
_symmetry_Int_Tables_number   1
_chemical_formula_structural   Ba51Fe51Bi26
_chemical_formula_sum   'Ba51 Fe51 Bi26'
_cell_volume   4398.68644446
_cell_formula_units_Z   1
loop_
 _symmetry_equiv_pos_site_id
 _symmetry_equiv_pos_as_xyz
  1  'x, y, z'
loop_
 _atom_site_type_symbol
 _atom_site_label
 _atom_site_symmetry_multiplicity
 _atom_site_fract_x
 _atom_site_fract_y
 _atom_site_fract_z
 _atom_site_occupancy
  Ba  Ba0  1  0.46666900  0.00313806  0.02433055  1
  Ba  Ba1  1  0.12508483  0.65023397  0.38462143  1
  Ba  Ba2  1  0.36177254  0.49186791  0.53903862  1
  Ba  Ba3  1  0.32163125  0.49470041  0.28945229  1
  Ba  Ba4  1  0.20766569  0.73201979  0.82502637  1
  Ba  Ba5  1  0.74124979  0.32045555  -0.07338160  1
  Ba  Ba6  1  -0.13010115  0.46944386  0.07202752  1
  Ba  Ba7  1  -0.08746896  0.66579034  0.75117205  1
  Ba  Ba8  1  0.52287905  0.61642131  0.16149327  1
  Ba  Ba9  1  0.70890974  0.07160797  0.79852256  1
  Ba  Ba10  1  0.66522492  0.48990804  0.65203540  1
  Ba  Ba11  1  -0.01710472  0.24612242  0.01330907  1
  Ba  Ba12  1  0.50796001  0.77947746  -0.06338139  1
  Ba  Ba13  1  0.59922226  0.08325713  0.38999437  1
  Ba  Ba14  1  0.73000282  0.11979842  0.08677963  1
  Ba  Ba15  1  0.42796555  0.68369590  0.67260449  1
  Ba  Ba16  1  0.25534078  0.50459802  0.79759853  1
  Ba  Ba17  1  0.49385633  0.23089905  0.22894116  1
  Ba  Ba18  1  -0.07511866  -0.08088329  0.02621446  1
  Ba  Ba19  1  0.46764753  0.25035674  0.49305526  1
  Ba  Ba20  1  0.39865239  0.93111706  0.26033566  1
  Ba  Ba21  1  0.79198629  0.74623174  0.52582716  1
  Ba  Ba22  1  0.29412148  0.28099573  0.73255907  1
  Ba  Ba23  1  0.16786222  0.46169083  0.03390546  1
  Ba  Ba24  1  0.10847696  0.05158111  0.19785047  1
  Ba  Ba25  1  -0.03951543  0.03781296  0.78602894  1
  Ba  Ba26  1  -0.02786659  0.45973777  0.84192556  1
  Ba  Ba27  1  -0.07932295  0.60506259  0.24361981  1
  Ba  Ba28  1  -0.07072804  0.34940299  0.32934457  1
  Ba  Ba29  1  0.51807167  0.52762516  -0.06203355  1
  Ba  Ba30  1  0.22567012  0.69635761  0.17000601  1
  Ba  Ba31  1  0.03249163  0.70341923  0.01419507  1
  Ba  Ba32  1  -0.00543454  -0.13209859  0.64011696  1
  Ba  Ba33  1  0.81057850  0.17167801  0.49908919  1
  Ba  Ba34  1  0.21753884  0.14935705  0.49896142  1
  Ba  Ba35  1  0.20427703  0.27557955  0.26566737  1
  Ba  Ba36  1  0.84578203  0.04709466  0.29098546  1
  Ba  Ba37  1  0.26149918  0.23536453  -0.02513660  1
  Ba  Ba38  1  0.50761865  0.27758193  0.01855732  1
  Ba  Ba39  1  0.24320481  0.02065671  0.83779305  1
  Ba  Ba40  1  0.59896054  0.81125638  0.38232521  1
  Ba  Ba41  1  0.71615431  0.82133220  0.16546062  1
  Ba  Ba42  1  -0.04182173  0.82632339  0.36477453  1
  Ba  Ba43  1  0.49711459  -0.05038171  0.72949889  1
  Ba  Ba44  1  0.68160400  0.43638890  0.31033491  1
  Ba  Ba45  1  0.34440958  0.75097073  0.44131660  1
  Ba  Ba46  1  0.86936048  0.37756291  0.64725143  1
  Ba  Ba47  1  0.66295836  0.70639917  0.72110755  1
  Ba  Ba48  1  0.04064951  0.21360222  0.63008237  1
  Ba  Ba49  1  0.56167513  0.25851816  0.70358538  1
  Ba  Ba50  1  0.24806819  -0.12705767  0.64245015  1
  Fe  Fe51  1  0.30428910  -0.04931976  0.47804159  1
  Fe  Fe52  1  0.43014005  0.87874591  0.55339452  1
  Fe  Fe53  1  0.47164093  0.33626139  0.84451763  1
  Fe  Fe54  1  0.23654887  0.65005659  0.99452168  1
  Fe  Fe55  1  0.87610249  1.00385411  0.57951037  1
  Fe  Fe56  1  0.69341913  -0.16450392  0.85229649  1
  Fe  Fe57  1  0.09643055  0.31984609  0.82162810  1
  Fe  Fe58  1  0.17493328  0.86100256  0.42627236  1
  Fe  Fe59  1  0.98570183  0.52145682  0.45654438  1
  Fe  Fe60  1  0.71291641  0.30575259  0.12717727  1
  Fe  Fe61  1  0.26521697  0.92601402  0.12688068  1
  Fe  Fe62  1  0.56288522  0.93818653  0.53554084  1
  Fe  Fe63  1  0.81072941  -0.08794984  0.87261489  1
  Fe  Fe64  1  0.13023464  0.90914628  0.97584132  1
  Fe  Fe65  1  1.09866272  0.30710983  0.44520338  1
  Fe  Fe66  1  0.84034892  0.28132585  0.15043931  1
  Fe  Fe67  1  0.59064026  0.40358618  0.82584802  1
  Fe  Fe68  1  0.73831878  0.55227798  0.47290836  1
  Fe  Fe69  1  0.05910657  0.68556849  0.62491643  1
  Fe  Fe70  1  0.03184720  0.54553651  0.59198312  1
  Fe  Fe71  1  0.87798231  0.56209157  0.56092425  1
  Fe  Fe72  1  0.10713680  0.44479995  0.38927560  1
  Fe  Fe73  1  0.71881115  0.57519508  0.00752527  1
  Fe  Fe74  1  0.93230171  0.98172162  0.46308498  1
  Fe  Fe75  1  0.34319512  0.61217208  0.92891642  1
  Fe  Fe76  1  0.21622270  -0.00848117  0.37506127  1
  Fe  Fe77  1  0.72834957  0.60026053  0.14240401  1
  Fe  Fe78  1  0.67331011  0.69206263  1.03654937  1
  Fe  Fe79  1  0.83250381  0.65853620  0.95237832  1
  Fe  Fe80  1  0.70240254  0.69228034  0.90225127  1
  Fe  Fe81  1  0.09066571  0.19317682  0.84181215  1
  Fe  Fe82  1  0.36393535  0.69233149  0.04283007  1
  Fe  Fe83  1  0.77071628  0.79595120  -0.02108012  1
  Fe  Fe84  1  1.02628679  0.04464294  0.53448723  1
  Fe  Fe85  1  0.10638579  0.77521769  0.52670035  1
  Fe  Fe86  1  0.13126387  0.88173869  0.10350884  1
  Fe  Fe87  1  0.13489151  -0.05180596  0.50914304  1
  Fe  Fe88  1  0.01956345  0.39627667  0.51654798  1
  Fe  Fe89  1  0.43710482  1.02922145  0.53629840  1
  Fe  Fe90  1  0.84470371  0.78388821  0.86143580  1
  Fe  Fe91  1  0.82024235  0.68877803  0.07636047  1
  Fe  Fe92  1  0.84304455  0.45661261  0.47018648  1
  Fe  Fe93  1  0.44549088  0.94334175  0.43766314  1
  Fe  Fe94  1  0.17979404  0.36010103  0.54851828  1
  Fe  Fe95  1  0.22277845  0.00470336  0.03122538  1
  Fe  Fe96  1  1.06899561  -0.00279781  0.40031384  1
  Fe  Fe97  1  0.87219416  0.60813338  0.42318854  1
  Fe  Fe98  1  0.14421705  0.49135363  0.51134743  1
  Fe  Fe99  1  0.98361941  0.66939558  0.51248799  1
  Fe  Fe100  1  0.22625624  0.38280221  0.43057151  1
  Fe  Fe101  1  0.34726121  0.55989525  0.06177995  1
  Bi  Bi102  1  0.08238550  0.07728171  -0.03024325  1
  Bi  Bi103  1  0.73121701  0.65459165  0.32286297  1
  Bi  Bi104  1  0.74646473  0.52858061  -0.14526795  1
  Bi  Bi105  1  0.37069209  0.09499585  0.37561126  1
  Bi  Bi106  1  0.68232533  0.94516843  -0.02465912  1
  Bi  Bi107  1  0.57596648  0.63769886  0.52361609  1
  Bi  Bi108  1  0.17343996  -0.13928735  0.26746912  1
  Bi  Bi109  1  0.28475230  0.83764553  -0.00532121  1
  Bi  Bi110  1  0.10403612  0.41384183  0.67619616  1
  Bi  Bi111  1  0.75499148  -0.05102975  0.46682314  1
  Bi  Bi112  1  0.45584653  0.46592058  0.72895522  1
  Bi  Bi113  1  0.78706488  -0.10522902  0.71178538  1
  Bi  Bi114  1  0.01591688  0.15803208  0.39717837  1
  Bi  Bi115  1  0.60313666  0.09223184  0.59664272  1
  Bi  Bi116  1  0.36157929  0.39486778  0.12089786  1
  Bi  Bi117  1  0.10167936  0.49078371  0.22543506  1
  Bi  Bi118  1  0.44584085  0.15767500  0.86048046  1
  Bi  Bi119  1  0.35874520  0.10220314  0.65428650  1
  Bi  Bi120  1  0.61365910  0.99107980  0.21659111  1
  Bi  Bi121  1  0.73536630  0.23221375  0.27811823  1
  Bi  Bi122  1  0.02850964  0.84563455  0.85223074  1
  Bi  Bi123  1  0.21745828  0.63989369  0.59367769  1
  Bi  Bi124  1  0.91705690  0.24473526  0.81560168  1
  Bi  Bi125  1  0.63706442  0.44982436  0.10352095  1
  Bi  Bi126  1  0.32258527  0.10308234  0.13357199  1
  Bi  Bi127  1  0.69309310  0.35594001  0.50692040  1
