# generated using pymatgen
data_Ba51Fe51Bi26
_symmetry_space_group_name_H-M   'P 1'
_cell_length_a   16.07125020
_cell_length_b   16.67704043
_cell_length_c   16.57490125
_cell_angle_alpha   91.44389773
_cell_angle_beta   91.50533349
_cell_angle_gamma   89.70632634
_symmetry_Int_Tables_number   1
_chemical_formula_structural   Ba51Fe51Bi26
_chemical_formula_sum   'Ba51 Fe51 Bi26'
_cell_volume   4439.43225486
_cell_formula_units_Z   1
loop_
 _symmetry_equiv_pos_site_id
 _symmetry_equiv_pos_as_xyz
  1  'x, y, z'
loop_
 _atom_site_type_symbol
 _atom_site_label
 _atom_site_symmetry_multiplicity
 _atom_site_fract_x
 _atom_site_fract_y
 _atom_site_fract_z
 _atom_site_occupancy
  Ba  Ba0  1  0.74691062  -0.04230515  0.55960668  1
  Ba  Ba1  1  0.81059464  0.05904319  0.76258000  1
  Ba  Ba2  1  0.31251030  0.24389141  0.69674482  1
  Ba  Ba3  1  0.21068154  0.73459084  0.76433721  1
  Ba  Ba4  1  0.73489195  0.45624001  0.14072669  1
  Ba  Ba5  1  0.77257884  0.72116781  0.69652415  1
  Ba  Ba6  1  0.50008744  0.46110002  0.81948036  1
  Ba  Ba7  1  0.46488656  0.75014039  0.63255655  1
  Ba  Ba8  1  0.47181240  0.11741025  0.51311288  1
  Ba  Ba9  1  0.67817800  0.05001555  -0.00312940  1
  Ba  Ba10  1  0.32017802  0.43305392  0.02422996  1
  Ba  Ba11  1  0.53446411  0.67920789  0.83451655  1
  Ba  Ba12  1  0.63570179  -0.05258434  0.33440692  1
  Ba  Ba13  1  0.49637855  0.22690864  0.04599486  1
  Ba  Ba14  1  0.73563991  0.74511786  0.18968408  1
  Ba  Ba15  1  0.58322771  0.33656663  0.60282929  1
  Ba  Ba16  1  0.68420272  0.70845316  0.45090030  1
  Ba  Ba17  1  0.77906605  0.20920447  0.27824069  1
  Ba  Ba18  1  0.04984596  0.21251741  0.51168109  1
  Ba  Ba19  1  -0.02884621  0.45830318  0.22268437  1
  Ba  Ba20  1  0.11547115  0.56492085  0.02690613  1
  Ba  Ba21  1  0.19752032  0.46088498  0.77969730  1
  Ba  Ba22  1  0.00292341  0.74852333  0.51195776  1
  Ba  Ba23  1  0.28408249  0.79257501  0.45852621  1
  Ba  Ba24  1  0.58368518  0.22323922  0.82821093  1
  Ba  Ba25  1  -0.06327859  0.01418525  -0.02238432  1
  Ba  Ba26  1  0.25339083  0.33286444  0.48383160  1
  Ba  Ba27  1  0.44829176  0.56383827  0.48093407  1
  Ba  Ba28  1  0.11046290  0.23057399  0.27110426  1
  Ba  Ba29  1  -0.02697879  -0.01002617  0.51736064  1
  Ba  Ba30  1  0.32137352  0.00911214  0.70918828  1
  Ba  Ba31  1  -0.00895435  0.74481201  -0.06956187  1
  Ba  Ba32  1  0.68531598  0.45441393  0.42650877  1
  Ba  Ba33  1  0.02208086  0.28642571  0.73825271  1
  Ba  Ba34  1  0.23046748  -0.01728290  0.26325692  1
  Ba  Ba35  1  0.78400035  0.53325552  -0.07056578  1
  Ba  Ba36  1  0.57648477  -0.05920476  0.74900571  1
  Ba  Ba37  1  0.47335497  0.49721648  0.24306316  1
  Ba  Ba38  1  0.46761773  0.76148097  0.24091093  1
  Ba  Ba39  1  0.25309510  0.01355923  -0.02450189  1
  Ba  Ba40  1  0.06572189  0.27720481  0.00592943  1
  Ba  Ba41  1  0.18020360  0.75103828  0.23213270  1
  Ba  Ba42  1  -0.03568776  0.70482350  0.26333389  1
  Ba  Ba43  1  0.73305353  0.79907291  -0.03752426  1
  Ba  Ba44  1  0.80104608  0.46098730  0.68832663  1
  Ba  Ba45  1  0.36483089  0.27820065  0.23189098  1
  Ba  Ba46  1  0.06182111  0.04101238  0.74607663  1
  Ba  Ba47  1  -0.04281242  -0.02297550  0.26580748  1
  Ba  Ba48  1  -0.03300251  0.47882940  0.48480882  1
  Ba  Ba49  1  0.20766823  0.56254603  0.52899483  1
  Ba  Ba50  1  0.32365971  0.78021281  0.01098055  1
  Fe  Fe51  1  0.12304474  0.57933080  0.34508215  1
  Fe  Fe52  1  0.89515881  0.66435393  0.07785877  1
  Fe  Fe53  1  0.61206033  0.27534796  0.41154916  1
  Fe  Fe54  1  0.46525283  0.96605031  0.03877032  1
  Fe  Fe55  1  0.77825785  0.20066665  0.89651625  1
  Fe  Fe56  1  0.93739071  0.60512441  0.65302460  1
  Fe  Fe57  1  0.00270714  0.48840383  0.70670807  1
  Fe  Fe58  1  0.29176602  1.00120183  0.48903409  1
  Fe  Fe59  1  0.15650929  0.55209977  0.21832944  1
  Fe  Fe60  1  0.15916172  0.94870471  0.46453284  1
  Fe  Fe61  1  0.16308563  0.04102898  0.57473744  1
  Fe  Fe62  1  0.74099987  0.27629673  0.48865220  1
  Fe  Fe63  1  0.41576157  0.92266197  0.53747126  1
  Fe  Fe64  1  -0.04401113  0.89308475  0.81221223  1
  Fe  Fe65  1  0.26529820  0.57798792  0.32333760  1
  Fe  Fe66  1  0.87367830  0.29468880  0.45692700  1
  Fe  Fe67  1  0.89839519  0.88904943  0.69096011  1
  Fe  Fe68  1  0.07068557  0.60146675  0.66216509  1
  Fe  Fe69  1  0.23377504  0.29124645  0.87234834  1
  Fe  Fe70  1  0.84983859  0.16312061  0.48322519  1
  Fe  Fe71  1  0.49501274  0.82208717  0.45811501  1
  Fe  Fe72  1  0.37089790  0.29971320  0.88350043  1
  Fe  Fe73  1  0.05325922  0.59890072  0.79815027  1
  Fe  Fe74  1  0.24776801  0.12837116  0.53266966  1
  Fe  Fe75  1  0.86039774  0.29009558  0.58683640  1
  Fe  Fe76  1  0.58777079  0.60349005  0.13380327  1
  Fe  Fe77  1  0.54985424  0.91497050  0.53134328  1
  Fe  Fe78  1  0.92061352  0.59137196  0.78724307  1
  Fe  Fe79  1  0.91693231  0.19081240  0.87395042  1
  Fe  Fe80  1  0.16505857  0.44955540  0.33279647  1
  Fe  Fe81  1  0.30475450  0.45222123  0.35243387  1
  Fe  Fe82  1  0.46352510  0.59496105  0.03374743  1
  Fe  Fe83  1  0.82508127  0.87639760  0.80964869  1
  Fe  Fe84  1  0.75310473  0.33130842  0.91643334  1
  Fe  Fe85  1  0.45014224  0.09318024  0.29921933  1
  Fe  Fe86  1  0.16301638  0.40882842  0.20012111  1
  Fe  Fe87  1  0.35568267  0.58969446  0.72151700  1
  Fe  Fe88  1  0.51515676  0.88684022  0.94772610  1
  Fe  Fe89  1  0.89084193  0.15894734  0.61412147  1
  Fe  Fe90  1  0.15794509  0.07425690  0.42976699  1
  Fe  Fe91  1  0.86838750  0.36251420  0.00188894  1
  Fe  Fe92  1  0.60344753  0.59626393  0.99978053  1
  Fe  Fe93  1  0.34176460  0.17212468  0.87655993  1
  Fe  Fe94  1  0.75373936  0.17942209  0.59436163  1
  Fe  Fe95  1  0.07356362  0.90412005  0.11385288  1
  Fe  Fe96  1  0.54325419  0.18834770  0.33333758  1
  Fe  Fe97  1  0.87312635  0.22866708  -0.00370771  1
  Fe  Fe98  1  0.88334749  0.32135481  0.86935803  1
  Fe  Fe99  1  0.27734078  0.47068530  0.22051145  1
  Fe  Fe100  1  0.20327328  0.16673845  0.85497259  1
  Fe  Fe101  1  0.64131222  0.59938354  0.26060869  1
  Bi  Bi102  1  -0.01432762  0.45725618  0.88051702  1
  Bi  Bi103  1  0.46101759  0.35798241  0.41724322  1
  Bi  Bi104  1  0.46920655  0.05609442  -0.10364779  1
  Bi  Bi105  1  -0.00973554  0.74860991  0.72261516  1
  Bi  Bi106  1  0.29686190  0.15232938  0.37873059  1
  Bi  Bi107  1  0.42004606  -0.05740864  0.37019988  1
  Bi  Bi108  1  0.31468455  0.61528191  0.14724974  1
  Bi  Bi109  1  0.78372706  0.26378902  0.73983777  1
  Bi  Bi110  1  0.71997139  0.25380157  0.05560650  1
  Bi  Bi111  1  0.54563534  0.44834476  0.02927014  1
  Bi  Bi112  1  0.53661873  0.74106733  0.03756872  1
  Bi  Bi113  1  0.67707842  0.12508504  0.44807479  1
  Bi  Bi114  1  0.27440292  0.22552759  0.02154779  1
  Bi  Bi115  1  0.60272911  0.90336748  0.12168493  1
  Bi  Bi116  1  0.33563248  0.59552377  0.88758277  1
  Bi  Bi117  1  0.80775499  0.57628829  0.31778291  1
  Bi  Bi118  1  0.61667963  0.57404629  0.62703032  1
  Bi  Bi119  1  0.39588351  0.84750945  0.82428515  1
  Bi  Bi120  1  0.38549876  0.06464661  0.14569723  1
  Bi  Bi121  1  0.15771589  0.88185516  0.61562880  1
  Bi  Bi122  1  0.36609175  0.44490224  0.64125601  1
  Bi  Bi123  1  0.84071393  0.84838044  0.38992820  1
  Bi  Bi124  1  0.91497112  0.83528540  0.10235571  1
  Bi  Bi125  1  0.08636270  0.06883100  0.12273066  1
  Bi  Bi126  1  0.58734375  0.10346289  0.19760073  1
  Bi  Bi127  1  0.59934579  0.32623451  0.25334550  1
