# generated using pymatgen
data_Ba51Fe51Bi26
_symmetry_space_group_name_H-M   'P 1'
_cell_length_a   15.93780666
_cell_length_b   16.55637300
_cell_length_c   16.70894059
_cell_angle_alpha   90.04039811
_cell_angle_beta   93.09561645
_cell_angle_gamma   93.55233940
_symmetry_Int_Tables_number   1
_chemical_formula_structural   Ba51Fe51Bi26
_chemical_formula_sum   'Ba51 Fe51 Bi26'
_cell_volume   4394.09710270
_cell_formula_units_Z   1
loop_
 _symmetry_equiv_pos_site_id
 _symmetry_equiv_pos_as_xyz
  1  'x, y, z'
loop_
 _atom_site_type_symbol
 _atom_site_label
 _atom_site_symmetry_multiplicity
 _atom_site_fract_x
 _atom_site_fract_y
 _atom_site_fract_z
 _atom_site_occupancy
  Ba  Ba0  1  0.10246953  0.49223692  0.74785060  1
  Ba  Ba1  1  0.29622147  0.03007604  0.09124106  1
  Ba  Ba2  1  0.28524232  0.56123486  -0.01864206  1
  Ba  Ba3  1  -0.04656035  0.47585129  0.25691983  1
  Ba  Ba4  1  0.71034316  0.60288981  0.27231927  1
  Ba  Ba5  1  0.01689614  0.65333342  0.50443601  1
  Ba  Ba6  1  0.78433917  0.00514613  0.49250642  1
  Ba  Ba7  1  0.01768314  0.44824035  0.01898768  1
  Ba  Ba8  1  0.23347843  0.79156935  0.06939865  1
  Ba  Ba9  1  0.48139668  0.53422194  0.81539289  1
  Ba  Ba10  1  0.57596473  -0.00205984  0.60591906  1
  Ba  Ba11  1  0.72577549  0.64379494  0.62406972  1
  Ba  Ba12  1  0.68644712  -0.13979461  -0.08499208  1
  Ba  Ba13  1  0.20225338  0.74367038  0.30197614  1
  Ba  Ba14  1  0.05800006  0.25635482  0.78507988  1
  Ba  Ba15  1  -0.03699111  -0.06007501  0.37295807  1
  Ba  Ba16  1  0.55974538  0.67696904  0.04785757  1
  Ba  Ba17  1  0.57764970  -0.01870955  0.13372074  1
  Ba  Ba18  1  0.73568584  0.21630475  0.72111685  1
  Ba  Ba19  1  0.47422995  0.29505132  0.48463309  1
  Ba  Ba20  1  0.31151281  0.50607120  0.59246250  1
  Ba  Ba21  1  -0.05225119  0.23494169  0.35026505  1
  Ba  Ba22  1  0.85985091  -0.03544977  0.11382952  1
  Ba  Ba23  1  0.40100322  0.85927608  0.46460401  1
  Ba  Ba24  1  0.20813582  0.02460960  0.59452968  1
  Ba  Ba25  1  -0.08454038  0.74805877  0.25735148  1
  Ba  Ba26  1  0.41123940  0.16967712  0.69674366  1
  Ba  Ba27  1  -0.00462011  0.80175996  -0.00330510  1
  Ba  Ba28  1  0.69243125  0.15481808  -0.02637639  1
  Ba  Ba29  1  0.27026629  0.23940809  0.32834092  1
  Ba  Ba30  1  0.06397952  0.10979675  0.20223003  1
  Ba  Ba31  1  0.49898153  0.75693414  0.73185468  1
  Ba  Ba32  1  0.45918598  -0.02605863  -0.11368525  1
  Ba  Ba33  1  0.52191562  0.32002356  -0.11938324  1
  Ba  Ba34  1  -0.00988398  0.73009325  0.74811693  1
  Ba  Ba35  1  -0.05793019  0.03458641  0.84734387  1
  Ba  Ba36  1  0.73220340  0.39694193  0.54884524  1
  Ba  Ba37  1  0.52164147  0.74992111  0.29868687  1
  Ba  Ba38  1  0.25185213  0.74585470  0.61226567  1
  Ba  Ba39  1  0.41132409  0.51518773  0.23230929  1
  Ba  Ba40  1  0.27282783  0.29214587  0.05444275  1
  Ba  Ba41  1  0.71281605  0.25759839  0.33082854  1
  Ba  Ba42  1  0.54715871  0.05345412  0.34884882  1
  Ba  Ba43  1  0.83411060  0.52334654  0.85727534  1
  Ba  Ba44  1  0.19148043  0.47705334  0.35514261  1
  Ba  Ba45  1  0.54244065  0.30253628  0.15802825  1
  Ba  Ba46  1  -0.00570012  -0.05832137  0.62949656  1
  Ba  Ba47  1  0.53248565  0.56580822  0.49862770  1
  Ba  Ba48  1  0.24235476  -0.01591557  0.33716145  1
  Ba  Ba49  1  -0.01600856  0.39549328  0.52246326  1
  Ba  Ba50  1  -0.02426052  0.21457969  0.01815100  1
  Fe  Fe51  1  0.84112800  0.17112689  0.15686176  1
  Fe  Fe52  1  0.07474590  0.61557643  0.20318667  1
  Fe  Fe53  1  0.66759459  0.72982766  0.45234022  1
  Fe  Fe54  1  0.10021946  0.62524401  0.07922467  1
  Fe  Fe55  1  0.74862922  0.61658498  1.00557164  1
  Fe  Fe56  1  0.62549419  0.87329191  0.42694019  1
  Fe  Fe57  1  0.74051178  0.26836477  0.12028681  1
  Fe  Fe58  1  0.24230548  0.34298133  0.48877639  1
  Fe  Fe59  1  0.81978237  0.72382942  -0.08952887  1
  Fe  Fe60  1  0.29871042  0.44708828  0.79161296  1
  Fe  Fe61  1  0.57915232  0.78616274  0.53008236  1
  Fe  Fe62  1  0.70790867  0.83612655  0.55492924  1
  Fe  Fe63  1  0.13034502  0.02197867  0.80315843  1
  Fe  Fe64  1  0.79427217  0.48778044  1.04998954  1
  Fe  Fe65  1  0.91757105  0.12543417  0.64768109  1
  Fe  Fe66  1  0.31363910  0.11790125  -0.11549517  1
  Fe  Fe67  1  0.68524036  0.37689088  0.02517477  1
  Fe  Fe68  1  0.77668319  0.74453740  0.77459187  1
  Fe  Fe69  1  1.03601807  0.21774931  0.59423532  1
  Fe  Fe70  1  0.14813529  0.49897665  0.16316034  1
  Fe  Fe71  1  0.25664814  0.20185692  0.51908493  1
  Fe  Fe72  1  0.85534882  0.20501014  0.53264214  1
  Fe  Fe73  1  0.70687311  0.14284908  0.16694865  1
  Fe  Fe74  1  0.30730159  0.30914039  0.60342446  1
  Fe  Fe75  1  0.21805658  1.01424547  -0.08651054  1
  Fe  Fe76  1  0.90928344  0.25849256  0.64239597  1
  Fe  Fe77  1  0.23216121  0.34227500  0.71378268  1
  Fe  Fe78  1  0.88910840  0.30251698  0.16423329  1
  Fe  Fe79  1  0.21781559  0.13335699  0.77112375  1
  Fe  Fe80  1  0.15443542  0.33917136  0.59613175  1
  Fe  Fe81  1  0.65468257  0.51012508  0.09051615  1
  Fe  Fe82  1  0.12809752  0.25412188  0.49055222  1
  Fe  Fe83  1  0.69596442  0.84311338  0.69980092  1
  Fe  Fe84  1  0.74590097  0.81254648  0.37738928  1
  Fe  Fe85  1  0.80019454  0.74247892  0.04538110  1
  Fe  Fe86  1  0.27841959  0.99087330  0.79249610  1
  Fe  Fe87  1  0.30787352  0.83061403  0.78986237  1
  Fe  Fe88  1  0.22114628  0.61112611  0.16122562  1
  Fe  Fe89  1  0.65260943  0.50205365  0.95778103  1
  Fe  Fe90  1  0.96863944  0.12189571  0.51890671  1
  Fe  Fe91  1  0.38006470  0.37071952  0.72460820  1
  Fe  Fe92  1  0.82463130  0.83680888  0.65968567  1
  Fe  Fe93  1  0.69279662  0.90718682  0.30553569  1
  Fe  Fe94  1  0.19921177  0.76075640  0.85349536  1
  Fe  Fe95  1  0.17655933  0.88225331  0.76230233  1
  Fe  Fe96  1  0.27238470  0.88709652  0.90540583  1
  Fe  Fe97  1  0.83382529  0.34705712  1.04713198  1
  Fe  Fe98  1  0.16735136  0.14195231  -0.09457554  1
  Fe  Fe99  1  0.83994798  -0.13919802  0.79594192  1
  Fe  Fe100  1  0.12849723  0.89441377  0.88218320  1
  Fe  Fe101  1  0.18841389  0.21181680  0.64268027  1
  Bi  Bi102  1  0.66033432  0.65396836  -0.14237119  1
  Bi  Bi103  1  0.28679943  0.62438407  0.77633345  1
  Bi  Bi104  1  0.54358822  0.39270178  0.66779549  1
  Bi  Bi105  1  0.10423553  0.10783065  0.42122198  1
  Bi  Bi106  1  0.75164934  0.41423180  0.19337017  1
  Bi  Bi107  1  0.48702834  0.46527433  0.03008986  1
  Bi  Bi108  1  0.78871188  0.05904260  0.28527105  1
  Bi  Bi109  1  0.86013290  0.78532309  0.50425436  1
  Bi  Bi110  1  0.08367474  0.02174643  0.00558807  1
  Bi  Bi111  1  0.28985507  0.27980241  0.85099108  1
  Bi  Bi112  1  0.78164943  0.00001130  0.70639771  1
  Bi  Bi113  1  0.70845064  0.80436235  0.17198988  1
  Bi  Bi114  1  0.38435054  0.92842548  0.67927183  1
  Bi  Bi115  1  0.91333187  0.61743026  0.09177933  1
  Bi  Bi116  1  0.08866549  0.63178506  0.91199432  1
  Bi  Bi117  1  0.39282905  0.76622123  0.92633567  1
  Bi  Bi118  1  0.90585702  0.53506455  0.65528723  1
  Bi  Bi119  1  0.12988741  0.84396527  0.47437028  1
  Bi  Bi120  1  0.67207640  0.18370369  0.52175681  1
  Bi  Bi121  1  0.09708468  0.33038760  0.19407859  1
  Bi  Bi122  1  0.45634835  0.15340937  1.00329032  1
  Bi  Bi123  1  0.57840555  0.43001018  0.34900116  1
  Bi  Bi124  1  0.34965357  0.63636505  0.41489772  1
  Bi  Bi125  1  0.39566423  0.90053615  0.23118344  1
  Bi  Bi126  1  0.07799194  0.89256687  0.19354389  1
  Bi  Bi127  1  0.38313936  0.09473265  0.47768891  1
