# generated using pymatgen
data_Ba51Fe51Bi26
_symmetry_space_group_name_H-M   'P 1'
_cell_length_a   15.89718232
_cell_length_b   16.13165437
_cell_length_c   16.84659669
_cell_angle_alpha   88.63758615
_cell_angle_beta   90.18228725
_cell_angle_gamma   90.71945694
_symmetry_Int_Tables_number   1
_chemical_formula_structural   Ba51Fe51Bi26
_chemical_formula_sum   'Ba51 Fe51 Bi26'
_cell_volume   4318.69371907
_cell_formula_units_Z   1
loop_
 _symmetry_equiv_pos_site_id
 _symmetry_equiv_pos_as_xyz
  1  'x, y, z'
loop_
 _atom_site_type_symbol
 _atom_site_label
 _atom_site_symmetry_multiplicity
 _atom_site_fract_x
 _atom_site_fract_y
 _atom_site_fract_z
 _atom_site_occupancy
  Ba  Ba0  1  0.51655200  -0.03406340  0.29289501  1
  Ba  Ba1  1  0.39353607  0.63480043  0.69306015  1
  Ba  Ba2  1  0.16476091  0.46069391  0.78945683  1
  Ba  Ba3  1  0.85834263  0.69628527  0.06981411  1
  Ba  Ba4  1  0.50820503  0.25663813  0.54222488  1
  Ba  Ba5  1  0.53373590  0.52419009  0.52400833  1
  Ba  Ba6  1  0.22291868  0.81982825  0.11554353  1
  Ba  Ba7  1  0.08277935  0.32877827  0.37837011  1
  Ba  Ba8  1  -0.03000291  0.37076397  0.14955846  1
  Ba  Ba9  1  0.57450108  0.39797284  0.01566485  1
  Ba  Ba10  1  0.11503604  0.76314610  0.78401198  1
  Ba  Ba11  1  0.07592582  0.23437556  -0.02521959  1
  Ba  Ba12  1  0.42903360  0.49290923  0.27279325  1
  Ba  Ba13  1  0.64281610  -0.12030351  -0.06873220  1
  Ba  Ba14  1  0.20977022  0.70548004  0.33906749  1
  Ba  Ba15  1  0.77083779  0.27185378  0.26880745  1
  Ba  Ba16  1  0.33427943  0.70765332  0.90302170  1
  Ba  Ba17  1  -0.02958463  0.23080741  0.62082148  1
  Ba  Ba18  1  0.52863603  0.25441557  0.24293375  1
  Ba  Ba19  1  0.44679319  0.75288713  0.22926234  1
  Ba  Ba20  1  0.24648525  -0.18235776  0.51996558  1
  Ba  Ba21  1  0.28464001  0.48715263  0.49266120  1
  Ba  Ba22  1  -0.20716393  0.28212099  -0.01433100  1
  Ba  Ba23  1  0.39209697  0.18247321  -0.06340496  1
  Ba  Ba24  1  0.76219212  0.55973704  0.45783699  1
  Ba  Ba25  1  -0.00297060  0.84127681  0.30409434  1
  Ba  Ba26  1  0.81436650  0.74662911  0.61387871  1
  Ba  Ba27  1  0.70760563  0.79420981  0.36256911  1
  Ba  Ba28  1  0.05021397  0.59288581  0.16272745  1
  Ba  Ba29  1  0.83689276  0.08841658  0.84548243  1
  Ba  Ba30  1  -0.02931474  -0.04482193  0.66116602  1
  Ba  Ba31  1  0.09104095  0.02989046  0.12061737  1
  Ba  Ba32  1  0.28379744  -0.01061246  0.67898530  1
  Ba  Ba33  1  0.25902288  -0.04312368  -0.08554620  1
  Ba  Ba34  1  0.70025944  0.53589430  0.24237689  1
  Ba  Ba35  1  0.75805346  0.06765825  0.55407106  1
  Ba  Ba36  1  0.54877567  0.05117182  0.78002933  1
  Ba  Ba37  1  0.52119612  -0.06819752  0.55381850  1
  Ba  Ba38  1  -0.04839549  0.50034031  0.69509743  1
  Ba  Ba39  1  0.74515000  0.29141414  0.71902999  1
  Ba  Ba40  1  0.79136633  0.03127877  0.28718560  1
  Ba  Ba41  1  -0.15240423  -0.04088885  0.06148099  1
  Ba  Ba42  1  0.06318423  0.03117683  0.45001513  1
  Ba  Ba43  1  0.24855847  0.20165530  0.52547160  1
  Ba  Ba44  1  0.58104650  0.67169482  0.05354976  1
  Ba  Ba45  1  0.32160766  0.09685748  0.23693816  1
  Ba  Ba46  1  0.24809444  0.31941062  0.16754791  1
  Ba  Ba47  1  0.75804392  0.53013987  -0.13382833  1
  Ba  Ba48  1  0.61376159  0.72921753  0.74748232  1
  Ba  Ba49  1  0.34237194  0.45803986  -0.04756121  1
  Ba  Ba50  1  0.88620504  0.81813615  0.84884453  1
  Fe  Fe51  1  0.21225108  0.62562779  0.04250147  1
  Fe  Fe52  1  0.63424397  0.00306137  0.09093086  1
  Fe  Fe53  1  0.27018087  0.62956534  0.18297650  1
  Fe  Fe54  1  0.58218353  0.40030231  0.81134271  1
  Fe  Fe55  1  0.35969173  0.65049632  0.08406247  1
  Fe  Fe56  1  0.24344761  0.25196384  0.81758748  1
  Fe  Fe57  1  0.95946802  0.45544015  0.49160133  1
  Fe  Fe58  1  0.44629200  0.45037562  0.79528236  1
  Fe  Fe59  1  0.12340773  0.11587607  0.29069526  1
  Fe  Fe60  1  0.16930346  0.12662586  0.85104896  1
  Fe  Fe61  1  1.01373683  0.81049056  0.51981815  1
  Fe  Fe62  1  0.73344891  0.12351701  1.09121802  1
  Fe  Fe63  1  0.10396914  0.26111084  0.77620441  1
  Fe  Fe64  1  0.42242482  0.69558992  0.51314478  1
  Fe  Fe65  1  0.14013831  0.59734022  0.92966938  1
  Fe  Fe66  1  0.44534833  0.41746503  0.66967034  1
  Fe  Fe67  1  0.59126419  0.39282114  0.66378852  1
  Fe  Fe68  1  0.22131962  0.29531173  0.68921768  1
  Fe  Fe69  1  0.41439085  0.80391025  1.04933923  1
  Fe  Fe70  1  0.07060624  0.54577080  0.52786720  1
  Fe  Fe71  1  0.70262078  0.37688921  0.54806284  1
  Fe  Fe72  1  -0.06775722  0.72070163  0.45104034  1
  Fe  Fe73  1  0.49492575  0.05863649  0.11907036  1
  Fe  Fe74  1  0.63000851  0.10920423  0.17400706  1
  Fe  Fe75  1  0.52338494  0.67784872  0.39466218  1
  Fe  Fe76  1  0.66028328  0.08472467  0.97354422  1
  Fe  Fe77  1  0.38864857  0.64227440  0.40033695  1
  Fe  Fe78  1  0.16848725  0.15188013  0.71467975  1
  Fe  Fe79  1  0.73075154  0.26900549  0.47290765  1
  Fe  Fe80  1  0.02022911  0.69477209  0.59636885  1
  Fe  Fe81  1  0.44547400  0.78938879  0.41990025  1
  Fe  Fe82  1  0.44580853  0.89345410  0.95201969  1
  Fe  Fe83  1  0.51537997  1.02545689  -0.00943809  1
  Fe  Fe84  1  0.11199710  1.01938383  0.77853337  1
  Fe  Fe85  1  0.49790975  0.30354830  0.75598929  1
  Fe  Fe86  1  0.26950514  0.51792985  0.11899296  1
  Fe  Fe87  1  0.93819890  0.60359406  0.53188420  1
  Fe  Fe88  1  0.34507129  0.34732571  0.76136617  1
  Fe  Fe89  1  0.51880800  0.89981916  0.08909760  1
  Fe  Fe90  1  0.56066377  0.51417884  0.72484632  1
  Fe  Fe91  1  -0.01138308  0.58362786  0.40134421  1
  Fe  Fe92  1  0.44225050  0.13992801  0.40043493  1
  Fe  Fe93  1  0.02605828  0.13515374  0.79000631  1
  Fe  Fe94  1  0.39381938  0.95831336  0.06890692  1
  Fe  Fe95  1  0.58255474  0.16199470  0.05008587  1
  Fe  Fe96  1  0.84464813  0.35765029  0.48162831  1
  Fe  Fe97  1  0.07766469  0.20654952  0.20602839  1
  Fe  Fe98  1  0.07864546  0.68156536  0.47503753  1
  Fe  Fe99  1  1.04754140  1.02970010  0.89145052  1
  Fe  Fe100  1  1.09153527  0.70669820  -0.01725391  1
  Fe  Fe101  1  0.97872810  0.15842911  0.28340353  1
  Bi  Bi102  1  0.60560466  0.22956779  -0.11706796  1
  Bi  Bi103  1  0.20641639  0.49597666  0.27785109  1
  Bi  Bi104  1  0.52706116  0.57260711  0.87960448  1
  Bi  Bi105  1  0.04782203  0.87548881  -0.02256029  1
  Bi  Bi106  1  0.36874136  0.18476690  0.71495282  1
  Bi  Bi107  1  0.17765129  0.62957214  0.62853531  1
  Bi  Bi108  1  0.72294898  0.51329195  0.66013099  1
  Bi  Bi109  1  0.11365850  0.38631501  0.58459604  1
  Bi  Bi110  1  0.61782452  0.12903658  0.40223986  1
  Bi  Bi111  1  -0.09286645  0.15771624  0.12632302  1
  Bi  Bi112  1  0.59555242  0.73411577  0.53813468  1
  Bi  Bi113  1  0.89334209  0.19153624  0.42783624  1
  Bi  Bi114  1  0.13704287  0.44998868  0.02083857  1
  Bi  Bi115  1  0.67280053  0.84278562  0.15726392  1
  Bi  Bi116  1  0.73583089  0.92725471  0.72373334  1
  Bi  Bi117  1  0.97219865  0.61907452  0.88887192  1
  Bi  Bi118  1  0.90032274  0.44659947  0.33377356  1
  Bi  Bi119  1  0.35219429  0.28760019  0.36253830  1
  Bi  Bi120  1  0.87591437  0.66672221  0.29110122  1
  Bi  Bi121  1  0.43658472  0.86150484  0.78351579  1
  Bi  Bi122  1  0.34145464  0.01655798  0.46066647  1
  Bi  Bi123  1  0.62500448  0.38759203  0.39201331  1
  Bi  Bi124  1  0.78528360  0.48244652  0.06803304  1
  Bi  Bi125  1  0.87408921  0.90143888  0.46804789  1
  Bi  Bi126  1  0.94173640  0.30198111  0.82136444  1
  Bi  Bi127  1  0.19155389  0.93818444  0.30513442  1
