# generated using pymatgen
data_Ba51Fe51Bi26
_symmetry_space_group_name_H-M   'P 1'
_cell_length_a   16.41143691
_cell_length_b   16.39056932
_cell_length_c   16.26514948
_cell_angle_alpha   92.68125406
_cell_angle_beta   92.49115944
_cell_angle_gamma   90.93571382
_symmetry_Int_Tables_number   1
_chemical_formula_structural   Ba51Fe51Bi26
_chemical_formula_sum   'Ba51 Fe51 Bi26'
_cell_volume   4365.54857457
_cell_formula_units_Z   1
loop_
 _symmetry_equiv_pos_site_id
 _symmetry_equiv_pos_as_xyz
  1  'x, y, z'
loop_
 _atom_site_type_symbol
 _atom_site_label
 _atom_site_symmetry_multiplicity
 _atom_site_fract_x
 _atom_site_fract_y
 _atom_site_fract_z
 _atom_site_occupancy
  Ba  Ba0  1  0.24497592  -0.04926239  0.53776345  1
  Ba  Ba1  1  -0.02153456  0.47380495  0.03230174  1
  Ba  Ba2  1  -0.05152054  0.43224543  0.46053125  1
  Ba  Ba3  1  0.48200506  0.44310615  0.80700526  1
  Ba  Ba4  1  0.46634304  0.05767130  -0.06252105  1
  Ba  Ba5  1  0.23283810  0.79284331  0.19639466  1
  Ba  Ba6  1  -0.00758919  -0.07658957  0.50537999  1
  Ba  Ba7  1  0.06799983  -0.06270544  0.10524589  1
  Ba  Ba8  1  0.50202910  0.06863294  0.45073761  1
  Ba  Ba9  1  0.32870152  0.80488428  -0.07792811  1
  Ba  Ba10  1  0.17173006  0.33663279  0.05289644  1
  Ba  Ba11  1  0.27182788  0.22345753  0.51794997  1
  Ba  Ba12  1  0.54820766  0.59166090  0.20478251  1
  Ba  Ba13  1  0.74791289  0.07042210  0.53357592  1
  Ba  Ba14  1  -0.07727693  0.57013082  0.25092028  1
  Ba  Ba15  1  0.00094657  0.24802425  0.26368613  1
  Ba  Ba16  1  0.70526131  0.76781934  0.66112900  1
  Ba  Ba17  1  0.67178245  0.31741467  0.00284749  1
  Ba  Ba18  1  0.74665197  0.13909730  0.79921410  1
  Ba  Ba19  1  0.09029234  0.70633484  0.41256345  1
  Ba  Ba20  1  0.45607354  0.10552942  0.20526611  1
  Ba  Ba21  1  0.56061812  0.80498813  0.45489942  1
  Ba  Ba22  1  0.33946586  0.63951235  0.33006339  1
  Ba  Ba23  1  0.66662204  -0.07783198  0.85265770  1
  Ba  Ba24  1  0.73992370  0.42682241  0.32836015  1
  Ba  Ba25  1  0.44230884  -0.19458900  0.68717004  1
  Ba  Ba26  1  0.25009719  0.52295581  0.54080081  1
  Ba  Ba27  1  -0.11205700  0.00178505  0.30522347  1
  Ba  Ba28  1  0.87059213  0.80788560  -0.07494804  1
  Ba  Ba29  1  0.73420820  0.75037282  0.27231231  1
  Ba  Ba30  1  0.19349380  0.06697334  -0.04698958  1
  Ba  Ba31  1  0.18745383  0.75933021  0.70504440  1
  Ba  Ba32  1  0.27729019  0.53147776  -0.02003256  1
  Ba  Ba33  1  -0.09404196  0.18873862  0.02310342  1
  Ba  Ba34  1  0.28243273  0.38552454  0.73069264  1
  Ba  Ba35  1  0.24484415  0.02568280  0.28490287  1
  Ba  Ba36  1  0.51465627  0.34304926  0.19916392  1
  Ba  Ba37  1  0.53379109  0.47282053  0.48627074  1
  Ba  Ba38  1  0.45262751  0.11437031  0.68153449  1
  Ba  Ba39  1  0.72028633  0.18375562  0.23173311  1
  Ba  Ba40  1  0.48579098  0.85473073  0.20352748  1
  Ba  Ba41  1  -0.06048514  0.51518431  0.77876944  1
  Ba  Ba42  1  0.71235627  -0.06813850  0.12294732  1
  Ba  Ba43  1  -0.03408774  0.74677847  0.71401474  1
  Ba  Ba44  1  0.66362659  0.35185373  0.69273387  1
  Ba  Ba45  1  0.07163925  0.69561702  -0.00011306  1
  Ba  Ba46  1  0.03186564  0.28023428  0.83996344  1
  Ba  Ba47  1  0.89898979  0.27787936  0.63516164  1
  Ba  Ba48  1  0.00680890  0.01937838  0.73952463  1
  Ba  Ba49  1  0.73773557  0.55226421  0.01469825  1
  Ba  Ba50  1  0.77822500  0.54230413  0.58969813  1
  Fe  Fe51  1  0.96392527  0.13838253  0.50375995  1
  Fe  Fe52  1  -0.07448296  0.78765775  0.26179706  1
  Fe  Fe53  1  0.66804298  0.73536436  0.95497527  1
  Fe  Fe54  1  0.71593102  0.32602900  0.49496520  1
  Fe  Fe55  1  0.28799786  0.17659423  0.75655015  1
  Fe  Fe56  1  0.22566978  0.24668740  0.85673481  1
  Fe  Fe57  1  0.14049289  0.59841056  0.84158447  1
  Fe  Fe58  1  0.46241184  0.31630205  -0.03615062  1
  Fe  Fe59  1  0.89354113  0.84025281  0.13090985  1
  Fe  Fe60  1  0.88982207  0.74217818  0.39980781  1
  Fe  Fe61  1  0.47888760  0.64705443  0.79149324  1
  Fe  Fe62  1  0.37959635  0.23277927  0.86526092  1
  Fe  Fe63  1  0.32385226  0.29856690  0.18368703  1
  Fe  Fe64  1  0.19036748  0.33239896  0.24593179  1
  Fe  Fe65  1  0.44096212  0.62434734  0.92058360  1
  Fe  Fe66  1  0.30623958  0.35332443  0.33142265  1
  Fe  Fe67  1  0.64006212  0.74462864  0.08911982  1
  Fe  Fe68  1  0.53777472  0.74368132  0.87576301  1
  Fe  Fe69  1  0.87684712  0.76971268  0.54223036  1
  Fe  Fe70  1  0.11708234  0.46658218  0.83848166  1
  Fe  Fe71  1  0.76355062  0.70656397  0.47948465  1
  Fe  Fe72  1  0.89823398  0.70489308  1.12102999  1
  Fe  Fe73  1  0.88453056  -0.02417190  0.05428188  1
  Fe  Fe74  1  0.82177103  0.60329569  0.40657045  1
  Fe  Fe75  1  0.19665022  1.10443421  0.65494348  1
  Fe  Fe76  1  0.18317362  0.22394344  0.33636353  1
  Fe  Fe77  1  0.22209203  0.19727693  0.18937018  1
  Fe  Fe78  1  0.31856587  0.34102283  0.92383122  1
  Fe  Fe79  1  0.08703476  0.43794129  0.24057133  1
  Fe  Fe80  1  1.04546413  0.23854328  0.46604744  1
  Fe  Fe81  1  0.59327428  0.61354358  0.87980541  1
  Fe  Fe82  1  0.77479326  0.74619740  0.07306847  1
  Fe  Fe83  1  0.31291802  0.21311893  0.29498650  1
  Fe  Fe84  1  0.10155843  0.51683902  0.35060940  1
  Fe  Fe85  1  0.57771612  0.26384809  0.51612931  1
  Fe  Fe86  1  0.68850209  0.61061685  0.41022254  1
  Fe  Fe87  1  0.60573058  0.30540630  0.38414477  1
  Fe  Fe88  1  0.01837891  0.75518459  0.17899128  1
  Fe  Fe89  1  0.83581736  0.01119139  0.93488230  1
  Fe  Fe90  1  0.15659333  0.53900363  0.72223445  1
  Fe  Fe91  1  0.91669669  0.64876273  0.50836042  1
  Fe  Fe92  1  0.96590112  0.99528908  0.93820374  1
  Fe  Fe93  1  0.15709215  0.13353657  0.77758358  1
  Fe  Fe94  1  0.54307604  0.66970087  0.01288495  1
  Fe  Fe95  1  1.07719700  0.15742760  0.59584953  1
  Fe  Fe96  1  0.22075899  0.47278584  0.31123252  1
  Fe  Fe97  1  0.37983450  0.37430014  0.05579870  1
  Fe  Fe98  1  0.15408182  0.24751258  0.70037167  1
  Fe  Fe99  1  0.09055338  0.41245614  0.69135363  1
  Fe  Fe100  1  0.67839608  0.20977119  0.42946553  1
  Fe  Fe101  1  1.08888077  0.31182239  0.58687878  1
  Bi  Bi102  1  0.04559127  0.57871912  0.60021745  1
  Bi  Bi103  1  0.54199802  0.85669179  0.00170293  1
  Bi  Bi104  1  0.78183709  0.87359403  0.45695470  1
  Bi  Bi105  1  0.84904210  0.22935722  0.41660148  1
  Bi  Bi106  1  0.34788716  0.20769673  0.04014517  1
  Bi  Bi107  1  0.27710744  -0.00561291  0.75795400  1
  Bi  Bi108  1  0.51579351  0.48339079  0.01507113  1
  Bi  Bi109  1  0.33642145  0.46514029  0.19294808  1
  Bi  Bi110  1  0.31526866  0.60567160  0.77583343  1
  Bi  Bi111  1  0.59865121  0.58241391  0.69729404  1
  Bi  Bi112  1  0.09430491  0.08739838  0.41239337  1
  Bi  Bi113  1  0.12971111  0.59906953  0.20100357  1
  Bi  Bi114  1  0.44530290  0.26855794  0.38884536  1
  Bi  Bi115  1  0.30110958  0.73825578  0.52063848  1
  Bi  Bi116  1  0.38977293  0.68397976  0.08943631  1
  Bi  Bi117  1  0.83208533  0.34962947  0.86278565  1
  Bi  Bi118  1  0.64688112  0.99628301  0.31853982  1
  Bi  Bi119  1  0.07773602  0.87332110  0.88210187  1
  Bi  Bi120  1  0.84052554  0.36635828  0.14984382  1
  Bi  Bi121  1  0.14213925  0.36802755  0.42160332  1
  Bi  Bi122  1  0.31487373  0.95818023  0.09174571  1
  Bi  Bi123  1  0.70913275  0.09971928  0.00463849  1
  Bi  Bi124  1  0.55013817  0.23339289  0.83952825  1
  Bi  Bi125  1  0.36707480  0.87268147  0.37863797  1
  Bi  Bi126  1  0.59723029  0.95753494  0.63739105  1
  Bi  Bi127  1  0.45380622  0.32469006  0.60905431  1
