# generated using pymatgen
data_Ba51Fe51Bi26
_symmetry_space_group_name_H-M   'P 1'
_cell_length_a   16.69473263
_cell_length_b   16.26914331
_cell_length_c   16.05624223
_cell_angle_alpha   92.47488081
_cell_angle_beta   90.42661780
_cell_angle_gamma   90.53715326
_symmetry_Int_Tables_number   1
_chemical_formula_structural   Ba51Fe51Bi26
_chemical_formula_sum   'Ba51 Fe51 Bi26'
_cell_volume   4356.62611535
_cell_formula_units_Z   1
loop_
 _symmetry_equiv_pos_site_id
 _symmetry_equiv_pos_as_xyz
  1  'x, y, z'
loop_
 _atom_site_type_symbol
 _atom_site_label
 _atom_site_symmetry_multiplicity
 _atom_site_fract_x
 _atom_site_fract_y
 _atom_site_fract_z
 _atom_site_occupancy
  Ba  Ba0  1  0.40557025  -0.01874636  -0.07109987  1
  Ba  Ba1  1  0.19373424  0.06824186  0.02688687  1
  Ba  Ba2  1  0.59751440  0.07791270  0.37992478  1
  Ba  Ba3  1  0.00741980  -0.04885693  -0.11319934  1
  Ba  Ba4  1  0.28638991  0.57570333  0.08621798  1
  Ba  Ba5  1  -0.07317899  0.49784627  0.50492943  1
  Ba  Ba6  1  0.08047020  0.00099809  0.43815326  1
  Ba  Ba7  1  0.01815873  -0.06609692  0.14911217  1
  Ba  Ba8  1  0.69035007  0.32626773  0.51669230  1
  Ba  Ba9  1  -0.09642229  0.21963345  0.45083640  1
  Ba  Ba10  1  0.29032988  0.48034358  0.84721156  1
  Ba  Ba11  1  0.74004627  0.28042780  0.18939449  1
  Ba  Ba12  1  0.58300895  0.83629101  0.29010431  1
  Ba  Ba13  1  0.10521131  0.21906769  0.60572201  1
  Ba  Ba14  1  0.73982267  0.62093716  0.30974006  1
  Ba  Ba15  1  0.04083080  0.53513563  0.00838368  1
  Ba  Ba16  1  0.01704831  0.27222208  0.05046731  1
  Ba  Ba17  1  -0.00142250  0.44929696  0.27013916  1
  Ba  Ba18  1  0.71464124  0.74497772  0.87366774  1
  Ba  Ba19  1  0.47989412  0.26036314  0.77055605  1
  Ba  Ba20  1  0.26534125  0.20768160  0.84890566  1
  Ba  Ba21  1  0.24094170  0.32520445  0.12749321  1
  Ba  Ba22  1  0.21316610  0.02269149  0.25046539  1
  Ba  Ba23  1  -0.02224491  0.21828181  0.81860005  1
  Ba  Ba24  1  0.38433003  -0.01217459  0.44876813  1
  Ba  Ba25  1  0.21789016  0.79966967  0.34301061  1
  Ba  Ba26  1  0.00458905  0.46196642  0.75956242  1
  Ba  Ba27  1  0.35729607  0.82103827  0.08683552  1
  Ba  Ba28  1  0.85200864  -0.11444720  0.32446669  1
  Ba  Ba29  1  0.22679640  0.55799714  0.34350730  1
  Ba  Ba30  1  0.53957339  0.66770232  0.10683247  1
  Ba  Ba31  1  0.56467381  0.51174172  -0.07272893  1
  Ba  Ba32  1  0.73734121  0.75057267  0.58367017  1
  Ba  Ba33  1  0.59321256  0.28092417  0.00213790  1
  Ba  Ba34  1  0.06702566  0.72255311  0.79337123  1
  Ba  Ba35  1  0.26263612  0.22553600  0.37894345  1
  Ba  Ba36  1  0.77561110  0.01460435  0.51284910  1
  Ba  Ba37  1  0.45553305  0.25206296  0.51706774  1
  Ba  Ba38  1  0.34457627  0.75082888  0.74962228  1
  Ba  Ba39  1  0.75200467  0.04087785  -0.00786016  1
  Ba  Ba40  1  0.14795997  -0.10149045  0.64609700  1
  Ba  Ba41  1  0.45132203  0.72635377  0.51376244  1
  Ba  Ba42  1  0.70319823  -0.02089160  0.72703626  1
  Ba  Ba43  1  0.48285240  0.26924286  0.23932574  1
  Ba  Ba44  1  0.00721219  0.70958952  0.23594501  1
  Ba  Ba45  1  0.55993803  0.05621503  0.12693091  1
  Ba  Ba46  1  0.47287280  0.50156006  0.62320718  1
  Ba  Ba47  1  0.46063178  0.01252853  0.68584643  1
  Ba  Ba48  1  0.73502548  0.22966663  0.77273848  1
  Ba  Ba49  1  0.74554282  0.50330781  0.73883327  1
  Ba  Ba50  1  0.19032216  0.49308080  0.57726904  1
  Fe  Fe51  1  0.70729755  0.76574501  0.07284528  1
  Fe  Fe52  1  0.90941002  0.10963686  0.15016890  1
  Fe  Fe53  1  0.05624266  0.13585963  0.19631015  1
  Fe  Fe54  1  0.95431499  0.07209008  0.28296025  1
  Fe  Fe55  1  0.12821989  0.35231860  0.89574359  1
  Fe  Fe56  1  0.06259952  0.16828409  0.34306153  1
  Fe  Fe57  1  0.40319870  0.96492825  0.23558739  1
  Fe  Fe58  1  0.73895652  0.40395555  0.94321473  1
  Fe  Fe59  1  0.84149161  0.68632947  1.03368525  1
  Fe  Fe60  1  0.52661491  0.45406345  0.44132120  1
  Fe  Fe61  1  0.01808764  0.05931658  0.68633981  1
  Fe  Fe62  1  0.32814124  0.15986553  0.18337106  1
  Fe  Fe63  1  0.89810099  0.14242085  0.64507266  1
  Fe  Fe64  1  0.50920980  0.78773181  0.87010282  1
  Fe  Fe65  1  0.56966686  0.91044996  0.85349840  1
  Fe  Fe66  1  0.41064898  0.09160009  0.26990288  1
  Fe  Fe67  1  0.31601473  0.16382953  0.61995414  1
  Fe  Fe68  1  0.54792187  0.83953486  0.73550114  1
  Fe  Fe69  1  0.72668600  0.62319411  0.08945805  1
  Fe  Fe70  1  0.54488475  0.58059274  0.28641579  1
  Fe  Fe71  1  0.35723888  0.43434846  0.26475844  1
  Fe  Fe72  1  0.49230263  0.44618025  0.30264244  1
  Fe  Fe73  1  0.71978764  1.01046014  0.23637087  1
  Fe  Fe74  1  0.38400095  0.17197868  1.06328980  1
  Fe  Fe75  1  -0.04259998  0.78159987  0.60591951  1
  Fe  Fe76  1  0.81419920  0.10133362  0.27397671  1
  Fe  Fe77  1  0.07477133  0.65918116  0.44559015  1
  Fe  Fe78  1  0.79024652  0.54506314  0.97778208  1
  Fe  Fe79  1  0.55621281  0.58460552  0.42242566  1
  Fe  Fe80  1  0.10172864  0.26182264  0.26254467  1
  Fe  Fe81  1  -0.04690066  0.03463137  0.56821826  1
  Fe  Fe82  1  0.80202103  0.74874906  0.16487006  1
  Fe  Fe83  1  0.85394664  0.41402394  0.04775364  1
  Fe  Fe84  1  0.89226009  0.03067128  0.71994468  1
  Fe  Fe85  1  0.42083259  0.55096294  0.21818498  1
  Fe  Fe86  1  0.19256515  0.73606839  0.97839301  1
  Fe  Fe87  1  0.63196151  0.46448242  0.35187752  1
  Fe  Fe88  1  0.42800571  0.43180266  0.14449124  1
  Fe  Fe89  1  0.72998780  0.47137510  0.07768604  1
  Fe  Fe90  1  0.04729617  0.67220435  0.57882268  1
  Fe  Fe91  1  0.72597251  0.88905134  0.15313983  1
  Fe  Fe92  1  0.36892571  1.04177302  0.12551743  1
  Fe  Fe93  1  0.94162568  0.88767960  0.51249655  1
  Fe  Fe94  1  0.42409755  0.55572872  0.37193068  1
  Fe  Fe95  1  0.16684828  0.86100903  0.04472001  1
  Fe  Fe96  1  0.15633171  0.34705797  0.77000553  1
  Fe  Fe97  1  0.83558249  -0.00425998  0.16940291  1
  Fe  Fe98  1  0.05271232  0.79529238  0.48791293  1
  Fe  Fe99  1  0.86504363  0.42996116  0.91020803  1
  Fe  Fe100  1  0.17090450  0.75070915  0.11710694  1
  Fe  Fe101  1  0.96112784  0.92352087  0.64844163  1
  Bi  Bi102  1  -0.13149355  -0.15207158  0.75501983  1
  Bi  Bi103  1  0.21547500  0.70822312  0.54035238  1
  Bi  Bi104  1  0.67560304  0.53821163  0.52256636  1
  Bi  Bi105  1  0.89352624  0.61128132  -0.12534714  1
  Bi  Bi106  1  0.35896826  0.41740850  0.43833027  1
  Bi  Bi107  1  0.59252289  0.45628676  0.16344573  1
  Bi  Bi108  1  0.81795552  0.25681912  -0.02558223  1
  Bi  Bi109  1  0.55870842  0.66981619  0.73377376  1
  Bi  Bi110  1  -0.08964347  0.71296253  0.43749821  1
  Bi  Bi111  1  0.58205767  0.86653996  0.02423303  1
  Bi  Bi112  1  -0.06538428  0.24694701  0.24462096  1
  Bi  Bi113  1  0.87215296  0.56098028  0.14558915  1
  Bi  Bi114  1  0.03023033  0.75257858  0.01657943  1
  Bi  Bi115  1  0.09403965  0.34370817  0.42635251  1
  Bi  Bi116  1  0.29967100  0.32573598  0.67082692  1
  Bi  Bi117  1  0.61310645  0.14352767  0.60357469  1
  Bi  Bi118  1  0.90523894  0.63474278  0.66960326  1
  Bi  Bi119  1  0.40243239  0.70669109  0.28720537  1
  Bi  Bi120  1  0.84806707  0.86170435  1.03551127  1
  Bi  Bi121  1  0.57733474  0.09134397  0.87292107  1
  Bi  Bi122  1  0.57821796  0.90385468  0.52919468  1
  Bi  Bi123  1  0.40739359  0.66223188  0.92980188  1
  Bi  Bi124  1  0.39634252  0.34838500  0.98523061  1
  Bi  Bi125  1  0.79408752  0.41477470  0.35519448  1
  Bi  Bi126  1  0.88153908  0.31844384  0.64826400  1
  Bi  Bi127  1  0.21650629  0.88161516  0.87794728  1
