# generated using pymatgen
data_Ba51Fe51Bi26
_symmetry_space_group_name_H-M   'P 1'
_cell_length_a   16.39230347
_cell_length_b   16.60136517
_cell_length_c   15.96559668
_cell_angle_alpha   87.42394351
_cell_angle_beta   89.17550006
_cell_angle_gamma   89.57802353
_symmetry_Int_Tables_number   1
_chemical_formula_structural   Ba51Fe51Bi26
_chemical_formula_sum   'Ba51 Fe51 Bi26'
_cell_volume   4339.85329529
_cell_formula_units_Z   1
loop_
 _symmetry_equiv_pos_site_id
 _symmetry_equiv_pos_as_xyz
  1  'x, y, z'
loop_
 _atom_site_type_symbol
 _atom_site_label
 _atom_site_symmetry_multiplicity
 _atom_site_fract_x
 _atom_site_fract_y
 _atom_site_fract_z
 _atom_site_occupancy
  Ba  Ba0  1  -0.08132786  0.26751986  0.25086328  1
  Ba  Ba1  1  0.03130932  0.51466523  0.14028117  1
  Ba  Ba2  1  -0.05110673  0.88995912  -0.03766604  1
  Ba  Ba3  1  0.19748679  -0.14609850  0.84341378  1
  Ba  Ba4  1  0.64401957  0.32797524  0.04286440  1
  Ba  Ba5  1  0.78515768  0.70310507  0.70300661  1
  Ba  Ba6  1  0.78765419  0.73421186  0.08565282  1
  Ba  Ba7  1  0.74405656  0.19332031  0.84883737  1
  Ba  Ba8  1  0.52496625  0.73049838  -0.01412000  1
  Ba  Ba9  1  -0.08282726  0.77723544  0.41579788  1
  Ba  Ba10  1  0.58679729  0.56170060  0.53747749  1
  Ba  Ba11  1  0.00875221  0.08896574  0.09765763  1
  Ba  Ba12  1  0.51249062  0.05572466  -0.02338006  1
  Ba  Ba13  1  0.44957756  0.74344875  0.42971272  1
  Ba  Ba14  1  0.66998056  0.76512824  0.28644383  1
  Ba  Ba15  1  0.38995113  0.00388106  0.76378453  1
  Ba  Ba16  1  0.70029776  -0.11047511  0.84960170  1
  Ba  Ba17  1  0.03728972  0.77210287  0.19348585  1
  Ba  Ba18  1  0.30256466  0.88135898  0.22235484  1
  Ba  Ba19  1  0.24349395  0.33417854  -0.03506528  1
  Ba  Ba20  1  0.21656218  0.78770186  0.44591324  1
  Ba  Ba21  1  0.32116197  0.03960173  0.49819411  1
  Ba  Ba22  1  0.38361552  0.50132303  0.74789205  1
  Ba  Ba23  1  0.00743166  0.79256775  0.64275009  1
  Ba  Ba24  1  0.06372686  0.23276434  0.81166527  1
  Ba  Ba25  1  0.23372513  0.67594511  0.66971098  1
  Ba  Ba26  1  0.77474106  0.52888271  -0.03383452  1
  Ba  Ba27  1  0.19000042  0.28894843  0.25517675  1
  Ba  Ba28  1  0.67699755  -0.00272122  0.29653865  1
  Ba  Ba29  1  0.76467538  0.06701393  0.07105356  1
  Ba  Ba30  1  0.70312222  0.24492418  0.58178355  1
  Ba  Ba31  1  0.66006992  0.29068825  0.30731513  1
  Ba  Ba32  1  0.29495396  0.25290463  0.68424060  1
  Ba  Ba33  1  0.57381493  -0.09431794  0.54951130  1
  Ba  Ba34  1  0.42632175  0.43486010  0.30851876  1
  Ba  Ba35  1  0.69883936  0.51849740  0.25203229  1
  Ba  Ba36  1  -0.06860524  0.02233698  0.34711047  1
  Ba  Ba37  1  0.16900373  0.43747730  0.55432717  1
  Ba  Ba38  1  0.00550148  0.55908712  0.69868758  1
  Ba  Ba39  1  0.25906524  0.69144756  0.06186190  1
  Ba  Ba40  1  -0.00305424  0.43906565  -0.09125818  1
  Ba  Ba41  1  0.47968021  0.34141276  0.55925315  1
  Ba  Ba42  1  0.50051519  0.72280847  0.71346557  1
  Ba  Ba43  1  0.10722580  0.15466610  0.50164429  1
  Ba  Ba44  1  -0.02309368  0.01417036  0.71416564  1
  Ba  Ba45  1  0.26724678  0.09027757  0.03066484  1
  Ba  Ba46  1  0.77564189  0.42977113  0.71585351  1
  Ba  Ba47  1  -0.04642589  0.50424779  0.43185950  1
  Ba  Ba48  1  0.44975349  0.17851775  0.35206229  1
  Ba  Ba49  1  0.23346286  0.55067321  0.34442517  1
  Ba  Ba50  1  0.45243430  0.48050758  -0.00724484  1
  Fe  Fe51  1  0.90447665  0.94854744  0.53123605  1
  Fe  Fe52  1  0.77568727  0.61152187  0.41068220  1
  Fe  Fe53  1  0.51083777  0.13091422  0.54155705  1
  Fe  Fe54  1  0.50663715  -0.06467728  0.17473342  1
  Fe  Fe55  1  0.80429216  0.91692861  0.61563572  1
  Fe  Fe56  1  0.56722771  0.43064470  0.72181991  1
  Fe  Fe57  1  0.60955568  0.07558421  0.60890000  1
  Fe  Fe58  1  0.18245926  0.60020012  -0.14489095  1
  Fe  Fe59  1  0.37191331  0.66084730  0.26624245  1
  Fe  Fe60  1  0.40017154  0.82129355  0.85680444  1
  Fe  Fe61  1  0.88147854  0.35089405  0.55378380  1
  Fe  Fe62  1  0.55329173  0.25565119  0.87187256  1
  Fe  Fe63  1  0.79709445  0.59046756  0.53957501  1
  Fe  Fe64  1  0.69766719  0.69496825  0.88663034  1
  Fe  Fe65  1  0.60925632  0.30684083  0.74548351  1
  Fe  Fe66  1  0.88238529  0.36751151  0.06628168  1
  Fe  Fe67  1  0.43876088  0.04708679  0.19398990  1
  Fe  Fe68  1  0.85650425  0.07415528  0.56056706  1
  Fe  Fe69  1  0.09206720  0.91998738  0.31930580  1
  Fe  Fe70  1  0.91594024  0.24515614  0.97970498  1
  Fe  Fe71  1  0.77880963  0.89976352  0.48094977  1
  Fe  Fe72  1  0.00486270  0.30735633  0.57749152  1
  Fe  Fe73  1  0.19069197  0.52441311  -0.03504106  1
  Fe  Fe74  1  0.96520170  0.69679156  -0.02351884  1
  Fe  Fe75  1  0.40176277  0.18210667  0.15280522  1
  Fe  Fe76  1  0.48605493  0.29821409  0.16960867  1
  Fe  Fe77  1  0.08867634  0.64624521  0.53297905  1
  Fe  Fe78  1  0.07017766  0.60916356  0.96015188  1
  Fe  Fe79  1  0.18327827  -0.00096375  0.36514987  1
  Fe  Fe80  1  0.82971845  0.71798500  0.89688062  1
  Fe  Fe81  1  0.91160951  0.20340754  0.50912538  1
  Fe  Fe82  1  0.82428510  0.33934778  0.94352310  1
  Fe  Fe83  1  0.41668425  0.21733128  0.84157391  1
  Fe  Fe84  1  0.94828992  0.75096225  0.82849794  1
  Fe  Fe85  1  0.58919610  0.40090312  0.85450487  1
  Fe  Fe86  1  0.46453526  0.33422010  0.78701563  1
  Fe  Fe87  1  0.54051668  0.60576367  0.15763327  1
  Fe  Fe88  1  0.19143003  0.91815708  0.62892653  1
  Fe  Fe89  1  0.14227880  0.98777971  0.21098995  1
  Fe  Fe90  1  0.81922195  0.24955380  0.07531331  1
  Fe  Fe91  1  0.93930103  0.62310890  0.87057953  1
  Fe  Fe92  1  0.49944248  0.61444316  0.28669365  1
  Fe  Fe93  1  0.73054157  1.02552282  0.52329359  1
  Fe  Fe94  1  0.61782521  0.10762448  0.46134961  1
  Fe  Fe95  1  0.07981177  0.65590423  0.40536252  1
  Fe  Fe96  1  0.84663343  0.30930518  0.42897818  1
  Fe  Fe97  1  0.36044458  0.32312639  0.14279990  1
  Fe  Fe98  1  0.07236282  0.69445537  0.84892187  1
  Fe  Fe99  1  -0.01181352  0.31180628  0.44132538  1
  Fe  Fe100  1  0.40701649  0.58416636  0.16480525  1
  Fe  Fe101  1  0.10762674  0.08712549  0.29030838  1
  Bi  Bi102  1  0.47685588  0.76284202  0.19190390  1
  Bi  Bi103  1  0.74499826  0.44028211  0.46626516  1
  Bi  Bi104  1  0.74607902  0.04306990  0.70263816  1
  Bi  Bi105  1  0.43808098  0.26122248  -0.00078723  1
  Bi  Bi106  1  0.07680324  -0.05956181  0.49838955  1
  Bi  Bi107  1  0.26981777  0.47745163  0.13090272  1
  Bi  Bi108  1  0.51653343  0.17194278  0.71400171  1
  Bi  Bi109  1  0.61701303  0.56777111  0.81116852  1
  Bi  Bi110  1  -0.10525010  0.22304590  0.68231289  1
  Bi  Bi111  1  0.27804587  0.09509608  0.25351219  1
  Bi  Bi112  1  0.57687052  0.14958904  0.16676801  1
  Bi  Bi113  1  0.04904266  0.30070583  0.07374751  1
  Bi  Bi114  1  0.70532059  0.73808629  0.50084134  1
  Bi  Bi115  1  0.35660155  0.89747158  -0.00514340  1
  Bi  Bi116  1  0.34798899  0.85302357  0.61645789  1
  Bi  Bi117  1  0.36401653  0.55867137  0.52737084  1
  Bi  Bi118  1  0.34459111  0.66662923  0.86671692  1
  Bi  Bi119  1  0.87532481  0.63071687  0.26411773  1
  Bi  Bi120  1  0.86822474  0.90589311  0.18152961  1
  Bi  Bi121  1  0.63992103  0.89638219  0.07324294  1
  Bi  Bi122  1  0.17783645  0.44401663  0.78130215  1
  Bi  Bi123  1  0.09922082  0.03709798  0.90221447  1
  Bi  Bi124  1  0.47136118  0.95029795  0.34706780  1
  Bi  Bi125  1  0.78184070  0.15223058  0.40519362  1
  Bi  Bi126  1  0.29019245  0.29441033  0.45389262  1
  Bi  Bi127  1  0.18979348  0.06754318  0.69913460  1
