# generated using pymatgen
data_Ba51Fe51Bi26
_symmetry_space_group_name_H-M   'P 1'
_cell_length_a   16.31713083
_cell_length_b   16.36049217
_cell_length_c   16.44910952
_cell_angle_alpha   90.87638913
_cell_angle_beta   90.27293521
_cell_angle_gamma   88.67843209
_symmetry_Int_Tables_number   1
_chemical_formula_structural   Ba51Fe51Bi26
_chemical_formula_sum   'Ba51 Fe51 Bi26'
_cell_volume   4389.46892793
_cell_formula_units_Z   1
loop_
 _symmetry_equiv_pos_site_id
 _symmetry_equiv_pos_as_xyz
  1  'x, y, z'
loop_
 _atom_site_type_symbol
 _atom_site_label
 _atom_site_symmetry_multiplicity
 _atom_site_fract_x
 _atom_site_fract_y
 _atom_site_fract_z
 _atom_site_occupancy
  Ba  Ba0  1  0.03769688  0.00447657  0.69623451  1
  Ba  Ba1  1  0.54029390  0.77108188  0.75850068  1
  Ba  Ba2  1  -0.04630899  0.25326576  0.70009344  1
  Ba  Ba3  1  0.05166608  0.77014797  0.48786165  1
  Ba  Ba4  1  0.60059843  0.34582347  0.65199102  1
  Ba  Ba5  1  0.02208935  0.78900640  -0.10617487  1
  Ba  Ba6  1  0.54075573  0.79597235  0.51082233  1
  Ba  Ba7  1  0.06477599  0.01054922  -0.02559230  1
  Ba  Ba8  1  0.47462023  0.17467772  0.83365513  1
  Ba  Ba9  1  0.29636613  0.06893471  0.03650216  1
  Ba  Ba10  1  0.78586482  0.25316186  0.47579748  1
  Ba  Ba11  1  0.04469220  -0.02575833  0.26771535  1
  Ba  Ba12  1  0.31263748  -0.06594938  0.24987344  1
  Ba  Ba13  1  -0.09168959  0.22292593  0.19868362  1
  Ba  Ba14  1  -0.03717166  0.25822191  -0.05322570  1
  Ba  Ba15  1  0.71248200  -0.03138208  0.52376617  1
  Ba  Ba16  1  0.54063338  0.03057011  0.21646479  1
  Ba  Ba17  1  0.75065906  0.56581910  -0.00886307  1
  Ba  Ba18  1  0.71266153  0.12571086  0.72244230  1
  Ba  Ba19  1  0.36276739  0.15616198  0.55908367  1
  Ba  Ba20  1  0.04582053  0.19836727  0.41568049  1
  Ba  Ba21  1  0.66537611  0.35680285  0.91821703  1
  Ba  Ba22  1  0.52986952  0.53076898  0.76243885  1
  Ba  Ba23  1  0.79496775  0.62156753  0.74905973  1
  Ba  Ba24  1  0.39071156  0.46168535  0.51815298  1
  Ba  Ba25  1  -0.01179365  0.48927368  -0.04264083  1
  Ba  Ba26  1  0.80439107  0.51913690  0.45052164  1
  Ba  Ba27  1  0.74343430  0.71884726  0.28661049  1
  Ba  Ba28  1  0.44011709  0.65836152  -0.03226225  1
  Ba  Ba29  1  0.16646707  0.38146611  0.61447190  1
  Ba  Ba30  1  0.44686422  -0.11487167  -0.02601428  1
  Ba  Ba31  1  0.30837875  0.79040609  0.54553383  1
  Ba  Ba32  1  0.06877691  0.52984425  0.45723883  1
  Ba  Ba33  1  0.48347770  0.58726879  0.33723055  1
  Ba  Ba34  1  0.29052631  0.50200157  -0.18740306  1
  Ba  Ba35  1  0.50852393  0.26509312  0.35950746  1
  Ba  Ba36  1  -0.08999818  0.81081016  0.12761428  1
  Ba  Ba37  1  0.52181917  0.79930439  0.22626528  1
  Ba  Ba38  1  0.25224225  0.22677076  0.25402640  1
  Ba  Ba39  1  0.76498130  -0.00722160  -0.00041258  1
  Ba  Ba40  1  0.76579885  -0.02523894  0.28025189  1
  Ba  Ba41  1  0.45419171  0.47970205  0.09946745  1
  Ba  Ba42  1  0.15965731  0.77262053  0.71095526  1
  Ba  Ba43  1  0.22631859  0.17197875  0.78886150  1
  Ba  Ba44  1  -0.03887071  0.52220968  0.20946115  1
  Ba  Ba45  1  0.15551856  0.74869414  0.25002050  1
  Ba  Ba46  1  0.21162153  0.52218733  0.14993744  1
  Ba  Ba47  1  0.26872811  0.31413967  0.00742489  1
  Ba  Ba48  1  0.79530043  0.73727854  0.53200761  1
  Ba  Ba49  1  0.69133519  0.41793358  0.25090117  1
  Ba  Ba50  1  0.77829191  0.89739326  0.76280857  1
  Fe  Fe51  1  0.34631132  0.70811541  0.75779312  1
  Fe  Fe52  1  0.14828392  0.80313816  0.04149637  1
  Fe  Fe53  1  0.66619071  0.53323868  0.59944127  1
  Fe  Fe54  1  0.31551791  -0.01033326  0.85397840  1
  Fe  Fe55  1  0.32967497  0.85113898  0.80603177  1
  Fe  Fe56  1  0.71676888  0.74514665  0.06958778  1
  Fe  Fe57  1  0.00101786  0.49975654  0.73791409  1
  Fe  Fe58  1  0.61276303  0.07921583  0.39986898  1
  Fe  Fe59  1  0.45027555  0.30521241  0.17288803  1
  Fe  Fe60  1  0.76644022  0.44711266  0.65048120  1
  Fe  Fe61  1  0.65867405  0.86322302  0.09807775  1
  Fe  Fe62  1  0.43356665  -0.04353660  0.76320266  1
  Fe  Fe63  1  0.28831882  0.80487401  0.06964837  1
  Fe  Fe64  1  0.70464081  0.27263661  0.12683631  1
  Fe  Fe65  1  0.20691408  0.46520447  0.33850665  1
  Fe  Fe66  1  0.74262690  0.16672875  0.91911152  1
  Fe  Fe67  1  0.50837210  0.05713775  0.67431137  1
  Fe  Fe68  1  0.47977560  0.07333632  0.40375560  1
  Fe  Fe69  1  0.88694207  0.06350889  0.56321706  1
  Fe  Fe70  1  0.90280714  0.92664605  0.54993782  1
  Fe  Fe71  1  0.63083318  0.19981035  1.01117629  1
  Fe  Fe72  1  0.88558691  0.02978919  0.43698374  1
  Fe  Fe73  1  0.78970553  0.21118414  0.03140092  1
  Fe  Fe74  1  0.57349098  0.32776381  1.09649875  1
  Fe  Fe75  1  0.92724486  0.78038779  0.33121656  1
  Fe  Fe76  1  0.09090297  0.57785281  0.66331136  1
  Fe  Fe77  1  0.43042259  0.93641690  0.62031705  1
  Fe  Fe78  1  0.42497458  0.18352994  0.13369358  1
  Fe  Fe79  1  0.19163437  -0.08748754  0.09606730  1
  Fe  Fe80  1  0.53671235  0.60925983  0.58582598  1
  Fe  Fe81  1  0.20522652  0.05813204  0.42548112  1
  Fe  Fe82  1  0.64749328  0.71792809  0.92997654  1
  Fe  Fe83  1  0.22028446  0.35547907  0.40224668  1
  Fe  Fe84  1  0.24292779  0.89241233  0.95175653  1
  Fe  Fe85  1  0.98469374  0.65247759  0.73833410  1
  Fe  Fe86  1  0.56430423  0.93598015  0.66648360  1
  Fe  Fe87  1  0.19586670  -0.06621708  0.82966633  1
  Fe  Fe88  1  0.70147147  0.13574912  0.11712366  1
  Fe  Fe89  1  0.89010438  0.88102995  0.40727872  1
  Fe  Fe90  1  0.64778810  0.84849605  0.95334262  1
  Fe  Fe91  1  0.41056733  0.65102806  0.65363481  1
  Fe  Fe92  1  0.48185727  0.25325073  1.02942876  1
  Fe  Fe93  1  0.62472776  0.60720273  0.48966287  1
  Fe  Fe94  1  0.54402667  0.95152173  0.39066090  1
  Fe  Fe95  1  0.10637703  0.37746478  0.30985862  1
  Fe  Fe96  1  0.19425501  0.92487894  0.41272640  1
  Fe  Fe97  1  0.57004331  0.20447818  0.15405027  1
  Fe  Fe98  1  0.96281346  0.60475555  0.61556195  1
  Fe  Fe99  1  0.58365554  0.74867190  0.04807858  1
  Fe  Fe100  1  0.52180596  1.00651411  0.52929707  1
  Fe  Fe101  1  0.19783315  0.99466116  0.54084398  1
  Bi  Bi102  1  0.51486525  0.08559767  0.02233297  1
  Bi  Bi103  1  -0.05641891  0.80196318  0.67072108  1
  Bi  Bi104  1  0.69867275  0.18424690  0.28331969  1
  Bi  Bi105  1  0.25315360  0.59564878  0.61647281  1
  Bi  Bi106  1  -0.06865574  0.43581077  0.59739963  1
  Bi  Bi107  1  0.58868782  0.16183131  0.54610241  1
  Bi  Bi108  1  0.59069660  -0.02317286  0.83216404  1
  Bi  Bi109  1  0.82498722  0.37988216  0.07615702  1
  Bi  Bi110  1  0.81105806  0.77096794  -0.06772404  1
  Bi  Bi111  1  0.04155856  -0.01691861  0.47622364  1
  Bi  Bi112  1  0.27411643  -0.02834815  0.68560347  1
  Bi  Bi113  1  0.25387815  0.73226551  -0.09544588  1
  Bi  Bi114  1  0.36753136  -0.03660580  0.45056353  1
  Bi  Bi115  1  0.05742270  0.66428847  0.07760260  1
  Bi  Bi116  1  0.10517246  0.59658533  0.83110693  1
  Bi  Bi117  1  0.09228388  0.34265450  0.13886771  1
  Bi  Bi118  1  0.61496548  0.61389126  0.14972357  1
  Bi  Bi119  1  0.11228404  0.36280870  0.82352577  1
  Bi  Bi120  1  0.35208409  0.68580289  0.17356484  1
  Bi  Bi121  1  0.60391424  0.44018470  0.45855931  1
  Bi  Bi122  1  0.36194285  0.41104671  0.28527729  1
  Bi  Bi123  1  0.38773656  0.33687488  0.70514338  1
  Bi  Bi124  1  0.15055169  0.15725052  0.58916978  1
  Bi  Bi125  1  0.93395631  0.37345985  0.35426037  1
  Bi  Bi126  1  0.88549107  1.08288996  0.84689659  1
  Bi  Bi127  1  0.83361393  0.41518986  0.80277374  1
