# generated using pymatgen
data_Ba51Fe51Bi26
_symmetry_space_group_name_H-M   'P 1'
_cell_length_a   16.64891591
_cell_length_b   16.58815677
_cell_length_c   15.77479535
_cell_angle_alpha   87.19888772
_cell_angle_beta   90.69110664
_cell_angle_gamma   93.17348490
_symmetry_Int_Tables_number   1
_chemical_formula_structural   Ba51Fe51Bi26
_chemical_formula_sum   'Ba51 Fe51 Bi26'
_cell_volume   4344.53193332
_cell_formula_units_Z   1
loop_
 _symmetry_equiv_pos_site_id
 _symmetry_equiv_pos_as_xyz
  1  'x, y, z'
loop_
 _atom_site_type_symbol
 _atom_site_label
 _atom_site_symmetry_multiplicity
 _atom_site_fract_x
 _atom_site_fract_y
 _atom_site_fract_z
 _atom_site_occupancy
  Ba  Ba0  1  0.41030586  0.12965816  0.00969252  1
  Ba  Ba1  1  0.76501318  0.26652166  0.03267452  1
  Ba  Ba2  1  0.06562158  0.52371120  0.18615221  1
  Ba  Ba3  1  0.03324585  0.09150232  0.20108451  1
  Ba  Ba4  1  0.41651739  0.21618243  0.25159866  1
  Ba  Ba5  1  0.18805926  0.73435416  0.53100313  1
  Ba  Ba6  1  0.23605874  0.33838028  -0.09858264  1
  Ba  Ba7  1  0.08158575  0.19420394  0.41224694  1
  Ba  Ba8  1  0.51309660  0.49038303  0.83304164  1
  Ba  Ba9  1  -0.05124066  0.71935269  0.19506260  1
  Ba  Ba10  1  0.48467006  0.26432564  0.74029541  1
  Ba  Ba11  1  0.39794849  0.41631744  0.06000774  1
  Ba  Ba12  1  -0.04819096  0.32329363  0.24727176  1
  Ba  Ba13  1  0.79745735  0.53728888  0.82062781  1
  Ba  Ba14  1  -0.06522746  -0.07954377  0.35715120  1
  Ba  Ba15  1  0.19660384  0.28682488  0.66766005  1
  Ba  Ba16  1  0.74766757  0.32302605  0.73221552  1
  Ba  Ba17  1  0.22621347  0.72366882  0.25667159  1
  Ba  Ba18  1  0.70045626  -0.01678036  0.26624862  1
  Ba  Ba19  1  0.42851480  0.85166381  0.49213065  1
  Ba  Ba20  1  0.33223723  0.81361303  -0.00218504  1
  Ba  Ba21  1  0.46964564  0.63790495  0.21426170  1
  Ba  Ba22  1  -0.07774974  0.69124589  0.50167721  1
  Ba  Ba23  1  0.80964469  0.50947406  0.07877005  1
  Ba  Ba24  1  0.65746181  0.70073652  -0.02735454  1
  Ba  Ba25  1  -0.00524633  0.08327698  0.64686403  1
  Ba  Ba26  1  -0.09979610  0.46502152  0.43068260  1
  Ba  Ba27  1  0.20467362  -0.02215711  0.39175185  1
  Ba  Ba28  1  0.01867152  0.32017911  0.00091411  1
  Ba  Ba29  1  0.44307300  0.62759896  0.64311403  1
  Ba  Ba30  1  0.60358061  0.37996848  0.17546916  1
  Ba  Ba31  1  0.85749986  0.24868405  0.53495092  1
  Ba  Ba32  1  0.49994977  0.47045061  0.46148482  1
  Ba  Ba33  1  0.23815163  0.47595929  0.42745200  1
  Ba  Ba34  1  0.45053978  -0.02507431  0.22322246  1
  Ba  Ba35  1  -0.13618620  0.75794989  0.75273196  1
  Ba  Ba36  1  0.18207778  0.07327774  -0.01363747  1
  Ba  Ba37  1  0.63447309  0.73052523  0.50268072  1
  Ba  Ba38  1  0.50972996  -0.16698712  0.82674242  1
  Ba  Ba39  1  0.74586202  0.22459187  0.30412795  1
  Ba  Ba40  1  0.03026365  0.54728643  -0.08712630  1
  Ba  Ba41  1  0.12385570  0.77173676  0.77132591  1
  Ba  Ba42  1  0.35835854  0.24411469  0.49031148  1
  Ba  Ba43  1  0.37657682  0.01309045  0.66566444  1
  Ba  Ba44  1  0.71368655  0.51389612  0.57874151  1
  Ba  Ba45  1  0.02985712  0.86016153  -0.02918756  1
  Ba  Ba46  1  0.70404195  0.72802656  0.23230131  1
  Ba  Ba47  1  -0.05437859  0.09017723  -0.02694462  1
  Ba  Ba48  1  0.67152786  0.10284839  0.67306559  1
  Ba  Ba49  1  0.22008228  0.55013358  0.71611670  1
  Ba  Ba50  1  0.80558153  -0.06714174  0.58117137  1
  Fe  Fe51  1  0.63306462  0.57442090  0.36138587  1
  Fe  Fe52  1  0.65164831  0.98094446  0.91913076  1
  Fe  Fe53  1  0.78153268  0.42237069  0.26244274  1
  Fe  Fe54  1  -0.06405316  0.91745764  0.13446271  1
  Fe  Fe55  1  0.21207546  0.62518623  0.90966473  1
  Fe  Fe56  1  0.60202159  0.28730351  0.56539322  1
  Fe  Fe57  1  0.69077149  0.53502242  0.24757579  1
  Fe  Fe58  1  0.84172207  0.85621494  0.02139458  1
  Fe  Fe59  1  0.70665860  0.44892386  0.37472073  1
  Fe  Fe60  1  0.81577906  0.86904132  0.16216567  1
  Fe  Fe61  1  0.15664729  0.96292332  0.67342121  1
  Fe  Fe62  1  0.21608203  0.22713834  0.27418284  1
  Fe  Fe63  1  0.75034635  0.85531064  0.89542249  1
  Fe  Fe64  1  0.27347723  0.34821537  0.22449390  1
  Fe  Fe65  1  0.70658675  0.90559371  0.04794339  1
  Fe  Fe66  1  0.82305093  0.54876080  0.27292779  1
  Fe  Fe67  1  0.84939644  0.09205344  0.41952580  1
  Fe  Fe68  1  0.58859627  1.03320303  0.49983017  1
  Fe  Fe69  1  0.72384940  1.06891598  0.44659575  1
  Fe  Fe70  1  0.04852375  0.35201251  0.80590169  1
  Fe  Fe71  1  0.92063357  0.25658731  0.81200392  1
  Fe  Fe72  1  0.98032830  0.30567638  0.68472530  1
  Fe  Fe73  1  0.18749756  0.38788822  0.10804367  1
  Fe  Fe74  1  0.72622431  0.95406761  0.79029176  1
  Fe  Fe75  1  0.29491430  0.61749631  0.03361197  1
  Fe  Fe76  1  0.92952212  0.40556724  0.78480887  1
  Fe  Fe77  1  0.67004697  0.18929079  0.48827461  1
  Fe  Fe78  1  0.72543515  0.06829360  0.02770327  1
  Fe  Fe79  1  0.82350833  -0.00793131  0.09773946  1
  Fe  Fe80  1  0.60999830  -0.00003383  0.08475172  1
  Fe  Fe81  1  0.14934566  0.36103834  0.26490889  1
  Fe  Fe82  1  0.53186140  0.16110746  0.52255685  1
  Fe  Fe83  1  0.05093418  0.52455463  0.56224664  1
  Fe  Fe84  1  0.68873616  0.83157885  0.75430938  1
  Fe  Fe85  1  0.56294623  0.25510552  -0.00017661  1
  Fe  Fe86  1  0.20551131  0.50940685  0.02014293  1
  Fe  Fe87  1  1.05667376  0.44405299  0.69029056  1
  Fe  Fe88  1  0.33418935  0.66569472  0.86149445  1
  Fe  Fe89  1  0.12523170  0.26752430  0.16916972  1
  Fe  Fe90  1  0.62553539  0.21294874  0.87179643  1
  Fe  Fe91  1  0.31460655  0.53303093  0.91079806  1
  Fe  Fe92  1  0.58495435  0.11507760  0.38365051  1
  Fe  Fe93  1  0.52376818  0.96610283  -0.01533030  1
  Fe  Fe94  1  0.24697989  0.24999436  0.11778523  1
  Fe  Fe95  1  0.61875142  0.34143386  0.91378568  1
  Fe  Fe96  1  0.75844900  0.59282677  0.38538672  1
  Fe  Fe97  1  0.69710654  0.34149727  0.48425732  1
  Fe  Fe98  1  0.60081182  0.11111471  0.97597406  1
  Fe  Fe99  1  0.17759383  0.06844263  0.74925672  1
  Fe  Fe100  1  0.79713251  0.98076778  0.93729330  1
  Fe  Fe101  1  0.93145375  0.44368906  0.63497072  1
  Bi  Bi102  1  0.27563724  0.51682090  0.19646890  1
  Bi  Bi103  1  0.25554070  0.08859022  0.19530910  1
  Bi  Bi104  1  0.45385306  0.62696415  0.98113720  1
  Bi  Bi105  1  0.89185580  0.95558686  0.80241464  1
  Bi  Bi106  1  0.56344883  0.29296218  0.38796332  1
  Bi  Bi107  1  0.59499866  -0.09602471  0.62433465  1
  Bi  Bi108  1  0.07205813  0.18727024  0.82472054  1
  Bi  Bi109  1  0.14108529  0.68822393  0.04734464  1
  Bi  Bi110  1  0.54996449  -0.16402755  0.10445069  1
  Bi  Bi111  1  0.59853113  0.15423611  0.14986538  1
  Bi  Bi112  1  0.30676492  0.15963965  0.81456111  1
  Bi  Bi113  1  -0.01049628  0.59991990  0.69887909  1
  Bi  Bi114  1  0.77300892  0.13933633  -0.13715081  1
  Bi  Bi115  1  0.07507256  0.60665442  0.39537056  1
  Bi  Bi116  1  0.37167935  0.42022125  0.64205311  1
  Bi  Bi117  1  0.52150822  0.06183834  0.83218892  1
  Bi  Bi118  1  0.64427815  0.66422767  0.73508201  1
  Bi  Bi119  1  0.32733561  0.77156489  0.71431787  1
  Bi  Bi120  1  0.08776366  0.89068397  0.20194102  1
  Bi  Bi121  1  0.23781180  0.93704767  0.83743016  1
  Bi  Bi122  1  0.05403526  0.36264103  0.52761129  1
  Bi  Bi123  1  0.38629872  0.65635772  0.42318280  1
  Bi  Bi124  1  0.42521592  0.05578630  0.42710627  1
  Bi  Bi125  1  0.19977501  0.09946994  0.56925243  1
  Bi  Bi126  1  0.03216288  0.87829561  0.57172017  1
  Bi  Bi127  1  0.87022891  0.69590257  0.97392605  1
