# generated using pymatgen
data_Ba51Fe51Bi26
_symmetry_space_group_name_H-M   'P 1'
_cell_length_a   16.38226924
_cell_length_b   15.92956377
_cell_length_c   17.04544837
_cell_angle_alpha   92.42484087
_cell_angle_beta   90.93976314
_cell_angle_gamma   87.89126146
_symmetry_Int_Tables_number   1
_chemical_formula_structural   Ba51Fe51Bi26
_chemical_formula_sum   'Ba51 Fe51 Bi26'
_cell_volume   4440.73757328
_cell_formula_units_Z   1
loop_
 _symmetry_equiv_pos_site_id
 _symmetry_equiv_pos_as_xyz
  1  'x, y, z'
loop_
 _atom_site_type_symbol
 _atom_site_label
 _atom_site_symmetry_multiplicity
 _atom_site_fract_x
 _atom_site_fract_y
 _atom_site_fract_z
 _atom_site_occupancy
  Ba  Ba0  1  0.23582694  0.23146042  0.24180445  1
  Ba  Ba1  1  0.73231799  0.27705374  0.69584548  1
  Ba  Ba2  1  -0.05237800  0.19289811  0.54399650  1
  Ba  Ba3  1  0.20485874  0.51863691  0.26970044  1
  Ba  Ba4  1  -0.01609990  0.76492552  0.24741467  1
  Ba  Ba5  1  0.51448022  0.31663489  0.51117603  1
  Ba  Ba6  1  0.70710738  -0.02688329  0.33764288  1
  Ba  Ba7  1  0.07398405  0.41032032  0.00957387  1
  Ba  Ba8  1  0.62203048  0.78216170  -0.01751878  1
  Ba  Ba9  1  -0.01386167  0.03836637  0.35138569  1
  Ba  Ba10  1  0.82391531  0.01304168  -0.03053241  1
  Ba  Ba11  1  -0.14373570  0.51210470  0.13451183  1
  Ba  Ba12  1  0.08438503  0.76289214  0.48520537  1
  Ba  Ba13  1  0.02945724  0.65484090  -0.11906594  1
  Ba  Ba14  1  0.46561441  0.56891180  0.83496490  1
  Ba  Ba15  1  0.18187610  0.00468901  0.55036643  1
  Ba  Ba16  1  0.47235253  0.28613920  0.79416751  1
  Ba  Ba17  1  0.29779023  -0.09538014  0.73143818  1
  Ba  Ba18  1  0.47133278  -0.10872313  0.17436715  1
  Ba  Ba19  1  0.04764604  0.19943784  0.76564604  1
  Ba  Ba20  1  0.12451776  0.15120139  -0.00448419  1
  Ba  Ba21  1  0.46703624  0.62479440  0.23898180  1
  Ba  Ba22  1  0.32619044  -0.05309262  -0.02605881  1
  Ba  Ba23  1  0.22716616  0.76347380  0.10468108  1
  Ba  Ba24  1  0.21348047  0.50705156  0.53943109  1
  Ba  Ba25  1  0.62469996  -0.06151819  0.54374427  1
  Ba  Ba26  1  0.77624050  0.29030720  -0.03442088  1
  Ba  Ba27  1  0.03040728  -0.10760508  0.04690473  1
  Ba  Ba28  1  0.49611968  0.22308697  0.24743013  1
  Ba  Ba29  1  0.81113567  0.31658161  0.35113742  1
  Ba  Ba30  1  0.34552287  0.78010542  0.45522453  1
  Ba  Ba31  1  0.73166091  0.54673826  0.65415828  1
  Ba  Ba32  1  0.84357233  0.77878899  0.46644865  1
  Ba  Ba33  1  0.72849508  0.54787990  0.40760386  1
  Ba  Ba34  1  0.36654944  0.26096652  0.01133019  1
  Ba  Ba35  1  0.74528084  0.14741803  0.18857963  1
  Ba  Ba36  1  0.05676873  -0.08499222  0.75696720  1
  Ba  Ba37  1  0.25277162  0.26100939  0.60008724  1
  Ba  Ba38  1  -0.04791445  0.53281162  0.52957435  1
  Ba  Ba39  1  0.05913688  0.35111498  0.38346702  1
  Ba  Ba40  1  0.52169723  0.55904799  0.54660972  1
  Ba  Ba41  1  -0.06307605  0.46163577  0.75022482  1
  Ba  Ba42  1  0.27707720  0.65448249  0.72310761  1
  Ba  Ba43  1  0.81151721  0.00471896  0.70735458  1
  Ba  Ba44  1  0.50468321  0.02606250  0.73878478  1
  Ba  Ba45  1  0.77650117  0.57046536  -0.06753814  1
  Ba  Ba46  1  0.63367070  0.41669883  0.21448211  1
  Ba  Ba47  1  0.30911467  0.51955243  0.04565603  1
  Ba  Ba48  1  0.38042797  0.04640979  0.37627915  1
  Ba  Ba49  1  0.56011989  0.06416894  0.00283605  1
  Ba  Ba50  1  0.71640160  0.74676416  0.25439626  1
  Fe  Fe51  1  0.27891504  0.66563279  0.92313895  1
  Fe  Fe52  1  0.79805610  0.13244653  0.42561914  1
  Fe  Fe53  1  0.92040956  0.47271846  0.31809733  1
  Fe  Fe54  1  0.35392051  0.76252612  0.89017939  1
  Fe  Fe55  1  0.47339617  0.85156120  0.63047644  1
  Fe  Fe56  1  0.89812805  0.67492641  0.67997674  1
  Fe  Fe57  1  0.01274548  0.52328104  0.24025581  1
  Fe  Fe58  1  0.52945859  0.76357467  0.52124730  1
  Fe  Fe59  1  0.74399746  0.25352899  0.50966773  1
  Fe  Fe60  1  0.82325692  0.37487480  0.54826228  1
  Fe  Fe61  1  0.44341024  0.72506943  0.63630023  1
  Fe  Fe62  1  0.09822995  0.38403357  0.66323864  1
  Fe  Fe63  1  0.95498828  0.22165181  0.24242171  1
  Fe  Fe64  1  0.05523018  0.25059312  0.16691893  1
  Fe  Fe65  1  0.83530739  0.83148291  0.10044877  1
  Fe  Fe66  1  0.93961979  0.15169141  0.12490050  1
  Fe  Fe67  1  0.34033364  0.14082317  0.72518500  1
  Fe  Fe68  1  0.36935433  0.38375610  0.36759315  1
  Fe  Fe69  1  0.75685970  0.80478720  0.81471593  1
  Fe  Fe70  1  0.24978721  0.98258804  0.19674456  1
  Fe  Fe71  1  0.17516885  0.90480714  0.36845339  1
  Fe  Fe72  1  0.82100420  0.67928189  0.78870704  1
  Fe  Fe73  1  0.19309547  0.02818730  0.31573206  1
  Fe  Fe74  1  0.89483618  0.80300258  0.77219149  1
  Fe  Fe75  1  0.32514878  0.09613441  0.84235058  1
  Fe  Fe76  1  0.19774887  0.05337626  0.84449734  1
  Fe  Fe77  1  0.28287435  0.88964364  0.28844528  1
  Fe  Fe78  1  0.62985417  0.45109248  0.01253131  1
  Fe  Fe79  1  0.48226560  0.43784415  0.34792994  1
  Fe  Fe80  1  0.23601196  0.42080044  0.72879340  1
  Fe  Fe81  1  0.82197843  1.02737328  0.50165451  1
  Fe  Fe82  1  0.62456263  0.73138783  0.42829906  1
  Fe  Fe83  1  0.72332720  0.11632033  0.54047003  1
  Fe  Fe84  1  0.12213394  0.50992595  0.71703956  1
  Fe  Fe85  1  0.66496856  0.70433621  0.54428731  1
  Fe  Fe86  1  0.90004367  0.60896906  0.32184775  1
  Fe  Fe87  1  -0.06158877  0.79776613  0.64357174  1
  Fe  Fe88  1  0.78999892  0.70529533  0.08029392  1
  Fe  Fe89  1  0.49352307  0.43379079  0.08064235  1
  Fe  Fe90  1  0.51494012  0.40752106  0.95291473  1
  Fe  Fe91  1  0.70012325  0.39453342  0.52097436  1
  Fe  Fe92  1  0.52052969  0.55273134  0.02361524  1
  Fe  Fe93  1  0.58504909  0.74523706  0.65735253  1
  Fe  Fe94  1  0.21705720  0.09910779  0.72961279  1
  Fe  Fe95  1  0.86286091  0.29519396  1.16594615  1
  Fe  Fe96  1  0.12358730  0.38101253  0.79340850  1
  Fe  Fe97  1  -0.02249097  0.37252525  0.20963279  1
  Fe  Fe98  1  0.13816284  0.90362991  0.23772847  1
  Fe  Fe99  1  0.92154954  0.70714504  0.06975306  1
  Fe  Fe100  1  0.02461551  0.57872860  0.36319013  1
  Fe  Fe101  1  0.95496766  0.28256770  1.08016804  1
  Bi  Bi102  1  0.58373781  0.27854015  0.05709441  1
  Bi  Bi103  1  -0.03077749  -0.05044382  0.55921996  1
  Bi  Bi104  1  0.42035851  0.70575455  0.03033845  1
  Bi  Bi105  1  0.24487238  0.25344296  0.82885345  1
  Bi  Bi106  1  0.20330891  0.51810378  0.86911901  1
  Bi  Bi107  1  0.76109249  0.79314670  0.65130261  1
  Bi  Bi108  1  0.52488534  0.85331110  0.36776091  1
  Bi  Bi109  1  0.06551288  0.66827173  0.66806303  1
  Bi  Bi110  1  0.38789057  0.40387790  0.20308350  1
  Bi  Bi111  1  0.86313796  0.79040616  -0.06000747  1
  Bi  Bi112  1  0.08963151  0.06952251  0.17752483  1
  Bi  Bi113  1  0.19371208  0.74209771  0.30578480  1
  Bi  Bi114  1  0.47445055  0.80299026  0.78995596  1
  Bi  Bi115  1  0.16286346  0.16205303  0.42363829  1
  Bi  Bi116  1  0.66657143  0.14331025  0.83690003  1
  Bi  Bi117  1  0.65596716  0.60233058  0.11027764  1
  Bi  Bi118  1  0.38589922  0.43575549  0.65819295  1
  Bi  Bi119  1  0.06413031  0.61104470  0.10414827  1
  Bi  Bi120  1  0.18346649  0.80844752  0.89221417  1
  Bi  Bi121  1  0.69685993  -0.06483241  0.12899081  1
  Bi  Bi122  1  0.36706097  0.55566853  0.40890574  1
  Bi  Bi123  1  0.63195396  0.17021223  0.40047356  1
  Bi  Bi124  1  0.64392624  0.42100145  0.84269427  1
  Bi  Bi125  1  0.64845698  0.67614128  0.79729079  1
  Bi  Bi126  1  0.36797871  0.08508708  0.13694914  1
  Bi  Bi127  1  0.66386532  0.94428409  0.84873654  1
