# generated using pymatgen
data_Ba51Fe51Bi26
_symmetry_space_group_name_H-M   'P 1'
_cell_length_a   15.98709404
_cell_length_b   16.69211287
_cell_length_c   16.38384676
_cell_angle_alpha   88.61406383
_cell_angle_beta   88.14760074
_cell_angle_gamma   88.33377467
_symmetry_Int_Tables_number   1
_chemical_formula_structural   Ba51Fe51Bi26
_chemical_formula_sum   'Ba51 Fe51 Bi26'
_cell_volume   4366.85157381
_cell_formula_units_Z   1
loop_
 _symmetry_equiv_pos_site_id
 _symmetry_equiv_pos_as_xyz
  1  'x, y, z'
loop_
 _atom_site_type_symbol
 _atom_site_label
 _atom_site_symmetry_multiplicity
 _atom_site_fract_x
 _atom_site_fract_y
 _atom_site_fract_z
 _atom_site_occupancy
  Ba  Ba0  1  0.27103867  0.75043712  -0.01235670  1
  Ba  Ba1  1  0.83329126  -0.09143203  0.00845725  1
  Ba  Ba2  1  0.31273003  0.47513948  0.24896721  1
  Ba  Ba3  1  -0.10291649  0.21614178  -0.03557187  1
  Ba  Ba4  1  0.73203950  0.64115560  0.65181382  1
  Ba  Ba5  1  0.04972409  -0.09085424  0.59627176  1
  Ba  Ba6  1  0.51832948  0.30969052  0.60170953  1
  Ba  Ba7  1  0.27524197  0.90348933  0.47903594  1
  Ba  Ba8  1  0.78971178  -0.11856083  0.70099980  1
  Ba  Ba9  1  0.82055063  -0.01650163  0.44383033  1
  Ba  Ba10  1  0.50516468  0.28922879  0.28194642  1
  Ba  Ba11  1  0.04765455  0.78150042  0.37753789  1
  Ba  Ba12  1  0.76127212  0.44237914  0.30938289  1
  Ba  Ba13  1  0.30556688  0.01851428  0.05797560  1
  Ba  Ba14  1  0.03984995  0.68714354  0.67446918  1
  Ba  Ba15  1  0.47347879  0.49661001  0.47729985  1
  Ba  Ba16  1  0.57935161  0.60191624  0.23791666  1
  Ba  Ba17  1  0.22771851  0.12587620  0.35418150  1
  Ba  Ba18  1  0.02169271  0.65804530  -0.03151547  1
  Ba  Ba19  1  0.51997695  0.75965859  0.39328820  1
  Ba  Ba20  1  0.16189738  0.51813150  0.47366388  1
  Ba  Ba21  1  0.10854268  -0.07010478  -0.07229358  1
  Ba  Ba22  1  0.35972152  0.13329446  0.56121278  1
  Ba  Ba23  1  0.88494365  0.57509194  0.47880842  1
  Ba  Ba24  1  0.65529958  -0.06447375  0.19858725  1
  Ba  Ba25  1  0.73002117  0.20801639  0.17664271  1
  Ba  Ba26  1  0.23857379  0.48226856  -0.00536684  1
  Ba  Ba27  1  -0.02155047  0.04545678  0.76588703  1
  Ba  Ba28  1  0.71726455  0.44105379  0.80302191  1
  Ba  Ba29  1  0.47871203  0.33555293  0.00213972  1
  Ba  Ba30  1  -0.06881629  0.17048022  0.52474957  1
  Ba  Ba31  1  0.58153814  0.56352217  -0.01087265  1
  Ba  Ba32  1  0.00791606  0.78224367  0.15837174  1
  Ba  Ba33  1  0.31855039  0.76547622  0.73035959  1
  Ba  Ba34  1  0.52162323  0.11473201  0.08019819  1
  Ba  Ba35  1  0.40374454  0.54017571  0.78248468  1
  Ba  Ba36  1  0.03537128  0.03331300  0.16762479  1
  Ba  Ba37  1  0.27637217  0.28540554  0.77604551  1
  Ba  Ba38  1  0.14464838  0.30749596  0.58038927  1
  Ba  Ba39  1  0.15662824  0.23331651  -0.02364036  1
  Ba  Ba40  1  0.48396137  0.81589269  0.08846021  1
  Ba  Ba41  1  -0.00681039  0.23351831  0.27152531  1
  Ba  Ba42  1  0.77034823  0.19751402  0.75460112  1
  Ba  Ba43  1  0.57513045  0.05772533  0.40808597  1
  Ba  Ba44  1  0.72740442  0.73380206  -0.10936916  1
  Ba  Ba45  1  0.28627438  0.76176982  0.24354738  1
  Ba  Ba46  1  0.81854019  0.55847103  0.08595425  1
  Ba  Ba47  1  0.55387453  0.08610080  0.73346509  1
  Ba  Ba48  1  -0.09126192  0.37655328  0.64249352  1
  Ba  Ba49  1  0.03290756  0.47456519  0.21664272  1
  Ba  Ba50  1  0.56201043  0.84646359  0.72652665  1
  Fe  Fe51  1  0.65523299  0.07174349  0.90075628  1
  Fe  Fe52  1  0.73766774  0.36928636  1.01715163  1
  Fe  Fe53  1  0.79727252  0.26478767  0.40589911  1
  Fe  Fe54  1  0.28799834  0.93425626  0.83368890  1
  Fe  Fe55  1  0.71831901  0.32838990  0.59792474  1
  Fe  Fe56  1  0.77253234  0.05173277  0.62727170  1
  Fe  Fe57  1  0.90236389  0.64501327  0.81198205  1
  Fe  Fe58  1  0.06316904  0.48329847  0.69450499  1
  Fe  Fe59  1  0.83992851  0.78803801  0.36918386  1
  Fe  Fe60  1  0.46962866  0.83516476  0.55915822  1
  Fe  Fe61  1  0.20622242  0.99819661  0.73365322  1
  Fe  Fe62  1  0.09279772  0.39326493  0.82002636  1
  Fe  Fe63  1  0.03855782  0.53449175  0.82389545  1
  Fe  Fe64  1  0.67635145  0.22785387  0.38036143  1
  Fe  Fe65  1  0.40162716  1.00591427  0.84174907  1
  Fe  Fe66  1  0.63402176  -0.04319708  0.00545659  1
  Fe  Fe67  1  0.17387645  0.89376855  0.14863996  1
  Fe  Fe68  1  0.31793526  0.08739349  0.75624871  1
  Fe  Fe69  1  0.77511615  0.77692715  0.24201669  1
  Fe  Fe70  1  0.18832402  0.47579372  0.76090555  1
  Fe  Fe71  1  0.16395050  0.12375953  0.76854109  1
  Fe  Fe72  1  0.33267197  0.60542611  0.58886314  1
  Fe  Fe73  1  0.18139973  0.31993586  0.17914860  1
  Fe  Fe74  1  0.62646216  0.87232769  0.50948345  1
  Fe  Fe75  1  0.57251459  0.63773211  0.77620292  1
  Fe  Fe76  1  0.41248938  0.88739153  -0.09200290  1
  Fe  Fe77  1  0.66852086  -0.05703074  0.87410004  1
  Fe  Fe78  1  0.94584225  0.41260604  0.82424653  1
  Fe  Fe79  1  0.51782308  0.95753925  0.56234174  1
  Fe  Fe80  1  0.52053074  1.00273572  0.92358412  1
  Fe  Fe81  1  0.79464949  0.36852196  0.49101666  1
  Fe  Fe82  1  0.68658197  0.45038854  0.55430763  1
  Fe  Fe83  1  0.16715564  0.92565907  0.27022319  1
  Fe  Fe84  1  0.65974632  0.33531913  0.45746571  1
  Fe  Fe85  1  0.91710021  0.53755767  0.73859544  1
  Fe  Fe86  1  0.20428749  0.57417577  0.66033353  1
  Fe  Fe87  1  0.72347474  0.76064806  0.47592517  1
  Fe  Fe88  1  0.71160751  0.06611618  0.01509956  1
  Fe  Fe89  1  0.85305084  0.40696376  0.95197203  1
  Fe  Fe90  1  0.29531345  0.28052258  0.25677416  1
  Fe  Fe91  1  0.72813306  0.69869952  0.34410345  1
  Fe  Fe92  1  0.66257108  -0.00479652  0.58335395  1
  Fe  Fe93  1  0.24557099  0.06687811  0.87419005  1
  Fe  Fe94  1  0.23093261  0.69217149  0.55779987  1
  Fe  Fe95  1  0.70267894  0.84785110  0.36873035  1
  Fe  Fe96  1  0.88742875  0.53377725  0.88857310  1
  Fe  Fe97  1  0.29905475  0.30549532  0.10456339  1
  Fe  Fe98  1  0.55479030  0.87193637  -0.08406833  1
  Fe  Fe99  1  0.21115052  0.19015751  0.16485742  1
  Fe  Fe100  1  0.35017111  0.19702402  0.16513784  1
  Fe  Fe101  1  0.37096025  0.73466457  0.53792562  1
  Bi  Bi102  1  0.03077944  0.24646894  0.78139975  1
  Bi  Bi103  1  0.16164496  0.34172333  0.34702302  1
  Bi  Bi104  1  0.19198438  0.62370713  0.82973181  1
  Bi  Bi105  1  0.50187879  0.66523603  0.62366299  1
  Bi  Bi106  1  0.86403013  0.91594378  0.24532107  1
  Bi  Bi107  1  0.32652702  0.64197946  0.41037714  1
  Bi  Bi108  1  0.67212017  0.22946760  -0.04940418  1
  Bi  Bi109  1  0.37913066  -0.04590419  0.66810480  1
  Bi  Bi110  1  0.68968590  0.17062268  0.54424168  1
  Bi  Bi111  1  0.39455090  0.15569707  -0.09611540  1
  Bi  Bi112  1  0.02406437  0.43407118  -0.02193031  1
  Bi  Bi113  1  0.88513596  0.78125411  0.53615571  1
  Bi  Bi114  1  -0.05097597  -0.18198302  0.82966741  1
  Bi  Bi115  1  0.31167398  0.43893042  0.62566183  1
  Bi  Bi116  1  0.05498662  -0.00052867  0.38643836  1
  Bi  Bi117  1  0.66375250  0.59206572  0.45482531  1
  Bi  Bi118  1  0.88762384  0.64232263  0.27570797  1
  Bi  Bi119  1  0.39786882  0.61450652  0.10810715  1
  Bi  Bi120  1  0.16474958  0.62463738  0.14256589  1
  Bi  Bi121  1  0.62265776  0.41170358  0.14151058  1
  Bi  Bi122  1  0.47804551  0.72594173  0.88770317  1
  Bi  Bi123  1  0.35194821  0.30594994  0.42977773  1
  Bi  Bi124  1  -0.04806159  0.37464975  0.42468195  1
  Bi  Bi125  1  0.87348086  0.35343787  0.12557253  1
  Bi  Bi126  1  0.14649732  0.09240609  0.59856226  1
  Bi  Bi127  1  0.69181231  0.73901764  0.10320029  1
