# generated using pymatgen
data_Ba51Fe51Bi26
_symmetry_space_group_name_H-M   'P 1'
_cell_length_a   16.46236052
_cell_length_b   16.13009996
_cell_length_c   16.32114480
_cell_angle_alpha   90.12760497
_cell_angle_beta   87.02408192
_cell_angle_gamma   91.10554556
_symmetry_Int_Tables_number   1
_chemical_formula_structural   Ba51Fe51Bi26
_chemical_formula_sum   'Ba51 Fe51 Bi26'
_cell_volume   4327.25551665
_cell_formula_units_Z   1
loop_
 _symmetry_equiv_pos_site_id
 _symmetry_equiv_pos_as_xyz
  1  'x, y, z'
loop_
 _atom_site_type_symbol
 _atom_site_label
 _atom_site_symmetry_multiplicity
 _atom_site_fract_x
 _atom_site_fract_y
 _atom_site_fract_z
 _atom_site_occupancy
  Ba  Ba0  1  -0.08918555  0.78615624  0.76916323  1
  Ba  Ba1  1  0.23394357  -0.01169734  0.08666772  1
  Ba  Ba2  1  0.78398221  0.75916761  -0.00930369  1
  Ba  Ba3  1  0.43873076  0.59462843  -0.02839761  1
  Ba  Ba4  1  0.69915442  0.44166167  -0.17483010  1
  Ba  Ba5  1  -0.08064075  0.04035307  0.06313551  1
  Ba  Ba6  1  0.58265413  0.75041714  0.47524947  1
  Ba  Ba7  1  0.20693042  0.44846158  0.86057967  1
  Ba  Ba8  1  0.51552203  0.09831619  0.31649728  1
  Ba  Ba9  1  0.54833185  0.52102601  0.67461103  1
  Ba  Ba10  1  0.81514180  -0.00471424  -0.14698496  1
  Ba  Ba11  1  0.17878310  0.37137779  0.38664690  1
  Ba  Ba12  1  -0.04816335  0.44054254  0.73104834  1
  Ba  Ba13  1  0.30376398  -0.07319666  0.76432163  1
  Ba  Ba14  1  0.38752700  0.28235553  0.21853698  1
  Ba  Ba15  1  0.70556968  0.95603879  0.21181330  1
  Ba  Ba16  1  0.34502524  0.18087630  0.94347247  1
  Ba  Ba17  1  0.05676414  -0.02173784  0.25087563  1
  Ba  Ba18  1  0.75031399  0.48067569  0.08011688  1
  Ba  Ba19  1  0.57321789  0.85784727  0.02443222  1
  Ba  Ba20  1  0.20048564  0.56622050  0.63294201  1
  Ba  Ba21  1  0.85971250  0.17999372  0.64440917  1
  Ba  Ba22  1  0.45218278  0.47887269  0.45341708  1
  Ba  Ba23  1  0.27281848  0.27678398  0.61389617  1
  Ba  Ba24  1  0.09517806  0.12370909  0.47021560  1
  Ba  Ba25  1  0.35670451  0.76430728  0.13651043  1
  Ba  Ba26  1  0.72725371  0.24428364  0.18891077  1
  Ba  Ba27  1  -0.00529908  0.49600643  -0.00261712  1
  Ba  Ba28  1  0.41991329  0.00325754  0.52886908  1
  Ba  Ba29  1  -0.04728976  0.58896980  0.33278331  1
  Ba  Ba30  1  0.08269479  0.20354617  0.75162496  1
  Ba  Ba31  1  0.71163171  -0.07272220  0.62864376  1
  Ba  Ba32  1  0.47950344  0.76450320  0.74361470  1
  Ba  Ba33  1  -0.02884533  0.65332096  0.57682469  1
  Ba  Ba34  1  0.28163928  0.51630168  0.22219377  1
  Ba  Ba35  1  0.52117024  0.00983135  0.82817811  1
  Ba  Ba36  1  0.84873397  -0.04094443  0.44695802  1
  Ba  Ba37  1  -0.12026978  0.35381935  0.46885974  1
  Ba  Ba38  1  0.09251888  0.70890475  0.17254805  1
  Ba  Ba39  1  0.14169137  0.30227841  0.06742899  1
  Ba  Ba40  1  0.19799877  0.73974138  -0.10405778  1
  Ba  Ba41  1  0.70700526  0.52368606  0.42224318  1
  Ba  Ba42  1  0.47960940  0.26867503  0.75187385  1
  Ba  Ba43  1  0.68547179  0.19626811  -0.15438070  1
  Ba  Ba44  1  0.69889698  0.71280470  0.24516442  1
  Ba  Ba45  1  0.55048966  0.31561313  0.00469326  1
  Ba  Ba46  1  0.36005162  0.70893266  0.37521348  1
  Ba  Ba47  1  0.07303403  -0.02391518  0.81987352  1
  Ba  Ba48  1  0.50163177  0.23053515  0.51601136  1
  Ba  Ba49  1  -0.01361024  0.26602082  0.27258963  1
  Ba  Ba50  1  0.08099019  0.86587400  0.48506800  1
  Fe  Fe51  1  0.45605207  0.59934500  0.20273436  1
  Fe  Fe52  1  0.40159993  -0.03557400  0.18589349  1
  Fe  Fe53  1  0.24861712  0.88538484  0.58507597  1
  Fe  Fe54  1  0.40813939  0.43164970  0.84603881  1
  Fe  Fe55  1  0.41168011  0.10575321  1.12894219  1
  Fe  Fe56  1  0.55233012  0.14940824  0.12347210  1
  Fe  Fe57  1  0.85564822  0.28655287  0.82209608  1
  Fe  Fe58  1  0.93807082  0.82395285  0.10398999  1
  Fe  Fe59  1  0.95413917  0.86396639  0.95631399  1
  Fe  Fe60  1  0.71199702  0.61860689  0.60291418  1
  Fe  Fe61  1  0.71111552  0.10687446  0.35475852  1
  Fe  Fe62  1  0.65480574  0.31102122  0.64074280  1
  Fe  Fe63  1  0.36816878  0.81117032  0.55050045  1
  Fe  Fe64  1  0.80857688  0.16921668  0.42274047  1
  Fe  Fe65  1  0.62159835  0.49735867  0.25875847  1
  Fe  Fe66  1  0.57434778  0.56111281  0.14926903  1
  Fe  Fe67  1  0.57532276  0.40556262  0.17305471  1
  Fe  Fe68  1  0.29565330  0.75156301  0.65072322  1
  Fe  Fe69  1  0.36473142  0.93339685  0.32466950  1
  Fe  Fe70  1  0.65085693  0.35642663  0.51376326  1
  Fe  Fe71  1  -0.03811312  0.30607419  0.90213824  1
  Fe  Fe72  1  0.05959200  0.86124440  0.02449201  1
  Fe  Fe73  1  0.36320703  0.11689757  0.69651863  1
  Fe  Fe74  1  0.80888309  0.59699303  0.69194268  1
  Fe  Fe75  1  -0.01120225  0.18165563  0.94339481  1
  Fe  Fe76  1  0.72080768  0.23284415  0.53821165  1
  Fe  Fe77  1  0.28270528  0.88115372  0.44586396  1
  Fe  Fe78  1  0.22873896  0.75119667  0.53031250  1
  Fe  Fe79  1  0.71863349  0.66836957  0.76478068  1
  Fe  Fe80  1  0.53369960  1.01210087  0.13182744  1
  Fe  Fe81  1  0.46744655  0.46830984  0.12207859  1
  Fe  Fe82  1  0.67573020  0.10907323  0.48756203  1
  Fe  Fe83  1  0.78800992  0.73263628  0.62259100  1
  Fe  Fe84  1  0.92875243  0.81070731  0.34232981  1
  Fe  Fe85  1  0.84050074  0.19748758  -0.04188647  1
  Fe  Fe86  1  0.26186058  0.12445937  0.77706676  1
  Fe  Fe87  1  -0.01042874  0.73346960  0.97747094  1
  Fe  Fe88  1  0.42869835  -0.00334500  1.03707417  1
  Fe  Fe89  1  0.05845841  0.48463509  0.50290603  1
  Fe  Fe90  1  0.88645422  0.89937501  0.23209109  1
  Fe  Fe91  1  0.65575138  0.73209501  0.66831766  1
  Fe  Fe92  1  0.51977395  1.10095131  1.00537036  1
  Fe  Fe93  1  0.91244645  0.16490772  0.83877456  1
  Fe  Fe94  1  0.88596315  0.76681659  0.22852371  1
  Fe  Fe95  1  0.36685588  0.42882329  0.72624635  1
  Fe  Fe96  1  0.47550665  0.47079394  0.26151809  1
  Fe  Fe97  1  0.82265216  0.33480703  -0.05319778  1
  Fe  Fe98  1  0.25170648  0.00855795  0.36509646  1
  Fe  Fe99  1  0.69222448  0.24979722  0.40667518  1
  Fe  Fe100  1  0.32331475  1.07086780  0.25799895  1
  Fe  Fe101  1  0.53925110  0.59995127  0.30251991  1
  Bi  Bi102  1  0.62859963  0.13079707  0.65387701  1
  Bi  Bi103  1  0.76026031  0.44867641  0.61795832  1
  Bi  Bi104  1  0.66972708  0.82877336  0.81990616  1
  Bi  Bi105  1  0.51056911  -0.13883544  0.25882000  1
  Bi  Bi106  1  0.69108068  0.08150651  0.02903942  1
  Bi  Bi107  1  -0.10747641  0.64187278  0.12144129  1
  Bi  Bi108  1  0.21914987  -0.14633329  0.28706668  1
  Bi  Bi109  1  0.57640274  0.34361940  0.33541148  1
  Bi  Bi110  1  0.21127005  0.05415895  0.63086398  1
  Bi  Bi111  1  -0.08136883  0.29029320  0.07726181  1
  Bi  Bi112  1  0.35146067  0.39335553  0.01757174  1
  Bi  Bi113  1  0.80707428  0.72843480  0.44810484  1
  Bi  Bi114  1  0.13128872  0.79094474  0.68443355  1
  Bi  Bi115  1  0.07779064  0.46107499  0.20670102  1
  Bi  Bi116  1  0.63189425  0.95808621  0.42696318  1
  Bi  Bi117  1  0.94437449  -0.01660679  0.64652663  1
  Bi  Bi118  1  0.14589749  0.61907724  0.43262138  1
  Bi  Bi119  1  0.17962361  0.16278965  0.24352034  1
  Bi  Bi120  1  0.38366895  0.85693316  0.94204195  1
  Bi  Bi121  1  0.21309428  0.57538712  0.03809246  1
  Bi  Bi122  1  0.86593949  0.08548450  0.27244193  1
  Bi  Bi123  1  0.83965706  0.59271820  0.86053397  1
  Bi  Bi124  1  0.04351641  0.61948279  0.81886310  1
  Bi  Bi125  1  0.35405136  0.59167696  0.77468294  1
  Bi  Bi126  1  0.06316533  0.32638723  0.57262897  1
  Bi  Bi127  1  0.31689193  0.16975268  0.41140883  1
