# generated using pymatgen
data_Ba51Fe51Bi26
_symmetry_space_group_name_H-M   'P 1'
_cell_length_a   16.34357649
_cell_length_b   16.17061798
_cell_length_c   16.69052349
_cell_angle_alpha   89.41893111
_cell_angle_beta   90.69802615
_cell_angle_gamma   93.47458912
_symmetry_Int_Tables_number   1
_chemical_formula_structural   Ba51Fe51Bi26
_chemical_formula_sum   'Ba51 Fe51 Bi26'
_cell_volume   4402.43655471
_cell_formula_units_Z   1
loop_
 _symmetry_equiv_pos_site_id
 _symmetry_equiv_pos_as_xyz
  1  'x, y, z'
loop_
 _atom_site_type_symbol
 _atom_site_label
 _atom_site_symmetry_multiplicity
 _atom_site_fract_x
 _atom_site_fract_y
 _atom_site_fract_z
 _atom_site_occupancy
  Ba  Ba0  1  -0.01625750  0.24734453  0.30134371  1
  Ba  Ba1  1  0.67153857  -0.02723555  0.25265484  1
  Ba  Ba2  1  0.59437627  0.50475492  0.02147141  1
  Ba  Ba3  1  0.72377624  0.70842901  0.04963773  1
  Ba  Ba4  1  0.72502944  0.47790030  0.65148873  1
  Ba  Ba5  1  0.40166886  0.00145056  0.29521125  1
  Ba  Ba6  1  -0.06332122  0.50859315  0.77710982  1
  Ba  Ba7  1  0.57487556  0.12073305  0.54915621  1
  Ba  Ba8  1  -0.05114548  0.66687030  -0.01909692  1
  Ba  Ba9  1  0.63243234  0.27854530  0.07580873  1
  Ba  Ba10  1  0.64102879  -0.08427901  -0.01721576  1
  Ba  Ba11  1  0.03636406  -0.09224228  0.06001631  1
  Ba  Ba12  1  0.83670062  0.32910434  0.48969024  1
  Ba  Ba13  1  0.19769274  0.25813519  0.55616162  1
  Ba  Ba14  1  0.42804730  0.74815226  0.12927062  1
  Ba  Ba15  1  0.22235772  0.42097179  0.74719790  1
  Ba  Ba16  1  0.70692647  0.24209341  0.29858704  1
  Ba  Ba17  1  0.58769372  0.65566115  0.34125519  1
  Ba  Ba18  1  0.46447404  0.59040418  0.69294947  1
  Ba  Ba19  1  0.11850934  0.32160384  0.06312531  1
  Ba  Ba20  1  0.04398237  -0.03696790  0.81097650  1
  Ba  Ba21  1  0.10531795  0.53781671  0.53627640  1
  Ba  Ba22  1  0.50971696  0.34273555  0.66756654  1
  Ba  Ba23  1  0.45671634  0.26936289  0.33614931  1
  Ba  Ba24  1  0.20493308  0.43548892  0.30677424  1
  Ba  Ba25  1  0.00899807  0.27722416  0.84445706  1
  Ba  Ba26  1  0.44360996  0.47810252  0.20855769  1
  Ba  Ba27  1  0.30214883  0.46971353  -0.01492747  1
  Ba  Ba28  1  0.51851643  0.10775491  0.79307643  1
  Ba  Ba29  1  -0.05035313  0.15115577  0.61365598  1
  Ba  Ba30  1  0.42318081  0.26654282  -0.03418741  1
  Ba  Ba31  1  0.24437672  0.08665851  0.05219480  1
  Ba  Ba32  1  -0.01896668  -0.04488570  0.28816782  1
  Ba  Ba33  1  0.79540151  0.77961578  0.50724357  1
  Ba  Ba34  1  0.78126071  0.00348109  0.77743962  1
  Ba  Ba35  1  0.57243989  0.88998720  0.46184371  1
  Ba  Ba36  1  0.30918520  0.82234493  0.52266473  1
  Ba  Ba37  1  0.71303795  0.73994134  0.76334088  1
  Ba  Ba38  1  -0.02236571  -0.06535061  0.51868963  1
  Ba  Ba39  1  0.00972997  0.52409125  0.16233764  1
  Ba  Ba40  1  0.47999674  0.68584524  -0.10215246  1
  Ba  Ba41  1  0.81521527  0.71586597  0.26612224  1
  Ba  Ba42  1  0.10232721  0.72569057  0.73630965  1
  Ba  Ba43  1  -0.14705092  0.08580946  0.04749407  1
  Ba  Ba44  1  0.22684830  -0.19232349  0.22913943  1
  Ba  Ba45  1  0.39850163  0.58969199  0.47079730  1
  Ba  Ba46  1  0.29804892  0.00573578  0.75151755  1
  Ba  Ba47  1  0.40372686  -0.06056938  -0.04158507  1
  Ba  Ba48  1  0.20943072  0.14518661  0.30744676  1
  Ba  Ba49  1  0.75234463  0.24858116  0.87055027  1
  Ba  Ba50  1  0.87170814  0.56182864  0.45244258  1
  Fe  Fe51  1  0.54751248  0.12979933  0.18941834  1
  Fe  Fe52  1  0.51058063  0.78667113  0.64993803  1
  Fe  Fe53  1  0.13258191  0.06166053  0.49385753  1
  Fe  Fe54  1  0.26068994  0.77760277  0.88370398  1
  Fe  Fe55  1  0.85286278  0.12122334  0.39528179  1
  Fe  Fe56  1  0.42244326  0.14103695  0.14637771  1
  Fe  Fe57  1  1.04195111  0.62997449  0.34686555  1
  Fe  Fe58  1  0.25417437  0.04456778  0.54620589  1
  Fe  Fe59  1  0.61444686  0.52895817  0.80598925  1
  Fe  Fe60  1  0.65140705  0.41518328  0.85665615  1
  Fe  Fe61  1  0.57771745  0.50799894  0.51830053  1
  Fe  Fe62  1  0.34826017  0.64088196  0.28518838  1
  Fe  Fe63  1  0.13174028  0.07514988  0.62235488  1
  Fe  Fe64  1  0.86816237  0.32605576  0.70790074  1
  Fe  Fe65  1  0.81051732  0.40379205  0.09927807  1
  Fe  Fe66  1  0.53083208  0.46259844  0.40143197  1
  Fe  Fe67  1  0.50615130  1.01164336  0.12663219  1
  Fe  Fe68  1  0.20346175  0.89502583  0.92005782  1
  Fe  Fe69  1  0.14288810  0.56731213  0.02632009  1
  Fe  Fe70  1  0.23513181  0.26901178  0.87727589  1
  Fe  Fe71  1  0.61718287  0.44162129  0.29725728  1
  Fe  Fe72  1  0.67707917  0.49534398  0.42945754  1
  Fe  Fe73  1  0.80583079  0.54394433  0.17264112  1
  Fe  Fe74  1  0.61086365  0.97418513  0.68268479  1
  Fe  Fe75  1  0.70490443  0.43007683  0.18345559  1
  Fe  Fe76  1  0.50395833  0.10945326  1.03545714  1
  Fe  Fe77  1  0.14350384  0.64482155  0.91359462  1
  Fe  Fe78  1  0.63841254  0.08102602  0.09417561  1
  Fe  Fe79  1  0.03230657  0.37967582  0.44530248  1
  Fe  Fe80  1  0.89682388  0.66719811  0.64103864  1
  Fe  Fe81  1  0.66669808  0.55847002  0.19376409  1
  Fe  Fe82  1  0.70315262  0.07451660  0.41601906  1
  Fe  Fe83  1  1.01338187  0.47433829  0.35999299  1
  Fe  Fe84  1  0.48762059  0.92293036  0.64519662  1
  Fe  Fe85  1  0.25875436  0.68523371  -0.00391001  1
  Fe  Fe86  1  0.75988210  0.42052524  0.95874441  1
  Fe  Fe87  1  0.56060796  0.87467945  0.76689180  1
  Fe  Fe88  1  0.78391453  0.12889307  0.50766354  1
  Fe  Fe89  1  0.62024747  0.10622483  0.96882812  1
  Fe  Fe90  1  0.80649507  0.99411427  0.42109977  1
  Fe  Fe91  1  0.32268572  0.23036253  0.76641167  1
  Fe  Fe92  1  0.63230742  0.85156016  0.63514524  1
  Fe  Fe93  1  0.23919769  0.82649126  0.02877916  1
  Fe  Fe94  1  0.13693912  0.70660085  0.06781266  1
  Fe  Fe95  1  0.08421097  0.50215839  0.92585393  1
  Fe  Fe96  1  0.97314133  0.74700933  0.36940336  1
  Fe  Fe97  1  0.73915533  0.52487791  0.30406098  1
  Fe  Fe98  1  0.29021461  0.15373569  0.87258669  1
  Fe  Fe99  1  0.12379432  0.78086068  -0.05492574  1
  Fe  Fe100  1  0.10326326  0.77120028  0.38767464  1
  Fe  Fe101  1  0.79728948  0.52671357  1.04067959  1
  Bi  Bi102  1  0.61441249  0.33724136  0.47585004  1
  Bi  Bi103  1  0.01019461  0.72005563  0.52783562  1
  Bi  Bi104  1  0.60831166  0.68097892  0.56053598  1
  Bi  Bi105  1  0.02386905  0.73850603  0.20784785  1
  Bi  Bi106  1  0.15302629  0.16912783  0.75802743  1
  Bi  Bi107  1  0.39302874  0.82030697  0.76086294  1
  Bi  Bi108  1  0.74450722  -0.02437755  0.57472942  1
  Bi  Bi109  1  0.25208940  0.59064570  0.15393718  1
  Bi  Bi110  1  0.76219569  0.57171622  -0.12172921  1
  Bi  Bi111  1  0.85832904  0.41427196  0.27684084  1
  Bi  Bi112  1  0.18171043  -0.05799952  0.38951876  1
  Bi  Bi113  1  0.28106165  0.61819941  -0.16944743  1
  Bi  Bi114  1  -0.06694324  0.42089221  -0.02151692  1
  Bi  Bi115  1  0.15609272  0.91377307  0.62647176  1
  Bi  Bi116  1  0.26746019  0.62982754  0.63729155  1
  Bi  Bi117  1  0.42261311  0.78863017  0.33675451  1
  Bi  Bi118  1  0.74159127  0.21774293  0.66431168  1
  Bi  Bi119  1  0.47369734  0.44467127  0.85134562  1
  Bi  Bi120  1  0.31818452  0.28236598  0.16046952  1
  Bi  Bi121  1  0.90333423  0.82315599  0.70103865  1
  Bi  Bi122  1  0.21167294  0.64376471  0.37940168  1
  Bi  Bi123  1  0.05224913  0.12004573  0.14778057  1
  Bi  Bi124  1  0.85019556  0.87216620  0.93659374  1
  Bi  Bi125  1  0.37666888  0.16411002  0.61939621  1
  Bi  Bi126  1  0.01567498  0.36174444  0.63273473  1
  Bi  Bi127  1  0.82270652  0.89029972  0.13504176  1
