# generated using pymatgen
data_Ba51Fe51Bi26
_symmetry_space_group_name_H-M   'P 1'
_cell_length_a   15.72193843
_cell_length_b   16.45764739
_cell_length_c   16.56704530
_cell_angle_alpha   90.29132271
_cell_angle_beta   92.14605499
_cell_angle_gamma   89.52988153
_symmetry_Int_Tables_number   1
_chemical_formula_structural   Ba51Fe51Bi26
_chemical_formula_sum   'Ba51 Fe51 Bi26'
_cell_volume   4283.45893234
_cell_formula_units_Z   1
loop_
 _symmetry_equiv_pos_site_id
 _symmetry_equiv_pos_as_xyz
  1  'x, y, z'
loop_
 _atom_site_type_symbol
 _atom_site_label
 _atom_site_symmetry_multiplicity
 _atom_site_fract_x
 _atom_site_fract_y
 _atom_site_fract_z
 _atom_site_occupancy
  Ba  Ba0  1  0.57696535  0.47444386  0.21417743  1
  Ba  Ba1  1  0.74023210  0.41005639  0.47555146  1
  Ba  Ba2  1  0.18786148  0.12551081  0.25821911  1
  Ba  Ba3  1  0.04409625  0.56871231  0.65916284  1
  Ba  Ba4  1  -0.11371600  0.39046017  0.70673427  1
  Ba  Ba5  1  -0.08365720  -0.02611486  0.06008873  1
  Ba  Ba6  1  0.89103821  0.43927235  0.06803838  1
  Ba  Ba7  1  0.25809752  0.19761570  0.52516947  1
  Ba  Ba8  1  0.70983192  0.77053665  0.13876392  1
  Ba  Ba9  1  0.83929855  0.63575157  0.33750614  1
  Ba  Ba10  1  0.05778755  0.05584177  0.83628853  1
  Ba  Ba11  1  0.81744683  0.77358292  0.91300325  1
  Ba  Ba12  1  0.43215634  0.18361985  0.28281853  1
  Ba  Ba13  1  0.48470973  0.31374807  0.54721049  1
  Ba  Ba14  1  -0.03859819  0.10735655  0.45469962  1
  Ba  Ba15  1  0.53597389  0.43424727  -0.01321354  1
  Ba  Ba16  1  0.51922056  0.20209164  0.06011768  1
  Ba  Ba17  1  0.00733724  0.77730274  0.23948946  1
  Ba  Ba18  1  0.00963924  0.78928339  0.73575162  1
  Ba  Ba19  1  0.27926814  0.57206475  0.15897430  1
  Ba  Ba20  1  0.30659843  0.49980775  -0.07004836  1
  Ba  Ba21  1  0.28281881  0.13304290  0.77334943  1
  Ba  Ba22  1  0.24435390  0.26711211  0.00465881  1
  Ba  Ba23  1  0.79287113  0.05714883  0.24227819  1
  Ba  Ba24  1  0.19722221  -0.09512039  0.13813201  1
  Ba  Ba25  1  0.75231541  -0.03238230  0.48673898  1
  Ba  Ba26  1  -0.01830493  0.47078681  0.44580528  1
  Ba  Ba27  1  0.16819525  0.34913190  0.72129428  1
  Ba  Ba28  1  0.24001427  0.75763146  0.40046356  1
  Ba  Ba29  1  0.69509233  0.74983500  0.47860285  1
  Ba  Ba30  1  0.43764961  0.48523528  0.71247933  1
  Ba  Ba31  1  0.15376146  -0.04421379  0.51537064  1
  Ba  Ba32  1  0.54821252  0.55459089  0.48439740  1
  Ba  Ba33  1  -0.02202711  0.25793821  -0.04269238  1
  Ba  Ba34  1  0.60602155  0.26348859  0.81320446  1
  Ba  Ba35  1  0.42202788  0.79512614  0.19832153  1
  Ba  Ba36  1  0.50955171  0.02787501  -0.11529123  1
  Ba  Ba37  1  0.50677882  0.04225796  0.48656074  1
  Ba  Ba38  1  0.67888134  0.24537728  0.29468405  1
  Ba  Ba39  1  -0.10169299  1.01910709  0.66625473  1
  Ba  Ba40  1  0.52317533  0.81162046  -0.01858196  1
  Ba  Ba41  1  0.64798138  0.66861320  0.69566479  1
  Ba  Ba42  1  0.07660308  0.66852070  -0.01293406  1
  Ba  Ba43  1  0.76278639  0.15798798  0.00400097  1
  Ba  Ba44  1  0.71034449  0.19304178  0.61408787  1
  Ba  Ba45  1  0.24361776  0.37977823  0.29471664  1
  Ba  Ba46  1  0.42633079  -0.10102396  0.67742457  1
  Ba  Ba47  1  0.47312987  0.81175649  0.42928989  1
  Ba  Ba48  1  0.73910374  0.51856417  0.87435088  1
  Ba  Ba49  1  0.28334532  0.69020690  0.78269503  1
  Ba  Ba50  1  0.26849652  0.51751098  0.49154344  1
  Fe  Fe51  1  0.68126598  -0.01727983  0.68944256  1
  Fe  Fe52  1  0.35126310  0.85506452  0.86915272  1
  Fe  Fe53  1  -0.02465740  0.36235657  0.26535715  1
  Fe  Fe54  1  0.60804467  0.04486874  0.32100453  1
  Fe  Fe55  1  0.21248011  0.84410628  0.90368455  1
  Fe  Fe56  1  0.57841216  0.06361125  0.18941326  1
  Fe  Fe57  1  0.62518734  0.91038336  0.32160484  1
  Fe  Fe58  1  0.09036947  0.65287481  0.47690961  1
  Fe  Fe59  1  0.87391174  0.26635633  0.19338049  1
  Fe  Fe60  1  0.39142549  0.28724707  0.72136033  1
  Fe  Fe61  1  -0.01731250  0.19996554  0.27775180  1
  Fe  Fe62  1  0.01691833  0.28828217  0.56412441  1
  Fe  Fe63  1  0.33338436  0.90715873  -0.00283472  1
  Fe  Fe64  1  0.38375420  0.32719228  0.84096440  1
  Fe  Fe65  1  -0.03573672  0.86175376  0.54321261  1
  Fe  Fe66  1  0.19564075  0.67074421  0.58085066  1
  Fe  Fe67  1  0.71724411  0.06842252  0.79814087  1
  Fe  Fe68  1  0.43500311  0.43224104  0.35492036  1
  Fe  Fe69  1  0.73748198  0.31717257  0.12477793  1
  Fe  Fe70  1  0.88739951  0.79904019  0.44609065  1
  Fe  Fe71  1  0.88665928  0.28389070  0.35064375  1
  Fe  Fe72  1  0.75777378  0.84694478  0.66548511  1
  Fe  Fe73  1  0.48427470  0.98215536  0.28440406  1
  Fe  Fe74  1  0.95745752  0.69754287  0.52668708  1
  Fe  Fe75  1  0.04514143  0.57391024  0.15876934  1
  Fe  Fe76  1  0.95822055  0.58242071  0.83715745  1
  Fe  Fe77  1  0.90178202  0.29097123  0.49323749  1
  Fe  Fe78  1  -0.03103905  0.15053585  0.15477593  1
  Fe  Fe79  1  0.95633435  0.51497526  0.24281057  1
  Fe  Fe80  1  0.62753180  0.87859678  0.62010725  1
  Fe  Fe81  1  0.09028793  0.76973014  0.56317571  1
  Fe  Fe82  1  0.54505565  0.36558094  0.37622150  1
  Fe  Fe83  1  0.84090748  1.03553371  0.86530079  1
  Fe  Fe84  1  0.54375383  0.64919398  0.13154307  1
  Fe  Fe85  1  0.23356522  0.79093787  0.61226987  1
  Fe  Fe86  1  0.71524358  0.34505725  1.00348076  1
  Fe  Fe87  1  0.60420235  0.62302581  1.01832047  1
  Fe  Fe88  1  0.45325445  0.62739284  0.03083989  1
  Fe  Fe89  1  0.09129854  0.40768145  0.88463044  1
  Fe  Fe90  1  0.78468370  -0.07632258  0.78499971  1
  Fe  Fe91  1  0.29047524  0.04902593  -0.00592173  1
  Fe  Fe92  1  0.72410982  0.96727546  0.90196914  1
  Fe  Fe93  1  0.07999161  0.44877152  0.20185585  1
  Fe  Fe94  1  0.57949717  0.93087661  0.19352681  1
  Fe  Fe95  1  0.09230848  0.53386620  0.84627802  1
  Fe  Fe96  1  0.85699796  0.77371894  0.59415569  1
  Fe  Fe97  1  0.96414434  0.46130724  0.88558818  1
  Fe  Fe98  1  1.03253993  0.78400453  0.42932043  1
  Fe  Fe99  1  0.29337331  -0.02412802  0.86871584  1
  Fe  Fe100  1  0.95380217  0.90979211  0.39887693  1
  Fe  Fe101  1  0.18279483  -0.03445150  0.95901619  1
  Bi  Bi102  1  0.07501636  0.28135833  0.40518600  1
  Bi  Bi103  1  0.07282657  0.28677495  0.15214271  1
  Bi  Bi104  1  0.82819346  0.59481672  0.57551299  1
  Bi  Bi105  1  0.11412307  0.58343289  0.31945241  1
  Bi  Bi106  1  0.11813696  0.46509359  0.03705053  1
  Bi  Bi107  1  0.41609825  0.01013990  0.11670327  1
  Bi  Bi108  1  0.01136644  0.00599151  0.26876886  1
  Bi  Bi109  1  0.21080471  -0.09408628  0.73525768  1
  Bi  Bi110  1  0.66943735  -0.02403200  0.05936285  1
  Bi  Bi111  1  0.62262629  -0.14435549  0.79508959  1
  Bi  Bi112  1  0.30519860  0.73027738  0.00386366  1
  Bi  Bi113  1  0.80195979  0.85649076  0.31227479  1
  Bi  Bi114  1  0.11644594  0.09327915  0.04713018  1
  Bi  Bi115  1  0.38140907  0.68922113  0.59235852  1
  Bi  Bi116  1  0.51272224  0.61275782  0.86729480  1
  Bi  Bi117  1  0.03953929  0.86496454  -0.06504841  1
  Bi  Bi118  1  0.39053385  0.36725189  0.13595717  1
  Bi  Bi119  1  0.32630779  -0.02533771  0.36200801  1
  Bi  Bi120  1  0.59921376  0.67419138  0.29521161  1
  Bi  Bi121  1  0.39249643  0.59860460  0.33775636  1
  Bi  Bi122  1  0.08772673  0.15270124  0.64391735  1
  Bi  Bi123  1  0.83864645  0.19352160  0.79530661  1
  Bi  Bi124  1  0.47559420  0.14065174  0.67296633  1
  Bi  Bi125  1  0.80464837  0.42222612  0.26773195  1
  Bi  Bi126  1  0.64935062  0.42119234  0.67267608  1
  Bi  Bi127  1  0.89142775  0.64575797  0.11114337  1
