# generated using pymatgen
data_Ba51Fe51Bi26
_symmetry_space_group_name_H-M   'P 1'
_cell_length_a   16.35731723
_cell_length_b   16.26634591
_cell_length_c   16.69577228
_cell_angle_alpha   90.00321654
_cell_angle_beta   88.61998438
_cell_angle_gamma   88.99482399
_symmetry_Int_Tables_number   1
_chemical_formula_structural   Ba51Fe51Bi26
_chemical_formula_sum   'Ba51 Fe51 Bi26'
_cell_volume   4440.33483668
_cell_formula_units_Z   1
loop_
 _symmetry_equiv_pos_site_id
 _symmetry_equiv_pos_as_xyz
  1  'x, y, z'
loop_
 _atom_site_type_symbol
 _atom_site_label
 _atom_site_symmetry_multiplicity
 _atom_site_fract_x
 _atom_site_fract_y
 _atom_site_fract_z
 _atom_site_occupancy
  Ba  Ba0  1  0.53301913  0.16971376  0.78409533  1
  Ba  Ba1  1  0.16893228  0.76614800  -0.11898338  1
  Ba  Ba2  1  0.19940118  0.43235808  0.30294970  1
  Ba  Ba3  1  0.55045743  0.25346850  0.55701067  1
  Ba  Ba4  1  0.70901201  0.84207742  -0.13694164  1
  Ba  Ba5  1  -0.02462715  0.28074908  0.30159971  1
  Ba  Ba6  1  0.53510795  0.01822919  -0.03556759  1
  Ba  Ba7  1  0.79003462  0.61815719  -0.12609475  1
  Ba  Ba8  1  0.53592912  0.52107217  0.49416121  1
  Ba  Ba9  1  0.14749238  0.70714791  0.27265952  1
  Ba  Ba10  1  0.66735381  0.44259281  0.73597543  1
  Ba  Ba11  1  0.19371120  0.57909848  0.05930804  1
  Ba  Ba12  1  0.71679844  0.79320419  0.48260206  1
  Ba  Ba13  1  -0.09566814  0.51659705  0.67354494  1
  Ba  Ba14  1  0.47748380  0.45787305  0.28020805  1
  Ba  Ba15  1  -0.00301216  0.48010662  -0.05716321  1
  Ba  Ba16  1  0.02087452  -0.08009138  0.20325641  1
  Ba  Ba17  1  0.22930181  -0.01897837  0.01244774  1
  Ba  Ba18  1  0.87023151  0.18148236  0.75604505  1
  Ba  Ba19  1  0.26508851  0.14273992  0.55652753  1
  Ba  Ba20  1  0.41677742  0.43225500  0.77779682  1
  Ba  Ba21  1  0.42670604  0.78852251  -0.05810497  1
  Ba  Ba22  1  0.16518523  0.51325955  0.76676259  1
  Ba  Ba23  1  -0.04644399  0.52556827  0.22902541  1
  Ba  Ba24  1  0.75912650  0.60437131  0.34562277  1
  Ba  Ba25  1  0.52291788  0.16900857  0.31657077  1
  Ba  Ba26  1  0.74637375  0.30144327  0.21934719  1
  Ba  Ba27  1  0.49653979  0.27018707  0.08106668  1
  Ba  Ba28  1  0.66605220  0.61997576  0.11298262  1
  Ba  Ba29  1  0.15179874  0.54183808  0.50705769  1
  Ba  Ba30  1  0.46908975  0.51186858  0.00027069  1
  Ba  Ba31  1  0.53138694  -0.03807600  0.55438571  1
  Ba  Ba32  1  0.77959663  -0.02750644  0.26733521  1
  Ba  Ba33  1  0.13909801  0.25627176  0.78426813  1
  Ba  Ba34  1  -0.04993666  0.26281873  0.01360504  1
  Ba  Ba35  1  0.12292442  0.00346150  0.78708327  1
  Ba  Ba36  1  0.03038198  0.30970613  0.55880905  1
  Ba  Ba37  1  0.42815378  0.72946814  0.23255013  1
  Ba  Ba38  1  0.84181444  0.13983150  0.48762726  1
  Ba  Ba39  1  0.71751104  0.22624490  -0.03689896  1
  Ba  Ba40  1  0.17455656  0.19701666  0.13114973  1
  Ba  Ba41  1  0.82421921  -0.01062009  0.01923611  1
  Ba  Ba42  1  0.09072758  -0.00222116  0.45606384  1
  Ba  Ba43  1  0.55161524  -0.06166230  0.18303745  1
  Ba  Ba44  1  0.29459426  0.80619899  0.43284202  1
  Ba  Ba45  1  0.28574957  0.08864298  0.30454350  1
  Ba  Ba46  1  0.03514981  0.82796681  0.64527992  1
  Ba  Ba47  1  0.31556005  -0.12490267  0.67895435  1
  Ba  Ba48  1  -0.18441548  0.93792528  0.64486939  1
  Ba  Ba49  1  0.31892605  0.17887130  0.92192341  1
  Ba  Ba50  1  0.35049506  0.60326448  0.61446004  1
  Fe  Fe51  1  0.19219908  0.35267765  0.98105278  1
  Fe  Fe52  1  0.79699478  0.45995885  0.04420163  1
  Fe  Fe53  1  0.36438963  -0.00203002  0.82844733  1
  Fe  Fe54  1  0.01094445  0.68512451  0.98858599  1
  Fe  Fe55  1  0.40922499  0.04703309  0.71067748  1
  Fe  Fe56  1  0.56875790  0.69014481  0.36509240  1
  Fe  Fe57  1  -0.00628279  0.65181185  0.55821758  1
  Fe  Fe58  1  0.08754829  0.73097565  0.48362011  1
  Fe  Fe59  1  0.82478605  0.35751470  0.43085685  1
  Fe  Fe60  1  0.67793448  0.39851196  0.05193862  1
  Fe  Fe61  1  0.77911236  0.40684721  0.92627540  1
  Fe  Fe62  1  0.02559993  0.80985924  0.40198483  1
  Fe  Fe63  1  0.38413335  0.90455709  0.09964761  1
  Fe  Fe64  1  0.86840947  0.61523584  0.50119957  1
  Fe  Fe65  1  0.64913032  0.65077179  0.74354686  1
  Fe  Fe66  1  0.54310474  0.81866375  0.37197889  1
  Fe  Fe67  1  0.55277740  0.74089159  0.79071404  1
  Fe  Fe68  1  0.70919537  0.27664917  0.42117957  1
  Fe  Fe69  1  0.27119887  0.38942505  0.61683795  1
  Fe  Fe70  1  0.80237105  0.76613709  0.03282108  1
  Fe  Fe71  1  0.70960429  0.42559651  0.37530091  1
  Fe  Fe72  1  0.08489748  0.77186962  1.06473866  1
  Fe  Fe73  1  0.34860196  0.35683425  0.97458480  1
  Fe  Fe74  1  0.37387076  0.33379518  0.54931043  1
  Fe  Fe75  1  0.26727702  0.45004941  0.92938904  1
  Fe  Fe76  1  0.40424142  0.70810928  0.76805741  1
  Fe  Fe77  1  -0.00954448  0.65103198  0.41378739  1
  Fe  Fe78  1  0.75052986  0.73722078  0.69909897  1
  Fe  Fe79  1  0.02279959  0.07401756  0.04280931  1
  Fe  Fe80  1  0.93273917  0.79831185  0.03137935  1
  Fe  Fe81  1  0.50133215  0.61407326  0.76051886  1
  Fe  Fe82  1  0.08785861  0.12460494  0.94126362  1
  Fe  Fe83  1  0.66820780  0.48159624  0.95400082  1
  Fe  Fe84  1  -0.01739426  0.71459986  0.13722739  1
  Fe  Fe85  1  0.47884653  0.77008677  0.67649030  1
  Fe  Fe86  1  0.84243908  0.77920582  0.15216361  1
  Fe  Fe87  1  0.32894692  0.91121642  0.21409212  1
  Fe  Fe88  1  0.62419800  0.79577581  0.67591448  1
  Fe  Fe89  1  0.68455261  0.39138812  0.50847070  1
  Fe  Fe90  1  0.86707254  0.71114910  0.61850027  1
  Fe  Fe91  1  0.56315644  0.66312171  0.64183116  1
  Fe  Fe92  1  0.33247461  0.44278906  0.47933968  1
  Fe  Fe93  1  0.97667279  0.06356896  0.90790698  1
  Fe  Fe94  1  0.29396589  0.09303195  0.75279986  1
  Fe  Fe95  1  0.22716260  0.34864017  0.49754188  1
  Fe  Fe96  1  0.33198325  0.30578545  0.41051525  1
  Fe  Fe97  1  0.60228041  0.34923598  0.39038553  1
  Fe  Fe98  1  0.87940885  0.76213025  0.75170783  1
  Fe  Fe99  1  0.79367956  0.48033217  0.49752641  1
  Fe  Fe100  1  0.92398833  0.76295283  0.48988630  1
  Fe  Fe101  1  0.27915588  0.38144015  0.08501306  1
  Bi  Bi102  1  0.71834733  0.60287984  0.58982729  1
  Bi  Bi103  1  -0.07975026  0.74323320  0.29367827  1
  Bi  Bi104  1  0.51193601  -0.08629908  0.77041842  1
  Bi  Bi105  1  -0.04338065  0.47670790  0.43640012  1
  Bi  Bi106  1  0.32345187  0.60599920  0.87385039  1
  Bi  Bi107  1  0.34997003  0.29421476  0.23689083  1
  Bi  Bi108  1  0.80815353  0.32853788  0.59952936  1
  Bi  Bi109  1  0.48969557  0.74574766  0.51298589  1
  Bi  Bi110  1  0.92226387  -0.08389634  0.82126007  1
  Bi  Bi111  1  0.03687272  -0.08333486  -0.01683113  1
  Bi  Bi112  1  -0.00043058  0.65914147  -0.18402680  1
  Bi  Bi113  1  0.66877617  0.77994004  0.25966580  1
  Bi  Bi114  1  0.34834961  0.25213024  0.70555505  1
  Bi  Bi115  1  0.33083630  0.58923122  0.38667376  1
  Bi  Bi116  1  0.87232552  0.61438918  0.06371654  1
  Bi  Bi117  1  0.15643007  0.23281486  0.39785462  1
  Bi  Bi118  1  0.65485186  0.12163280  0.13910031  1
  Bi  Bi119  1  0.38658283  0.07584595  0.11584591  1
  Bi  Bi120  1  0.43338047  0.94757758  0.35638080  1
  Bi  Bi121  1  0.25601153  0.78677693  0.09902662  1
  Bi  Bi122  1  0.91845390  0.12181502  0.17098433  1
  Bi  Bi123  1  0.89746145  0.92660722  0.43848634  1
  Bi  Bi124  1  0.09025907  0.39326470  0.11895043  1
  Bi  Bi125  1  0.68375733  0.10681048  0.64058123  1
  Bi  Bi126  1  0.71201702  0.05632143  0.82857740  1
  Bi  Bi127  1  1.02768816  0.10284402  0.62702546  1
