# generated using pymatgen
data_Ba51Fe51Bi26
_symmetry_space_group_name_H-M   'P 1'
_cell_length_a   15.82282068
_cell_length_b   16.50598917
_cell_length_c   16.80284038
_cell_angle_alpha   89.11221239
_cell_angle_beta   88.80377393
_cell_angle_gamma   90.65252065
_symmetry_Int_Tables_number   1
_chemical_formula_structural   Ba51Fe51Bi26
_chemical_formula_sum   'Ba51 Fe51 Bi26'
_cell_volume   4386.63560396
_cell_formula_units_Z   1
loop_
 _symmetry_equiv_pos_site_id
 _symmetry_equiv_pos_as_xyz
  1  'x, y, z'
loop_
 _atom_site_type_symbol
 _atom_site_label
 _atom_site_symmetry_multiplicity
 _atom_site_fract_x
 _atom_site_fract_y
 _atom_site_fract_z
 _atom_site_occupancy
  Ba  Ba0  1  0.50464700  0.32692937  0.66280463  1
  Ba  Ba1  1  0.70791565  0.05442770  0.34636034  1
  Ba  Ba2  1  0.38555684  0.82172679  0.43745017  1
  Ba  Ba3  1  -0.16293710  0.43172518  0.03706678  1
  Ba  Ba4  1  0.78232823  0.78260958  0.69900977  1
  Ba  Ba5  1  0.69608296  0.23078059  0.00540807  1
  Ba  Ba6  1  0.69831595  0.28273051  0.50089992  1
  Ba  Ba7  1  0.00203530  0.60883461  0.08414420  1
  Ba  Ba8  1  0.84801265  0.41730362  0.64790311  1
  Ba  Ba9  1  0.53094447  -0.04106029  0.58004915  1
  Ba  Ba10  1  0.75279177  0.75935044  0.27001151  1
  Ba  Ba11  1  0.83898843  0.00422462  0.55025930  1
  Ba  Ba12  1  0.12640830  -0.17738928  0.50275933  1
  Ba  Ba13  1  0.01846877  0.42015558  0.85203634  1
  Ba  Ba14  1  0.17828497  -0.01208114  0.13751418  1
  Ba  Ba15  1  0.00178166  0.52433068  0.30423050  1
  Ba  Ba16  1  0.53984943  0.84702608  0.26198381  1
  Ba  Ba17  1  0.34174671  0.02650027  -0.05099704  1
  Ba  Ba18  1  0.65895705  -0.05185643  0.87183851  1
  Ba  Ba19  1  0.70684285  0.01371072  0.10856719  1
  Ba  Ba20  1  0.43149291  0.53577471  0.75629421  1
  Ba  Ba21  1  0.04914714  0.78624003  0.28051010  1
  Ba  Ba22  1  0.23290971  0.21396253  0.18920532  1
  Ba  Ba23  1  0.23772295  0.21593512  0.59067196  1
  Ba  Ba24  1  0.78429031  0.18856287  0.73318224  1
  Ba  Ba25  1  0.73523836  0.52736805  0.40983134  1
  Ba  Ba26  1  0.02763207  -0.16885594  0.76589133  1
  Ba  Ba27  1  0.76970587  0.70933702  0.02101890  1
  Ba  Ba28  1  0.03860454  0.05837820  0.36478304  1
  Ba  Ba29  1  0.03237063  0.10460907  0.77520107  1
  Ba  Ba30  1  0.17031010  0.77802615  -0.04583877  1
  Ba  Ba31  1  -0.06475376  -0.07026933  0.03071954  1
  Ba  Ba32  1  0.54734162  0.53013033  -0.02116977  1
  Ba  Ba33  1  0.46111096  0.33212297  0.12207361  1
  Ba  Ba34  1  0.44997992  0.25203070  0.38351673  1
  Ba  Ba35  1  0.54951545  0.70946673  0.60870830  1
  Ba  Ba36  1  0.73318659  0.53399232  -0.18976875  1
  Ba  Ba37  1  0.36687118  0.55639855  0.49940765  1
  Ba  Ba38  1  0.49793527  0.19769650  -0.13147655  1
  Ba  Ba39  1  0.27205039  0.05358402  0.42961331  1
  Ba  Ba40  1  0.51862494  0.76428723  0.02584468  1
  Ba  Ba41  1  0.26392859  0.45493949  0.28249752  1
  Ba  Ba42  1  -0.01002940  0.26505259  0.26872948  1
  Ba  Ba43  1  0.22562311  0.50103470  0.00310685  1
  Ba  Ba44  1  0.86495021  0.74053399  0.48255137  1
  Ba  Ba45  1  0.21225454  0.25355957  -0.04746174  1
  Ba  Ba46  1  0.73111281  0.31136926  0.25535680  1
  Ba  Ba47  1  0.09931932  0.41274215  0.50497339  1
  Ba  Ba48  1  -0.02874863  0.19155443  0.02000076  1
  Ba  Ba49  1  0.18394927  0.60114296  0.75619522  1
  Ba  Ba50  1  0.25549276  -0.05013607  0.71594779  1
  Fe  Fe51  1  0.24794712  0.41243077  0.81831521  1
  Fe  Fe52  1  0.32574501  0.75480257  0.78088824  1
  Fe  Fe53  1  0.02907657  0.64766667  0.88607504  1
  Fe  Fe54  1  0.96488091  0.15025000  0.58874200  1
  Fe  Fe55  1  0.53320664  0.83566820  0.77395299  1
  Fe  Fe56  1  0.40112719  0.84082756  0.85781118  1
  Fe  Fe57  1  0.88370197  0.99609838  0.21842624  1
  Fe  Fe58  1  -0.03690806  0.74430893  0.94964923  1
  Fe  Fe59  1  0.62303355  0.57824391  0.26966948  1
  Fe  Fe60  1  0.51813392  1.03476599  0.20979958  1
  Fe  Fe61  1  0.81373787  0.34806351  0.85891741  1
  Fe  Fe62  1  0.48987367  0.15919634  0.56587167  1
  Fe  Fe63  1  0.42099839  0.12135204  0.67704596  1
  Fe  Fe64  1  0.37821561  0.64486809  0.30285360  1
  Fe  Fe65  1  0.42360758  0.12903078  0.24916160  1
  Fe  Fe66  1  0.57492159  0.43414402  0.28600834  1
  Fe  Fe67  1  1.01455105  0.69259975  0.61826110  1
  Fe  Fe68  1  1.02750095  0.61590121  0.48804199  1
  Fe  Fe69  1  0.60706947  0.49242488  0.58970760  1
  Fe  Fe70  1  0.04566896  0.20624003  0.49403739  1
  Fe  Fe71  1  0.85385975  0.12874683  0.18795194  1
  Fe  Fe72  1  0.62336591  0.12893391  0.58101284  1
  Fe  Fe73  1  -0.01921630  0.08181613  0.17690645  1
  Fe  Fe74  1  0.90282023  0.19012195  0.45205993  1
  Fe  Fe75  1  0.51674023  0.07172785  0.06110410  1
  Fe  Fe76  1  0.41484701  0.82893513  0.70409862  1
  Fe  Fe77  1  0.52954069  0.50459635  0.17716391  1
  Fe  Fe78  1  0.56179812  0.12840759  0.69557033  1
  Fe  Fe79  1  0.43089046  0.96502274  0.12913544  1
  Fe  Fe80  1  0.35899247  1.00125362  0.25179107  1
  Fe  Fe81  1  0.53889435  0.15879613  0.15224855  1
  Fe  Fe82  1  0.22589698  0.79985286  0.18330375  1
  Fe  Fe83  1  0.66385544  0.47233226  0.16574298  1
  Fe  Fe84  1  0.18351291  0.31072173  0.75623056  1
  Fe  Fe85  1  0.47125728  0.53254980  0.31066247  1
  Fe  Fe86  1  0.26749219  0.74699686  0.30292373  1
  Fe  Fe87  1  0.92303094  0.58857666  0.57850699  1
  Fe  Fe88  1  0.68590265  0.34092915  0.83843917  1
  Fe  Fe89  1  0.24433210  0.89190624  0.29885917  1
  Fe  Fe90  1  0.63725634  0.61071730  0.13985041  1
  Fe  Fe91  1  0.46768016  0.72053974  0.80408082  1
  Fe  Fe92  1  0.04435024  0.54488687  0.62494867  1
  Fe  Fe93  1  0.50347138  0.65167698  0.21306367  1
  Fe  Fe94  1  0.36006770  0.72093228  0.18408278  1
  Fe  Fe95  1  0.39021598  0.10118096  0.12669397  1
  Fe  Fe96  1  0.88189305  0.71359069  0.85350335  1
  Fe  Fe97  1  0.90366603  0.60113778  0.92213337  1
  Fe  Fe98  1  0.33236175  0.31762491  0.77453330  1
  Fe  Fe99  1  0.35237258  0.86088190  0.22055805  1
  Fe  Fe100  1  0.13890497  0.63428544  0.56773020  1
  Fe  Fe101  1  0.91291031  0.26841542  0.55360222  1
  Bi  Bi102  1  0.48260865  0.03118791  0.37533252  1
  Bi  Bi103  1  0.28330819  0.41980976  0.64961340  1
  Bi  Bi104  1  0.47150035  -0.00713946  0.77869897  1
  Bi  Bi105  1  0.02898983  0.28887886  0.67384346  1
  Bi  Bi106  1  0.28360437  0.15719410  0.78169333  1
  Bi  Bi107  1  0.18187765  0.63078406  0.40303702  1
  Bi  Bi108  1  -0.05600629  0.59950640  0.74956776  1
  Bi  Bi109  1  0.33276827  0.84740042  0.06128737  1
  Bi  Bi110  1  0.54007652  0.42669977  0.45509049  1
  Bi  Bi111  1  0.38330988  0.56087301  0.13422168  1
  Bi  Bi112  1  0.18751783  0.63879799  0.18376778  1
  Bi  Bi113  1  0.63513318  0.71917324  0.84811694  1
  Bi  Bi114  1  0.80661184  0.56593299  0.19638419  1
  Bi  Bi115  1  0.88668832  0.36726025  0.42197445  1
  Bi  Bi116  1  0.30028754  0.72960456  0.61890838  1
  Bi  Bi117  1  0.39677100  0.38299536  0.91433003  1
  Bi  Bi118  1  0.18398646  0.25106337  0.38533636  1
  Bi  Bi119  1  0.54037629  0.66962738  0.38683744  1
  Bi  Bi120  1  0.88437216  0.91012869  0.36066708  1
  Bi  Bi121  1  0.73947507  0.59912058  0.60455440  1
  Bi  Bi122  1  0.82414614  0.07856004  0.91584429  1
  Bi  Bi123  1  0.08526129  0.02697592  0.57610078  1
  Bi  Bi124  1  0.12017493  -0.00958974  0.92600272  1
  Bi  Bi125  1  0.35293008  0.65843185  0.91441042  1
  Bi  Bi126  1  0.67551313  0.85454882  0.46234656  1
  Bi  Bi127  1  0.06350168  0.38464612  0.10088678  1
