# generated using pymatgen
data_Ba51Fe51Bi26
_symmetry_space_group_name_H-M   'P 1'
_cell_length_a   16.14123297
_cell_length_b   16.63642562
_cell_length_c   16.60323570
_cell_angle_alpha   91.01771636
_cell_angle_beta   89.03820461
_cell_angle_gamma   90.10528760
_symmetry_Int_Tables_number   1
_chemical_formula_structural   Ba51Fe51Bi26
_chemical_formula_sum   'Ba51 Fe51 Bi26'
_cell_volume   4457.17042240
_cell_formula_units_Z   1
loop_
 _symmetry_equiv_pos_site_id
 _symmetry_equiv_pos_as_xyz
  1  'x, y, z'
loop_
 _atom_site_type_symbol
 _atom_site_label
 _atom_site_symmetry_multiplicity
 _atom_site_fract_x
 _atom_site_fract_y
 _atom_site_fract_z
 _atom_site_occupancy
  Ba  Ba0  1  0.41664523  0.11891406  0.13205479  1
  Ba  Ba1  1  0.50319064  0.72462635  0.24246490  1
  Ba  Ba2  1  0.39029080  0.52011100  0.07206987  1
  Ba  Ba3  1  0.49295751  0.34027348  0.26400009  1
  Ba  Ba4  1  0.14080305  0.26615236  0.68877952  1
  Ba  Ba5  1  0.27096379  0.74541957  0.18370312  1
  Ba  Ba6  1  0.77805871  -0.04833974  0.45429174  1
  Ba  Ba7  1  -0.12664560  0.20179775  0.70755892  1
  Ba  Ba8  1  0.08678222  0.54152544  0.07064031  1
  Ba  Ba9  1  0.87604779  0.38542370  0.48548135  1
  Ba  Ba10  1  0.01985863  0.05583898  0.27358463  1
  Ba  Ba11  1  0.74429336  0.41143051  0.68814012  1
  Ba  Ba12  1  0.77333861  0.28923335  0.25483530  1
  Ba  Ba13  1  0.65040027  0.56980085  0.35048749  1
  Ba  Ba14  1  0.52579228  0.72923905  0.72941318  1
  Ba  Ba15  1  0.27236510  0.71852650  0.72249760  1
  Ba  Ba16  1  0.32840693  0.46470163  0.73126073  1
  Ba  Ba17  1  0.15325880  0.02121488  -0.01318874  1
  Ba  Ba18  1  0.15808481  0.80095411  0.39831878  1
  Ba  Ba19  1  0.23683626  0.39376417  -0.04891509  1
  Ba  Ba20  1  0.70876714  -0.13043844  0.20850487  1
  Ba  Ba21  1  0.72608498  0.67695935  0.55043829  1
  Ba  Ba22  1  0.23784850  0.22474844  0.36139198  1
  Ba  Ba23  1  0.08471302  0.26866657  0.13455559  1
  Ba  Ba24  1  0.25339328  0.01940415  0.76605879  1
  Ba  Ba25  1  0.40539859  0.23265453  0.77879262  1
  Ba  Ba26  1  0.57504892  0.27350165  0.48246583  1
  Ba  Ba27  1  0.72917514  0.26381287  -0.07808666  1
  Ba  Ba28  1  0.79955892  0.81583104  0.01218731  1
  Ba  Ba29  1  0.53682398  0.52365893  0.86628810  1
  Ba  Ba30  1  0.61789927  0.01935993  0.02153792  1
  Ba  Ba31  1  0.44681691  0.82724203  0.51266580  1
  Ba  Ba32  1  -0.04499079  0.64223048  0.43883626  1
  Ba  Ba33  1  0.04773520  -0.11822236  0.61068668  1
  Ba  Ba34  1  0.08091708  0.56722518  0.80567226  1
  Ba  Ba35  1  0.22055966  0.47148477  0.28151070  1
  Ba  Ba36  1  0.31828517  0.63951538  0.44990314  1
  Ba  Ba37  1  -0.01662970  0.11760557  0.50347271  1
  Ba  Ba38  1  0.10384853  0.76683543  0.00497328  1
  Ba  Ba39  1  0.51562534  -0.03406721  0.31870311  1
  Ba  Ba40  1  0.36560443  0.08024604  0.53859946  1
  Ba  Ba41  1  -0.02433839  0.34084198  -0.10955730  1
  Ba  Ba42  1  0.13598302  0.46232559  0.52888246  1
  Ba  Ba43  1  0.65282953  0.08587988  0.64022854  1
  Ba  Ba44  1  0.81770329  0.57215776  -0.04966791  1
  Ba  Ba45  1  -0.05670008  -0.03739319  0.86761638  1
  Ba  Ba46  1  0.78479918  0.81736009  0.74753950  1
  Ba  Ba47  1  0.35371804  0.83637838  -0.06556766  1
  Ba  Ba48  1  0.65158777  0.45208137  0.10155104  1
  Ba  Ba49  1  -0.04048475  0.83158970  0.27347282  1
  Ba  Ba50  1  -0.09244313  0.52012499  0.24244821  1
  Fe  Fe51  1  0.53540411  0.61411986  0.53188566  1
  Fe  Fe52  1  0.37172110  0.25588225  0.99578808  1
  Fe  Fe53  1  0.01865052  0.71958819  0.71681656  1
  Fe  Fe54  1  0.57219153  0.94428583  0.75977605  1
  Fe  Fe55  1  0.41674732  0.90036489  0.74595729  1
  Fe  Fe56  1  0.07542389  0.67779118  0.21475227  1
  Fe  Fe57  1  0.45056081  0.72639259  0.05903098  1
  Fe  Fe58  1  0.86343436  0.55967138  0.63200205  1
  Fe  Fe59  1  0.15691098  0.92065986  0.16029691  1
  Fe  Fe60  1  0.92683207  0.70184328  0.62047015  1
  Fe  Fe61  1  0.23483196  -0.00241882  0.41070772  1
  Fe  Fe62  1  0.02202815  0.17884145  -0.01959506  1
  Fe  Fe63  1  0.81579103  0.01982530  0.25275090  1
  Fe  Fe64  1  0.79430668  0.74265304  0.36591147  1
  Fe  Fe65  1  0.31939798  0.90631607  0.35760643  1
  Fe  Fe66  1  0.45594221  0.04785790  0.73910662  1
  Fe  Fe67  1  0.59857752  0.14890869  0.26443972  1
  Fe  Fe68  1  -0.04635506  0.09448896  0.07092863  1
  Fe  Fe69  1  0.81411809  0.69310240  0.25154533  1
  Fe  Fe70  1  0.30331471  0.93970591  0.21313428  1
  Fe  Fe71  1  0.11426208  0.62527025  0.31946913  1
  Fe  Fe72  1  0.50687359  0.21983639  0.96314066  1
  Fe  Fe73  1  0.63976606  0.69228916  0.97116993  1
  Fe  Fe74  1  0.99689655  0.58325782  0.63648362  1
  Fe  Fe75  1  0.18584694  0.95003487  0.28775150  1
  Fe  Fe76  1  0.43132449  0.35590133  0.92669525  1
  Fe  Fe77  1  0.45421214  0.40901994  0.54339497  1
  Fe  Fe78  1  0.00455650  0.14614829  0.85697028  1
  Fe  Fe79  1  0.58540449  0.55112713  0.65720726  1
  Fe  Fe80  1  0.33578592  0.47609293  0.53202752  1
  Fe  Fe81  1  -0.11546075  0.13058578  0.95544803  1
  Fe  Fe82  1  0.88992150  0.63586114  0.74143417  1
  Fe  Fe83  1  0.55556925  0.34582854  0.97241062  1
  Fe  Fe84  1  0.36850215  0.41670660  0.41764469  1
  Fe  Fe85  1  0.50735377  0.70850332  0.93642212  1
  Fe  Fe86  1  0.71815632  0.09734375  0.19053077  1
  Fe  Fe87  1  0.31452309  0.04500013  0.31374451  1
  Fe  Fe88  1  0.58873673  0.47908815  0.54335274  1
  Fe  Fe89  1  0.48774487  -0.04469312  0.64836508  1
  Fe  Fe90  1  0.57582405  0.78936548  0.05341392  1
  Fe  Fe91  1  0.78575720  0.15003679  1.06778125  1
  Fe  Fe92  1  0.45010908  0.54201948  0.60480530  1
  Fe  Fe93  1  0.69855966  0.09526800  0.33514158  1
  Fe  Fe94  1  0.47283668  0.97645802  0.85090235  1
  Fe  Fe95  1  0.83249753  1.02251109  1.09942111  1
  Fe  Fe96  1  0.55123222  0.63298057  0.05565548  1
  Fe  Fe97  1  0.46440281  0.32416863  0.07125954  1
  Fe  Fe98  1  0.90169460  0.22784229  0.06820424  1
  Fe  Fe99  1  0.47278899  0.51277181  0.45122139  1
  Fe  Fe100  1  0.83377020  0.12385991  0.33056683  1
  Fe  Fe101  1  0.87184232  1.14085342  0.18849843  1
  Bi  Bi102  1  0.57752589  0.11578389  0.84022772  1
  Bi  Bi103  1  -0.05875941  0.73085078  0.86824911  1
  Bi  Bi104  1  0.59962636  0.84667123  -0.10646642  1
  Bi  Bi105  1  0.61860163  0.22711861  0.10697659  1
  Bi  Bi106  1  0.44889572  -0.10830862  0.12281228  1
  Bi  Bi107  1  0.42602054  0.53580998  0.29151392  1
  Bi  Bi108  1  0.69544584  0.65634521  0.13879406  1
  Bi  Bi109  1  0.77848936  0.19024702  0.47753623  1
  Bi  Bi110  1  0.71740934  0.60787655  0.75351089  1
  Bi  Bi111  1  0.16992016  0.20571444  -0.10841017  1
  Bi  Bi112  1  -0.01500646  -0.06745783  0.09159367  1
  Bi  Bi113  1  0.20990079  0.08554662  0.18334884  1
  Bi  Bi114  1  0.31565028  0.30553757  0.55569734  1
  Bi  Bi115  1  0.87102958  0.39372016  0.07279333  1
  Bi  Bi116  1  0.63216013  0.87555148  0.61104544  1
  Bi  Bi117  1  0.12302218  0.67744631  0.57595889  1
  Bi  Bi118  1  0.05020300  0.07694099  0.70630527  1
  Bi  Bi119  1  0.86436118  -0.00204257  0.65064426  1
  Bi  Bi120  1  0.30406306  0.32210861  0.14527854  1
  Bi  Bi121  1  0.53271320  0.39166900  0.68780737  1
  Bi  Bi122  1  0.96870817  0.41544613  0.67456438  1
  Bi  Bi123  1  0.93196413  0.68324781  0.12128431  1
  Bi  Bi124  1  0.26315912  0.60990982  0.91815056  1
  Bi  Bi125  1  0.44471760  0.15691681  0.35101498  1
  Bi  Bi126  1  0.12802403  0.84472219  0.80906212  1
  Bi  Bi127  1  0.63416631  0.79120093  0.39327761  1
