# generated using pymatgen
data_Ba51Fe51Bi26
_symmetry_space_group_name_H-M   'P 1'
_cell_length_a   16.12950901
_cell_length_b   16.52923299
_cell_length_c   16.48258368
_cell_angle_alpha   89.35503939
_cell_angle_beta   91.93326490
_cell_angle_gamma   88.17448600
_symmetry_Int_Tables_number   1
_chemical_formula_structural   Ba51Fe51Bi26
_chemical_formula_sum   'Ba51 Fe51 Bi26'
_cell_volume   4389.33069631
_cell_formula_units_Z   1
loop_
 _symmetry_equiv_pos_site_id
 _symmetry_equiv_pos_as_xyz
  1  'x, y, z'
loop_
 _atom_site_type_symbol
 _atom_site_label
 _atom_site_symmetry_multiplicity
 _atom_site_fract_x
 _atom_site_fract_y
 _atom_site_fract_z
 _atom_site_occupancy
  Ba  Ba0  1  0.04808900  0.37882253  0.07468944  1
  Ba  Ba1  1  0.50778803  0.48413605  0.19226501  1
  Ba  Ba2  1  0.21197043  0.73042515  0.52804043  1
  Ba  Ba3  1  0.47529370  0.44287971  0.79059388  1
  Ba  Ba4  1  0.70242988  0.80008995  0.43319716  1
  Ba  Ba5  1  0.77603561  0.28066132  -0.08222128  1
  Ba  Ba6  1  -0.04739695  -0.02333243  0.12968982  1
  Ba  Ba7  1  0.76399743  0.53478069  0.74761469  1
  Ba  Ba8  1  0.45875418  -0.02959080  0.51006955  1
  Ba  Ba9  1  0.74510417  0.85235064  0.77179966  1
  Ba  Ba10  1  0.79501513  0.03583647  -0.04703617  1
  Ba  Ba11  1  0.68799411  0.08564786  0.34282719  1
  Ba  Ba12  1  -0.03085641  0.82252493  0.70829436  1
  Ba  Ba13  1  0.62178588  0.26251233  0.70519524  1
  Ba  Ba14  1  -0.07489100  0.55828230  0.32246748  1
  Ba  Ba15  1  0.43937001  0.25022914  0.09440459  1
  Ba  Ba16  1  0.80801588  0.17215836  0.16750723  1
  Ba  Ba17  1  0.44588070  0.40080977  0.48382251  1
  Ba  Ba18  1  0.30653074  0.42712399  -0.01206217  1
  Ba  Ba19  1  0.16878898  0.52654956  0.22145062  1
  Ba  Ba20  1  -0.04454274  0.25909009  0.52837832  1
  Ba  Ba21  1  0.28913624  0.60857457  0.76340542  1
  Ba  Ba22  1  0.32819150  0.70191517  0.25406355  1
  Ba  Ba23  1  0.09380895  0.00121047  0.64445279  1
  Ba  Ba24  1  -0.05881735  0.05784671  0.40987065  1
  Ba  Ba25  1  0.11882397  -0.13454738  0.29001588  1
  Ba  Ba26  1  0.16925406  0.21562165  0.65780150  1
  Ba  Ba27  1  0.17248331  0.33579736  0.37795534  1
  Ba  Ba28  1  0.48829329  0.01589942  0.02421090  1
  Ba  Ba29  1  0.45714393  0.71107384  0.49860645  1
  Ba  Ba30  1  0.27306752  0.68023149  0.00326042  1
  Ba  Ba31  1  0.03895813  0.33234839  0.82452401  1
  Ba  Ba32  1  0.12012945  0.15265757  0.21219884  1
  Ba  Ba33  1  -0.05693782  0.48971812  0.58831559  1
  Ba  Ba34  1  0.18857394  0.15717196  -0.02332589  1
  Ba  Ba35  1  0.20468740  0.83161191  0.80402674  1
  Ba  Ba36  1  0.21306249  0.05114303  0.44207950  1
  Ba  Ba37  1  0.71622918  0.29737885  0.48757807  1
  Ba  Ba38  1  0.39695117  0.19212384  0.32294295  1
  Ba  Ba39  1  -0.04772676  0.76139125  0.44115493  1
  Ba  Ba40  1  0.51495937  0.70622211  0.78325092  1
  Ba  Ba41  1  0.40624878  0.20931286  0.84960423  1
  Ba  Ba42  1  0.69701537  0.50892619  0.01551970  1
  Ba  Ba43  1  0.69179934  0.02110679  0.57194553  1
  Ba  Ba44  1  0.50276167  -0.09846616  0.26059205  1
  Ba  Ba45  1  0.20416333  0.45131376  0.58597096  1
  Ba  Ba46  1  0.78103222  0.81624963  0.05954839  1
  Ba  Ba47  1  0.17041209  -0.09527331  0.03848567  1
  Ba  Ba48  1  0.47785281  -0.02345136  0.76626748  1
  Ba  Ba49  1  -0.06730257  0.67092394  -0.06649064  1
  Ba  Ba50  1  0.69356342  0.55627856  0.45646838  1
  Fe  Fe51  1  0.84074578  1.02589588  0.71224689  1
  Fe  Fe52  1  -0.05046906  0.79985672  0.21759628  1
  Fe  Fe53  1  0.56125102  0.31659633  0.93172412  1
  Fe  Fe54  1  0.63063329  0.64911378  0.15052075  1
  Fe  Fe55  1  0.91700809  0.68419139  0.14646376  1
  Fe  Fe56  1  0.34255429  0.24995611  0.53646623  1
  Fe  Fe57  1  0.85859400  0.37841007  0.22501695  1
  Fe  Fe58  1  0.82548558  0.39112369  0.36027496  1
  Fe  Fe59  1  0.03574510  0.69526117  0.23577178  1
  Fe  Fe60  1  0.95258268  1.02543553  0.80168306  1
  Fe  Fe61  1  0.85414863  0.25849962  0.33368498  1
  Fe  Fe62  1  0.60635958  0.23672290  0.23391068  1
  Fe  Fe63  1  0.12427408  0.50622625  0.76530404  1
  Fe  Fe64  1  -0.03732501  0.28168525  0.22585424  1
  Fe  Fe65  1  0.30148845  1.01020740  0.63921578  1
  Fe  Fe66  1  -0.03451028  0.36516783  0.34487453  1
  Fe  Fe67  1  -0.00341421  0.23268265  0.34204797  1
  Fe  Fe68  1  0.80673778  0.16028521  0.64719083  1
  Fe  Fe69  1  0.45063952  0.18806695  0.63697020  1
  Fe  Fe70  1  0.35255879  0.56948575  0.57452734  1
  Fe  Fe71  1  0.09031554  0.98522558  0.84806223  1
  Fe  Fe72  1  1.01516628  0.77884510  0.09555093  1
  Fe  Fe73  1  0.54788526  0.11072856  0.20744393  1
  Fe  Fe74  1  0.99479844  0.53258169  0.80051332  1
  Fe  Fe75  1  0.08249819  0.61026096  0.67451458  1
  Fe  Fe76  1  0.57647578  0.79917553  0.10586517  1
  Fe  Fe77  1  0.47033139  0.55680233  0.62813767  1
  Fe  Fe78  1  0.02047696  0.04936426  -0.05839354  1
  Fe  Fe79  1  0.95425531  0.63424694  0.71852895  1
  Fe  Fe80  1  0.13060975  0.72230184  0.14536443  1
  Fe  Fe81  1  0.59055771  0.69734996  1.01199995  1
  Fe  Fe82  1  0.83068118  0.73870259  0.26096342  1
  Fe  Fe83  1  0.32912612  -0.06534117  0.93100085  1
  Fe  Fe84  1  0.07638950  0.11647322  0.81013790  1
  Fe  Fe85  1  0.90418953  0.07226427  0.60803224  1
  Fe  Fe86  1  0.61978791  0.15250078  0.11185171  1
  Fe  Fe87  1  0.72304363  0.32036473  0.27154837  1
  Fe  Fe88  1  0.08512892  0.64985481  0.80333708  1
  Fe  Fe89  1  0.35327858  0.12053936  0.55336068  1
  Fe  Fe90  1  0.49013375  0.69052455  0.11844804  1
  Fe  Fe91  1  0.40627791  0.83239346  0.91673395  1
  Fe  Fe92  1  0.33948663  0.12829347  0.68675717  1
  Fe  Fe93  1  0.83641984  0.14807947  0.78484128  1
  Fe  Fe94  1  0.35689669  0.28260613  0.66684051  1
  Fe  Fe95  1  0.67873172  0.76385204  0.21514744  1
  Fe  Fe96  1  0.71900763  0.65172959  0.28883925  1
  Fe  Fe97  1  0.95571584  0.15294137  0.71333292  1
  Fe  Fe98  1  0.77866891  0.63945340  0.16653835  1
  Fe  Fe99  1  0.51588092  0.41170101  1.00031091  1
  Fe  Fe100  1  0.04444465  0.62731018  0.09900343  1
  Fe  Fe101  1  0.95783048  0.15562731  -0.13062387  1
  Bi  Bi102  1  0.84817160  0.90328081  0.30501432  1
  Bi  Bi103  1  0.47005949  0.57736660  -0.02187118  1
  Bi  Bi104  1  0.54781579  0.68302898  0.30165930  1
  Bi  Bi105  1  0.52934538  0.18071268  0.49392442  1
  Bi  Bi106  1  0.38819837  0.83778636  0.08561820  1
  Bi  Bi107  1  0.25050236  0.04543464  0.80608263  1
  Bi  Bi108  1  -0.02580662  -0.11392990  -0.07536269  1
  Bi  Bi109  1  0.84399322  0.31265772  0.70216642  1
  Bi  Bi110  1  0.72160360  0.48922628  0.24950660  1
  Bi  Bi111  1  0.12023594  0.54250333  0.93617953  1
  Bi  Bi112  1  0.68322422  0.07334224  0.77491338  1
  Bi  Bi113  1  -0.02658927  0.18217675  0.03638506  1
  Bi  Bi114  1  -0.09699236  0.52507366  0.11522689  1
  Bi  Bi115  1  0.59046666  0.83422884  0.62089707  1
  Bi  Bi116  1  0.64460804  0.31805171  0.09042487  1
  Bi  Bi117  1  0.34695162  0.84468725  0.65221418  1
  Bi  Bi118  1  0.26114597  0.37677160  0.78033236  1
  Bi  Bi119  1  0.70953396  0.68413514  0.89425738  1
  Bi  Bi120  1  0.28682974  0.55092882  0.41309564  1
  Bi  Bi121  1  0.24862043  0.31798334  0.17637177  1
  Bi  Bi122  1  0.89400386  0.45895988  0.91513548  1
  Bi  Bi123  1  0.67066543  0.99471783  0.14555729  1
  Bi  Bi124  1  0.31653565  0.86595351  0.38539574  1
  Bi  Bi125  1  0.58514934  0.84970266  0.93215988  1
  Bi  Bi126  1  0.60665080  0.45596679  0.61622680  1
  Bi  Bi127  1  0.83252258  0.68332975  0.59786599  1
