# generated using pymatgen
data_Ba51Fe51Bi26
_symmetry_space_group_name_H-M   'P 1'
_cell_length_a   16.21212332
_cell_length_b   16.74698274
_cell_length_c   16.51149233
_cell_angle_alpha   88.81163938
_cell_angle_beta   90.00720274
_cell_angle_gamma   89.69205530
_symmetry_Int_Tables_number   1
_chemical_formula_structural   Ba51Fe51Bi26
_chemical_formula_sum   'Ba51 Fe51 Bi26'
_cell_volume   4481.90961352
_cell_formula_units_Z   1
loop_
 _symmetry_equiv_pos_site_id
 _symmetry_equiv_pos_as_xyz
  1  'x, y, z'
loop_
 _atom_site_type_symbol
 _atom_site_label
 _atom_site_symmetry_multiplicity
 _atom_site_fract_x
 _atom_site_fract_y
 _atom_site_fract_z
 _atom_site_occupancy
  Ba  Ba0  1  0.28266275  -0.04287293  0.04959232  1
  Ba  Ba1  1  0.52536068  0.49198363  0.78819407  1
  Ba  Ba2  1  0.31612520  0.71995896  0.09822069  1
  Ba  Ba3  1  0.80471386  0.76069092  0.31005747  1
  Ba  Ba4  1  0.01941239  0.70157160  0.66476813  1
  Ba  Ba5  1  0.40964580  -0.03371144  0.44551996  1
  Ba  Ba6  1  0.72963615  0.70278712  0.02578289  1
  Ba  Ba7  1  0.52273459  0.49423535  0.03817565  1
  Ba  Ba8  1  -0.15037380  0.22161909  0.45060025  1
  Ba  Ba9  1  0.24339882  0.00448038  0.81380750  1
  Ba  Ba10  1  0.23821106  0.71651189  0.77826491  1
  Ba  Ba11  1  0.28268803  0.49698561  0.25996451  1
  Ba  Ba12  1  0.50185325  0.09443892  0.68519556  1
  Ba  Ba13  1  0.61888706  0.23140158  0.52575918  1
  Ba  Ba14  1  0.27276085  0.07180610  0.25019307  1
  Ba  Ba15  1  0.17863370  0.30626462  0.50173472  1
  Ba  Ba16  1  0.86407267  0.51255955  -0.07993788  1
  Ba  Ba17  1  0.56408823  0.76756678  0.24952584  1
  Ba  Ba18  1  -0.05741280  0.01481757  0.56994644  1
  Ba  Ba19  1  0.05456845  0.82724529  0.46846757  1
  Ba  Ba20  1  0.03186439  -0.02861728  0.07474638  1
  Ba  Ba21  1  0.52808117  0.20076700  0.32232200  1
  Ba  Ba22  1  -0.03188620  0.48748327  0.21462446  1
  Ba  Ba23  1  0.74619278  0.78195832  0.54318816  1
  Ba  Ba24  1  0.29454467  0.27245560  0.72279282  1
  Ba  Ba25  1  0.49981342  0.05825486  -0.04894726  1
  Ba  Ba26  1  0.49076936  0.78096936  0.80016805  1
  Ba  Ba27  1  0.50010661  0.50843571  0.42670038  1
  Ba  Ba28  1  0.14864146  0.60726761  0.41485897  1
  Ba  Ba29  1  0.76509358  -0.00975672  -0.04184316  1
  Ba  Ba30  1  0.62297948  0.26336404  0.90318591  1
  Ba  Ba31  1  0.46422893  0.24984104  0.09956647  1
  Ba  Ba32  1  -0.03335933  0.23559074  0.67363874  1
  Ba  Ba33  1  0.05009137  0.01868345  0.32682746  1
  Ba  Ba34  1  0.20832244  0.07407439  0.53412136  1
  Ba  Ba35  1  -0.06233141  0.18550257  0.20336562  1
  Ba  Ba36  1  -0.05383743  0.44653594  0.48244287  1
  Ba  Ba37  1  0.20701069  0.29054074  0.20350988  1
  Ba  Ba38  1  -0.04248828  0.20238068  -0.05264803  1
  Ba  Ba39  1  0.10988174  0.43286268  0.76690441  1
  Ba  Ba40  1  0.73410599  -0.02850835  0.69592945  1
  Ba  Ba41  1  0.16425834  0.55508966  -0.02026709  1
  Ba  Ba42  1  0.68480621  0.00933033  0.45267310  1
  Ba  Ba43  1  -0.00553811  -0.05383772  0.82312643  1
  Ba  Ba44  1  0.77237719  0.32366410  0.06574165  1
  Ba  Ba45  1  0.55948855  -0.00161499  0.20827839  1
  Ba  Ba46  1  0.79684163  0.54834234  0.63763051  1
  Ba  Ba47  1  0.01895106  0.79204568  0.24738233  1
  Ba  Ba48  1  0.45946166  0.72096805  0.53781598  1
  Ba  Ba49  1  -0.01106328  0.72147527  0.00167404  1
  Ba  Ba50  1  0.43945694  0.37576736  0.59032270  1
  Fe  Fe51  1  0.84669781  0.75656748  0.87147207  1
  Fe  Fe52  1  0.36871935  0.33538594  0.39353596  1
  Fe  Fe53  1  0.38942672  0.22560048  0.47546292  1
  Fe  Fe54  1  0.27861825  0.79475527  0.41894235  1
  Fe  Fe55  1  0.65334489  0.40163102  0.33198883  1
  Fe  Fe56  1  0.13102767  0.14040156  0.09342644  1
  Fe  Fe57  1  0.77426015  0.72859089  0.72247019  1
  Fe  Fe58  1  0.30406044  0.45174860  0.46171898  1
  Fe  Fe59  1  0.23628969  0.87927028  0.51090500  1
  Fe  Fe60  1  0.58483986  0.87676905  0.93968235  1
  Fe  Fe61  1  0.73456638  0.65633609  0.83008263  1
  Fe  Fe62  1  0.22970438  0.33714069  0.91053176  1
  Fe  Fe63  1  0.26409857  0.14694230  0.06127785  1
  Fe  Fe64  1  0.88499891  0.94766918  0.23462649  1
  Fe  Fe65  1  0.65501210  0.26044358  0.71500285  1
  Fe  Fe66  1  0.71102189  0.51853177  0.14626356  1
  Fe  Fe67  1  0.58734320  0.87662978  0.06831032  1
  Fe  Fe68  1  0.78550019  0.15880608  0.87100529  1
  Fe  Fe69  1  0.63165690  0.39537975  0.19094701  1
  Fe  Fe70  1  0.15476184  0.10344743  0.96643860  1
  Fe  Fe71  1  0.64917087  0.38036581  0.65228163  1
  Fe  Fe72  1  0.74751113  0.95871994  0.28242227  1
  Fe  Fe73  1  0.19207875  0.88666000  0.23138134  1
  Fe  Fe74  1  0.31476770  0.44017186  0.88568323  1
  Fe  Fe75  1  0.87939147  0.66032125  0.79194097  1
  Fe  Fe76  1  0.30044100  0.20710425  0.38217395  1
  Fe  Fe77  1  0.14907156  0.18102173  0.36355813  1
  Fe  Fe78  1  0.77446432  0.32258413  0.64039339  1
  Fe  Fe79  1  0.79581115  0.39214930  0.35492575  1
  Fe  Fe80  1  0.79721511  0.25468143  0.77420410  1
  Fe  Fe81  1  0.45603583  0.86684659  0.10779161  1
  Fe  Fe82  1  0.69244084  0.13431129  0.77727363  1
  Fe  Fe83  1  0.21326348  0.90377571  0.36433106  1
  Fe  Fe84  1  0.84681875  0.11108637  0.76790881  1
  Fe  Fe85  1  0.87322784  0.80941449  0.74972982  1
  Fe  Fe86  1  0.79924332  0.04173376  0.16614169  1
  Fe  Fe87  1  0.76768053  0.42550250  0.22542296  1
  Fe  Fe88  1  0.86940281  0.93816949  0.37030056  1
  Fe  Fe89  1  0.15054016  0.24499143  -0.00035347  1
  Fe  Fe90  1  0.63285026  0.53084579  0.26208997  1
  Fe  Fe91  1  0.31241083  0.55505688  0.54602977  1
  Fe  Fe92  1  0.45366571  0.87160569  0.97737625  1
  Fe  Fe93  1  0.27025744  0.18519125  0.91775403  1
  Fe  Fe94  1  0.84450852  0.06089750  0.32249444  1
  Fe  Fe95  1  0.29170885  0.27305760  0.01819006  1
  Fe  Fe96  1  0.72302687  0.10255088  0.25894660  1
  Fe  Fe97  1  0.18562894  0.57211294  0.62444386  1
  Fe  Fe98  1  0.22008771  0.76934811  0.28922501  1
  Fe  Fe99  1  0.22735446  0.45692242  0.58735837  1
  Fe  Fe100  1  0.76841484  0.17296219  0.65605261  1
  Fe  Fe101  1  0.04612978  0.17420941  0.44178513  1
  Bi  Bi102  1  0.36283279  0.88148019  0.25011467  1
  Bi  Bi103  1  0.30997384  0.42526045  0.05654975  1
  Bi  Bi104  1  0.23699465  0.71948995  0.56777506  1
  Bi  Bi105  1  0.47632222  0.38898226  0.25795460  1
  Bi  Bi106  1  0.73564910  0.26495988  0.27319094  1
  Bi  Bi107  1  0.74906596  -0.12117752  0.13733386  1
  Bi  Bi108  1  0.71635693  0.40957964  0.50019146  1
  Bi  Bi109  1  0.73564885  0.40801580  0.79265806  1
  Bi  Bi110  1  0.70183744  0.82680730  0.83675594  1
  Bi  Bi111  1  0.12405829  0.20126005  -0.17689044  1
  Bi  Bi112  1  0.31246345  0.50073528  0.72276457  1
  Bi  Bi113  1  0.79435012  0.55058922  0.31990858  1
  Bi  Bi114  1  0.52352031  0.72942204  0.02184481  1
  Bi  Bi115  1  0.47559270  0.58662459  0.21578661  1
  Bi  Bi116  1  0.13027740  0.63517199  0.18167969  1
  Bi  Bi117  1  0.03283722  0.31084229  0.34129843  1
  Bi  Bi118  1  0.36141263  0.67810595  0.34113926  1
  Bi  Bi119  1  0.55192496  0.90646111  0.60031169  1
  Bi  Bi120  1  0.62442610  0.65821438  0.69215987  1
  Bi  Bi121  1  0.13144462  0.90634913  0.65276914  1
  Bi  Bi122  1  0.93094779  0.65774917  0.46829339  1
  Bi  Bi123  1  0.66798598  0.13758186  0.09281128  1
  Bi  Bi124  1  0.41252832  0.29875330  0.89287967  1
  Bi  Bi125  1  0.37063479  0.59932258  0.90762888  1
  Bi  Bi126  1  0.15376520  0.83229678  0.93755429  1
  Bi  Bi127  1  0.64804589  0.64904679  0.40852105  1
