# generated using pymatgen
data_Ba51Fe51Bi26
_symmetry_space_group_name_H-M   'P 1'
_cell_length_a   16.51882501
_cell_length_b   16.23528618
_cell_length_c   16.31755789
_cell_angle_alpha   88.97053728
_cell_angle_beta   90.12095422
_cell_angle_gamma   89.95338887
_symmetry_Int_Tables_number   1
_chemical_formula_structural   Ba51Fe51Bi26
_chemical_formula_sum   'Ba51 Fe51 Bi26'
_cell_volume   4375.45309067
_cell_formula_units_Z   1
loop_
 _symmetry_equiv_pos_site_id
 _symmetry_equiv_pos_as_xyz
  1  'x, y, z'
loop_
 _atom_site_type_symbol
 _atom_site_label
 _atom_site_symmetry_multiplicity
 _atom_site_fract_x
 _atom_site_fract_y
 _atom_site_fract_z
 _atom_site_occupancy
  Ba  Ba0  1  0.67388313  0.57574162  0.70371917  1
  Ba  Ba1  1  0.15885349  0.42483953  0.87017882  1
  Ba  Ba2  1  0.33093397  -0.02169662  0.73900137  1
  Ba  Ba3  1  0.48220468  0.18490163  0.52988927  1
  Ba  Ba4  1  0.74635034  -0.03299110  0.29363364  1
  Ba  Ba5  1  0.69437547  0.00807799  0.51576692  1
  Ba  Ba6  1  -0.01831403  0.03197601  -0.00189234  1
  Ba  Ba7  1  0.71877549  0.77464445  -0.05746647  1
  Ba  Ba8  1  0.25330310  0.26280085  0.45442372  1
  Ba  Ba9  1  0.28032765  0.50403365  0.52659975  1
  Ba  Ba10  1  0.73661415  0.19830197  -0.02167428  1
  Ba  Ba11  1  0.56279908  0.38119202  -0.02199524  1
  Ba  Ba12  1  0.09605546  0.77185958  0.29304008  1
  Ba  Ba13  1  -0.00146746  0.20475580  0.56714542  1
  Ba  Ba14  1  0.21280382  -0.00489852  0.51888262  1
  Ba  Ba15  1  0.56440054  0.03537487  -0.03860469  1
  Ba  Ba16  1  0.24073520  0.65772433  0.13261735  1
  Ba  Ba17  1  -0.04568245  0.27653540  0.90352806  1
  Ba  Ba18  1  -0.04994867  0.42529575  0.65943562  1
  Ba  Ba19  1  -0.08310629  0.69636711  0.79158079  1
  Ba  Ba20  1  0.42811985  0.72511346  0.73084675  1
  Ba  Ba21  1  0.33589279  0.28267374  -0.00495473  1
  Ba  Ba22  1  0.74830557  0.25420403  0.53852643  1
  Ba  Ba23  1  0.41776761  0.40625395  0.73776024  1
  Ba  Ba24  1  0.22482971  0.22918109  0.70778288  1
  Ba  Ba25  1  -0.02010671  0.01449326  0.22594582  1
  Ba  Ba26  1  -0.13849914  0.53492427  0.27314061  1
  Ba  Ba27  1  0.45996864  0.25779701  0.27938093  1
  Ba  Ba28  1  0.42899063  0.87895403  0.48224050  1
  Ba  Ba29  1  0.59570257  0.18372497  0.74775732  1
  Ba  Ba30  1  0.51434949  0.57972420  0.48007372  1
  Ba  Ba31  1  0.19760067  0.06292258  -0.05078141  1
  Ba  Ba32  1  -0.04532321  0.76574347  0.04064403  1
  Ba  Ba33  1  0.52238669  0.73160245  0.27325206  1
  Ba  Ba34  1  0.02565039  0.58044789  0.46210727  1
  Ba  Ba35  1  0.47523389  0.48817112  0.16771111  1
  Ba  Ba36  1  0.49074510  0.74626521  0.00567581  1
  Ba  Ba37  1  0.27035411  -0.05340425  0.23974731  1
  Ba  Ba38  1  0.76865546  0.73945701  0.21492406  1
  Ba  Ba39  1  0.17890246  0.63222472  0.73317158  1
  Ba  Ba40  1  0.03198571  0.78865266  0.56957644  1
  Ba  Ba41  1  0.00133483  0.27531636  0.29288449  1
  Ba  Ba42  1  -0.03463057  -0.00395816  0.47042800  1
  Ba  Ba43  1  0.18754627  0.46347320  0.30064550  1
  Ba  Ba44  1  0.66144455  0.80768141  0.65063670  1
  Ba  Ba45  1  -0.03749156  0.48836464  0.04547224  1
  Ba  Ba46  1  0.22412244  0.20845477  0.20019480  1
  Ba  Ba47  1  0.73142951  0.48393595  0.47867731  1
  Ba  Ba48  1  0.23281487  0.80396460  -0.07582883  1
  Ba  Ba49  1  0.51830217  0.02077115  0.23443327  1
  Ba  Ba50  1  0.73592158  0.30274216  0.24477856  1
  Fe  Fe51  1  0.53752235  0.38354918  0.42067141  1
  Fe  Fe52  1  0.65178492  0.56298169  0.98965306  1
  Fe  Fe53  1  0.44042306  0.38108219  0.50738931  1
  Fe  Fe54  1  0.32311440  0.47878017  0.03831890  1
  Fe  Fe55  1  0.19701500  0.68637845  0.51590313  1
  Fe  Fe56  1  0.78532614  0.58860607  0.07410948  1
  Fe  Fe57  1  0.35050743  0.60022439  0.87055045  1
  Fe  Fe58  1  0.30959892  0.74965957  0.35387417  1
  Fe  Fe59  1  0.81494174  0.93049870  0.77108821  1
  Fe  Fe60  1  0.90427505  0.03875138  0.81453685  1
  Fe  Fe61  1  0.69508707  0.48542143  0.86666512  1
  Fe  Fe62  1  0.36990734  0.46939137  0.91192017  1
  Fe  Fe63  1  0.81987527  0.67881815  0.43280183  1
  Fe  Fe64  1  0.07092513  0.18046083  0.08233520  1
  Fe  Fe65  1  0.37697504  0.93319641  0.02895937  1
  Fe  Fe66  1  0.62947438  0.37952876  0.78518571  1
  Fe  Fe67  1  0.79377753  0.92269397  0.10493031  1
  Fe  Fe68  1  0.39803360  0.58330671  0.00328760  1
  Fe  Fe69  1  0.40684023  0.89708491  0.90290976  1
  Fe  Fe70  1  0.67736793  0.98536235  0.75188810  1
  Fe  Fe71  1  0.08292453  -0.01319137  0.68158537  1
  Fe  Fe72  1  0.74873611  0.80307003  0.43160200  1
  Fe  Fe73  1  0.05020222  0.82892921  0.85182673  1
  Fe  Fe74  1  0.37978675  0.02895116  0.92866362  1
  Fe  Fe75  1  0.75018487  0.39660031  0.73650511  1
  Fe  Fe76  1  0.82054351  0.06749042  0.11158298  1
  Fe  Fe77  1  0.75504133  0.35758301  0.87115835  1
  Fe  Fe78  1  0.04430238  -0.02931796  0.82037643  1
  Fe  Fe79  1  0.14165733  0.38593011  0.60926070  1
  Fe  Fe80  1  0.96439618  0.88723668  0.73594504  1
  Fe  Fe81  1  0.11748035  0.86070526  0.73954889  1
  Fe  Fe82  1  0.13816627  0.26874912  1.00315822  1
  Fe  Fe83  1  0.25093792  0.56891038  -0.04355572  1
  Fe  Fe84  1  0.09028294  0.38515350  0.49208885  1
  Fe  Fe85  1  0.69791781  0.48436691  0.11873906  1
  Fe  Fe86  1  0.80331291  0.05611931  0.68286621  1
  Fe  Fe87  1  0.76559343  0.44845206  -0.00385784  1
  Fe  Fe88  1  0.76053518  0.07864244  0.81247376  1
  Fe  Fe89  1  0.94435657  0.01921026  0.68065425  1
  Fe  Fe90  1  0.70051318  0.02035337  0.10295749  1
  Fe  Fe91  1  0.64899436  0.61093229  0.11705635  1
  Fe  Fe92  1  0.62287864  0.75971672  0.44936978  1
  Fe  Fe93  1  0.78301718  0.58450604  0.94063464  1
  Fe  Fe94  1  0.22308238  0.80182062  0.44433910  1
  Fe  Fe95  1  0.21830836  0.65250736  0.38701140  1
  Fe  Fe96  1  0.40539239  0.42030299  0.38332534  1
  Fe  Fe97  1  0.71132252  0.67622072  0.51976295  1
  Fe  Fe98  1  0.33092997  0.69738350  0.48460577  1
  Fe  Fe99  1  0.68935583  0.66539235  0.37688135  1
  Fe  Fe100  1  0.91959697  0.89287703  0.87118571  1
  Fe  Fe101  1  0.04915480  0.31215024  0.09250705  1
  Bi  Bi102  1  0.52034297  0.56660071  -0.12964265  1
  Bi  Bi103  1  -0.09732508  0.22038532  0.11185608  1
  Bi  Bi104  1  0.85850788  0.62849946  0.59509047  1
  Bi  Bi105  1  0.55528862  -0.12920492  0.82688713  1
  Bi  Bi106  1  0.80770718  0.23450480  0.75060835  1
  Bi  Bi107  1  0.84805251  -0.10661212  0.61375815  1
  Bi  Bi108  1  0.58570410  0.38201395  0.61041226  1
  Bi  Bi109  1  0.78460788  -0.01994977  -0.05386087  1
  Bi  Bi110  1  0.05173905  0.13235027  0.77519140  1
  Bi  Bi111  1  0.17702150  0.42160871  0.09081751  1
  Bi  Bi112  1  0.25478466  0.80513696  0.62298791  1
  Bi  Bi113  1  0.87289370  0.48250099  -0.15500018  1
  Bi  Bi114  1  0.64776569  0.53310443  0.27841743  1
  Bi  Bi115  1  0.37309311  0.09129462  0.09465682  1
  Bi  Bi116  1  0.12135024  0.10795079  0.36353949  1
  Bi  Bi117  1  0.52944063  0.98828429  0.64973459  1
  Bi  Bi118  1  0.36223375  0.08333446  0.37889887  1
  Bi  Bi119  1  0.63231957  0.15707395  0.36718341  1
  Bi  Bi120  1  0.92253831  0.39110257  0.44751724  1
  Bi  Bi121  1  0.12376702  0.88117234  0.10184869  1
  Bi  Bi122  1  0.36307731  0.58622736  0.32211581  1
  Bi  Bi123  1  0.62379803  0.87009948  0.12292485  1
  Bi  Bi124  1  0.83948182  0.14385017  0.37784991  1
  Bi  Bi125  1  0.09334155  0.63794358  0.93324203  1
  Bi  Bi126  1  0.90744792  0.81182699  0.36636286  1
  Bi  Bi127  1  0.39313931  0.17066053  0.82470509  1
