# generated using pymatgen
data_Ba51Fe51Bi26
_symmetry_space_group_name_H-M   'P 1'
_cell_length_a   16.85582419
_cell_length_b   16.18067919
_cell_length_c   16.14714769
_cell_angle_alpha   90.01123054
_cell_angle_beta   91.00348361
_cell_angle_gamma   89.90947869
_symmetry_Int_Tables_number   1
_chemical_formula_structural   Ba51Fe51Bi26
_chemical_formula_sum   'Ba51 Fe51 Bi26'
_cell_volume   4403.27082453
_cell_formula_units_Z   1
loop_
 _symmetry_equiv_pos_site_id
 _symmetry_equiv_pos_as_xyz
  1  'x, y, z'
loop_
 _atom_site_type_symbol
 _atom_site_label
 _atom_site_symmetry_multiplicity
 _atom_site_fract_x
 _atom_site_fract_y
 _atom_site_fract_z
 _atom_site_occupancy
  Ba  Ba0  1  0.39490722  -0.01500955  -0.08489232  1
  Ba  Ba1  1  0.47286566  0.87664512  0.53785661  1
  Ba  Ba2  1  0.81440091  -0.09929241  0.61172916  1
  Ba  Ba3  1  0.71405442  0.48644130  0.25944349  1
  Ba  Ba4  1  0.77857296  0.54009249  0.78671214  1
  Ba  Ba5  1  0.17229820  0.50881145  0.24996737  1
  Ba  Ba6  1  0.53973763  0.28596580  0.25218893  1
  Ba  Ba7  1  0.29589278  0.00282892  0.15381059  1
  Ba  Ba8  1  0.02860069  0.69347640  0.27203759  1
  Ba  Ba9  1  0.49676779  0.78857585  0.29798191  1
  Ba  Ba10  1  0.18799442  0.29184644  0.71365527  1
  Ba  Ba11  1  0.80289432  0.76544264  0.24009187  1
  Ba  Ba12  1  0.71810915  0.28513659  -0.08663726  1
  Ba  Ba13  1  0.82983816  0.00072181  0.33160279  1
  Ba  Ba14  1  0.26406823  0.52097267  0.03565488  1
  Ba  Ba15  1  0.49399203  0.17457301  0.01043381  1
  Ba  Ba16  1  0.02135444  0.53490120  -0.01058590  1
  Ba  Ba17  1  0.67755006  0.54497236  0.50517716  1
  Ba  Ba18  1  0.30421579  0.72003985  0.17614980  1
  Ba  Ba19  1  0.02324285  -0.11472621  0.73755733  1
  Ba  Ba20  1  0.52748385  0.28015838  0.48627411  1
  Ba  Ba21  1  0.73306969  0.76531519  -0.01146223  1
  Ba  Ba22  1  0.24632920  0.41925504  0.45483830  1
  Ba  Ba23  1  -0.03140188  0.19224056  0.34421749  1
  Ba  Ba24  1  -0.08979654  0.03764373  -0.09027902  1
  Ba  Ba25  1  0.71012959  0.19466737  0.63943004  1
  Ba  Ba26  1  0.28098349  0.67557656  0.82717713  1
  Ba  Ba27  1  0.46290693  0.52973641  0.23618229  1
  Ba  Ba28  1  0.70432470  0.02971026  0.03587539  1
  Ba  Ba29  1  0.23064650  0.78621917  0.58063757  1
  Ba  Ba30  1  -0.03542513  0.77434717  0.02609020  1
  Ba  Ba31  1  -0.05844966  0.24600469  0.69428980  1
  Ba  Ba32  1  0.39355110  0.58677988  0.52140312  1
  Ba  Ba33  1  0.01856955  0.51321041  0.73405191  1
  Ba  Ba34  1  0.30896743  0.15971581  0.53956080  1
  Ba  Ba35  1  -0.06024317  0.43478390  0.23918916  1
  Ba  Ba36  1  -0.01848581  0.26085900  0.05717218  1
  Ba  Ba37  1  0.22442550  0.28316592  -0.00916108  1
  Ba  Ba38  1  0.31401076  0.25310552  0.23691920  1
  Ba  Ba39  1  0.67280743  0.52683538  0.00978024  1
  Ba  Ba40  1  0.64498332  0.00340432  0.47376445  1
  Ba  Ba41  1  0.47211774  0.51724990  0.78261201  1
  Ba  Ba42  1  0.31481735  -0.06316211  0.38132686  1
  Ba  Ba43  1  0.08476132  0.04525897  0.53466892  1
  Ba  Ba44  1  0.74488998  0.24054714  0.16988181  1
  Ba  Ba45  1  0.48062073  0.26785429  0.77165788  1
  Ba  Ba46  1  -0.00648304  0.70840636  0.52216137  1
  Ba  Ba47  1  0.16079197  0.02787868  -0.06077486  1
  Ba  Ba48  1  0.05442668  -0.04516358  0.18978225  1
  Ba  Ba49  1  0.62399545  0.77348505  0.70163262  1
  Ba  Ba50  1  -0.00222983  0.44891571  0.49457182  1
  Fe  Fe51  1  0.19352631  0.64116209  0.42725407  1
  Fe  Fe52  1  0.50932547  0.72653408  0.06602179  1
  Fe  Fe53  1  0.43224082  0.84697228  0.09506327  1
  Fe  Fe54  1  0.56276881  0.38141966  0.08554818  1
  Fe  Fe55  1  0.16099098  0.24408502  0.33922521  1
  Fe  Fe56  1  0.82208645  0.42764364  0.43234036  1
  Fe  Fe57  1  0.30590466  0.96724107  0.63588702  1
  Fe  Fe58  1  0.88321050  0.81838222  0.84666993  1
  Fe  Fe59  1  0.85762166  0.92356341  0.10462241  1
  Fe  Fe60  1  0.38856866  0.04857438  0.72044736  1
  Fe  Fe61  1  0.65952962  0.76437542  0.49597385  1
  Fe  Fe62  1  0.12810246  0.19141310  0.20810641  1
  Fe  Fe63  1  0.29582376  0.62166495  0.34599819  1
  Fe  Fe64  1  0.52397093  0.07500657  0.78972988  1
  Fe  Fe65  1  0.37429877  0.88533656  0.72898071  1
  Fe  Fe66  1  0.43163215  0.36010095  0.07570244  1
  Fe  Fe67  1  0.43620485  0.77828945  0.95528177  1
  Fe  Fe68  1  0.79662118  0.75142696  0.77391975  1
  Fe  Fe69  1  0.12546605  0.68046484  0.10681401  1
  Fe  Fe70  1  0.83921297  0.27744002  0.48435445  1
  Fe  Fe71  1  0.49173535  0.99066935  0.29603115  1
  Fe  Fe72  1  0.08943466  0.35154567  0.34535714  1
  Fe  Fe73  1  0.57450757  0.08317422  0.18706521  1
  Fe  Fe74  1  0.39897399  0.37954024  0.94294146  1
  Fe  Fe75  1  0.11383348  0.32286770  0.21181215  1
  Fe  Fe76  1  0.66699611  0.69057025  0.35798336  1
  Fe  Fe77  1  0.27729266  0.49089075  0.67581097  1
  Fe  Fe78  1  0.63065982  0.00037911  0.70648102  1
  Fe  Fe79  1  0.58110305  0.93837274  0.84169161  1
  Fe  Fe80  1  0.68447434  0.83028923  0.38214973  1
  Fe  Fe81  1  0.84282808  0.42981826  0.03189784  1
  Fe  Fe82  1  0.88466137  0.39761980  0.91328501  1
  Fe  Fe83  1  0.32184884  0.73628775  0.41010738  1
  Fe  Fe84  1  0.89771298  0.67915818  0.86439020  1
  Fe  Fe85  1  0.13755345  0.82207998  0.93034565  1
  Fe  Fe86  1  0.77946546  0.73191370  0.44676595  1
  Fe  Fe87  1  0.81216853  0.32043384  0.34875436  1
  Fe  Fe88  1  0.49367268  0.96848518  0.14871604  1
  Fe  Fe89  1  0.16688408  0.69634764  0.98280547  1
  Fe  Fe90  1  0.44757327  0.10490510  0.21564971  1
  Fe  Fe91  1  0.44208625  0.11475723  0.35441443  1
  Fe  Fe92  1  0.71988908  0.34631985  0.46549397  1
  Fe  Fe93  1  0.52936438  0.36926659  0.95540307  1
  Fe  Fe94  1  0.56898089  0.10629886  0.32260956  1
  Fe  Fe95  1  0.24229851  0.04583386  0.72425050  1
  Fe  Fe96  1  0.92088537  0.71268623  0.73382888  1
  Fe  Fe97  1  0.64901672  0.07208100  0.82675684  1
  Fe  Fe98  1  0.47751881  0.82690030  0.82242887  1
  Fe  Fe99  1  0.14410265  0.81277827  0.07798232  1
  Fe  Fe100  1  0.20480688  0.74966891  0.34843601  1
  Fe  Fe101  1  0.49818947  0.94697768  0.72084596  1
  Bi  Bi102  1  0.80092676  0.68224186  0.61341762  1
  Bi  Bi103  1  0.74964052  -0.07636055  0.82440074  1
  Bi  Bi104  1  0.10912784  0.26366023  0.50203628  1
  Bi  Bi105  1  0.46587812  0.51976705  0.01914869  1
  Bi  Bi106  1  0.22364772  -0.11284660  0.78385886  1
  Bi  Bi107  1  0.64509813  -0.05922019  0.24891461  1
  Bi  Bi108  1  0.70261615  0.19304256  0.38258303  1
  Bi  Bi109  1  0.28574327  0.83260647  0.00124859  1
  Bi  Bi110  1  0.55971102  0.88832651  0.00610997  1
  Bi  Bi111  1  0.51172128  0.09833240  0.61420250  1
  Bi  Bi112  1  0.42095254  0.72675166  0.68369662  1
  Bi  Bi113  1  0.06215925  0.69559768  0.83932310  1
  Bi  Bi114  1  0.28004852  0.44371889  0.83880348  1
  Bi  Bi115  1  0.85637740  0.59047241  0.10844447  1
  Bi  Bi116  1  0.62247845  0.66762931  0.18209880  1
  Bi  Bi117  1  0.16404975  0.57917260  0.58822691  1
  Bi  Bi118  1  0.31279904  0.16044573  0.83107110  1
  Bi  Bi119  1  0.03605856  0.34624879  0.87224964  1
  Bi  Bi120  1  0.89161397  0.08413682  0.13748409  1
  Bi  Bi121  1  0.17041312  0.07306950  0.32893582  1
  Bi  Bi122  1  0.55969126  0.68458637  0.89376398  1
  Bi  Bi123  1  0.86129050  0.59271746  0.38393470  1
  Bi  Bi124  1  0.81492524  0.40276430  0.61107919  1
  Bi  Bi125  1  0.87093338  0.10497839  0.52922578  1
  Bi  Bi126  1  0.08130970  0.09301069  0.74929645  1
  Bi  Bi127  1  0.38470968  0.37871475  0.61260525  1
