# generated using pymatgen
data_Ba51Fe51Bi26
_symmetry_space_group_name_H-M   'P 1'
_cell_length_a   16.50838845
_cell_length_b   16.19449051
_cell_length_c   16.33729771
_cell_angle_alpha   90.27391592
_cell_angle_beta   89.73378657
_cell_angle_gamma   88.75344731
_symmetry_Int_Tables_number   1
_chemical_formula_structural   Ba51Fe51Bi26
_chemical_formula_sum   'Ba51 Fe51 Bi26'
_cell_volume   4366.56101791
_cell_formula_units_Z   1
loop_
 _symmetry_equiv_pos_site_id
 _symmetry_equiv_pos_as_xyz
  1  'x, y, z'
loop_
 _atom_site_type_symbol
 _atom_site_label
 _atom_site_symmetry_multiplicity
 _atom_site_fract_x
 _atom_site_fract_y
 _atom_site_fract_z
 _atom_site_occupancy
  Ba  Ba0  1  0.14623605  -0.03800106  0.78387339  1
  Ba  Ba1  1  0.50207917  0.60844455  0.04824704  1
  Ba  Ba2  1  0.07053998  0.73490327  0.50837282  1
  Ba  Ba3  1  0.20520724  0.00361763  0.03153644  1
  Ba  Ba4  1  0.70271434  0.53999598  0.20599989  1
  Ba  Ba5  1  0.01347838  0.16425129  0.00266865  1
  Ba  Ba6  1  0.02027003  0.16583229  0.28291842  1
  Ba  Ba7  1  0.66600718  0.54389404  0.73340172  1
  Ba  Ba8  1  0.48168817  0.11419331  0.45523854  1
  Ba  Ba9  1  0.31928335  0.24743650  -0.00713212  1
  Ba  Ba10  1  0.37208324  0.87646282  0.75797359  1
  Ba  Ba11  1  0.19162759  0.19744052  0.76527340  1
  Ba  Ba12  1  0.51236291  0.00727278  -0.02223811  1
  Ba  Ba13  1  0.43029038  0.53052068  0.75266674  1
  Ba  Ba14  1  0.31688491  -0.12584713  0.22541087  1
  Ba  Ba15  1  0.80180992  -0.04504066  0.28672229  1
  Ba  Ba16  1  0.31170957  0.28059965  0.55359187  1
  Ba  Ba17  1  0.80685433  0.00495865  -0.03428473  1
  Ba  Ba18  1  0.16652423  0.41819041  0.34679346  1
  Ba  Ba19  1  0.21923450  0.44111758  0.76767949  1
  Ba  Ba20  1  0.52765058  0.20727107  0.20416702  1
  Ba  Ba21  1  -0.02714462  -0.11986891  0.10898611  1
  Ba  Ba22  1  0.04959106  0.38312322  0.13322434  1
  Ba  Ba23  1  -0.01738390  0.64848349  0.71618701  1
  Ba  Ba24  1  0.25030204  0.01966369  0.41176590  1
  Ba  Ba25  1  0.06317153  0.25218735  0.50466425  1
  Ba  Ba26  1  0.75082270  0.25814459  0.02948392  1
  Ba  Ba27  1  0.02924466  -0.04343745  0.45782377  1
  Ba  Ba28  1  0.54946804  0.03336646  0.70583371  1
  Ba  Ba29  1  -0.04971502  0.08457680  0.67523084  1
  Ba  Ba30  1  0.55665033  0.35705585  0.43347532  1
  Ba  Ba31  1  0.77623167  0.22760929  0.31506737  1
  Ba  Ba32  1  0.72584546  0.54293954  -0.03254384  1
  Ba  Ba33  1  0.54688721  0.27926019  0.73871279  1
  Ba  Ba34  1  -0.04869893  0.62181333  0.25442734  1
  Ba  Ba35  1  0.27660345  0.69454624  -0.00688078  1
  Ba  Ba36  1  0.79856140  0.77767363  0.76310179  1
  Ba  Ba37  1  0.81842072  0.31508032  0.58677215  1
  Ba  Ba38  1  0.67372224  0.80778055  -0.01589643  1
  Ba  Ba39  1  -0.04949380  0.63286147  0.00162048  1
  Ba  Ba40  1  0.67925022  0.76820788  0.36819888  1
  Ba  Ba41  1  0.47361921  0.58988970  0.52205857  1
  Ba  Ba42  1  0.20821719  0.70997639  0.73193500  1
  Ba  Ba43  1  -0.04213037  0.29302947  0.80392984  1
  Ba  Ba44  1  0.78463857  -0.07836310  0.55429181  1
  Ba  Ba45  1  0.25051324  0.65177939  0.30288710  1
  Ba  Ba46  1  0.29147807  0.77862808  0.52063881  1
  Ba  Ba47  1  0.31011939  0.43725988  0.16019470  1
  Ba  Ba48  1  0.51488257  0.86332022  0.54160999  1
  Ba  Ba49  1  -0.02027379  0.52812468  0.48496414  1
  Ba  Ba50  1  0.74586533  0.53517756  0.44502880  1
  Fe  Fe51  1  0.18000614  0.48679066  -0.00911296  1
  Fe  Fe52  1  0.84818664  0.48792574  0.82852906  1
  Fe  Fe53  1  0.22032544  0.21962798  0.32343948  1
  Fe  Fe54  1  0.84031589  0.69304927  0.54760219  1
  Fe  Fe55  1  0.31289516  0.23386028  0.19734482  1
  Fe  Fe56  1  0.20103105  0.58372176  0.48078961  1
  Fe  Fe57  1  0.30320135  0.49333834  0.47407244  1
  Fe  Fe58  1  0.82243552  0.58693824  0.62372638  1
  Fe  Fe59  1  0.28010353  0.56073426  0.60124507  1
  Fe  Fe60  1  0.80300148  0.17445665  0.82158124  1
  Fe  Fe61  1  0.46369025  0.36949140  0.89676288  1
  Fe  Fe62  1  0.18138781  0.22938920  0.19114148  1
  Fe  Fe63  1  0.14333815  0.56349892  0.60417693  1
  Fe  Fe64  1  0.52674757  0.81950747  0.25517599  1
  Fe  Fe65  1  -0.00546063  0.84164408  0.85743760  1
  Fe  Fe66  1  0.63850635  0.87069086  0.17284568  1
  Fe  Fe67  1  0.51567261  0.72423679  0.69924585  1
  Fe  Fe68  1  0.48881251  0.77987080  0.92327948  1
  Fe  Fe69  1  0.22980099  0.10197036  0.22003654  1
  Fe  Fe70  1  0.54724204  0.83851058  0.81296566  1
  Fe  Fe71  1  0.22304364  0.08402366  0.59796174  1
  Fe  Fe72  1  0.60741878  0.73326278  0.16664983  1
  Fe  Fe73  1  0.39828613  0.47877458  0.35893537  1
  Fe  Fe74  1  0.53630796  0.47976052  0.91487775  1
  Fe  Fe75  1  0.92078379  0.94136329  0.80911006  1
  Fe  Fe76  1  0.36123540  1.00784373  0.57336715  1
  Fe  Fe77  1  0.45040567  0.70598558  0.20583590  1
  Fe  Fe78  1  0.24813966  0.95121320  0.61524368  1
  Fe  Fe79  1  0.16656765  0.84031147  0.35887537  1
  Fe  Fe80  1  0.18610671  0.44557746  0.54817327  1
  Fe  Fe81  1  0.32569059  0.06953476  0.68544957  1
  Fe  Fe82  1  0.05530196  0.80989453  0.30794970  1
  Fe  Fe83  1  0.34393368  0.14336284  0.29870249  1
  Fe  Fe84  1  0.59230129  0.70967357  0.82813368  1
  Fe  Fe85  1  0.61341041  0.36878832  0.90805226  1
  Fe  Fe86  1  0.59939660  0.40978539  0.04300203  1
  Fe  Fe87  1  0.88484693  0.47669550  0.69927295  1
  Fe  Fe88  1  0.47887261  0.91704993  0.35001423  1
  Fe  Fe89  1  0.62005990  0.80447341  0.70507803  1
  Fe  Fe90  1  0.46920996  0.39870191  0.03191505  1
  Fe  Fe91  1  0.87127999  0.49211491  0.11982010  1
  Fe  Fe92  1  0.52957043  0.96297841  0.20976045  1
  Fe  Fe93  1  0.43183813  0.57455786  0.26126964  1
  Fe  Fe94  1  0.53504043  0.53357347  0.34076413  1
  Fe  Fe95  1  0.97870051  0.48801437  0.82451232  1
  Fe  Fe96  1  0.00154722  -0.03909143  0.92082920  1
  Fe  Fe97  1  0.85121562  0.38234579  0.17984788  1
  Fe  Fe98  1  0.72841974  0.17252570  0.71494560  1
  Fe  Fe99  1  0.42874491  0.02425281  0.29006742  1
  Fe  Fe100  1  0.45278965  0.70628001  0.82463765  1
  Fe  Fe101  1  0.55569630  0.65621402  0.27899115  1
  Bi  Bi102  1  0.34786988  0.48839589  -0.05204574  1
  Bi  Bi103  1  0.74727689  0.34641577  0.80004352  1
  Bi  Bi104  1  0.11830772  -0.03443025  0.24313433  1
  Bi  Bi105  1  0.77041401  0.00576247  0.75097909  1
  Bi  Bi106  1  0.37664070  0.07267915  0.13677875  1
  Bi  Bi107  1  0.04341481  0.41999513  0.65328072  1
  Bi  Bi108  1  0.36700766  0.30790323  0.34944646  1
  Bi  Bi109  1  0.52177997  0.43169264  0.20279898  1
  Bi  Bi110  1  0.67078600  0.69851038  0.57830718  1
  Bi  Bi111  1  -0.09684556  0.41272829  -0.02335710  1
  Bi  Bi112  1  0.43857078  0.74357692  0.37484512  1
  Bi  Bi113  1  0.47554590  0.82466011  0.08528693  1
  Bi  Bi114  1  0.53260798  0.24433019  -0.01046091  1
  Bi  Bi115  1  0.93311709  0.38150121  0.33327759  1
  Bi  Bi116  1  0.33720747  0.06720236  0.85681921  1
  Bi  Bi117  1  0.89315659  0.77642229  0.40609294  1
  Bi  Bi118  1  0.78201659  0.75702094  0.16139543  1
  Bi  Bi119  1  0.65207656  0.13012430  0.86708280  1
  Bi  Bi120  1  0.66479083  0.03736662  0.13627223  1
  Bi  Bi121  1  0.11151555  0.59107692  0.87761194  1
  Bi  Bi122  1  0.88857884  0.12002750  0.46448235  1
  Bi  Bi123  1  0.13274716  0.33162389  0.93518703  1
  Bi  Bi124  1  0.64970461  0.18368439  0.56435163  1
  Bi  Bi125  1  0.98983179  0.86349500  0.67032385  1
  Bi  Bi126  1  0.87394409  0.09929064  0.14791942  1
  Bi  Bi127  1  0.13673216  0.58244407  0.13014079  1
