# generated using pymatgen
data_Ba51Fe51Bi26
_symmetry_space_group_name_H-M   'P 1'
_cell_length_a   16.52606977
_cell_length_b   15.94763458
_cell_length_c   16.68385454
_cell_angle_alpha   92.51315446
_cell_angle_beta   88.44351884
_cell_angle_gamma   89.55798515
_symmetry_Int_Tables_number   1
_chemical_formula_structural   Ba51Fe51Bi26
_chemical_formula_sum   'Ba51 Fe51 Bi26'
_cell_volume   4391.03401263
_cell_formula_units_Z   1
loop_
 _symmetry_equiv_pos_site_id
 _symmetry_equiv_pos_as_xyz
  1  'x, y, z'
loop_
 _atom_site_type_symbol
 _atom_site_label
 _atom_site_symmetry_multiplicity
 _atom_site_fract_x
 _atom_site_fract_y
 _atom_site_fract_z
 _atom_site_occupancy
  Ba  Ba0  1  0.00298713  0.31144754  0.38697704  1
  Ba  Ba1  1  0.07120089  0.61143323  0.46908789  1
  Ba  Ba2  1  0.15475194  -0.05496201  0.73514057  1
  Ba  Ba3  1  0.02699480  0.50539957  0.07713897  1
  Ba  Ba4  1  0.81911233  -0.00478498  -0.05939486  1
  Ba  Ba5  1  0.74330025  -0.00546580  0.24931221  1
  Ba  Ba6  1  0.27807911  0.24203530  0.82336322  1
  Ba  Ba7  1  0.49271294  0.74572690  0.01697216  1
  Ba  Ba8  1  0.41627448  -0.05769391  0.78190666  1
  Ba  Ba9  1  0.44969033  0.70338985  0.30540340  1
  Ba  Ba10  1  0.63475548  0.77602581  0.78122690  1
  Ba  Ba11  1  0.25624774  0.30906545  0.33126625  1
  Ba  Ba12  1  0.76781258  0.25865000  0.72057677  1
  Ba  Ba13  1  0.47081914  0.23370473  0.45487749  1
  Ba  Ba14  1  0.78898110  0.24331240  0.22479902  1
  Ba  Ba15  1  -0.06035054  -0.00151941  0.68653679  1
  Ba  Ba16  1  0.35115384  0.50587687  0.21928522  1
  Ba  Ba17  1  0.23071646  0.77259496  0.24426838  1
  Ba  Ba18  1  0.51506909  0.22810689  0.77652764  1
  Ba  Ba19  1  0.54308317  -0.05226471  0.43960446  1
  Ba  Ba20  1  0.10733200  0.43287463  0.84919908  1
  Ba  Ba21  1  0.50773922  0.51266798  0.52038066  1
  Ba  Ba22  1  0.26481945  0.29257436  0.56608625  1
  Ba  Ba23  1  -0.09192489  0.74774011  0.78500035  1
  Ba  Ba24  1  0.68691600  0.20800101  -0.03257522  1
  Ba  Ba25  1  0.47043144  0.50530610  0.76773267  1
  Ba  Ba26  1  0.80876038  0.55390220  0.15862372  1
  Ba  Ba27  1  0.71904627  0.78356918  0.02816462  1
  Ba  Ba28  1  0.49100039  0.46195947  0.01816766  1
  Ba  Ba29  1  -0.07187003  0.45548151  0.58515826  1
  Ba  Ba30  1  0.82697456  0.48694924  -0.08191720  1
  Ba  Ba31  1  0.24081385  0.16034322  0.11359878  1
  Ba  Ba32  1  0.21385635  0.54714050  0.64421085  1
  Ba  Ba33  1  0.01788422  0.23760738  0.75462813  1
  Ba  Ba34  1  0.63094283  0.43058149  0.31453564  1
  Ba  Ba35  1  0.05679227  0.11553391  -0.04394972  1
  Ba  Ba36  1  0.52691023  0.21320469  0.17349932  1
  Ba  Ba37  1  -0.07372323  0.79686853  0.47474053  1
  Ba  Ba38  1  0.65208130  0.00999676  0.70628250  1
  Ba  Ba39  1  0.12504026  0.50321734  0.27371565  1
  Ba  Ba40  1  0.67945068  0.71745792  0.50309618  1
  Ba  Ba41  1  0.24037067  0.79456892  0.50490262  1
  Ba  Ba42  1  0.20069205  0.72450061  0.82206903  1
  Ba  Ba43  1  0.01593201  0.26533091  0.15750883  1
  Ba  Ba44  1  0.08611713  0.75324100  0.06767780  1
  Ba  Ba45  1  0.42093820  -0.04209460  0.17571631  1
  Ba  Ba46  1  0.28503278  0.03825966  0.56206823  1
  Ba  Ba47  1  0.02461410  -0.05470092  0.29245885  1
  Ba  Ba48  1  0.77918586  0.28468847  0.48163554  1
  Ba  Ba49  1  0.69936231  0.52842329  0.70422999  1
  Ba  Ba50  1  0.81033005  0.03313412  0.48917155  1
  Fe  Fe51  1  0.77797371  0.56434187  0.35303411  1
  Fe  Fe52  1  0.23084737  0.46765336  0.05368702  1
  Fe  Fe53  1  0.22666962  0.48585168  0.44961876  1
  Fe  Fe54  1  0.11788981  0.40988026  0.51175008  1
  Fe  Fe55  1  0.08108081  0.12867440  0.59571048  1
  Fe  Fe56  1  0.42484207  0.09394236  0.90216287  1
  Fe  Fe57  1  0.38043383  0.65744558  0.62618627  1
  Fe  Fe58  1  0.14435662  0.14503501  0.46223997  1
  Fe  Fe59  1  0.35324126  0.48533726  0.41012016  1
  Fe  Fe60  1  0.76500184  0.78175206  0.20841815  1
  Fe  Fe61  1  0.60639614  0.92847661  0.92047451  1
  Fe  Fe62  1  0.89574809  0.73843231  0.15052294  1
  Fe  Fe63  1  0.07465167  0.26527934  0.54683565  1
  Fe  Fe64  1  0.86985344  0.60062888  0.44106165  1
  Fe  Fe65  1  0.09612414  0.37560602  0.63261840  1
  Fe  Fe66  1  0.51330617  0.66936546  0.65686345  1
  Fe  Fe67  1  1.00008488  0.12872952  0.48683661  1
  Fe  Fe68  1  0.62435755  0.16085222  0.55407871  1
  Fe  Fe69  1  0.32268272  0.34691351  0.11222995  1
  Fe  Fe70  1  0.48210292  0.95773735  0.97383081  1
  Fe  Fe71  1  0.98940762  0.32459469  0.97900155  1
  Fe  Fe72  1  0.85514963  0.34415745  0.04837885  1
  Fe  Fe73  1  0.83935775  0.69037305  0.31063895  1
  Fe  Fe74  1  0.00398006  -0.05920121  1.07376983  1
  Fe  Fe75  1  0.88775597  0.21225947  0.01618092  1
  Fe  Fe76  1  0.73714097  0.80831613  0.33814983  1
  Fe  Fe77  1  0.33684905  0.93654472  -0.00483079  1
  Fe  Fe78  1  0.86038923  0.45640930  0.37213715  1
  Fe  Fe79  1  0.18378017  1.01058047  0.39042193  1
  Fe  Fe80  1  0.32941707  0.60229578  0.49183246  1
  Fe  Fe81  1  0.93106985  0.56317290  0.32195044  1
  Fe  Fe82  1  0.90543450  0.68690528  1.01620648  1
  Fe  Fe83  1  0.26726105  0.33278216  0.99599505  1
  Fe  Fe84  1  0.94920924  0.20984896  0.58149849  1
  Fe  Fe85  1  0.13418610  0.33484248  1.01662122  1
  Fe  Fe86  1  0.87870187  0.88354092  0.13979005  1
  Fe  Fe87  1  0.19142416  0.36130290  0.13759774  1
  Fe  Fe88  1  0.48155568  0.79982835  0.65304116  1
  Fe  Fe89  1  0.56865897  0.05060936  0.88538153  1
  Fe  Fe90  1  0.34141995  0.62667886  0.92904765  1
  Fe  Fe91  1  0.91616353  0.82355741  1.01781965  1
  Fe  Fe92  1  0.37835653  0.06578207  0.02259696  1
  Fe  Fe93  1  0.30706931  0.59996880  0.05319275  1
  Fe  Fe94  1  0.51517123  0.10048008  0.00492689  1
  Fe  Fe95  1  0.88584026  0.28337942  0.90752617  1
  Fe  Fe96  1  0.06255818  0.04795401  0.13809430  1
  Fe  Fe97  1  0.26805797  0.11012224  0.38068712  1
  Fe  Fe98  1  0.26427746  0.60325852  0.37725431  1
  Fe  Fe99  1  0.20177547  0.59139022  0.97121050  1
  Fe  Fe100  1  0.34744738  0.78544108  0.66822159  1
  Fe  Fe101  1  0.87298279  0.83003067  0.27662195  1
  Bi  Bi102  1  0.28916134  0.76979608  0.02105707  1
  Bi  Bi103  1  0.25810118  0.04667390  -0.09858517  1
  Bi  Bi104  1  0.42136978  0.24791565  -0.00635500  1
  Bi  Bi105  1  0.02253893  0.62250762  -0.09305523  1
  Bi  Bi106  1  1.01325230  0.70609944  0.27157730  1
  Bi  Bi107  1  0.30726590  0.46392566  -0.10606119  1
  Bi  Bi108  1  0.07429012  -0.03094330  0.51576269  1
  Bi  Bi109  1  0.46153324  0.73694949  0.50350966  1
  Bi  Bi110  1  0.12073053  0.13893428  0.29444271  1
  Bi  Bi111  1  0.42133254  0.71824387  0.80158498  1
  Bi  Bi112  1  0.73561877  0.50176167  0.49701324  1
  Bi  Bi113  1  -0.10137202  0.07476873  0.12276811  1
  Bi  Bi114  1  0.63311570  0.00774569  0.06721192  1
  Bi  Bi115  1  0.66039444  0.65419437  0.28814582  1
  Bi  Bi116  1  0.48439260  0.08621588  0.60932202  1
  Bi  Bi117  1  0.68901488  0.37900350  0.10545359  1
  Bi  Bi118  1  0.01542543  0.90148942  0.90075728  1
  Bi  Bi119  1  0.19158088  0.94458745  0.11658705  1
  Bi  Bi120  1  0.63821832  0.39341988  0.85665895  1
  Bi  Bi121  1  0.33496505  0.93334603  0.36876731  1
  Bi  Bi122  1  0.59907829  0.33005376  0.60625841  1
  Bi  Bi123  1  0.07485250  0.75325217  0.64442010  1
  Bi  Bi124  1  0.63438295  0.59957306  0.90832216  1
  Bi  Bi125  1  0.65003898  0.14735501  0.38126947  1
  Bi  Bi126  1  0.59954524  0.83913952  0.22938785  1
  Bi  Bi127  1  0.78643746  0.85644206  0.63384205  1
