# generated using pymatgen
data_Ba51Fe51Bi26
_symmetry_space_group_name_H-M   'P 1'
_cell_length_a   16.65906233
_cell_length_b   16.21051093
_cell_length_c   16.76911224
_cell_angle_alpha   90.88184097
_cell_angle_beta   88.58108814
_cell_angle_gamma   91.37482749
_symmetry_Int_Tables_number   1
_chemical_formula_structural   Ba51Fe51Bi26
_chemical_formula_sum   'Ba51 Fe51 Bi26'
_cell_volume   4525.34296315
_cell_formula_units_Z   1
loop_
 _symmetry_equiv_pos_site_id
 _symmetry_equiv_pos_as_xyz
  1  'x, y, z'
loop_
 _atom_site_type_symbol
 _atom_site_label
 _atom_site_symmetry_multiplicity
 _atom_site_fract_x
 _atom_site_fract_y
 _atom_site_fract_z
 _atom_site_occupancy
  Ba  Ba0  1  -0.02192683  -0.00231875  0.20612423  1
  Ba  Ba1  1  0.45366737  0.87009449  0.02873299  1
  Ba  Ba2  1  -0.05831401  0.77663100  0.34982698  1
  Ba  Ba3  1  -0.03224058  0.48917209  0.80322311  1
  Ba  Ba4  1  0.22819659  0.28330452  -0.00749776  1
  Ba  Ba5  1  0.51763914  0.72708592  0.24906935  1
  Ba  Ba6  1  0.10697477  0.22741618  0.64609560  1
  Ba  Ba7  1  0.77800539  0.85448493  0.78937122  1
  Ba  Ba8  1  0.27020047  0.66344829  0.76679184  1
  Ba  Ba9  1  -0.01296837  0.01098342  0.79937219  1
  Ba  Ba10  1  0.65114805  0.01832658  -0.03799631  1
  Ba  Ba11  1  0.02894749  0.32437824  0.15681171  1
  Ba  Ba12  1  0.51662378  0.52544482  0.78490629  1
  Ba  Ba13  1  0.73430050  -0.05910570  0.26222250  1
  Ba  Ba14  1  0.24619130  -0.04426200  0.71497733  1
  Ba  Ba15  1  -0.05336403  0.72667251  0.05376963  1
  Ba  Ba16  1  0.75458469  0.24722868  -0.00103289  1
  Ba  Ba17  1  0.08046077  0.81613346  0.56424954  1
  Ba  Ba18  1  0.32269123  0.27921469  0.76886944  1
  Ba  Ba19  1  0.02335434  0.72957453  0.79572728  1
  Ba  Ba20  1  0.73657830  0.50228429  -0.01079052  1
  Ba  Ba21  1  0.79411058  0.23347419  0.21591170  1
  Ba  Ba22  1  0.15575960  -0.04721854  -0.03002582  1
  Ba  Ba23  1  0.28553179  0.20850105  0.42617771  1
  Ba  Ba24  1  0.76255285  0.56424337  0.72450718  1
  Ba  Ba25  1  0.34977975  -0.01852685  0.46158322  1
  Ba  Ba26  1  0.56418114  0.69587640  0.52142129  1
  Ba  Ba27  1  0.55874901  0.43769211  0.49167635  1
  Ba  Ba28  1  0.19269981  0.82873843  0.33578094  1
  Ba  Ba29  1  0.28385776  0.44242765  0.53041253  1
  Ba  Ba30  1  0.71560313  0.20500625  0.42135142  1
  Ba  Ba31  1  -0.01403221  0.24392418  -0.09322197  1
  Ba  Ba32  1  0.72019982  0.33059669  0.63519380  1
  Ba  Ba33  1  0.24754652  0.02685142  0.18734003  1
  Ba  Ba34  1  0.77837774  0.13356011  0.74292496  1
  Ba  Ba35  1  0.26912477  0.44662998  0.28734560  1
  Ba  Ba36  1  0.04045538  0.49783715  0.47880198  1
  Ba  Ba37  1  0.08684981  0.60971757  0.23858966  1
  Ba  Ba38  1  0.38456619  0.24284593  0.21103921  1
  Ba  Ba39  1  -0.07912015  0.00633317  0.52269129  1
  Ba  Ba40  1  0.80250535  0.59388295  0.47249382  1
  Ba  Ba41  1  0.69726738  0.78940351  0.01156342  1
  Ba  Ba42  1  0.44583059  0.11801002  0.00547719  1
  Ba  Ba43  1  0.64543437  -0.07260187  0.53886094  1
  Ba  Ba44  1  0.49334878  0.05845332  0.73997334  1
  Ba  Ba45  1  0.39425860  0.55075574  0.08851477  1
  Ba  Ba46  1  0.73901998  0.61335917  0.21197979  1
  Ba  Ba47  1  0.51935270  0.37973124  -0.01122006  1
  Ba  Ba48  1  0.22633088  0.70443995  0.03558433  1
  Ba  Ba49  1  -0.00373677  0.26645242  0.39990691  1
  Ba  Ba50  1  0.35927101  0.74825573  0.46958548  1
  Fe  Fe51  1  0.14931113  0.99845453  0.51180387  1
  Fe  Fe52  1  0.51238987  0.39773599  0.18190462  1
  Fe  Fe53  1  0.64434276  0.08315647  0.14913956  1
  Fe  Fe54  1  0.77720309  0.06900299  0.09136357  1
  Fe  Fe55  1  0.88872495  0.54112323  0.29958914  1
  Fe  Fe56  1  0.18160873  0.43179641  0.84758716  1
  Fe  Fe57  1  0.80810251  0.81964169  0.48926584  1
  Fe  Fe58  1  0.09368136  0.43080798  -0.04346135  1
  Fe  Fe59  1  0.58797682  0.06640285  0.28767825  1
  Fe  Fe60  1  0.07159565  0.95695757  0.41318652  1
  Fe  Fe61  1  0.24759054  0.60319953  0.40577517  1
  Fe  Fe62  1  0.07626609  0.56117470  -0.00737426  1
  Fe  Fe63  1  0.51658393  0.23147590  0.86912951  1
  Fe  Fe64  1  0.21582610  0.52550767  0.95306738  1
  Fe  Fe65  1  0.13377400  0.14096521  0.31694169  1
  Fe  Fe66  1  0.12825721  0.56252908  0.86345948  1
  Fe  Fe67  1  -0.09586941  0.10894115  0.06453644  1
  Fe  Fe68  1  1.03031228  0.07441123  0.36653661  1
  Fe  Fe69  1  0.87432912  0.92370541  0.94560064  1
  Fe  Fe70  1  0.57718765  0.83371405  0.71438558  1
  Fe  Fe71  1  0.63093589  0.18070713  0.85250758  1
  Fe  Fe72  1  0.57806043  0.49531115  0.28614924  1
  Fe  Fe73  1  0.44969300  0.98611881  0.23549407  1
  Fe  Fe74  1  0.47546927  0.71654161  0.72829979  1
  Fe  Fe75  1  0.91501972  0.30914629  0.70822779  1
  Fe  Fe76  1  0.92447961  0.51754221  0.17532562  1
  Fe  Fe77  1  0.81821190  0.43194991  0.17745747  1
  Fe  Fe78  1  0.88811403  0.78255668  0.57677788  1
  Fe  Fe79  1  0.90405130  0.41187787  0.28466484  1
  Fe  Fe80  1  0.18120784  0.03027797  0.37039635  1
  Fe  Fe81  1  0.59909808  0.34473659  0.28180205  1
  Fe  Fe82  1  0.50407073  0.09683485  0.18069083  1
  Fe  Fe83  1  0.55281307  1.07887388  0.43109814  1
  Fe  Fe84  1  0.46699806  0.14017473  0.51349357  1
  Fe  Fe85  1  0.66736808  0.41197830  0.17710063  1
  Fe  Fe86  1  0.57466120  0.51452095  0.15486625  1
  Fe  Fe87  1  0.45519630  0.83353648  0.80926611  1
  Fe  Fe88  1  0.58017051  0.87815899  0.84183587  1
  Fe  Fe89  1  -0.03105490  1.00596086  0.99922353  1
  Fe  Fe90  1  0.84012980  0.05985471  0.95251647  1
  Fe  Fe91  1  0.56586185  0.96077183  0.17103494  1
  Fe  Fe92  1  0.10995223  0.11495683  0.46507330  1
  Fe  Fe93  1  0.84359718  0.95412579  0.06763227  1
  Fe  Fe94  1  0.14806310  0.66244792  0.46301794  1
  Fe  Fe95  1  0.12162713  0.62590384  0.60707112  1
  Fe  Fe96  1  0.46789166  0.40586018  0.31058784  1
  Fe  Fe97  1  0.61400754  0.70585953  0.73130773  1
  Fe  Fe98  1  0.56888650  0.74451541  0.84913553  1
  Fe  Fe99  1  0.24123834  0.62565054  0.55633682  1
  Fe  Fe100  1  0.64018640  0.31513261  0.84946531  1
  Fe  Fe101  1  0.45395737  0.09357325  0.33187779  1
  Bi  Bi102  1  0.07543957  0.12731616  0.06524345  1
  Bi  Bi103  1  0.58926924  0.24470264  0.13718087  1
  Bi  Bi104  1  0.15064333  0.48563336  0.69465160  1
  Bi  Bi105  1  0.73948383  0.42215811  0.34018652  1
  Bi  Bi106  1  0.73146591  0.74790146  0.62212174  1
  Bi  Bi107  1  0.43201069  -0.13577013  0.64041476  1
  Bi  Bi108  1  -0.06364482  0.45282580  0.02141564  1
  Bi  Bi109  1  0.42127967  0.69449513  0.90998838  1
  Bi  Bi110  1  0.43304764  0.55879776  0.37675728  1
  Bi  Bi111  1  0.18089413  0.47298648  0.10288616  1
  Bi  Bi112  1  0.50754152  0.24707706  0.38191575  1
  Bi  Bi113  1  0.52853712  -0.08388040  0.35972411  1
  Bi  Bi114  1  0.53499197  0.31006845  0.73132811  1
  Bi  Bi115  1  0.40389881  0.59623406  0.62065114  1
  Bi  Bi116  1  0.80336099  0.35203192  0.82274129  1
  Bi  Bi117  1  0.30271636  0.66626152  0.25139443  1
  Bi  Bi118  1  0.10146493  0.83343787  0.15290739  1
  Bi  Bi119  1  0.42309205  0.29300761  0.57443912  1
  Bi  Bi120  1  0.89479395  0.21441574  0.57631248  1
  Bi  Bi121  1  0.71354980  0.75726473  0.36785018  1
  Bi  Bi122  1  0.16195326  0.12852931  0.83059047  1
  Bi  Bi123  1  0.32494254  0.12662146  0.61673503  1
  Bi  Bi124  1  0.95236359  0.63205533  0.62073779  1
  Bi  Bi125  1  0.83654462  0.66979227  0.88934701  1
  Bi  Bi126  1  0.61862014  0.13313008  0.58610362  1
  Bi  Bi127  1  0.34615503  0.45190030  0.89148084  1
