# generated using pymatgen
data_Ba51Fe51Bi26
_symmetry_space_group_name_H-M   'P 1'
_cell_length_a   16.43949389
_cell_length_b   16.33577586
_cell_length_c   16.48256602
_cell_angle_alpha   88.94933798
_cell_angle_beta   91.22270515
_cell_angle_gamma   92.78596802
_symmetry_Int_Tables_number   1
_chemical_formula_structural   Ba51Fe51Bi26
_chemical_formula_sum   'Ba51 Fe51 Bi26'
_cell_volume   4419.52249080
_cell_formula_units_Z   1
loop_
 _symmetry_equiv_pos_site_id
 _symmetry_equiv_pos_as_xyz
  1  'x, y, z'
loop_
 _atom_site_type_symbol
 _atom_site_label
 _atom_site_symmetry_multiplicity
 _atom_site_fract_x
 _atom_site_fract_y
 _atom_site_fract_z
 _atom_site_occupancy
  Ba  Ba0  1  -0.06855477  -0.05636046  0.81793396  1
  Ba  Ba1  1  0.42861241  0.38885761  0.84376819  1
  Ba  Ba2  1  -0.01902838  0.71537035  0.30055694  1
  Ba  Ba3  1  0.28043538  0.55066864  0.25852319  1
  Ba  Ba4  1  0.26169436  -0.00518634  0.04567333  1
  Ba  Ba5  1  0.73935382  0.82804756  0.70051019  1
  Ba  Ba6  1  0.44188250  0.41834429  0.44686403  1
  Ba  Ba7  1  0.77490109  0.35618662  0.48617637  1
  Ba  Ba8  1  0.78321456  0.00801165  0.49842638  1
  Ba  Ba9  1  -0.03682518  0.51800090  0.55880807  1
  Ba  Ba10  1  0.03364387  0.79697793  0.02324398  1
  Ba  Ba11  1  0.58944787  0.22956185  -0.08752775  1
  Ba  Ba12  1  0.20960060  0.23207661  0.22547033  1
  Ba  Ba13  1  0.75547379  0.31440382  0.73801193  1
  Ba  Ba14  1  0.50897285  0.81950863  0.60199933  1
  Ba  Ba15  1  0.25991118  0.46251037  0.65685177  1
  Ba  Ba16  1  0.65286614  0.24071874  0.20638603  1
  Ba  Ba17  1  0.37233666  0.63646392  0.51479137  1
  Ba  Ba18  1  0.46600297  0.63623372  0.79461135  1
  Ba  Ba19  1  0.11888190  0.81778418  0.73202819  1
  Ba  Ba20  1  0.79563799  0.75711013  0.48134682  1
  Ba  Ba21  1  0.24111322  0.22814632  0.73974569  1
  Ba  Ba22  1  0.29819428  -0.03560223  0.79506478  1
  Ba  Ba23  1  0.74539809  0.00858394  0.21262985  1
  Ba  Ba24  1  -0.05889178  0.24934355  0.15895440  1
  Ba  Ba25  1  0.09842760  -0.08537249  0.22899219  1
  Ba  Ba26  1  0.52968635  0.67026186  0.06410320  1
  Ba  Ba27  1  0.63672361  0.49106538  0.32264806  1
  Ba  Ba28  1  0.00065538  0.48229969  0.27287670  1
  Ba  Ba29  1  0.18841351  0.23875658  -0.00745863  1
  Ba  Ba30  1  0.03783550  0.51325595  -0.03107173  1
  Ba  Ba31  1  0.73944680  0.72442141  0.22009211  1
  Ba  Ba32  1  0.52414957  0.03714097  0.44265175  1
  Ba  Ba33  1  0.29299202  0.49462617  0.02961106  1
  Ba  Ba34  1  -0.07433222  0.67360690  0.73507896  1
  Ba  Ba35  1  -0.03005877  0.15235005  0.55159587  1
  Ba  Ba36  1  0.55936329  0.85808842  0.86322540  1
  Ba  Ba37  1  0.77235317  0.72190422  -0.04436021  1
  Ba  Ba38  1  0.28325984  -0.04260716  0.33196241  1
  Ba  Ba39  1  0.27824294  0.75161224  -0.05110762  1
  Ba  Ba40  1  -0.07142305  0.04373176  0.02529411  1
  Ba  Ba41  1  0.54787456  0.27895066  0.61640597  1
  Ba  Ba42  1  0.53599766  0.42755169  0.07830385  1
  Ba  Ba43  1  0.42459108  0.17041307  0.27027283  1
  Ba  Ba44  1  0.47833889  0.08437602  0.72511232  1
  Ba  Ba45  1  0.14060643  -0.03546121  0.54946592  1
  Ba  Ba46  1  0.00184042  0.25682311  0.82039181  1
  Ba  Ba47  1  0.47229358  -0.13460532  0.19175562  1
  Ba  Ba48  1  0.53110277  0.04826657  0.03414480  1
  Ba  Ba49  1  0.17084070  0.37866514  0.44328729  1
  Ba  Ba50  1  0.78242505  0.40497705  -0.03806061  1
  Fe  Fe51  1  0.16180054  0.12074708  0.38641318  1
  Fe  Fe52  1  0.74872089  0.63179382  0.66547930  1
  Fe  Fe53  1  0.35201045  0.78283013  0.73904912  1
  Fe  Fe54  1  0.73086608  0.55352186  0.10001881  1
  Fe  Fe55  1  0.18648579  0.74115790  0.27408822  1
  Fe  Fe56  1  0.33038224  0.27159167  0.53817456  1
  Fe  Fe57  1  0.10309204  0.05160621  0.92714182  1
  Fe  Fe58  1  0.71865181  1.00256512  -0.04304676  1
  Fe  Fe59  1  0.63560607  0.48433278  0.58241896  1
  Fe  Fe60  1  0.73413865  0.56838374  0.53659819  1
  Fe  Fe61  1  0.13940948  0.79821267  0.41614158  1
  Fe  Fe62  1  0.27600070  0.69738330  0.66941476  1
  Fe  Fe63  1  0.38415302  0.29150248  1.00309932  1
  Fe  Fe64  1  0.33098474  0.75474885  0.27078674  1
  Fe  Fe65  1  1.03640343  0.02321841  0.38715694  1
  Fe  Fe66  1  0.32576148  0.71344457  0.14331336  1
  Fe  Fe67  1  0.42136494  0.20864420  0.46248576  1
  Fe  Fe68  1  0.26305567  0.73783703  0.39593023  1
  Fe  Fe69  1  0.84948966  0.45656457  0.13182561  1
  Fe  Fe70  1  0.92307121  0.09516244  0.34344487  1
  Fe  Fe71  1  0.30342385  0.10104698  0.45760806  1
  Fe  Fe72  1  1.00224654  0.87870439  0.43090051  1
  Fe  Fe73  1  0.07014274  0.46261212  0.74944716  1
  Fe  Fe74  1  0.36288871  0.17082118  0.07793794  1
  Fe  Fe75  1  0.76101926  0.55579093  0.79983192  1
  Fe  Fe76  1  0.63012152  0.08471008  0.60219651  1
  Fe  Fe77  1  0.61475405  0.61577935  0.63929441  1
  Fe  Fe78  1  0.35531666  0.14750673  0.58047437  1
  Fe  Fe79  1  0.74294135  0.16748945  0.61072526  1
  Fe  Fe80  1  0.06222826  0.10134238  0.27580009  1
  Fe  Fe81  1  0.19537702  0.73220107  0.54319554  1
  Fe  Fe82  1  0.67906621  0.17345813  0.49704774  1
  Fe  Fe83  1  0.24798092  0.81268547  0.15933263  1
  Fe  Fe84  1  0.68246715  1.12403989  0.73983796  1
  Fe  Fe85  1  0.76266861  0.11978426  0.87448588  1
  Fe  Fe86  1  0.63906535  0.50619171  0.73427756  1
  Fe  Fe87  1  0.64479192  0.99373343  0.70431351  1
  Fe  Fe88  1  0.62729634  0.04320038  0.84961278  1
  Fe  Fe89  1  0.94714950  0.02977984  0.23387556  1
  Fe  Fe90  1  0.76616081  0.49717569  0.66183361  1
  Fe  Fe91  1  0.80515198  0.53903835  0.22498700  1
  Fe  Fe92  1  0.71821181  0.42949657  0.15257074  1
  Fe  Fe93  1  0.48508517  0.23428653  0.09018575  1
  Fe  Fe94  1  0.66819056  0.65121813  0.77960568  1
  Fe  Fe95  1  0.13027501  0.93192801  0.90026118  1
  Fe  Fe96  1  0.91825125  0.93722266  0.33881189  1
  Fe  Fe97  1  0.28604022  0.22393983  0.40825644  1
  Fe  Fe98  1  0.37680480  0.31408962  0.13234982  1
  Fe  Fe99  1  0.28732500  0.83204848  0.62879095  1
  Fe  Fe100  1  0.28239899  0.83697090  0.49026157  1
  Fe  Fe101  1  0.74251540  0.99386064  0.80980335  1
  Bi  Bi102  1  0.02851922  0.23692930  0.35865609  1
  Bi  Bi103  1  0.18489026  0.17927940  0.54194518  1
  Bi  Bi104  1  0.58874812  0.62819884  0.47583656  1
  Bi  Bi105  1  0.89607170  0.87630545  0.16978987  1
  Bi  Bi106  1  0.85133332  0.11656735  0.72921587  1
  Bi  Bi107  1  0.75170496  0.15742538  0.04075893  1
  Bi  Bi108  1  0.48024364  0.48362265  0.65185953  1
  Bi  Bi109  1  -0.09504305  0.46552457  0.78968807  1
  Bi  Bi110  1  0.62688403  0.54657223  -0.08601120  1
  Bi  Bi111  1  0.35952671  -0.02253703  0.56902421  1
  Bi  Bi112  1  0.14861302  0.60995592  0.41100021  1
  Bi  Bi113  1  0.81324927  0.36540966  0.27670700  1
  Bi  Bi114  1  0.02037485  0.74159035  0.52948239  1
  Bi  Bi115  1  0.16329813  0.66087402  0.11610042  1
  Bi  Bi116  1  0.89797609  0.61897564  0.09707213  1
  Bi  Bi117  1  0.19325262  0.40762546  0.85551430  1
  Bi  Bi118  1  0.42760071  0.81942901  0.39803685  1
  Bi  Bi119  1  0.37108593  0.14975580  0.90574349  1
  Bi  Bi120  1  0.12770660  0.39986709  0.13337129  1
  Bi  Bi121  1  0.12530270  0.61286624  0.68035140  1
  Bi  Bi122  1  0.57644752  0.26713438  0.40179999  1
  Bi  Bi123  1  0.06709419  0.34303960  0.63233576  1
  Bi  Bi124  1  0.82891273  0.57123668  0.39156251  1
  Bi  Bi125  1  0.93061101  0.89735610  0.60258675  1
  Bi  Bi126  1  0.65093036  0.86834518  0.06116265  1
  Bi  Bi127  1  0.10993728  0.05038775  0.76249967  1
