# generated using pymatgen
data_Ba51Fe51Bi26
_symmetry_space_group_name_H-M   'P 1'
_cell_length_a   16.38029813
_cell_length_b   16.82927498
_cell_length_c   16.23876819
_cell_angle_alpha   87.92229134
_cell_angle_beta   87.65248521
_cell_angle_gamma   91.64174292
_symmetry_Int_Tables_number   1
_chemical_formula_structural   Ba51Fe51Bi26
_chemical_formula_sum   'Ba51 Fe51 Bi26'
_cell_volume   4467.78411096
_cell_formula_units_Z   1
loop_
 _symmetry_equiv_pos_site_id
 _symmetry_equiv_pos_as_xyz
  1  'x, y, z'
loop_
 _atom_site_type_symbol
 _atom_site_label
 _atom_site_symmetry_multiplicity
 _atom_site_fract_x
 _atom_site_fract_y
 _atom_site_fract_z
 _atom_site_occupancy
  Ba  Ba0  1  0.73706026  -0.05985841  0.21423554  1
  Ba  Ba1  1  0.23415704  0.24020579  0.02995787  1
  Ba  Ba2  1  -0.04406479  0.47167984  0.19305615  1
  Ba  Ba3  1  0.02630441  0.83687800  -0.04686095  1
  Ba  Ba4  1  -0.07970741  0.31244279  -0.03731616  1
  Ba  Ba5  1  -0.09295890  0.04348750  -0.00470414  1
  Ba  Ba6  1  0.75871881  0.03503573  0.63753712  1
  Ba  Ba7  1  0.46876897  0.32332091  0.25623127  1
  Ba  Ba8  1  0.79215517  0.50650800  0.82870793  1
  Ba  Ba9  1  0.74763323  0.20551657  0.14777913  1
  Ba  Ba10  1  0.53397858  0.00202915  0.78813829  1
  Ba  Ba11  1  0.54496799  0.23030012  0.02765913  1
  Ba  Ba12  1  0.16993028  0.16149233  0.25421929  1
  Ba  Ba13  1  0.02034035  0.14733536  0.72196039  1
  Ba  Ba14  1  0.85534322  0.67858346  0.08084322  1
  Ba  Ba15  1  0.46145718  -0.01188789  0.06291042  1
  Ba  Ba16  1  -0.00818512  0.75947684  0.53447691  1
  Ba  Ba17  1  0.53593560  0.71510349  0.10020653  1
  Ba  Ba18  1  0.37785037  0.55630237  0.19128577  1
  Ba  Ba19  1  0.76285428  0.87189282  0.46132315  1
  Ba  Ba20  1  -0.01348210  0.51903980  0.45082546  1
  Ba  Ba21  1  0.31527946  0.75375748  0.50394558  1
  Ba  Ba22  1  0.02114144  0.55594994  -0.08299530  1
  Ba  Ba23  1  0.20000248  0.47704858  0.05106774  1
  Ba  Ba24  1  0.19508030  0.54114846  0.32922326  1
  Ba  Ba25  1  0.56260540  0.47626890  0.88052928  1
  Ba  Ba26  1  0.29696752  0.49180455  0.81647726  1
  Ba  Ba27  1  0.35426917  0.05601811  0.57513469  1
  Ba  Ba28  1  0.26912333  0.24525179  0.76620342  1
  Ba  Ba29  1  0.45236446  0.29579837  0.53465262  1
  Ba  Ba30  1  0.22773834  -0.00679737  -0.05689017  1
  Ba  Ba31  1  0.78184188  0.28011330  0.68779209  1
  Ba  Ba32  1  0.03243717  -0.02647894  0.20309529  1
  Ba  Ba33  1  0.74131001  -0.14661194  -0.06648727  1
  Ba  Ba34  1  0.18043378  0.30209702  0.45174321  1
  Ba  Ba35  1  0.01118899  0.01078830  0.45545390  1
  Ba  Ba36  1  0.76549683  0.49696579  0.55147725  1
  Ba  Ba37  1  0.53509303  0.26374220  0.76710981  1
  Ba  Ba38  1  -0.06200268  0.25259440  0.32624190  1
  Ba  Ba39  1  0.30111787  0.72538886  0.76983561  1
  Ba  Ba40  1  0.08452943  0.73991659  0.23706164  1
  Ba  Ba41  1  0.70899721  0.25409384  0.43989756  1
  Ba  Ba42  1  0.55339412  0.51338991  0.47221282  1
  Ba  Ba43  1  0.75577928  0.72605115  0.69834304  1
  Ba  Ba44  1  0.36009896  0.81275919  0.26935254  1
  Ba  Ba45  1  0.55075386  0.73730999  0.52799923  1
  Ba  Ba46  1  0.52540294  0.71430051  0.82236380  1
  Ba  Ba47  1  0.74865105  0.65870747  0.31276561  1
  Ba  Ba48  1  0.07253575  0.46078412  0.67928038  1
  Ba  Ba49  1  0.30765442  0.53311165  0.57869130  1
  Ba  Ba50  1  0.49934000  0.04379317  0.31003201  1
  Fe  Fe51  1  0.13793034  0.69714878  1.03303757  1
  Fe  Fe52  1  0.65718060  0.39160146  0.18358672  1
  Fe  Fe53  1  0.15971086  0.86209706  0.78875100  1
  Fe  Fe54  1  0.83721837  0.13581683  0.81920532  1
  Fe  Fe55  1  0.68300460  0.15140643  0.84421159  1
  Fe  Fe56  1  0.69126857  0.43832502  0.32520921  1
  Fe  Fe57  1  0.87452702  0.35687161  0.47797774  1
  Fe  Fe58  1  0.76528574  0.49818611  0.20460715  1
  Fe  Fe59  1  0.68134464  0.40045002  1.03586365  1
  Fe  Fe60  1  0.22402781  0.04598389  0.41038607  1
  Fe  Fe61  1  0.23748650  0.64679552  0.95818604  1
  Fe  Fe62  1  0.81999281  0.43918510  0.36007505  1
  Fe  Fe63  1  0.42235532  0.42681089  0.04865206  1
  Fe  Fe64  1  0.05816968  -0.04122752  0.78552125  1
  Fe  Fe65  1  0.60816782  0.42774357  0.66285527  1
  Fe  Fe66  1  0.14323736  0.64031187  0.48439501  1
  Fe  Fe67  1  0.13751548  0.80641588  0.65137206  1
  Fe  Fe68  1  0.30970261  0.03348129  0.28904922  1
  Fe  Fe69  1  0.57411788  0.91578830  0.43515058  1
  Fe  Fe70  1  0.66896092  0.52807932  0.09575350  1
  Fe  Fe71  1  0.83565078  0.07950950  0.43866817  1
  Fe  Fe72  1  0.11088327  -0.05678981  0.65196365  1
  Fe  Fe73  1  0.97540950  0.92445817  0.65856840  1
  Fe  Fe74  1  0.48080920  0.46150687  0.67772832  1
  Fe  Fe75  1  0.79473818  0.39439925  0.10942183  1
  Fe  Fe76  1  0.89786213  0.85295362  0.13708994  1
  Fe  Fe77  1  0.09136296  0.33184422  0.17345952  1
  Fe  Fe78  1  -0.02825056  0.33726687  0.55546416  1
  Fe  Fe79  1  0.09395508  0.37756164  0.29090344  1
  Fe  Fe80  1  0.22653183  0.79239077  -0.05237979  1
  Fe  Fe81  1  0.25297769  0.70147176  0.10115122  1
  Fe  Fe82  1  0.55233306  0.97502345  0.55058622  1
  Fe  Fe83  1  0.83269672  0.07687367  0.31210494  1
  Fe  Fe84  1  0.44426587  0.90834035  0.47345080  1
  Fe  Fe85  1  0.39659360  0.60801276  0.38835863  1
  Fe  Fe86  1  0.77393717  0.16549183  -0.06033932  1
  Fe  Fe87  1  0.19728897  0.94291359  0.33112442  1
  Fe  Fe88  1  0.34392873  0.72690559  0.99372563  1
  Fe  Fe89  1  0.15838176  0.66624427  0.60548439  1
  Fe  Fe90  1  0.50049409  0.66330832  0.32810450  1
  Fe  Fe91  1  0.78559816  0.35991509  0.25894447  1
  Fe  Fe92  1  0.74786522  1.03958899  0.85864329  1
  Fe  Fe93  1  0.54459732  0.44196944  1.09751101  1
  Fe  Fe94  1  0.60409839  0.55654365  0.68336497  1
  Fe  Fe95  1  0.32774030  0.94986521  0.40805259  1
  Fe  Fe96  1  0.79115903  0.50631256  1.03588345  1
  Fe  Fe97  1  1.01562853  0.82922672  0.74708368  1
  Fe  Fe98  1  0.47639889  0.59148589  0.67302809  1
  Fe  Fe99  1  0.31514341  0.83479367  0.06630630  1
  Fe  Fe100  1  0.18025101  0.82274851  0.08182245  1
  Fe  Fe101  1  0.25041891  -0.10468909  0.67345301  1
  Bi  Bi102  1  0.68567465  0.63809848  -0.04211621  1
  Bi  Bi103  1  0.39825492  0.86101528  -0.08875645  1
  Bi  Bi104  1  0.58210334  0.53764239  0.24629695  1
  Bi  Bi105  1  0.24179106  -0.04567718  0.15971121  1
  Bi  Bi106  1  0.18152544  -0.09596809  0.50241910  1
  Bi  Bi107  1  0.25076074  0.36163536  0.22231422  1
  Bi  Bi108  1  0.67934833  0.04965134  0.40612924  1
  Bi  Bi109  1  0.40084889  0.58152729  -0.02649611  1
  Bi  Bi110  1  0.20587704  0.04264835  0.73824835  1
  Bi  Bi111  1  0.08933578  0.68391988  0.75874888  1
  Bi  Bi112  1  0.58761472  0.80856138  0.30880221  1
  Bi  Bi113  1  0.71092297  0.31102127  -0.10329064  1
  Bi  Bi114  1  -0.11156475  -0.03327260  0.79902178  1
  Bi  Bi115  1  0.57274070  0.13415305  0.60268993  1
  Bi  Bi116  1  0.67949191  0.04251623  0.01873289  1
  Bi  Bi117  1  0.11727831  0.36094814  0.87234327  1
  Bi  Bi118  1  0.90702227  0.18620294  0.54013655  1
  Bi  Bi119  1  0.39872730  0.13140174  0.89760651  1
  Bi  Bi120  1  0.89730899  0.71501444  0.84688263  1
  Bi  Bi121  1  0.36498396  0.44299731  0.40275527  1
  Bi  Bi122  1  0.37616936  0.14757373  0.16841212  1
  Bi  Bi123  1  0.43014649  0.87105906  0.64673949  1
  Bi  Bi124  1  0.90341382  0.82617900  0.30438904  1
  Bi  Bi125  1  0.39317356  0.33678524  0.91785892  1
  Bi  Bi126  1  0.34156955  0.16971783  0.39006544  1
  Bi  Bi127  1  0.91584337  0.59197950  0.66369459  1
