# generated using pymatgen
data_Ba51Fe51Bi26
_symmetry_space_group_name_H-M   'P 1'
_cell_length_a   16.53444810
_cell_length_b   16.00002036
_cell_length_c   16.66545750
_cell_angle_alpha   90.24923213
_cell_angle_beta   89.66312116
_cell_angle_gamma   91.03299977
_symmetry_Int_Tables_number   1
_chemical_formula_structural   Ba51Fe51Bi26
_chemical_formula_sum   'Ba51 Fe51 Bi26'
_cell_volume   4408.03943961
_cell_formula_units_Z   1
loop_
 _symmetry_equiv_pos_site_id
 _symmetry_equiv_pos_as_xyz
  1  'x, y, z'
loop_
 _atom_site_type_symbol
 _atom_site_label
 _atom_site_symmetry_multiplicity
 _atom_site_fract_x
 _atom_site_fract_y
 _atom_site_fract_z
 _atom_site_occupancy
  Ba  Ba0  1  0.23984275  0.70074176  0.45559368  1
  Ba  Ba1  1  0.25581115  0.80369059  0.80436433  1
  Ba  Ba2  1  0.74517674  0.03578782  0.45210978  1
  Ba  Ba3  1  0.03355147  0.46221303  0.69422948  1
  Ba  Ba4  1  0.70673418  0.50004518  0.46587005  1
  Ba  Ba5  1  0.20448578  0.70581256  0.20331399  1
  Ba  Ba6  1  0.76147232  0.85980228  -0.04966644  1
  Ba  Ba7  1  0.02985750  0.02320614  0.15966298  1
  Ba  Ba8  1  0.67038112  0.28406681  0.66617947  1
  Ba  Ba9  1  0.27257453  0.51885555  0.64820255  1
  Ba  Ba10  1  0.80312988  0.74327535  0.67679316  1
  Ba  Ba11  1  0.22724114  0.20315596  0.46474816  1
  Ba  Ba12  1  -0.00566893  0.20932039  0.38807150  1
  Ba  Ba13  1  -0.06603815  -0.04171353  0.55788005  1
  Ba  Ba14  1  0.49424309  0.05290839  0.74381308  1
  Ba  Ba15  1  0.42381842  0.62420155  0.79579514  1
  Ba  Ba16  1  0.30263766  -0.04002605  0.58995914  1
  Ba  Ba17  1  0.20590168  -0.01624396  0.32490976  1
  Ba  Ba18  1  0.45509461  0.53778781  0.49408511  1
  Ba  Ba19  1  0.04026811  0.26264751  0.04880818  1
  Ba  Ba20  1  0.06219732  0.81266760  -0.01324604  1
  Ba  Ba21  1  0.75799723  0.62503552  -0.12547110  1
  Ba  Ba22  1  -0.01308697  0.52714234  -0.07389610  1
  Ba  Ba23  1  0.25525907  0.14859647  0.05753058  1
  Ba  Ba24  1  -0.02555895  0.61939834  0.45553408  1
  Ba  Ba25  1  0.82952581  0.25174922  0.18805246  1
  Ba  Ba26  1  0.55407026  0.50753320  0.23060638  1
  Ba  Ba27  1  0.64928892  0.54262895  0.68812028  1
  Ba  Ba28  1  0.54014429  0.02481641  0.00757454  1
  Ba  Ba29  1  0.82679060  0.09485092  -0.02743801  1
  Ba  Ba30  1  0.85029648  0.49418337  0.13824229  1
  Ba  Ba31  1  0.35785673  0.26928837  0.27653133  1
  Ba  Ba32  1  0.47568936  0.51030709  0.00120747  1
  Ba  Ba33  1  0.24790568  0.47123645  0.23603726  1
  Ba  Ba34  1  0.77698725  0.79439655  0.41888225  1
  Ba  Ba35  1  0.76780723  0.27909885  0.42001762  1
  Ba  Ba36  1  0.69521353  0.74377909  0.20594844  1
  Ba  Ba37  1  0.23047039  0.44721037  -0.02234646  1
  Ba  Ba38  1  -0.05371455  0.77392590  0.23135665  1
  Ba  Ba39  1  0.53511325  -0.09726879  0.54398993  1
  Ba  Ba40  1  0.05897121  0.23691488  0.62476099  1
  Ba  Ba41  1  0.76783139  0.00649446  0.73405551  1
  Ba  Ba42  1  0.05114483  0.72008192  0.67887092  1
  Ba  Ba43  1  0.31538814  0.30959286  0.78125658  1
  Ba  Ba44  1  0.56516394  0.73827883  0.01575671  1
  Ba  Ba45  1  0.67948672  0.38364838  -0.07724849  1
  Ba  Ba46  1  0.45715779  0.04088818  0.38036561  1
  Ba  Ba47  1  -0.11340757  0.25735004  0.79828794  1
  Ba  Ba48  1  0.58182586  0.21153875  0.25232921  1
  Ba  Ba49  1  0.43210213  0.84091388  0.21671323  1
  Ba  Ba50  1  0.19595349  0.08142531  0.80529438  1
  Fe  Fe51  1  0.04454277  0.42006100  0.35841638  1
  Fe  Fe52  1  0.93073572  0.80964617  0.83611128  1
  Fe  Fe53  1  0.87237792  0.55819672  0.73069425  1
  Fe  Fe54  1  0.45067120  0.74471898  0.43281645  1
  Fe  Fe55  1  0.70351913  0.60427923  0.05711974  1
  Fe  Fe56  1  0.09860030  0.02763621  0.47970116  1
  Fe  Fe57  1  0.09615369  0.92610258  0.67951016  1
  Fe  Fe58  1  0.32469235  0.80269059  0.04003242  1
  Fe  Fe59  1  0.95374941  0.88632975  0.73004361  1
  Fe  Fe60  1  0.89988492  0.44882653  0.33950751  1
  Fe  Fe61  1  0.41345910  0.31593358  0.97198889  1
  Fe  Fe62  1  0.40274407  0.34997936  0.10205512  1
  Fe  Fe63  1  0.44337327  0.26104375  0.45545237  1
  Fe  Fe64  1  0.83408636  0.43090034  0.64703569  1
  Fe  Fe65  1  0.14509805  0.52202445  0.39681394  1
  Fe  Fe66  1  0.84031342  0.05213122  0.16169966  1
  Fe  Fe67  1  0.96603677  0.38477823  0.24085470  1
  Fe  Fe68  1  0.53260688  0.24451774  0.95169426  1
  Fe  Fe69  1  0.72772164  0.06717617  0.26128299  1
  Fe  Fe70  1  0.71256578  0.07942213  0.12909621  1
  Fe  Fe71  1  0.81690120  0.94111922  0.26892236  1
  Fe  Fe72  1  0.37461887  0.31943675  0.56230408  1
  Fe  Fe73  1  0.47550612  0.24244809  0.61973366  1
  Fe  Fe74  1  0.48834447  0.82783025  0.72243314  1
  Fe  Fe75  1  0.37109797  0.66552525  0.08903213  1
  Fe  Fe76  1  0.53066827  0.33205961  0.07368519  1
  Fe  Fe77  1  0.56831593  0.79468415  0.38773687  1
  Fe  Fe78  1  0.53137877  0.35253450  0.53604647  1
  Fe  Fe79  1  0.38180589  0.70616411  0.96525330  1
  Fe  Fe80  1  0.12454850  0.90898813  0.54020810  1
  Fe  Fe81  1  0.09436666  0.34497669  0.23613087  1
  Fe  Fe82  1  0.54371536  0.34522454  0.40645025  1
  Fe  Fe83  1  0.60411747  0.87493279  0.79876655  1
  Fe  Fe84  1  0.41074012  0.14581669  0.53800067  1
  Fe  Fe85  1  0.92619056  -0.05462756  0.86341618  1
  Fe  Fe86  1  0.06307487  0.43852888  0.14591998  1
  Fe  Fe87  1  0.13165137  0.52599245  0.52503614  1
  Fe  Fe88  1  0.81288489  0.44802478  0.77744851  1
  Fe  Fe89  1  0.54652351  0.71734573  0.66838626  1
  Fe  Fe90  1  0.84147561  0.91969154  0.12991714  1
  Fe  Fe91  1  0.71620530  0.94754535  0.16022434  1
  Fe  Fe92  1  0.12298902  0.04624111  0.60497532  1
  Fe  Fe93  1  0.85073930  0.55717864  0.60084415  1
  Fe  Fe94  1  0.10359354  0.40021384  0.48675850  1
  Fe  Fe95  1  0.63623694  0.82468732  0.67919364  1
  Fe  Fe96  1  0.33453081  0.18857715  0.62994130  1
  Fe  Fe97  1  0.55046038  0.66324164  0.36490286  1
  Fe  Fe98  1  0.05578363  0.90963467  0.81796701  1
  Fe  Fe99  1  0.59831402  0.73767717  0.79832329  1
  Fe  Fe100  1  0.85844020  0.07838048  0.29278226  1
  Fe  Fe101  1  0.45270458  0.20710187  0.07168380  1
  Bi  Bi102  1  0.26987527  0.42320300  0.45409782  1
  Bi  Bi103  1  -0.00881270  0.05964457  0.73816355  1
  Bi  Bi104  1  0.04028593  0.56256968  0.25817808  1
  Bi  Bi105  1  0.45746490  0.84634506  0.88044273  1
  Bi  Bi106  1  0.58525204  0.17871505  0.49080966  1
  Bi  Bi107  1  0.22234006  0.66326289  -0.00200252  1
  Bi  Bi108  1  -0.02836385  -0.02875600  0.35620644  1
  Bi  Bi109  1  0.47143008  0.41483297  0.68205141  1
  Bi  Bi110  1  0.62045274  0.69603671  0.52192307  1
  Bi  Bi111  1  -0.07005223  0.40729441  0.50372523  1
  Bi  Bi112  1  0.62818635  -0.06998292  0.30627423  1
  Bi  Bi113  1  0.41732896  0.07615706  0.18161216  1
  Bi  Bi114  1  0.65984621  0.22164288  0.05921009  1
  Bi  Bi115  1  0.03902756  0.03853097  0.95011665  1
  Bi  Bi116  1  0.38223308  0.74065620  0.61070188  1
  Bi  Bi117  1  0.10081386  0.31288360  0.84566595  1
  Bi  Bi118  1  0.39670376  0.15553330  0.90215642  1
  Bi  Bi119  1  0.29560288  0.95066498  0.95932172  1
  Bi  Bi120  1  0.15635507  0.18892162  0.24715191  1
  Bi  Bi121  1  0.65906223  0.16771209  0.84892112  1
  Bi  Bi122  1  0.39148255  0.63935873  0.30468926  1
  Bi  Bi123  1  0.16311969  0.59757993  0.81677444  1
  Bi  Bi124  1  0.81069031  0.59836992  0.31606857  1
  Bi  Bi125  1  0.21835453  0.90701032  0.12736179  1
  Bi  Bi126  1  0.84856551  0.16922659  0.59087123  1
  Bi  Bi127  1  0.84951247  0.69177695  0.05275639  1
