# generated using pymatgen
data_Ba51Fe51Bi26
_symmetry_space_group_name_H-M   'P 1'
_cell_length_a   16.63611642
_cell_length_b   15.95070549
_cell_length_c   16.71025452
_cell_angle_alpha   88.55366243
_cell_angle_beta   87.20412919
_cell_angle_gamma   90.67530112
_symmetry_Int_Tables_number   1
_chemical_formula_structural   Ba51Fe51Bi26
_chemical_formula_sum   'Ba51 Fe51 Bi26'
_cell_volume   4427.13074643
_cell_formula_units_Z   1
loop_
 _symmetry_equiv_pos_site_id
 _symmetry_equiv_pos_as_xyz
  1  'x, y, z'
loop_
 _atom_site_type_symbol
 _atom_site_label
 _atom_site_symmetry_multiplicity
 _atom_site_fract_x
 _atom_site_fract_y
 _atom_site_fract_z
 _atom_site_occupancy
  Ba  Ba0  1  0.12212372  0.48490267  0.60194533  1
  Ba  Ba1  1  0.61865491  0.78196499  -0.10382604  1
  Ba  Ba2  1  0.22162389  0.04751464  0.48744288  1
  Ba  Ba3  1  0.84110747  0.32635312  0.15930955  1
  Ba  Ba4  1  0.22170085  0.70026045  0.46384200  1
  Ba  Ba5  1  0.39392503  0.14552030  0.83381459  1
  Ba  Ba6  1  0.27713879  0.71674044  0.69766839  1
  Ba  Ba7  1  0.27171163  -0.03808041  0.72674628  1
  Ba  Ba8  1  0.71022368  0.75502545  0.48904813  1
  Ba  Ba9  1  0.29344251  0.01877634  0.23542453  1
  Ba  Ba10  1  0.50360956  0.56410815  0.71272295  1
  Ba  Ba11  1  0.51926256  0.74642655  0.13686141  1
  Ba  Ba12  1  0.01654559  0.09950345  0.30845446  1
  Ba  Ba13  1  -0.14935623  0.78917148  -0.00535778  1
  Ba  Ba14  1  0.78111649  0.76636844  0.22750609  1
  Ba  Ba15  1  0.49961491  -0.02689845  0.01171652  1
  Ba  Ba16  1  0.51841948  0.21522531  0.53697668  1
  Ba  Ba17  1  0.46533262  -0.13082010  0.34229201  1
  Ba  Ba18  1  0.74685307  -0.00090128  0.51179343  1
  Ba  Ba19  1  0.28640252  0.22035380  0.64288097  1
  Ba  Ba20  1  0.41957760  0.56104516  0.30215906  1
  Ba  Ba21  1  0.69826124  0.47979039  0.31655662  1
  Ba  Ba22  1  0.01621709  0.20437861  0.76393667  1
  Ba  Ba23  1  0.65441959  0.01242844  0.74810892  1
  Ba  Ba24  1  0.73110158  0.03461892  0.24791356  1
  Ba  Ba25  1  0.37420733  0.71346171  -0.07627462  1
  Ba  Ba26  1  -0.01040920  0.01734079  0.55017863  1
  Ba  Ba27  1  0.70754047  0.13652918  0.04236994  1
  Ba  Ba28  1  0.70332188  0.31994040  0.69681713  1
  Ba  Ba29  1  0.54419291  0.36546990  -0.09558068  1
  Ba  Ba30  1  0.87034514  0.50456022  0.54979864  1
  Ba  Ba31  1  0.76748348  0.66364368  0.73455613  1
  Ba  Ba32  1  0.81041681  0.40876353  -0.09368392  1
  Ba  Ba33  1  0.67870253  0.56594226  0.07300731  1
  Ba  Ba34  1  -0.01901277  0.78046833  0.45655220  1
  Ba  Ba35  1  -0.12168592  -0.03708399  0.80065275  1
  Ba  Ba36  1  0.00725260  0.71342032  0.69073034  1
  Ba  Ba37  1  0.45503123  0.21024986  0.07832365  1
  Ba  Ba38  1  0.07446361  0.46086336  0.84302706  1
  Ba  Ba39  1  0.48143199  0.69869859  0.52544549  1
  Ba  Ba40  1  0.25076275  0.54616529  0.11553727  1
  Ba  Ba41  1  0.82503817  0.25592102  0.45369000  1
  Ba  Ba42  1  0.31449046  0.46150097  0.80791036  1
  Ba  Ba43  1  0.08607433  0.78524907  -0.10900789  1
  Ba  Ba44  1  0.53671754  0.25815366  0.29517480  1
  Ba  Ba45  1  0.17199985  0.73657589  0.23715923  1
  Ba  Ba46  1  0.00615545  0.90166909  0.17582933  1
  Ba  Ba47  1  0.20321425  0.30800393  0.26169279  1
  Ba  Ba48  1  -0.00347670  0.53720279  0.32788439  1
  Ba  Ba49  1  0.21879146  -0.01919098  -0.00741485  1
  Ba  Ba50  1  -0.03104919  0.10541548  0.00259145  1
  Fe  Fe51  1  1.08415361  0.61119923  0.99891311  1
  Fe  Fe52  1  1.04337530  0.23930612  0.44698907  1
  Fe  Fe53  1  0.15572488  0.39361089  0.43136683  1
  Fe  Fe54  1  0.43861179  0.55889938  0.08541177  1
  Fe  Fe55  1  0.05379991  0.57120990  1.13482878  1
  Fe  Fe56  1  0.34070614  0.30812072  0.94261553  1
  Fe  Fe57  1  0.91777543  0.53265068  0.74265220  1
  Fe  Fe58  1  0.23064316  0.39166786  0.97468798  1
  Fe  Fe59  1  0.08813536  0.90504899  0.69198531  1
  Fe  Fe60  1  0.66830309  0.90398906  0.10669442  1
  Fe  Fe61  1  0.15496564  0.85847052  0.59317414  1
  Fe  Fe62  1  0.49484500  0.06189749  0.25022908  1
  Fe  Fe63  1  0.50191496  0.89624089  0.52872109  1
  Fe  Fe64  1  1.03053631  0.26590800  0.15074896  1
  Fe  Fe65  1  0.56904911  0.53959212  0.45313380  1
  Fe  Fe66  1  0.35790677  0.41630625  0.59637549  1
  Fe  Fe67  1  0.51309865  0.45060944  0.07674315  1
  Fe  Fe68  1  0.29040883  0.33134824  0.07980283  1
  Fe  Fe69  1  0.56286039  0.01485325  0.56149167  1
  Fe  Fe70  1  0.13991806  0.31483762  0.07362198  1
  Fe  Fe71  1  0.50534335  0.42973377  0.56148056  1
  Fe  Fe72  1  0.52556336  0.41566540  0.41330139  1
  Fe  Fe73  1  0.05802782  0.73315872  0.08110596  1
  Fe  Fe74  1  0.48707420  0.54883224  0.96216703  1
  Fe  Fe75  1  0.23874515  0.22560768  0.00303678  1
  Fe  Fe76  1  0.97111322  0.68348539  0.17601658  1
  Fe  Fe77  1  0.17827422  0.24122889  0.44320979  1
  Fe  Fe78  1  0.42837255  1.02557488  0.50505275  1
  Fe  Fe79  1  1.02503760  0.37308479  0.45642676  1
  Fe  Fe80  1  0.62933779  0.40569262  0.49328646  1
  Fe  Fe81  1  0.38159092  0.43626880  1.01101442  1
  Fe  Fe82  1  0.28246472  0.48267617  0.47091710  1
  Fe  Fe83  1  0.91092713  0.40468446  0.72835514  1
  Fe  Fe84  1  0.18479109  0.72005126  0.04201938  1
  Fe  Fe85  1  0.10729711  0.45861988  1.03108601  1
  Fe  Fe86  1  0.58519535  0.87979680  0.63016106  1
  Fe  Fe87  1  0.96915668  0.49795459  1.03899787  1
  Fe  Fe88  1  0.41966652  0.07266096  0.37345848  1
  Fe  Fe89  1  0.32861890  0.54821217  0.58104922  1
  Fe  Fe90  1  0.94631310  0.63920403  0.05284842  1
  Fe  Fe91  1  0.46256476  -0.01271927  0.64865327  1
  Fe  Fe92  1  0.53793284  0.78096137  0.71464644  1
  Fe  Fe93  1  0.42538812  0.51566874  0.48629458  1
  Fe  Fe94  1  0.39756573  0.37707091  0.46252819  1
  Fe  Fe95  1  0.79995829  0.95792993  0.07673469  1
  Fe  Fe96  1  0.11850470  0.29334525  0.55245055  1
  Fe  Fe97  1  0.56099555  -0.03477682  0.18940787  1
  Fe  Fe98  1  1.03514049  0.41080330  0.14907289  1
  Fe  Fe99  1  0.43992989  0.84295528  0.65913776  1
  Fe  Fe100  1  0.71653960  0.93728264  0.98580288  1
  Fe  Fe101  1  0.26053242  0.34334304  0.50788520  1
  Bi  Bi102  1  0.92756862  0.61376028  0.88943986  1
  Bi  Bi103  1  0.34381490  0.21900642  0.41186364  1
  Bi  Bi104  1  0.59965722  0.67475495  0.32934875  1
  Bi  Bi105  1  -0.01275450  0.32723492  -0.00331192  1
  Bi  Bi106  1  0.46470010  0.33746824  0.70598483  1
  Bi  Bi107  1  0.39653619  0.39164832  0.18407599  1
  Bi  Bi108  1  -0.04183864  0.31394320  0.59637688  1
  Bi  Bi109  1  -0.14023611  0.55164241  0.17409769  1
  Bi  Bi110  1  0.57845098  0.05205943  0.39692093  1
  Bi  Bi111  1  0.20868018  0.27007268  -0.15524177  1
  Bi  Bi112  1  -0.01534230  0.31912495  0.30563330  1
  Bi  Bi113  1  0.20543401  0.53166045  0.33383660  1
  Bi  Bi114  1  0.45833228  -0.09387989  0.81306403  1
  Bi  Bi115  1  0.87023475  0.92276840  0.35280190  1
  Bi  Bi116  1  0.59136268  0.15922119  0.88318309  1
  Bi  Bi117  1  0.12931587  0.91069806  0.35864563  1
  Bi  Bi118  1  0.31833865  0.82084515  0.09746314  1
  Bi  Bi119  1  0.13878883  0.13212595  0.12567513  1
  Bi  Bi120  1  0.64072865  0.34455781  0.10854271  1
  Bi  Bi121  1  0.63466461  0.56249204  0.87305155  1
  Bi  Bi122  1  0.82668525  0.13417204  0.65377980  1
  Bi  Bi123  1  0.33152216  0.86761590  0.53900899  1
  Bi  Bi124  1  0.80731258  0.17405272  0.84870364  1
  Bi  Bi125  1  0.08336527  0.00023765  0.83149451  1
  Bi  Bi126  1  0.84960747  0.84274635  0.62476615  1
  Bi  Bi127  1  0.66934416  0.54743461  0.58009804  1
