# generated using pymatgen
data_Ba51Fe51Bi26
_symmetry_space_group_name_H-M   'P 1'
_cell_length_a   16.59821502
_cell_length_b   15.90933871
_cell_length_c   16.36100645
_cell_angle_alpha   94.06591460
_cell_angle_beta   90.78689934
_cell_angle_gamma   89.28573594
_symmetry_Int_Tables_number   1
_chemical_formula_structural   Ba51Fe51Bi26
_chemical_formula_sum   'Ba51 Fe51 Bi26'
_cell_volume   4308.82943731
_cell_formula_units_Z   1
loop_
 _symmetry_equiv_pos_site_id
 _symmetry_equiv_pos_as_xyz
  1  'x, y, z'
loop_
 _atom_site_type_symbol
 _atom_site_label
 _atom_site_symmetry_multiplicity
 _atom_site_fract_x
 _atom_site_fract_y
 _atom_site_fract_z
 _atom_site_occupancy
  Ba  Ba0  1  0.84124843  0.65493870  0.50010068  1
  Ba  Ba1  1  0.57608258  0.01654410  0.19847578  1
  Ba  Ba2  1  0.13760332  0.71303169  0.08579327  1
  Ba  Ba3  1  0.83984227  0.62472223  0.80776445  1
  Ba  Ba4  1  0.74275942  0.52161775  0.27246010  1
  Ba  Ba5  1  0.38902427  0.21441261  0.54633424  1
  Ba  Ba6  1  0.06805278  0.34765195  0.02608561  1
  Ba  Ba7  1  0.15087031  0.10395729  0.20622793  1
  Ba  Ba8  1  0.41779398  0.37368441  0.21074028  1
  Ba  Ba9  1  0.61029239  0.09315515  0.46287409  1
  Ba  Ba10  1  0.17270386  0.04661138  0.68393939  1
  Ba  Ba11  1  0.80016834  -0.10606235  0.13102425  1
  Ba  Ba12  1  -0.01245588  -0.05274565  0.29700671  1
  Ba  Ba13  1  -0.01136093  -0.13721607  0.73818560  1
  Ba  Ba14  1  0.50584636  0.72387021  0.06627516  1
  Ba  Ba15  1  0.10349905  0.06510630  -0.07261053  1
  Ba  Ba16  1  0.05466640  0.47861353  0.51651044  1
  Ba  Ba17  1  0.61188352  0.38633428  0.44543743  1
  Ba  Ba18  1  0.39459720  0.50639454  0.51529173  1
  Ba  Ba19  1  0.82303531  -0.04650587  -0.09891249  1
  Ba  Ba20  1  -0.15351188  0.28285941  0.76356822  1
  Ba  Ba21  1  -0.12600101  0.20830224  -0.01675506  1
  Ba  Ba22  1  0.80555447  -0.10013429  0.52855870  1
  Ba  Ba23  1  0.29155637  0.76463827  0.50246084  1
  Ba  Ba24  1  0.76564526  0.58813768  0.03835497  1
  Ba  Ba25  1  0.17402867  0.56226095  0.29690142  1
  Ba  Ba26  1  0.25895876  0.83122422  0.23761577  1
  Ba  Ba27  1  0.81535008  0.21131053  0.45798202  1
  Ba  Ba28  1  0.09998619  0.69774599  0.86469439  1
  Ba  Ba29  1  0.28486316  0.24963249  0.04371495  1
  Ba  Ba30  1  0.51710928  0.87932953  0.57212572  1
  Ba  Ba31  1  0.27698285  0.85159324  0.75709829  1
  Ba  Ba32  1  0.63675114  0.80623379  0.34672473  1
  Ba  Ba33  1  0.64076679  0.66844402  0.65423755  1
  Ba  Ba34  1  0.46287103  0.24146349  0.84888214  1
  Ba  Ba35  1  -0.05725644  0.69653321  0.20377704  1
  Ba  Ba36  1  0.20451521  -0.01905296  0.43613299  1
  Ba  Ba37  1  0.55770520  0.03475682  -0.10502101  1
  Ba  Ba38  1  0.34710420  -0.03480488  0.05561960  1
  Ba  Ba39  1  -0.01485388  0.06553855  0.54370447  1
  Ba  Ba40  1  0.50616209  0.80468268  0.82533156  1
  Ba  Ba41  1  0.45360371  0.64349938  0.28956413  1
  Ba  Ba42  1  0.42662544  0.50117599  -0.04687477  1
  Ba  Ba43  1  0.18376874  0.26444126  0.43369362  1
  Ba  Ba44  1  0.04797220  0.43490945  0.76329240  1
  Ba  Ba45  1  0.63556272  0.30183237  0.08921171  1
  Ba  Ba46  1  0.53013820  0.49454975  0.73235285  1
  Ba  Ba47  1  0.23800955  0.27857009  0.79316079  1
  Ba  Ba48  1  0.82350367  0.16405085  0.22124514  1
  Ba  Ba49  1  0.26759118  0.57409684  0.74642490  1
  Ba  Ba50  1  0.64003805  0.28027714  0.67238313  1
  Fe  Fe51  1  0.00253117  0.43875613  0.20242763  1
  Fe  Fe52  1  0.31961357  0.64451564  0.07669536  1
  Fe  Fe53  1  0.61598382  0.37433369  0.86334672  1
  Fe  Fe54  1  0.39330523  1.00771315  0.44714370  1
  Fe  Fe55  1  1.03106676  0.88539176  0.97034105  1
  Fe  Fe56  1  0.06056438  0.53745562  0.11360475  1
  Fe  Fe57  1  0.16549512  0.87004842  0.97203710  1
  Fe  Fe58  1  0.62058665  0.47653732  -0.03726835  1
  Fe  Fe59  1  0.72732696  0.50214284  0.56634044  1
  Fe  Fe60  1  0.31984185  0.11528046  0.35925491  1
  Fe  Fe61  1  0.93713468  0.49541339  0.08337364  1
  Fe  Fe62  1  0.00536804  0.28581131  0.21048198  1
  Fe  Fe63  1  0.86664431  0.50263425  0.62617184  1
  Fe  Fe64  1  0.11034067  0.85261104  0.54497533  1
  Fe  Fe65  1  0.39867102  0.86363660  0.37688418  1
  Fe  Fe66  1  0.04909560  0.37280243  0.32689266  1
  Fe  Fe67  1  0.99770404  0.83759131  0.45404810  1
  Fe  Fe68  1  0.40726501  0.24212614  0.35088578  1
  Fe  Fe69  1  0.68584398  1.04661926  0.62837993  1
  Fe  Fe70  1  0.12952777  0.75488096  0.63696036  1
  Fe  Fe71  1  0.39897816  0.13400500  0.22466512  1
  Fe  Fe72  1  0.38521469  0.37200041  0.69214897  1
  Fe  Fe73  1  0.70738769  0.48094590  0.83495310  1
  Fe  Fe74  1  0.35759888  0.10708899  0.70382650  1
  Fe  Fe75  1  0.37543338  0.98966823  0.28705535  1
  Fe  Fe76  1  1.01560021  0.69800868  0.40675108  1
  Fe  Fe77  1  0.25150279  0.59409500  0.96275249  1
  Fe  Fe78  1  0.11741243  0.78660643  0.39992271  1
  Fe  Fe79  1  0.91751493  0.35984829  0.30896933  1
  Fe  Fe80  1  1.00785668  0.86212858  0.09823304  1
  Fe  Fe81  1  0.45671811  0.10500206  0.35420425  1
  Fe  Fe82  1  0.21727157  0.46509705  0.91463808  1
  Fe  Fe83  1  0.73692379  0.38068444  -0.07270461  1
  Fe  Fe84  1  0.11297124  0.53336813  0.97579371  1
  Fe  Fe85  1  0.80324164  0.10824470  0.64546263  1
  Fe  Fe86  1  0.80899175  -0.00792100  0.71034756  1
  Fe  Fe87  1  0.67044939  0.95052511  0.72174653  1
  Fe  Fe88  1  0.12402497  0.92940037  0.08926317  1
  Fe  Fe89  1  0.12813136  0.25084857  0.62678018  1
  Fe  Fe90  1  0.99989118  0.75940453  0.55644118  1
  Fe  Fe91  1  0.36418388  1.01085328  0.59674674  1
  Fe  Fe92  1  0.40994942  0.99071189  0.73474134  1
  Fe  Fe93  1  0.70656780  0.09549572  0.75974535  1
  Fe  Fe94  1  0.49738334  0.95302149  0.36714808  1
  Fe  Fe95  1  0.45247188  0.85969024  0.25691184  1
  Fe  Fe96  1  0.30118013  0.22059557  0.27053202  1
  Fe  Fe97  1  0.05076503  0.21223969  0.71799372  1
  Fe  Fe98  1  0.98066847  0.58229226  0.99367635  1
  Fe  Fe99  1  0.73854382  0.46576517  0.69643879  1
  Fe  Fe100  1  0.11009699  0.68798227  0.51028762  1
  Fe  Fe101  1  0.81478863  0.37903392  0.59846232  1
  Bi  Bi102  1  0.52787632  0.09023123  0.67579787  1
  Bi  Bi103  1  0.77944785  -0.18309973  0.72161951  1
  Bi  Bi104  1  -0.03555267  0.54197291  0.33851397  1
  Bi  Bi105  1  0.56473427  0.22580080  0.29522895  1
  Bi  Bi106  1  0.89431439  0.44312447  -0.08080181  1
  Bi  Bi107  1  -0.14776129  0.36659474  0.14715799  1
  Bi  Bi108  1  -0.07944729  0.75182377  -0.01187297  1
  Bi  Bi109  1  0.24612718  0.48903516  0.09165109  1
  Bi  Bi110  1  0.17901655  0.33036926  0.22551821  1
  Bi  Bi111  1  0.00698934  0.63443855  0.66804251  1
  Bi  Bi112  1  -0.02820735  0.29598609  0.59247039  1
  Bi  Bi113  1  0.82861858  0.43102953  0.44422353  1
  Bi  Bi114  1  0.68023606  0.21654881  -0.11708113  1
  Bi  Bi115  1  0.00039351  0.18797746  0.34824637  1
  Bi  Bi116  1  0.61469062  0.60614163  0.44538078  1
  Bi  Bi117  1  0.77269852  -0.00809088  0.34096029  1
  Bi  Bi118  1  0.94965406  0.08278546  0.76624390  1
  Bi  Bi119  1  0.71304178  0.07676112  0.04998055  1
  Bi  Bi120  1  0.46724374  0.15836700  0.06971314  1
  Bi  Bi121  1  0.96945338  0.02891334  0.08856722  1
  Bi  Bi122  1  0.42028249  0.68706137  0.65737508  1
  Bi  Bi123  1  0.56805175  0.52206279  0.12784100  1
  Bi  Bi124  1  0.31236206  0.07082435  0.86403615  1
  Bi  Bi125  1  0.61652212  0.63133463  0.88644777  1
  Bi  Bi126  1  0.23976514  0.39024471  0.61366852  1
  Bi  Bi127  1  0.31857003  0.75251459  0.94499210  1
