# generated using pymatgen
data_Ba51Fe51Bi26
_symmetry_space_group_name_H-M   'P 1'
_cell_length_a   16.86000572
_cell_length_b   16.20505525
_cell_length_c   16.04574666
_cell_angle_alpha   89.44689883
_cell_angle_beta   90.61079669
_cell_angle_gamma   91.23550021
_symmetry_Int_Tables_number   1
_chemical_formula_structural   Ba51Fe51Bi26
_chemical_formula_sum   'Ba51 Fe51 Bi26'
_cell_volume   4382.51300168
_cell_formula_units_Z   1
loop_
 _symmetry_equiv_pos_site_id
 _symmetry_equiv_pos_as_xyz
  1  'x, y, z'
loop_
 _atom_site_type_symbol
 _atom_site_label
 _atom_site_symmetry_multiplicity
 _atom_site_fract_x
 _atom_site_fract_y
 _atom_site_fract_z
 _atom_site_occupancy
  Ba  Ba0  1  0.50872089  0.02984948  0.75332893  1
  Ba  Ba1  1  -0.02251997  0.24034912  -0.12294554  1
  Ba  Ba2  1  0.36439169  0.47916649  0.00018614  1
  Ba  Ba3  1  -0.02834322  0.84400387  0.65869704  1
  Ba  Ba4  1  0.42804969  0.29764383  0.19848613  1
  Ba  Ba5  1  0.60361602  0.76314716  0.79734570  1
  Ba  Ba6  1  0.72667355  0.78553929  0.28491303  1
  Ba  Ba7  1  0.06135068  0.05841639  0.12952425  1
  Ba  Ba8  1  0.39060861  0.45217329  0.59816090  1
  Ba  Ba9  1  0.20571516  0.49599199  0.73701986  1
  Ba  Ba10  1  0.72676619  0.29602727  -0.01811507  1
  Ba  Ba11  1  0.30539290  0.05142750  0.31176583  1
  Ba  Ba12  1  0.53201124  0.39442065  0.83967163  1
  Ba  Ba13  1  -0.08777711  0.79715811  0.09777617  1
  Ba  Ba14  1  0.13047625  0.43757529  0.07601343  1
  Ba  Ba15  1  0.85463243  0.44501616  0.59297756  1
  Ba  Ba16  1  0.27907052  -0.01390402  0.06305854  1
  Ba  Ba17  1  0.73874626  0.56334407  0.81809722  1
  Ba  Ba18  1  -0.00290275  0.28153486  0.19832665  1
  Ba  Ba19  1  0.69916769  0.06326452  -0.07871730  1
  Ba  Ba20  1  0.22933855  0.78162469  0.70524770  1
  Ba  Ba21  1  0.37804828  0.75511385  0.00062626  1
  Ba  Ba22  1  0.60045500  0.61963412  0.01294097  1
  Ba  Ba23  1  0.63233137  0.49759609  0.51863428  1
  Ba  Ba24  1  0.28196422  0.00684521  0.81932547  1
  Ba  Ba25  1  0.54428192  0.55997212  0.27123553  1
  Ba  Ba26  1  0.55939617  0.16312363  0.35703787  1
  Ba  Ba27  1  0.53740161  0.25441726  0.58427906  1
  Ba  Ba28  1  -0.09894496  0.01254498  0.83573311  1
  Ba  Ba29  1  -0.03766469  0.28270540  0.44426195  1
  Ba  Ba30  1  0.28110671  0.50722559  0.29312363  1
  Ba  Ba31  1  0.29524300  0.25963689  0.44762828  1
  Ba  Ba32  1  0.15887921  0.72385130  0.40398025  1
  Ba  Ba33  1  -0.00887987  -0.10796811  0.31702291  1
  Ba  Ba34  1  0.71509226  0.84615705  0.03095495  1
  Ba  Ba35  1  -0.02479456  0.50349967  -0.16424473  1
  Ba  Ba36  1  0.75568431  0.44887443  0.17795078  1
  Ba  Ba37  1  0.20578547  0.23351270  0.73779766  1
  Ba  Ba38  1  0.24926014  0.22365003  0.02131795  1
  Ba  Ba39  1  0.36275594  0.77111495  0.25485606  1
  Ba  Ba40  1  0.51778986  -0.02310603  0.08969394  1
  Ba  Ba41  1  0.73654643  -0.06730303  0.64619798  1
  Ba  Ba42  1  0.16886331  0.63662041  -0.08991061  1
  Ba  Ba43  1  0.10887095  0.47622016  0.51367649  1
  Ba  Ba44  1  0.51418463  -0.10481814  0.38372853  1
  Ba  Ba45  1  -0.03877914  0.05717518  0.52505505  1
  Ba  Ba46  1  -0.08204633  0.65628045  0.49136272  1
  Ba  Ba47  1  0.75721547  0.19937961  0.25723900  1
  Ba  Ba48  1  -0.07653242  0.60240781  0.23369603  1
  Ba  Ba49  1  0.19828060  0.01419454  0.55292838  1
  Ba  Ba50  1  0.42590511  0.69018375  0.52652511  1
  Fe  Fe51  1  0.10158366  0.60095556  0.18042580  1
  Fe  Fe52  1  0.19296587  0.77245874  0.06940114  1
  Fe  Fe53  1  0.81862877  0.22104439  0.57057212  1
  Fe  Fe54  1  0.39842146  0.21269928  -0.09806936  1
  Fe  Fe55  1  0.21502500  0.62645297  0.10344159  1
  Fe  Fe56  1  0.61202791  0.69247041  0.43505683  1
  Fe  Fe57  1  0.70076410  0.13786937  0.64555819  1
  Fe  Fe58  1  0.83511783  0.98087120  0.19884017  1
  Fe  Fe59  1  0.93464675  0.82287257  0.88415102  1
  Fe  Fe60  1  0.00524467  -0.07315880  0.97866374  1
  Fe  Fe61  1  0.73017833  0.69818136  0.49235953  1
  Fe  Fe62  1  0.42894962  0.15441275  0.04942218  1
  Fe  Fe63  1  0.06103418  0.78907277  0.96050348  1
  Fe  Fe64  1  0.81010892  0.41947548  0.37428411  1
  Fe  Fe65  1  0.11088234  -0.00523349  0.93121246  1
  Fe  Fe66  1  0.48011296  0.27640985  0.00241345  1
  Fe  Fe67  1  0.74813029  1.03760051  0.10764414  1
  Fe  Fe68  1  0.16037468  0.31461910  0.30674573  1
  Fe  Fe69  1  0.38822193  0.51542728  0.79566896  1
  Fe  Fe70  1  0.38287414  0.62905164  0.71641057  1
  Fe  Fe71  1  0.24026945  0.32905398  0.20177672  1
  Fe  Fe72  1  0.07083387  0.88721385  0.83924881  1
  Fe  Fe73  1  0.19722005  0.70633631  0.20739768  1
  Fe  Fe74  1  0.46565696  0.61280030  0.85287745  1
  Fe  Fe75  1  0.66162640  0.82594415  0.49101645  1
  Fe  Fe76  1  0.62479391  0.71111240  0.58577890  1
  Fe  Fe77  1  0.87304966  -0.01532843  0.04552483  1
  Fe  Fe78  1  0.07370294  0.68472044  0.06618377  1
  Fe  Fe79  1  0.42550592  0.08394900  0.93400660  1
  Fe  Fe80  1  0.41747329  0.06472453  0.49051953  1
  Fe  Fe81  1  0.92425048  0.47193642  0.38388766  1
  Fe  Fe82  1  0.98671339  0.57422998  0.04897594  1
  Fe  Fe83  1  0.69908925  0.95398921  0.42593938  1
  Fe  Fe84  1  -0.10851638  0.25317947  0.68627471  1
  Fe  Fe85  1  0.09517193  0.86918423  0.08011571  1
  Fe  Fe86  1  0.03747466  0.73971197  0.81727895  1
  Fe  Fe87  1  0.19866899  0.20542741  0.22349866  1
  Fe  Fe88  1  0.78811203  0.18967067  0.76921118  1
  Fe  Fe89  1  0.33936134  0.65187246  0.83886652  1
  Fe  Fe90  1  0.80508912  -0.01155966  0.34835537  1
  Fe  Fe91  1  0.81396094  0.80475733  0.80071997  1
  Fe  Fe92  1  0.90620535  0.69467371  0.79082259  1
  Fe  Fe93  1  0.53700649  0.16965837  0.93616806  1
  Fe  Fe94  1  -0.04147945  0.67528777  0.94124829  1
  Fe  Fe95  1  0.83368679  0.11569296  0.66168485  1
  Fe  Fe96  1  0.73820945  0.27811702  0.66270367  1
  Fe  Fe97  1  0.17008847  0.86838587  0.94521999  1
  Fe  Fe98  1  0.82115912  0.72747963  0.90847783  1
  Fe  Fe99  1  0.08052230  0.75693374  0.18716514  1
  Fe  Fe100  1  0.86343719  0.10534279  0.10352112  1
  Fe  Fe101  1  0.41152164  0.96226877  0.57502338  1
  Bi  Bi102  1  0.75144721  0.58022283  0.36349990  1
  Bi  Bi103  1  0.92728348  0.09463736  0.29422595  1
  Bi  Bi104  1  0.05979837  0.64180121  0.67049654  1
  Bi  Bi105  1  0.62258224  0.21160769  0.78570375  1
  Bi  Bi106  1  0.59159605  0.17730462  0.10432763  1
  Bi  Bi107  1  0.54184486  0.57787607  0.69768847  1
  Bi  Bi108  1  0.08796208  0.04142837  0.74870268  1
  Bi  Bi109  1  0.81564722  0.60941357  0.03132669  1
  Bi  Bi110  1  0.76449028  0.10138090  0.47278764  1
  Bi  Bi111  1  0.78168245  0.70573656  0.66018213  1
  Bi  Bi112  1  0.71892557  0.30747941  0.46482786  1
  Bi  Bi113  1  0.57657909  0.04495381  0.54033412  1
  Bi  Bi114  1  0.18342003  0.88574568  0.23217474  1
  Bi  Bi115  1  0.81276005  0.36322845  0.79482949  1
  Bi  Bi116  1  0.12689470  0.14728601  0.37373710  1
  Bi  Bi117  1  1.07283956  0.46539871  0.30003382  1
  Bi  Bi118  1  0.53388033  0.85079822  0.61456861  1
  Bi  Bi119  1  0.55945360  0.41893734  1.07100070  1
  Bi  Bi120  1  0.35645439  0.12963999  0.63612486  1
  Bi  Bi121  1  0.92237563  0.41013874  0.03866344  1
  Bi  Bi122  1  0.66559488  -0.00912988  0.25127362  1
  Bi  Bi123  1  0.03737014  0.34500624  0.67578290  1
  Bi  Bi124  1  0.46204055  0.39256988  0.39952900  1
  Bi  Bi125  1  0.31694182  0.86878450  0.46422512  1
  Bi  Bi126  1  0.54653311  0.76567003  0.15854916  1
  Bi  Bi127  1  0.83755825  0.85925209  0.46573474  1
