# generated using pymatgen
data_Ba51Fe51Bi26
_symmetry_space_group_name_H-M   'P 1'
_cell_length_a   16.15815005
_cell_length_b   16.13098860
_cell_length_c   16.64102724
_cell_angle_alpha   90.38184690
_cell_angle_beta   90.15105112
_cell_angle_gamma   88.37139827
_symmetry_Int_Tables_number   1
_chemical_formula_structural   Ba51Fe51Bi26
_chemical_formula_sum   'Ba51 Fe51 Bi26'
_cell_volume   4335.57136032
_cell_formula_units_Z   1
loop_
 _symmetry_equiv_pos_site_id
 _symmetry_equiv_pos_as_xyz
  1  'x, y, z'
loop_
 _atom_site_type_symbol
 _atom_site_label
 _atom_site_symmetry_multiplicity
 _atom_site_fract_x
 _atom_site_fract_y
 _atom_site_fract_z
 _atom_site_occupancy
  Ba  Ba0  1  0.00342916  -0.06309753  0.31242506  1
  Ba  Ba1  1  0.77442090  0.51254705  0.56381557  1
  Ba  Ba2  1  0.55605339  0.53062873  0.43710106  1
  Ba  Ba3  1  -0.06755725  0.91471337  -0.09281644  1
  Ba  Ba4  1  0.91866365  0.25077095  0.54691556  1
  Ba  Ba5  1  0.40875604  0.70702823  0.76885810  1
  Ba  Ba6  1  0.19383085  0.20582823  0.73932939  1
  Ba  Ba7  1  0.30008350  -0.06375154  0.19887848  1
  Ba  Ba8  1  0.39286595  0.33368523  0.05668435  1
  Ba  Ba9  1  0.40395646  0.32175736  0.45968002  1
  Ba  Ba10  1  0.67584655  0.10978067  0.05400551  1
  Ba  Ba11  1  -0.06425641  0.11693723  0.08739127  1
  Ba  Ba12  1  0.18980698  0.57307393  0.48150537  1
  Ba  Ba13  1  0.28053832  -0.06272321  0.47159930  1
  Ba  Ba14  1  0.17243935  0.19937186  0.50603722  1
  Ba  Ba15  1  0.81199818  0.75011225  0.50202191  1
  Ba  Ba16  1  0.45049198  0.25807942  0.70368787  1
  Ba  Ba17  1  0.31653804  0.20247734  0.25788923  1
  Ba  Ba18  1  0.76874660  -0.00975432  0.51876483  1
  Ba  Ba19  1  0.51020041  0.50282716  0.19630172  1
  Ba  Ba20  1  0.74825825  0.40987738  0.32180651  1
  Ba  Ba21  1  0.51492895  0.59349151  -0.03369591  1
  Ba  Ba22  1  0.53577191  -0.09888665  0.07594812  1
  Ba  Ba23  1  0.52315404  0.04046415  0.55096484  1
  Ba  Ba24  1  0.74362277  0.05001882  0.75835713  1
  Ba  Ba25  1  0.82725353  0.43784810  -0.06191856  1
  Ba  Ba26  1  0.52025074  -0.05476341  0.80555805  1
  Ba  Ba27  1  0.06440092  0.75338705  0.16085637  1
  Ba  Ba28  1  -0.10472518  0.54349828  0.19146267  1
  Ba  Ba29  1  0.81689894  0.26267890  0.72431682  1
  Ba  Ba30  1  0.63458481  0.48259430  0.74567190  1
  Ba  Ba31  1  0.58691636  0.02733972  0.30420978  1
  Ba  Ba32  1  0.03920695  0.70083370  0.73980814  1
  Ba  Ba33  1  0.62669224  0.32138720  -0.04890805  1
  Ba  Ba34  1  0.82639516  0.16959203  0.34467953  1
  Ba  Ba35  1  0.69846576  0.77425632  0.75448719  1
  Ba  Ba36  1  0.66336312  0.71202766  0.28089273  1
  Ba  Ba37  1  0.41808839  0.73235140  0.47622259  1
  Ba  Ba38  1  0.03071622  0.26981937  0.90504424  1
  Ba  Ba39  1  0.21138656  0.86437238  0.79229153  1
  Ba  Ba40  1  0.23072598  0.54595533  -0.07629360  1
  Ba  Ba41  1  0.01175623  0.42381301  0.40790371  1
  Ba  Ba42  1  0.56050072  0.26913924  0.25906803  1
  Ba  Ba43  1  0.30350528  0.65483797  0.25496586  1
  Ba  Ba44  1  0.08491138  0.23626938  0.21571198  1
  Ba  Ba45  1  -0.07265443  0.65056860  -0.03863796  1
  Ba  Ba46  1  0.17958651  0.46110387  0.15551294  1
  Ba  Ba47  1  0.41499003  0.50284007  0.62635631  1
  Ba  Ba48  1  0.79287598  -0.13164866  0.12888705  1
  Ba  Ba49  1  0.05432250  0.85495233  0.55421121  1
  Ba  Ba50  1  0.42109094  0.14018535  0.92213120  1
  Fe  Fe51  1  0.22204895  0.85471950  0.02954730  1
  Fe  Fe52  1  0.29697593  0.74190833  0.95244110  1
  Fe  Fe53  1  0.27506620  0.03743508  0.85043033  1
  Fe  Fe54  1  0.14021766  0.11860972  0.04718577  1
  Fe  Fe55  1  1.00600879  0.37503851  0.72297932  1
  Fe  Fe56  1  0.32629675  0.02707662  0.72605296  1
  Fe  Fe57  1  0.29162375  0.40192815  0.76175701  1
  Fe  Fe58  1  0.29197286  0.11622618  0.07215996  1
  Fe  Fe59  1  0.14910132  0.40485573  0.75852548  1
  Fe  Fe60  1  0.22806299  0.40352768  0.63371148  1
  Fe  Fe61  1  0.75466851  0.76728908  -0.03143322  1
  Fe  Fe62  1  -0.03959395  0.43369226  0.60227428  1
  Fe  Fe63  1  0.22827171  1.00524053  0.99082525  1
  Fe  Fe64  1  0.55684636  0.79593407  0.60975817  1
  Fe  Fe65  1  0.64336907  0.28436399  0.63648174  1
  Fe  Fe66  1  0.35447559  0.78697548  0.07117642  1
  Fe  Fe67  1  0.91521465  0.04298367  0.65752981  1
  Fe  Fe68  1  0.46391909  0.88286692  0.35313244  1
  Fe  Fe69  1  0.95023142  1.10473940  0.78944103  1
  Fe  Fe70  1  0.58904158  0.38482390  0.56579783  1
  Fe  Fe71  1  0.87372253  0.44096817  0.73373304  1
  Fe  Fe72  1  0.35092996  0.64594204  0.06393950  1
  Fe  Fe73  1  0.22454162  0.15155862  0.93476711  1
  Fe  Fe74  1  0.36110959  0.48629621  0.35498571  1
  Fe  Fe75  1  0.85660163  0.30911252  0.18839639  1
  Fe  Fe76  1  1.00999897  0.71614392  0.40545602  1
  Fe  Fe77  1  0.06142496  0.62934831  0.31750140  1
  Fe  Fe78  1  0.09670361  0.35651105  0.61167096  1
  Fe  Fe79  1  0.65700708  0.19002928  0.44178829  1
  Fe  Fe80  1  0.74213474  0.23632596  0.18127152  1
  Fe  Fe81  1  0.95708585  0.53528857  0.69824770  1
  Fe  Fe82  1  0.77052089  0.67724607  0.07129054  1
  Fe  Fe83  1  0.56732761  0.23675148  0.53545803  1
  Fe  Fe84  1  0.71297778  0.63602646  0.94250375  1
  Fe  Fe85  1  0.64050470  0.71079115  0.06633531  1
  Fe  Fe86  1  1.03083855  0.15282917  0.37903156  1
  Fe  Fe87  1  0.82094005  0.28115654  0.05964659  1
  Fe  Fe88  1  0.93036852  0.60923742  0.38363771  1
  Fe  Fe89  1  0.22586248  0.70356892  0.06767206  1
  Fe  Fe90  1  0.56314168  0.65294325  0.63309121  1
  Fe  Fe91  1  0.02519629  0.11794613  0.66584910  1
  Fe  Fe92  1  0.09178946  0.49152953  0.64933990  1
  Fe  Fe93  1  0.61019078  0.33119942  0.44032077  1
  Fe  Fe94  1  0.70720424  0.17662948  0.56423486  1
  Fe  Fe95  1  0.62123481  0.76382405  0.93898247  1
  Fe  Fe96  1  0.72015916  0.31130621  0.51701174  1
  Fe  Fe97  1  0.36066203  0.39970687  0.26090758  1
  Fe  Fe98  1  0.71864298  0.35699846  0.12661529  1
  Fe  Fe99  1  0.62319438  0.69988018  0.53196063  1
  Fe  Fe100  1  0.21776384  0.23395984  0.05376798  1
  Fe  Fe101  1  0.02172100  0.98259796  0.73434840  1
  Bi  Bi102  1  -0.02304470  0.37010733  0.08708326  1
  Bi  Bi103  1  0.88257254  0.74565008  0.28923336  1
  Bi  Bi104  1  0.11487757  0.74948866  -0.05699727  1
  Bi  Bi105  1  0.09319952  0.05447061  0.88050968  1
  Bi  Bi106  1  -0.02727028  0.05342893  0.49601918  1
  Bi  Bi107  1  0.09733928  -0.03754182  0.10309297  1
  Bi  Bi108  1  0.24441481  0.32379472  -0.09269485  1
  Bi  Bi109  1  0.48609135  0.71178225  0.15400948  1
  Bi  Bi110  1  0.02517365  0.49064781  0.84564200  1
  Bi  Bi111  1  0.70192904  0.92604940  -0.06922428  1
  Bi  Bi112  1  0.17179519  0.01920695  0.64334461  1
  Bi  Bi113  1  -0.01911820  0.60704871  0.54595978  1
  Bi  Bi114  1  0.23093078  0.56364956  0.71530439  1
  Bi  Bi115  1  0.44492161  0.42674020  0.84211564  1
  Bi  Bi116  1  0.21767234  0.37917696  0.35201651  1
  Bi  Bi117  1  0.17196927  0.06961644  0.33273879  1
  Bi  Bi118  1  0.16265023  0.77826058  0.35928863  1
  Bi  Bi119  1  0.60531570  0.85703317  0.44194977  1
  Bi  Bi120  1  0.40587766  0.88824696  0.64340747  1
  Bi  Bi121  1  0.69554739  0.52899285  0.09490547  1
  Bi  Bi122  1  0.81615925  0.59714981  0.78124177  1
  Bi  Bi123  1  0.36626940  0.90524768  0.94307417  1
  Bi  Bi124  1  0.24611061  0.74048884  0.61045104  1
  Bi  Bi125  1  0.82487560  0.18219147  0.91496282  1
  Bi  Bi126  1  0.46372614  0.10887010  0.13174928  1
  Bi  Bi127  1  0.88059894  0.87581659  0.68933103  1
