# generated using pymatgen
data_Ba51Fe51Bi26
_symmetry_space_group_name_H-M   'P 1'
_cell_length_a   16.15328464
_cell_length_b   16.04667956
_cell_length_c   16.81917822
_cell_angle_alpha   88.59028703
_cell_angle_beta   92.43931704
_cell_angle_gamma   87.44524819
_symmetry_Int_Tables_number   1
_chemical_formula_structural   Ba51Fe51Bi26
_chemical_formula_sum   'Ba51 Fe51 Bi26'
_cell_volume   4349.82824027
_cell_formula_units_Z   1
loop_
 _symmetry_equiv_pos_site_id
 _symmetry_equiv_pos_as_xyz
  1  'x, y, z'
loop_
 _atom_site_type_symbol
 _atom_site_label
 _atom_site_symmetry_multiplicity
 _atom_site_fract_x
 _atom_site_fract_y
 _atom_site_fract_z
 _atom_site_occupancy
  Ba  Ba0  1  0.27266846  0.11983522  0.92748313  1
  Ba  Ba1  1  0.78903365  0.84392573  0.56900045  1
  Ba  Ba2  1  0.70573910  0.05173577  0.68496211  1
  Ba  Ba3  1  0.28656442  0.58315418  -0.08638115  1
  Ba  Ba4  1  0.65812709  0.04680876  -0.05864108  1
  Ba  Ba5  1  0.56395861  0.48301317  -0.03370070  1
  Ba  Ba6  1  0.62033696  -0.03378882  0.34423863  1
  Ba  Ba7  1  0.20575289  -0.02619395  0.72995228  1
  Ba  Ba8  1  -0.08148037  -0.03427595  -0.04024405  1
  Ba  Ba9  1  0.80197499  0.43090578  0.11014421  1
  Ba  Ba10  1  0.39985772  0.36408196  0.78672975  1
  Ba  Ba11  1  0.60741014  0.72952405  -0.08465624  1
  Ba  Ba12  1  0.03806863  0.58489487  0.13316936  1
  Ba  Ba13  1  0.14072181  0.29927519  0.79370293  1
  Ba  Ba14  1  -0.04383398  0.21334425  0.27428273  1
  Ba  Ba15  1  0.42561140  -0.10752301  -0.04364288  1
  Ba  Ba16  1  0.65544956  0.55032693  0.72148173  1
  Ba  Ba17  1  0.87385255  0.71397006  0.83387796  1
  Ba  Ba18  1  0.86154071  0.75667301  0.33147546  1
  Ba  Ba19  1  0.46326687  0.82234225  0.18641313  1
  Ba  Ba20  1  0.10411224  0.71445752  0.33089162  1
  Ba  Ba21  1  0.80447476  0.37693581  0.83831612  1
  Ba  Ba22  1  0.75468074  0.34505339  0.32081651  1
  Ba  Ba23  1  0.16037594  0.55537220  0.51064449  1
  Ba  Ba24  1  0.32794799  0.01848916  0.27412135  1
  Ba  Ba25  1  -0.07131368  0.21439257  -0.00059036  1
  Ba  Ba26  1  0.79056296  0.54191811  0.48245243  1
  Ba  Ba27  1  0.73353175  0.18879233  0.48770957  1
  Ba  Ba28  1  0.78426498  0.70267204  0.10695823  1
  Ba  Ba29  1  0.50980537  0.49892784  0.22087145  1
  Ba  Ba30  1  0.16459870  0.91996483  0.44469489  1
  Ba  Ba31  1  0.30878611  0.70187399  0.64963328  1
  Ba  Ba32  1  0.14062526  0.13517977  0.11008072  1
  Ba  Ba33  1  -0.07023710  0.22250393  0.67981986  1
  Ba  Ba34  1  0.04109068  0.42811838  0.34505066  1
  Ba  Ba35  1  0.09863658  0.67036769  0.74192336  1
  Ba  Ba36  1  0.30968384  0.30973056  0.46473192  1
  Ba  Ba37  1  0.44522798  0.80722923  0.48493323  1
  Ba  Ba38  1  0.48153120  0.55671740  0.50238558  1
  Ba  Ba39  1  0.24373048  0.34080484  0.21623103  1
  Ba  Ba40  1  0.28569184  0.62035663  0.18015762  1
  Ba  Ba41  1  0.01586866  0.47751205  0.93025238  1
  Ba  Ba42  1  0.52456573  0.21241366  0.27396228  1
  Ba  Ba43  1  0.45423545  0.04758089  0.74577567  1
  Ba  Ba44  1  -0.03128800  0.47587390  0.63467908  1
  Ba  Ba45  1  0.48825076  0.24107670  -0.00245176  1
  Ba  Ba46  1  0.36947595  0.07929543  0.51227287  1
  Ba  Ba47  1  -0.04522034  -0.05475591  0.74273001  1
  Ba  Ba48  1  -0.07980796  -0.01215912  0.35821362  1
  Ba  Ba49  1  0.09442152  0.15256520  0.53515696  1
  Ba  Ba50  1  0.62322193  0.70516519  0.34493539  1
  Fe  Fe51  1  0.15508863  0.70815421  0.99738344  1
  Fe  Fe52  1  0.54147361  0.14186026  0.59674296  1
  Fe  Fe53  1  0.52096704  0.73221272  0.69345496  1
  Fe  Fe54  1  0.00252952  -0.09943963  0.55502375  1
  Fe  Fe55  1  0.45571110  0.24576229  0.63523986  1
  Fe  Fe56  1  0.44835817  0.87032257  0.66790112  1
  Fe  Fe57  1  0.71784604  0.85507771  0.20846179  1
  Fe  Fe58  1  0.61592789  0.25742138  0.61088709  1
  Fe  Fe59  1  0.16988910  0.87674206  0.22764122  1
  Fe  Fe60  1  0.18903048  0.43119740  0.04267109  1
  Fe  Fe61  1  0.25151421  0.38419366  0.93319316  1
  Fe  Fe62  1  0.19606813  0.35327717  0.61618847  1
  Fe  Fe63  1  0.41951483  0.66203726  0.32944887  1
  Fe  Fe64  1  0.60250583  0.84072975  0.66536994  1
  Fe  Fe65  1  0.65440161  0.14236525  0.12093931  1
  Fe  Fe66  1  1.07250962  0.79794233  0.89168236  1
  Fe  Fe67  1  0.52052465  0.24993472  0.49763225  1
  Fe  Fe68  1  0.61655554  0.38284413  0.52300133  1
  Fe  Fe69  1  0.57723470  0.36080946  0.68823567  1
  Fe  Fe70  1  0.62383605  0.47158945  0.39321275  1
  Fe  Fe71  1  0.69488707  0.53166967  0.30313802  1
  Fe  Fe72  1  0.10643132  0.74832926  0.53645812  1
  Fe  Fe73  1  0.61248636  0.30311529  0.82095969  1
  Fe  Fe74  1  0.01099976  0.86656543  0.19858667  1
  Fe  Fe75  1  0.83914690  0.91922622  0.18130223  1
  Fe  Fe76  1  0.97577614  0.76512050  0.61248118  1
  Fe  Fe77  1  0.48041223  0.36912282  0.57143540  1
  Fe  Fe78  1  0.65512636  0.28232802  0.14653966  1
  Fe  Fe79  1  0.75786240  0.91584141  0.07196133  1
  Fe  Fe80  1  0.10072286  0.83740221  0.62913459  1
  Fe  Fe81  1  0.08831564  0.35231351  0.54097405  1
  Fe  Fe82  1  0.27334404  0.29256182  1.03018501  1
  Fe  Fe83  1  0.42726776  0.79005613  0.78146794  1
  Fe  Fe84  1  0.09265946  -0.01295051  0.25209914  1
  Fe  Fe85  1  1.04380881  0.67365385  0.92820862  1
  Fe  Fe86  1  0.13559481  0.31246913  0.99892733  1
  Fe  Fe87  1  0.52706987  0.36935123  0.42241286  1
  Fe  Fe88  1  0.09243464  -0.06848388  0.10652151  1
  Fe  Fe89  1  0.55946128  0.20844504  0.73687706  1
  Fe  Fe90  1  0.77655062  0.21482123  0.13565614  1
  Fe  Fe91  1  0.63324079  0.88224801  0.10405388  1
  Fe  Fe92  1  0.99390993  0.80289516  0.46645905  1
  Fe  Fe93  1  0.68915635  -0.00025418  0.17333408  1
  Fe  Fe94  1  0.15023356  0.86290500  0.98952157  1
  Fe  Fe95  1  0.79253096  0.06370365  0.11262515  1
  Fe  Fe96  1  0.70135045  0.25029147  0.73603417  1
  Fe  Fe97  1  0.27681788  0.77182010  0.03454472  1
  Fe  Fe98  1  0.54576857  0.86588566  0.78210630  1
  Fe  Fe99  1  0.31593441  0.64717545  0.39826598  1
  Fe  Fe100  1  0.14836616  0.78680800  0.12205760  1
  Fe  Fe101  1  0.98243481  0.67372924  0.51690520  1
  Bi  Bi102  1  0.28510684  0.19665703  0.67091080  1
  Bi  Bi103  1  0.52401171  0.02916450  0.12251364  1
  Bi  Bi104  1  0.75480827  0.37349257  0.62857986  1
  Bi  Bi105  1  -0.01312494  0.77725546  0.04358076  1
  Bi  Bi106  1  0.74224549  0.12989461  0.27758971  1
  Bi  Bi107  1  0.03696713  0.36240487  0.12714956  1
  Bi  Bi108  1  0.72151541  0.86984199  0.79662928  1
  Bi  Bi109  1  0.56056813  -0.02754820  0.55495903  1
  Bi  Bi110  1  0.24803162  0.79703189  -0.14050795  1
  Bi  Bi111  1  0.30141056  0.79995079  0.32079569  1
  Bi  Bi112  1  -0.04146787  0.03882008  0.15177747  1
  Bi  Bi113  1  0.15623156  0.13225487  0.33858987  1
  Bi  Bi114  1  0.69653894  0.27686035  -0.00995935  1
  Bi  Bi115  1  0.92755878  0.32162773  0.47775230  1
  Bi  Bi116  1  0.63167803  0.70021997  0.56331174  1
  Bi  Bi117  1  0.35272085  0.17608104  0.13368938  1
  Bi  Bi118  1  0.77307507  0.56412864  0.93893671  1
  Bi  Bi119  1  0.06545620  0.10045147  0.85446673  1
  Bi  Bi120  1  0.86253768  0.55173477  0.27456966  1
  Bi  Bi121  1  0.37061588  0.43176115  0.06179273  1
  Bi  Bi122  1  0.81682386  0.14559764  0.83281520  1
  Bi  Bi123  1  0.89547714  0.04233895  0.55866719  1
  Bi  Bi124  1  0.32843885  0.46015701  0.61185585  1
  Bi  Bi125  1  0.46162249  0.60835006  0.79365068  1
  Bi  Bi126  1  0.43669101  0.67625790  0.04352563  1
  Bi  Bi127  1  0.26671881  0.93555713  0.08980421  1
