# generated using pymatgen
data_Ba51Fe51Bi26
_symmetry_space_group_name_H-M   'P 1'
_cell_length_a   16.11499156
_cell_length_b   16.55613037
_cell_length_c   16.55423426
_cell_angle_alpha   91.78766319
_cell_angle_beta   88.34845223
_cell_angle_gamma   87.89517134
_symmetry_Int_Tables_number   1
_chemical_formula_structural   Ba51Fe51Bi26
_chemical_formula_sum   'Ba51 Fe51 Bi26'
_cell_volume   4409.58721799
_cell_formula_units_Z   1
loop_
 _symmetry_equiv_pos_site_id
 _symmetry_equiv_pos_as_xyz
  1  'x, y, z'
loop_
 _atom_site_type_symbol
 _atom_site_label
 _atom_site_symmetry_multiplicity
 _atom_site_fract_x
 _atom_site_fract_y
 _atom_site_fract_z
 _atom_site_occupancy
  Ba  Ba0  1  0.24653310  0.05966075  0.17652238  1
  Ba  Ba1  1  0.40684804  0.77798727  0.46031703  1
  Ba  Ba2  1  0.48257376  0.41044493  0.03485921  1
  Ba  Ba3  1  0.64019214  0.17424798  0.41248541  1
  Ba  Ba4  1  0.58903133  0.53278773  0.56435185  1
  Ba  Ba5  1  -0.00285508  0.30523698  0.74178074  1
  Ba  Ba6  1  -0.04691522  0.02489920  0.71841578  1
  Ba  Ba7  1  0.75806710  0.54606477  0.32798386  1
  Ba  Ba8  1  0.22883615  -0.03904239  0.40326705  1
  Ba  Ba9  1  0.49459363  -0.09088838  0.05172499  1
  Ba  Ba10  1  0.70136937  -0.10894285  0.75561829  1
  Ba  Ba11  1  0.24938806  0.51514287  0.03653264  1
  Ba  Ba12  1  0.82651565  -0.03469932  -0.06069826  1
  Ba  Ba13  1  0.76596999  0.30581504  0.25088792  1
  Ba  Ba14  1  0.21030460  0.47973959  0.70348448  1
  Ba  Ba15  1  0.38048706  0.26128518  0.53208971  1
  Ba  Ba16  1  0.69290886  0.52922472  -0.02331828  1
  Ba  Ba17  1  0.55956531  0.14160487  -0.05429089  1
  Ba  Ba18  1  0.75811197  0.46560957  0.74027518  1
  Ba  Ba19  1  0.43260449  -0.04683780  0.75067930  1
  Ba  Ba20  1  0.73799235  0.19821920  0.72722889  1
  Ba  Ba21  1  -0.01973198  0.10374468  0.16323683  1
  Ba  Ba22  1  0.49396024  0.32751962  0.75835628  1
  Ba  Ba23  1  0.75542369  0.01958911  0.53911566  1
  Ba  Ba24  1  0.47079277  0.01770763  0.45525224  1
  Ba  Ba25  1  -0.07076047  0.73178820  0.51120111  1
  Ba  Ba26  1  0.06761502  0.23277841  0.39195193  1
  Ba  Ba27  1  0.21567458  0.30161384  -0.05017335  1
  Ba  Ba28  1  0.08223962  -0.03126134  -0.02235421  1
  Ba  Ba29  1  0.19989134  0.64005183  0.44457174  1
  Ba  Ba30  1  0.10597955  0.73091452  0.06129200  1
  Ba  Ba31  1  0.73559806  0.77823576  0.07110187  1
  Ba  Ba32  1  0.76299858  0.01070708  0.20208636  1
  Ba  Ba33  1  0.82029403  0.21135061  -0.00417824  1
  Ba  Ba34  1  0.27557353  0.76570654  0.22189447  1
  Ba  Ba35  1  0.23643111  0.75575003  0.70705140  1
  Ba  Ba36  1  0.01799060  0.37294298  0.10793289  1
  Ba  Ba37  1  0.54256816  0.70532903  0.20020719  1
  Ba  Ba38  1  0.52593588  0.38592733  0.39061008  1
  Ba  Ba39  1  0.54672612  0.71304577  0.70810954  1
  Ba  Ba40  1  0.48968965  0.11056741  0.22497551  1
  Ba  Ba41  1  0.02256206  0.45538868  0.50783478  1
  Ba  Ba42  1  -0.00922238  0.74294117  0.79203684  1
  Ba  Ba43  1  0.41810672  0.69805953  -0.05486392  1
  Ba  Ba44  1  0.17311868  -0.01825477  0.75553136  1
  Ba  Ba45  1  -0.06798944  0.58555746  0.00361692  1
  Ba  Ba46  1  0.30334268  0.06663555  -0.05610623  1
  Ba  Ba47  1  0.26504742  0.20011664  0.73291078  1
  Ba  Ba48  1  -0.00182481  0.00271377  0.45685778  1
  Ba  Ba49  1  0.89411182  0.73219498  0.24747577  1
  Ba  Ba50  1  0.29217552  0.34541456  0.24144704  1
  Fe  Fe51  1  0.64465931  -0.04464815  0.34344459  1
  Fe  Fe52  1  0.64585971  0.76671933  0.90223319  1
  Fe  Fe53  1  0.97598952  0.13119366  -0.10895660  1
  Fe  Fe54  1  0.39912120  0.46673257  0.56616104  1
  Fe  Fe55  1  0.08450746  0.98484619  0.27725609  1
  Fe  Fe56  1  0.71923076  0.66340121  0.51443389  1
  Fe  Fe57  1  0.25314548  0.88365703  0.57203017  1
  Fe  Fe58  1  1.01195694  0.26837210  0.93057119  1
  Fe  Fe59  1  0.78402934  0.75784466  0.87641829  1
  Fe  Fe60  1  0.37423418  0.60624058  0.77376881  1
  Fe  Fe61  1  0.63332956  0.69585706  0.37699712  1
  Fe  Fe62  1  0.10075368  0.52416172  0.89751251  1
  Fe  Fe63  1  0.08928156  0.49167479  0.28547875  1
  Fe  Fe64  1  0.99015712  0.57509075  0.34446715  1
  Fe  Fe65  1  0.07552671  0.16764674  -0.00388967  1
  Fe  Fe66  1  0.59719772  0.74625839  0.49651997  1
  Fe  Fe67  1  0.36484927  0.50107457  0.84504114  1
  Fe  Fe68  1  0.52855877  0.12914809  0.74848010  1
  Fe  Fe69  1  0.41105433  0.55229999  0.45099349  1
  Fe  Fe70  1  0.52421739  0.59535057  0.36963647  1
  Fe  Fe71  1  0.08885907  0.89685086  0.17995349  1
  Fe  Fe72  1  0.56792738  0.16649337  0.60347064  1
  Fe  Fe73  1  0.39897967  0.63182052  0.31745248  1
  Fe  Fe74  1  0.50720042  0.51746960  0.25127701  1
  Fe  Fe75  1  0.44845267  0.11785113  0.64468157  1
  Fe  Fe76  1  0.10455175  0.15511788  0.86488447  1
  Fe  Fe77  1  0.20744699  0.14547684  0.50702538  1
  Fe  Fe78  1  0.68375653  0.65661518  0.83352487  1
  Fe  Fe79  1  0.81877040  0.63126357  0.84515467  1
  Fe  Fe80  1  0.30677382  0.87474889  0.87949948  1
  Fe  Fe81  1  0.40085523  0.56200263  0.18942639  1
  Fe  Fe82  1  0.86927952  0.31312418  0.42478840  1
  Fe  Fe83  1  0.58868674  0.04637296  0.65541981  1
  Fe  Fe84  1  0.38266347  0.50054346  0.32336640  1
  Fe  Fe85  1  0.79098590  0.23683546  0.50454800  1
  Fe  Fe86  1  0.59820964  -0.10201471  0.23435929  1
  Fe  Fe87  1  0.71629876  0.79027876  0.56710570  1
  Fe  Fe88  1  0.10561090  0.13536655  0.59129721  1
  Fe  Fe89  1  0.56387845  0.82904700  0.35889457  1
  Fe  Fe90  1  0.96721170  0.92243456  0.26455039  1
  Fe  Fe91  1  0.19906454  0.81096747  0.89797167  1
  Fe  Fe92  1  0.74402960  0.37757919  0.45987346  1
  Fe  Fe93  1  0.96242242  0.54979227  0.21455809  1
  Fe  Fe94  1  0.08777381  0.55712644  0.16075043  1
  Fe  Fe95  1  0.69612986  0.81154567  0.29693834  1
  Fe  Fe96  1  0.75596228  0.75277594  0.41828945  1
  Fe  Fe97  1  0.83129568  0.34959735  0.57041645  1
  Fe  Fe98  1  0.66737865  0.86201822  0.44737344  1
  Fe  Fe99  1  0.07822938  0.64601391  0.26508176  1
  Fe  Fe100  1  0.41844850  0.49719465  0.69853375  1
  Fe  Fe101  1  0.04465234  0.41133564  0.90723946  1
  Bi  Bi102  1  0.37463514  0.62850114  0.60224968  1
  Bi  Bi103  1  0.53545518  0.53575832  0.82509096  1
  Bi  Bi104  1  -0.05916430  0.41001474  0.30951812  1
  Bi  Bi105  1  0.42760274  -0.09159013  0.26891042  1
  Bi  Bi106  1  0.22159976  0.63731006  -0.12572971  1
  Bi  Bi107  1  0.81102691  0.51672493  0.53200348  1
  Bi  Bi108  1  0.08259907  0.80776027  0.33053665  1
  Bi  Bi109  1  0.30498502  0.03910246  0.59643289  1
  Bi  Bi110  1  -0.07262305  0.18109170  0.58287162  1
  Bi  Bi111  1  0.23789742  0.56048214  0.24233486  1
  Bi  Bi112  1  0.82636268  0.89879987  0.37067149  1
  Bi  Bi113  1  0.77993731  0.69429770  0.69170918  1
  Bi  Bi114  1  -0.02576800  0.52718951  0.78787483  1
  Bi  Bi115  1  0.30067122  0.15959909  0.35928334  1
  Bi  Bi116  1  0.65273223  0.32185505  0.90487842  1
  Bi  Bi117  1  0.08638863  0.86991100  0.59723781  1
  Bi  Bi118  1  0.85643065  0.15121175  0.35794010  1
  Bi  Bi119  1  0.38478649  0.21847147  0.07195116  1
  Bi  Bi120  1  0.15726972  0.29565988  0.58235829  1
  Bi  Bi121  1  0.87722120  0.39107717  0.92937573  1
  Bi  Bi122  1  0.27553088  0.87480555  0.04216470  1
  Bi  Bi123  1  0.56715406  0.88910918  0.59004354  1
  Bi  Bi124  1  0.92845367  0.88289746  0.10124111  1
  Bi  Bi125  1  0.07808795  0.62909073  0.62578070  1
  Bi  Bi126  1  0.63766987  0.31789295  0.58090960  1
  Bi  Bi127  1  0.28717049  0.43407215  0.44687709  1
