# generated using pymatgen
data_Ba51Fe51Bi26
_symmetry_space_group_name_H-M   'P 1'
_cell_length_a   16.87979951
_cell_length_b   16.42803692
_cell_length_c   16.10126770
_cell_angle_alpha   89.80574027
_cell_angle_beta   89.45086704
_cell_angle_gamma   91.41965432
_symmetry_Int_Tables_number   1
_chemical_formula_structural   Ba51Fe51Bi26
_chemical_formula_sum   'Ba51 Fe51 Bi26'
_cell_volume   4463.30834552
_cell_formula_units_Z   1
loop_
 _symmetry_equiv_pos_site_id
 _symmetry_equiv_pos_as_xyz
  1  'x, y, z'
loop_
 _atom_site_type_symbol
 _atom_site_label
 _atom_site_symmetry_multiplicity
 _atom_site_fract_x
 _atom_site_fract_y
 _atom_site_fract_z
 _atom_site_occupancy
  Ba  Ba0  1  0.28764713  0.55248015  0.57712574  1
  Ba  Ba1  1  0.74084448  -0.02605077  0.18304692  1
  Ba  Ba2  1  0.33211028  0.42769767  0.30087070  1
  Ba  Ba3  1  0.76707060  0.79041966  0.50754868  1
  Ba  Ba4  1  0.45644442  0.81924865  0.82643971  1
  Ba  Ba5  1  0.66377773  0.73839876  0.72327178  1
  Ba  Ba6  1  0.48904934  0.76640609  0.51522501  1
  Ba  Ba7  1  0.33279424  0.46384240  0.84181415  1
  Ba  Ba8  1  0.02906052  0.76064875  0.34881162  1
  Ba  Ba9  1  0.77174821  0.45557427  0.07813924  1
  Ba  Ba10  1  0.00930442  0.26250747  0.68854945  1
  Ba  Ba11  1  0.00308690  0.50921434  0.45314209  1
  Ba  Ba12  1  0.76349741  -0.02131234  0.73781429  1
  Ba  Ba13  1  0.44572678  0.19819851  0.50099080  1
  Ba  Ba14  1  -0.00233202  0.10347946  0.49323052  1
  Ba  Ba15  1  0.52128674  0.48501630  0.52211196  1
  Ba  Ba16  1  0.76307374  0.06704142  0.45239193  1
  Ba  Ba17  1  0.76011551  0.51896539  0.54056502  1
  Ba  Ba18  1  -0.01553045  0.85314650  0.55934247  1
  Ba  Ba19  1  0.76126440  0.53121224  0.82282366  1
  Ba  Ba20  1  0.43783521  0.22070505  0.18698880  1
  Ba  Ba21  1  0.53887152  0.30724827  -0.02132264  1
  Ba  Ba22  1  0.53768365  0.27111532  0.71932641  1
  Ba  Ba23  1  0.73728802  0.28168511  0.24951562  1
  Ba  Ba24  1  0.24556008  0.70782192  0.33989733  1
  Ba  Ba25  1  -0.00264195  0.49578774  0.70427167  1
  Ba  Ba26  1  0.51016063  0.54222866  0.08003657  1
  Ba  Ba27  1  0.29703749  0.81047765  0.01037082  1
  Ba  Ba28  1  0.69488448  0.76633066  -0.02549249  1
  Ba  Ba29  1  0.28004226  0.22482422  0.80040205  1
  Ba  Ba30  1  0.05803546  -0.01017629  0.74103713  1
  Ba  Ba31  1  -0.02235975  0.14129603  0.24558135  1
  Ba  Ba32  1  -0.01143171  -0.08604361  0.17731688  1
  Ba  Ba33  1  0.16155758  0.29388544  0.03145241  1
  Ba  Ba34  1  0.45595057  0.01106151  0.69269400  1
  Ba  Ba35  1  0.00662692  0.17557282  -0.07589659  1
  Ba  Ba36  1  0.04448027  0.72475670  0.77137177  1
  Ba  Ba37  1  0.52042599  0.03247878  0.29529768  1
  Ba  Ba38  1  -0.06819821  0.71340507  0.01384785  1
  Ba  Ba39  1  0.22332276  0.22187214  0.54129853  1
  Ba  Ba40  1  0.66919876  0.28406254  0.49506573  1
  Ba  Ba41  1  0.25433220  -0.05450334  0.22301854  1
  Ba  Ba42  1  0.54375318  0.73954301  0.25652669  1
  Ba  Ba43  1  0.07676982  -0.09295781  -0.03968418  1
  Ba  Ba44  1  0.22647736  0.56915460  0.07786176  1
  Ba  Ba45  1  0.02436456  0.40632304  0.23634378  1
  Ba  Ba46  1  0.00397887  0.47497043  -0.01492823  1
  Ba  Ba47  1  0.49061708  0.98990637  0.03270104  1
  Ba  Ba48  1  0.80129785  0.70672731  0.25726133  1
  Ba  Ba49  1  0.76714943  0.25034477  0.71214030  1
  Ba  Ba50  1  0.78246786  0.18861222  -0.03434753  1
  Fe  Fe51  1  0.88867547  0.02403439  0.04152761  1
  Fe  Fe52  1  0.63757102  0.43453681  0.69781145  1
  Fe  Fe53  1  0.22945076  1.00378845  0.85348627  1
  Fe  Fe54  1  0.62655093  0.11089179  0.77903728  1
  Fe  Fe55  1  0.21976041  0.70385134  0.68101452  1
  Fe  Fe56  1  0.89762954  -0.00170444  0.91049841  1
  Fe  Fe57  1  0.27438082  0.14147765  0.08922226  1
  Fe  Fe58  1  0.87311562  0.82063773  0.73382032  1
  Fe  Fe59  1  0.33278496  0.78236158  0.67373527  1
  Fe  Fe60  1  0.27217241  0.76288884  0.54077502  1
  Fe  Fe61  1  0.34228343  0.13571352  0.96985674  1
  Fe  Fe62  1  -0.03114595  0.32656648  0.50461012  1
  Fe  Fe63  1  0.09334035  0.59260194  0.26001471  1
  Fe  Fe64  1  0.67043705  0.54383477  0.24315443  1
  Fe  Fe65  1  0.28577047  0.03032337  0.50651482  1
  Fe  Fe66  1  0.59768009  0.99883796  0.85026823  1
  Fe  Fe67  1  0.87559050  0.86089981  0.87699793  1
  Fe  Fe68  1  0.59749901  0.55727000  0.70922055  1
  Fe  Fe69  1  0.83683331  0.37011226  0.43279621  1
  Fe  Fe70  1  0.52935679  0.57461682  0.83583337  1
  Fe  Fe71  1  0.15851324  0.13666146  0.35308577  1
  Fe  Fe72  1  0.03372463  0.62057857  0.14639938  1
  Fe  Fe73  1  0.18498334  0.83756702  0.63859563  1
  Fe  Fe74  1  0.20717364  0.10596610  0.94518140  1
  Fe  Fe75  1  0.54405562  0.51897506  0.30647674  1
  Fe  Fe76  1  0.26629117  1.00662620  0.01609322  1
  Fe  Fe77  1  0.27884991  -0.10267511  0.44628829  1
  Fe  Fe78  1  0.34726624  1.01605047  0.89738814  1
  Fe  Fe79  1  0.62963146  0.08635793  0.62878330  1
  Fe  Fe80  1  0.60396710  0.42816830  0.21303265  1
  Fe  Fe81  1  0.61474289  0.94945393  0.56066539  1
  Fe  Fe82  1  0.96245584  0.59485880  0.27920432  1
  Fe  Fe83  1  0.30572768  0.68217987  0.78468920  1
  Fe  Fe84  1  0.24713030  0.24814635  0.33229144  1
  Fe  Fe85  1  0.16712989  0.83795887  0.49373346  1
  Fe  Fe86  1  0.49208733  0.46864276  0.72481529  1
  Fe  Fe87  1  0.61949165  1.10495401  -0.07121105  1
  Fe  Fe88  1  0.30489657  0.90395113  0.59089483  1
  Fe  Fe89  1  0.21874529  0.13499895  0.22192664  1
  Fe  Fe90  1  0.26504500  0.27310497  0.18369641  1
  Fe  Fe91  1  0.84950941  0.24080545  0.52418699  1
  Fe  Fe92  1  0.90497236  0.26105647  0.39911129  1
  Fe  Fe93  1  0.14536930  0.24809584  0.24121665  1
  Fe  Fe94  1  0.58023124  0.44849489  0.82777523  1
  Fe  Fe95  1  0.17183182  -0.03449045  0.55375128  1
  Fe  Fe96  1  0.86384768  0.89681134  0.01737338  1
  Fe  Fe97  1  0.57789765  0.05732038  0.50147817  1
  Fe  Fe98  1  0.91606711  0.56250169  0.16013872  1
  Fe  Fe99  1  0.83439495  0.73458486  0.82437815  1
  Fe  Fe100  1  0.67102600  0.45295391  0.35128398  1
  Fe  Fe101  1  0.86662309  0.36594828  0.57267446  1
  Bi  Bi102  1  0.73008386  -0.02767039  -0.04442460  1
  Bi  Bi103  1  0.43469410  -0.03389762  0.48440769  1
  Bi  Bi104  1  0.11894087  -0.03549868  0.38829844  1
  Bi  Bi105  1  0.22804784  0.83521869  0.80863747  1
  Bi  Bi106  1  0.11982447  0.07269616  0.09345575  1
  Bi  Bi107  1  0.25130604  0.04929595  0.67843507  1
  Bi  Bi108  1  0.32452661  0.10589086  0.35449132  1
  Bi  Bi109  1  0.11438938  0.67860441  0.54667427  1
  Bi  Bi110  1  0.45215755  0.63920623  0.69228139  1
  Bi  Bi111  1  0.47118679  0.13321731  -0.13222409  1
  Bi  Bi112  1  0.83117048  0.48567957  0.30104835  1
  Bi  Bi113  1  0.52928419  0.34170633  0.34458662  1
  Bi  Bi114  1  0.08764839  0.28667313  0.39854988  1
  Bi  Bi115  1  0.88317686  0.92042979  0.36269245  1
  Bi  Bi116  1  0.64985247  0.62762370  0.39954850  1
  Bi  Bi117  1  0.62081442  0.14495123  0.10723534  1
  Bi  Bi118  1  0.13363833  0.75849652  0.14555992  1
  Bi  Bi119  1  0.41878380  0.60637827  0.37699169  1
  Bi  Bi120  1  0.88476915  0.35777352  0.85325623  1
  Bi  Bi121  1  0.91735963  0.29394722  0.09349455  1
  Bi  Bi122  1  0.39754603  0.64269399  0.93104114  1
  Bi  Bi123  1  0.63598944  0.89749215  0.39113569  1
  Bi  Bi124  1  0.37224243  0.36603649  0.64230466  1
  Bi  Bi125  1  0.12656096  0.37488329  0.83270092  1
  Bi  Bi126  1  0.86538072  0.66381195  0.66126614  1
  Bi  Bi127  1  0.35163017  0.38955944  0.07975083  1
