# generated using pymatgen
data_Ba51Fe51Bi26
_symmetry_space_group_name_H-M   'P 1'
_cell_length_a   15.70761403
_cell_length_b   16.92526243
_cell_length_c   16.48871130
_cell_angle_alpha   89.73350445
_cell_angle_beta   92.01451196
_cell_angle_gamma   89.13870839
_symmetry_Int_Tables_number   1
_chemical_formula_structural   Ba51Fe51Bi26
_chemical_formula_sum   'Ba51 Fe51 Bi26'
_cell_volume   4380.35132647
_cell_formula_units_Z   1
loop_
 _symmetry_equiv_pos_site_id
 _symmetry_equiv_pos_as_xyz
  1  'x, y, z'
loop_
 _atom_site_type_symbol
 _atom_site_label
 _atom_site_symmetry_multiplicity
 _atom_site_fract_x
 _atom_site_fract_y
 _atom_site_fract_z
 _atom_site_occupancy
  Ba  Ba0  1  0.37273814  0.80504382  0.63989600  1
  Ba  Ba1  1  0.84443442  0.77105818  0.70388373  1
  Ba  Ba2  1  0.48590426  0.26499067  0.50052961  1
  Ba  Ba3  1  0.79180921  0.87371115  0.48317324  1
  Ba  Ba4  1  -0.04991484  0.72261422  -0.05735158  1
  Ba  Ba5  1  -0.03414616  0.53626550  0.73905256  1
  Ba  Ba6  1  0.50852446  0.29612923  0.73686971  1
  Ba  Ba7  1  0.49908786  0.67666122  0.28493119  1
  Ba  Ba8  1  -0.02986051  0.23873658  0.19416257  1
  Ba  Ba9  1  0.57161902  0.68577841  0.84565935  1
  Ba  Ba10  1  -0.03491408  0.02397235  0.63937450  1
  Ba  Ba11  1  0.48500607  0.44563252  0.30594078  1
  Ba  Ba12  1  -0.01038718  0.70840628  0.45819967  1
  Ba  Ba13  1  0.22555357  0.67694680  0.39534277  1
  Ba  Ba14  1  0.24871736  0.49376883  0.01752820  1
  Ba  Ba15  1  0.51481616  0.20816880  0.24706707  1
  Ba  Ba16  1  0.24077174  0.55518570  0.59794983  1
  Ba  Ba17  1  0.75232576  0.29730374  -0.18248039  1
  Ba  Ba18  1  0.58044119  0.71921118  0.50851371  1
  Ba  Ba19  1  0.67402102  0.51462115  0.68062543  1
  Ba  Ba20  1  0.69115500  0.76194548  0.08509633  1
  Ba  Ba21  1  0.03464258  0.02476743  -0.04258718  1
  Ba  Ba22  1  0.21285183  -0.14839558  0.24167067  1
  Ba  Ba23  1  0.14628660  0.24577508  0.49035486  1
  Ba  Ba24  1  -0.08014121  0.80225689  0.23994234  1
  Ba  Ba25  1  0.76282573  0.60570469  0.32763357  1
  Ba  Ba26  1  0.77642779  0.50766828  -0.01519458  1
  Ba  Ba27  1  0.20765603  0.78699347  -0.09470747  1
  Ba  Ba28  1  -0.01826836  0.47220028  0.24398281  1
  Ba  Ba29  1  0.74065524  0.39294637  0.20155513  1
  Ba  Ba30  1  0.57137688  0.01369784  0.07413637  1
  Ba  Ba31  1  0.42039921  0.72812343  0.05276764  1
  Ba  Ba32  1  0.63468748  0.05921354  0.68506396  1
  Ba  Ba33  1  0.80350884  0.12444230  0.00451055  1
  Ba  Ba34  1  0.50370909  -0.00004428  0.47884104  1
  Ba  Ba35  1  0.09549296  0.64620053  0.13234761  1
  Ba  Ba36  1  0.31139913  -0.03905534  0.07431508  1
  Ba  Ba37  1  0.36598611  0.49797220  0.80216452  1
  Ba  Ba38  1  0.22357160  -0.02463007  0.74380150  1
  Ba  Ba39  1  0.00410165  0.27209902  0.73760018  1
  Ba  Ba40  1  0.58348968  0.29094588  0.01241894  1
  Ba  Ba41  1  0.27587343  0.19779277  0.13564662  1
  Ba  Ba42  1  0.25511181  0.23819701  0.73318941  1
  Ba  Ba43  1  -0.00210860  0.47091371  0.50817389  1
  Ba  Ba44  1  0.74765639  -0.06408998  0.86516608  1
  Ba  Ba45  1  -0.08461223  0.02486080  0.20375792  1
  Ba  Ba46  1  0.26299391  0.02727178  0.46458779  1
  Ba  Ba47  1  0.67556616  0.02289904  0.31295753  1
  Ba  Ba48  1  0.13628459  0.29023473  -0.05617470  1
  Ba  Ba49  1  -0.11645502  0.25023200  0.44869769  1
  Ba  Ba50  1  0.39181073  0.11095190  0.88508749  1
  Fe  Fe51  1  0.16079688  0.43640050  0.37762415  1
  Fe  Fe52  1  0.54525760  0.86753950  0.19759788  1
  Fe  Fe53  1  0.41368266  0.81863064  0.83654719  1
  Fe  Fe54  1  0.56208924  0.45420224  0.10732917  1
  Fe  Fe55  1  0.97571081  0.36973791  0.04096399  1
  Fe  Fe56  1  0.28479291  0.37165059  0.40520352  1
  Fe  Fe57  1  0.14692192  0.16725777  0.30963358  1
  Fe  Fe58  1  0.77829047  0.10739319  0.54893291  1
  Fe  Fe59  1  0.29545622  0.49962195  0.35208415  1
  Fe  Fe60  1  0.43929534  0.53762382  0.11222056  1
  Fe  Fe61  1  0.15168178  0.38612187  0.63570255  1
  Fe  Fe62  1  0.40012028  -0.07575688  0.90373774  1
  Fe  Fe63  1  0.67088823  0.54041141  0.48579083  1
  Fe  Fe64  1  0.15684960  0.79702675  0.71350960  1
  Fe  Fe65  1  0.12356492  -0.00600523  0.32342633  1
  Fe  Fe66  1  0.98681647  0.93890067  0.36463584  1
  Fe  Fe67  1  0.54549325  0.56458526  1.00051766  1
  Fe  Fe68  1  0.54218058  0.97451394  0.87505742  1
  Fe  Fe69  1  0.16211008  0.66661915  0.74485476  1
  Fe  Fe70  1  0.05903369  1.00438346  0.46490418  1
  Fe  Fe71  1  0.99996364  0.88555612  0.50881958  1
  Fe  Fe72  1  0.41592030  0.85191149  0.23414559  1
  Fe  Fe73  1  0.66469293  0.15012664  0.48640717  1
  Fe  Fe74  1  0.66176776  0.44624217  0.39485625  1
  Fe  Fe75  1  0.70652096  0.24433118  0.57570176  1
  Fe  Fe76  1  0.55614685  0.46277934  0.50726263  1
  Fe  Fe77  1  0.09350345  0.68960906  0.62365322  1
  Fe  Fe78  1  0.81303217  0.18808422  0.65172870  1
  Fe  Fe79  1  0.19231205  0.47796590  0.25240497  1
  Fe  Fe80  1  0.11564051  0.07889824  0.21251699  1
  Fe  Fe81  1  0.84808270  0.32201536  0.01741811  1
  Fe  Fe82  1  0.10048595  0.87014026  0.40380252  1
  Fe  Fe83  1  0.45927252  0.45765056  0.99456438  1
  Fe  Fe84  1  0.53016800  0.87666946  0.32875539  1
  Fe  Fe85  1  0.03508734  0.09417933  0.35236595  1
  Fe  Fe86  1  0.53881939  0.87117016  0.79132243  1
  Fe  Fe87  1  0.79654761  0.41614360  0.40414298  1
  Fe  Fe88  1  0.58346837  0.57841305  0.13076887  1
  Fe  Fe89  1  0.93559617  0.37922409  0.90532542  1
  Fe  Fe90  1  0.79406179  0.48085868  0.51618984  1
  Fe  Fe91  1  0.45677487  0.46997142  0.59735399  1
  Fe  Fe92  1  0.24422473  0.06339140  0.26877558  1
  Fe  Fe93  1  0.05017343  0.86358739  0.07890107  1
  Fe  Fe94  1  1.03655692  0.72029548  0.75795617  1
  Fe  Fe95  1  0.68952449  0.38147855  0.52010459  1
  Fe  Fe96  1  0.29011018  0.37395634  0.26174757  1
  Fe  Fe97  1  0.43186995  0.95441725  0.76692212  1
  Fe  Fe98  1  0.93582188  0.25275209  0.94205018  1
  Fe  Fe99  1  0.16513425  0.31852747  0.30463956  1
  Fe  Fe100  1  1.02577614  0.81585470  0.63917837  1
  Fe  Fe101  1  0.52429548  -0.14028033  0.93952535  1
  Bi  Bi102  1  0.80309949  0.64226538  0.54616322  1
  Bi  Bi103  1  0.31424192  0.21531633  0.35221235  1
  Bi  Bi104  1  0.30526168  0.59956064  0.20711993  1
  Bi  Bi105  1  0.42377962  0.01495124  0.25712012  1
  Bi  Bi106  1  -0.12020893  0.05027269  0.42314515  1
  Bi  Bi107  1  0.68937978  0.80602248  0.29991416  1
  Bi  Bi108  1  0.01294755  0.51627377  -0.02943791  1
  Bi  Bi109  1  0.16976532  0.85517021  0.55710500  1
  Bi  Bi110  1  0.40801637  0.36728386  0.12860426  1
  Bi  Bi111  1  0.67142496  0.28182302  0.38419473  1
  Bi  Bi112  1  0.87313689  0.11948749  0.80510715  1
  Bi  Bi113  1  0.46989506  0.61754736  0.66458221  1
  Bi  Bi114  1  0.41660637  0.56848841  0.46261539  1
  Bi  Bi115  1  0.13582281  0.36492216  0.14241304  1
  Bi  Bi116  1  0.58643914  0.45985409  0.87224341  1
  Bi  Bi117  1  0.36555193  0.31787629  0.91706900  1
  Bi  Bi118  1  0.38562991  0.82824948  0.40844033  1
  Bi  Bi119  1  0.61277858  0.12622244  0.88277408  1
  Bi  Bi120  1  0.31884103  0.36408723  0.58724746  1
  Bi  Bi121  1  0.15287922  0.43276261  0.78887465  1
  Bi  Bi122  1  0.87964281  0.89524483  0.04174363  1
  Bi  Bi123  1  0.40418653  0.08582880  0.65680119  1
  Bi  Bi124  1  0.73677671  0.18075002  0.18978080  1
  Bi  Bi125  1  0.86514218  0.62579436  0.13926023  1
  Bi  Bi126  1  1.01976842  0.88120854  0.80107211  1
  Bi  Bi127  1  0.83632653  0.36165966  0.62858132  1
