# generated using pymatgen
data_Ba51Fe51Bi26
_symmetry_space_group_name_H-M   'P 1'
_cell_length_a   16.83707925
_cell_length_b   16.22403116
_cell_length_c   16.06999822
_cell_angle_alpha   88.77200689
_cell_angle_beta   92.25788498
_cell_angle_gamma   91.70466384
_symmetry_Int_Tables_number   1
_chemical_formula_structural   Ba51Fe51Bi26
_chemical_formula_sum   'Ba51 Fe51 Bi26'
_cell_volume   4383.51450853
_cell_formula_units_Z   1
loop_
 _symmetry_equiv_pos_site_id
 _symmetry_equiv_pos_as_xyz
  1  'x, y, z'
loop_
 _atom_site_type_symbol
 _atom_site_label
 _atom_site_symmetry_multiplicity
 _atom_site_fract_x
 _atom_site_fract_y
 _atom_site_fract_z
 _atom_site_occupancy
  Ba  Ba0  1  0.52338274  0.01740894  0.73911608  1
  Ba  Ba1  1  0.48472565  0.31695619  0.65874006  1
  Ba  Ba2  1  0.76595491  0.04786175  0.71530597  1
  Ba  Ba3  1  0.02674804  0.50332920  0.00881099  1
  Ba  Ba4  1  0.41737796  0.46233335  0.87867039  1
  Ba  Ba5  1  0.84879180  -0.04238700  0.10131449  1
  Ba  Ba6  1  0.63678652  -0.03305103  -0.04237106  1
  Ba  Ba7  1  0.64385245  0.51338817  0.84191722  1
  Ba  Ba8  1  0.64273872  0.77801416  0.75036847  1
  Ba  Ba9  1  -0.03488076  0.50130828  0.26157119  1
  Ba  Ba10  1  0.72148013  0.36384624  0.66282007  1
  Ba  Ba11  1  0.83551021  0.66155371  -0.13033264  1
  Ba  Ba12  1  0.45314717  0.20232804  0.26164684  1
  Ba  Ba13  1  0.84577014  0.13531948  -0.06768762  1
  Ba  Ba14  1  0.69630602  0.78094002  0.40669775  1
  Ba  Ba15  1  0.57781586  0.52477293  0.10990677  1
  Ba  Ba16  1  -0.03071468  -0.11642475  0.46641119  1
  Ba  Ba17  1  0.29696915  0.30258738  0.51162950  1
  Ba  Ba18  1  0.31944979  0.56477854  0.06347624  1
  Ba  Ba19  1  0.20782474  0.05799180  0.43340808  1
  Ba  Ba20  1  0.34343460  0.43334139  0.27886322  1
  Ba  Ba21  1  0.05422163  0.26511446  0.55396513  1
  Ba  Ba22  1  0.41932299  0.20474162  0.87999434  1
  Ba  Ba23  1  0.74395503  0.04057053  0.46789357  1
  Ba  Ba24  1  0.20576902  0.08472663  0.19016326  1
  Ba  Ba25  1  0.10778316  0.70766977  0.38759694  1
  Ba  Ba26  1  0.03617341  0.52198898  0.75551368  1
  Ba  Ba27  1  0.16518164  0.07748505  0.70086245  1
  Ba  Ba28  1  0.33175672  -0.05844075  -0.10802992  1
  Ba  Ba29  1  0.83174430  0.34020464  0.08196072  1
  Ba  Ba30  1  -0.11304232  0.25702791  0.33616621  1
  Ba  Ba31  1  -0.07366367  0.30251622  0.75521634  1
  Ba  Ba32  1  0.25111834  -0.15057036  0.60811664  1
  Ba  Ba33  1  0.45451892  0.56340959  0.51161297  1
  Ba  Ba34  1  0.60321050  0.27945183  0.04652020  1
  Ba  Ba35  1  0.38174899  -0.07600116  0.19118104  1
  Ba  Ba36  1  0.46843346  0.81027205  0.44856491  1
  Ba  Ba37  1  -0.02063340  0.87181360  0.74083265  1
  Ba  Ba38  1  0.80576992  0.69907230  0.18482589  1
  Ba  Ba39  1  0.67235873  0.51763600  0.35366064  1
  Ba  Ba40  1  0.22218953  0.29870376  0.03577669  1
  Ba  Ba41  1  0.68274680  0.28969600  0.43229901  1
  Ba  Ba42  1  0.46238927  0.06086852  0.49003388  1
  Ba  Ba43  1  0.08786554  0.06148762  -0.03757493  1
  Ba  Ba44  1  -0.02822609  0.79841939  0.01267537  1
  Ba  Ba45  1  0.70737409  0.10708810  0.21120630  1
  Ba  Ba46  1  0.04482086  0.50437921  0.49828261  1
  Ba  Ba47  1  0.85353799  0.65762318  0.60064755  1
  Ba  Ba48  1  0.30084511  0.68515318  0.27115270  1
  Ba  Ba49  1  0.22397568  0.69892571  0.81017095  1
  Ba  Ba50  1  0.26126912  0.47982104  0.67652147  1
  Fe  Fe51  1  0.71924235  0.29459464  0.86723971  1
  Fe  Fe52  1  0.27628139  0.26310425  0.72584554  1
  Fe  Fe53  1  0.88597339  0.36555018  0.50938765  1
  Fe  Fe54  1  1.01289606  0.07215358  0.14180688  1
  Fe  Fe55  1  0.21278225  0.21184800  0.84806757  1
  Fe  Fe56  1  0.12078724  0.34189664  0.86190132  1
  Fe  Fe57  1  0.43402829  0.82285908  0.00882559  1
  Fe  Fe58  1  0.93196056  0.17523595  0.14195769  1
  Fe  Fe59  1  0.14846857  0.30037599  0.72785795  1
  Fe  Fe60  1  0.83937079  0.47880454  0.46962463  1
  Fe  Fe61  1  0.55640183  0.82031814  0.23218161  1
  Fe  Fe62  1  0.59689127  0.71398622  0.15251765  1
  Fe  Fe63  1  0.24124929  0.24832093  0.33166183  1
  Fe  Fe64  1  0.49875750  0.68641502  1.02014856  1
  Fe  Fe65  1  1.06565892  0.93208862  0.14458656  1
  Fe  Fe66  1  0.04655015  0.16851354  0.25483652  1
  Fe  Fe67  1  0.68363947  0.83137805  0.13020134  1
  Fe  Fe68  1  0.51929884  0.80171668  0.90705422  1
  Fe  Fe69  1  0.35163272  0.67714276  0.63882820  1
  Fe  Fe70  1  0.14079660  0.61966164  0.16425579  1
  Fe  Fe71  1  0.05661299  0.32907679  0.29460134  1
  Fe  Fe72  1  0.17077026  0.37019605  0.35723462  1
  Fe  Fe73  1  0.64797978  0.17341983  0.89311276  1
  Fe  Fe74  1  0.25722419  0.34287539  0.83302693  1
  Fe  Fe75  1  1.08198809  0.21462842  0.82768074  1
  Fe  Fe76  1  -0.04616120  0.08191460  0.58724355  1
  Fe  Fe77  1  0.92451496  0.07330210  0.25888280  1
  Fe  Fe78  1  1.04539731  1.00029333  0.27689176  1
  Fe  Fe79  1  0.30894412  0.69599845  0.49621493  1
  Fe  Fe80  1  0.15299520  0.90077592  0.25810668  1
  Fe  Fe81  1  0.11959538  0.22519262  0.37359713  1
  Fe  Fe82  1  0.12962270  0.77722470  0.18615832  1
  Fe  Fe83  1  0.22227819  0.64680634  0.57883250  1
  Fe  Fe84  1  0.41673695  0.64229290  0.77245612  1
  Fe  Fe85  1  0.39585687  0.71577853  0.90632610  1
  Fe  Fe86  1  1.02827624  0.67427319  0.15674229  1
  Fe  Fe87  1  0.51423452  0.65760728  0.87251339  1
  Fe  Fe88  1  0.58928839  0.31141274  0.84674316  1
  Fe  Fe89  1  0.13806957  0.71885041  1.05376960  1
  Fe  Fe90  1  0.15985694  0.27525966  0.22674999  1
  Fe  Fe91  1  0.65618218  0.32900347  0.23544456  1
  Fe  Fe92  1  0.62874290  0.21254711  0.76579945  1
  Fe  Fe93  1  0.89060807  0.46167468  0.61579253  1
  Fe  Fe94  1  0.55687916  0.82702839  0.06643116  1
  Fe  Fe95  1  0.54230960  0.37489901  0.24547338  1
  Fe  Fe96  1  0.58616987  -0.05854661  0.15092997  1
  Fe  Fe97  1  0.45438214  0.74231522  0.14377266  1
  Fe  Fe98  1  0.17166135  0.87495348  0.08776446  1
  Fe  Fe99  1  0.02861164  0.28395694  0.15334257  1
  Fe  Fe100  1  0.67856327  -0.10021564  0.24376783  1
  Fe  Fe101  1  0.84332224  0.50718291  0.73090099  1
  Bi  Bi102  1  0.42197323  0.81022619  0.74697866  1
  Bi  Bi103  1  0.01131956  0.27195773  -0.02077761  1
  Bi  Bi104  1  -0.02474667  0.09114505  0.76038900  1
  Bi  Bi105  1  0.66092620  0.70913461  -0.01867054  1
  Bi  Bi106  1  -0.01673344  0.82143526  0.24218928  1
  Bi  Bi107  1  0.14862019  0.44427774  0.18380964  1
  Bi  Bi108  1  0.20449856  0.49061887  0.89346630  1
  Bi  Bi109  1  0.82486402  -0.06116936  0.31015039  1
  Bi  Bi110  1  0.55443208  0.98540773  0.31486772  1
  Bi  Bi111  1  0.49422768  0.36868096  0.41658220  1
  Bi  Bi112  1  0.29290040  0.77173688  0.05507647  1
  Bi  Bi113  1  0.00465747  0.09537000  0.42154853  1
  Bi  Bi114  1  0.24872566  0.52985242  0.44653416  1
  Bi  Bi115  1  0.13995077  0.85968649  0.91407454  1
  Bi  Bi116  1  0.51371555  0.65397631  0.29480562  1
  Bi  Bi117  1  0.61577183  0.16770238  0.60136928  1
  Bi  Bi118  1  0.07154153  0.70195726  0.61808680  1
  Bi  Bi119  1  0.61230539  0.90867427  0.57690516  1
  Bi  Bi120  1  0.81739999  0.89273954  0.88443527  1
  Bi  Bi121  1  0.84609826  0.20835970  0.56588677  1
  Bi  Bi122  1  0.80048883  0.86159170  0.60137950  1
  Bi  Bi123  1  0.27203710  0.86329494  0.38509259  1
  Bi  Bi124  1  0.83244066  0.43938859  0.88647664  1
  Bi  Bi125  1  0.35795053  0.13249700  0.66288381  1
  Bi  Bi126  1  0.86861822  0.63295006  0.39089491  1
  Bi  Bi127  1  0.42484865  0.36351357  0.09238141  1
