# generated using pymatgen
data_Ba51Fe51Bi26
_symmetry_space_group_name_H-M   'P 1'
_cell_length_a   16.63062563
_cell_length_b   16.07664140
_cell_length_c   16.32872605
_cell_angle_alpha   90.00190488
_cell_angle_beta   89.73836583
_cell_angle_gamma   89.66337458
_symmetry_Int_Tables_number   1
_chemical_formula_structural   Ba51Fe51Bi26
_chemical_formula_sum   'Ba51 Fe51 Bi26'
_cell_volume   4365.60251045
_cell_formula_units_Z   1
loop_
 _symmetry_equiv_pos_site_id
 _symmetry_equiv_pos_as_xyz
  1  'x, y, z'
loop_
 _atom_site_type_symbol
 _atom_site_label
 _atom_site_symmetry_multiplicity
 _atom_site_fract_x
 _atom_site_fract_y
 _atom_site_fract_z
 _atom_site_occupancy
  Ba  Ba0  1  0.19655691  0.03851389  0.79147426  1
  Ba  Ba1  1  0.59031131  0.34733899  0.37102671  1
  Ba  Ba2  1  0.26426861  0.56731802  0.80806422  1
  Ba  Ba3  1  0.22341882  -0.07727859  0.08937346  1
  Ba  Ba4  1  0.75763810  0.48792442  0.67137449  1
  Ba  Ba5  1  0.14606018  0.47513024  0.50511625  1
  Ba  Ba6  1  0.50101599  0.81066084  0.51488852  1
  Ba  Ba7  1  0.82564344  0.55192939  0.45358653  1
  Ba  Ba8  1  0.22803887  0.48011551  0.25285369  1
  Ba  Ba9  1  0.78474392  0.27596040  0.49830891  1
  Ba  Ba10  1  0.27256515  0.80663228  0.45535168  1
  Ba  Ba11  1  0.38077697  0.35233152  0.48537886  1
  Ba  Ba12  1  0.17036437  0.31207663  0.73583808  1
  Ba  Ba13  1  0.46578845  0.61784625  0.68401055  1
  Ba  Ba14  1  0.40730389  0.59116044  0.44242038  1
  Ba  Ba15  1  0.56467057  0.06484136  0.55030446  1
  Ba  Ba16  1  0.01231222  0.53159200  0.73034644  1
  Ba  Ba17  1  0.26683117  0.16827039  -0.01225300  1
  Ba  Ba18  1  0.48743825  0.23240637  -0.01645065  1
  Ba  Ba19  1  0.55161126  0.40948498  0.75635576  1
  Ba  Ba20  1  0.31358678  0.69821679  0.05124244  1
  Ba  Ba21  1  0.81405970  -0.01944728  0.53285472  1
  Ba  Ba22  1  0.08934223  0.77250428  0.69911525  1
  Ba  Ba23  1  0.54015430  -0.13522583  0.75885289  1
  Ba  Ba24  1  0.08594966  0.12733568  0.22965522  1
  Ba  Ba25  1  -0.06277656  0.47849994  0.17604247  1
  Ba  Ba26  1  0.34317834  -0.00806076  0.30321119  1
  Ba  Ba27  1  0.06249040  -0.02264745  0.42103610  1
  Ba  Ba28  1  -0.06574161  0.21604629  0.71141218  1
  Ba  Ba29  1  -0.00182984  0.32549581  0.36825133  1
  Ba  Ba30  1  0.74152511  0.77224166  -0.04189128  1
  Ba  Ba31  1  -0.02402231  -0.08207350  0.85132814  1
  Ba  Ba32  1  0.69237218  0.51235827  -0.03641668  1
  Ba  Ba33  1  0.84489519  0.75807369  0.28670218  1
  Ba  Ba34  1  0.64590775  0.56186469  0.23254202  1
  Ba  Ba35  1  0.81286979  0.22040638  0.19937329  1
  Ba  Ba36  1  0.74001756  0.22144982  -0.04760115  1
  Ba  Ba37  1  -0.10962959  0.01068272  0.06228977  1
  Ba  Ba38  1  0.44808863  0.48113807  0.04552528  1
  Ba  Ba39  1  0.70913185  -0.05825119  0.21545088  1
  Ba  Ba40  1  0.00698923  0.74369761  0.06024537  1
  Ba  Ba41  1  -0.06941465  0.53939767  -0.05415541  1
  Ba  Ba42  1  0.18779279  0.42325440  -0.01516574  1
  Ba  Ba43  1  0.57718740  -0.03484463  -0.01035887  1
  Ba  Ba44  1  0.31151466  0.81306238  0.75503041  1
  Ba  Ba45  1  0.41624718  0.21465600  0.68530767  1
  Ba  Ba46  1  0.73820743  0.01490376  0.78131687  1
  Ba  Ba47  1  0.72197170  0.73897745  0.59018745  1
  Ba  Ba48  1  0.01912401  0.74143567  0.48470912  1
  Ba  Ba49  1  0.29175683  0.10746381  0.50444662  1
  Ba  Ba50  1  0.58512779  0.15306508  0.19911041  1
  Fe  Fe51  1  0.47370790  0.32527160  0.18973151  1
  Fe  Fe52  1  0.93618956  0.23879157  0.90996904  1
  Fe  Fe53  1  0.35401567  0.95024533  0.61380874  1
  Fe  Fe54  1  0.62928696  0.26392564  0.63067262  1
  Fe  Fe55  1  0.96478483  0.19513908  0.03793863  1
  Fe  Fe56  1  0.14602939  0.81777628  0.30609454  1
  Fe  Fe57  1  0.91365221  1.02855698  0.25245573  1
  Fe  Fe58  1  0.16378079  0.74872102  0.19132789  1
  Fe  Fe59  1  0.09647713  0.24003244  0.07140756  1
  Fe  Fe60  1  0.04688250  0.68670484  0.86934049  1
  Fe  Fe61  1  0.43756032  -0.12487476  0.08847371  1
  Fe  Fe62  1  0.55468198  0.73562013  0.90001401  1
  Fe  Fe63  1  0.11324562  0.14777070  0.58723723  1
  Fe  Fe64  1  0.73374480  0.27968307  0.72754180  1
  Fe  Fe65  1  0.09582915  0.63347524  0.21210601  1
  Fe  Fe66  1  0.49934930  0.05315641  0.82077907  1
  Fe  Fe67  1  0.05690851  0.27692813  0.56296893  1
  Fe  Fe68  1  0.82364549  0.64447104  0.79454073  1
  Fe  Fe69  1  0.15675414  0.67342423  0.33662232  1
  Fe  Fe70  1  0.47303627  0.67784382  0.21898977  1
  Fe  Fe71  1  0.07595533  0.23793947  0.93259051  1
  Fe  Fe72  1  0.38311945  0.30917577  0.29007066  1
  Fe  Fe73  1  0.02343961  0.35346324  0.01574975  1
  Fe  Fe74  1  0.31134540  0.49318826  0.61599323  1
  Fe  Fe75  1  0.89805924  0.81598618  0.69360500  1
  Fe  Fe76  1  0.40996728  0.82501134  0.21891461  1
  Fe  Fe77  1  0.54519568  0.80504923  0.18035489  1
  Fe  Fe78  1  0.41731158  0.69152864  0.88130416  1
  Fe  Fe79  1  0.88765044  0.68034371  0.68018670  1
  Fe  Fe80  1  0.36245405  0.41113034  0.69762176  1
  Fe  Fe81  1  0.51752279  0.88039353  0.32436079  1
  Fe  Fe82  1  0.98595349  0.28984875  0.13339986  1
  Fe  Fe83  1  0.45299098  0.80514460  0.96027605  1
  Fe  Fe84  1  0.39908868  0.01003623  0.72563338  1
  Fe  Fe85  1  0.18607839  0.27346334  0.52709839  1
  Fe  Fe86  1  1.03600903  0.73864340  0.27942215  1
  Fe  Fe87  1  0.56140332  1.01054435  0.34324179  1
  Fe  Fe88  1  0.38467564  0.10392941  0.84096077  1
  Fe  Fe89  1  0.87223502  0.09245029  0.36241494  1
  Fe  Fe90  1  0.39276007  0.19707737  0.21129014  1
  Fe  Fe91  1  0.51623463  0.60507194  0.89269552  1
  Fe  Fe92  1  0.93043406  0.72686669  0.81963480  1
  Fe  Fe93  1  0.11444085  0.18278805  0.45367916  1
  Fe  Fe94  1  -0.00220353  0.35431537  0.87662373  1
  Fe  Fe95  1  0.44801553  0.75254241  0.33307649  1
  Fe  Fe96  1  0.79835042  0.78005316  0.76833782  1
  Fe  Fe97  1  0.87674773  0.94804523  0.34702136  1
  Fe  Fe98  1  0.89525405  0.32969168  1.01095075  1
  Fe  Fe99  1  0.50867366  0.94801768  0.20075406  1
  Fe  Fe100  1  0.57948089  0.74928235  0.30969768  1
  Fe  Fe101  1  0.71839116  0.16814963  0.65550260  1
  Bi  Bi102  1  0.45721061  0.16600743  0.37483811  1
  Bi  Bi103  1  0.02319352  0.90135190  0.21339770  1
  Bi  Bi104  1  0.83549027  0.37426996  0.83698921  1
  Bi  Bi105  1  0.01882847  0.56875766  0.35202083  1
  Bi  Bi106  1  0.66975012  0.86618450  0.40761020  1
  Bi  Bi107  1  0.30506130  0.69790485  0.26737451  1
  Bi  Bi108  1  0.65503308  0.65536267  0.78772670  1
  Bi  Bi109  1  0.54422153  0.68119911  0.05651808  1
  Bi  Bi110  1  -0.04322602  0.14472584  0.50348323  1
  Bi  Bi111  1  0.37644071  -0.04928297  -0.09136366  1
  Bi  Bi112  1  0.21676199  0.27796825  0.35708358  1
  Bi  Bi113  1  0.44640522  0.47596671  0.26956360  1
  Bi  Bi114  1  0.07905202  0.07103741  -0.00722638  1
  Bi  Bi115  1  0.60502414  0.55519125  0.52462040  1
  Bi  Bi116  1  0.60115641  0.18818589  0.79070385  1
  Bi  Bi117  1  0.15775432  0.80464986  0.90876007  1
  Bi  Bi118  1  0.35345360  0.35608414  0.85659135  1
  Bi  Bi119  1  0.94600416  0.40508124  0.57569723  1
  Bi  Bi120  1  0.24218987  0.64954458  0.60437046  1
  Bi  Bi121  1  0.41176289  0.05491425  0.10916367  1
  Bi  Bi122  1  0.70496211  0.10546745  0.37638896  1
  Bi  Bi123  1  0.78902085  0.39995694  0.31294636  1
  Bi  Bi124  1  0.18716933  0.94192289  0.60038126  1
  Bi  Bi125  1  0.31744296  0.32406813  0.12422780  1
  Bi  Bi126  1  0.81442830  0.64009404  0.10686277  1
  Bi  Bi127  1  0.62537836  0.35161896  0.10976651  1
