# generated using pymatgen
data_Ba51Fe51Bi26
_symmetry_space_group_name_H-M   'P 1'
_cell_length_a   16.54554684
_cell_length_b   16.24851629
_cell_length_c   16.69305614
_cell_angle_alpha   89.35107382
_cell_angle_beta   89.09489330
_cell_angle_gamma   90.68807662
_symmetry_Int_Tables_number   1
_chemical_formula_structural   Ba51Fe51Bi26
_chemical_formula_sum   'Ba51 Fe51 Bi26'
_cell_volume   4486.58988423
_cell_formula_units_Z   1
loop_
 _symmetry_equiv_pos_site_id
 _symmetry_equiv_pos_as_xyz
  1  'x, y, z'
loop_
 _atom_site_type_symbol
 _atom_site_label
 _atom_site_symmetry_multiplicity
 _atom_site_fract_x
 _atom_site_fract_y
 _atom_site_fract_z
 _atom_site_occupancy
  Ba  Ba0  1  0.33447509  0.45212846  0.80450856  1
  Ba  Ba1  1  0.31207279  0.46910866  0.22911053  1
  Ba  Ba2  1  -0.06061986  0.56048232  0.24504769  1
  Ba  Ba3  1  0.69360974  0.79586990  0.13793951  1
  Ba  Ba4  1  0.77040324  -0.07821010  0.42235782  1
  Ba  Ba5  1  0.21800955  -0.01035781  0.07867605  1
  Ba  Ba6  1  0.83402283  0.39699854  0.81912329  1
  Ba  Ba7  1  0.07351612  0.31157766  0.23546379  1
  Ba  Ba8  1  0.31873757  0.18716745  -0.03395300  1
  Ba  Ba9  1  -0.05946061  0.64432878  -0.15313825  1
  Ba  Ba10  1  0.26196505  0.36804072  0.59282538  1
  Ba  Ba11  1  0.48856677  0.43710203  0.41883015  1
  Ba  Ba12  1  0.68573951  0.78695563  -0.14735007  1
  Ba  Ba13  1  -0.02562751  0.17350271  0.87921533  1
  Ba  Ba14  1  0.11520393  0.52570561  0.09702836  1
  Ba  Ba15  1  0.06782431  0.43408977  0.78504463  1
  Ba  Ba16  1  0.26360839  0.17516093  0.73729326  1
  Ba  Ba17  1  0.23893945  0.91350008  0.55917862  1
  Ba  Ba18  1  0.64066355  0.67211236  0.40378049  1
  Ba  Ba19  1  0.79860978  0.56758158  0.04073186  1
  Ba  Ba20  1  0.41263071  0.68357075  -0.08339140  1
  Ba  Ba21  1  0.71276687  0.16901312  0.79400839  1
  Ba  Ba22  1  0.00429179  0.81376713  0.63326578  1
  Ba  Ba23  1  0.28794349  0.59578526  0.48555044  1
  Ba  Ba24  1  0.19449968  0.07462494  0.34705268  1
  Ba  Ba25  1  0.74097376  0.31546755  0.03095286  1
  Ba  Ba26  1  0.14930728  0.75201608  0.01533972  1
  Ba  Ba27  1  0.76161271  0.73029018  0.63025290  1
  Ba  Ba28  1  0.52128660  0.23246037  0.61106981  1
  Ba  Ba29  1  0.76785692  0.47045359  0.37516420  1
  Ba  Ba30  1  0.22525941  0.75488723  0.29080430  1
  Ba  Ba31  1  0.40643252  -0.01599683  0.26702679  1
  Ba  Ba32  1  0.46312875  0.76576706  0.18764858  1
  Ba  Ba33  1  0.56621939  0.58915229  0.75368447  1
  Ba  Ba34  1  0.69044207  0.44466287  0.61508255  1
  Ba  Ba35  1  0.52257945  0.85486455  0.59447114  1
  Ba  Ba36  1  0.79681950  0.01282407  0.01725936  1
  Ba  Ba37  1  0.00141113  -0.10074864  -0.08745699  1
  Ba  Ba38  1  0.05216463  0.52938243  0.52282839  1
  Ba  Ba39  1  -0.01846680  0.02320394  0.22608118  1
  Ba  Ba40  1  0.80615436  0.21226989  0.54800101  1
  Ba  Ba41  1  0.47358723  -0.02024252  0.03469623  1
  Ba  Ba42  1  0.77168513  0.20953210  0.27078310  1
  Ba  Ba43  1  0.03571825  0.29199185  0.55485761  1
  Ba  Ba44  1  0.49219897  0.19329884  0.33630255  1
  Ba  Ba45  1  0.50119243  0.27114624  0.09365950  1
  Ba  Ba46  1  0.52028739  0.02687040  0.80806248  1
  Ba  Ba47  1  -0.01443313  0.03781662  0.52811178  1
  Ba  Ba48  1  0.21549278  0.71882691  0.76671830  1
  Ba  Ba49  1  -0.04823543  0.72140933  0.41601068  1
  Ba  Ba50  1  0.51757625  0.52958793  0.07212880  1
  Fe  Fe51  1  0.32274500  0.24262406  0.45730390  1
  Fe  Fe52  1  0.85273545  0.55807034  0.56375206  1
  Fe  Fe53  1  0.83505896  -0.00720533  0.81908110  1
  Fe  Fe54  1  0.32179000  0.82038653  0.07760153  1
  Fe  Fe55  1  0.79464491  0.92888829  0.63163190  1
  Fe  Fe56  1  0.51930558  0.59908068  0.56232031  1
  Fe  Fe57  1  0.73633879  0.56353940  0.84100097  1
  Fe  Fe58  1  0.51244371  0.41305558  0.90636085  1
  Fe  Fe59  1  0.19340591  0.31914732  0.05915022  1
  Fe  Fe60  1  0.18230419  0.42525125  0.94774918  1
  Fe  Fe61  1  0.81744560  0.56417807  0.71470115  1
  Fe  Fe62  1  0.88767799  0.42128824  0.51235823  1
  Fe  Fe63  1  0.86845026  0.84545112  0.24007988  1
  Fe  Fe64  1  0.27951801  -0.02370346  0.75299767  1
  Fe  Fe65  1  0.52838090  0.39419884  0.77378231  1
  Fe  Fe66  1  -0.07033428  0.61318869  0.65479611  1
  Fe  Fe67  1  1.15320417  0.28767571  0.91464497  1
  Fe  Fe68  1  0.34847576  0.15443010  0.16633158  1
  Fe  Fe69  1  0.30302860  0.37578924  0.40733663  1
  Fe  Fe70  1  0.92435981  0.35640744  0.40354049  1
  Fe  Fe71  1  0.83626044  0.04134064  0.68846063  1
  Fe  Fe72  1  0.22034111  0.89089087  0.86780435  1
  Fe  Fe73  1  -0.09645830  0.46476532  0.64716379  1
  Fe  Fe74  1  0.86144666  0.88636788  0.74319545  1
  Fe  Fe75  1  0.72510824  0.94946633  0.75275622  1
  Fe  Fe76  1  0.59123452  0.30087613  0.91114556  1
  Fe  Fe77  1  0.81752767  0.72855031  0.28014730  1
  Fe  Fe78  1  0.86860083  0.72058125  0.15450031  1
  Fe  Fe79  1  0.32901069  0.86312544  0.95657654  1
  Fe  Fe80  1  0.64635846  0.36045451  0.80238505  1
  Fe  Fe81  1  0.19027102  0.27597665  0.42156354  1
  Fe  Fe82  1  0.26128678  0.55480675  0.96531950  1
  Fe  Fe83  1  0.31027712  0.29315000  0.13261874  1
  Fe  Fe84  1  0.53868550  0.98438681  0.41210050  1
  Fe  Fe85  1  0.51189128  0.06260475  0.51637792  1
  Fe  Fe86  1  0.36997264  1.11623834  0.49312266  1
  Fe  Fe87  1  0.65064514  0.45217408  -0.09236309  1
  Fe  Fe88  1  0.31966920  -0.00635882  0.88312074  1
  Fe  Fe89  1  0.15129972  0.93862141  0.75679557  1
  Fe  Fe90  1  0.22298192  0.19078180  0.15466017  1
  Fe  Fe91  1  -0.07252439  0.84417046  0.10958898  1
  Fe  Fe92  1  0.64392183  0.58924035  -0.07141251  1
  Fe  Fe93  1  0.46006303  0.68620777  0.48938248  1
  Fe  Fe94  1  0.61235705  0.03100319  0.29389121  1
  Fe  Fe95  1  0.17562603  0.40980559  0.40850939  1
  Fe  Fe96  1  0.40469044  0.98708238  0.46589570  1
  Fe  Fe97  1  -0.03338396  0.70391704  0.06457735  1
  Fe  Fe98  1  0.59559178  0.95896593  0.18483654  1
  Fe  Fe99  1  0.62481318  0.08766259  0.15609056  1
  Fe  Fe100  1  1.06240104  0.32925766  -0.00335189  1
  Fe  Fe101  1  0.15408355  0.56412295  0.90140082  1
  Bi  Bi102  1  0.38634202  -0.14349102  0.79773902  1
  Bi  Bi103  1  0.46439175  0.24719512  0.81957906  1
  Bi  Bi104  1  0.19702807  0.14919884  0.54059857  1
  Bi  Bi105  1  0.76315749  -0.00688889  0.21926850  1
  Bi  Bi106  1  0.65850956  0.10390643  0.43346600  1
  Bi  Bi107  1  0.02821743  0.76091721  0.20987959  1
  Bi  Bi108  1  0.09837549  0.17030007  0.05596565  1
  Bi  Bi109  1  -0.00647257  0.00858769  0.73327341  1
  Bi  Bi110  1  0.29534729  0.25647515  0.29024765  1
  Bi  Bi111  1  0.46264609  0.44592523  0.62612456  1
  Bi  Bi112  1  0.38698323  0.82342993  0.42125604  1
  Bi  Bi113  1  0.66075980  0.03898877  0.62714454  1
  Bi  Bi114  1  0.34763022  0.40942450  0.01209619  1
  Bi  Bi115  1  0.16264572  0.05367101  0.88034079  1
  Bi  Bi116  1  0.07996834  0.89289087  0.41197135  1
  Bi  Bi117  1  0.62257736  0.13542410  0.98808087  1
  Bi  Bi118  1  0.30953313  0.64739504  0.10240839  1
  Bi  Bi119  1  0.59287756  0.85911541  0.32108924  1
  Bi  Bi120  1  0.83982892  0.77708750  -0.01404853  1
  Bi  Bi121  1  0.13260854  0.55031217  0.32454126  1
  Bi  Bi122  1  0.65038212  0.30791526  0.44166670  1
  Bi  Bi123  1  0.39719602  0.03542941  0.63795590  1
  Bi  Bi124  1  0.39421245  0.66951375  0.65315610  1
  Bi  Bi125  1  0.95747525  0.19179929  0.37943993  1
  Bi  Bi126  1  0.43952102  0.62134748  0.33504786  1
  Bi  Bi127  1  0.91258451  0.21135052  0.09058899  1
