# generated using pymatgen
data_Ba51Fe51Bi26
_symmetry_space_group_name_H-M   'P 1'
_cell_length_a   16.71821618
_cell_length_b   16.51661731
_cell_length_c   16.12278442
_cell_angle_alpha   92.96748056
_cell_angle_beta   87.31420919
_cell_angle_gamma   88.39407713
_symmetry_Int_Tables_number   1
_chemical_formula_structural   Ba51Fe51Bi26
_chemical_formula_sum   'Ba51 Fe51 Bi26'
_cell_volume   4439.03522533
_cell_formula_units_Z   1
loop_
 _symmetry_equiv_pos_site_id
 _symmetry_equiv_pos_as_xyz
  1  'x, y, z'
loop_
 _atom_site_type_symbol
 _atom_site_label
 _atom_site_symmetry_multiplicity
 _atom_site_fract_x
 _atom_site_fract_y
 _atom_site_fract_z
 _atom_site_occupancy
  Ba  Ba0  1  0.02052654  0.31649267  0.20171271  1
  Ba  Ba1  1  0.72853103  0.80365295  0.78037853  1
  Ba  Ba2  1  0.78563859  0.25972215  0.28730131  1
  Ba  Ba3  1  0.56951978  0.42697222  -0.01125615  1
  Ba  Ba4  1  0.06001276  0.53314892  -0.04344080  1
  Ba  Ba5  1  0.77605916  0.52010213  0.44260197  1
  Ba  Ba6  1  0.76469942  0.02193727  -0.01702602  1
  Ba  Ba7  1  0.07325586  0.00936744  0.25061623  1
  Ba  Ba8  1  -0.02770940  0.67922715  0.75301883  1
  Ba  Ba9  1  0.31358255  0.39114947  -0.08546452  1
  Ba  Ba10  1  0.14085930  0.67305040  0.13526268  1
  Ba  Ba11  1  0.82208360  0.51467788  0.01859552  1
  Ba  Ba12  1  0.42919655  0.76847939  0.88352289  1
  Ba  Ba13  1  0.52855204  0.73403168  0.63821291  1
  Ba  Ba14  1  0.15888685  0.24711679  0.70533914  1
  Ba  Ba15  1  0.57404636  -0.09351527  0.11231527  1
  Ba  Ba16  1  0.24661292  0.31914804  0.27555165  1
  Ba  Ba17  1  0.19985142  0.22599715  0.02408502  1
  Ba  Ba18  1  0.21479656  0.72940376  0.77161292  1
  Ba  Ba19  1  0.01202917  0.17299633  0.47332790  1
  Ba  Ba20  1  0.81075493  0.79040239  0.24247643  1
  Ba  Ba21  1  -0.01652235  0.40166685  0.76791311  1
  Ba  Ba22  1  0.81084882  0.29325678  0.66486160  1
  Ba  Ba23  1  0.22148179  0.03467103  0.81718232  1
  Ba  Ba24  1  0.71704077  0.03967590  0.66218446  1
  Ba  Ba25  1  0.47271407  0.77994130  0.28180136  1
  Ba  Ba26  1  0.71173793  0.78207197  0.48031493  1
  Ba  Ba27  1  -0.04422757  0.06498972  0.71428347  1
  Ba  Ba28  1  0.62913292  0.27275263  0.51534616  1
  Ba  Ba29  1  0.35367916  0.08816750  0.22902010  1
  Ba  Ba30  1  0.84273239  0.76170762  -0.00219347  1
  Ba  Ba31  1  0.41645360  -0.01865750  0.47029123  1
  Ba  Ba32  1  0.57694796  0.18752813  -0.10335327  1
  Ba  Ba33  1  0.00223955  0.54233116  0.51312008  1
  Ba  Ba34  1  0.55148348  0.25752557  0.18700697  1
  Ba  Ba35  1  0.75103805  0.02874290  0.25681300  1
  Ba  Ba36  1  -0.06986155  0.83162633  0.59966364  1
  Ba  Ba37  1  0.50551086  0.47613884  0.53716539  1
  Ba  Ba38  1  0.48142749  0.02212882  0.72372214  1
  Ba  Ba39  1  0.36384957  0.60146604  0.07234566  1
  Ba  Ba40  1  0.23350347  0.52537574  0.45925419  1
  Ba  Ba41  1  0.39461792  -0.01161142  -0.02821442  1
  Ba  Ba42  1  0.31798652  0.27098310  0.49569302  1
  Ba  Ba43  1  -0.00917562  0.08950081  0.00578925  1
  Ba  Ba44  1  0.46730317  0.51694216  0.78251409  1
  Ba  Ba45  1  0.72778269  0.51674073  0.79182558  1
  Ba  Ba46  1  0.67447437  0.57777477  0.23165661  1
  Ba  Ba47  1  0.10658643  0.78380566  0.35686881  1
  Ba  Ba48  1  0.31767264  0.76728269  0.49712516  1
  Ba  Ba49  1  0.44888914  0.51094575  0.29337568  1
  Ba  Ba50  1  0.07667068  0.86049644  -0.02838165  1
  Fe  Fe51  1  0.75192199  0.96993436  0.44912020  1
  Fe  Fe52  1  0.29917965  0.77704184  0.18678696  1
  Fe  Fe53  1  0.87010812  -0.00202604  0.52068452  1
  Fe  Fe54  1  0.62090791  0.94439051  0.38849430  1
  Fe  Fe55  1  0.38221033  0.20750069  0.71298536  1
  Fe  Fe56  1  0.10959322  0.54590659  0.76262229  1
  Fe  Fe57  1  0.69303274  0.65795913  0.93456932  1
  Fe  Fe58  1  0.44881909  0.16866784  0.58075156  1
  Fe  Fe59  1  0.60275136  0.67148819  0.83985490  1
  Fe  Fe60  1  0.63529546  0.60242855  0.04475103  1
  Fe  Fe61  1  0.27681985  0.82802836  1.04098949  1
  Fe  Fe62  1  0.86423009  0.49536561  0.64368087  1
  Fe  Fe63  1  0.84297525  0.33364986  0.90589708  1
  Fe  Fe64  1  0.54114680  0.19548360  0.68078330  1
  Fe  Fe65  1  0.85144449  0.32655762  0.06784163  1
  Fe  Fe66  1  0.85099549  0.21440567  -0.02291895  1
  Fe  Fe67  1  0.64258695  0.07402876  0.43191688  1
  Fe  Fe68  1  0.01930657  0.62194065  0.29038636  1
  Fe  Fe69  1  0.17640182  0.57904797  0.64788832  1
  Fe  Fe70  1  0.52995294  0.71365913  0.06870169  1
  Fe  Fe71  1  0.25898002  0.49957610  0.22369764  1
  Fe  Fe72  1  0.25774215  0.52610581  0.74986798  1
  Fe  Fe73  1  0.61207870  0.95733222  0.52076365  1
  Fe  Fe74  1  0.74273739  0.22230898  0.08406002  1
  Fe  Fe75  1  0.34896948  -0.09085523  0.14968916  1
  Fe  Fe76  1  0.45874269  0.29348750  0.78007469  1
  Fe  Fe77  1  0.87869542  0.88381387  0.41238315  1
  Fe  Fe78  1  0.13436088  0.02647561  0.60516914  1
  Fe  Fe79  1  0.88977176  0.01216671  0.38532243  1
  Fe  Fe80  1  0.72663717  0.30461156  0.96947072  1
  Fe  Fe81  1  0.16468142  0.44364658  0.65167515  1
  Fe  Fe82  1  0.20093481  -0.00721805  0.47783420  1
  Fe  Fe83  1  0.40547519  0.79761577  1.08675681  1
  Fe  Fe84  1  0.12862793  0.51689801  0.26697993  1
  Fe  Fe85  1  0.98557871  0.49360377  0.31088910  1
  Fe  Fe86  1  0.54599209  0.62586784  0.95003192  1
  Fe  Fe87  1  0.46978098  0.30805199  0.64130818  1
  Fe  Fe88  1  0.88576367  0.59189703  0.27283843  1
  Fe  Fe89  1  0.21195393  0.87639954  0.15923289  1
  Fe  Fe90  1  0.00860554  0.51504082  0.17284857  1
  Fe  Fe91  1  0.72550377  0.35436593  0.11031779  1
  Fe  Fe92  1  0.60977050  0.77130714  0.95464308  1
  Fe  Fe93  1  0.56264198  0.09161841  0.55051260  1
  Fe  Fe94  1  0.93348808  0.22689289  0.84469337  1
  Fe  Fe95  1  0.05468415  0.19475743  0.86137394  1
  Fe  Fe96  1  0.94318362  0.63313921  0.15947801  1
  Fe  Fe97  1  0.14027290  0.87917233  0.55420374  1
  Fe  Fe98  1  0.47562638  0.32347594  0.37154039  1
  Fe  Fe99  1  0.17389209  0.43335691  0.79316760  1
  Fe  Fe100  1  0.24301765  0.93744803  0.61603900  1
  Fe  Fe101  1  0.66519364  0.72605037  0.07704792  1
  Bi  Bi102  1  0.27772958  -0.09183919  0.31661238  1
  Bi  Bi103  1  0.79981664  0.14330138  0.47351748  1
  Bi  Bi104  1  0.29534532  0.09750394  0.61916994  1
  Bi  Bi105  1  0.77895652  0.17300379  -0.16766312  1
  Bi  Bi106  1  0.11864268  0.70955315  0.56603294  1
  Bi  Bi107  1  -0.15155141  0.44125841  0.21275342  1
  Bi  Bi108  1  0.60830963  0.35083032  0.73856112  1
  Bi  Bi109  1  0.02706491  -0.03572980  0.46701479  1
  Bi  Bi110  1  -0.09157156  0.70633664  0.40538744  1
  Bi  Bi111  1  0.28502785  0.65071867  0.29448291  1
  Bi  Bi112  1  0.32522525  0.37669038  0.69294325  1
  Bi  Bi113  1  0.49646355  0.15955932  0.39336488  1
  Bi  Bi114  1  0.00117948  0.31986273  -0.02277439  1
  Bi  Bi115  1  0.79843757  0.64565250  0.63151594  1
  Bi  Bi116  1  0.16663796  0.44115419  0.10190645  1
  Bi  Bi117  1  0.35908695  0.86527836  0.70692364  1
  Bi  Bi118  1  0.91197309  0.93077120  0.12018336  1
  Bi  Bi119  1  0.61930577  0.39619539  0.34339154  1
  Bi  Bi120  1  0.09484814  0.90020421  0.72470081  1
  Bi  Bi121  1  0.20222834  0.13157033  0.37951534  1
  Bi  Bi122  1  0.34916207  0.60805821  0.63176584  1
  Bi  Bi123  1  0.90240732  0.90170236  0.84452104  1
  Bi  Bi124  1  0.20322818  0.01087462  0.06121814  1
  Bi  Bi125  1  0.55940996  0.64993025  0.42684877  1
  Bi  Bi126  1  0.59012185  -0.06383653  0.89211935  1
  Bi  Bi127  1  0.38364509  0.38799616  0.12254884  1
