# generated using pymatgen
data_Ba51Fe51Bi26
_symmetry_space_group_name_H-M   'P 1'
_cell_length_a   16.49060260
_cell_length_b   16.32583828
_cell_length_c   16.25940705
_cell_angle_alpha   91.29604867
_cell_angle_beta   90.86331494
_cell_angle_gamma   91.94520017
_symmetry_Int_Tables_number   1
_chemical_formula_structural   Ba51Fe51Bi26
_chemical_formula_sum   'Ba51 Fe51 Bi26'
_cell_volume   4373.21390497
_cell_formula_units_Z   1
loop_
 _symmetry_equiv_pos_site_id
 _symmetry_equiv_pos_as_xyz
  1  'x, y, z'
loop_
 _atom_site_type_symbol
 _atom_site_label
 _atom_site_symmetry_multiplicity
 _atom_site_fract_x
 _atom_site_fract_y
 _atom_site_fract_z
 _atom_site_occupancy
  Ba  Ba0  1  -0.02669253  0.27452809  0.82925354  1
  Ba  Ba1  1  0.00849248  0.46599898  0.51703428  1
  Ba  Ba2  1  0.17669353  0.45216833  0.71863408  1
  Ba  Ba3  1  0.74473579  0.51775940  0.58217727  1
  Ba  Ba4  1  0.13535270  -0.03159161  0.64356279  1
  Ba  Ba5  1  0.24831242  0.69693862  0.61847989  1
  Ba  Ba6  1  0.65079420  0.80650633  0.46050632  1
  Ba  Ba7  1  0.74172642  0.55934368  -0.00806793  1
  Ba  Ba8  1  0.00198164  0.50608927  -0.05940060  1
  Ba  Ba9  1  0.53949335  0.24651925  -0.09094341  1
  Ba  Ba10  1  0.32477615  0.48919288  -0.03080340  1
  Ba  Ba11  1  0.51192866  0.00053181  0.74707271  1
  Ba  Ba12  1  0.71503891  0.60089856  0.31738580  1
  Ba  Ba13  1  0.04129572  0.26452640  0.35121296  1
  Ba  Ba14  1  0.74118949  0.02451382  0.59961118  1
  Ba  Ba15  1  0.23893185  -0.12424035  0.44292310  1
  Ba  Ba16  1  0.26586816  0.22457957  0.02877656  1
  Ba  Ba17  1  0.77088746  0.25725370  0.48301416  1
  Ba  Ba18  1  0.48699962  0.75782334  0.71557125  1
  Ba  Ba19  1  0.53116864  -0.05798146  0.03083022  1
  Ba  Ba20  1  0.27295161  -0.02746954  0.16900880  1
  Ba  Ba21  1  0.00913885  0.63361576  0.24480459  1
  Ba  Ba22  1  0.43452118  0.70900459  0.39542044  1
  Ba  Ba23  1  0.70404077  0.77667050  -0.12665978  1
  Ba  Ba24  1  0.32882947  0.49724869  0.24165388  1
  Ba  Ba25  1  0.53920141  0.22858921  0.43068966  1
  Ba  Ba26  1  -0.00989082  0.01606915  0.08858651  1
  Ba  Ba27  1  0.47804514  0.33414810  0.15372363  1
  Ba  Ba28  1  0.46321938  0.47207965  0.68934639  1
  Ba  Ba29  1  0.84073050  0.40195812  0.23061410  1
  Ba  Ba30  1  0.26366387  0.12933956  0.41258963  1
  Ba  Ba31  1  -0.06269775  0.03808395  0.77481688  1
  Ba  Ba32  1  -0.02498540  0.80728144  0.71352268  1
  Ba  Ba33  1  0.19816117  0.19029314  0.74456378  1
  Ba  Ba34  1  0.72462067  0.38994452  0.80147677  1
  Ba  Ba35  1  0.45754255  0.69591281  0.00695654  1
  Ba  Ba36  1  0.24180638  0.71411183  0.22658229  1
  Ba  Ba37  1  -0.08179473  0.78768241  0.04016731  1
  Ba  Ba38  1  -0.09816528  0.67898078  0.46469094  1
  Ba  Ba39  1  0.15445888  0.71117113  0.86215447  1
  Ba  Ba40  1  0.71974684  0.03643432  0.88824602  1
  Ba  Ba41  1  0.03611136  0.28150735  0.09132007  1
  Ba  Ba42  1  -0.07692106  -0.09133562  0.50998197  1
  Ba  Ba43  1  0.24187406  0.44944180  0.44451398  1
  Ba  Ba44  1  0.27343264  -0.02622568  -0.09280836  1
  Ba  Ba45  1  0.01503217  0.02176752  0.32726334  1
  Ba  Ba46  1  0.76498363  0.00996578  0.33075396  1
  Ba  Ba47  1  0.49991758  -0.00314663  0.51156136  1
  Ba  Ba48  1  0.65031511  0.78711745  0.19449347  1
  Ba  Ba49  1  0.40881870  0.22476841  0.63627400  1
  Ba  Ba50  1  0.64219589  0.17465213  0.19123639  1
  Fe  Fe51  1  0.78756335  0.78680440  0.59964192  1
  Fe  Fe52  1  0.56057608  0.43416130  0.48844368  1
  Fe  Fe53  1  0.12287537  0.86200951  0.04484074  1
  Fe  Fe54  1  0.41578562  0.97641967  0.33107505  1
  Fe  Fe55  1  0.35969632  0.90575680  0.61115113  1
  Fe  Fe56  1  0.46948170  0.99416115  0.20479643  1
  Fe  Fe57  1  0.88114686  0.30833056  0.63960843  1
  Fe  Fe58  1  0.06289737  0.12993041  0.50477910  1
  Fe  Fe59  1  0.48430719  0.53275939  0.12322478  1
  Fe  Fe60  1  0.32563193  0.01864017  0.71181910  1
  Fe  Fe61  1  0.04807349  0.65930078  0.60558758  1
  Fe  Fe62  1  0.01673691  0.29421755  0.64412634  1
  Fe  Fe63  1  0.55094280  0.54161351  0.40632328  1
  Fe  Fe64  1  0.05933442  0.80258165  0.39369398  1
  Fe  Fe65  1  0.43350833  0.52002293  0.48051392  1
  Fe  Fe66  1  0.21610937  0.30892526  0.24804026  1
  Fe  Fe67  1  0.07389547  0.77722886  0.52579281  1
  Fe  Fe68  1  0.83884149  0.74182386  0.23775153  1
  Fe  Fe69  1  0.93181775  0.10396885  0.51687968  1
  Fe  Fe70  1  0.03358042  0.15113824  0.63323976  1
  Fe  Fe71  1  0.72844734  0.19957716  1.00549673  1
  Fe  Fe72  1  0.78099054  0.85361738  0.71667869  1
  Fe  Fe73  1  0.62314658  0.47720522  0.15946077  1
  Fe  Fe74  1  0.31265369  0.02865629  0.58272678  1
  Fe  Fe75  1  0.51085614  0.59028199  0.85048395  1
  Fe  Fe76  1  0.91306337  0.61917076  0.66684944  1
  Fe  Fe77  1  0.67482742  0.72012179  0.65432626  1
  Fe  Fe78  1  0.53166083  0.90821637  0.32435242  1
  Fe  Fe79  1  0.66132862  0.85525792  0.66002866  1
  Fe  Fe80  1  0.02943418  0.60037231  0.72829064  1
  Fe  Fe81  1  0.47412394  0.43200956  0.35706468  1
  Fe  Fe82  1  0.85809501  0.87494449  0.21305571  1
  Fe  Fe83  1  0.85891144  0.38414636  0.02845617  1
  Fe  Fe84  1  0.80066512  0.69753893  0.70941063  1
  Fe  Fe85  1  0.11308754  0.73712384  0.07300837  1
  Fe  Fe86  1  0.48192556  0.64717219  0.20283018  1
  Fe  Fe87  1  0.44549326  0.11279406  0.26885069  1
  Fe  Fe88  1  0.61623467  0.17428331  0.66511146  1
  Fe  Fe89  1  0.83545728  0.25679296  1.09105046  1
  Fe  Fe90  1  0.59956943  0.97807026  0.22734601  1
  Fe  Fe91  1  0.81016504  0.81490479  0.34483820  1
  Fe  Fe92  1  0.89989139  0.17398822  0.63313830  1
  Fe  Fe93  1  0.55184015  0.05367143  0.33084476  1
  Fe  Fe94  1  0.96660422  0.24357321  0.52455413  1
  Fe  Fe95  1  0.94307402  0.82748939  0.31771659  1
  Fe  Fe96  1  0.81101143  0.29343387  0.94390833  1
  Fe  Fe97  1  0.53630810  0.53122121  0.26118727  1
  Fe  Fe98  1  0.60000310  0.60386926  0.12984835  1
  Fe  Fe99  1  0.29783724  0.88489158  0.72264040  1
  Fe  Fe100  1  0.42548548  0.38400409  0.48016951  1
  Fe  Fe101  1  0.80083569  0.11956299  0.09741094  1
  Bi  Bi102  1  0.63714616  0.39347344  0.32116482  1
  Bi  Bi103  1  0.77086717  0.19199942  0.73282327  1
  Bi  Bi104  1  0.55937563  0.62545300  0.55345897  1
  Bi  Bi105  1  0.27232425  0.79464637  0.02688529  1
  Bi  Bi106  1  0.74513779  -0.04161505  0.10671954  1
  Bi  Bi107  1  0.53978579  0.47914184  -0.02697607  1
  Bi  Bi108  1  0.65651993  0.59390332  0.76971352  1
  Bi  Bi109  1  0.36204667  0.29877736  0.33344744  1
  Bi  Bi110  1  -0.06724178  0.45381184  0.71921730  1
  Bi  Bi111  1  0.43805205  0.82178462  0.20720044  1
  Bi  Bi112  1  0.07642929  0.84442850  0.21173321  1
  Bi  Bi113  1  0.15354809  0.27706394  0.54701479  1
  Bi  Bi114  1  0.69154219  0.35402376  0.06260792  1
  Bi  Bi115  1  0.16128188  0.14926220  0.21381391  1
  Bi  Bi116  1  0.86607488  0.18382632  0.24697689  1
  Bi  Bi117  1  0.90293014  0.66159799  0.84608430  1
  Bi  Bi118  1  0.06211351  0.90566818  0.89283818  1
  Bi  Bi119  1  0.35209604  0.32357184  0.82674840  1
  Bi  Bi120  1  0.15631085  0.36507583  0.91145032  1
  Bi  Bi121  1  0.10646103  0.10639085  0.91858326  1
  Bi  Bi122  1  0.88783093  0.14519950  0.96320188  1
  Bi  Bi123  1  0.60916438  0.33335951  0.61613020  1
  Bi  Bi124  1  0.44016285  0.12094558  0.09084680  1
  Bi  Bi125  1  0.11300466  0.44022661  0.25558615  1
  Bi  Bi126  1  0.13478545  0.64994281  0.43244913  1
  Bi  Bi127  1  0.34854076  0.61926115  0.80343888  1
