# generated using pymatgen
data_Ba51Fe51Bi26
_symmetry_space_group_name_H-M   'P 1'
_cell_length_a   16.35636665
_cell_length_b   16.53785722
_cell_length_c   16.18197349
_cell_angle_alpha   90.10066561
_cell_angle_beta   89.60057297
_cell_angle_gamma   89.05843835
_symmetry_Int_Tables_number   1
_chemical_formula_structural   Ba51Fe51Bi26
_chemical_formula_sum   'Ba51 Fe51 Bi26'
_cell_volume   4376.50674926
_cell_formula_units_Z   1
loop_
 _symmetry_equiv_pos_site_id
 _symmetry_equiv_pos_as_xyz
  1  'x, y, z'
loop_
 _atom_site_type_symbol
 _atom_site_label
 _atom_site_symmetry_multiplicity
 _atom_site_fract_x
 _atom_site_fract_y
 _atom_site_fract_z
 _atom_site_occupancy
  Ba  Ba0  1  0.13254069  0.20188283  0.22031933  1
  Ba  Ba1  1  0.48213093  0.28562576  0.22477147  1
  Ba  Ba2  1  -0.02071626  0.49297700  0.74051949  1
  Ba  Ba3  1  0.20853099  0.06880494  -0.04073799  1
  Ba  Ba4  1  0.75685723  0.28177112  0.23568829  1
  Ba  Ba5  1  0.74371737  0.25793620  0.82026640  1
  Ba  Ba6  1  0.69345155  0.25318359  0.55411368  1
  Ba  Ba7  1  0.49698418  -0.06155425  0.70243144  1
  Ba  Ba8  1  0.21732666  0.49847965  0.71278151  1
  Ba  Ba9  1  0.72834580  -0.00674154  0.02580540  1
  Ba  Ba10  1  0.22067411  -0.06695541  0.50513487  1
  Ba  Ba11  1  0.24769741  0.73697428  0.37116401  1
  Ba  Ba12  1  0.51802578  0.17065264  0.72510839  1
  Ba  Ba13  1  0.68252909  0.49500972  0.53747306  1
  Ba  Ba14  1  0.72534253  0.73378453  0.24637399  1
  Ba  Ba15  1  0.80801392  -0.06294841  0.76519680  1
  Ba  Ba16  1  0.28079583  0.57341767  -0.04704523  1
  Ba  Ba17  1  0.72159200  0.73734140  0.00199629  1
  Ba  Ba18  1  -0.06788004  0.06890186  0.23791571  1
  Ba  Ba19  1  -0.04363640  0.21714628  0.48946133  1
  Ba  Ba20  1  0.27478905  0.26085951  0.72654742  1
  Ba  Ba21  1  0.24009051  0.33693496  0.05301075  1
  Ba  Ba22  1  -0.08138013  -0.05296286  0.48292126  1
  Ba  Ba23  1  -0.05164859  0.45528260  0.46725354  1
  Ba  Ba24  1  0.24531817  0.01577840  0.72123017  1
  Ba  Ba25  1  0.89988945  0.52632457  0.18205334  1
  Ba  Ba26  1  0.48963358  0.70082592  0.26190080  1
  Ba  Ba27  1  0.49847272  0.74169691  0.51915638  1
  Ba  Ba28  1  0.24587914  0.57917898  0.19707266  1
  Ba  Ba29  1  -0.01889278  0.27741801  0.02020053  1
  Ba  Ba30  1  0.02610366  0.72344592  0.47184811  1
  Ba  Ba31  1  0.72338174  -0.03242530  0.28798583  1
  Ba  Ba32  1  0.70001971  0.01963693  0.54992797  1
  Ba  Ba33  1  0.46722413  0.00582453  -0.00384843  1
  Ba  Ba34  1  0.26245368  -0.01087629  0.26804105  1
  Ba  Ba35  1  0.22919260  0.20449134  0.47053006  1
  Ba  Ba36  1  0.45413208  0.25421490  -0.02402075  1
  Ba  Ba37  1  0.49455445  0.05559046  0.25541110  1
  Ba  Ba38  1  0.55765050  0.70614999  0.78884905  1
  Ba  Ba39  1  0.74124822  0.51768440  0.76625599  1
  Ba  Ba40  1  -0.01299329  0.78220460  0.71121322  1
  Ba  Ba41  1  0.03557351  0.50011645  -0.01494315  1
  Ba  Ba42  1  0.60843934  0.49401473  0.27942311  1
  Ba  Ba43  1  0.22197126  0.47254700  0.45833056  1
  Ba  Ba44  1  0.01031974  0.20812147  0.74533343  1
  Ba  Ba45  1  0.25709433  0.75107873  0.71267166  1
  Ba  Ba46  1  0.44158610  0.52421828  0.61429159  1
  Ba  Ba47  1  0.16943395  0.81353481  -0.03030000  1
  Ba  Ba48  1  0.45976701  0.75842263  0.01545637  1
  Ba  Ba49  1  0.51504982  0.43815659  0.84566442  1
  Ba  Ba50  1  0.46046459  0.26847545  0.48035275  1
  Fe  Fe51  1  0.80855262  0.79614010  0.56673534  1
  Fe  Fe52  1  0.91272917  0.00403005  0.92429814  1
  Fe  Fe53  1  0.92415892  0.67460536  0.87292424  1
  Fe  Fe54  1  0.50541222  0.56856614  0.99846147  1
  Fe  Fe55  1  0.42597300  0.87579263  0.25511761  1
  Fe  Fe56  1  0.86066407  0.84572314  0.12743662  1
  Fe  Fe57  1  0.91769350  0.67856462  0.31507623  1
  Fe  Fe58  1  0.80120831  0.39420008  0.05622258  1
  Fe  Fe59  1  0.06380142  0.94808251  0.63280167  1
  Fe  Fe60  1  0.83415620  0.74265133  0.42542118  1
  Fe  Fe61  1  0.38059628  0.08289604  0.57331677  1
  Fe  Fe62  1  0.92488957  0.96271350  1.07424345  1
  Fe  Fe63  1  0.66710496  0.82494610  0.58240091  1
  Fe  Fe64  1  0.00742194  0.83392606  0.11306366  1
  Fe  Fe65  1  0.00718824  0.09898679  0.91838306  1
  Fe  Fe66  1  0.63944684  0.55733369  0.95851040  1
  Fe  Fe67  1  0.50152838  0.06955447  0.52062054  1
  Fe  Fe68  1  0.89052389  0.10229699  0.01919821  1
  Fe  Fe69  1  0.62427790  0.32978722  0.38413266  1
  Fe  Fe70  1  0.45974800  0.54417844  0.14149346  1
  Fe  Fe71  1  0.07920998  0.06984030  0.57266327  1
  Fe  Fe72  1  0.01816008  0.08077863  0.05318926  1
  Fe  Fe73  1  0.09853168  0.43023052  0.19797975  1
  Fe  Fe74  1  0.29566819  0.64449651  0.54359142  1
  Fe  Fe75  1  0.09939861  0.38083381  0.33056114  1
  Fe  Fe76  1  0.84143973  0.39425922  0.92876620  1
  Fe  Fe77  1  0.39804512  0.89365647  0.38611228  1
  Fe  Fe78  1  0.71671763  0.51293606  0.07853209  1
  Fe  Fe79  1  0.59403242  0.59166622  0.09981624  1
  Fe  Fe80  1  0.17262680  0.64008254  0.57422892  1
  Fe  Fe81  1  0.42649082  0.46244892  1.03269281  1
  Fe  Fe82  1  0.71254075  0.83396760  0.45293134  1
  Fe  Fe83  1  0.39145951  0.03787059  0.43096367  1
  Fe  Fe84  1  0.61747639  0.16156675  0.08992900  1
  Fe  Fe85  1  0.92090389  0.72635609  0.16749084  1
  Fe  Fe86  1  0.40621754  0.48120424  0.27015704  1
  Fe  Fe87  1  0.99809875  0.36235902  0.25011865  1
  Fe  Fe88  1  0.79427849  0.11625215  0.39783748  1
  Fe  Fe89  1  0.71226726  0.69623969  0.48931966  1
  Fe  Fe90  1  0.37419981  0.42941268  0.15250636  1
  Fe  Fe91  1  0.96881228  0.03804842  0.64918417  1
  Fe  Fe92  1  0.44246447  0.34273744  0.67090377  1
  Fe  Fe93  1  0.41648774  0.94433387  0.52503766  1
  Fe  Fe94  1  0.70596159  0.42570648  0.94837556  1
  Fe  Fe95  1  0.04121431  0.72520856  0.25471020  1
  Fe  Fe96  1  0.71033487  0.70547825  0.63144527  1
  Fe  Fe97  1  0.36686760  0.12241887  0.83937237  1
  Fe  Fe98  1  0.62480919  0.16071664  0.96084505  1
  Fe  Fe99  1  0.56622990  0.36173733  0.66404008  1
  Fe  Fe100  1  0.13268278  0.80313016  0.18878568  1
  Fe  Fe101  1  0.03374805  0.95550145  0.98117182  1
  Bi  Bi102  1  -0.08413508  0.84817365  0.29380336  1
  Bi  Bi103  1  0.79282811  0.57920213  0.37366207  1
  Bi  Bi104  1  0.04550164  -0.02031214  0.80395749  1
  Bi  Bi105  1  0.83270836  0.55820895  -0.03838503  1
  Bi  Bi106  1  0.10624035  -0.03179104  0.13652419  1
  Bi  Bi107  1  0.76862503  0.22377671  0.02935441  1
  Bi  Bi108  1  0.30444240  0.79164380  0.16664724  1
  Bi  Bi109  1  0.58299025  0.41377388  0.06952050  1
  Bi  Bi110  1  -0.08542838  0.83153894  -0.04872117  1
  Bi  Bi111  1  0.06686573  0.55916214  0.32115896  1
  Bi  Bi112  1  0.78602439  0.72493301  0.78339304  1
  Bi  Bi113  1  0.55938530  -0.07923923  0.43054825  1
  Bi  Bi114  1  0.27202423  0.36396291  0.27625574  1
  Bi  Bi115  1  0.63440546  0.16364571  0.37196722  1
  Bi  Bi116  1  0.10819988  0.34479862  0.59590748  1
  Bi  Bi117  1  0.13619073  0.35666416  0.86303927  1
  Bi  Bi118  1  0.84850905  0.35472840  0.64611455  1
  Bi  Bi119  1  0.40105201  0.57925461  0.41081152  1
  Bi  Bi120  1  0.07322532  0.67112891  0.09621648  1
  Bi  Bi121  1  0.08585348  0.06722866  0.39613667  1
  Bi  Bi122  1  0.09762970  0.64846809  0.83786368  1
  Bi  Bi123  1  0.35253374  0.87322369  0.85801685  1
  Bi  Bi124  1  0.61494596  0.88760249  0.87657575  1
  Bi  Bi125  1  0.85964814  0.63087171  0.58732977  1
  Bi  Bi126  1  0.57413039  0.87489014  0.15678857  1
  Bi  Bi127  1  0.33401063  0.14635585  0.12383686  1
