# generated using pymatgen
data_Ba51Fe51Bi26
_symmetry_space_group_name_H-M   'P 1'
_cell_length_a   16.17511067
_cell_length_b   16.56671847
_cell_length_c   16.50985348
_cell_angle_alpha   89.02794460
_cell_angle_beta   92.17747987
_cell_angle_gamma   92.26697623
_symmetry_Int_Tables_number   1
_chemical_formula_structural   Ba51Fe51Bi26
_chemical_formula_sum   'Ba51 Fe51 Bi26'
_cell_volume   4416.93655990
_cell_formula_units_Z   1
loop_
 _symmetry_equiv_pos_site_id
 _symmetry_equiv_pos_as_xyz
  1  'x, y, z'
loop_
 _atom_site_type_symbol
 _atom_site_label
 _atom_site_symmetry_multiplicity
 _atom_site_fract_x
 _atom_site_fract_y
 _atom_site_fract_z
 _atom_site_occupancy
  Ba  Ba0  1  0.26372215  0.25672317  0.63643997  1
  Ba  Ba1  1  0.80002957  0.10260447  0.21780893  1
  Ba  Ba2  1  0.81173869  0.38316890  0.70596692  1
  Ba  Ba3  1  0.14620506  -0.01057712  0.74031496  1
  Ba  Ba4  1  0.40726559  -0.05448992  0.40849599  1
  Ba  Ba5  1  0.58314506  0.28481933  0.21014510  1
  Ba  Ba6  1  0.27591749  0.14705757  0.39234160  1
  Ba  Ba7  1  0.03006506  0.25071130  0.40351937  1
  Ba  Ba8  1  0.22197436  0.79128280  0.51512649  1
  Ba  Ba9  1  0.43714493  0.76099184  0.65565528  1
  Ba  Ba10  1  -0.07196505  0.20234650  0.60914941  1
  Ba  Ba11  1  0.52061781  0.23244936  0.43722600  1
  Ba  Ba12  1  0.53713732  0.52617713  0.20970408  1
  Ba  Ba13  1  0.71986843  0.54936926  0.53890664  1
  Ba  Ba14  1  0.48107858  0.46343740  0.46633894  1
  Ba  Ba15  1  0.51511011  0.00866999  0.20375516  1
  Ba  Ba16  1  0.50783329  0.72808851  0.33801126  1
  Ba  Ba17  1  0.02751434  0.22822485  0.00853999  1
  Ba  Ba18  1  0.76826440  0.27328897  0.03167738  1
  Ba  Ba19  1  0.52702448  -0.11952933  -0.08792898  1
  Ba  Ba20  1  0.67231466  0.14482110  0.59228789  1
  Ba  Ba21  1  0.61046590  0.26155759  0.81702677  1
  Ba  Ba22  1  -0.06591683  0.77466378  0.09117823  1
  Ba  Ba23  1  0.05259793  0.47438099  0.65390674  1
  Ba  Ba24  1  0.19082019  0.72572069  0.74409521  1
  Ba  Ba25  1  0.49364975  0.51458028  0.71308498  1
  Ba  Ba26  1  0.17562472  0.27580277  0.21853706  1
  Ba  Ba27  1  0.66914970  0.86618286  0.71814996  1
  Ba  Ba28  1  0.79395190  0.28671662  0.34246946  1
  Ba  Ba29  1  0.34094623  0.16074698  0.09884945  1
  Ba  Ba30  1  -0.05442594  0.46886835  0.10225190  1
  Ba  Ba31  1  0.20606735  0.68203977  -0.00383734  1
  Ba  Ba32  1  -0.00518443  0.59839273  0.89405924  1
  Ba  Ba33  1  0.74900340  0.89185941  0.26518299  1
  Ba  Ba34  1  0.43101536  0.41036202  0.00905018  1
  Ba  Ba35  1  0.84801688  0.08470892  0.81367378  1
  Ba  Ba36  1  0.24770978  0.44233916  0.42170369  1
  Ba  Ba37  1  -0.09608498  0.81229779  0.75981351  1
  Ba  Ba38  1  0.28122066  -0.08065812  0.00602239  1
  Ba  Ba39  1  0.03068337  0.77539711  0.31948173  1
  Ba  Ba40  1  0.25347745  0.65802073  0.27841302  1
  Ba  Ba41  1  0.68090108  -0.06597406  0.48084197  1
  Ba  Ba42  1  -0.02576200  0.67247875  0.54277656  1
  Ba  Ba43  1  0.71440329  0.70159839  0.00285262  1
  Ba  Ba44  1  0.44456565  0.69277343  0.05710096  1
  Ba  Ba45  1  0.72821451  0.49925164  -0.09830144  1
  Ba  Ba46  1  0.02965095  -0.01715831  0.02255979  1
  Ba  Ba47  1  0.25318313  0.46604238  0.81672176  1
  Ba  Ba48  1  -0.01524926  -0.03615016  0.46309031  1
  Ba  Ba49  1  -0.11560318  0.50996011  0.31953863  1
  Ba  Ba50  1  0.40102593  0.11917041  -0.14239657  1
  Fe  Fe51  1  1.10526373  0.31446416  0.73576088  1
  Fe  Fe52  1  0.25301140  0.48726494  1.02485540  1
  Fe  Fe53  1  0.82294878  0.71168438  0.27881044  1
  Fe  Fe54  1  0.66350706  0.10188111  0.36782869  1
  Fe  Fe55  1  0.08388143  0.06231366  0.31122902  1
  Fe  Fe56  1  0.70732833  0.73499214  0.38099602  1
  Fe  Fe57  1  0.65681229  0.98106860  0.06042140  1
  Fe  Fe58  1  0.69714832  0.58072664  0.73227728  1
  Fe  Fe59  1  0.08467385  0.37120807  0.86793264  1
  Fe  Fe60  1  0.11545223  0.96581482  0.20967730  1
  Fe  Fe61  1  0.27709866  1.03421478  0.55603650  1
  Fe  Fe62  1  0.11071563  0.45963566  0.97694977  1
  Fe  Fe63  1  0.05632308  0.49634835  0.45153807  1
  Fe  Fe64  1  0.75942302  0.88945453  0.05134664  1
  Fe  Fe65  1  0.14487116  0.41159400  0.09967755  1
  Fe  Fe66  1  0.19272892  0.08024890  0.21308775  1
  Fe  Fe67  1  0.16447166  0.59110733  0.51807289  1
  Fe  Fe68  1  0.72575716  0.35452448  0.50437361  1
  Fe  Fe69  1  0.48026067  0.96962367  0.71095704  1
  Fe  Fe70  1  1.09176710  0.18191740  0.71535338  1
  Fe  Fe71  1  0.09373069  0.60314253  0.39027823  1
  Fe  Fe72  1  0.36289129  0.06066164  0.68040389  1
  Fe  Fe73  1  0.04133044  0.10889521  0.19374751  1
  Fe  Fe74  1  0.70614516  0.60444375  0.32416780  1
  Fe  Fe75  1  0.25902861  0.57876772  0.61684300  1
  Fe  Fe76  1  0.05077434  0.14649069  0.83524462  1
  Fe  Fe77  1  0.75250046  0.70618809  0.65025208  1
  Fe  Fe78  1  0.40631318  0.11246226  0.56141566  1
  Fe  Fe79  1  0.78470163  0.76198199  0.51846645  1
  Fe  Fe80  1  0.99545721  0.26799222  0.80117862  1
  Fe  Fe81  1  0.82470590  0.89910469  0.93903130  1
  Fe  Fe82  1  0.31205181  0.56327805  0.11993641  1
  Fe  Fe83  1  0.67484878  0.70561758  0.23037213  1
  Fe  Fe84  1  0.48823448  1.00749739  0.58037061  1
  Fe  Fe85  1  0.26876457  0.45524820  0.18135901  1
  Fe  Fe86  1  0.82252134  0.66392350  0.41115651  1
  Fe  Fe87  1  0.61539806  0.67185866  0.82094490  1
  Fe  Fe88  1  0.45925327  0.22892081  0.65134545  1
  Fe  Fe89  1  0.15779645  0.24542443  0.84288565  1
  Fe  Fe90  1  0.61687794  0.67764197  0.68839083  1
  Fe  Fe91  1  0.70776608  0.96068631  0.92294594  1
  Fe  Fe92  1  0.25641041  0.95595490  0.21525912  1
  Fe  Fe93  1  0.65958767  0.09426205  0.95262263  1
  Fe  Fe94  1  0.74743255  0.69191948  0.79388814  1
  Fe  Fe95  1  0.85073857  0.79428044  0.40484454  1
  Fe  Fe96  1  0.76294765  0.61779034  0.18854517  1
  Fe  Fe97  1  0.36163550  0.94331165  0.60752435  1
  Fe  Fe98  1  0.50392884  0.10955531  0.68441307  1
  Fe  Fe99  1  0.53191397  0.05788889  0.01447743  1
  Fe  Fe100  1  0.15693981  0.54238706  0.11509270  1
  Fe  Fe101  1  0.63786757  0.11628815  0.08597548  1
  Bi  Bi102  1  0.53484559  0.22680170  0.01269441  1
  Bi  Bi103  1  0.10184089  0.48136961  0.26732280  1
  Bi  Bi104  1  0.62007375  0.04983661  0.79518031  1
  Bi  Bi105  1  0.19010400  0.09889513  0.92768057  1
  Bi  Bi106  1  0.19032254  -0.05390071  0.37090925  1
  Bi  Bi107  1  0.65919704  0.43592778  0.36564460  1
  Bi  Bi108  1  -0.04746347  -0.04037545  0.23512835  1
  Bi  Bi109  1  0.61168896  0.73924449  0.53250115  1
  Bi  Bi110  1  0.33796312  -0.09808665  0.77991133  1
  Bi  Bi111  1  0.82173600  0.05768149  0.01746932  1
  Bi  Bi112  1  0.87079198  0.59467269  0.71678302  1
  Bi  Bi113  1  0.22675524  0.32325846  -0.01428837  1
  Bi  Bi114  1  0.60347399  0.82558561  0.12252689  1
  Bi  Bi115  1  0.82148593  0.09903189  0.43735597  1
  Bi  Bi116  1  0.07382335  0.81486444  0.89307250  1
  Bi  Bi117  1  0.38634035  0.34993736  0.27116854  1
  Bi  Bi118  1  0.72314888  0.46800436  0.11588300  1
  Bi  Bi119  1  0.15213162  0.81821735  0.14742335  1
  Bi  Bi120  1  0.37298291  0.83701829  0.20106340  1
  Bi  Bi121  1  0.90026205  0.39905985  0.50732881  1
  Bi  Bi122  1  0.41069132  0.32704835  0.78143244  1
  Bi  Bi123  1  0.35291381  0.62868786  0.49064496  1
  Bi  Bi124  1  0.12131567  0.11179638  0.56008197  1
  Bi  Bi125  1  0.95123752  0.25930063  0.19997724  1
  Bi  Bi126  1  0.92015826  0.38982411  0.90025629  1
  Bi  Bi127  1  0.59811510  0.34673578  0.61290652  1
