# generated using pymatgen
data_Ba51Fe51Bi26
_symmetry_space_group_name_H-M   'P 1'
_cell_length_a   15.84527139
_cell_length_b   16.51392957
_cell_length_c   16.54846306
_cell_angle_alpha   91.35463579
_cell_angle_beta   91.79959193
_cell_angle_gamma   89.64001778
_symmetry_Int_Tables_number   1
_chemical_formula_structural   Ba51Fe51Bi26
_chemical_formula_sum   'Ba51 Fe51 Bi26'
_cell_volume   4326.78635735
_cell_formula_units_Z   1
loop_
 _symmetry_equiv_pos_site_id
 _symmetry_equiv_pos_as_xyz
  1  'x, y, z'
loop_
 _atom_site_type_symbol
 _atom_site_label
 _atom_site_symmetry_multiplicity
 _atom_site_fract_x
 _atom_site_fract_y
 _atom_site_fract_z
 _atom_site_occupancy
  Ba  Ba0  1  0.08395398  0.44702842  0.03023006  1
  Ba  Ba1  1  0.04056150  0.69498569  0.69671384  1
  Ba  Ba2  1  0.79002127  -0.02278590  0.51165713  1
  Ba  Ba3  1  0.83227495  0.27580734  0.47759145  1
  Ba  Ba4  1  0.84455784  -0.03697638  0.28396302  1
  Ba  Ba5  1  0.41632733  0.77531347  0.57100354  1
  Ba  Ba6  1  0.30837461  -0.14581651  -0.07890694  1
  Ba  Ba7  1  -0.00763158  0.08055708  0.62618264  1
  Ba  Ba8  1  -0.07517305  0.23088160  0.23182287  1
  Ba  Ba9  1  0.50084003  0.03191305  0.77276293  1
  Ba  Ba10  1  -0.06667445  0.59582746  0.17497718  1
  Ba  Ba11  1  0.37778523  0.01558008  0.52858339  1
  Ba  Ba12  1  0.10726304  0.26991699  0.42439724  1
  Ba  Ba13  1  0.37006853  0.47228231  0.06738804  1
  Ba  Ba14  1  0.04866765  0.29196264  0.72264936  1
  Ba  Ba15  1  0.38557012  0.51017565  0.74946928  1
  Ba  Ba16  1  0.53668061  0.74504830  0.80625267  1
  Ba  Ba17  1  0.82998468  0.00974006  -0.00395862  1
  Ba  Ba18  1  0.70681022  0.25494356  0.09705414  1
  Ba  Ba19  1  0.62537010  0.05559089  0.22954234  1
  Ba  Ba20  1  0.51058071  0.06779634  -0.00773907  1
  Ba  Ba21  1  0.10470384  0.00253925  -0.02072555  1
  Ba  Ba22  1  0.17094431  0.21862171  -0.08365377  1
  Ba  Ba23  1  0.46803392  0.50709586  0.46070487  1
  Ba  Ba24  1  0.32600664  0.06400225  0.16917268  1
  Ba  Ba25  1  0.35495323  0.84711528  0.31644106  1
  Ba  Ba26  1  0.21678394  0.28839815  0.19999270  1
  Ba  Ba27  1  -0.11050627  0.48399604  0.73692946  1
  Ba  Ba28  1  0.38792526  0.71900729  0.11366936  1
  Ba  Ba29  1  -0.12567015  0.30408288  -0.09468261  1
  Ba  Ba30  1  0.50065891  0.28100839  0.69408252  1
  Ba  Ba31  1  0.17534038  -0.07008538  0.69323355  1
  Ba  Ba32  1  0.66438736  0.78392816  0.08240199  1
  Ba  Ba33  1  0.73180136  0.54806880  -0.02117071  1
  Ba  Ba34  1  -0.07247322  0.76266698  0.48176905  1
  Ba  Ba35  1  0.06923696  0.00785756  0.22450422  1
  Ba  Ba36  1  0.75208025  0.74547978  0.30545339  1
  Ba  Ba37  1  0.08607881  0.76881960  0.27503456  1
  Ba  Ba38  1  0.69029538  0.74973780  0.56646311  1
  Ba  Ba39  1  0.16476920  0.49799133  0.63433565  1
  Ba  Ba40  1  0.22470778  0.62418834  -0.09203403  1
  Ba  Ba41  1  0.60466293  0.12332473  0.50091965  1
  Ba  Ba42  1  0.04907268  0.73923635  0.02850952  1
  Ba  Ba43  1  0.53878431  0.34151000  -0.07371233  1
  Ba  Ba44  1  0.64928813  0.38717150  0.30967529  1
  Ba  Ba45  1  -0.02049281  0.52963853  0.43569134  1
  Ba  Ba46  1  0.75867107  0.00123412  0.75614428  1
  Ba  Ba47  1  0.22603753  0.53631234  0.32071105  1
  Ba  Ba48  1  0.84818951  0.76852993  0.84534876  1
  Ba  Ba49  1  0.74236736  0.51677105  0.50058558  1
  Ba  Ba50  1  0.64752764  0.47580503  0.71531943  1
  Fe  Fe51  1  0.49194652  0.18942555  0.13999865  1
  Fe  Fe52  1  0.86401725  0.43508686  0.27205610  1
  Fe  Fe53  1  0.50187318  0.87079152  0.98710514  1
  Fe  Fe54  1  0.34295816  0.17705724  0.75372989  1
  Fe  Fe55  1  0.63465360  0.58713549  0.32506473  1
  Fe  Fe56  1  0.34680184  0.29775654  0.38155472  1
  Fe  Fe57  1  0.11992588  0.68893467  0.49161966  1
  Fe  Fe58  1  0.51120762  0.96555600  0.34931110  1
  Fe  Fe59  1  0.13782860  -0.00751045  0.50115251  1
  Fe  Fe60  1  0.23970044  0.87185656  0.51246651  1
  Fe  Fe61  1  0.97290943  0.57845188  0.90686448  1
  Fe  Fe62  1  0.55409997  0.60696711  1.11146466  1
  Fe  Fe63  1  0.21775054  0.76078264  0.43215497  1
  Fe  Fe64  1  0.21186302  0.15213640  0.69899472  1
  Fe  Fe65  1  0.39317101  0.19187783  0.87989940  1
  Fe  Fe66  1  0.34401489  0.30716463  0.83958063  1
  Fe  Fe67  1  0.67754066  0.59318736  0.19228756  1
  Fe  Fe68  1  0.76499707  0.63678212  0.70873938  1
  Fe  Fe69  1  0.17520377  0.90549404  0.39206126  1
  Fe  Fe70  1  0.00888470  0.27324393  0.06445880  1
  Fe  Fe71  1  0.67369975  0.17337031  0.71219534  1
  Fe  Fe72  1  0.54985280  0.22743961  0.26005209  1
  Fe  Fe73  1  0.20065373  0.11706790  0.55276918  1
  Fe  Fe74  1  0.82789685  0.18888247  0.75460566  1
  Fe  Fe75  1  0.19926432  0.25285143  0.59454689  1
  Fe  Fe76  1  0.96736576  0.15327026  0.01880608  1
  Fe  Fe77  1  0.08134006  0.16607698  0.09885816  1
  Fe  Fe78  1  0.70998428  0.29253505  0.63356322  1
  Fe  Fe79  1  0.56559173  0.83880298  0.28879332  1
  Fe  Fe80  1  0.76264091  0.47974418  0.18711210  1
  Fe  Fe81  1  0.10204495  0.83949296  0.50756166  1
  Fe  Fe82  1  0.49046136  0.32034986  0.15148772  1
  Fe  Fe83  1  1.02990576  0.94220147  0.42423101  1
  Fe  Fe84  1  0.78069858  0.16816604  0.62650931  1
  Fe  Fe85  1  0.29094078  0.20210851  0.47065681  1
  Fe  Fe86  1  0.85351608  0.63556645  0.62093461  1
  Fe  Fe87  1  0.55700210  0.87986812  0.44265902  1
  Fe  Fe88  1  0.49415833  0.28740591  0.38058708  1
  Fe  Fe89  1  0.27081102  0.29849758  0.71546213  1
  Fe  Fe90  1  0.40806105  0.25096955  0.25204546  1
  Fe  Fe91  1  0.06244735  0.52489785  0.83224853  1
  Fe  Fe92  1  0.20399162  0.75021743  0.58423059  1
  Fe  Fe93  1  0.33568290  0.19428048  0.60943105  1
  Fe  Fe94  1  0.52127795  0.55567687  0.23177680  1
  Fe  Fe95  1  0.65835076  0.91761521  0.36426509  1
  Fe  Fe96  1  0.71891944  0.29208193  0.76986559  1
  Fe  Fe97  1  0.97328657  0.94548788  0.80268557  1
  Fe  Fe98  1  0.84172218  0.30002096  0.67951908  1
  Fe  Fe99  1  0.43273184  0.24315908  0.49923380  1
  Fe  Fe100  1  0.77815901  0.54674991  0.30628975  1
  Fe  Fe101  1  0.56335004  0.69290999  0.23490079  1
  Bi  Bi102  1  -0.03623464  0.11122923  0.84311314  1
  Bi  Bi103  1  0.36488113  0.25077110  0.03547531  1
  Bi  Bi104  1  0.27992139  0.61764299  0.50698655  1
  Bi  Bi105  1  0.41093648  0.41727667  0.27446945  1
  Bi  Bi106  1  0.44077188  0.12281703  0.35428194  1
  Bi  Bi107  1  0.53708022  0.71020083  0.40001965  1
  Bi  Bi108  1  0.48826560  0.90982849  0.14885227  1
  Bi  Bi109  1  0.21659482  0.07237637  0.37731325  1
  Bi  Bi110  1  0.60165983  0.44537594  0.11109553  1
  Bi  Bi111  1  0.60011778  0.34338568  0.51346819  1
  Bi  Bi112  1  0.29007555  0.71403622  0.73282453  1
  Bi  Bi113  1  0.29073936  0.05174218  0.84759871  1
  Bi  Bi114  1  0.68270447  0.17168541  0.88372132  1
  Bi  Bi115  1  0.32280872  0.36512868  0.55701843  1
  Bi  Bi116  1  0.95750532  0.09790730  0.41099664  1
  Bi  Bi117  1  0.04246399  0.41534364  0.26871886  1
  Bi  Bi118  1  0.19038308  0.60932005  0.12781022  1
  Bi  Bi119  1  0.64628736  0.90162921  0.90657639  1
  Bi  Bi120  1  0.88749310  0.82862376  0.13156216  1
  Bi  Bi121  1  0.50298286  0.59083815  0.94324093  1
  Bi  Bi122  1  0.87670767  0.39717227  0.09671414  1
  Bi  Bi123  1  0.21492231  0.87239874  0.12548803  1
  Bi  Bi124  1  0.20495993  0.41716391  0.83615108  1
  Bi  Bi125  1  0.90992933  0.87412381  0.66445039  1
  Bi  Bi126  1  0.58395303  0.92823875  0.60635307  1
  Bi  Bi127  1  0.08455186  0.82997477  0.85450104  1
