# generated using pymatgen
data_Ba51Fe51Bi26
_symmetry_space_group_name_H-M   'P 1'
_cell_length_a   16.19637898
_cell_length_b   16.79311185
_cell_length_c   16.02023721
_cell_angle_alpha   89.65675078
_cell_angle_beta   90.00210045
_cell_angle_gamma   89.87684371
_symmetry_Int_Tables_number   1
_chemical_formula_structural   Ba51Fe51Bi26
_chemical_formula_sum   'Ba51 Fe51 Bi26'
_cell_volume   4357.21766905
_cell_formula_units_Z   1
loop_
 _symmetry_equiv_pos_site_id
 _symmetry_equiv_pos_as_xyz
  1  'x, y, z'
loop_
 _atom_site_type_symbol
 _atom_site_label
 _atom_site_symmetry_multiplicity
 _atom_site_fract_x
 _atom_site_fract_y
 _atom_site_fract_z
 _atom_site_occupancy
  Ba  Ba0  1  0.45098748  0.47418413  0.25906335  1
  Ba  Ba1  1  0.83863549  -0.05458749  0.49181267  1
  Ba  Ba2  1  0.28621340  0.48731424  0.73270497  1
  Ba  Ba3  1  0.31442140  0.06459861  0.52956672  1
  Ba  Ba4  1  0.71460194  0.52851132  0.17292392  1
  Ba  Ba5  1  0.26764693  0.03265192  0.05477840  1
  Ba  Ba6  1  0.02096840  0.02581097  -0.03521598  1
  Ba  Ba7  1  -0.07743089  0.19656709  0.51677874  1
  Ba  Ba8  1  0.00579386  0.77054041  -0.06339900  1
  Ba  Ba9  1  -0.05515255  0.72612314  0.18911637  1
  Ba  Ba10  1  0.49425818  0.01174334  0.25101900  1
  Ba  Ba11  1  0.32767507  0.69899350  0.19489092  1
  Ba  Ba12  1  0.65345216  0.63226815  0.74528578  1
  Ba  Ba13  1  0.25588495  -0.07138733  0.29082392  1
  Ba  Ba14  1  0.71200076  0.78630249  0.19078036  1
  Ba  Ba15  1  -0.00744314  0.52017213  -0.00168058  1
  Ba  Ba16  1  0.72493670  0.30167641  0.26689506  1
  Ba  Ba17  1  0.55086873  0.42046927  0.77467295  1
  Ba  Ba18  1  -0.03627904  0.22468241  0.27442020  1
  Ba  Ba19  1  0.26812539  0.72784198  0.72855170  1
  Ba  Ba20  1  0.21179538  0.26651734  0.55480349  1
  Ba  Ba21  1  0.28055595  0.48533426  0.47157608  1
  Ba  Ba22  1  0.02811979  0.23497695  0.72976679  1
  Ba  Ba23  1  0.37720870  0.27926902  0.81614974  1
  Ba  Ba24  1  0.28233316  0.26792431  0.05959840  1
  Ba  Ba25  1  0.73436203  0.45018195  -0.05607184  1
  Ba  Ba26  1  -0.06370026  -0.03614995  0.23385193  1
  Ba  Ba27  1  0.80181109  0.41136673  0.65259789  1
  Ba  Ba28  1  0.72535464  0.84057085  -0.03924815  1
  Ba  Ba29  1  0.49109556  0.24264176  0.26570229  1
  Ba  Ba30  1  0.01758622  0.50430563  0.75117835  1
  Ba  Ba31  1  0.02998380  0.26937867  -0.00050068  1
  Ba  Ba32  1  0.26077008  0.78663895  -0.01885280  1
  Ba  Ba33  1  -0.02922353  0.57248933  0.46970016  1
  Ba  Ba34  1  0.20134007  0.31510835  0.28360182  1
  Ba  Ba35  1  0.66291482  0.54887000  0.46683765  1
  Ba  Ba36  1  0.76077972  0.22057900  0.02202339  1
  Ba  Ba37  1  0.68890049  0.23426684  0.52112280  1
  Ba  Ba38  1  0.49874691  0.15437611  0.01310465  1
  Ba  Ba39  1  -0.01045639  0.48011248  0.26263123  1
  Ba  Ba40  1  0.29794790  0.52590262  0.00933976  1
  Ba  Ba41  1  0.06588000  0.00404420  0.70081035  1
  Ba  Ba42  1  0.39436308  -0.07293838  0.74966527  1
  Ba  Ba43  1  0.21062905  0.71605815  0.43103764  1
  Ba  Ba44  1  0.77152190  -0.16452585  0.70362346  1
  Ba  Ba45  1  0.08539935  0.00400985  0.44042953  1
  Ba  Ba46  1  0.59324007  0.00348475  0.48100936  1
  Ba  Ba47  1  0.60967456  0.00566942  -0.14987503  1
  Ba  Ba48  1  0.51168880  0.15300636  0.68492890  1
  Ba  Ba49  1  0.01472250  0.76470108  0.61449039  1
  Ba  Ba50  1  0.42175448  0.83528693  0.51065285  1
  Fe  Fe51  1  0.75865951  1.00363695  0.13558965  1
  Fe  Fe52  1  0.75640686  0.12122451  0.81276789  1
  Fe  Fe53  1  0.30546810  0.12887357  0.24879877  1
  Fe  Fe54  1  0.20439515  0.13233099  0.36281692  1
  Fe  Fe55  1  0.50876762  0.82336127  0.18734418  1
  Fe  Fe56  1  0.11578258  0.64810648  0.26496647  1
  Fe  Fe57  1  0.43299137  0.71652760  0.94316802  1
  Fe  Fe58  1  0.58146043  0.82122564  0.78956116  1
  Fe  Fe59  1  0.85168396  0.78430982  0.38196461  1
  Fe  Fe60  1  0.65982921  1.04080189  0.05802394  1
  Fe  Fe61  1  0.87168477  0.11829575  0.69929594  1
  Fe  Fe62  1  0.79346720  0.10892914  0.36557671  1
  Fe  Fe63  1  0.81130059  0.72200680  0.49071725  1
  Fe  Fe64  1  0.52332133  0.76117151  0.04946949  1
  Fe  Fe65  1  0.53380824  0.34511091  0.58266719  1
  Fe  Fe66  1  0.22030761  0.19320165  0.74473105  1
  Fe  Fe67  1  0.66886344  0.12516989  0.32531775  1
  Fe  Fe68  1  0.17439118  0.37320320  0.90009215  1
  Fe  Fe69  1  0.27022013  0.07404306  0.74666127  1
  Fe  Fe70  1  0.46308133  0.75193771  0.78619536  1
  Fe  Fe71  1  0.59874881  0.35467008  0.10279976  1
  Fe  Fe72  1  0.17249007  0.12127675  0.23220465  1
  Fe  Fe73  1  0.40161571  0.33790552  0.58027132  1
  Fe  Fe74  1  0.53305041  0.67938342  0.54318948  1
  Fe  Fe75  1  0.43577529  0.37864418  0.96728980  1
  Fe  Fe76  1  0.48603436  0.38387003  0.45722394  1
  Fe  Fe77  1  0.56099717  0.72378705  0.89708225  1
  Fe  Fe78  1  0.82681805  0.65039376  0.90757143  1
  Fe  Fe79  1  0.88967497  0.15829412  0.85014531  1
  Fe  Fe80  1  0.19023568  0.23271051  0.88676940  1
  Fe  Fe81  1  0.78764776  0.11198330  0.22639192  1
  Fe  Fe82  1  0.13255837  0.72044804  0.12614441  1
  Fe  Fe83  1  0.36803718  0.31698662  0.43190043  1
  Fe  Fe84  1  0.85471844  1.02353190  0.79317102  1
  Fe  Fe85  1  0.57831394  0.84672483  0.32893318  1
  Fe  Fe86  1  0.56296058  0.72585752  0.38953039  1
  Fe  Fe87  1  0.29065966  0.11841466  0.87488917  1
  Fe  Fe88  1  0.15571569  1.10927123  0.84595466  1
  Fe  Fe89  1  0.18406920  0.33097019  0.77869770  1
  Fe  Fe90  1  0.32736625  0.19137853  0.37147717  1
  Fe  Fe91  1  0.54861066  0.77969043  0.65863724  1
  Fe  Fe92  1  0.83466694  0.65867233  0.03744623  1
  Fe  Fe93  1  0.45285832  0.79492476  0.31272724  1
  Fe  Fe94  1  0.79817793  0.23014783  0.74776678  1
  Fe  Fe95  1  0.12885743  0.77915920  0.25003275  1
  Fe  Fe96  1  0.46344348  0.66463887  0.66433759  1
  Fe  Fe97  1  0.46451015  0.33817866  0.09310323  1
  Fe  Fe98  1  0.56342513  0.33184332  0.97099169  1
  Fe  Fe99  1  0.65561744  0.10907514  0.18244310  1
  Fe  Fe100  1  0.49063038  0.84210626  0.91264899  1
  Fe  Fe101  1  0.12459612  0.59375735  0.14009805  1
  Bi  Bi102  1  0.65574750  0.79816469  0.51508843  1
  Bi  Bi103  1  0.20565814  -0.04984676  0.85817569  1
  Bi  Bi104  1  0.54270290  0.66713972  0.22411907  1
  Bi  Bi105  1  0.44147384  0.59621613  0.83116455  1
  Bi  Bi106  1  0.71524730  -0.03438205  0.30273109  1
  Bi  Bi107  1  0.02026296  0.81409371  0.38375256  1
  Bi  Bi108  1  0.63425018  0.23752027  0.84103284  1
  Bi  Bi109  1  0.80766171  0.02998543  -0.03850029  1
  Bi  Bi110  1  0.52552284  0.49152613  0.04199268  1
  Bi  Bi111  1  0.47399142  0.19953465  0.47873040  1
  Bi  Bi112  1  0.47797983  0.50962365  0.58803051  1
  Bi  Bi113  1  0.53059901  0.93155686  0.05280791  1
  Bi  Bi114  1  0.22839388  0.51979053  0.25355114  1
  Bi  Bi115  1  0.83954537  0.62808686  0.63204323  1
  Bi  Bi116  1  0.87416447  0.37458650  0.11940905  1
  Bi  Bi117  1  0.21300821  0.88447944  0.57595074  1
  Bi  Bi118  1  0.72233051  0.05070094  0.65357961  1
  Bi  Bi119  1  0.88914489  0.33932456  0.84727348  1
  Bi  Bi120  1  0.80974930  0.63563154  0.33344813  1
  Bi  Bi121  1  0.41805001  0.64622825  0.40821699  1
  Bi  Bi122  1  0.14677328  0.59597100  0.60266837  1
  Bi  Bi123  1  0.84211757  0.37859386  0.43324919  1
  Bi  Bi124  1  0.14812758  0.62356701  0.87685350  1
  Bi  Bi125  1  0.10877361  0.88566405  0.11459906  1
  Bi  Bi126  1  0.05060187  0.35875204  0.43946721  1
  Bi  Bi127  1  0.67208456  0.64739181  -0.00650630  1
