# generated using pymatgen
data_Ba51Fe51Bi26
_symmetry_space_group_name_H-M   'P 1'
_cell_length_a   16.20041245
_cell_length_b   16.55223181
_cell_length_c   16.40378848
_cell_angle_alpha   91.77106983
_cell_angle_beta   90.46784352
_cell_angle_gamma   93.62307486
_symmetry_Int_Tables_number   1
_chemical_formula_structural   Ba51Fe51Bi26
_chemical_formula_sum   'Ba51 Fe51 Bi26'
_cell_volume   4387.61049434
_cell_formula_units_Z   1
loop_
 _symmetry_equiv_pos_site_id
 _symmetry_equiv_pos_as_xyz
  1  'x, y, z'
loop_
 _atom_site_type_symbol
 _atom_site_label
 _atom_site_symmetry_multiplicity
 _atom_site_fract_x
 _atom_site_fract_y
 _atom_site_fract_z
 _atom_site_occupancy
  Ba  Ba0  1  -0.05583122  0.83606186  0.47864814  1
  Ba  Ba1  1  0.54069004  0.27509992  0.50646235  1
  Ba  Ba2  1  -0.01834779  0.30352786  -0.01625323  1
  Ba  Ba3  1  0.57132541  0.00576354  -0.04897212  1
  Ba  Ba4  1  0.53361688  0.15901260  0.26440207  1
  Ba  Ba5  1  0.86269585  0.58170584  0.77807633  1
  Ba  Ba6  1  0.76472663  0.43943025  0.57872719  1
  Ba  Ba7  1  0.45024612  -0.05185839  0.73106558  1
  Ba  Ba8  1  0.23508588  -0.10129428  0.57578376  1
  Ba  Ba9  1  0.74201944  0.01611660  0.76850269  1
  Ba  Ba10  1  0.20662729  0.73137350  0.76906636  1
  Ba  Ba11  1  0.82847311  0.80701917  0.70288273  1
  Ba  Ba12  1  0.07607531  0.30085681  0.46591021  1
  Ba  Ba13  1  0.00953982  -0.00573061  0.84345925  1
  Ba  Ba14  1  0.04656068  0.73960521  0.31245330  1
  Ba  Ba15  1  0.08074132  0.00943627  0.21321353  1
  Ba  Ba16  1  0.82301072  0.04940446  0.36687297  1
  Ba  Ba17  1  0.02402132  0.54957189  -0.01665665  1
  Ba  Ba18  1  0.81092537  0.57088318  0.34485928  1
  Ba  Ba19  1  0.22934158  0.43787320  0.28277638  1
  Ba  Ba20  1  0.25929585  0.54062860  0.57630063  1
  Ba  Ba21  1  0.48321697  0.70029715  0.68940211  1
  Ba  Ba22  1  0.43255709  0.73838593  -0.04946811  1
  Ba  Ba23  1  0.49686874  -0.10461262  0.16292254  1
  Ba  Ba24  1  0.23333401  0.15206880  0.36536648  1
  Ba  Ba25  1  0.60118518  0.46084516  0.77877600  1
  Ba  Ba26  1  0.45971070  0.66532770  0.21625058  1
  Ba  Ba27  1  0.22321537  0.26316112  0.65107167  1
  Ba  Ba28  1  0.82754950  0.20066055  0.55496247  1
  Ba  Ba29  1  0.76169455  0.52536415  0.06339666  1
  Ba  Ba30  1  0.51601050  0.51125464  0.51880565  1
  Ba  Ba31  1  0.77836420  0.01743573  0.12479242  1
  Ba  Ba32  1  0.80850028  0.80413721  -0.03026545  1
  Ba  Ba33  1  0.38193769  -0.03554125  0.39375008  1
  Ba  Ba34  1  0.33776264  0.25276229  0.14427929  1
  Ba  Ba35  1  -0.04381427  0.22979379  0.24064662  1
  Ba  Ba36  1  0.83715449  0.27000862  0.78023047  1
  Ba  Ba37  1  0.52334316  0.51804842  0.01562406  1
  Ba  Ba38  1  0.45227150  0.29488200  -0.10152337  1
  Ba  Ba39  1  0.59752619  0.02803489  0.53145096  1
  Ba  Ba40  1  0.74059300  0.32025116  0.21693327  1
  Ba  Ba41  1  0.52697629  0.44986922  0.28231336  1
  Ba  Ba42  1  0.68413783  0.23674506  -0.02564135  1
  Ba  Ba43  1  0.26097335  0.80067354  0.20951179  1
  Ba  Ba44  1  0.25304118  0.48902164  0.83716563  1
  Ba  Ba45  1  0.01164685  0.51856296  0.50871477  1
  Ba  Ba46  1  0.44213022  0.19047354  0.69431986  1
  Ba  Ba47  1  0.70677301  0.78073755  0.23021134  1
  Ba  Ba48  1  0.66911162  0.77797040  0.49861897  1
  Ba  Ba49  1  0.21175087  0.26368054  -0.07689797  1
  Ba  Ba50  1  0.19380110  0.03582332  -0.00022840  1
  Fe  Fe51  1  0.25643201  0.71926247  0.42026253  1
  Fe  Fe52  1  0.09444657  0.40248442  0.64880877  1
  Fe  Fe53  1  0.11235500  0.73609676  0.08979146  1
  Fe  Fe54  1  0.98536122  0.11663373  0.04252164  1
  Fe  Fe55  1  0.61575831  0.80639762  0.02138599  1
  Fe  Fe56  1  1.02721758  0.15398776  0.59620745  1
  Fe  Fe57  1  0.65191194  0.29512909  0.67026587  1
  Fe  Fe58  1  0.12445969  0.72051379  0.94681671  1
  Fe  Fe59  1  0.26654404  0.07428992  0.68664421  1
  Fe  Fe60  1  0.12145475  0.08290548  0.68542999  1
  Fe  Fe61  1  0.46949459  0.70551875  0.46450777  1
  Fe  Fe62  1  0.39494400  0.09765509  -0.03627645  1
  Fe  Fe63  1  0.91550795  0.41585863  0.13116684  1
  Fe  Fe64  1  0.71110748  0.25028898  0.39842944  1
  Fe  Fe65  1  0.33245174  0.08538550  0.82907029  1
  Fe  Fe66  1  0.20163851  0.11640363  0.79874794  1
  Fe  Fe67  1  0.61443749  0.68914991  0.07426439  1
  Fe  Fe68  1  0.02679255  0.53219200  0.29946535  1
  Fe  Fe69  1  0.37925516  0.76958974  0.37901672  1
  Fe  Fe70  1  0.90546447  0.43515662  0.26173279  1
  Fe  Fe71  1  0.04655552  0.43495983  0.17507403  1
  Fe  Fe72  1  0.28690873  0.58478625  0.13098620  1
  Fe  Fe73  1  0.22108600  0.65568929  0.02770735  1
  Fe  Fe74  1  0.05527202  0.37144294  0.77383078  1
  Fe  Fe75  1  -0.00098164  0.67727282  0.65291069  1
  Fe  Fe76  1  0.98426281  0.73646798  1.00669972  1
  Fe  Fe77  1  0.95042905  0.40949698  0.67615185  1
  Fe  Fe78  1  0.96556120  1.04329203  0.52142392  1
  Fe  Fe79  1  0.95507791  0.54572682  0.18315882  1
  Fe  Fe80  1  0.36115100  0.47472836  0.12868827  1
  Fe  Fe81  1  0.49859834  0.17455284  0.04192794  1
  Fe  Fe82  1  0.65096170  0.16411479  0.67835619  1
  Fe  Fe83  1  1.00255402  0.29002433  0.64763331  1
  Fe  Fe84  1  0.34311722  0.42386396  1.00745291  1
  Fe  Fe85  1  0.68686563  0.37251723  0.40248857  1
  Fe  Fe86  1  0.12984083  0.07089246  0.54504116  1
  Fe  Fe87  1  0.33009911  0.55873605  1.00808150  1
  Fe  Fe88  1  1.00272575  0.81819347  1.12537376  1
  Fe  Fe89  1  0.51629823  0.82351598  0.38116602  1
  Fe  Fe90  1  0.08003193  0.84658192  0.99333937  1
  Fe  Fe91  1  0.45643450  0.83022436  0.50926241  1
  Fe  Fe92  1  0.37102440  0.96288625  0.03663700  1
  Fe  Fe93  1  0.63694018  0.68533639  0.94456954  1
  Fe  Fe94  1  0.62313265  0.25799204  0.79249914  1
  Fe  Fe95  1  0.34255420  0.72977499  0.52434074  1
  Fe  Fe96  1  0.36010424  0.96226318  0.90507236  1
  Fe  Fe97  1  0.05033712  0.79790172  0.67010647  1
  Fe  Fe98  1  0.44140737  0.07034743  0.09595395  1
  Fe  Fe99  1  0.02391799  0.40142842  0.30999746  1
  Fe  Fe100  1  0.59342636  0.12808175  0.79342979  1
  Fe  Fe101  1  1.03995796  0.11102444  0.43786170  1
  Bi  Bi102  1  -0.11407115  0.68650005  0.14104548  1
  Bi  Bi103  1  0.02177540  -0.04632739  0.64049711  1
  Bi  Bi104  1  0.35954104  0.59014355  0.38934103  1
  Bi  Bi105  1  0.31599922  0.02262128  0.19922310  1
  Bi  Bi106  1  0.13059474  0.60223876  0.18372929  1
  Bi  Bi107  1  -0.00172371  0.76378731  0.83750434  1
  Bi  Bi108  1  0.22811409  -0.05236940  0.79058998  1
  Bi  Bi109  1  0.25512302  0.83122907  -0.00458512  1
  Bi  Bi110  1  0.13214180  0.70855585  0.53852651  1
  Bi  Bi111  1  0.18831571  0.43832775  0.05805040  1
  Bi  Bi112  1  0.06977620  0.54356514  0.73670303  1
  Bi  Bi113  1  -0.03678870  -0.04809574  0.04208853  1
  Bi  Bi114  1  0.04806942  0.20054185  0.78271622  1
  Bi  Bi115  1  0.86627101  0.35468299  0.40470023  1
  Bi  Bi116  1  0.89958353  0.88392979  0.25185149  1
  Bi  Bi117  1  0.67316262  0.62114152  0.65618652  1
  Bi  Bi118  1  0.38738809  0.30978217  0.36440201  1
  Bi  Bi119  1  0.80219099  0.97334345  0.56297875  1
  Bi  Bi120  1  0.12310326  0.96327346  0.41066312  1
  Bi  Bi121  1  0.40617917  0.41143866  0.68670743  1
  Bi  Bi122  1  0.84580780  0.11588185  0.94101123  1
  Bi  Bi123  1  0.12045496  0.20114712  0.11478776  1
  Bi  Bi124  1  0.55110165  0.32574598  0.10719323  1
  Bi  Bi125  1  0.61388281  0.82429550  0.84093097  1
  Bi  Bi126  1  0.61832086  0.95777999  0.32968839  1
  Bi  Bi127  1  0.85283525  0.64721165  0.55491316  1
