# generated using pymatgen
data_Ba51Fe51Bi26
_symmetry_space_group_name_H-M   'P 1'
_cell_length_a   15.77257061
_cell_length_b   17.03658369
_cell_length_c   16.27066831
_cell_angle_alpha   90.38438818
_cell_angle_beta   88.54404730
_cell_angle_gamma   90.53331384
_symmetry_Int_Tables_number   1
_chemical_formula_structural   Ba51Fe51Bi26
_chemical_formula_sum   'Ba51 Fe51 Bi26'
_cell_volume   4370.41051800
_cell_formula_units_Z   1
loop_
 _symmetry_equiv_pos_site_id
 _symmetry_equiv_pos_as_xyz
  1  'x, y, z'
loop_
 _atom_site_type_symbol
 _atom_site_label
 _atom_site_symmetry_multiplicity
 _atom_site_fract_x
 _atom_site_fract_y
 _atom_site_fract_z
 _atom_site_occupancy
  Ba  Ba0  1  0.22409037  0.70710046  0.02170183  1
  Ba  Ba1  1  0.75784411  0.56962054  0.72566069  1
  Ba  Ba2  1  -0.17373065  0.22587339  0.29758708  1
  Ba  Ba3  1  0.04155325  0.35161789  0.02599963  1
  Ba  Ba4  1  0.57654109  0.28039999  0.46533709  1
  Ba  Ba5  1  0.25620856  0.57959218  0.63617197  1
  Ba  Ba6  1  0.35085280  0.17024019  0.48647095  1
  Ba  Ba7  1  0.38211771  -0.06016374  0.50869423  1
  Ba  Ba8  1  -0.00411494  0.48268767  0.29277839  1
  Ba  Ba9  1  0.53348791  0.84840729  0.16553229  1
  Ba  Ba10  1  0.67929258  -0.03332227  0.78899536  1
  Ba  Ba11  1  0.45645526  0.85883073  -0.07433269  1
  Ba  Ba12  1  0.56676143  0.07572233  0.59969436  1
  Ba  Ba13  1  -0.08245378  0.81871860  0.80582675  1
  Ba  Ba14  1  0.03220831  0.72879984  0.60180615  1
  Ba  Ba15  1  0.52895996  0.68403543  0.76317143  1
  Ba  Ba16  1  0.68394388  0.32036428  0.74448942  1
  Ba  Ba17  1  0.45077662  0.10236028  0.81571839  1
  Ba  Ba18  1  0.21454254  0.49111123  -0.11344185  1
  Ba  Ba19  1  -0.05743124  0.11504797  0.47598097  1
  Ba  Ba20  1  0.77726667  -0.07030141  0.55112146  1
  Ba  Ba21  1  0.45018001  0.32984851  -0.10265571  1
  Ba  Ba22  1  0.27095952  -0.04036695  0.09564818  1
  Ba  Ba23  1  -0.00357376  0.74344518  0.00546729  1
  Ba  Ba24  1  0.76829665  0.56520624  0.23933188  1
  Ba  Ba25  1  0.76713671  0.04767027  0.13923627  1
  Ba  Ba26  1  0.30963381  0.53495605  0.25941897  1
  Ba  Ba27  1  0.23547876  0.37157335  0.48266493  1
  Ba  Ba28  1  0.09430695  0.73203716  0.36654121  1
  Ba  Ba29  1  0.13387430  0.26534822  0.25124015  1
  Ba  Ba30  1  -0.04479359  0.54325776  -0.10245820  1
  Ba  Ba31  1  0.44598312  0.30069507  0.21736257  1
  Ba  Ba32  1  0.25658114  0.05682453  0.31598916  1
  Ba  Ba33  1  -0.03726770  0.47449434  0.58296736  1
  Ba  Ba34  1  0.85854159  0.81132289  0.33671691  1
  Ba  Ba35  1  0.26493093  0.82345500  0.73000107  1
  Ba  Ba36  1  0.02968407  0.02225607  0.67962908  1
  Ba  Ba37  1  0.76695214  0.76950519  0.09010716  1
  Ba  Ba38  1  0.70592411  0.53020016  0.01125616  1
  Ba  Ba39  1  0.78234347  0.30281380  0.00059810  1
  Ba  Ba40  1  0.04237195  -0.01421881  0.01196942  1
  Ba  Ba41  1  0.20691974  0.29415809  0.72552473  1
  Ba  Ba42  1  -0.05274498  0.25760364  0.65882760  1
  Ba  Ba43  1  0.22799809  0.20364183  0.00803193  1
  Ba  Ba44  1  0.30970898  0.80621156  0.29008002  1
  Ba  Ba45  1  0.46542247  0.73672401  0.47794058  1
  Ba  Ba46  1  0.52185020  0.09812673  0.06196532  1
  Ba  Ba47  1  0.02557331  -0.00101217  0.27630537  1
  Ba  Ba48  1  0.21119153  0.03189597  0.82317540  1
  Ba  Ba49  1  0.85968008  0.10568201  -0.11205788  1
  Ba  Ba50  1  0.43600483  0.54477694  0.01306351  1
  Fe  Fe51  1  0.66097379  0.70366639  0.57375637  1
  Fe  Fe52  1  0.29720114  0.13463557  0.66942132  1
  Fe  Fe53  1  0.51177326  0.42204889  0.69997874  1
  Fe  Fe54  1  0.35731924  0.41842781  0.70700117  1
  Fe  Fe55  1  0.72806632  0.14049843  0.72849776  1
  Fe  Fe56  1  0.82980932  0.08629577  0.66780672  1
  Fe  Fe57  1  0.13456701  0.18006658  0.46648952  1
  Fe  Fe58  1  0.45132334  0.11365582  0.28930137  1
  Fe  Fe59  1  0.57729164  1.01771925  0.26743022  1
  Fe  Fe60  1  0.43374146  1.00832433  0.21123032  1
  Fe  Fe61  1  0.41471272  0.40114949  0.57842884  1
  Fe  Fe62  1  0.16487466  0.15248110  0.59092843  1
  Fe  Fe63  1  0.58703921  0.36395478  0.07599929  1
  Fe  Fe64  1  0.51188155  0.07138806  0.40540157  1
  Fe  Fe65  1  0.57899472  0.64287404  0.16991238  1
  Fe  Fe66  1  0.07911590  0.56457706  0.07127783  1
  Fe  Fe67  1  0.65434314  0.07874665  0.38418411  1
  Fe  Fe68  1  0.13487242  0.04155170  0.48940072  1
  Fe  Fe69  1  0.67696057  0.80096807  0.89099584  1
  Fe  Fe70  1  0.67916488  0.38933893  0.16446119  1
  Fe  Fe71  1  0.75153433  0.69964289  0.88127419  1
  Fe  Fe72  1  0.55577144  0.58360602  0.32265732  1
  Fe  Fe73  1  0.68385991  0.77492150  0.45852138  1
  Fe  Fe74  1  0.34942503  0.02077406  0.67544942  1
  Fe  Fe75  1  0.47800150  0.67111436  0.25676255  1
  Fe  Fe76  1  0.22386014  0.87196144  0.92635794  1
  Fe  Fe77  1  0.56022568  0.44763873  0.55802389  1
  Fe  Fe78  1  0.84339231  0.38015053  0.43446415  1
  Fe  Fe79  1  0.58734590  0.15326566  0.29487778  1
  Fe  Fe80  1  0.28963853  0.62886491  0.43835567  1
  Fe  Fe81  1  0.75058338  0.65571143  0.41609303  1
  Fe  Fe82  1  0.11200062  0.84574980  0.86861284  1
  Fe  Fe83  1  0.15397541  0.90796029  0.57206342  1
  Fe  Fe84  1  0.44948472  0.53207865  0.63542558  1
  Fe  Fe85  1  0.73611777  0.58261183  0.53369255  1
  Fe  Fe86  1  0.22760866  0.02336028  0.59945828  1
  Fe  Fe87  1  0.80132993  0.71898762  0.54201219  1
  Fe  Fe88  1  0.95332916  0.58774056  0.12041191  1
  Fe  Fe89  1  0.79504125  0.50212296  0.42453979  1
  Fe  Fe90  1  0.18555041  0.91885698  0.44519222  1
  Fe  Fe91  1  0.09078246  0.64490814  0.17694313  1
  Fe  Fe92  1  0.13315997  0.10431791  0.14253540  1
  Fe  Fe93  1  0.41740439  0.50874087  0.78105627  1
  Fe  Fe94  1  0.02842234  0.37003229  0.81924674  1
  Fe  Fe95  1  0.88433472  0.39812436  0.79556986  1
  Fe  Fe96  1  0.61390272  0.63882280  0.44314143  1
  Fe  Fe97  1  0.63737925  0.50661235  0.43736914  1
  Fe  Fe98  1  0.92425607  0.29530168  0.85955452  1
  Fe  Fe99  1  0.45233207  0.96658334  0.33118615  1
  Fe  Fe100  1  0.96588778  0.69613692  0.19635062  1
  Fe  Fe101  1  0.58201989  0.57763695  0.57496592  1
  Bi  Bi102  1  0.42756304  0.52368245  0.46065910  1
  Bi  Bi103  1  0.00835397  0.31277743  0.43599173  1
  Bi  Bi104  1  0.57969969  0.48999489  0.84027033  1
  Bi  Bi105  1  0.00526486  -0.09092527  0.48415717  1
  Bi  Bi106  1  0.24633495  0.77129488  0.51809205  1
  Bi  Bi107  1  0.65235371  0.23017810  0.15792668  1
  Bi  Bi108  1  0.72854541  0.77443463  0.71647533  1
  Bi  Bi109  1  0.59407792  -0.08125585  0.42052390  1
  Bi  Bi110  1  0.43770322  0.26317982  0.67142027  1
  Bi  Bi111  1  0.73685838  0.42051042  0.56680692  1
  Bi  Bi112  1  0.75175132  0.18653003  0.56395916  1
  Bi  Bi113  1  0.53888163  0.48660963  0.18645231  1
  Bi  Bi114  1  0.64973748  0.73357681  0.29492751  1
  Bi  Bi115  1  0.10303325  0.82144055  0.17388264  1
  Bi  Bi116  1  0.64609195  0.16874189  0.88280253  1
  Bi  Bi117  1  0.91331148  0.62397093  0.44235954  1
  Bi  Bi118  1  0.14165000  0.54653206  0.44800178  1
  Bi  Bi119  1  0.97564624  0.16391497  0.11656468  1
  Bi  Bi120  1  0.11083343  0.68327934  0.81537355  1
  Bi  Bi121  1  0.46998788  0.91003969  0.71519916  1
  Bi  Bi122  1  0.58349281  0.70077557  0.99600572  1
  Bi  Bi123  1  0.70454314  0.39010073  0.33141605  1
  Bi  Bi124  1  0.27978559  0.39039036  0.08206680  1
  Bi  Bi125  1  0.80691719  0.01427962  0.34252597  1
  Bi  Bi126  1  0.06254212  0.19186205  0.85576173  1
  Bi  Bi127  1  0.65873446  0.93250197  0.99745612  1
