# generated using pymatgen
data_Ba51Fe51Bi26
_symmetry_space_group_name_H-M   'P 1'
_cell_length_a   16.55318854
_cell_length_b   16.46891683
_cell_length_c   16.23351104
_cell_angle_alpha   91.80649571
_cell_angle_beta   88.56014788
_cell_angle_gamma   89.59814952
_symmetry_Int_Tables_number   1
_chemical_formula_structural   Ba51Fe51Bi26
_chemical_formula_sum   'Ba51 Fe51 Bi26'
_cell_volume   4421.73648400
_cell_formula_units_Z   1
loop_
 _symmetry_equiv_pos_site_id
 _symmetry_equiv_pos_as_xyz
  1  'x, y, z'
loop_
 _atom_site_type_symbol
 _atom_site_label
 _atom_site_symmetry_multiplicity
 _atom_site_fract_x
 _atom_site_fract_y
 _atom_site_fract_z
 _atom_site_occupancy
  Ba  Ba0  1  0.51238451  0.74027194  0.49503507  1
  Ba  Ba1  1  0.51864450  0.35964686  0.81777451  1
  Ba  Ba2  1  -0.01213023  0.78983936  -0.03537326  1
  Ba  Ba3  1  0.22975332  -0.04043044  0.29917106  1
  Ba  Ba4  1  0.46039380  0.77197359  0.24424159  1
  Ba  Ba5  1  0.00576709  0.71727378  0.46189127  1
  Ba  Ba6  1  0.05742967  0.27732257  0.06020209  1
  Ba  Ba7  1  0.22870987  0.51732501  0.50894433  1
  Ba  Ba8  1  0.27937827  0.84416517  0.06725516  1
  Ba  Ba9  1  0.69941276  0.51775987  0.58370284  1
  Ba  Ba10  1  0.69446304  0.74134096  0.20278892  1
  Ba  Ba11  1  0.53918622  0.76746824  0.74963856  1
  Ba  Ba12  1  0.80665892  0.44066570  0.80416201  1
  Ba  Ba13  1  0.75504777  0.48084333  0.30632039  1
  Ba  Ba14  1  0.28601992  0.35058276  0.00115954  1
  Ba  Ba15  1  0.00456281  0.75068085  0.71386478  1
  Ba  Ba16  1  0.34427250  0.58597668  0.12327433  1
  Ba  Ba17  1  -0.01677571  0.00749668  0.75993011  1
  Ba  Ba18  1  0.21105840  0.23311187  0.81986753  1
  Ba  Ba19  1  0.55279581  0.37940744  0.24642093  1
  Ba  Ba20  1  0.13060150  0.03555097  0.55434377  1
  Ba  Ba21  1  -0.07487197  0.19354339  0.24632859  1
  Ba  Ba22  1  0.22240015  0.23553970  0.26754812  1
  Ba  Ba23  1  0.32971599  0.04198234  0.74064076  1
  Ba  Ba24  1  0.52370497  -0.01915761  -0.01986598  1
  Ba  Ba25  1  0.72801031  0.49931289  0.02384153  1
  Ba  Ba26  1  0.25888967  0.72344743  0.84586978  1
  Ba  Ba27  1  -0.01713311  0.04194272  0.01421814  1
  Ba  Ba28  1  0.56727591  0.06548581  0.74074332  1
  Ba  Ba29  1  0.77943488  -0.03466285  0.27320259  1
  Ba  Ba30  1  0.77196477  0.77535494  0.48721413  1
  Ba  Ba31  1  0.44937879  0.21841981  0.42772211  1
  Ba  Ba32  1  0.75116859  0.00942821  0.52470231  1
  Ba  Ba33  1  0.69345497  0.18895683  0.33183278  1
  Ba  Ba34  1  0.24586621  0.80481197  0.59104347  1
  Ba  Ba35  1  -0.01563621  0.78059623  0.20898339  1
  Ba  Ba36  1  0.80569844  0.29410447  0.52543556  1
  Ba  Ba37  1  0.76039884  0.04073441  -0.04226030  1
  Ba  Ba38  1  0.19100176  0.67425904  0.28791304  1
  Ba  Ba39  1  0.54124180  0.66823709  -0.02910752  1
  Ba  Ba40  1  0.00353500  0.25928785  0.71809124  1
  Ba  Ba41  1  0.28102567  0.08203880  0.04233892  1
  Ba  Ba42  1  0.28511066  0.47062921  0.75017946  1
  Ba  Ba43  1  0.03929783  0.30986066  0.48174127  1
  Ba  Ba44  1  0.45665776  0.00645472  0.50027806  1
  Ba  Ba45  1  0.77356689  0.68914222  0.76160098  1
  Ba  Ba46  1  0.75281507  0.22468264  0.75117229  1
  Ba  Ba47  1  0.47145825  0.48108885  0.55468260  1
  Ba  Ba48  1  0.01008177  0.49351075  0.32472584  1
  Ba  Ba49  1  0.05048699  0.50530491  0.71786753  1
  Ba  Ba50  1  -0.02592673  0.52526670  0.06997100  1
  Fe  Fe51  1  0.88402767  0.59127551  0.59131519  1
  Fe  Fe52  1  0.24296773  0.92327373  0.87657611  1
  Fe  Fe53  1  0.30750947  0.16744281  0.58942387  1
  Fe  Fe54  1  0.67148415  0.90704782  0.80815792  1
  Fe  Fe55  1  0.44041817  0.96522661  0.30613511  1
  Fe  Fe56  1  0.21231765  0.41399684  0.33468469  1
  Fe  Fe57  1  0.53383478  0.44691557  0.02859916  1
  Fe  Fe58  1  0.10975330  0.87306466  0.84537596  1
  Fe  Fe59  1  0.43224691  0.40651625  0.10340820  1
  Fe  Fe60  1  0.15592960  0.50357008  0.02383166  1
  Fe  Fe61  1  0.11504479  0.08100211  0.17957506  1
  Fe  Fe62  1  0.31043608  0.29477834  0.64188814  1
  Fe  Fe63  1  0.85620586  0.21201448  0.04422354  1
  Fe  Fe64  1  0.48605383  0.29655717  1.01432801  1
  Fe  Fe65  1  0.23395075  0.55430888  0.93159316  1
  Fe  Fe66  1  0.70420524  0.86427592  0.68084407  1
  Fe  Fe67  1  0.45799021  0.57674556  0.77615525  1
  Fe  Fe68  1  0.12336559  0.96308944  0.11945688  1
  Fe  Fe69  1  0.18297650  0.33733000  0.63399870  1
  Fe  Fe70  1  0.28660781  0.51026816  0.29100814  1
  Fe  Fe71  1  0.89597485  0.45419071  0.60929993  1
  Fe  Fe72  1  0.60409182  0.31301084  0.62140929  1
  Fe  Fe73  1  0.40324869  0.09127554  0.26919500  1
  Fe  Fe74  1  0.04412761  0.93210011  0.38990254  1
  Fe  Fe75  1  0.13508146  0.44455988  0.90109662  1
  Fe  Fe76  1  0.84209036  0.58984765  0.45924150  1
  Fe  Fe77  1  0.40536590  0.96435437  0.17754472  1
  Fe  Fe78  1  1.09815115  0.58466568  -0.09121624  1
  Fe  Fe79  1  0.13960665  -0.06902815  0.97072106  1
  Fe  Fe80  1  0.94307515  0.03543293  0.42267473  1
  Fe  Fe81  1  0.80159605  0.87156421  0.80859466  1
  Fe  Fe82  1  0.32671753  0.40055836  0.21339507  1
  Fe  Fe83  1  0.67152287  0.62319198  0.40807786  1
  Fe  Fe84  1  0.54907285  0.05296829  0.29870913  1
  Fe  Fe85  1  0.56415637  0.60078352  0.34055457  1
  Fe  Fe86  1  0.15663647  1.02164753  0.85684950  1
  Fe  Fe87  1  -0.01476419  0.53313871  0.51902460  1
  Fe  Fe88  1  0.87818133  0.46409791  0.47470391  1
  Fe  Fe89  1  0.17356543  0.92704959  0.74423349  1
  Fe  Fe90  1  0.74641777  0.28507548  0.97170851  1
  Fe  Fe91  1  0.91910600  0.90144019  0.38947745  1
  Fe  Fe92  1  0.83728502  0.86661073  0.67502567  1
  Fe  Fe93  1  0.86375068  0.34356439  0.01168999  1
  Fe  Fe94  1  0.48250855  0.07572880  0.14789087  1
  Fe  Fe95  1  0.55792627  0.20089007  0.09468422  1
  Fe  Fe96  1  0.18587873  0.20453844  0.63167466  1
  Fe  Fe97  1  0.88162288  0.23068175  0.91234413  1
  Fe  Fe98  1  0.52651970  0.17654790  0.23680648  1
  Fe  Fe99  1  0.61827804  0.20023020  0.55602718  1
  Fe  Fe100  1  0.62092114  0.32739203  1.04496717  1
  Fe  Fe101  1  0.54772223  0.94993388  0.19952035  1
  Bi  Bi102  1  0.38221186  0.62398762  0.37630807  1
  Bi  Bi103  1  -0.04381938  -0.09878481  0.55744666  1
  Bi  Bi104  1  0.76269064  0.31769177  0.15301137  1
  Bi  Bi105  1  0.16272115  0.44126600  0.17767404  1
  Bi  Bi106  1  0.77357009  0.01848885  0.73736692  1
  Bi  Bi107  1  -0.00866826  -0.01584050  0.23102389  1
  Bi  Bi108  1  0.69080388  0.81803787  -0.05619820  1
  Bi  Bi109  1  0.40162924  0.51836250  -0.07451301  1
  Bi  Bi110  1  0.24388649  0.27733326  0.48348331  1
  Bi  Bi111  1  0.39771838  0.23857316  0.15718102  1
  Bi  Bi112  1  -0.01569443  0.37375185  -0.10598227  1
  Bi  Bi113  1  0.46113755  0.21410528  0.64308824  1
  Bi  Bi114  1  0.65212041  0.07417386  0.14932351  1
  Bi  Bi115  1  0.14925080  0.67414056  0.05766634  1
  Bi  Bi116  1  0.37240481  0.65412247  0.65740950  1
  Bi  Bi117  1  0.61213495  0.19312202  0.92404272  1
  Bi  Bi118  1  0.61893639  0.55329882  0.79319618  1
  Bi  Bi119  1  0.62103580  0.35306735  0.45670992  1
  Bi  Bi120  1  0.93089550  0.60486614  0.87588854  1
  Bi  Bi121  1  0.82620510  0.87086244  0.08167753  1
  Bi  Bi122  1  0.59782193  0.89471959  0.36599840  1
  Bi  Bi123  1  0.08455485  0.11124223  0.36194072  1
  Bi  Bi124  1  0.37422264  0.40268523  0.37464177  1
  Bi  Bi125  1  0.41039353  0.17952853  0.89952607  1
  Bi  Bi126  1  0.92602004  0.13109226  0.56989350  1
  Bi  Bi127  1  0.56534605  0.57148487  0.16251718  1
