# generated using pymatgen
data_Ba51Fe51Bi26
_symmetry_space_group_name_H-M   'P 1'
_cell_length_a   16.86264981
_cell_length_b   16.22978449
_cell_length_c   15.74748631
_cell_angle_alpha   89.43239812
_cell_angle_beta   89.87231572
_cell_angle_gamma   89.02119842
_symmetry_Int_Tables_number   1
_chemical_formula_structural   Ba51Fe51Bi26
_chemical_formula_sum   'Ba51 Fe51 Bi26'
_cell_volume   4308.87808242
_cell_formula_units_Z   1
loop_
 _symmetry_equiv_pos_site_id
 _symmetry_equiv_pos_as_xyz
  1  'x, y, z'
loop_
 _atom_site_type_symbol
 _atom_site_label
 _atom_site_symmetry_multiplicity
 _atom_site_fract_x
 _atom_site_fract_y
 _atom_site_fract_z
 _atom_site_occupancy
  Ba  Ba0  1  0.55571905  0.71927978  0.15979136  1
  Ba  Ba1  1  0.59057860  0.11801742  0.47353640  1
  Ba  Ba2  1  0.33097905  0.73628876  0.08277286  1
  Ba  Ba3  1  0.32177799  0.15289469  0.47232984  1
  Ba  Ba4  1  0.26256562  0.23762594  0.71522545  1
  Ba  Ba5  1  0.25312011  0.92427744  0.33211246  1
  Ba  Ba6  1  0.55624139  0.39242906  0.78947644  1
  Ba  Ba7  1  -0.00759081  0.26073182  0.63594644  1
  Ba  Ba8  1  0.78246511  0.73731424  0.22872707  1
  Ba  Ba9  1  0.76055462  0.35710056  0.68271179  1
  Ba  Ba10  1  0.61230383  0.78837690  -0.10638200  1
  Ba  Ba11  1  0.06725960  0.83004216  -0.05134565  1
  Ba  Ba12  1  0.71110776  0.24030071  0.28289127  1
  Ba  Ba13  1  0.55611537  0.04790901  0.10822560  1
  Ba  Ba14  1  0.83752234  0.80133817  -0.04169062  1
  Ba  Ba15  1  0.13907336  0.86113225  0.56752532  1
  Ba  Ba16  1  0.25710195  0.79197737  0.81248106  1
  Ba  Ba17  1  0.13049273  0.61291334  0.78921726  1
  Ba  Ba18  1  0.36012266  0.32764694  -0.07831557  1
  Ba  Ba19  1  -0.07089899  0.04194927  0.51408526  1
  Ba  Ba20  1  0.04851869  0.76141827  0.20032952  1
  Ba  Ba21  1  -0.07901253  0.53631102  0.14283581  1
  Ba  Ba22  1  0.30004432  0.49669998  0.08605482  1
  Ba  Ba23  1  0.24734256  0.47726767  0.59800286  1
  Ba  Ba24  1  0.66766883  0.41213233  0.45501447  1
  Ba  Ba25  1  0.76359049  -0.09498771  0.42536873  1
  Ba  Ba26  1  0.04865040  0.44685069  0.41213269  1
  Ba  Ba27  1  0.72675498  0.62543872  0.74025322  1
  Ba  Ba28  1  0.65968553  0.67965755  0.47345865  1
  Ba  Ba29  1  0.79945149  0.46196293  -0.07651524  1
  Ba  Ba30  1  0.30294652  0.00828260  0.73536995  1
  Ba  Ba31  1  0.52928405  -0.04132264  0.72331303  1
  Ba  Ba32  1  0.06199754  0.43921153  -0.01920389  1
  Ba  Ba33  1  0.44968022  0.74650140  0.67238028  1
  Ba  Ba34  1  -0.09196790  0.00837424  0.80244359  1
  Ba  Ba35  1  0.48437431  0.51619881  0.57437499  1
  Ba  Ba36  1  -0.01257253  0.23778944  0.32091756  1
  Ba  Ba37  1  0.71149493  0.13164729  0.70352306  1
  Ba  Ba38  1  0.55275248  0.53415932  -0.02047291  1
  Ba  Ba39  1  -0.06007541  0.72657227  0.42443553  1
  Ba  Ba40  1  0.67604052  0.48922968  0.20766467  1
  Ba  Ba41  1  0.50535105  0.15162652  0.86474770  1
  Ba  Ba42  1  0.39744285  0.24655806  0.25960230  1
  Ba  Ba43  1  0.22284061  0.58666943  0.33172554  1
  Ba  Ba44  1  0.05611144  0.18605503  -0.11556484  1
  Ba  Ba45  1  -0.04482887  0.75127540  0.68772131  1
  Ba  Ba46  1  0.43661378  0.75901817  0.39796568  1
  Ba  Ba47  1  0.03424292  0.02705985  0.18228005  1
  Ba  Ba48  1  -0.04460568  0.49178683  0.70362766  1
  Ba  Ba49  1  0.19448538  0.24504597  0.08934057  1
  Ba  Ba50  1  0.81128890  0.10317596  0.06672985  1
  Fe  Fe51  1  0.86530938  0.41777849  0.50007564  1
  Fe  Fe52  1  0.70244625  -0.06819203  0.61316967  1
  Fe  Fe53  1  0.64065965  0.88957908  0.25252901  1
  Fe  Fe54  1  0.15284362  0.00270076  0.85237390  1
  Fe  Fe55  1  0.40906832  0.66747487  0.87092252  1
  Fe  Fe56  1  0.42396579  0.33383543  0.64748970  1
  Fe  Fe57  1  0.58638494  0.30304232  -0.02307650  1
  Fe  Fe58  1  0.82476522  0.54935638  0.42859779  1
  Fe  Fe59  1  0.25212728  0.05051427  0.07733057  1
  Fe  Fe60  1  0.82650546  -0.09403707  0.64739802  1
  Fe  Fe61  1  0.51471711  0.42002541  0.30287244  1
  Fe  Fe62  1  0.45697485  0.56949534  0.77900068  1
  Fe  Fe63  1  0.82833955  0.64457456  0.56110977  1
  Fe  Fe64  1  0.24832617  0.09757201  0.92540284  1
  Fe  Fe65  1  0.78226610  0.81207741  0.74932061  1
  Fe  Fe66  1  0.48462662  0.52846891  0.18989855  1
  Fe  Fe67  1  0.89555445  0.91068711  0.27310018  1
  Fe  Fe68  1  0.35709633  0.95258468  0.07402210  1
  Fe  Fe69  1  1.04819806  0.64525096  0.02389790  1
  Fe  Fe70  1  0.27168079  0.47918372  0.82331573  1
  Fe  Fe71  1  0.34730603  0.04800573  0.19600925  1
  Fe  Fe72  1  0.36155628  0.02397032  0.94525342  1
  Fe  Fe73  1  0.29160453  0.61067142  0.90483193  1
  Fe  Fe74  1  0.68026689  0.01719210  0.27299403  1
  Fe  Fe75  1  0.44670076  0.97385208  0.42971341  1
  Fe  Fe76  1  0.40507799  0.60026694  0.27041246  1
  Fe  Fe77  1  0.54494854  0.29580457  0.61395596  1
  Fe  Fe78  1  0.33036769  0.59494185  0.75500176  1
  Fe  Fe79  1  0.67315585  0.18378036  0.94993912  1
  Fe  Fe80  1  0.10211158  0.91548464  0.76505270  1
  Fe  Fe81  1  0.66411053  0.81141973  0.66886212  1
  Fe  Fe82  1  0.69870296  0.29836407  0.89365099  1
  Fe  Fe83  1  0.55713985  -0.04106497  0.34118900  1
  Fe  Fe84  1  0.14263280  1.02065046  0.99335958  1
  Fe  Fe85  1  0.78105600  0.78569641  0.59558708  1
  Fe  Fe86  1  0.25470923  0.93852861  0.95542270  1
  Fe  Fe87  1  0.38815524  0.45266466  0.25988193  1
  Fe  Fe88  1  0.86996051  0.33161971  0.14566233  1
  Fe  Fe89  1  0.72109579  0.92817368  0.75691096  1
  Fe  Fe90  1  0.17652174  0.64944040  0.99455436  1
  Fe  Fe91  1  0.13220881  0.59764159  0.11845591  1
  Fe  Fe92  1  -0.07553740  0.55360956  0.52308689  1
  Fe  Fe93  1  0.40732711  0.49324577  0.39187029  1
  Fe  Fe94  1  0.18212513  0.30181976  0.28930944  1
  Fe  Fe95  1  0.43308500  0.04289214  0.31005469  1
  Fe  Fe96  1  0.87655685  0.30788197  1.01139718  1
  Fe  Fe97  1  0.37933632  0.44560206  0.74313548  1
  Fe  Fe98  1  0.39033662  0.51467941  0.88616059  1
  Fe  Fe99  1  0.51669631  0.56027349  0.33936339  1
  Fe  Fe100  1  0.78041769  0.93844860  0.21326227  1
  Fe  Fe101  1  0.78616402  0.51870291  0.56930222  1
  Bi  Bi102  1  0.09029493  0.06768420  0.68741997  1
  Bi  Bi103  1  -0.14863146  0.41054539  0.31332000  1
  Bi  Bi104  1  0.84217286  0.07345692  0.29754498  1
  Bi  Bi105  1  0.13396553  0.38884654  -0.22236131  1
  Bi  Bi106  1  0.27630054  0.38459110  0.39810553  1
  Bi  Bi107  1  0.71985851  0.31878529  0.07453466  1
  Bi  Bi108  1  0.49426860  0.37547180  0.11602598  1
  Bi  Bi109  1  0.38147768  0.15181540  0.05102818  1
  Bi  Bi110  1  0.47401518  0.32606040  0.45957859  1
  Bi  Bi111  1  0.19102956  -0.10493089  0.11486706  1
  Bi  Bi112  1  0.57098266  -0.11477325  0.51554294  1
  Bi  Bi113  1  0.67925395  0.01719265  0.89816985  1
  Bi  Bi114  1  0.44273894  -0.10534015  0.21970220  1
  Bi  Bi115  1  0.41918304  0.86628606  -0.08275747  1
  Bi  Bi116  1  0.03242769  0.90750044  0.37394940  1
  Bi  Bi117  1  0.94270269  0.62151996  0.88899963  1
  Bi  Bi118  1  0.84956005  0.23122683  0.84943151  1
  Bi  Bi119  1  0.99172539  0.22400658  0.09651727  1
  Bi  Bi120  1  0.11768486  0.43775725  0.19995002  1
  Bi  Bi121  1  0.81597849  0.24228961  0.50524584  1
  Bi  Bi122  1  0.68707698  0.88158043  0.08652144  1
  Bi  Bi123  1  0.20888632  0.13327492  0.27801031  1
  Bi  Bi124  1  0.45674285  0.15553243  0.65003854  1
  Bi  Bi125  1  0.08090989  0.61761673  0.55372564  1
  Bi  Bi126  1  0.72722925  0.63336527  0.03883413  1
  Bi  Bi127  1  0.34220856  0.90519301  0.54648138  1
