# generated using pymatgen
data_Ba51Fe51Bi26
_symmetry_space_group_name_H-M   'P 1'
_cell_length_a   16.37293902
_cell_length_b   16.33154256
_cell_length_c   16.66384127
_cell_angle_alpha   88.73895593
_cell_angle_beta   91.28948749
_cell_angle_gamma   88.97943772
_symmetry_Int_Tables_number   1
_chemical_formula_structural   Ba51Fe51Bi26
_chemical_formula_sum   'Ba51 Fe51 Bi26'
_cell_volume   4452.87927870
_cell_formula_units_Z   1
loop_
 _symmetry_equiv_pos_site_id
 _symmetry_equiv_pos_as_xyz
  1  'x, y, z'
loop_
 _atom_site_type_symbol
 _atom_site_label
 _atom_site_symmetry_multiplicity
 _atom_site_fract_x
 _atom_site_fract_y
 _atom_site_fract_z
 _atom_site_occupancy
  Ba  Ba0  1  0.67632474  0.26534634  0.27997775  1
  Ba  Ba1  1  -0.01371165  0.71848515  0.75475541  1
  Ba  Ba2  1  0.44632800  0.56245357  0.32021682  1
  Ba  Ba3  1  0.22229871  0.45367251  -0.00358328  1
  Ba  Ba4  1  0.55453635  0.77528952  0.37290819  1
  Ba  Ba5  1  0.22216030  0.60471675  0.76438793  1
  Ba  Ba6  1  0.68487267  0.53005528  0.27351233  1
  Ba  Ba7  1  0.02996768  -0.03216191  0.79403671  1
  Ba  Ba8  1  0.01930939  -0.09503560  0.53414787  1
  Ba  Ba9  1  0.28312371  0.73831821  0.29254664  1
  Ba  Ba10  1  0.42658587  0.46831290  0.75975668  1
  Ba  Ba11  1  0.44196096  0.26824860  0.47266546  1
  Ba  Ba12  1  0.77791728  0.75128310  0.19295390  1
  Ba  Ba13  1  0.22986060  0.25720599  0.65791011  1
  Ba  Ba14  1  0.75997591  0.47344056  0.53225116  1
  Ba  Ba15  1  0.16730491  0.23709942  0.40493319  1
  Ba  Ba16  1  0.19537301  0.23200586  -0.08988183  1
  Ba  Ba17  1  -0.03021502  0.26155393  0.54106158  1
  Ba  Ba18  1  0.34250617  -0.01495144  0.30076232  1
  Ba  Ba19  1  0.53955098  0.51162617  -0.01135772  1
  Ba  Ba20  1  0.09651573  0.05396960  0.25285431  1
  Ba  Ba21  1  0.71208710  -0.03407180  0.63717514  1
  Ba  Ba22  1  -0.06418873  0.45640606  0.21780323  1
  Ba  Ba23  1  0.78042103  0.76295043  0.47058186  1
  Ba  Ba24  1  0.29619997  0.25460114  0.16488026  1
  Ba  Ba25  1  0.57125418  -0.01731948  0.23076296  1
  Ba  Ba26  1  0.88744270  0.13100632  0.71893810  1
  Ba  Ba27  1  -0.09309770  0.20847795  0.14209746  1
  Ba  Ba28  1  0.20073702  0.74984028  -0.00445543  1
  Ba  Ba29  1  -0.05774590  0.77746272  -0.01679218  1
  Ba  Ba30  1  0.27982969  0.78223855  0.56674576  1
  Ba  Ba31  1  0.76131293  0.47486278  0.03944398  1
  Ba  Ba32  1  0.30587894  0.03187354  0.52986117  1
  Ba  Ba33  1  0.54006213  -0.01054259  -0.00438529  1
  Ba  Ba34  1  0.73230969  0.21534889  -0.07391068  1
  Ba  Ba35  1  0.15295401  0.02251572  -0.00737762  1
  Ba  Ba36  1  -0.03936577  0.39341183  -0.09560690  1
  Ba  Ba37  1  0.80282336  0.01251922  0.30841373  1
  Ba  Ba38  1  0.52999846  0.26801493  0.08212703  1
  Ba  Ba39  1  0.70316959  0.21862013  0.52511686  1
  Ba  Ba40  1  0.66159529  0.70966807  0.74106436  1
  Ba  Ba41  1  0.43010001  0.75551928  0.81007185  1
  Ba  Ba42  1  0.04451888  0.48477253  0.43692841  1
  Ba  Ba43  1  0.30313355  0.52268877  0.51351389  1
  Ba  Ba44  1  0.46069948  0.75086115  0.08117060  1
  Ba  Ba45  1  0.50190436  0.86020917  0.59571537  1
  Ba  Ba46  1  0.03360292  0.76933938  0.25259726  1
  Ba  Ba47  1  0.84471719  -0.00292594  0.00340194  1
  Ba  Ba48  1  0.47130026  0.19059894  0.77710372  1
  Ba  Ba49  1  0.69325847  0.45832720  0.77781122  1
  Ba  Ba50  1  0.17988794  0.50981237  0.21755050  1
  Fe  Fe51  1  0.64093361  0.97259858  0.44374331  1
  Fe  Fe52  1  0.32904030  0.04705446  0.85297583  1
  Fe  Fe53  1  0.78192023  0.67143912  0.02203006  1
  Fe  Fe54  1  0.74940277  0.01648636  0.82505541  1
  Fe  Fe55  1  0.97229523  0.70284587  0.56504530  1
  Fe  Fe56  1  0.46045060  0.63634834  0.62633030  1
  Fe  Fe57  1  1.01703177  0.41985155  0.67743983  1
  Fe  Fe58  1  0.37085395  0.42963104  0.18409045  1
  Fe  Fe59  1  0.64389714  0.68466281  0.04891829  1
  Fe  Fe60  1  0.03278426  0.29955505  0.74871242  1
  Fe  Fe61  1  0.50266952  0.45077470  0.17053262  1
  Fe  Fe62  1  0.46004184  0.65594679  0.49536957  1
  Fe  Fe63  1  0.22739030  0.95877374  0.83024921  1
  Fe  Fe64  1  0.32401387  0.91899126  0.74175491  1
  Fe  Fe65  1  -0.01834413  0.55834335  0.62398364  1
  Fe  Fe66  1  0.86456806  0.18278009  0.37320110  1
  Fe  Fe67  1  -0.02396710  0.24119786  0.32733423  1
  Fe  Fe68  1  0.97704164  0.11212238  0.39293094  1
  Fe  Fe69  1  0.62418823  0.88767822  0.81071874  1
  Fe  Fe70  1  0.70111860  0.80662376  0.02378751  1
  Fe  Fe71  1  0.58447768  0.56789666  0.61881620  1
  Fe  Fe72  1  0.07285147  0.17216556  0.77233520  1
  Fe  Fe73  1  0.49866256  0.51830155  0.53143129  1
  Fe  Fe74  1  0.62157149  0.02877621  0.83160261  1
  Fe  Fe75  1  0.75505247  0.76680255  0.90598503  1
  Fe  Fe76  1  0.99701060  0.69803199  0.43536513  1
  Fe  Fe77  1  0.20332475  0.96995618  0.68434070  1
  Fe  Fe78  1  0.04812185  0.62763978  0.09625795  1
  Fe  Fe79  1  0.90358802  0.51223769  0.73570910  1
  Fe  Fe80  1  0.19370370  0.08900626  0.77206800  1
  Fe  Fe81  1  0.46298846  0.08708901  0.40899481  1
  Fe  Fe82  1  0.58415576  0.68645750  0.55080745  1
  Fe  Fe83  1  0.32037214  0.05831608  0.71970192  1
  Fe  Fe84  1  0.47556760  0.36521127  0.27415571  1
  Fe  Fe85  1  0.40703442  0.31728590  0.92715206  1
  Fe  Fe86  1  0.12514591  0.72420082  0.43003709  1
  Fe  Fe87  1  0.03603088  0.51911551  0.76966934  1
  Fe  Fe88  1  0.52562558  0.34324158  0.89247846  1
  Fe  Fe89  1  0.38811786  0.53864612  0.11065748  1
  Fe  Fe90  1  0.90926844  0.60270184  0.50515489  1
  Fe  Fe91  1  0.91262956  0.59763710  0.05180823  1
  Fe  Fe92  1  0.59619373  0.58596860  0.46387521  1
  Fe  Fe93  1  0.28796506  0.05940049  0.12192993  1
  Fe  Fe94  1  0.70353878  0.90952818  0.91395527  1
  Fe  Fe95  1  0.36213908  0.94993321  0.10159766  1
  Fe  Fe96  1  0.59390066  0.09151084  0.39262164  1
  Fe  Fe97  1  0.60478201  0.78606688  -0.07438916  1
  Fe  Fe98  1  0.50971962  0.96271006  0.42503131  1
  Fe  Fe99  1  0.67065077  0.65224073  0.92786171  1
  Fe  Fe100  1  0.01967421  0.50894951  0.05707566  1
  Fe  Fe101  1  0.41695323  0.08021709  0.13780238  1
  Bi  Bi102  1  0.18584173  0.81356874  0.75702474  1
  Bi  Bi103  1  0.37662155  0.14445279  -0.01514932  1
  Bi  Bi104  1  0.10083750  0.09415747  0.61899781  1
  Bi  Bi105  1  0.83372230  -0.12744205  0.80211373  1
  Bi  Bi106  1  0.83023903  0.60121280  -0.12137727  1
  Bi  Bi107  1  0.58000872  0.41475455  0.41780269  1
  Bi  Bi108  1  0.47549323  0.17811570  0.27203728  1
  Bi  Bi109  1  0.53204507  0.07694279  0.55726351  1
  Bi  Bi110  1  -0.17317743  0.63759602  0.64104185  1
  Bi  Bi111  1  0.06493936  0.59860911  -0.07595716  1
  Bi  Bi112  1  0.47636491  -0.02543826  0.77272382  1
  Bi  Bi113  1  -0.02203582  0.16070688  0.91517148  1
  Bi  Bi114  1  0.12498458  0.63550593  0.57015559  1
  Bi  Bi115  1  0.67863783  0.15623849  0.73751187  1
  Bi  Bi116  1  0.70740704  0.11555062  0.12138704  1
  Bi  Bi117  1  0.31367244  0.38966263  0.34164029  1
  Bi  Bi118  1  0.08824472  0.29715576  0.21601564  1
  Bi  Bi119  1  0.84878677  0.35270078  0.37949604  1
  Bi  Bi120  1  0.35752043  0.60561231  0.94989525  1
  Bi  Bi121  1  0.34563072  0.89984652  0.94245058  1
  Bi  Bi122  1  0.86269937  0.35025387  0.70439844  1
  Bi  Bi123  1  0.20944118  0.89247111  0.15623004  1
  Bi  Bi124  1  0.16424233  0.40476808  0.78607033  1
  Bi  Bi125  1  0.17327842  0.88608436  0.39853288  1
  Bi  Bi126  1  0.87789189  0.62251804  0.33905178  1
  Bi  Bi127  1  0.85916590  0.06542490  0.50421329  1
