# generated using pymatgen
data_Ba51Fe51Bi26
_symmetry_space_group_name_H-M   'P 1'
_cell_length_a   16.46701656
_cell_length_b   16.38179915
_cell_length_c   16.46932033
_cell_angle_alpha   92.14780149
_cell_angle_beta   88.15462700
_cell_angle_gamma   89.92758594
_symmetry_Int_Tables_number   1
_chemical_formula_structural   Ba51Fe51Bi26
_chemical_formula_sum   'Ba51 Fe51 Bi26'
_cell_volume   4437.31603755
_cell_formula_units_Z   1
loop_
 _symmetry_equiv_pos_site_id
 _symmetry_equiv_pos_as_xyz
  1  'x, y, z'
loop_
 _atom_site_type_symbol
 _atom_site_label
 _atom_site_symmetry_multiplicity
 _atom_site_fract_x
 _atom_site_fract_y
 _atom_site_fract_z
 _atom_site_occupancy
  Ba  Ba0  1  -0.05299087  -0.09715276  0.57653414  1
  Ba  Ba1  1  0.34395741  -0.16148078  -0.10975167  1
  Ba  Ba2  1  0.53087139  0.68510447  0.45916686  1
  Ba  Ba3  1  0.84600724  0.07479985  0.69124919  1
  Ba  Ba4  1  0.80009105  0.02069758  0.42979694  1
  Ba  Ba5  1  0.41978310  0.73966419  0.68770775  1
  Ba  Ba6  1  0.50942124  0.25564338  0.29717883  1
  Ba  Ba7  1  -0.09213726  0.47733348  0.67706401  1
  Ba  Ba8  1  0.05202642  -0.07706349  0.78419821  1
  Ba  Ba9  1  0.09625043  0.01980080  0.28996552  1
  Ba  Ba10  1  0.22568040  0.04080139  0.84805333  1
  Ba  Ba11  1  0.57929872  0.00060070  0.58295950  1
  Ba  Ba12  1  -0.08827916  0.45841789  0.27681086  1
  Ba  Ba13  1  -0.01277758  0.66686735  0.80601703  1
  Ba  Ba14  1  0.03762585  0.75209221  0.41914246  1
  Ba  Ba15  1  -0.06909782  0.22069365  0.32544180  1
  Ba  Ba16  1  0.25643269  0.34307575  0.88356408  1
  Ba  Ba17  1  0.71246629  0.24926125  0.12438847  1
  Ba  Ba18  1  0.47499897  0.45572473  0.61596618  1
  Ba  Ba19  1  0.09320131  0.68157334  0.17276616  1
  Ba  Ba20  1  0.30081457  0.28201212  0.45317910  1
  Ba  Ba21  1  0.36945028  0.20404322  0.69776821  1
  Ba  Ba22  1  0.11570404  0.18685693  0.01058277  1
  Ba  Ba23  1  0.49110664  -0.00667577  0.27990689  1
  Ba  Ba24  1  0.62609702  0.51701174  -0.14913299  1
  Ba  Ba25  1  0.42618172  0.65251032  0.25295852  1
  Ba  Ba26  1  0.85490604  0.81164150  0.28161822  1
  Ba  Ba27  1  0.48496447  0.03882245  -0.09374190  1
  Ba  Ba28  1  0.65317152  0.80427028  -0.16229404  1
  Ba  Ba29  1  0.71527748  0.30642687  0.47966870  1
  Ba  Ba30  1  0.26971241  -0.16955802  0.30856796  1
  Ba  Ba31  1  0.70656670  -0.04153936  0.18509897  1
  Ba  Ba32  1  0.38499684  -0.10676420  0.50302422  1
  Ba  Ba33  1  0.59451350  0.24132109  0.74777658  1
  Ba  Ba34  1  0.07141533  0.26558127  0.74452491  1
  Ba  Ba35  1  0.79009896  -0.00608885  -0.06473226  1
  Ba  Ba36  1  0.52810986  0.78891256  0.07461252  1
  Ba  Ba37  1  0.35038125  0.57816155  0.02321860  1
  Ba  Ba38  1  0.34442439  0.41773110  0.23240665  1
  Ba  Ba39  1  0.00486731  0.83603556  0.01898002  1
  Ba  Ba40  1  0.09778052  0.44023740  0.08861417  1
  Ba  Ba41  1  0.06017486  0.34831501  0.50803515  1
  Ba  Ba42  1  0.17816940  0.54295208  0.36332799  1
  Ba  Ba43  1  0.26980547  0.17204918  0.19255361  1
  Ba  Ba44  1  0.49183637  0.31897642  0.00878292  1
  Ba  Ba45  1  0.20348349  0.04491901  0.56197041  1
  Ba  Ba46  1  0.72840311  0.59943418  0.57094245  1
  Ba  Ba47  1  0.76279302  0.50362213  0.10756185  1
  Ba  Ba48  1  -0.07398647  0.09061786  0.10627942  1
  Ba  Ba49  1  0.29811000  0.55645684  0.78813820  1
  Ba  Ba50  1  -0.09425554  0.40605892  -0.07940267  1
  Fe  Fe51  1  0.62897843  0.63865861  0.16441681  1
  Fe  Fe52  1  0.82176648  0.75396893  0.47932395  1
  Fe  Fe53  1  0.99934731  0.05077769  0.46790169  1
  Fe  Fe54  1  0.83899563  0.75694400  0.95511481  1
  Fe  Fe55  1  0.75896895  0.63957364  0.25531133  1
  Fe  Fe56  1  0.78008954  0.30313414  0.77756308  1
  Fe  Fe57  1  0.14897710  0.00362684  0.09557365  1
  Fe  Fe58  1  0.56873231  0.11744171  0.42680136  1
  Fe  Fe59  1  0.88355820  0.22882761  0.80966724  1
  Fe  Fe60  1  0.61912508  0.59015836  0.30667836  1
  Fe  Fe61  1  0.92740959  0.16178331  0.50538402  1
  Fe  Fe62  1  0.27343397  0.01780710  1.03148233  1
  Fe  Fe63  1  0.74345357  0.53681525  0.36709955  1
  Fe  Fe64  1  0.77817188  0.82600621  0.04991850  1
  Fe  Fe65  1  0.25957730  -0.03079550  0.16582457  1
  Fe  Fe66  1  0.84236225  0.70397336  0.09556588  1
  Fe  Fe67  1  0.17243800  0.64956388  0.51915402  1
  Fe  Fe68  1  0.71802005  0.69564609  0.38879695  1
  Fe  Fe69  1  0.60860402  0.50319837  0.44091191  1
  Fe  Fe70  1  0.73724188  0.90623402  0.67376492  1
  Fe  Fe71  1  0.64736591  0.43662898  0.32032556  1
  Fe  Fe72  1  0.17136394  0.85985469  0.14475182  1
  Fe  Fe73  1  0.51096288  0.48675573  0.32738742  1
  Fe  Fe74  1  0.25014961  0.73921396  0.61801248  1
  Fe  Fe75  1  0.11420197  0.48827897  0.69118601  1
  Fe  Fe76  1  0.63392092  0.73659381  0.27285570  1
  Fe  Fe77  1  0.05698595  0.25177722  0.18466702  1
  Fe  Fe78  1  0.17100313  0.62178447  0.67095672  1
  Fe  Fe79  1  0.25589095  0.87448151  0.67641639  1
  Fe  Fe80  1  0.14516531  0.86545991  0.61411669  1
  Fe  Fe81  1  0.44171350  0.10331264  0.45038262  1
  Fe  Fe82  1  0.84738778  0.63599197  0.38389625  1
  Fe  Fe83  1  0.31282428  0.68837060  0.48221386  1
  Fe  Fe84  1  0.79070131  0.78736014  0.63419262  1
  Fe  Fe85  1  0.19604489  0.75017217  1.01473510  1
  Fe  Fe86  1  0.27319479  0.75990954  0.11672557  1
  Fe  Fe87  1  0.72093126  0.74417859  0.15639157  1
  Fe  Fe88  1  0.29746409  0.59565707  0.57711955  1
  Fe  Fe89  1  0.74257231  0.17908501  -0.14825323  1
  Fe  Fe90  1  0.09492153  0.73781445  0.62043029  1
  Fe  Fe91  1  0.51715848  0.40033593  0.42307416  1
  Fe  Fe92  1  0.13363775  0.64267064  0.96768031  1
  Fe  Fe93  1  0.83856024  0.21237176  -0.06274366  1
  Fe  Fe94  1  0.31773007  0.87765412  0.08009124  1
  Fe  Fe95  1  0.02430062  0.14354267  0.59035285  1
  Fe  Fe96  1  0.20682306  0.79581622  0.50759654  1
  Fe  Fe97  1  0.06015165  0.58491380  0.59235588  1
  Fe  Fe98  1  0.07731893  0.15615017  0.46018743  1
  Fe  Fe99  1  0.18383502  0.50318958  0.56981870  1
  Fe  Fe100  1  0.73471065  0.85311454  0.52569405  1
  Fe  Fe101  1  0.19520834  -0.10428800  1.01467594  1
  Bi  Bi102  1  0.38366883  0.98254603  0.70629750  1
  Bi  Bi103  1  0.50527471  0.25196776  0.52336683  1
  Bi  Bi104  1  0.37751380  0.52309297  0.43513074  1
  Bi  Bi105  1  0.24158054  0.37158216  0.65093195  1
  Bi  Bi106  1  0.18469540  0.75902486  0.77491428  1
  Bi  Bi107  1  0.69794765  0.67110771  -0.00092149  1
  Bi  Bi108  1  0.10227060  0.49267355  0.86369554  1
  Bi  Bi109  1  0.54930525  0.47900953  0.16199708  1
  Bi  Bi110  1  0.85725424  0.84397972  0.78620470  1
  Bi  Bi111  1  0.70108109  0.33156674  -0.06411126  1
  Bi  Bi112  1  -0.03211722  0.54286581  0.45840194  1
  Bi  Bi113  1  0.64522015  0.86979327  0.38292877  1
  Bi  Bi114  1  0.88961626  0.27037239  0.63292865  1
  Bi  Bi115  1  0.92003033  0.30937057  0.11462121  1
  Bi  Bi116  1  0.44726508  0.39740772  0.82232881  1
  Bi  Bi117  1  0.65741430  1.03123501  0.78179923  1
  Bi  Bi118  1  0.14341050  0.33970828  0.29444074  1
  Bi  Bi119  1  0.47644728  0.67191685  0.88479130  1
  Bi  Bi120  1  0.97213710  0.10409600  0.88043642  1
  Bi  Bi121  1  0.30358013  0.05350674  0.36381287  1
  Bi  Bi122  1  0.70125420  0.40968567  0.67358864  1
  Bi  Bi123  1  0.69094902  0.14623241  0.30697819  1
  Bi  Bi124  1  0.96572905  0.61095124  1.02120868  1
  Bi  Bi125  1  0.61776354  0.78718323  0.62901321  1
  Bi  Bi126  1  0.92559303  0.69055463  0.59836583  1
  Bi  Bi127  1  0.33375830  0.16626632  0.98428647  1
