# generated using pymatgen
data_Ba51Fe51Bi26
_symmetry_space_group_name_H-M   'P 1'
_cell_length_a   16.01720591
_cell_length_b   16.46023291
_cell_length_c   16.44701487
_cell_angle_alpha   90.90473958
_cell_angle_beta   84.01772981
_cell_angle_gamma   90.69280522
_symmetry_Int_Tables_number   1
_chemical_formula_structural   Ba51Fe51Bi26
_chemical_formula_sum   'Ba51 Fe51 Bi26'
_cell_volume   4311.81545140
_cell_formula_units_Z   1
loop_
 _symmetry_equiv_pos_site_id
 _symmetry_equiv_pos_as_xyz
  1  'x, y, z'
loop_
 _atom_site_type_symbol
 _atom_site_label
 _atom_site_symmetry_multiplicity
 _atom_site_fract_x
 _atom_site_fract_y
 _atom_site_fract_z
 _atom_site_occupancy
  Ba  Ba0  1  0.01384647  -0.11267220  0.74557960  1
  Ba  Ba1  1  0.49509084  -0.09783049  0.30266429  1
  Ba  Ba2  1  0.10168993  -0.02005058  0.48334882  1
  Ba  Ba3  1  0.01095493  0.31576573  0.04939956  1
  Ba  Ba4  1  0.90890839  0.72703229  -0.02968388  1
  Ba  Ba5  1  0.45884523  0.28602233  0.38356767  1
  Ba  Ba6  1  0.70072092  0.52051573  0.57492247  1
  Ba  Ba7  1  0.34748977  0.48513000  0.01641548  1
  Ba  Ba8  1  0.46471171  0.48919615  0.21875286  1
  Ba  Ba9  1  0.48611591  0.82421964  0.80333732  1
  Ba  Ba10  1  0.28428180  0.68412616  0.65353605  1
  Ba  Ba11  1  0.67306262  0.14001407  0.32052510  1
  Ba  Ba12  1  0.15006711  0.66218983  0.03125508  1
  Ba  Ba13  1  0.67452101  0.71421227  -0.07218740  1
  Ba  Ba14  1  0.85903545  0.00182768  -0.06801144  1
  Ba  Ba15  1  0.52246916  0.56369823  0.79601386  1
  Ba  Ba16  1  -0.05678817  0.48835501  0.20721883  1
  Ba  Ba17  1  -0.08395062  0.08936271  0.38019638  1
  Ba  Ba18  1  0.54294118  0.33513309  -0.07334258  1
  Ba  Ba19  1  -0.02008580  0.47424313  0.78363959  1
  Ba  Ba20  1  0.19341952  0.16449049  0.26731413  1
  Ba  Ba21  1  0.70265296  0.72180970  0.41140414  1
  Ba  Ba22  1  0.42733087  0.86975075  0.52667653  1
  Ba  Ba23  1  0.30471340  0.48603342  0.49280478  1
  Ba  Ba24  1  0.57995821  0.24986799  0.13494774  1
  Ba  Ba25  1  0.73640014  0.79345028  0.65875911  1
  Ba  Ba26  1  0.40029226  0.75421168  0.05714207  1
  Ba  Ba27  1  -0.00604024  -0.10505762  0.18247195  1
  Ba  Ba28  1  0.63641805  0.73685203  0.16975952  1
  Ba  Ba29  1  0.70568345  0.53350525  0.25287730  1
  Ba  Ba30  1  0.31028074  0.13685488  0.51855969  1
  Ba  Ba31  1  0.03418654  0.67571936  0.30978959  1
  Ba  Ba32  1  0.10821547  0.32097984  0.62200573  1
  Ba  Ba33  1  0.23196789  0.47634451  0.80587233  1
  Ba  Ba34  1  0.14313963  0.09803780  0.73302420  1
  Ba  Ba35  1  0.71713296  0.03255577  0.73841616  1
  Ba  Ba36  1  0.20207556  0.41227633  0.24190238  1
  Ba  Ba37  1  -0.07528314  0.67304166  0.70264867  1
  Ba  Ba38  1  0.74640828  0.34338817  0.78532539  1
  Ba  Ba39  1  0.40741940  0.04359076  0.70341629  1
  Ba  Ba40  1  0.12452187  0.06071570  -0.01110786  1
  Ba  Ba41  1  0.30724103  0.23800449  -0.07883931  1
  Ba  Ba42  1  0.03838498  0.46427615  0.45543437  1
  Ba  Ba43  1  0.23979377  -0.18919861  0.28358206  1
  Ba  Ba44  1  0.71972509  -0.04259509  0.46594672  1
  Ba  Ba45  1  0.51299172  0.05988850  0.91414061  1
  Ba  Ba46  1  0.81915024  0.34581804  0.39222265  1
  Ba  Ba47  1  0.35335080  0.04825882  0.12591263  1
  Ba  Ba48  1  0.85350849  0.14854597  0.12306259  1
  Ba  Ba49  1  0.65314826  -0.02421716  0.07776251  1
  Ba  Ba50  1  0.22289553  0.84442762  0.84979051  1
  Fe  Fe51  1  0.36947072  0.73722395  0.40770145  1
  Fe  Fe52  1  0.36367040  0.61431365  0.35435085  1
  Fe  Fe53  1  0.30666143  1.04075909  0.88593378  1
  Fe  Fe54  1  -0.06869250  0.29344215  -0.16086834  1
  Fe  Fe55  1  0.69248787  0.19931342  0.65809090  1
  Fe  Fe56  1  0.83262874  0.54185029  0.93260670  1
  Fe  Fe57  1  0.92136622  0.70865631  0.49086165  1
  Fe  Fe58  1  0.84093646  0.16863255  -0.18030865  1
  Fe  Fe59  1  0.57880467  0.30342174  0.70381442  1
  Fe  Fe60  1  -0.06983727  0.24369766  0.52953473  1
  Fe  Fe61  1  0.52215457  0.07909884  0.21140295  1
  Fe  Fe62  1  0.75169513  0.32922093  1.00983502  1
  Fe  Fe63  1  0.54898594  1.17513596  0.61843268  1
  Fe  Fe64  1  0.48561454  0.41725839  0.53667034  1
  Fe  Fe65  1  0.06241172  0.78812235  0.45825457  1
  Fe  Fe66  1  0.86450041  0.39478264  0.93706683  1
  Fe  Fe67  1  0.82086301  0.12498561  0.56688563  1
  Fe  Fe68  1  0.05424987  0.22131377  0.45112218  1
  Fe  Fe69  1  0.96298272  0.81673604  0.56298041  1
  Fe  Fe70  1  0.67171115  0.43623129  0.07880089  1
  Fe  Fe71  1  0.44256635  0.65056831  0.48468660  1
  Fe  Fe72  1  0.45543937  0.22299888  0.75072120  1
  Fe  Fe73  1  0.45816436  0.29880587  0.61751626  1
  Fe  Fe74  1  0.68979880  0.89896558  0.87635486  1
  Fe  Fe75  1  -0.14658127  0.21611466  0.67311492  1
  Fe  Fe76  1  0.44639294  0.09816180  0.32000558  1
  Fe  Fe77  1  0.04278959  0.67502418  0.53832248  1
  Fe  Fe78  1  0.82072222  0.45991022  0.06115326  1
  Fe  Fe79  1  0.80635100  0.84241621  0.27856396  1
  Fe  Fe80  1  -0.02232715  0.13376387  0.58912189  1
  Fe  Fe81  1  0.80158873  0.84643833  0.83009594  1
  Fe  Fe82  1  0.85766431  0.23830376  -0.05248113  1
  Fe  Fe83  1  0.46996768  0.54934388  0.58690209  1
  Fe  Fe84  1  0.80766731  0.97903150  0.21466857  1
  Fe  Fe85  1  0.50892344  0.68140539  0.35087623  1
  Fe  Fe86  1  0.77979434  0.26251663  0.55775691  1
  Fe  Fe87  1  0.43797174  0.36326481  0.76304953  1
  Fe  Fe88  1  0.79586463  0.86227738  0.14240328  1
  Fe  Fe89  1  0.92367956  0.08651902  0.72316109  1
  Fe  Fe90  1  0.11445730  0.79224267  0.57996902  1
  Fe  Fe91  1  -0.01914057  0.21286752  0.72693247  1
  Fe  Fe92  1  0.41865887  0.70415334  0.25989044  1
  Fe  Fe93  1  0.38851927  0.43785689  0.65911703  1
  Fe  Fe94  1  0.71464009  0.46235109  0.94148325  1
  Fe  Fe95  1  0.57871155  1.17829520  0.76556503  1
  Fe  Fe96  1  0.34212347  0.94686255  0.95633284  1
  Fe  Fe97  1  0.73417324  0.56852770  0.04705376  1
  Fe  Fe98  1  -0.02799115  0.15641282  -0.13727237  1
  Fe  Fe99  1  0.69650694  0.91738468  0.26215195  1
  Fe  Fe100  1  0.67865356  0.15072016  0.52459043  1
  Fe  Fe101  1  0.53711203  0.43115050  0.65805412  1
  Bi  Bi102  1  0.55926870  0.55444853  0.02708243  1
  Bi  Bi103  1  0.52357980  0.07241720  0.47884575  1
  Bi  Bi104  1  0.85500475  0.70427958  0.18636072  1
  Bi  Bi105  1  0.62411636  0.31417760  0.52068343  1
  Bi  Bi106  1  -0.10774103  -0.02652501  0.59680899  1
  Bi  Bi107  1  -0.08082606  0.85431870  0.39616221  1
  Bi  Bi108  1  0.75183036  0.56385518  0.79266265  1
  Bi  Bi109  1  -0.30013811  0.16728706  -0.05259486  1
  Bi  Bi110  1  0.30103400  0.27109551  0.70268478  1
  Bi  Bi111  1  0.77508590  0.33814248  0.18032990  1
  Bi  Bi112  1  0.20382711  0.67708978  0.45619219  1
  Bi  Bi113  1  0.53898670  0.52249623  0.41385865  1
  Bi  Bi114  1  -0.01518005  0.51910007  -0.00550356  1
  Bi  Bi115  1  0.10255974  0.28137808  0.84789698  1
  Bi  Bi116  1  0.28608522  0.61312942  0.19545258  1
  Bi  Bi117  1  0.21716015  0.30194942  0.42520084  1
  Bi  Bi118  1  0.36612789  0.29527517  0.13237319  1
  Bi  Bi119  1  1.01267529  0.28550490  0.29494709  1
  Bi  Bi120  1  0.09666565  0.67095579  0.81726116  1
  Bi  Bi121  1  0.22835832  0.91111552  0.63898381  1
  Bi  Bi122  1  0.53775705  0.70522969  0.61542065  1
  Bi  Bi123  1  0.33714702  0.65926015  0.87727370  1
  Bi  Bi124  1  0.30145744  0.00300419  0.35039084  1
  Bi  Bi125  1  0.21262472  0.88211298  0.07169053  1
  Bi  Bi126  1  0.85775609  0.56915851  0.41029733  1
  Bi  Bi127  1  0.88423699  0.38877312  0.60603468  1
