# generated using pymatgen
data_Ba51Fe51Bi26
_symmetry_space_group_name_H-M   'P 1'
_cell_length_a   16.14486579
_cell_length_b   16.49394272
_cell_length_c   16.42666916
_cell_angle_alpha   90.00916195
_cell_angle_beta   88.57800161
_cell_angle_gamma   89.45358963
_symmetry_Int_Tables_number   1
_chemical_formula_structural   Ba51Fe51Bi26
_chemical_formula_sum   'Ba51 Fe51 Bi26'
_cell_volume   4372.75232993
_cell_formula_units_Z   1
loop_
 _symmetry_equiv_pos_site_id
 _symmetry_equiv_pos_as_xyz
  1  'x, y, z'
loop_
 _atom_site_type_symbol
 _atom_site_label
 _atom_site_symmetry_multiplicity
 _atom_site_fract_x
 _atom_site_fract_y
 _atom_site_fract_z
 _atom_site_occupancy
  Ba  Ba0  1  0.44217494  0.44598294  0.79049267  1
  Ba  Ba1  1  0.19964719  0.78381551  0.73875182  1
  Ba  Ba2  1  -0.06756220  0.03613006  0.25993054  1
  Ba  Ba3  1  0.79416608  0.71304243  0.47051067  1
  Ba  Ba4  1  0.30125240  0.53561398  0.25570870  1
  Ba  Ba5  1  0.07342357  -0.01174660  0.03820415  1
  Ba  Ba6  1  0.05481971  0.24661209  0.05121075  1
  Ba  Ba7  1  0.32508350  0.23870864  0.22421704  1
  Ba  Ba8  1  0.04367498  0.53959694  0.24389011  1
  Ba  Ba9  1  0.53406940  0.75364039  0.53640484  1
  Ba  Ba10  1  0.01418884  0.27688644  0.29461449  1
  Ba  Ba11  1  0.63799822  0.04228147  0.29035197  1
  Ba  Ba12  1  0.42306353  -0.03405105  0.48706574  1
  Ba  Ba13  1  0.76717428  0.33006726  -0.00672950  1
  Ba  Ba14  1  0.77654037  0.23237432  0.20312578  1
  Ba  Ba15  1  0.74387935  0.82603218  0.18907047  1
  Ba  Ba16  1  0.20649623  0.48616066  0.81646252  1
  Ba  Ba17  1  0.30334257  0.09359617  0.03811624  1
  Ba  Ba18  1  0.50744165  0.29970747  0.04532662  1
  Ba  Ba19  1  0.49720008  0.46086059  0.52172514  1
  Ba  Ba20  1  0.68171086  0.45120319  0.70776256  1
  Ba  Ba21  1  0.55566459  0.08432750  -0.07700164  1
  Ba  Ba22  1  0.74054833  0.70674947  -0.03647339  1
  Ba  Ba23  1  0.54279522  0.46755256  0.23394485  1
  Ba  Ba24  1  0.81346948  -0.05450709  -0.05134655  1
  Ba  Ba25  1  0.21212150  -0.04944097  0.32447961  1
  Ba  Ba26  1  0.26171580  0.18385740  0.45324465  1
  Ba  Ba27  1  0.46274315  0.72204988  0.31343338  1
  Ba  Ba28  1  0.70855414  0.03144715  0.53670072  1
  Ba  Ba29  1  0.80225176  0.47637503  0.46158081  1
  Ba  Ba30  1  0.00242830  0.02031935  0.77496647  1
  Ba  Ba31  1  0.47215849  -0.08081286  0.15220937  1
  Ba  Ba32  1  0.07873843  0.75068102  -0.02804761  1
  Ba  Ba33  1  0.02625432  0.38895367  0.50851421  1
  Ba  Ba34  1  0.77606692  0.55238242  0.20651150  1
  Ba  Ba35  1  0.46584260  0.73089588  -0.00160307  1
  Ba  Ba36  1  -0.05907304  0.18373056  0.58466595  1
  Ba  Ba37  1  0.00702173  0.76664216  0.30416457  1
  Ba  Ba38  1  0.51977866  0.22300119  0.41264297  1
  Ba  Ba39  1  0.26100463  0.25951979  0.70808410  1
  Ba  Ba40  1  -0.03652321  0.51311273  -0.03382384  1
  Ba  Ba41  1  0.50977340  -0.00598719  0.70982913  1
  Ba  Ba42  1  -0.02485592  -0.06150110  0.51659640  1
  Ba  Ba43  1  0.79645289  0.22783520  0.78000898  1
  Ba  Ba44  1  0.73329724  0.67924589  0.71533521  1
  Ba  Ba45  1  0.03159741  0.29693933  0.81255788  1
  Ba  Ba46  1  0.70922961  0.27429797  0.56454418  1
  Ba  Ba47  1  -0.05332704  0.77832220  0.72418478  1
  Ba  Ba48  1  0.44866736  0.76903961  0.76188334  1
  Ba  Ba49  1  0.24204780  0.47036387  0.53862401  1
  Ba  Ba50  1  0.27684756  0.03221361  0.71882702  1
  Fe  Fe51  1  0.21923582  0.28707944  0.91199341  1
  Fe  Fe52  1  0.25436714  0.72276785  1.03940919  1
  Fe  Fe53  1  0.43867784  0.27365304  0.60567849  1
  Fe  Fe54  1  0.64844619  0.86907514  0.80104374  1
  Fe  Fe55  1  0.88292935  0.42108990  0.77832961  1
  Fe  Fe56  1  0.19660103  0.37630151  0.34264589  1
  Fe  Fe57  1  0.60779914  0.46068311  0.92077298  1
  Fe  Fe58  1  0.67500901  0.88463508  0.66959981  1
  Fe  Fe59  1  0.40999761  0.14398382  0.61243231  1
  Fe  Fe60  1  0.87022158  0.15514484  0.40791065  1
  Fe  Fe61  1  0.00827594  0.47490789  0.69158036  1
  Fe  Fe62  1  0.54723124  0.60218850  0.66859635  1
  Fe  Fe63  1  0.63419357  0.58924130  0.57085596  1
  Fe  Fe64  1  0.45808394  0.19004973  0.73527245  1
  Fe  Fe65  1  0.73888790  0.18379988  0.39227594  1
  Fe  Fe66  1  0.21138755  0.95520809  0.89067655  1
  Fe  Fe67  1  0.29174671  0.45051294  0.06224139  1
  Fe  Fe68  1  0.17660637  0.39359427  -0.00632102  1
  Fe  Fe69  1  1.00655541  0.57624821  0.47197040  1
  Fe  Fe70  1  0.17876045  0.76772011  0.47880197  1
  Fe  Fe71  1  0.31434901  0.60237712  0.06543338  1
  Fe  Fe72  1  0.13226978  0.06885597  0.56738879  1
  Fe  Fe73  1  0.19133499  0.80027428  0.15963754  1
  Fe  Fe74  1  0.31044623  0.76776214  0.56858923  1
  Fe  Fe75  1  0.18853509  0.66549313  0.15574791  1
  Fe  Fe76  1  0.19694263  0.66460070  0.58363612  1
  Fe  Fe77  1  0.13882619  0.62150100  0.45383198  1
  Fe  Fe78  1  0.88892543  0.55155180  0.74109884  1
  Fe  Fe79  1  0.92524691  0.56660259  0.59842003  1
  Fe  Fe80  1  0.61906766  0.54230341  0.02249908  1
  Fe  Fe81  1  0.63761137  0.86683933  0.38452974  1
  Fe  Fe82  1  0.27946844  0.29977877  0.04193004  1
  Fe  Fe83  1  0.07652666  0.57998407  0.60444535  1
  Fe  Fe84  1  0.66047139  0.99579295  0.07229819  1
  Fe  Fe85  1  0.31376399  0.80159877  0.43973071  1
  Fe  Fe86  1  0.63572307  0.12337957  0.10476864  1
  Fe  Fe87  1  0.79584242  0.84245517  0.61938185  1
  Fe  Fe88  1  0.54376312  0.16288343  0.59996032  1
  Fe  Fe89  1  0.71904757  0.31424793  0.37216210  1
  Fe  Fe90  1  0.74494411  0.11944325  0.02015449  1
  Fe  Fe91  1  0.76800246  1.04404338  0.13105684  1
  Fe  Fe92  1  0.29355465  0.65813726  0.46650947  1
  Fe  Fe93  1  0.84527453  0.28604126  0.41298684  1
  Fe  Fe94  1  0.33975564  0.93062820  0.88152771  1
  Fe  Fe95  1  0.78018899  0.86625015  0.77138730  1
  Fe  Fe96  1  0.54806490  0.29126510  0.68299283  1
  Fe  Fe97  1  0.82329525  -0.04515338  0.67621917  1
  Fe  Fe98  1  0.32666176  0.72984026  0.15667048  1
  Fe  Fe99  1  0.60447477  0.17065936  0.72258336  1
  Fe  Fe100  1  0.33036545  0.38060288  0.94256094  1
  Fe  Fe101  1  0.88025363  0.42619401  0.64629605  1
  Bi  Bi102  1  0.77412714  0.51274491  -0.11942106  1
  Bi  Bi103  1  0.36809255  0.61727207  0.63183539  1
  Bi  Bi104  1  0.71012570  0.03431758  0.77406861  1
  Bi  Bi105  1  0.37945934  0.22726397  -0.11515523  1
  Bi  Bi106  1  0.22335574  0.72795722  0.31434230  1
  Bi  Bi107  1  0.15686692  0.55796351  0.03488307  1
  Bi  Bi108  1  0.44971138  0.49989352  0.02143830  1
  Bi  Bi109  1  0.60089078  0.29718511  0.84654366  1
  Bi  Bi110  1  0.01576659  0.72925071  0.52951920  1
  Bi  Bi111  1  0.21274380  -0.07913372  0.54743189  1
  Bi  Bi112  1  0.17642509  0.37869111  0.17434643  1
  Bi  Bi113  1  0.28040043  0.88500643  0.03953153  1
  Bi  Bi114  1  0.04565803  0.61218569  0.78135661  1
  Bi  Bi115  1  0.29684852  0.65833707  0.89313868  1
  Bi  Bi116  1  0.41036501  0.06170868  0.30160632  1
  Bi  Bi117  1  0.05837383  0.11115850  0.42386296  1
  Bi  Bi118  1  0.90317392  0.14078379  0.94307562  1
  Bi  Bi119  1  0.62384691  0.59083806  0.39900798  1
  Bi  Bi120  1  0.36202312  0.37423716  0.38179468  1
  Bi  Bi121  1  0.15988829  0.12512735  0.87704171  1
  Bi  Bi122  1  0.60387721  0.66580573  0.14319836  1
  Bi  Bi123  1  0.80122646  0.90450901  0.37728630  1
  Bi  Bi124  1  0.91475325  0.69304797  0.11382329  1
  Bi  Bi125  1  0.57197644  0.60965573  0.84279915  1
  Bi  Bi126  1  0.90917141  0.39435308  0.14482005  1
  Bi  Bi127  1  0.13976265  0.11160000  0.20017108  1
