# generated using pymatgen
data_Ba51Fe51Bi26
_symmetry_space_group_name_H-M   'P 1'
_cell_length_a   16.50535696
_cell_length_b   16.13691259
_cell_length_c   16.20896325
_cell_angle_alpha   89.49772187
_cell_angle_beta   89.17432837
_cell_angle_gamma   88.98734809
_symmetry_Int_Tables_number   1
_chemical_formula_structural   Ba51Fe51Bi26
_chemical_formula_sum   'Ba51 Fe51 Bi26'
_cell_volume   4315.90556796
_cell_formula_units_Z   1
loop_
 _symmetry_equiv_pos_site_id
 _symmetry_equiv_pos_as_xyz
  1  'x, y, z'
loop_
 _atom_site_type_symbol
 _atom_site_label
 _atom_site_symmetry_multiplicity
 _atom_site_fract_x
 _atom_site_fract_y
 _atom_site_fract_z
 _atom_site_occupancy
  Ba  Ba0  1  0.41977298  0.41449102  0.12662448  1
  Ba  Ba1  1  0.65881075  0.02542654  0.34902498  1
  Ba  Ba2  1  -0.19375449  0.22815390  0.78236181  1
  Ba  Ba3  1  0.27433392  0.29741224  0.51086268  1
  Ba  Ba4  1  0.23164480  0.18416327  0.72955580  1
  Ba  Ba5  1  0.46854561  0.43202135  0.55417259  1
  Ba  Ba6  1  0.52769115  0.58300484  0.77729626  1
  Ba  Ba7  1  0.52690342  0.58166582  0.32815400  1
  Ba  Ba8  1  0.77351159  0.47088060  0.23906449  1
  Ba  Ba9  1  0.28399620  0.08573034  0.36247492  1
  Ba  Ba10  1  0.27754573  0.53955823  0.31965782  1
  Ba  Ba11  1  0.45403744  0.04035735  0.68714268  1
  Ba  Ba12  1  -0.07932509  0.65631130  0.74206041  1
  Ba  Ba13  1  -0.00162209  0.40973155  -0.20045889  1
  Ba  Ba14  1  0.24442595  0.12066674  0.02894022  1
  Ba  Ba15  1  0.85226254  0.17102166  0.18195093  1
  Ba  Ba16  1  0.09581384  0.01522056  0.21234024  1
  Ba  Ba17  1  0.91067141  0.53163358  0.40426873  1
  Ba  Ba18  1  0.60629238  0.29880777  0.24353972  1
  Ba  Ba19  1  0.79073876  0.27536031  0.50311148  1
  Ba  Ba20  1  0.67590084  0.42013352  0.69220365  1
  Ba  Ba21  1  0.48423981  -0.08286809  0.22135445  1
  Ba  Ba22  1  -0.03602244  -0.12174675  0.82884669  1
  Ba  Ba23  1  0.18104870  0.79460702  0.77904164  1
  Ba  Ba24  1  0.04315618  0.42090434  0.20239536  1
  Ba  Ba25  1  0.21499676  -0.05984751  0.56375524  1
  Ba  Ba26  1  0.42477198  0.23134516  -0.12027141  1
  Ba  Ba27  1  0.54359197  0.82502320  0.82764546  1
  Ba  Ba28  1  0.23740646  0.28537929  0.22959688  1
  Ba  Ba29  1  0.70229911  0.60135222  0.52720526  1
  Ba  Ba30  1  0.02051358  0.30901461  0.57546108  1
  Ba  Ba31  1  0.76398968  0.01215326  -0.05484585  1
  Ba  Ba32  1  0.67127224  0.76532973  0.18070940  1
  Ba  Ba33  1  0.48985081  0.00782542  -0.00837598  1
  Ba  Ba34  1  0.24880345  0.42698065  -0.09847764  1
  Ba  Ba35  1  0.00680848  0.11980891  -0.07460557  1
  Ba  Ba36  1  0.83819309  0.79464213  0.51808806  1
  Ba  Ba37  1  0.29250833  -0.12984188  0.10111533  1
  Ba  Ba38  1  0.59967581  -0.16139391  0.58837905  1
  Ba  Ba39  1  0.22794023  0.71638704  0.46965993  1
  Ba  Ba40  1  0.52395166  0.21544141  0.46950506  1
  Ba  Ba41  1  0.74292652  0.68826270  -0.03847312  1
  Ba  Ba42  1  0.72647632  0.06866891  0.60831158  1
  Ba  Ba43  1  0.33093689  0.65827516  -0.04415788  1
  Ba  Ba44  1  0.11233148  0.71601792  0.11910015  1
  Ba  Ba45  1  0.98786377  -0.03939961  0.41993049  1
  Ba  Ba46  1  0.42841839  0.81977561  0.42357306  1
  Ba  Ba47  1  0.61431795  0.20124280  0.01423397  1
  Ba  Ba48  1  -0.09467473  0.86988122  0.13217437  1
  Ba  Ba49  1  -0.03426964  0.53605947  0.00462136  1
  Ba  Ba50  1  0.30381378  0.59677291  0.67926466  1
  Fe  Fe51  1  0.53414459  0.11744269  0.18456445  1
  Fe  Fe52  1  0.61112007  0.40407957  0.03472101  1
  Fe  Fe53  1  0.08467844  0.58250301  0.47216759  1
  Fe  Fe54  1  0.32489936  0.73586689  0.25642011  1
  Fe  Fe55  1  0.49786675  0.36438752  0.75476595  1
  Fe  Fe56  1  0.09760687  0.66033149  0.59605977  1
  Fe  Fe57  1  0.80105160  0.69833827  0.32590331  1
  Fe  Fe58  1  0.44531412  0.71930007  0.19949773  1
  Fe  Fe59  1  0.94092847  0.74594193  0.32116824  1
  Fe  Fe60  1  0.74034062  0.32949317  0.06917699  1
  Fe  Fe61  1  0.46976827  0.09865687  0.30157781  1
  Fe  Fe62  1  0.38302084  0.08649005  0.18532289  1
  Fe  Fe63  1  0.84715226  0.37300954  0.94323809  1
  Fe  Fe64  1  0.46609756  0.62007366  0.09400296  1
  Fe  Fe65  1  0.43668077  0.26217515  0.67242201  1
  Fe  Fe66  1  0.97288839  0.16704340  0.42479797  1
  Fe  Fe67  1  -0.06272421  0.07235165  0.71285444  1
  Fe  Fe68  1  0.82431176  0.99268084  0.75782986  1
  Fe  Fe69  1  0.27920631  -0.02948271  0.75912366  1
  Fe  Fe70  1  0.43513675  0.19102691  0.11707272  1
  Fe  Fe71  1  0.78855674  0.87340470  0.68667527  1
  Fe  Fe72  1  0.20861946  -0.01769675  0.88919836  1
  Fe  Fe73  1  -0.13491626  0.37524936  0.08775821  1
  Fe  Fe74  1  -0.05337255  0.29557814  0.01580093  1
  Fe  Fe75  1  0.75978872  0.85583621  0.81682133  1
  Fe  Fe76  1  0.81708745  0.24793699  -0.01310177  1
  Fe  Fe77  1  0.06427050  0.80134660  0.32520211  1
  Fe  Fe78  1  0.02619079  1.00468972  0.61478155  1
  Fe  Fe79  1  0.50330544  0.50923694  0.98231871  1
  Fe  Fe80  1  0.32508199  0.04576798  0.85799406  1
  Fe  Fe81  1  0.69316016  0.75607822  0.37822118  1
  Fe  Fe82  1  0.10896838  0.55340780  0.68815366  1
  Fe  Fe83  1  0.64153723  0.51241642  0.93246500  1
  Fe  Fe84  1  0.60900410  0.28389457  0.81914434  1
  Fe  Fe85  1  0.56743763  0.23877307  0.69527789  1
  Fe  Fe86  1  0.89879548  0.95865522  0.62476498  1
  Fe  Fe87  1  0.96848669  0.64586348  0.55445691  1
  Fe  Fe88  1  0.36548918  0.36443100  0.71989002  1
  Fe  Fe89  1  0.42755872  0.21792269  0.25376730  1
  Fe  Fe90  1  0.03108914  0.19000748  0.28994824  1
  Fe  Fe91  1  0.55441183  0.63437242  -0.02307672  1
  Fe  Fe92  1  0.70098935  0.35853454  0.91719544  1
  Fe  Fe93  1  1.02832544  0.72781817  0.45006267  1
  Fe  Fe94  1  0.75475367  0.46294601  1.01990420  1
  Fe  Fe95  1  0.68331582  0.95402005  0.76333336  1
  Fe  Fe96  1  0.33117028  0.64452936  0.15574103  1
  Fe  Fe97  1  0.16515364  0.51135324  0.55877307  1
  Fe  Fe98  1  1.01986759  0.51989069  0.59055795  1
  Fe  Fe99  1  0.55184035  0.39404697  0.89404922  1
  Fe  Fe100  1  0.08894185  0.25189763  0.38802054  1
  Fe  Fe101  1  0.93766273  0.10168859  0.56088586  1
  Bi  Bi102  1  0.10905913  0.01820240  0.75836312  1
  Bi  Bi103  1  0.62004111  0.55263930  0.11891989  1
  Bi  Bi104  1  0.80722284  0.87368757  0.32201429  1
  Bi  Bi105  1  0.06107794  0.21354952  0.11703127  1
  Bi  Bi106  1  0.50525018  0.78533799  0.04452625  1
  Bi  Bi107  1  -0.20325662  0.50386576  0.85200734  1
  Bi  Bi108  1  0.71167490  0.71645431  0.72560385  1
  Bi  Bi109  1  0.61505587  0.10773431  0.81123971  1
  Bi  Bi110  1  0.12401315  0.41958764  0.41370228  1
  Bi  Bi111  1  0.11764123  0.12576245  0.51096580  1
  Bi  Bi112  1  0.02993668  0.82335038  0.60647743  1
  Bi  Bi113  1  0.08084273  0.63213334  0.30986140  1
  Bi  Bi114  1  0.19914423  0.39952074  0.69095553  1
  Bi  Bi115  1  0.34466832  0.87747753  0.89183982  1
  Bi  Bi116  1  0.22760375  0.87372605  0.31801681  1
  Bi  Bi117  1  0.65116991  0.41744625  0.42752086  1
  Bi  Bi118  1  0.48330372  0.64866013  0.55018980  1
  Bi  Bi119  1  0.37845204  0.82980094  0.65262060  1
  Bi  Bi120  1  0.66857906  1.01575400  0.13686052  1
  Bi  Bi121  1  0.91753824  0.31107842  0.34073913  1
  Bi  Bi122  1  0.86676133  0.46202244  0.61409088  1
  Bi  Bi123  1  0.09567601  0.92643403  1.01167937  1
  Bi  Bi124  1  0.41035454  0.36365532  0.34525998  1
  Bi  Bi125  1  0.88008675  0.65534559  0.17492028  1
  Bi  Bi126  1  0.22265107  0.51568314  0.10360808  1
  Bi  Bi127  1  0.11805653  0.59767719  0.85420331  1
