# generated using pymatgen
data_Ba51Fe51Bi26
_symmetry_space_group_name_H-M   'P 1'
_cell_length_a   16.33669111
_cell_length_b   16.32301460
_cell_length_c   16.45409123
_cell_angle_alpha   88.32320227
_cell_angle_beta   90.23957360
_cell_angle_gamma   88.73830256
_symmetry_Int_Tables_number   1
_chemical_formula_structural   Ba51Fe51Bi26
_chemical_formula_sum   'Ba51 Fe51 Bi26'
_cell_volume   4384.72125388
_cell_formula_units_Z   1
loop_
 _symmetry_equiv_pos_site_id
 _symmetry_equiv_pos_as_xyz
  1  'x, y, z'
loop_
 _atom_site_type_symbol
 _atom_site_label
 _atom_site_symmetry_multiplicity
 _atom_site_fract_x
 _atom_site_fract_y
 _atom_site_fract_z
 _atom_site_occupancy
  Ba  Ba0  1  0.22513853  0.37227992  0.71623996  1
  Ba  Ba1  1  0.58784581  0.36278711  0.27804426  1
  Ba  Ba2  1  0.26135959  -0.07376521  0.63398062  1
  Ba  Ba3  1  0.51889152  0.04157244  0.17886455  1
  Ba  Ba4  1  0.69918191  0.17637932  0.28370811  1
  Ba  Ba5  1  0.76900204  0.73414075  -0.05302201  1
  Ba  Ba6  1  0.21556643  0.43483564  0.27351176  1
  Ba  Ba7  1  -0.07261013  0.32701329  0.82973431  1
  Ba  Ba8  1  0.10825040  0.16057298  0.64769866  1
  Ba  Ba9  1  0.61340832  0.69048787  0.57570474  1
  Ba  Ba10  1  0.49601508  -0.02179573  0.42999424  1
  Ba  Ba11  1  0.50204994  0.76562372  0.33636931  1
  Ba  Ba12  1  -0.00255871  0.50703636  -0.01105304  1
  Ba  Ba13  1  0.30554842  0.74831982  -0.01721904  1
  Ba  Ba14  1  0.49268934  0.56189515  0.02035243  1
  Ba  Ba15  1  0.01925398  0.59429617  0.68684630  1
  Ba  Ba16  1  -0.05729216  0.05566651  -0.01899901  1
  Ba  Ba17  1  0.73487634  -0.11713648  0.64482876  1
  Ba  Ba18  1  0.49015373  0.19394885  0.76600215  1
  Ba  Ba19  1  0.01525752  0.84050663  0.49712451  1
  Ba  Ba20  1  0.71066564  0.77758930  0.21135783  1
  Ba  Ba21  1  0.35389596  0.24056850  0.19235905  1
  Ba  Ba22  1  -0.02730422  0.51384647  0.27680903  1
  Ba  Ba23  1  -0.00720152  -0.04110807  0.71384815  1
  Ba  Ba24  1  0.26498179  0.47146142  0.00735118  1
  Ba  Ba25  1  0.70728879  0.08984514  0.76980153  1
  Ba  Ba26  1  0.32328402  0.54215011  0.47707113  1
  Ba  Ba27  1  0.00705342  0.76556709  0.26430939  1
  Ba  Ba28  1  0.81219411  0.67726328  0.42458088  1
  Ba  Ba29  1  0.70086366  -0.02558735  0.02459923  1
  Ba  Ba30  1  0.01528949  0.78380321  0.94518670  1
  Ba  Ba31  1  0.43450167  0.55043700  0.24525926  1
  Ba  Ba32  1  0.50219190  0.43610778  0.78946227  1
  Ba  Ba33  1  0.83715456  -0.02973664  0.29104517  1
  Ba  Ba34  1  0.73912736  0.46508135  -0.04255063  1
  Ba  Ba35  1  0.30090461  0.11831917  0.42467082  1
  Ba  Ba36  1  0.09197670  0.27228718  0.06586651  1
  Ba  Ba37  1  0.53198126  0.78332257  -0.03567426  1
  Ba  Ba38  1  0.75408460  0.48813013  0.66478223  1
  Ba  Ba39  1  0.72823986  0.53029687  0.19541043  1
  Ba  Ba40  1  0.33161084  0.24710476  -0.05407856  1
  Ba  Ba41  1  0.25312337  0.66099752  0.76067582  1
  Ba  Ba42  1  -0.07919212  0.27519893  0.50232302  1
  Ba  Ba43  1  0.25202940  -0.02651118  0.21766557  1
  Ba  Ba44  1  0.24772852  0.72741455  0.32136797  1
  Ba  Ba45  1  0.53814266  0.44590488  0.51977790  1
  Ba  Ba46  1  0.40932175  -0.05209762  -0.17806336  1
  Ba  Ba47  1  -0.05837574  0.18559997  0.23202369  1
  Ba  Ba48  1  0.19228548  0.01267066  -0.03244749  1
  Ba  Ba49  1  0.52268190  0.19806456  0.52328600  1
  Ba  Ba50  1  0.18227891  0.30740526  0.46904127  1
  Fe  Fe51  1  0.14955481  0.64004405  1.02602504  1
  Fe  Fe52  1  0.67537994  0.05295232  0.55132551  1
  Fe  Fe53  1  0.63132087  0.20197257  0.08588436  1
  Fe  Fe54  1  0.43086214  0.75922002  0.69386444  1
  Fe  Fe55  1  0.80121295  0.18589310  0.92162592  1
  Fe  Fe56  1  0.79858637  0.97686974  0.48332324  1
  Fe  Fe57  1  0.57142293  0.26893427  0.94523913  1
  Fe  Fe58  1  0.30844479  0.20234409  0.62225958  1
  Fe  Fe59  1  0.53443677  0.84933258  0.70196296  1
  Fe  Fe60  1  0.73594126  0.18175376  0.59427723  1
  Fe  Fe61  1  1.02836443  0.59553293  0.48905273  1
  Fe  Fe62  1  0.06641229  0.45969290  0.43551684  1
  Fe  Fe63  1  1.06141925  0.65137524  0.12370935  1
  Fe  Fe64  1  0.59714676  0.74489741  0.76567780  1
  Fe  Fe65  1  0.77857471  0.12935624  0.46067883  1
  Fe  Fe66  1  0.12103469  1.03429152  0.48474888  1
  Fe  Fe67  1  0.13491967  0.57893020  0.41221124  1
  Fe  Fe68  1  0.60426691  0.35565968  0.06634260  1
  Fe  Fe69  1  0.74579820  0.46241910  0.41441261  1
  Fe  Fe70  1  0.40827822  0.87025120  0.10699339  1
  Fe  Fe71  1  0.12256983  0.53242071  0.13491979  1
  Fe  Fe72  1  0.77497331  0.15679200  0.06934617  1
  Fe  Fe73  1  0.64898114  0.29287081  0.65198292  1
  Fe  Fe74  1  0.68723242  1.03196963  0.42029061  1
  Fe  Fe75  1  0.78044876  0.28999860  0.66743184  1
  Fe  Fe76  1  0.13519768  0.35457248  0.89206967  1
  Fe  Fe77  1  0.45589547  0.84574167  0.57818553  1
  Fe  Fe78  1  0.04034283  0.94426425  0.13677869  1
  Fe  Fe79  1  0.08236225  0.06528023  0.15374449  1
  Fe  Fe80  1  0.52840615  0.84035933  0.15319846  1
  Fe  Fe81  1  0.36358196  0.82516035  0.47354359  1
  Fe  Fe82  1  0.43233008  0.71098180  0.51624271  1
  Fe  Fe83  1  0.86609721  0.24724445  0.01807113  1
  Fe  Fe84  1  0.47774848  0.37524863  0.97938681  1
  Fe  Fe85  1  0.48632246  0.19390400  0.33193190  1
  Fe  Fe86  1  0.15052126  0.51577705  0.54923714  1
  Fe  Fe87  1  0.73181629  0.68098123  0.75841598  1
  Fe  Fe88  1  0.37087422  0.08993902  0.63336474  1
  Fe  Fe89  1  0.32995514  0.74048209  0.59177819  1
  Fe  Fe90  1  0.41190931  0.74103180  0.15720207  1
  Fe  Fe91  1  0.53894384  0.70451585  0.14477424  1
  Fe  Fe92  1  0.66490731  0.15533587  0.95325967  1
  Fe  Fe93  1  0.49757801  0.24750353  0.06815597  1
  Fe  Fe94  1  0.46807626  0.37973500  0.10765450  1
  Fe  Fe95  1  0.81867622  1.06161969  0.58950805  1
  Fe  Fe96  1  0.71756773  0.28103698  0.98659819  1
  Fe  Fe97  1  0.04185427  0.44369616  0.56573807  1
  Fe  Fe98  1  0.47107524  0.68201581  0.79982898  1
  Fe  Fe99  1  0.07692839  0.12720043  0.40053599  1
  Fe  Fe100  1  0.13808210  0.23237952  0.86171560  1
  Fe  Fe101  1  0.21465018  0.63100959  0.14713745  1
  Bi  Bi102  1  0.70020703  0.31103544  0.48697642  1
  Bi  Bi103  1  -0.04686388  0.05296104  0.49487259  1
  Bi  Bi104  1  0.69158756  0.30784333  0.81533893  1
  Bi  Bi105  1  0.68622967  -0.13904380  0.41848644  1
  Bi  Bi106  1  0.17154792  0.68841544  0.54834008  1
  Bi  Bi107  1  0.15325584  0.80253756  0.11669766  1
  Bi  Bi108  1  -0.10560834  0.49239126  0.49572277  1
  Bi  Bi109  1  0.63483967  0.89583644  0.83053256  1
  Bi  Bi110  1  0.77128329  0.32562510  0.13232930  1
  Bi  Bi111  1  0.42777939  0.59295661  0.65280348  1
  Bi  Bi112  1  0.50566690  0.10271240  -0.02695972  1
  Bi  Bi113  1  0.52475117  0.00875257  0.63808146  1
  Bi  Bi114  1  0.04878095  -0.01704335  0.30318474  1
  Bi  Bi115  1  0.88658223  0.86967542  0.10562746  1
  Bi  Bi116  1  0.83951738  0.70095921  0.63339753  1
  Bi  Bi117  1  0.86553294  0.57973668  0.82948574  1
  Bi  Bi118  1  0.89546955  0.16442167  0.69728572  1
  Bi  Bi119  1  0.22581502  0.91508472  0.42459870  1
  Bi  Bi120  1  0.62271087  0.57760440  0.36976343  1
  Bi  Bi121  1  0.27531233  0.13165628  0.77836403  1
  Bi  Bi122  1  0.18238422  0.86111437  0.82474498  1
  Bi  Bi123  1  0.61385877  0.60001555  0.84998866  1
  Bi  Bi124  1  0.83085940  0.35886152  0.31517011  1
  Bi  Bi125  1  0.15864331  0.19782301  0.26542758  1
  Bi  Bi126  1  0.39433364  0.33244886  0.38324205  1
  Bi  Bi127  1  0.84140291  0.91676496  0.85350714  1
