# generated using pymatgen
data_Ba51Fe51Bi26
_symmetry_space_group_name_H-M   'P 1'
_cell_length_a   16.22166483
_cell_length_b   16.09078422
_cell_length_c   16.82433772
_cell_angle_alpha   89.08276943
_cell_angle_beta   89.75852398
_cell_angle_gamma   88.32389955
_symmetry_Int_Tables_number   1
_chemical_formula_structural   Ba51Fe51Bi26
_chemical_formula_sum   'Ba51 Fe51 Bi26'
_cell_volume   4389.00479135
_cell_formula_units_Z   1
loop_
 _symmetry_equiv_pos_site_id
 _symmetry_equiv_pos_as_xyz
  1  'x, y, z'
loop_
 _atom_site_type_symbol
 _atom_site_label
 _atom_site_symmetry_multiplicity
 _atom_site_fract_x
 _atom_site_fract_y
 _atom_site_fract_z
 _atom_site_occupancy
  Ba  Ba0  1  0.87704154  0.56150191  0.81729459  1
  Ba  Ba1  1  0.65668683  0.33377079  -0.02685487  1
  Ba  Ba2  1  0.36496625  -0.02242453  0.45898743  1
  Ba  Ba3  1  0.19697660  0.23959395  0.67820913  1
  Ba  Ba4  1  0.37594998  0.53934566  0.79771617  1
  Ba  Ba5  1  0.26379832  0.29775932  -0.11327544  1
  Ba  Ba6  1  0.02876632  0.20449595  0.21609162  1
  Ba  Ba7  1  -0.03104138  0.73892316  0.02186825  1
  Ba  Ba8  1  0.19222434  -0.11820929  0.32835466  1
  Ba  Ba9  1  0.60963124  0.46296131  0.74290170  1
  Ba  Ba10  1  0.22198521  0.34656847  0.39920823  1
  Ba  Ba11  1  0.58086828  0.53661351  0.50113797  1
  Ba  Ba12  1  0.73888691  0.25401338  0.68824517  1
  Ba  Ba13  1  0.04861155  0.38137295  0.55822104  1
  Ba  Ba14  1  0.65208727  -0.01043524  -0.00727150  1
  Ba  Ba15  1  0.21255425  0.06662471  0.04806119  1
  Ba  Ba16  1  0.72249741  0.23329946  0.26558355  1
  Ba  Ba17  1  0.80601225  0.47284941  0.57760198  1
  Ba  Ba18  1  0.30808530  0.03710024  0.68561953  1
  Ba  Ba19  1  0.62078686  -0.11881302  0.29623793  1
  Ba  Ba20  1  0.28847632  0.54445206  0.23892100  1
  Ba  Ba21  1  0.06628942  0.65895117  0.30713010  1
  Ba  Ba22  1  0.64635286  0.06959325  0.49080486  1
  Ba  Ba23  1  0.58520329  0.74083475  0.70058513  1
  Ba  Ba24  1  -0.03486345  0.18736338  0.75810865  1
  Ba  Ba25  1  0.11465880  0.10531014  0.42179506  1
  Ba  Ba26  1  0.07585556  0.60419217  0.64872595  1
  Ba  Ba27  1  0.16444594  0.59986272  0.88839445  1
  Ba  Ba28  1  0.52380613  0.78565736  0.48597626  1
  Ba  Ba29  1  0.20859791  -0.13068915  -0.09584719  1
  Ba  Ba30  1  0.81973347  0.14744548  0.00866192  1
  Ba  Ba31  1  -0.03312203  0.81940294  0.50013695  1
  Ba  Ba32  1  -0.16617557  0.78469068  0.71046531  1
  Ba  Ba33  1  0.02264712  0.31343013  -0.04879648  1
  Ba  Ba34  1  0.28316020  0.30602400  0.15959963  1
  Ba  Ba35  1  -0.11665465  0.08252861  0.49784529  1
  Ba  Ba36  1  0.89191738  0.44956522  0.30050072  1
  Ba  Ba37  1  0.50226405  0.73931614  -0.07530506  1
  Ba  Ba38  1  0.47908300  0.25867396  0.39662661  1
  Ba  Ba39  1  0.48397813  -0.02985004  0.82917709  1
  Ba  Ba40  1  0.41040105  -0.04360178  0.17989785  1
  Ba  Ba41  1  -0.04039346  -0.03308754  -0.13125395  1
  Ba  Ba42  1  0.04103717  -0.06290150  0.16823541  1
  Ba  Ba43  1  0.34958707  0.65708283  0.58851435  1
  Ba  Ba44  1  0.33127960  0.67892844  0.04968144  1
  Ba  Ba45  1  0.79380436  0.71019516  0.36854573  1
  Ba  Ba46  1  0.47764065  0.18400757  0.03564101  1
  Ba  Ba47  1  0.71291491  0.75264472  0.07968398  1
  Ba  Ba48  1  0.55613354  0.54533907  0.25789943  1
  Ba  Ba49  1  0.17167988  0.83436192  0.67496784  1
  Ba  Ba50  1  0.79425246  0.50569657  0.06344969  1
  Fe  Fe51  1  0.40321569  0.62805354  0.37748863  1
  Fe  Fe52  1  0.56492556  0.21870631  0.59975279  1
  Fe  Fe53  1  0.13029474  0.62531244  1.10269394  1
  Fe  Fe54  1  0.49855322  0.35374733  0.59331460  1
  Fe  Fe55  1  0.00492295  0.41632261  0.11728236  1
  Fe  Fe56  1  0.57008958  0.47029774  0.07494133  1
  Fe  Fe57  1  0.06208326  0.11014043  0.60675489  1
  Fe  Fe58  1  0.53188996  0.27883445  0.72184700  1
  Fe  Fe59  1  0.53266525  0.60302842  0.06617682  1
  Fe  Fe60  1  0.42010506  0.22358171  0.62148348  1
  Fe  Fe61  1  -0.05060021  0.93323596  0.34182824  1
  Fe  Fe62  1  0.94116954  0.39069810  0.73065191  1
  Fe  Fe63  1  0.43237054  0.49552843  0.11090113  1
  Fe  Fe64  1  0.24788010  -0.15953309  0.14288381  1
  Fe  Fe65  1  0.01316528  0.55100496  0.15026899  1
  Fe  Fe66  1  0.84873178  0.91081343  0.24358025  1
  Fe  Fe67  1  0.74979424  0.09116451  0.81844686  1
  Fe  Fe68  1  0.76679369  0.96049326  0.79339907  1
  Fe  Fe69  1  0.36729546  0.78267602  0.77231690  1
  Fe  Fe70  1  0.39850792  0.83548760  0.33396209  1
  Fe  Fe71  1  0.39717986  0.46281687  0.61063327  1
  Fe  Fe72  1  0.65457322  0.92771383  0.72628640  1
  Fe  Fe73  1  0.33957787  0.34548836  0.56421023  1
  Fe  Fe74  1  0.71166748  0.69076865  0.55293706  1
  Fe  Fe75  1  0.75251031  0.03366430  0.29467135  1
  Fe  Fe76  1  1.14466517  0.55213263  0.47205889  1
  Fe  Fe77  1  0.76137950  0.96513378  0.64056780  1
  Fe  Fe78  1  0.39368799  0.84609183  0.66538257  1
  Fe  Fe79  1  0.26741111  0.58940037  0.42819734  1
  Fe  Fe80  1  0.10559866  0.98911471  0.57346964  1
  Fe  Fe81  1  0.10304534  1.03013549  0.70709351  1
  Fe  Fe82  1  0.13298673  0.47830489  1.08711757  1
  Fe  Fe83  1  0.42430471  0.20350480  0.76700757  1
  Fe  Fe84  1  0.44809227  0.38797155  1.02677278  1
  Fe  Fe85  1  0.25429836  0.48116467  0.54318967  1
  Fe  Fe86  1  -0.10515620  0.05340414  0.30874051  1
  Fe  Fe87  1  0.81681780  0.93849749  0.37753614  1
  Fe  Fe88  1  0.31993649  0.73565680  0.39009501  1
  Fe  Fe89  1  0.74493300  0.97553869  0.17127387  1
  Fe  Fe90  1  0.52324270  0.12366860  0.69057995  1
  Fe  Fe91  1  0.33865083  0.74880317  0.24161574  1
  Fe  Fe92  1  0.83882143  0.66996805  0.55536210  1
  Fe  Fe93  1  0.39046004  0.34699969  0.70817207  1
  Fe  Fe94  1  0.26307344  0.43109805  0.67079747  1
  Fe  Fe95  1  0.15365452  -0.22725269  0.07747764  1
  Fe  Fe96  1  0.20033299  0.72357908  0.19261433  1
  Fe  Fe97  1  0.85544943  0.05146624  0.18215042  1
  Fe  Fe98  1  0.66191545  1.06772683  0.70376949  1
  Fe  Fe99  1  0.46802815  0.72387112  0.31030519  1
  Fe  Fe100  1  0.81751249  0.06565312  0.70451349  1
  Fe  Fe101  1  0.47517632  0.51438533  0.96540093  1
  Bi  Bi102  1  0.46785198  0.34991264  0.86506370  1
  Bi  Bi103  1  0.10240013  0.42711143  0.24754617  1
  Bi  Bi104  1  0.39762201  0.46436156  0.43271411  1
  Bi  Bi105  1  0.50500619  0.75172572  0.15319370  1
  Bi  Bi106  1  -0.04578131  -0.03459285  0.65903738  1
  Bi  Bi107  1  -0.00087985  0.52554566  -0.01207446  1
  Bi  Bi108  1  0.85697868  0.92892209  0.05822839  1
  Bi  Bi109  1  0.83081270  0.35253416  0.84818019  1
  Bi  Bi110  1  0.74161888  0.85945579  0.51072341  1
  Bi  Bi111  1  0.30686872  0.17900355  0.50738578  1
  Bi  Bi112  1  0.59500696  0.15939828  0.84544115  1
  Bi  Bi113  1  0.63788834  0.56472808  -0.07143657  1
  Bi  Bi114  1  0.28988459  0.46984870  0.01509187  1
  Bi  Bi115  1  0.65530808  0.32410682  0.50039826  1
  Bi  Bi116  1  0.51704074  -0.04094473  0.62435303  1
  Bi  Bi117  1  1.10364906  0.41862605  0.76635479  1
  Bi  Bi118  1  0.86737624  0.31427096  0.12806860  1
  Bi  Bi119  1  0.68698681  0.82661689  0.86394822  1
  Bi  Bi120  1  1.02740428  0.75329803  0.81466620  1
  Bi  Bi121  1  0.60782120  0.07429910  0.18799367  1
  Bi  Bi122  1  0.87804185  0.64784569  0.19287074  1
  Bi  Bi123  1  0.15541680  0.09515529  0.85010484  1
  Bi  Bi124  1  0.23333257  0.09434252  0.24999413  1
  Bi  Bi125  1  0.96056862  0.57360463  0.47171563  1
  Bi  Bi126  1  0.50921150  0.34335033  0.18272485  1
  Bi  Bi127  1  0.17351665  0.72907640  0.48502984  1
